45361080
  -OEChem-12032416233D

 61 64  0     1  0  0  0  0  0999 V2000
   -0.9513   -0.7469   -1.3159 O   0  0  0  0  0  0  0  0  0  0  0  0
    5.2503    1.2663   -0.4066 O   0  0  0  0  0  0  0  0  0  0  0  0
    5.3087   -3.5548    0.6951 O   0  0  0  0  0  0  0  0  0  0  0  0
    0.5875    2.0836    0.8313 N   0  0  1  0  0  0  0  0  0  0  0  0
   -2.7192    0.6706    0.1531 N   0  0  1  0  0  0  0  0  0  0  0  0
    0.3537    1.0542   -1.8537 N   0  0  0  0  0  0  0  0  0  0  0  0
    4.6509   -0.9680   -0.2083 N   0  0  0  0  0  0  0  0  0  0  0  0
   -0.8886    2.1485    0.7496 C   0  0  1  0  0  0  0  0  0  0  0  0
   -1.5979    1.4279   -0.4342 C   0  0  1  0  0  0  0  0  0  0  0  0
   -1.6091    1.5457    1.9700 C   0  0  0  0  0  0  0  0  0  0  0  0
   -3.0047    1.2672    1.4531 C   0  0  0  0  0  0  0  0  0  0  0  0
    1.2969    2.7394   -0.3026 C   0  0  2  0  0  0  0  0  0  0  0  0
   -0.7193    0.4574   -1.2194 C   0  0  0  0  0  0  0  0  0  0  0  0
    0.7001    2.4526   -1.6944 C   0  0  0  0  0  0  0  0  0  0  0  0
    2.7779    2.3072   -0.3349 C   0  0  0  0  0  0  0  0  0  0  0  0
   -3.8986    0.6291   -0.7021 C   0  0  0  0  0  0  0  0  0  0  0  0
    1.0654    2.6262    2.1143 C   0  0  0  0  0  0  0  0  0  0  0  0
    2.9319    0.8021   -0.2331 C   0  0  0  0  0  0  0  0  0  0  0  0
   -4.8021   -0.5243   -0.3555 C   0  0  0  0  0  0  0  0  0  0  0  0
    4.3830    0.3966   -0.2927 C   0  0  0  0  0  0  0  0  0  0  0  0
   -4.6267   -1.7593   -0.9799 C   0  0  0  0  0  0  0  0  0  0  0  0
   -5.8143   -0.3583    0.5896 C   0  0  0  0  0  0  0  0  0  0  0  0
    6.0322   -1.4472   -0.2533 C   0  0  0  0  0  0  0  0  0  0  0  0
    3.6435   -2.0341   -0.2001 C   0  0  0  0  0  0  0  0  0  0  0  0
   -5.4636   -2.8282   -0.6591 C   0  0  0  0  0  0  0  0  0  0  0  0
   -6.6511   -1.4271    0.9106 C   0  0  0  0  0  0  0  0  0  0  0  0
    6.2642   -2.4984    0.8227 C   0  0  0  0  0  0  0  0  0  0  0  0
    3.9763   -3.0658    0.8706 C   0  0  0  0  0  0  0  0  0  0  0  0
   -6.4758   -2.6621    0.2861 C   0  0  0  0  0  0  0  0  0  0  0  0
   -1.1840    3.2084    0.7057 H   0  0  0  0  0  0  0  0  0  0  0  0
   -1.9821    2.1874   -1.1283 H   0  0  0  0  0  0  0  0  0  0  0  0
   -1.6319    2.2309    2.8237 H   0  0  0  0  0  0  0  0  0  0  0  0
   -1.1312    0.6091    2.2874 H   0  0  0  0  0  0  0  0  0  0  0  0
   -3.5358    0.5853    2.1236 H   0  0  0  0  0  0  0  0  0  0  0  0
   -3.5701    2.2041    1.3703 H   0  0  0  0  0  0  0  0  0  0  0  0
    1.2696    3.8302   -0.1727 H   0  0  0  0  0  0  0  0  0  0  0  0
    1.4031    2.7060   -2.4957 H   0  0  0  0  0  0  0  0  0  0  0  0
   -0.1898    3.0667   -1.8654 H   0  0  0  0  0  0  0  0  0  0  0  0
    3.2543    2.6769   -1.2528 H   0  0  0  0  0  0  0  0  0  0  0  0
    3.3291    2.7941    0.4790 H   0  0  0  0  0  0  0  0  0  0  0  0
   -3.5991    0.5000   -1.7517 H   0  0  0  0  0  0  0  0  0  0  0  0
   -4.4571    1.5750   -0.6844 H   0  0  0  0  0  0  0  0  0  0  0  0
    0.9319    0.4771   -2.4566 H   0  0  0  0  0  0  0  0  0  0  0  0
    2.1511    2.5496    2.2184 H   0  0  0  0  0  0  0  0  0  0  0  0
    0.6723    2.0576    2.9629 H   0  0  0  0  0  0  0  0  0  0  0  0
    0.7836    3.6780    2.2386 H   0  0  0  0  0  0  0  0  0  0  0  0
    2.4532    0.2925   -1.0669 H   0  0  0  0  0  0  0  0  0  0  0  0
    2.5245    0.4251    0.7103 H   0  0  0  0  0  0  0  0  0  0  0  0
   -3.8408   -1.9031   -1.7166 H   0  0  0  0  0  0  0  0  0  0  0  0
   -5.9662    0.5995    1.0799 H   0  0  0  0  0  0  0  0  0  0  0  0
    6.1770   -1.8850   -1.2479 H   0  0  0  0  0  0  0  0  0  0  0  0
    6.7405   -0.6212   -0.1393 H   0  0  0  0  0  0  0  0  0  0  0  0
    2.6324   -1.6549   -0.0453 H   0  0  0  0  0  0  0  0  0  0  0  0
    3.6802   -2.4977   -1.1931 H   0  0  0  0  0  0  0  0  0  0  0  0
    6.1923   -2.0655    1.8275 H   0  0  0  0  0  0  0  0  0  0  0  0
    7.2628   -2.9331    0.7152 H   0  0  0  0  0  0  0  0  0  0  0  0
    3.2933   -3.9177    0.7965 H   0  0  0  0  0  0  0  0  0  0  0  0
    3.8767   -2.6422    1.8771 H   0  0  0  0  0  0  0  0  0  0  0  0
   -5.3267   -3.7899   -1.1449 H   0  0  0  0  0  0  0  0  0  0  0  0
   -7.4400   -1.2975    1.6457 H   0  0  0  0  0  0  0  0  0  0  0  0
   -7.1274   -3.4943    0.5359 H   0  0  0  0  0  0  0  0  0  0  0  0
  1 13  2  0  0  0  0
  2 20  2  0  0  0  0
  3 27  1  0  0  0  0
  3 28  1  0  0  0  0
  4  8  1  0  0  0  0
  4 12  1  0  0  0  0
  4 17  1  0  0  0  0
  5  9  1  0  0  0  0
  5 11  1  0  0  0  0
  5 16  1  0  0  0  0
  6 13  1  0  0  0  0
  6 14  1  0  0  0  0
  6 43  1  0  0  0  0
  7 20  1  0  0  0  0
  7 23  1  0  0  0  0
  7 24  1  0  0  0  0
  8  9  1  0  0  0  0
  8 10  1  0  0  0  0
  8 30  1  0  0  0  0
  9 13  1  0  0  0  0
  9 31  1  0  0  0  0
 10 11  1  0  0  0  0
 10 32  1  0  0  0  0
 10 33  1  0  0  0  0
 11 34  1  0  0  0  0
 11 35  1  0  0  0  0
 12 14  1  0  0  0  0
 12 15  1  0  0  0  0
 12 36  1  0  0  0  0
 14 37  1  0  0  0  0
 14 38  1  0  0  0  0
 15 18  1  0  0  0  0
 15 39  1  0  0  0  0
 15 40  1  0  0  0  0
 16 19  1  0  0  0  0
 16 41  1  0  0  0  0
 16 42  1  0  0  0  0
 17 44  1  0  0  0  0
 17 45  1  0  0  0  0
 17 46  1  0  0  0  0
 18 20  1  0  0  0  0
 18 47  1  0  0  0  0
 18 48  1  0  0  0  0
 19 21  2  0  0  0  0
 19 22  1  0  0  0  0
 21 25  1  0  0  0  0
 21 49  1  0  0  0  0
 22 26  2  0  0  0  0
 22 50  1  0  0  0  0
 23 27  1  0  0  0  0
 23 51  1  0  0  0  0
 23 52  1  0  0  0  0
 24 28  1  0  0  0  0
 24 53  1  0  0  0  0
 24 54  1  0  0  0  0
 25 29  2  0  0  0  0
 25 59  1  0  0  0  0
 26 29  1  0  0  0  0
 26 60  1  0  0  0  0
 27 55  1  0  0  0  0
 27 56  1  0  0  0  0
 28 57  1  0  0  0  0
 28 58  1  0  0  0  0
 29 61  1  0  0  0  0
M  END
> <PUBCHEM_COMPOUND_CID>
45361080

> <PUBCHEM_CONFORMER_RMSD>
1

> <PUBCHEM_CONFORMER_DIVERSEORDER>
1
124
30
244
93
65
90
85
188
216
237
2
229
121
227
171
235
182
159
152
96
84
200
115
118
179
99
38
208
114
207
232
55
60
86
236
103
82
128
58
233
214
78
166
205
3
178
80
162
15
231
192
109
238
6
25
169
142
228
149
131
52
13
72
29
117
196
67
68
139
222
212
73
194
133
98
170
210
143
240
135
223
76
140
226
174
167
181
218
48
147
234
239
92
64
191
89
122
100
77
26
108
141
148
241
47
230
19
220
163
185
132
16
219
199
203
127
41
145
116
51
134
53
106
144
155
39
195
79
224
184
204
177
187
164
138
75
113
12
107
243
56
70
33
94
137
217
105
34
88
180
83
21
206
202
8
136
160
161
31
225
111
175
190
129
101
10
23
20
130
57
119
213
44
201
49
35
62
189
28
125
32
198
69
46
66
102
176
126
27
146
172
211
22
36
97
71
24
153
156
14
63
110
193
95
158
151
17
4
112
157
120
7
186
168
197
54
123
74
5
242
165
11
40
81
50
154
59
150
45
9
37
42
209
61
173
18
221
183
104
87
215
91
43

> <PUBCHEM_MMFF94_PARTIAL_CHARGES>
33
1 -0.57
11 0.27
12 0.27
13 0.57
14 0.3
16 0.41
17 0.27
18 0.06
19 -0.14
2 -0.57
20 0.57
21 -0.15
22 -0.15
23 0.3
24 0.3
25 -0.15
26 -0.15
27 0.28
28 0.28
29 -0.15
3 -0.56
4 -0.81
43 0.37
49 0.15
5 -0.81
50 0.15
59 0.15
6 -0.73
60 0.15
61 0.15
7 -0.66
8 0.27
9 0.33

> <PUBCHEM_EFFECTIVE_ROTOR_COUNT>
8.6

> <PUBCHEM_PHARMACOPHORE_FEATURES>
10
1 1 acceptor
1 2 acceptor
1 3 acceptor
1 4 cation
1 5 cation
1 6 donor
5 5 8 9 10 11 rings
6 19 21 22 25 26 29 rings
6 3 7 23 24 27 28 rings
7 4 6 8 9 12 13 14 rings

> <PUBCHEM_HEAVY_ATOM_COUNT>
29

> <PUBCHEM_ATOM_DEF_STEREO_COUNT>
3

> <PUBCHEM_ATOM_UDEF_STEREO_COUNT>
0

> <PUBCHEM_BOND_DEF_STEREO_COUNT>
0

> <PUBCHEM_BOND_UDEF_STEREO_COUNT>
0

> <PUBCHEM_ISOTOPIC_ATOM_COUNT>
0

> <PUBCHEM_COMPONENT_COUNT>
1

> <PUBCHEM_CACTVS_TAUTO_COUNT>
3

> <PUBCHEM_CONFORMER_ID>
02B427B800000001

> <PUBCHEM_MMFF94_ENERGY>
78.6393

> <PUBCHEM_FEATURE_SELFOVERLAP>
50.783

> <PUBCHEM_SHAPE_FINGERPRINT>
10074138 170 17201369447061589641
10622 236 18263921051572787546
11497681 19 18337115558610277142
117089 54 17842856438398321742
11963148 33 17836360828601939503
12107183 9 18268720420218660305
12166972 35 18186806876536056750
12422481 6 16128382579664867789
12596602 18 17988926661126551960
12633257 1 15123210157415909360
13533116 47 18339365278588834073
13782708 43 18040710368200941043
13911852 28 18334854991649683886
13955234 65 18125437763596707472
14251751 18 18410576210545962453
14251764 30 18334852801316797286
15019793 15 17979634859938421211
15064981 113 12974177199561132674
15361156 5 17459484268379317276
15475509 35 18270678795796701689
15927050 60 17553758856476590508
16728300 4 18343016649583931271
19315092 285 18411983542522268248
19319366 153 17982169230008320164
19841028 212 18334575720608861970
20028762 73 18340769252470861806
20567600 247 18338516447375541459
20775530 9 18339062831619334430
21033648 29 15051737443429297265
21344244 181 17386855083493874555
21585483 132 18267569364477907375
23559900 14 18334568092873206677
2748736 6 9439400203225534598
2838139 119 8574414427576832490
33382 64 18409731802416151049
345986 75 18059857238233876536
3472631 163 8790888483965746256
34797466 226 16588866944523693733
3680242 22 18130239267172492051
3886686 26 17410231503004414983
4058900 60 7853587824269517753
439807 62 18408324397932037379
46194498 28 17313945350036635108
465052 167 18272658990495136573
474113 269 18059564790232870871
484985 159 17760359999107856892
5104073 3 17775571952720948633
513202 73 18261112968206652365
6697151 62 17702929418961604913
70251023 43 18260550073503022973
7970288 3 18266173929650415930
96874 4 18412259541015197763

> <PUBCHEM_SHAPE_MULTIPOLES>
559.27
16.45
4.13
1.54
4.06
1.8
0.25
19.57
1.9
-3.22
0.86
0.39
-0.86
-1.73

> <PUBCHEM_SHAPE_SELFOVERLAP>
1173.842

> <PUBCHEM_SHAPE_VOLUME>
313.3

> <PUBCHEM_COORDINATE_TYPE>
2
5
10

$$$$
