75536744
  -OEChem-12032416323D

 45 46  0     1  0  0  0  0  0999 V2000
   -1.1195    1.1230   -0.0948 O   0  0  0  0  0  0  0  0  0  0  0  0
   -2.4211   -2.2144   -0.3662 O   0  0  0  0  0  0  0  0  0  0  0  0
    6.1577    0.9217    0.4514 O   0  0  0  0  0  0  0  0  0  0  0  0
    2.1035   -1.9041    0.2036 O   0  0  0  0  0  0  0  0  0  0  0  0
   -4.5856    0.0635   -0.4027 N   0  0  0  0  0  0  0  0  0  0  0  0
    1.4259    0.0076   -0.8691 N   0  0  0  0  0  0  0  0  0  0  0  0
    3.5193   -0.0667    0.2264 N   0  0  0  0  0  0  0  0  0  0  0  0
   -3.2246    0.0417    0.1079 C   0  0  1  0  0  0  0  0  0  0  0  0
   -2.2881   -0.8446   -0.6923 C   0  0  1  0  0  0  0  0  0  0  0  0
   -0.9324   -0.2907   -0.2754 C   0  0  1  0  0  0  0  0  0  0  0  0
   -2.5299    1.3891   -0.0011 C   0  0  0  0  0  0  0  0  0  0  0  0
    0.1585   -0.5370   -1.3022 C   0  0  0  0  0  0  0  0  0  0  0  0
   -5.5030    0.6413    0.5721 C   0  0  0  0  0  0  0  0  0  0  0  0
   -6.7552    1.1399   -0.1424 C   0  0  0  0  0  0  0  0  0  0  0  0
   -5.8556   -0.3883    1.6419 C   0  0  0  0  0  0  0  0  0  0  0  0
    2.3348   -0.7359   -0.1254 C   0  0  0  0  0  0  0  0  0  0  0  0
    4.5306   -0.7728    1.0165 C   0  0  0  0  0  0  0  0  0  0  0  0
    3.8073    1.3582    0.0088 C   0  0  0  0  0  0  0  0  0  0  0  0
    5.9290   -0.4881    0.4917 C   0  0  0  0  0  0  0  0  0  0  0  0
    5.2485    1.5565   -0.4486 C   0  0  0  0  0  0  0  0  0  0  0  0
   -3.1929   -0.3069    1.1475 H   0  0  0  0  0  0  0  0  0  0  0  0
   -2.4515   -0.7201   -1.7701 H   0  0  0  0  0  0  0  0  0  0  0  0
   -0.6244   -0.7056    0.6933 H   0  0  0  0  0  0  0  0  0  0  0  0
   -2.8163    1.9331   -0.9086 H   0  0  0  0  0  0  0  0  0  0  0  0
   -2.7177    2.0352    0.8616 H   0  0  0  0  0  0  0  0  0  0  0  0
   -0.0809   -0.0327   -2.2451 H   0  0  0  0  0  0  0  0  0  0  0  0
    0.2703   -1.6079   -1.5020 H   0  0  0  0  0  0  0  0  0  0  0  0
   -4.8850   -0.8806   -0.6445 H   0  0  0  0  0  0  0  0  0  0  0  0
   -5.0557    1.5159    1.0603 H   0  0  0  0  0  0  0  0  0  0  0  0
   -2.2773   -2.3167    0.5898 H   0  0  0  0  0  0  0  0  0  0  0  0
    1.6055    0.9681   -1.1233 H   0  0  0  0  0  0  0  0  0  0  0  0
   -7.2836    0.3224   -0.6459 H   0  0  0  0  0  0  0  0  0  0  0  0
   -6.5027    1.8944   -0.8958 H   0  0  0  0  0  0  0  0  0  0  0  0
   -7.4500    1.6002    0.5685 H   0  0  0  0  0  0  0  0  0  0  0  0
   -6.2949   -1.2913    1.2022 H   0  0  0  0  0  0  0  0  0  0  0  0
   -4.9896   -0.6900    2.2381 H   0  0  0  0  0  0  0  0  0  0  0  0
   -6.5925    0.0263    2.3392 H   0  0  0  0  0  0  0  0  0  0  0  0
    4.3430   -1.8507    1.0271 H   0  0  0  0  0  0  0  0  0  0  0  0
    4.4311   -0.4025    2.0438 H   0  0  0  0  0  0  0  0  0  0  0  0
    3.6547    1.8468    0.9785 H   0  0  0  0  0  0  0  0  0  0  0  0
    3.1417    1.8327   -0.7099 H   0  0  0  0  0  0  0  0  0  0  0  0
    6.6776   -0.9318    1.1554 H   0  0  0  0  0  0  0  0  0  0  0  0
    6.0758   -0.9098   -0.5098 H   0  0  0  0  0  0  0  0  0  0  0  0
    5.4020    1.1572   -1.4584 H   0  0  0  0  0  0  0  0  0  0  0  0
    5.4898    2.6239   -0.4727 H   0  0  0  0  0  0  0  0  0  0  0  0
  1 10  1  0  0  0  0
  1 11  1  0  0  0  0
  2  9  1  0  0  0  0
  2 30  1  0  0  0  0
  3 19  1  0  0  0  0
  3 20  1  0  0  0  0
  4 16  2  0  0  0  0
  5  8  1  0  0  0  0
  5 13  1  0  0  0  0
  5 28  1  0  0  0  0
  6 12  1  0  0  0  0
  6 16  1  0  0  0  0
  6 31  1  0  0  0  0
  7 16  1  0  0  0  0
  7 17  1  0  0  0  0
  7 18  1  0  0  0  0
  8  9  1  0  0  0  0
  8 11  1  0  0  0  0
  8 21  1  0  0  0  0
  9 10  1  0  0  0  0
  9 22  1  0  0  0  0
 10 12  1  0  0  0  0
 10 23  1  0  0  0  0
 11 24  1  0  0  0  0
 11 25  1  0  0  0  0
 12 26  1  0  0  0  0
 12 27  1  0  0  0  0
 13 14  1  0  0  0  0
 13 15  1  0  0  0  0
 13 29  1  0  0  0  0
 14 32  1  0  0  0  0
 14 33  1  0  0  0  0
 14 34  1  0  0  0  0
 15 35  1  0  0  0  0
 15 36  1  0  0  0  0
 15 37  1  0  0  0  0
 17 19  1  0  0  0  0
 17 38  1  0  0  0  0
 17 39  1  0  0  0  0
 18 20  1  0  0  0  0
 18 40  1  0  0  0  0
 18 41  1  0  0  0  0
 19 42  1  0  0  0  0
 19 43  1  0  0  0  0
 20 44  1  0  0  0  0
 20 45  1  0  0  0  0
M  END
> <PUBCHEM_COMPOUND_CID>
75536744

> <PUBCHEM_CONFORMER_RMSD>
0.8

> <PUBCHEM_CONFORMER_DIVERSEORDER>
1
33
71
61
27
30
73
22
39
16
34
68
3
67
42
72
76
10
46
41
36
50
29
58
62
24
32
23
35
54
65
44
38
56
47
9
48
66
40
26
74
51
20
6
52
43
49
63
12
15
14
8
57
7
37
21
13
55
64
75
17
53
25
18
69
28
31
5
4
11
19
60
45
59
2
70

> <PUBCHEM_MMFF94_PARTIAL_CHARGES>
21
1 -0.56
10 0.28
11 0.28
12 0.3
13 0.27
16 0.69
17 0.3
18 0.3
19 0.28
2 -0.68
20 0.28
28 0.36
3 -0.56
30 0.4
31 0.37
4 -0.57
5 -0.9
6 -0.73
7 -0.66
8 0.27
9 0.28

> <PUBCHEM_EFFECTIVE_ROTOR_COUNT>
8.2

> <PUBCHEM_PHARMACOPHORE_FEATURES>
11
1 1 acceptor
1 2 acceptor
1 2 donor
1 3 acceptor
1 4 acceptor
1 5 cation
1 5 donor
1 6 donor
3 13 14 15 hydrophobe
5 1 8 9 10 11 rings
6 3 7 17 18 19 20 rings

> <PUBCHEM_HEAVY_ATOM_COUNT>
20

> <PUBCHEM_ATOM_DEF_STEREO_COUNT>
3

> <PUBCHEM_ATOM_UDEF_STEREO_COUNT>
0

> <PUBCHEM_BOND_DEF_STEREO_COUNT>
0

> <PUBCHEM_BOND_UDEF_STEREO_COUNT>
0

> <PUBCHEM_ISOTOPIC_ATOM_COUNT>
0

> <PUBCHEM_COMPONENT_COUNT>
1

> <PUBCHEM_CACTVS_TAUTO_COUNT>
2

> <PUBCHEM_CONFORMER_ID>
0480996800000001

> <PUBCHEM_MMFF94_ENERGY>
31.5486

> <PUBCHEM_FEATURE_SELFOVERLAP>
55.821

> <PUBCHEM_SHAPE_FINGERPRINT>
10 15 18261114092554342401
10354089 29 18334857221544890184
106641 1 16805609209003930056
10906281 52 17988378021914450765
11089746 13 17203602700852516097
117890 112 18131351890992576785
12107183 9 17760922944813589208
12236239 1 18334856134142606982
12516196 113 14490191613854249902
12596602 18 17894915135317199617
12616971 3 18409442613836081996
12670543 26 11240005533733123499
12788726 201 17346323635544390225
12954195 1 8285935561908584927
13167372 99 18342458093281774728
13288520 33 11891333149827243679
13403585 85 17894909599484409909
13533116 47 17676481692961882794
13668630 136 11963390726179095592
13685833 64 12251908087813803389
14251764 18 18342177791521692947
14341114 176 18408041801905182144
14341114 328 18412825793803107906
15048467 5 17346320380244061193
15183329 4 10375880662234888683
15348495 7 17603874450331313521
15475509 35 15792555398099484704
17834072 8 10159695789898936425
17834076 25 17632858624837577245
17980427 23 18341330097604614973
19050596 39 18410851088263067190
20281389 69 18272930518327615601
20645477 56 18343018887345755511
21150785 3 13110956527222579193
21267235 1 18336268951514615158
221357 26 11743840248581956218
22224240 67 17748824142284341178
23198884 109 14549023169768626769
23402539 116 18343012294924371293
23559900 14 18057348148277847847
26918003 58 17748830713378510529
2767999 5 17489867129013273385
300161 21 18272366469094376215
3014965 18 13254528526320900404
312425 54 17022904523733332313
351380 3 12396297066974685624
3545911 37 18343021077874034918
4340502 62 17967254186830241394
465052 167 11530771387692916761
5104073 3 18337101393164381546
542803 24 17489870431784971665
59682541 35 18336834186406443531

> <PUBCHEM_SHAPE_MULTIPOLES>
373.17
17.04
1.58
1.01
1.84
0.18
0.12
-4.83
5.16
-0.47
-0.09
0.52
0.17
-0.3

> <PUBCHEM_SHAPE_SELFOVERLAP>
745.375

> <PUBCHEM_SHAPE_VOLUME>
221.3

> <PUBCHEM_COORDINATE_TYPE>
2
5
10

$$$$
