11879859
  -OEChem-12032416223D

 51 54  0     1  0  0  0  0  0999 V2000
    3.6418    2.2582    0.1507 S   0  0  0  0  0  0  0  0  0  0  0  0
    5.0562    0.3011   -1.4975 S   0  0  0  0  0  0  0  0  0  0  0  0
    1.3768   -0.2773   -2.0675 O   0  0  0  0  0  0  0  0  0  0  0  0
   -3.9557   -0.7570   -1.8490 O   0  0  0  0  0  0  0  0  0  0  0  0
    4.4567    3.1602   -0.6399 O   0  0  0  0  0  0  0  0  0  0  0  0
    3.4153    2.4815    1.5657 O   0  0  0  0  0  0  0  0  0  0  0  0
   -5.9151    3.6031   -0.7280 O   0  0  0  0  0  0  0  0  0  0  0  0
   -4.9949    2.8885    1.2231 O   0  0  0  0  0  0  0  0  0  0  0  0
   -2.9679   -1.6986    0.0317 N   0  0  0  0  0  0  0  0  0  0  0  0
    0.1682   -1.1552   -0.2623 N   0  0  0  0  0  0  0  0  0  0  0  0
    2.1407    2.0053   -0.6172 N   0  0  0  0  0  0  0  0  0  0  0  0
   -1.1418   -3.3493   -0.3938 C   0  0  1  0  0  0  0  0  0  0  0  0
   -1.1485   -2.0477    1.6930 C   0  0  2  0  0  0  0  0  0  0  0  0
   -0.8825   -3.4321    1.1055 C   0  0  0  0  0  0  0  0  0  0  0  0
   -2.5969   -2.9305   -0.6673 C   0  0  0  0  0  0  0  0  0  0  0  0
   -0.1350   -2.3765   -1.0189 C   0  0  0  0  0  0  0  0  0  0  0  0
   -2.6226   -1.6621    1.4606 C   0  0  0  0  0  0  0  0  0  0  0  0
   -0.2392   -1.0047    1.0701 C   0  0  0  0  0  0  0  0  0  0  0  0
    0.1468    0.0689    1.7836 C   0  0  0  0  0  0  0  0  0  0  0  0
    0.9744   -0.1941   -0.9077 C   0  0  0  0  0  0  0  0  0  0  0  0
   -3.6757   -0.7074   -0.6484 C   0  0  0  0  0  0  0  0  0  0  0  0
    1.3479    0.9780   -0.0767 C   0  0  0  0  0  0  0  0  0  0  0  0
    0.9646    1.0948    1.1950 C   0  0  0  0  0  0  0  0  0  0  0  0
   -4.1052    0.4910    0.1595 C   0  0  0  0  0  0  0  0  0  0  0  0
   -4.8573    1.4651   -0.7248 C   0  0  0  0  0  0  0  0  0  0  0  0
   -5.2419    2.7090    0.0376 C   0  0  0  0  0  0  0  0  0  0  0  0
    4.5392    0.7078    0.0678 C   0  0  0  0  0  0  0  0  0  0  0  0
    4.8796   -0.1954    1.0169 C   0  0  0  0  0  0  0  0  0  0  0  0
    5.6025   -1.2839    0.4490 C   0  0  0  0  0  0  0  0  0  0  0  0
    5.7694   -1.1407   -0.9109 C   0  0  0  0  0  0  0  0  0  0  0  0
   -0.9915   -4.3367   -0.8476 H   0  0  0  0  0  0  0  0  0  0  0  0
   -0.9697   -2.0957    2.7751 H   0  0  0  0  0  0  0  0  0  0  0  0
   -1.5404   -4.1781    1.5676 H   0  0  0  0  0  0  0  0  0  0  0  0
    0.1498   -3.7474    1.3028 H   0  0  0  0  0  0  0  0  0  0  0  0
   -2.7649   -2.8304   -1.7449 H   0  0  0  0  0  0  0  0  0  0  0  0
   -3.2800   -3.7108   -0.3095 H   0  0  0  0  0  0  0  0  0  0  0  0
   -0.4506   -2.0920   -2.0305 H   0  0  0  0  0  0  0  0  0  0  0  0
    0.8262   -2.8951   -1.1383 H   0  0  0  0  0  0  0  0  0  0  0  0
   -3.2819   -2.3819    1.9616 H   0  0  0  0  0  0  0  0  0  0  0  0
   -2.8286   -0.6861    1.9052 H   0  0  0  0  0  0  0  0  0  0  0  0
   -0.1696    0.2108    2.8119 H   0  0  0  0  0  0  0  0  0  0  0  0
    1.1567    1.9604    1.8162 H   0  0  0  0  0  0  0  0  0  0  0  0
   -4.7427    0.1607    0.9873 H   0  0  0  0  0  0  0  0  0  0  0  0
   -3.2138    0.9798    0.5692 H   0  0  0  0  0  0  0  0  0  0  0  0
    2.2007    1.9556   -1.6435 H   0  0  0  0  0  0  0  0  0  0  0  0
   -5.7750    1.0046   -1.1083 H   0  0  0  0  0  0  0  0  0  0  0  0
   -4.2356    1.7757   -1.5728 H   0  0  0  0  0  0  0  0  0  0  0  0
    4.6347   -0.1053    2.0670 H   0  0  0  0  0  0  0  0  0  0  0  0
   -6.1691    4.4027   -0.2196 H   0  0  0  0  0  0  0  0  0  0  0  0
    5.9804   -2.1293    1.0092 H   0  0  0  0  0  0  0  0  0  0  0  0
    6.2757   -1.8142   -1.5879 H   0  0  0  0  0  0  0  0  0  0  0  0
  1  5  2  0  0  0  0
  1  6  2  0  0  0  0
  1 11  1  0  0  0  0
  1 27  1  0  0  0  0
  2 27  1  0  0  0  0
  2 30  1  0  0  0  0
  3 20  2  0  0  0  0
  4 21  2  0  0  0  0
  7 26  1  0  0  0  0
  7 49  1  0  0  0  0
  8 26  2  0  0  0  0
  9 15  1  0  0  0  0
  9 17  1  0  0  0  0
  9 21  1  0  0  0  0
 10 16  1  0  0  0  0
 10 18  1  0  0  0  0
 10 20  1  0  0  0  0
 11 22  1  0  0  0  0
 11 45  1  0  0  0  0
 12 14  1  0  0  0  0
 12 15  1  0  0  0  0
 12 16  1  0  0  0  0
 12 31  1  0  0  0  0
 13 14  1  0  0  0  0
 13 17  1  0  0  0  0
 13 18  1  0  0  0  0
 13 32  1  0  0  0  0
 14 33  1  0  0  0  0
 14 34  1  0  0  0  0
 15 35  1  0  0  0  0
 15 36  1  0  0  0  0
 16 37  1  0  0  0  0
 16 38  1  0  0  0  0
 17 39  1  0  0  0  0
 17 40  1  0  0  0  0
 18 19  2  0  0  0  0
 19 23  1  0  0  0  0
 19 41  1  0  0  0  0
 20 22  1  0  0  0  0
 21 24  1  0  0  0  0
 22 23  2  0  0  0  0
 23 42  1  0  0  0  0
 24 25  1  0  0  0  0
 24 43  1  0  0  0  0
 24 44  1  0  0  0  0
 25 26  1  0  0  0  0
 25 46  1  0  0  0  0
 25 47  1  0  0  0  0
 27 28  2  0  0  0  0
 28 29  1  0  0  0  0
 28 48  1  0  0  0  0
 29 30  2  0  0  0  0
 29 50  1  0  0  0  0
 30 51  1  0  0  0  0
M  END
> <PUBCHEM_COMPOUND_CID>
11879859

> <PUBCHEM_CONFORMER_RMSD>
1

> <PUBCHEM_CONFORMER_DIVERSEORDER>
1
111
24
28
126
38
133
128
100
86
115
14
84
63
33
80
97
52
51
10
68
73
25
104
107
125
46
41
124
59
119
49
96
48
108
16
106
4
91
20
127
37
114
55
75
77
90
81
27
102
94
74
105
54
122
87
113
123
98
132
103
85
82
5
70
32
30
18
135
23
47
45
88
72
134
43
78
2
129
13
44
120
19
42
95
64
69
26
67
12
50
31
3
29
39
130
71
92
56
99
76
66
11
17
117
6
36
83
22
79
116
61
118
109
60
65
89
93
7
58
57
131
15
53
121
136
9
101
110
62
34
21
40
35
112
8

> <PUBCHEM_MMFF94_PARTIAL_CHARGES>
35
1 1.5
10 -0.47
11 -0.75
13 0.14
15 0.3
16 0.3
17 0.3
18 -0.03
19 -0.15
2 -0.08
20 0.62
21 0.57
22 0.21
23 -0.15
24 0.06
25 0.06
26 0.66
27 -0.02
28 -0.15
29 -0.15
3 -0.57
30 -0.11
4 -0.57
41 0.15
42 0.15
45 0.42
48 0.15
49 0.5
5 -0.65
50 0.15
51 0.15
6 -0.65
7 -0.65
8 -0.57
9 -0.66

> <PUBCHEM_EFFECTIVE_ROTOR_COUNT>
8

> <PUBCHEM_PHARMACOPHORE_FEATURES>
12
1 11 donor
1 3 acceptor
1 4 acceptor
1 5 acceptor
1 6 acceptor
1 7 acceptor
1 8 acceptor
3 7 8 26 anion
5 2 27 28 29 30 rings
6 10 12 13 14 16 18 rings
6 10 18 19 20 22 23 rings
6 9 12 13 14 15 17 rings

> <PUBCHEM_HEAVY_ATOM_COUNT>
30

> <PUBCHEM_ATOM_DEF_STEREO_COUNT>
2

> <PUBCHEM_ATOM_UDEF_STEREO_COUNT>
0

> <PUBCHEM_BOND_DEF_STEREO_COUNT>
0

> <PUBCHEM_BOND_UDEF_STEREO_COUNT>
0

> <PUBCHEM_ISOTOPIC_ATOM_COUNT>
0

> <PUBCHEM_COMPONENT_COUNT>
1

> <PUBCHEM_CACTVS_TAUTO_COUNT>
1

> <PUBCHEM_CONFORMER_ID>
00B545B300000001

> <PUBCHEM_MMFF94_ENERGY>
63.746

> <PUBCHEM_FEATURE_SELFOVERLAP>
62.539

> <PUBCHEM_SHAPE_FINGERPRINT>
11135609 201 10954610876054454974
11578080 2 18263651817733217372
12107183 9 18335129861451990130
12422481 6 17458908119732561831
128238 76 8934706808413009802
13135754 10 16589165989747525619
13224815 77 14835026012587869450
13583140 156 17698162090961034074
13944108 23 17689994532154601405
14251732 17 18411700963095208655
14251764 38 18266179607043215437
14347332 77 18126277786475400895
14790565 3 18336263436233405153
14955137 171 13767931191275245398
15052358 14 18341619170388956086
15183329 4 18260543424913877302
17349148 13 16486147239340687342
17818456 19 18410014355587947684
17899979 129 17907299854452980917
19311894 1 18411412925983658165
20567600 70 10087335847523106997
20715895 44 18270680866160738158
21033648 144 17700697530162025472
21279426 13 18271530810245184454
21304303 282 16915961560244663051
21987440 362 17901665964755095949
22121540 332 17171784861943737885
23559900 14 18340206405822521610
2838139 119 18411694370895253535
3459 83 18198904712602924802
3493558 16 18193560192639223845
445580 125 18410576180032863145
460360 51 18339376265473613544
5283173 99 18342176708456802296
6328613 192 18260271880197285916

> <PUBCHEM_SHAPE_MULTIPOLES>
574.93
12.95
4.19
1.65
2.36
0.66
0.08
9.53
-2.44
-4.37
0.23
0.11
-0.28
0.33

> <PUBCHEM_SHAPE_SELFOVERLAP>
1213.203

> <PUBCHEM_SHAPE_VOLUME>
321.5

> <PUBCHEM_COORDINATE_TYPE>
2
5
10

$$$$
