75536762
  -OEChem-12032416393D

 50 52  0     1  0  0  0  0  0999 V2000
   -0.9373    0.6958   -0.5081 O   0  0  0  0  0  0  0  0  0  0  0  0
    0.0474   -2.3915    1.0428 O   0  0  0  0  0  0  0  0  0  0  0  0
   -8.2185    1.2123   -0.6266 O   0  0  0  0  0  0  0  0  0  0  0  0
   -4.4570   -1.7666    0.5820 O   0  0  0  0  0  0  0  0  0  0  0  0
    2.4209   -0.5806    0.0614 N   0  0  0  0  0  0  0  0  0  0  0  0
   -3.5018    0.3122    0.7563 N   0  0  0  0  0  0  0  0  0  0  0  0
   -5.6810    0.0717   -0.1275 N   0  0  0  0  0  0  0  0  0  0  0  0
    7.6564    3.0155    0.9268 N   0  0  0  0  0  0  0  0  0  0  0  0
    1.0246   -0.6326   -0.3400 C   0  0  1  0  0  0  0  0  0  0  0  0
    0.0796   -1.0004    0.7891 C   0  0  1  0  0  0  0  0  0  0  0  0
   -1.2463   -0.4927    0.2389 C   0  0  1  0  0  0  0  0  0  0  0  0
    0.4786    0.7224   -0.7596 C   0  0  0  0  0  0  0  0  0  0  0  0
   -2.2611   -0.1694    1.3210 C   0  0  0  0  0  0  0  0  0  0  0  0
    3.3010   -0.5602   -1.1008 C   0  0  0  0  0  0  0  0  0  0  0  0
   -4.5419   -0.5451    0.4170 C   0  0  0  0  0  0  0  0  0  0  0  0
   -5.8066    1.4891   -0.4963 C   0  0  0  0  0  0  0  0  0  0  0  0
   -6.8230   -0.7573   -0.5203 C   0  0  0  0  0  0  0  0  0  0  0  0
    4.7517   -0.4896   -0.7042 C   0  0  0  0  0  0  0  0  0  0  0  0
   -7.1750    2.0333   -0.1004 C   0  0  0  0  0  0  0  0  0  0  0  0
   -8.1345   -0.1131   -0.0997 C   0  0  0  0  0  0  0  0  0  0  0  0
    5.2977    0.7157   -0.2627 C   0  0  0  0  0  0  0  0  0  0  0  0
    5.5499   -1.6314   -0.7775 C   0  0  0  0  0  0  0  0  0  0  0  0
    6.6416    0.7793    0.1057 C   0  0  0  0  0  0  0  0  0  0  0  0
    6.8937   -1.5678   -0.4088 C   0  0  0  0  0  0  0  0  0  0  0  0
    7.4396   -0.3624    0.0326 C   0  0  0  0  0  0  0  0  0  0  0  0
    7.2015    2.0133    0.5588 C   0  0  0  0  0  0  0  0  0  0  0  0
    0.8889   -1.3651   -1.1483 H   0  0  0  0  0  0  0  0  0  0  0  0
    0.3494   -0.4782    1.7155 H   0  0  0  0  0  0  0  0  0  0  0  0
   -1.6781   -1.2171   -0.4640 H   0  0  0  0  0  0  0  0  0  0  0  0
    0.8967    1.5426   -0.1645 H   0  0  0  0  0  0  0  0  0  0  0  0
    0.6545    0.9396   -1.8175 H   0  0  0  0  0  0  0  0  0  0  0  0
   -1.8906    0.6345    1.9669 H   0  0  0  0  0  0  0  0  0  0  0  0
   -2.4599   -1.0484    1.9433 H   0  0  0  0  0  0  0  0  0  0  0  0
    2.6364   -1.4042    0.6241 H   0  0  0  0  0  0  0  0  0  0  0  0
    3.0833    0.3049   -1.7401 H   0  0  0  0  0  0  0  0  0  0  0  0
    3.1365   -1.4509   -1.7212 H   0  0  0  0  0  0  0  0  0  0  0  0
   -3.5625    1.3087    0.6053 H   0  0  0  0  0  0  0  0  0  0  0  0
   -0.1909   -2.8473    0.2178 H   0  0  0  0  0  0  0  0  0  0  0  0
   -5.6929    1.5269   -1.5863 H   0  0  0  0  0  0  0  0  0  0  0  0
   -5.0365    2.1229   -0.0605 H   0  0  0  0  0  0  0  0  0  0  0  0
   -6.7444   -1.7642   -0.0996 H   0  0  0  0  0  0  0  0  0  0  0  0
   -6.7787   -0.8431   -1.6125 H   0  0  0  0  0  0  0  0  0  0  0  0
   -7.3067    3.0428   -0.5023 H   0  0  0  0  0  0  0  0  0  0  0  0
   -7.2773    2.0927    0.9899 H   0  0  0  0  0  0  0  0  0  0  0  0
   -8.9790   -0.6865   -0.4944 H   0  0  0  0  0  0  0  0  0  0  0  0
   -8.2331   -0.0782    0.9918 H   0  0  0  0  0  0  0  0  0  0  0  0
    4.6724    1.6046   -0.2070 H   0  0  0  0  0  0  0  0  0  0  0  0
    5.1377   -2.5778   -1.1173 H   0  0  0  0  0  0  0  0  0  0  0  0
    7.5148   -2.4570   -0.4651 H   0  0  0  0  0  0  0  0  0  0  0  0
    8.4888   -0.3290    0.3165 H   0  0  0  0  0  0  0  0  0  0  0  0
  1 11  1  0  0  0  0
  1 12  1  0  0  0  0
  2 10  1  0  0  0  0
  2 38  1  0  0  0  0
  3 19  1  0  0  0  0
  3 20  1  0  0  0  0
  4 15  2  0  0  0  0
  5  9  1  0  0  0  0
  5 14  1  0  0  0  0
  5 34  1  0  0  0  0
  6 13  1  0  0  0  0
  6 15  1  0  0  0  0
  6 37  1  0  0  0  0
  7 15  1  0  0  0  0
  7 16  1  0  0  0  0
  7 17  1  0  0  0  0
  8 26  3  0  0  0  0
  9 10  1  0  0  0  0
  9 12  1  0  0  0  0
  9 27  1  0  0  0  0
 10 11  1  0  0  0  0
 10 28  1  0  0  0  0
 11 13  1  0  0  0  0
 11 29  1  0  0  0  0
 12 30  1  0  0  0  0
 12 31  1  0  0  0  0
 13 32  1  0  0  0  0
 13 33  1  0  0  0  0
 14 18  1  0  0  0  0
 14 35  1  0  0  0  0
 14 36  1  0  0  0  0
 16 19  1  0  0  0  0
 16 39  1  0  0  0  0
 16 40  1  0  0  0  0
 17 20  1  0  0  0  0
 17 41  1  0  0  0  0
 17 42  1  0  0  0  0
 18 21  2  0  0  0  0
 18 22  1  0  0  0  0
 19 43  1  0  0  0  0
 19 44  1  0  0  0  0
 20 45  1  0  0  0  0
 20 46  1  0  0  0  0
 21 23  1  0  0  0  0
 21 47  1  0  0  0  0
 22 24  2  0  0  0  0
 22 48  1  0  0  0  0
 23 25  2  0  0  0  0
 23 26  1  0  0  0  0
 24 25  1  0  0  0  0
 24 49  1  0  0  0  0
 25 50  1  0  0  0  0
M  END
> <PUBCHEM_COMPOUND_CID>
75536762

> <PUBCHEM_CONFORMER_RMSD>
1

> <PUBCHEM_CONFORMER_DIVERSEORDER>
1
17
128
131
178
33
83
79
101
111
23
126
65
88
195
139
51
37
38
118
109
6
26
102
82
77
122
146
179
117
200
147
151
63
91
192
89
93
107
25
127
10
60
164
190
206
162
61
155
20
165
172
153
157
81
68
135
74
129
18
2
104
199
80
57
158
137
113
184
134
58
119
90
97
59
112
76
186
62
41
9
72
183
198
125
106
64
143
204
19
108
7
140
95
189
156
52
148
70
31
21
159
115
96
49
85
14
168
92
203
121
50
141
43
100
170
166
78
149
114
4
175
71
99
86
42
39
123
28
110
55
191
36
202
176
152
5
48
12
69
144
124
174
116
34
47
187
87
11
24
188
133
181
66
45
105
46
30
53
154
120
56
160
138
177
205
75
201
44
145
54
150
103
130
167
193
169
35
196
98
13
136
132
180
194
32
94
173
67
16
161
73
29
142
8
84
197
207
171
40
182
27
15
163
185
3
22

> <PUBCHEM_MMFF94_PARTIAL_CHARGES>
33
1 -0.56
10 0.28
11 0.28
12 0.28
13 0.3
14 0.41
15 0.69
16 0.3
17 0.3
18 -0.14
19 0.28
2 -0.68
20 0.28
21 -0.15
22 -0.15
23 0.07
24 -0.15
25 -0.15
26 0.48
3 -0.56
34 0.36
37 0.37
38 0.4
4 -0.57
47 0.15
48 0.15
49 0.15
5 -0.9
50 0.15
6 -0.73
7 -0.66
8 -0.56
9 0.27

> <PUBCHEM_EFFECTIVE_ROTOR_COUNT>
9.2

> <PUBCHEM_PHARMACOPHORE_FEATURES>
12
1 1 acceptor
1 2 acceptor
1 2 donor
1 3 acceptor
1 4 acceptor
1 5 cation
1 5 donor
1 6 donor
1 8 acceptor
5 1 9 10 11 12 rings
6 18 21 22 23 24 25 rings
6 3 7 16 17 19 20 rings

> <PUBCHEM_HEAVY_ATOM_COUNT>
26

> <PUBCHEM_ATOM_DEF_STEREO_COUNT>
3

> <PUBCHEM_ATOM_UDEF_STEREO_COUNT>
0

> <PUBCHEM_BOND_DEF_STEREO_COUNT>
0

> <PUBCHEM_BOND_UDEF_STEREO_COUNT>
0

> <PUBCHEM_ISOTOPIC_ATOM_COUNT>
0

> <PUBCHEM_COMPONENT_COUNT>
1

> <PUBCHEM_CACTVS_TAUTO_COUNT>
2

> <PUBCHEM_CONFORMER_ID>
0480997A00000001

> <PUBCHEM_MMFF94_ENERGY>
51.5354

> <PUBCHEM_FEATURE_SELFOVERLAP>
60.898

> <PUBCHEM_SHAPE_FINGERPRINT>
10299344 5 10735873971782109477
10835480 77 18342177786709871568
11315181 36 17917997179293728251
11719270 70 18059856130164501846
12082328 90 18343300345728192175
125118 31 18333455356930733372
12838862 33 17603855703489916333
13533116 47 17676764272267694298
13740195 50 18336558158065800097
13885169 127 18409731729839349301
13914758 101 18114464478752958313
14123256 10 15554446284420093855
14251764 18 16660362576292156307
14251764 46 15719397226184423487
14344974 204 8573838300923594009
14344974 52 18408881855313169549
14429380 56 18060133254676580996
15131766 46 17985256624842780092
15183329 4 16008751303188073975
15849732 13 18342176665686452039
15979999 66 17418086637924010209
18335252 98 9223226348192567190
20157964 124 18202005417767758710
20554085 129 17967525792246068736
21095086 128 11169914996378776841
21150785 3 17561081397780253733
21792934 111 18334850607390433716
22224240 67 18259703393445359627
23559900 14 18201153351715994849
246663 6 12031788071936047197
3009799 131 18409451379843285665
4073 2 18260553363236709114
4325135 7 16487256564688893716
444735 82 18409169952534066228
44880568 143 17774735142757496625
4625314 4 18131072641109781694
5385378 56 16733262352707435867
5758199 1 18040153998643865019
5969126 39 16056880183507056593
67123 10 18343864429289222271

> <PUBCHEM_SHAPE_MULTIPOLES>
491.67
28.34
2.07
0.98
10.25
0.87
-0.08
11.06
2.09
-2.47
-0.39
-0.12
-0.07
2.09

> <PUBCHEM_SHAPE_SELFOVERLAP>
1023.345

> <PUBCHEM_SHAPE_VOLUME>
277.3

> <PUBCHEM_COORDINATE_TYPE>
2
5
10

$$$$
