28959918
  -OEChem-12032416333D

 72 75  0     1  0  0  0  0  0999 V2000
    8.5841    1.8900    0.7796 F   0  0  0  0  0  0  0  0  0  0  0  0
   -2.9175   -2.7890    0.8802 O   0  0  0  0  0  0  0  0  0  0  0  0
   -5.8743    4.9338    1.3842 O   0  0  0  0  0  0  0  0  0  0  0  0
   -6.9774    3.0312    0.7979 O   0  0  0  0  0  0  0  0  0  0  0  0
    1.3768   -6.7765    0.4900 O   0  0  0  0  0  0  0  0  0  0  0  0
   -3.5941   -0.9238   -0.3284 N   0  0  0  0  0  0  0  0  0  0  0  0
    0.3431    2.2584   -0.6788 N   0  0  0  0  0  0  0  0  0  0  0  0
    3.1725    2.0655   -0.3378 N   0  0  0  0  0  0  0  0  0  0  0  0
   -3.3670    1.4677   -0.9628 C   0  0  2  0  0  0  0  0  0  0  0  0
   -4.5868    1.7844   -0.0604 C   0  0  1  0  0  0  0  0  0  0  0  0
   -3.4430    0.0099   -1.4518 C   0  0  0  0  0  0  0  0  0  0  0  0
   -4.7361    0.7535    1.0712 C   0  0  0  0  0  0  0  0  0  0  0  0
   -2.0121    1.7357   -0.2956 C   0  0  0  0  0  0  0  0  0  0  0  0
   -4.7554   -0.6715    0.5242 C   0  0  0  0  0  0  0  0  0  0  0  0
   -4.5640    3.2047    0.5040 C   0  0  0  0  0  0  0  0  0  0  0  0
   -0.9412    2.0237   -1.3379 C   0  0  0  0  0  0  0  0  0  0  0  0
    0.9577    0.9859   -0.2808 C   0  0  0  0  0  0  0  0  0  0  0  0
    1.2506    2.9951   -1.5666 C   0  0  0  0  0  0  0  0  0  0  0  0
   -2.7535   -2.0026   -0.0561 C   0  0  0  0  0  0  0  0  0  0  0  0
    2.2755    1.2209    0.4611 C   0  0  0  0  0  0  0  0  0  0  0  0
    2.5792    3.2967   -0.8685 C   0  0  0  0  0  0  0  0  0  0  0  0
   -5.9400    3.6691    0.8940 C   0  0  0  0  0  0  0  0  0  0  0  0
   -1.5772   -2.1930   -0.9801 C   0  0  0  0  0  0  0  0  0  0  0  0
    4.5423    2.0211   -0.0550 C   0  0  0  0  0  0  0  0  0  0  0  0
   -0.7926   -3.4074   -0.5921 C   0  0  0  0  0  0  0  0  0  0  0  0
    5.2389    0.8178   -0.1671 C   0  0  0  0  0  0  0  0  0  0  0  0
    5.2110    3.1800    0.3390 C   0  0  0  0  0  0  0  0  0  0  0  0
    0.2553   -3.2982    0.3221 C   0  0  0  0  0  0  0  0  0  0  0  0
   -1.1112   -4.6485   -1.1429 C   0  0  0  0  0  0  0  0  0  0  0  0
    6.6042    0.7734    0.1148 C   0  0  0  0  0  0  0  0  0  0  0  0
    6.5763    3.1357    0.6209 C   0  0  0  0  0  0  0  0  0  0  0  0
    7.2730    1.9324    0.5088 C   0  0  0  0  0  0  0  0  0  0  0  0
    0.9847   -4.4303    0.6853 C   0  0  0  0  0  0  0  0  0  0  0  0
   -0.3818   -5.7807   -0.7797 C   0  0  0  0  0  0  0  0  0  0  0  0
    0.6661   -5.6715    0.1343 C   0  0  0  0  0  0  0  0  0  0  0  0
    2.4339   -6.5933    1.4308 C   0  0  0  0  0  0  0  0  0  0  0  0
   -3.4507    2.1175   -1.8451 H   0  0  0  0  0  0  0  0  0  0  0  0
   -5.4723    1.6835   -0.7054 H   0  0  0  0  0  0  0  0  0  0  0  0
   -4.3293   -0.1199   -2.0858 H   0  0  0  0  0  0  0  0  0  0  0  0
   -2.5840   -0.2337   -2.0773 H   0  0  0  0  0  0  0  0  0  0  0  0
   -5.6545    0.9262    1.6425 H   0  0  0  0  0  0  0  0  0  0  0  0
   -3.9005    0.8548    1.7756 H   0  0  0  0  0  0  0  0  0  0  0  0
   -1.7443    0.8969    0.3536 H   0  0  0  0  0  0  0  0  0  0  0  0
   -2.0688    2.6119    0.3592 H   0  0  0  0  0  0  0  0  0  0  0  0
   -4.7921   -1.3838    1.3546 H   0  0  0  0  0  0  0  0  0  0  0  0
   -5.6515   -0.8354   -0.0859 H   0  0  0  0  0  0  0  0  0  0  0  0
   -3.9209    3.2697    1.3885 H   0  0  0  0  0  0  0  0  0  0  0  0
   -4.1957    3.9008   -0.2590 H   0  0  0  0  0  0  0  0  0  0  0  0
   -1.2482    2.9279   -1.8805 H   0  0  0  0  0  0  0  0  0  0  0  0
   -0.8640    1.2240   -2.0839 H   0  0  0  0  0  0  0  0  0  0  0  0
    0.3076    0.4210    0.3944 H   0  0  0  0  0  0  0  0  0  0  0  0
    1.1440    0.3526   -1.1589 H   0  0  0  0  0  0  0  0  0  0  0  0
    1.4386    2.4248   -2.4865 H   0  0  0  0  0  0  0  0  0  0  0  0
    0.7997    3.9507   -1.8610 H   0  0  0  0  0  0  0  0  0  0  0  0
    2.0842    1.7094    1.4254 H   0  0  0  0  0  0  0  0  0  0  0  0
    2.7229    0.2439    0.6776 H   0  0  0  0  0  0  0  0  0  0  0  0
    3.2483    3.7661   -1.6004 H   0  0  0  0  0  0  0  0  0  0  0  0
    2.4111    4.0120   -0.0531 H   0  0  0  0  0  0  0  0  0  0  0  0
   -0.9351   -1.3072   -0.9466 H   0  0  0  0  0  0  0  0  0  0  0  0
   -1.9351   -2.3079   -2.0098 H   0  0  0  0  0  0  0  0  0  0  0  0
   -6.7571    5.2693    1.6496 H   0  0  0  0  0  0  0  0  0  0  0  0
    4.7388   -0.0931   -0.4861 H   0  0  0  0  0  0  0  0  0  0  0  0
    4.6980    4.1310    0.4506 H   0  0  0  0  0  0  0  0  0  0  0  0
    0.5112   -2.3364    0.7591 H   0  0  0  0  0  0  0  0  0  0  0  0
   -1.9269   -4.7474   -1.8542 H   0  0  0  0  0  0  0  0  0  0  0  0
    7.1477   -0.1625    0.0246 H   0  0  0  0  0  0  0  0  0  0  0  0
    7.0971    4.0369    0.9307 H   0  0  0  0  0  0  0  0  0  0  0  0
    1.7851   -4.2742    1.4005 H   0  0  0  0  0  0  0  0  0  0  0  0
   -0.6352   -6.7451   -1.2115 H   0  0  0  0  0  0  0  0  0  0  0  0
    2.8907   -7.5741    1.5986 H   0  0  0  0  0  0  0  0  0  0  0  0
    2.0557   -6.2470    2.3987 H   0  0  0  0  0  0  0  0  0  0  0  0
    3.2175   -5.9395    1.0333 H   0  0  0  0  0  0  0  0  0  0  0  0
  1 32  1  0  0  0  0
  2 19  2  0  0  0  0
  3 22  1  0  0  0  0
  3 61  1  0  0  0  0
  4 22  2  0  0  0  0
  5 35  1  0  0  0  0
  5 36  1  0  0  0  0
  6 11  1  0  0  0  0
  6 14  1  0  0  0  0
  6 19  1  0  0  0  0
  7 16  1  0  0  0  0
  7 17  1  0  0  0  0
  7 18  1  0  0  0  0
  8 20  1  0  0  0  0
  8 21  1  0  0  0  0
  8 24  1  0  0  0  0
  9 10  1  0  0  0  0
  9 11  1  0  0  0  0
  9 13  1  0  0  0  0
  9 37  1  0  0  0  0
 10 12  1  0  0  0  0
 10 15  1  0  0  0  0
 10 38  1  0  0  0  0
 11 39  1  0  0  0  0
 11 40  1  0  0  0  0
 12 14  1  0  0  0  0
 12 41  1  0  0  0  0
 12 42  1  0  0  0  0
 13 16  1  0  0  0  0
 13 43  1  0  0  0  0
 13 44  1  0  0  0  0
 14 45  1  0  0  0  0
 14 46  1  0  0  0  0
 15 22  1  0  0  0  0
 15 47  1  0  0  0  0
 15 48  1  0  0  0  0
 16 49  1  0  0  0  0
 16 50  1  0  0  0  0
 17 20  1  0  0  0  0
 17 51  1  0  0  0  0
 17 52  1  0  0  0  0
 18 21  1  0  0  0  0
 18 53  1  0  0  0  0
 18 54  1  0  0  0  0
 19 23  1  0  0  0  0
 20 55  1  0  0  0  0
 20 56  1  0  0  0  0
 21 57  1  0  0  0  0
 21 58  1  0  0  0  0
 23 25  1  0  0  0  0
 23 59  1  0  0  0  0
 23 60  1  0  0  0  0
 24 26  2  0  0  0  0
 24 27  1  0  0  0  0
 25 28  2  0  0  0  0
 25 29  1  0  0  0  0
 26 30  1  0  0  0  0
 26 62  1  0  0  0  0
 27 31  2  0  0  0  0
 27 63  1  0  0  0  0
 28 33  1  0  0  0  0
 28 64  1  0  0  0  0
 29 34  2  0  0  0  0
 29 65  1  0  0  0  0
 30 32  2  0  0  0  0
 30 66  1  0  0  0  0
 31 32  1  0  0  0  0
 31 67  1  0  0  0  0
 33 35  2  0  0  0  0
 33 68  1  0  0  0  0
 34 35  1  0  0  0  0
 34 69  1  0  0  0  0
 36 70  1  0  0  0  0
 36 71  1  0  0  0  0
 36 72  1  0  0  0  0
M  END
> <PUBCHEM_COMPOUND_CID>
28959918

> <PUBCHEM_CONFORMER_RMSD>
1.2

> <PUBCHEM_CONFORMER_DIVERSEORDER>
2
126
96
87
77
129
108
131
53
11
107
122
110
127
81
41
37
83
67
17
123
63
70
6
103
60
85
79
84
120
27
71
43
114
76
7
24
121
64
100
50
68
30
26
65
104
34
75
51
19
69
61
32
29
97
73
31
78
119
33
128
90
57
98
49
35
25
93
99
86
38
15
116
56
46
20
115
112
54
74
102
36
21
45
94
23
111
101
132
133
4
89
58
113
40
130
8
47
92
72
118
52
14
125
95
39
10
1
124
106
117
109
18
105
3
42
80
48
22
9
82
5
91
16
28
66
44
59
55
13
12
62
88

> <PUBCHEM_MMFF94_PARTIAL_CHARGES>
41
1 -0.19
11 0.3
14 0.3
15 0.06
16 0.27
17 0.27
18 0.27
19 0.57
2 -0.57
20 0.37
21 0.37
22 0.66
23 0.2
24 0.1
25 -0.14
26 -0.15
27 -0.15
28 -0.15
29 -0.15
3 -0.65
30 -0.15
31 -0.15
32 0.19
33 -0.15
34 -0.15
35 0.08
36 0.28
4 -0.57
5 -0.36
6 -0.66
61 0.5
62 0.15
63 0.15
64 0.15
65 0.15
66 0.15
67 0.15
68 0.15
69 0.15
7 -0.81
8 -0.84

> <PUBCHEM_EFFECTIVE_ROTOR_COUNT>
12.4

> <PUBCHEM_PHARMACOPHORE_FEATURES>
11
1 2 acceptor
1 3 acceptor
1 4 acceptor
1 5 acceptor
1 7 cation
1 8 cation
3 3 4 22 anion
6 24 26 27 30 31 32 rings
6 25 28 29 33 34 35 rings
6 6 9 10 11 12 14 rings
6 7 8 17 18 20 21 rings

> <PUBCHEM_HEAVY_ATOM_COUNT>
36

> <PUBCHEM_ATOM_DEF_STEREO_COUNT>
2

> <PUBCHEM_ATOM_UDEF_STEREO_COUNT>
0

> <PUBCHEM_BOND_DEF_STEREO_COUNT>
0

> <PUBCHEM_BOND_UDEF_STEREO_COUNT>
0

> <PUBCHEM_ISOTOPIC_ATOM_COUNT>
0

> <PUBCHEM_COMPONENT_COUNT>
1

> <PUBCHEM_CACTVS_TAUTO_COUNT>
1

> <PUBCHEM_CONFORMER_ID>
01B9E4AE00000002

> <PUBCHEM_MMFF94_ENERGY>
103.4412

> <PUBCHEM_FEATURE_SELFOVERLAP>
55.882

> <PUBCHEM_SHAPE_FINGERPRINT>
10290309 65 18192428572004845621
10940486 97 18044656640509749604
11014199 57 17255118368731970910
12218070 45 18263640826563870604
13974486 27 17764586522486581622
14444916 359 18337961090998386796
14659021 117 17834101323262594218
14725015 67 18126566954328388291
14790565 3 18411135831657356842
14856354 85 16733265763174965520
14866123 147 18193835079378312206
15297060 5 18343865515214829041
15320294 125 18188487011844230748
15320467 1 18048028868858867854
15400415 2 18410289229268970364
15419009 47 18267019634886510098
15439362 3 18193837042790412941
15927050 60 18342176631627686175
19301676 85 17472687509265678310
19311894 1 17830729121375011938
20771845 38 18409728508303102587
229767 44 18265053715994878030
23516275 137 18118984511288999992
23522609 53 17896623819564374996
23523788 1 17679620880743480643
3383291 50 18121215639214819291
4017518 198 18409439315016635238
4073 2 18269269235772417588
4616759 239 17912916469064097552
6058803 2 17682970142906227892
9896288 288 18339085998836284099

> <PUBCHEM_SHAPE_MULTIPOLES>
695.17
16.33
10.73
1.22
20.61
22.98
0.12
-27.56
-6.38
-1.58
-2.34
-0.7
-0.07
-2.64

> <PUBCHEM_SHAPE_SELFOVERLAP>
1463.85

> <PUBCHEM_SHAPE_VOLUME>
391

> <PUBCHEM_COORDINATE_TYPE>
2
5
10

$$$$
