56773973
  -OEChem-12032416403D

 56 60  0     1  0  0  0  0  0999 V2000
   -2.4689   -1.0115    2.2617 O   0  0  0  0  0  0  0  0  0  0  0  0
    2.0272    3.3387   -0.5794 O   0  0  0  0  0  0  0  0  0  0  0  0
    1.0291    4.4798    1.1143 O   0  0  0  0  0  0  0  0  0  0  0  0
   -3.5836   -0.6806   -1.2246 N   0  0  1  0  0  0  0  0  0  0  0  0
    3.7547   -1.1037   -0.7497 N   0  0  0  0  0  0  0  0  0  0  0  0
   -1.1537   -1.1219    0.4520 N   0  0  0  0  0  0  0  0  0  0  0  0
   -1.1516   -0.9443    2.7329 N   0  0  0  0  0  0  0  0  0  0  0  0
    3.7936   -0.9189    1.5917 N   0  0  0  0  0  0  0  0  0  0  0  0
   -3.6884   -1.2034    0.1524 C   0  0  1  0  0  0  0  0  0  0  0  0
   -4.1812   -2.6525   -0.0159 C   0  0  0  0  0  0  0  0  0  0  0  0
   -4.3831   -2.8326   -1.5137 C   0  0  0  0  0  0  0  0  0  0  0  0
   -4.5649   -1.4167   -2.0220 C   0  0  0  0  0  0  0  0  0  0  0  0
   -3.7796    0.7610   -1.3082 C   0  0  0  0  0  0  0  0  0  0  0  0
   -2.3801   -1.1150    0.9098 C   0  0  0  0  0  0  0  0  0  0  0  0
    4.2328   -0.9664   -3.0482 C   0  0  0  0  0  0  0  0  0  0  0  0
    5.4589   -1.4929   -2.3227 C   0  0  0  0  0  0  0  0  0  0  0  0
    3.1039   -1.2219   -2.0522 C   0  0  0  0  0  0  0  0  0  0  0  0
    5.2100   -1.0783   -0.8744 C   0  0  0  0  0  0  0  0  0  0  0  0
   -2.5399    1.5192   -0.9145 C   0  0  0  0  0  0  0  0  0  0  0  0
    3.0789   -1.0248    0.4489 C   0  0  0  0  0  0  0  0  0  0  0  0
   -0.4351   -1.0153    1.6071 C   0  0  0  0  0  0  0  0  0  0  0  0
    0.9990   -0.9838    1.6019 C   0  0  0  0  0  0  0  0  0  0  0  0
   -2.5845    2.4265    0.1441 C   0  0  0  0  0  0  0  0  0  0  0  0
   -1.3469    1.3145   -1.6080 C   0  0  0  0  0  0  0  0  0  0  0  0
    1.6946   -1.0610    0.4004 C   0  0  0  0  0  0  0  0  0  0  0  0
    1.6991   -0.8743    2.7983 C   0  0  0  0  0  0  0  0  0  0  0  0
   -1.4361    3.1290    0.5091 C   0  0  0  0  0  0  0  0  0  0  0  0
   -0.1987    2.0172   -1.2429 C   0  0  0  0  0  0  0  0  0  0  0  0
   -0.2432    2.9243   -0.1843 C   0  0  0  0  0  0  0  0  0  0  0  0
    3.0831   -0.8463    2.7397 C   0  0  0  0  0  0  0  0  0  0  0  0
    0.9545    3.6561    0.1965 C   0  0  0  0  0  0  0  0  0  0  0  0
   -4.4547   -0.6560    0.7192 H   0  0  0  0  0  0  0  0  0  0  0  0
   -3.4876   -3.4042    0.3764 H   0  0  0  0  0  0  0  0  0  0  0  0
   -5.1405   -2.7779    0.5009 H   0  0  0  0  0  0  0  0  0  0  0  0
   -3.4889   -3.2870   -1.9583 H   0  0  0  0  0  0  0  0  0  0  0  0
   -5.2396   -3.4738   -1.7417 H   0  0  0  0  0  0  0  0  0  0  0  0
   -4.3615   -1.3455   -3.0949 H   0  0  0  0  0  0  0  0  0  0  0  0
   -5.5884   -1.0714   -1.8283 H   0  0  0  0  0  0  0  0  0  0  0  0
   -4.6529    1.0869   -0.7282 H   0  0  0  0  0  0  0  0  0  0  0  0
   -3.9933    1.0485   -2.3475 H   0  0  0  0  0  0  0  0  0  0  0  0
    4.3401    0.1104   -3.2274 H   0  0  0  0  0  0  0  0  0  0  0  0
    4.0620   -1.4582   -4.0098 H   0  0  0  0  0  0  0  0  0  0  0  0
    5.4963   -2.5864   -2.3990 H   0  0  0  0  0  0  0  0  0  0  0  0
    6.3952   -1.0897   -2.7184 H   0  0  0  0  0  0  0  0  0  0  0  0
    2.3161   -0.4779   -2.2122 H   0  0  0  0  0  0  0  0  0  0  0  0
    2.6939   -2.2298   -2.1833 H   0  0  0  0  0  0  0  0  0  0  0  0
    5.7012   -1.7727   -0.1846 H   0  0  0  0  0  0  0  0  0  0  0  0
    5.5823   -0.0644   -0.6899 H   0  0  0  0  0  0  0  0  0  0  0  0
   -3.5063    2.5943    0.6944 H   0  0  0  0  0  0  0  0  0  0  0  0
   -1.2978    0.6139   -2.4375 H   0  0  0  0  0  0  0  0  0  0  0  0
    1.1453   -1.1586   -0.5289 H   0  0  0  0  0  0  0  0  0  0  0  0
    1.2108   -0.8099    3.7651 H   0  0  0  0  0  0  0  0  0  0  0  0
   -1.4912    3.8305    1.3374 H   0  0  0  0  0  0  0  0  0  0  0  0
    0.7087    1.8265   -1.8090 H   0  0  0  0  0  0  0  0  0  0  0  0
    3.6761   -0.7617    3.6444 H   0  0  0  0  0  0  0  0  0  0  0  0
    2.8298    3.8364   -0.3138 H   0  0  0  0  0  0  0  0  0  0  0  0
  1  7  1  0  0  0  0
  1 14  1  0  0  0  0
  2 31  1  0  0  0  0
  2 56  1  0  0  0  0
  3 31  2  0  0  0  0
  4  9  1  0  0  0  0
  4 12  1  0  0  0  0
  4 13  1  0  0  0  0
  5 17  1  0  0  0  0
  5 18  1  0  0  0  0
  5 20  1  0  0  0  0
  6 14  2  0  0  0  0
  6 21  1  0  0  0  0
  7 21  2  0  0  0  0
  8 20  2  0  0  0  0
  8 30  1  0  0  0  0
  9 10  1  0  0  0  0
  9 14  1  0  0  0  0
  9 32  1  0  0  0  0
 10 11  1  0  0  0  0
 10 33  1  0  0  0  0
 10 34  1  0  0  0  0
 11 12  1  0  0  0  0
 11 35  1  0  0  0  0
 11 36  1  0  0  0  0
 12 37  1  0  0  0  0
 12 38  1  0  0  0  0
 13 19  1  0  0  0  0
 13 39  1  0  0  0  0
 13 40  1  0  0  0  0
 15 16  1  0  0  0  0
 15 17  1  0  0  0  0
 15 41  1  0  0  0  0
 15 42  1  0  0  0  0
 16 18  1  0  0  0  0
 16 43  1  0  0  0  0
 16 44  1  0  0  0  0
 17 45  1  0  0  0  0
 17 46  1  0  0  0  0
 18 47  1  0  0  0  0
 18 48  1  0  0  0  0
 19 23  2  0  0  0  0
 19 24  1  0  0  0  0
 20 25  1  0  0  0  0
 21 22  1  0  0  0  0
 22 25  2  0  0  0  0
 22 26  1  0  0  0  0
 23 27  1  0  0  0  0
 23 49  1  0  0  0  0
 24 28  2  0  0  0  0
 24 50  1  0  0  0  0
 25 51  1  0  0  0  0
 26 30  2  0  0  0  0
 26 52  1  0  0  0  0
 27 29  2  0  0  0  0
 27 53  1  0  0  0  0
 28 29  1  0  0  0  0
 28 54  1  0  0  0  0
 29 31  1  0  0  0  0
 30 55  1  0  0  0  0
M  END
> <PUBCHEM_COMPOUND_CID>
56773973

> <PUBCHEM_CONFORMER_RMSD>
1

> <PUBCHEM_CONFORMER_DIVERSEORDER>
1
37
25
45
56
38
21
35
53
48
16
65
60
9
30
36
12
61
52
50
34
39
63
3
32
43
23
59
22
15
55
2
41
40
4
64
26
24
46
62
20
6
51
14
27
54
49
57
29
13
17
19
5
44
31
18
42
10
33
58
8
11
28
7
47

> <PUBCHEM_MMFF94_PARTIAL_CHARGES>
35
1 -0.02
12 0.27
13 0.41
14 0.3
17 0.37
18 0.37
19 -0.14
2 -0.65
20 0.41
21 0.46
22 0.05
23 -0.15
24 -0.15
25 -0.15
26 -0.15
27 -0.15
28 -0.15
29 0.09
3 -0.57
30 0.16
31 0.63
4 -0.81
49 0.15
5 -0.84
50 0.15
51 0.15
52 0.15
53 0.15
54 0.15
55 0.15
56 0.5
6 -0.57
7 -0.41
8 -0.62
9 0.45

> <PUBCHEM_EFFECTIVE_ROTOR_COUNT>
8

> <PUBCHEM_PHARMACOPHORE_FEATURES>
11
1 2 acceptor
1 3 acceptor
1 4 cation
3 2 3 31 anion
3 5 8 20 cation
3 6 7 21 cation
5 1 6 7 14 21 rings
5 4 9 10 11 12 rings
5 5 15 16 17 18 rings
6 19 23 24 27 28 29 rings
6 8 20 22 25 26 30 rings

> <PUBCHEM_HEAVY_ATOM_COUNT>
31

> <PUBCHEM_ATOM_DEF_STEREO_COUNT>
1

> <PUBCHEM_ATOM_UDEF_STEREO_COUNT>
0

> <PUBCHEM_BOND_DEF_STEREO_COUNT>
0

> <PUBCHEM_BOND_UDEF_STEREO_COUNT>
0

> <PUBCHEM_ISOTOPIC_ATOM_COUNT>
0

> <PUBCHEM_COMPONENT_COUNT>
1

> <PUBCHEM_CACTVS_TAUTO_COUNT>
1

> <PUBCHEM_CONFORMER_ID>
03624D5500000001

> <PUBCHEM_MMFF94_ENERGY>
77.9341

> <PUBCHEM_FEATURE_SELFOVERLAP>
55.881

> <PUBCHEM_SHAPE_FINGERPRINT>
1100329 8 18191280746985749585
11607047 141 17912950528365809195
12596599 1 18270388408947805801
12788726 201 18117843196270322837
13009979 54 17462824511610799218
13383661 66 16468418962646480886
13761468 95 17465956964656556548
14114206 34 18040727930449062252
14910302 57 17987790809200644782
17492 54 17676486082381541941
17818456 19 17757244017203736114
19319366 153 17388814181138273561
20691752 17 16879321546777879445
20775438 99 17689983957518045959
20905425 154 17972299979329716593
22182313 1 17388248211928578459
238918 7 17396416581783320808
469060 322 18059030409758649038
50150288 127 16389387901241474556
59755656 215 17177689622165036599
6287921 2 17630299030419344608
6786 2 16978176175861570465
70251023 43 18339369672619991831

> <PUBCHEM_SHAPE_MULTIPOLES>
595.45
9.61
4.19
2.97
4.81
5.67
0.59
-8.42
-6.58
-1.93
-0.19
2.59
-1.69
0.37

> <PUBCHEM_SHAPE_SELFOVERLAP>
1302.04

> <PUBCHEM_SHAPE_VOLUME>
325.4

> <PUBCHEM_COORDINATE_TYPE>
2
5
10

$$$$
