86768994
  -OEChem-12032416323D

 58 60  0     1  0  0  0  0  0999 V2000
    2.9068   -0.2877    0.7380 O   0  0  0  0  0  0  0  0  0  0  0  0
    5.6236    0.8214    1.0159 O   0  0  0  0  0  0  0  0  0  0  0  0
   -5.1890    1.3661   -0.0247 O   0  0  0  0  0  0  0  0  0  0  0  0
   -1.0348   -2.6630   -0.9539 O   0  0  0  0  0  0  0  0  0  0  0  0
   -2.9664   -1.7672    1.1697 O   0  0  0  0  0  0  0  0  0  0  0  0
    0.8382    1.6341    1.1616 N   0  0  0  0  0  0  0  0  0  0  0  0
   -2.9968    1.8809   -0.5969 N   0  0  0  0  0  0  0  0  0  0  0  0
    0.2288   -2.4495   -1.4912 N   0  0  0  0  0  0  0  0  0  0  0  0
    3.2292    1.0937    0.9451 C   0  0  1  0  0  0  0  0  0  0  0  0
   -0.3104    2.1775    0.4409 C   0  0  0  0  0  0  0  0  0  0  0  0
    4.5682    1.4587    0.2912 C   0  0  2  0  0  0  0  0  0  0  0  0
    2.8841   -0.7088   -0.6281 C   0  0  1  0  0  0  0  0  0  0  0  0
    2.0822    1.9990    0.5008 C   0  0  0  0  0  0  0  0  0  0  0  0
    4.6526    0.9930   -1.1599 C   0  0  0  0  0  0  0  0  0  0  0  0
    4.2414   -0.4709   -1.2880 C   0  0  0  0  0  0  0  0  0  0  0  0
   -0.6018    1.3279   -0.8029 C   0  0  0  0  0  0  0  0  0  0  0  0
   -1.5373    2.2195    1.3609 C   0  0  0  0  0  0  0  0  0  0  0  0
   -1.8578    1.8206   -1.5214 C   0  0  0  0  0  0  0  0  0  0  0  0
   -2.7735    2.6950    0.5997 C   0  0  0  0  0  0  0  0  0  0  0  0
    2.5245   -2.1895   -0.6453 C   0  0  0  0  0  0  0  0  0  0  0  0
    1.0497   -2.4076   -0.4379 C   0  0  0  0  0  0  0  0  0  0  0  0
   -4.2342    1.2708   -0.8003 C   0  0  0  0  0  0  0  0  0  0  0  0
    0.3674   -2.5867    0.7779 C   0  0  0  0  0  0  0  0  0  0  0  0
   -4.3836    0.4474   -2.0546 C   0  0  0  0  0  0  0  0  0  0  0  0
   -0.9393   -2.7428    0.3979 C   0  0  0  0  0  0  0  0  0  0  0  0
   -2.1908   -2.9683    1.1311 C   0  0  0  0  0  0  0  0  0  0  0  0
   -4.1811   -1.9637    1.8744 C   0  0  0  0  0  0  0  0  0  0  0  0
    3.3463    1.1994    2.0316 H   0  0  0  0  0  0  0  0  0  0  0  0
   -0.1013    3.2119    0.1336 H   0  0  0  0  0  0  0  0  0  0  0  0
    4.7429    2.5383    0.3569 H   0  0  0  0  0  0  0  0  0  0  0  0
    2.1183   -0.1461   -1.1729 H   0  0  0  0  0  0  0  0  0  0  0  0
    1.9929    1.9574   -0.5872 H   0  0  0  0  0  0  0  0  0  0  0  0
    2.3263    3.0412    0.7435 H   0  0  0  0  0  0  0  0  0  0  0  0
    5.6732    1.1099   -1.5428 H   0  0  0  0  0  0  0  0  0  0  0  0
    3.9985    1.6095   -1.7874 H   0  0  0  0  0  0  0  0  0  0  0  0
    4.2116   -0.7564   -2.3456 H   0  0  0  0  0  0  0  0  0  0  0  0
    5.0030   -1.0949   -0.8032 H   0  0  0  0  0  0  0  0  0  0  0  0
   -0.7528    0.2827   -0.5074 H   0  0  0  0  0  0  0  0  0  0  0  0
    0.2250    1.3456   -1.5190 H   0  0  0  0  0  0  0  0  0  0  0  0
   -1.3558    2.8858    2.2128 H   0  0  0  0  0  0  0  0  0  0  0  0
   -1.7320    1.2183    1.7686 H   0  0  0  0  0  0  0  0  0  0  0  0
    0.8558    1.9799    2.1206 H   0  0  0  0  0  0  0  0  0  0  0  0
   -1.7024    2.8341   -1.9101 H   0  0  0  0  0  0  0  0  0  0  0  0
   -2.0603    1.1748   -2.3776 H   0  0  0  0  0  0  0  0  0  0  0  0
   -3.6461    2.6652    1.2599 H   0  0  0  0  0  0  0  0  0  0  0  0
   -2.6468    3.7332    0.2707 H   0  0  0  0  0  0  0  0  0  0  0  0
    3.0746   -2.7295    0.1359 H   0  0  0  0  0  0  0  0  0  0  0  0
    2.8041   -2.6393   -1.6068 H   0  0  0  0  0  0  0  0  0  0  0  0
    6.4650    1.1021    0.6172 H   0  0  0  0  0  0  0  0  0  0  0  0
    0.7650   -2.5994    1.7819 H   0  0  0  0  0  0  0  0  0  0  0  0
   -3.6645   -0.3763   -2.0528 H   0  0  0  0  0  0  0  0  0  0  0  0
   -4.2473    1.0756   -2.9387 H   0  0  0  0  0  0  0  0  0  0  0  0
   -5.3904    0.0200   -2.0914 H   0  0  0  0  0  0  0  0  0  0  0  0
   -2.7706   -3.7597    0.6414 H   0  0  0  0  0  0  0  0  0  0  0  0
   -1.9714   -3.2887    2.1565 H   0  0  0  0  0  0  0  0  0  0  0  0
   -4.7328   -1.0198    1.8793 H   0  0  0  0  0  0  0  0  0  0  0  0
   -3.9832   -2.2555    2.9103 H   0  0  0  0  0  0  0  0  0  0  0  0
   -4.7949   -2.7224    1.3794 H   0  0  0  0  0  0  0  0  0  0  0  0
  1  9  1  0  0  0  0
  1 12  1  0  0  0  0
  2 11  1  0  0  0  0
  2 49  1  0  0  0  0
  3 22  2  0  0  0  0
  4  8  1  0  0  0  0
  4 25  1  0  0  0  0
  5 26  1  0  0  0  0
  5 27  1  0  0  0  0
  6 10  1  0  0  0  0
  6 13  1  0  0  0  0
  6 42  1  0  0  0  0
  7 18  1  0  0  0  0
  7 19  1  0  0  0  0
  7 22  1  0  0  0  0
  8 21  2  0  0  0  0
  9 11  1  0  0  0  0
  9 13  1  0  0  0  0
  9 28  1  0  0  0  0
 10 16  1  0  0  0  0
 10 17  1  0  0  0  0
 10 29  1  0  0  0  0
 11 14  1  0  0  0  0
 11 30  1  0  0  0  0
 12 15  1  0  0  0  0
 12 20  1  0  0  0  0
 12 31  1  0  0  0  0
 13 32  1  0  0  0  0
 13 33  1  0  0  0  0
 14 15  1  0  0  0  0
 14 34  1  0  0  0  0
 14 35  1  0  0  0  0
 15 36  1  0  0  0  0
 15 37  1  0  0  0  0
 16 18  1  0  0  0  0
 16 38  1  0  0  0  0
 16 39  1  0  0  0  0
 17 19  1  0  0  0  0
 17 40  1  0  0  0  0
 17 41  1  0  0  0  0
 18 43  1  0  0  0  0
 18 44  1  0  0  0  0
 19 45  1  0  0  0  0
 19 46  1  0  0  0  0
 20 21  1  0  0  0  0
 20 47  1  0  0  0  0
 20 48  1  0  0  0  0
 21 23  1  0  0  0  0
 22 24  1  0  0  0  0
 23 25  2  0  0  0  0
 23 50  1  0  0  0  0
 24 51  1  0  0  0  0
 24 52  1  0  0  0  0
 24 53  1  0  0  0  0
 25 26  1  0  0  0  0
 26 54  1  0  0  0  0
 26 55  1  0  0  0  0
 27 56  1  0  0  0  0
 27 57  1  0  0  0  0
 27 58  1  0  0  0  0
M  END
> <PUBCHEM_COMPOUND_CID>
86768994

> <PUBCHEM_CONFORMER_RMSD>
1

> <PUBCHEM_CONFORMER_DIVERSEORDER>
1
99
37
70
65
95
23
35
18
56
64
61
100
106
19
81
46
68
21
103
76
105
73
80
42
104
91
9
98
69
107
71
6
44
58
67
52
63
62
102
72
29
15
32
82
84
74
77
86
109
51
55
60
78
101
49
53
111
31
47
14
36
89
4
17
38
50
48
3
12
41
87
110
25
75
54
93
112
8
96
97
24
10
20
43
66
26
94
59
16
57
5
13
90
39
40
30
79
28
27
45
22
33
2
34
88
108
11
83
85
7
92

> <PUBCHEM_MMFF94_PARTIAL_CHARGES>
26
1 -0.56
10 0.27
11 0.28
12 0.28
13 0.27
18 0.3
19 0.3
2 -0.68
20 0.18
21 0.11
22 0.57
23 -0.15
24 0.06
25 -0.04
26 0.46
27 0.28
3 -0.57
4 -0.02
42 0.36
49 0.4
5 -0.56
50 0.15
6 -0.9
7 -0.66
8 -0.41
9 0.28

> <PUBCHEM_EFFECTIVE_ROTOR_COUNT>
10.4

> <PUBCHEM_PHARMACOPHORE_FEATURES>
11
1 1 acceptor
1 2 acceptor
1 2 donor
1 3 acceptor
1 5 acceptor
1 6 cation
1 6 donor
1 8 acceptor
5 4 8 21 23 25 rings
6 1 9 11 12 14 15 rings
6 7 10 16 17 18 19 rings

> <PUBCHEM_HEAVY_ATOM_COUNT>
27

> <PUBCHEM_ATOM_DEF_STEREO_COUNT>
3

> <PUBCHEM_ATOM_UDEF_STEREO_COUNT>
0

> <PUBCHEM_BOND_DEF_STEREO_COUNT>
0

> <PUBCHEM_BOND_UDEF_STEREO_COUNT>
0

> <PUBCHEM_ISOTOPIC_ATOM_COUNT>
0

> <PUBCHEM_COMPONENT_COUNT>
1

> <PUBCHEM_CACTVS_TAUTO_COUNT>
1

> <PUBCHEM_CONFORMER_ID>
052BFD6200000001

> <PUBCHEM_MMFF94_ENERGY>
38.1389

> <PUBCHEM_FEATURE_SELFOVERLAP>
55.824

> <PUBCHEM_SHAPE_FINGERPRINT>
104564 63 18265895946412921382
10675989 125 17544181693413871125
10688039 33 17971197173066665275
10759866 29 18113337514211152066
108634 29 18343023294140645366
11112241 14 17631435921121170017
12156800 1 17406615424114604405
12422481 6 18119564069923178675
12788726 201 18046073919750871320
13075007 39 17539156229700847203
13402501 40 18410298034104226035
13726171 33 18117858787487261236
14363568 33 17254300319074242993
14787075 74 18341603794464091413
14931854 50 18271513230759731653
15721738 202 16773222016308757127
17138139 8 17985799701253867077
17357779 13 18268706301948683319
20764821 26 18411422791096178123
21360443 126 18113616790433483213
22182313 1 18202015347737291774
238 59 18196939864023001224
27425 322 16877668946188704493
3052486 1 18187651340384423766
437795 51 18410291368916349869
469060 322 17677352609244885043
5047190 48 17116349022874807745
508706 21 18336264656225968567
59755656 215 18336825381818743371

> <PUBCHEM_SHAPE_MULTIPOLES>
511.36
9.76
4.16
1.66
2.76
2.25
0.22
-3.74
0.66
-2.51
-0.74
-0.98
0.09
1.95

> <PUBCHEM_SHAPE_SELFOVERLAP>
1044.778

> <PUBCHEM_SHAPE_VOLUME>
295.3

> <PUBCHEM_COORDINATE_TYPE>
2
5
10

$$$$
