26742943
  -OEChem-12032416183D

 58 59  0     1  0  0  0  0  0999 V2000
   -4.5725   -1.7284   -0.2704 O   0  0  0  0  0  0  0  0  0  0  0  0
    3.2964   -1.5012   -1.7009 O   0  0  0  0  0  0  0  0  0  0  0  0
    5.0818    1.5900    0.1808 O   0  0  0  0  0  0  0  0  0  0  0  0
   -0.3287    2.4860   -0.9788 N   0  0  0  0  0  0  0  0  0  0  0  0
    4.0321   -1.3228    0.4963 N   0  0  0  0  0  0  0  0  0  0  0  0
   -3.2273   -1.9094   -0.5678 N   0  0  0  0  0  0  0  0  0  0  0  0
    6.6013    0.0125    0.9726 N   0  0  0  0  0  0  0  0  0  0  0  0
    0.8689   -0.2027   -1.1873 C   0  0  1  0  0  0  0  0  0  0  0  0
   -0.5806    0.0315   -0.6993 C   0  0  2  0  0  0  0  0  0  0  0  0
    1.2990    0.9816   -2.0693 C   0  0  0  0  0  0  0  0  0  0  0  0
   -0.7488    1.4227   -0.0654 C   0  0  0  0  0  0  0  0  0  0  0  0
   -1.0749   -1.0567    0.2547 C   0  0  0  0  0  0  0  0  0  0  0  0
    1.0649    2.3301   -1.3898 C   0  0  0  0  0  0  0  0  0  0  0  0
    1.8780   -0.4353   -0.0564 C   0  0  0  0  0  0  0  0  0  0  0  0
   -2.5746   -1.1164    0.2866 C   0  0  0  0  0  0  0  0  0  0  0  0
    3.1269   -1.1416   -0.5391 C   0  0  0  0  0  0  0  0  0  0  0  0
   -3.4470   -0.4174    1.1387 C   0  0  0  0  0  0  0  0  0  0  0  0
   -4.6906   -0.8378    0.7473 C   0  0  0  0  0  0  0  0  0  0  0  0
   -6.0547   -0.5281    1.1921 C   0  0  0  0  0  0  0  0  0  0  0  0
    5.3112   -1.9720    0.3216 C   0  0  0  0  0  0  0  0  0  0  0  0
   -6.7954    0.4411    0.2434 C   0  0  0  0  0  0  0  0  0  0  0  0
    6.4055   -0.9840   -0.0458 C   0  0  0  0  0  0  0  0  0  0  0  0
   -8.1978    0.7920    0.7398 C   0  0  0  0  0  0  0  0  0  0  0  0
   -8.8881    1.7771   -0.1902 C   0  0  0  0  0  0  0  0  0  0  0  0
    5.9195    1.2215    1.0000 C   0  0  0  0  0  0  0  0  0  0  0  0
    6.2956    2.0677    2.1867 C   0  0  0  0  0  0  0  0  0  0  0  0
    0.8480   -1.0992   -1.8223 H   0  0  0  0  0  0  0  0  0  0  0  0
   -1.2127    0.0093   -1.6011 H   0  0  0  0  0  0  0  0  0  0  0  0
    0.7229    0.9516   -3.0040 H   0  0  0  0  0  0  0  0  0  0  0  0
    2.3526    0.8980   -2.3582 H   0  0  0  0  0  0  0  0  0  0  0  0
   -1.7990    1.6075    0.1783 H   0  0  0  0  0  0  0  0  0  0  0  0
   -0.1871    1.4946    0.8741 H   0  0  0  0  0  0  0  0  0  0  0  0
   -0.7046   -0.8917    1.2739 H   0  0  0  0  0  0  0  0  0  0  0  0
   -0.6983   -2.0376   -0.0643 H   0  0  0  0  0  0  0  0  0  0  0  0
    1.7323    2.4631   -0.5313 H   0  0  0  0  0  0  0  0  0  0  0  0
    1.3090    3.1287   -2.0995 H   0  0  0  0  0  0  0  0  0  0  0  0
    1.4550   -1.0862    0.7160 H   0  0  0  0  0  0  0  0  0  0  0  0
    2.1651    0.4987    0.4371 H   0  0  0  0  0  0  0  0  0  0  0  0
   -0.4463    3.3896   -0.5214 H   0  0  0  0  0  0  0  0  0  0  0  0
   -3.2101    0.2857    1.9236 H   0  0  0  0  0  0  0  0  0  0  0  0
    3.8001   -0.9809    1.4245 H   0  0  0  0  0  0  0  0  0  0  0  0
   -6.6310   -1.4573    1.2804 H   0  0  0  0  0  0  0  0  0  0  0  0
   -6.0197   -0.0882    2.1965 H   0  0  0  0  0  0  0  0  0  0  0  0
    5.2219   -2.7367   -0.4573 H   0  0  0  0  0  0  0  0  0  0  0  0
    5.5461   -2.4723    1.2673 H   0  0  0  0  0  0  0  0  0  0  0  0
   -6.8612   -0.0069   -0.7565 H   0  0  0  0  0  0  0  0  0  0  0  0
   -6.2054    1.3606    0.1358 H   0  0  0  0  0  0  0  0  0  0  0  0
    6.1670   -0.4823   -0.9905 H   0  0  0  0  0  0  0  0  0  0  0  0
    7.3568   -1.5109   -0.1717 H   0  0  0  0  0  0  0  0  0  0  0  0
   -8.8024   -0.1190    0.8166 H   0  0  0  0  0  0  0  0  0  0  0  0
   -8.1379    1.2275    1.7439 H   0  0  0  0  0  0  0  0  0  0  0  0
    7.2628   -0.1962    1.7149 H   0  0  0  0  0  0  0  0  0  0  0  0
   -8.3233    2.7121   -0.2608 H   0  0  0  0  0  0  0  0  0  0  0  0
   -9.8896    2.0127    0.1833 H   0  0  0  0  0  0  0  0  0  0  0  0
   -8.9902    1.3601   -1.1971 H   0  0  0  0  0  0  0  0  0  0  0  0
    7.3825    2.0964    2.3053 H   0  0  0  0  0  0  0  0  0  0  0  0
    5.9333    3.0889    2.0398 H   0  0  0  0  0  0  0  0  0  0  0  0
    5.8414    1.6497    3.0891 H   0  0  0  0  0  0  0  0  0  0  0  0
  1  6  1  0  0  0  0
  1 18  1  0  0  0  0
  2 16  2  0  0  0  0
  3 25  2  0  0  0  0
  4 11  1  0  0  0  0
  4 13  1  0  0  0  0
  4 39  1  0  0  0  0
  5 16  1  0  0  0  0
  5 20  1  0  0  0  0
  5 41  1  0  0  0  0
  6 15  2  0  0  0  0
  7 22  1  0  0  0  0
  7 25  1  0  0  0  0
  7 52  1  0  0  0  0
  8  9  1  0  0  0  0
  8 10  1  0  0  0  0
  8 14  1  0  0  0  0
  8 27  1  0  0  0  0
  9 11  1  0  0  0  0
  9 12  1  0  0  0  0
  9 28  1  0  0  0  0
 10 13  1  0  0  0  0
 10 29  1  0  0  0  0
 10 30  1  0  0  0  0
 11 31  1  0  0  0  0
 11 32  1  0  0  0  0
 12 15  1  0  0  0  0
 12 33  1  0  0  0  0
 12 34  1  0  0  0  0
 13 35  1  0  0  0  0
 13 36  1  0  0  0  0
 14 16  1  0  0  0  0
 14 37  1  0  0  0  0
 14 38  1  0  0  0  0
 15 17  1  0  0  0  0
 17 18  2  0  0  0  0
 17 40  1  0  0  0  0
 18 19  1  0  0  0  0
 19 21  1  0  0  0  0
 19 42  1  0  0  0  0
 19 43  1  0  0  0  0
 20 22  1  0  0  0  0
 20 44  1  0  0  0  0
 20 45  1  0  0  0  0
 21 23  1  0  0  0  0
 21 46  1  0  0  0  0
 21 47  1  0  0  0  0
 22 48  1  0  0  0  0
 22 49  1  0  0  0  0
 23 24  1  0  0  0  0
 23 50  1  0  0  0  0
 23 51  1  0  0  0  0
 24 53  1  0  0  0  0
 24 54  1  0  0  0  0
 24 55  1  0  0  0  0
 25 26  1  0  0  0  0
 26 56  1  0  0  0  0
 26 57  1  0  0  0  0
 26 58  1  0  0  0  0
M  END
> <PUBCHEM_COMPOUND_CID>
26742943

> <PUBCHEM_CONFORMER_RMSD>
1.4

> <PUBCHEM_CONFORMER_DIVERSEORDER>
1
32
74
98
56
41
21
48
38
96
8
11
73
24
66
26
49
47
97
93
91
77
2
67
75
99
62
100
88
83
82
9
71
52
80
94
18
51
43
60
36
44
53
63
3
58
89
28
42
12
81
69
87
16
29
85
59
13
39
35
14
5
30
61
64
6
90
72
84
45
22
25
40
46
68
31
20
4
57
79
33
27
65
101
95
86
15
7
78
23
70
19
92
37
10
50
76
17
34
55
54

> <PUBCHEM_MMFF94_PARTIAL_CHARGES>
24
1 -0.02
11 0.27
12 0.18
13 0.27
14 0.06
15 0.11
16 0.57
17 -0.15
18 -0.04
19 0.18
2 -0.57
20 0.3
22 0.3
25 0.57
26 0.06
3 -0.57
39 0.36
4 -0.9
40 0.15
41 0.37
5 -0.73
52 0.37
6 -0.41
7 -0.73

> <PUBCHEM_EFFECTIVE_ROTOR_COUNT>
13.2

> <PUBCHEM_PHARMACOPHORE_FEATURES>
10
1 2 acceptor
1 24 hydrophobe
1 3 acceptor
1 4 cation
1 4 donor
1 5 donor
1 6 acceptor
1 7 donor
5 1 6 15 17 18 rings
6 4 8 9 10 11 13 rings

> <PUBCHEM_HEAVY_ATOM_COUNT>
26

> <PUBCHEM_ATOM_DEF_STEREO_COUNT>
2

> <PUBCHEM_ATOM_UDEF_STEREO_COUNT>
0

> <PUBCHEM_BOND_DEF_STEREO_COUNT>
0

> <PUBCHEM_BOND_UDEF_STEREO_COUNT>
0

> <PUBCHEM_ISOTOPIC_ATOM_COUNT>
0

> <PUBCHEM_COMPONENT_COUNT>
1

> <PUBCHEM_CACTVS_TAUTO_COUNT>
4

> <PUBCHEM_CONFORMER_ID>
0198109F00000001

> <PUBCHEM_MMFF94_ENERGY>
18.3565

> <PUBCHEM_FEATURE_SELFOVERLAP>
50.747

> <PUBCHEM_SHAPE_FINGERPRINT>
10591671 39 12535626081324995131
11135609 12 18040714775138632709
11991303 11 14189568680395172020
12516196 113 18187365445522764810
12596602 18 18059857302669351122
13008946 113 18043818799243113420
13533116 47 18114177498340948418
14251764 18 18410294735706557559
14347424 109 18271524208896645178
1454969 45 12103556469046914931
15131766 46 17487319677142904720
15142383 8 17822011995568163117
15183329 4 8790893990751824042
15461852 350 17346876776452032815
15849732 13 18411420601211593687
16120349 18 18343861134785633601
17980427 23 17703508899821259053
20511986 3 18202279225805963239
20567600 234 17489871539686132522
20771845 171 15410906154074555436
20832881 197 17894921723991969611
21095086 128 12973895819125903977
21150785 3 11959730473291870241
21521239 73 8574720100304538216
21781051 124 9655570812302190317
21792934 111 18334289834077953273
21859007 373 18334854962360788773
23845131 108 17471853602340935380
27425 322 14332827349845951714
3004659 81 16443072698960255022
335352 9 18259709987053583199
5047190 69 18335978654797391845
5104073 3 18337660907581621000
5486654 2 10303803260419610973
58260988 647 12180113247359531560

> <PUBCHEM_SHAPE_MULTIPOLES>
497.54
22.37
2.35
1.52
23.68
0.8
0.05
4.96
-10.24
-1.3
0.24
-1.7
0.64
1.62

> <PUBCHEM_SHAPE_SELFOVERLAP>
995.466

> <PUBCHEM_SHAPE_VOLUME>
291.5

> <PUBCHEM_COORDINATE_TYPE>
2
5
10

$$$$
