25314629
  -OEChem-12032416213D

 53 55  0     1  0  0  0  0  0999 V2000
    3.2354    0.8303   -1.5900 O   0  0  0  0  0  0  0  0  0  0  0  0
    4.7271    1.6245   -0.0010 O   0  0  0  0  0  0  0  0  0  0  0  0
    2.8859    1.2718    2.1869 O   0  0  0  0  0  0  0  0  0  0  0  0
   -1.0368    1.4935    1.0910 O   0  0  0  0  0  0  0  0  0  0  0  0
   -7.1451   -0.4830    0.0196 O   0  0  0  0  0  0  0  0  0  0  0  0
    2.8691   -1.5802   -0.0728 N   0  0  0  0  0  0  0  0  0  0  0  0
    0.5054    0.8518   -0.5065 N   0  0  0  0  0  0  0  0  0  0  0  0
   -1.6811    0.2177   -0.7712 N   0  0  0  0  0  0  0  0  0  0  0  0
    3.4328   -0.3563    0.5002 C   0  0  2  0  0  0  0  0  0  0  0  0
    1.6546    1.4773    0.1118 C   0  0  1  0  0  0  0  0  0  0  0  0
    2.3105    0.5074    1.1190 C   0  0  2  0  0  0  0  0  0  0  0  0
    2.6287    1.9722   -0.9772 C   0  0  1  0  0  0  0  0  0  0  0  0
    4.1826    0.4318   -0.5896 C   0  0  1  0  0  0  0  0  0  0  0  0
    3.8566    2.6802   -0.4361 C   0  0  0  0  0  0  0  0  0  0  0  0
    2.1930   -2.3625    0.9606 C   0  0  0  0  0  0  0  0  0  0  0  0
    3.9177   -2.3735   -0.7121 C   0  0  0  0  0  0  0  0  0  0  0  0
   -0.7784    0.9088    0.0416 C   0  0  0  0  0  0  0  0  0  0  0  0
    1.6002   -3.6357    0.3932 C   0  0  0  0  0  0  0  0  0  0  0  0
    4.9923   -2.7729    0.2778 C   0  0  0  0  0  0  0  0  0  0  0  0
   -3.0700    0.0402   -0.5705 C   0  0  0  0  0  0  0  0  0  0  0  0
   -3.8210   -0.6871   -1.4939 C   0  0  0  0  0  0  0  0  0  0  0  0
   -3.6886    0.5920    0.5514 C   0  0  0  0  0  0  0  0  0  0  0  0
   -5.1905   -0.8625   -1.2956 C   0  0  0  0  0  0  0  0  0  0  0  0
   -5.0579    0.4167    0.7498 C   0  0  0  0  0  0  0  0  0  0  0  0
   -5.8090   -0.3105   -0.1737 C   0  0  0  0  0  0  0  0  0  0  0  0
   -7.7136    0.1079    1.1875 C   0  0  0  0  0  0  0  0  0  0  0  0
    4.1367   -0.5733    1.3141 H   0  0  0  0  0  0  0  0  0  0  0  0
    1.2893    2.3617    0.6497 H   0  0  0  0  0  0  0  0  0  0  0  0
    1.5320   -0.0481    1.6361 H   0  0  0  0  0  0  0  0  0  0  0  0
    2.1069    2.5717   -1.7302 H   0  0  0  0  0  0  0  0  0  0  0  0
    5.0227   -0.0897   -1.0501 H   0  0  0  0  0  0  0  0  0  0  0  0
    4.3804    3.2194   -1.2327 H   0  0  0  0  0  0  0  0  0  0  0  0
    3.6488    3.3722    0.3844 H   0  0  0  0  0  0  0  0  0  0  0  0
    0.6547    0.2818   -1.3336 H   0  0  0  0  0  0  0  0  0  0  0  0
    1.3085   -1.8434    1.3333 H   0  0  0  0  0  0  0  0  0  0  0  0
    2.8121   -2.5781    1.8384 H   0  0  0  0  0  0  0  0  0  0  0  0
    4.3558   -1.8698   -1.5789 H   0  0  0  0  0  0  0  0  0  0  0  0
    3.5002   -3.2745   -1.1755 H   0  0  0  0  0  0  0  0  0  0  0  0
    2.1734    1.7896    2.5990 H   0  0  0  0  0  0  0  0  0  0  0  0
    1.0471   -3.4516   -0.5346 H   0  0  0  0  0  0  0  0  0  0  0  0
    2.3541   -4.4080    0.2122 H   0  0  0  0  0  0  0  0  0  0  0  0
    0.8899   -4.0630    1.1108 H   0  0  0  0  0  0  0  0  0  0  0  0
    5.5760   -1.9305    0.6583 H   0  0  0  0  0  0  0  0  0  0  0  0
    4.6269   -3.3654    1.1202 H   0  0  0  0  0  0  0  0  0  0  0  0
    5.7143   -3.4161   -0.2412 H   0  0  0  0  0  0  0  0  0  0  0  0
   -1.3022   -0.2127   -1.6110 H   0  0  0  0  0  0  0  0  0  0  0  0
   -3.3512   -1.1226   -2.3722 H   0  0  0  0  0  0  0  0  0  0  0  0
   -3.1742    1.1664    1.3089 H   0  0  0  0  0  0  0  0  0  0  0  0
   -5.7704   -1.4302   -2.0182 H   0  0  0  0  0  0  0  0  0  0  0  0
   -5.4756    0.8713    1.6418 H   0  0  0  0  0  0  0  0  0  0  0  0
   -8.7828   -0.1280    1.1812 H   0  0  0  0  0  0  0  0  0  0  0  0
   -7.6270    1.1996    1.1689 H   0  0  0  0  0  0  0  0  0  0  0  0
   -7.2958   -0.3263    2.1021 H   0  0  0  0  0  0  0  0  0  0  0  0
  1 12  1  0  0  0  0
  1 13  1  0  0  0  0
  2 13  1  0  0  0  0
  2 14  1  0  0  0  0
  3 11  1  0  0  0  0
  3 39  1  0  0  0  0
  4 17  2  0  0  0  0
  5 25  1  0  0  0  0
  5 26  1  0  0  0  0
  6  9  1  0  0  0  0
  6 15  1  0  0  0  0
  6 16  1  0  0  0  0
  7 10  1  0  0  0  0
  7 17  1  0  0  0  0
  7 34  1  0  0  0  0
  8 17  1  0  0  0  0
  8 20  1  0  0  0  0
  8 46  1  0  0  0  0
  9 11  1  0  0  0  0
  9 13  1  0  0  0  0
  9 27  1  0  0  0  0
 10 11  1  0  0  0  0
 10 12  1  0  0  0  0
 10 28  1  0  0  0  0
 11 29  1  0  0  0  0
 12 14  1  0  0  0  0
 12 30  1  0  0  0  0
 13 31  1  0  0  0  0
 14 32  1  0  0  0  0
 14 33  1  0  0  0  0
 15 18  1  0  0  0  0
 15 35  1  0  0  0  0
 15 36  1  0  0  0  0
 16 19  1  0  0  0  0
 16 37  1  0  0  0  0
 16 38  1  0  0  0  0
 18 40  1  0  0  0  0
 18 41  1  0  0  0  0
 18 42  1  0  0  0  0
 19 43  1  0  0  0  0
 19 44  1  0  0  0  0
 19 45  1  0  0  0  0
 20 21  2  0  0  0  0
 20 22  1  0  0  0  0
 21 23  1  0  0  0  0
 21 47  1  0  0  0  0
 22 24  2  0  0  0  0
 22 48  1  0  0  0  0
 23 25  2  0  0  0  0
 23 49  1  0  0  0  0
 24 25  1  0  0  0  0
 24 50  1  0  0  0  0
 26 51  1  0  0  0  0
 26 52  1  0  0  0  0
 26 53  1  0  0  0  0
M  END
> <PUBCHEM_COMPOUND_CID>
25314629

> <PUBCHEM_CONFORMER_RMSD>
1

> <PUBCHEM_CONFORMER_DIVERSEORDER>
1
14
7
10
6
13
12
15
3
9
11
2
4
5
8

> <PUBCHEM_MMFF94_PARTIAL_CHARGES>
31
1 -0.56
10 0.3
11 0.28
12 0.28
13 0.56
14 0.28
15 0.27
16 0.27
17 0.69
2 -0.56
20 0.12
21 -0.15
22 -0.15
23 -0.15
24 -0.15
25 0.08
26 0.28
3 -0.68
34 0.37
39 0.4
4 -0.57
46 0.37
47 0.15
48 0.15
49 0.15
5 -0.36
50 0.15
6 -0.81
7 -0.73
8 -0.55
9 0.27

> <PUBCHEM_EFFECTIVE_ROTOR_COUNT>
9.2

> <PUBCHEM_PHARMACOPHORE_FEATURES>
11
1 1 acceptor
1 2 acceptor
1 3 acceptor
1 3 donor
1 4 acceptor
1 5 acceptor
1 6 cation
1 7 donor
1 8 donor
6 20 21 22 23 24 25 rings
8 1 2 9 10 11 12 13 14 rings

> <PUBCHEM_HEAVY_ATOM_COUNT>
26

> <PUBCHEM_ATOM_DEF_STEREO_COUNT>
5

> <PUBCHEM_ATOM_UDEF_STEREO_COUNT>
0

> <PUBCHEM_BOND_DEF_STEREO_COUNT>
0

> <PUBCHEM_BOND_UDEF_STEREO_COUNT>
0

> <PUBCHEM_ISOTOPIC_ATOM_COUNT>
0

> <PUBCHEM_COMPONENT_COUNT>
1

> <PUBCHEM_CACTVS_TAUTO_COUNT>
3

> <PUBCHEM_CONFORMER_ID>
0182454500000001

> <PUBCHEM_MMFF94_ENERGY>
88.4077

> <PUBCHEM_FEATURE_SELFOVERLAP>
55.924

> <PUBCHEM_SHAPE_FINGERPRINT>
11059845 2 16840239186202343154
11089746 13 10663827373345937861
11796584 16 17560805480565103623
12107183 9 17909556056233208857
12236239 1 18273217500153675137
12596602 18 17489304248106389635
12616971 3 18272363157891115911
12730499 353 18187088385714080960
12778500 126 17988648445845175283
12788726 201 17560813104148008385
13150687 139 18042704952174098180
13167823 11 18342457024135156493
13464513 79 18337951182799082166
13533116 47 18342175566369950667
13836976 161 18186803621309516452
13955234 65 18409443713564208352
14863182 85 18341320155145759362
15183329 4 17561084714138850701
15250474 111 18130493228388855887
15483637 11 18118688965837052667
15537594 2 18272932756543361223
15799311 1 18335997453763179595
17492 54 17968962811706490318
17818456 19 17842843213866579433
17844677 252 18261112929214538245
17857418 61 18202559575553632631
19427546 62 18118688957336262532
20028762 73 18271804575835766150
20511986 3 18060125575005965741
20645477 70 18186236225468785984
21285901 2 17240479191477479197
21315763 178 18272645775244445277
21421861 104 18200323112566988335
21623969 137 18113622313371211163
220451 1 18202003265920331277
22061861 79 18040431084327380199
22224240 67 18339915030967780024
2303208 19 17312825974907307075
23081809 10 18060136562138664957
23516275 137 17630637615307854166
235170 7 17458335321772604303
23522609 53 17986136152456226577
23559900 14 18113623399565238183
239999 70 17385725820010297176
3004659 81 18335137561864218714
3060560 45 18186801418107390052
345986 75 18129371606163321379
34797466 226 16588314912091977501
4073 2 18196936784547332617
4340502 62 18337387244686314492
46194498 28 17530967990271916716
463206 1 18341886424449920279
5758199 1 18270116946020098288
6669772 16 17603580851131334282
70251023 43 18262521364785812226
7164475 11 18337951190645595149

> <PUBCHEM_SHAPE_MULTIPOLES>
490.78
15.94
2.95
1.34
30.62
2.04
0.13
2.53
0.9
-6.17
0.11
0.27
-0.18
-0.96

> <PUBCHEM_SHAPE_SELFOVERLAP>
1031.073

> <PUBCHEM_SHAPE_VOLUME>
275.1

> <PUBCHEM_COORDINATE_TYPE>
2
5
10

$$$$
