75536037
  -OEChem-12032416323D

 61 63  0     1  0  0  0  0  0999 V2000
   -4.4702   -1.4168   -0.7443 O   0  0  0  0  0  0  0  0  0  0  0  0
   -0.3843   -1.3746   -1.9483 O   0  0  0  0  0  0  0  0  0  0  0  0
    2.5633    2.7694   -1.6687 O   0  0  0  0  0  0  0  0  0  0  0  0
    1.4361    2.4667    0.3126 O   0  0  0  0  0  0  0  0  0  0  0  0
   -3.2462    0.0550    0.5209 N   0  0  0  0  0  0  0  0  0  0  0  0
   -2.2922   -1.9990   -0.1745 N   0  0  0  0  0  0  0  0  0  0  0  0
   -0.2927   -4.0576    0.0945 N   0  0  0  0  0  0  0  0  0  0  0  0
    0.7258   -0.1061   -0.3426 N   0  0  0  0  0  0  0  0  0  0  0  0
    5.5490    0.4974    1.1634 N   0  0  0  0  0  0  0  0  0  0  0  0
   -4.2986    1.0427    0.6110 C   0  0  0  0  0  0  0  0  0  0  0  0
   -4.2495    2.0102   -0.5764 C   0  0  0  0  0  0  0  0  0  0  0  0
   -4.2345    1.7958    1.9441 C   0  0  0  0  0  0  0  0  0  0  0  0
   -3.0624    2.9704   -0.4998 C   0  0  0  0  0  0  0  0  0  0  0  0
   -3.0476    2.7564    2.0166 C   0  0  0  0  0  0  0  0  0  0  0  0
   -3.0264    3.7161    0.8308 C   0  0  0  0  0  0  0  0  0  0  0  0
   -0.9590   -1.6621    0.3525 C   0  0  1  0  0  0  0  0  0  0  0  0
   -2.3963   -3.2745   -0.8922 C   0  0  0  0  0  0  0  0  0  0  0  0
   -0.2195   -2.8674    0.9424 C   0  0  0  0  0  0  0  0  0  0  0  0
   -3.4113   -1.1403   -0.1709 C   0  0  0  0  0  0  0  0  0  0  0  0
   -1.6862   -4.4087   -0.1659 C   0  0  0  0  0  0  0  0  0  0  0  0
   -0.1947   -1.0427   -0.7811 C   0  0  0  0  0  0  0  0  0  0  0  0
    1.6033    0.6175   -1.2342 C   0  0  2  0  0  0  0  0  0  0  0  0
    2.9140   -0.1419   -1.4871 C   0  0  0  0  0  0  0  0  0  0  0  0
    1.8527    2.0434   -0.7609 C   0  0  0  0  0  0  0  0  0  0  0  0
    3.7815   -0.3307   -0.2631 C   0  0  0  0  0  0  0  0  0  0  0  0
    3.6411   -1.4509    0.5486 C   0  0  0  0  0  0  0  0  0  0  0  0
    4.7415    0.6060    0.0847 C   0  0  0  0  0  0  0  0  0  0  0  0
    4.4536   -1.5981    1.6674 C   0  0  0  0  0  0  0  0  0  0  0  0
    2.8260    4.1293   -1.3081 C   0  0  0  0  0  0  0  0  0  0  0  0
    5.3836   -0.6048    1.9287 C   0  0  0  0  0  0  0  0  0  0  0  0
   -5.2561    0.5086    0.5740 H   0  0  0  0  0  0  0  0  0  0  0  0
   -5.1760    2.5983   -0.5942 H   0  0  0  0  0  0  0  0  0  0  0  0
   -4.2078    1.4580   -1.5229 H   0  0  0  0  0  0  0  0  0  0  0  0
   -4.1796    1.0872    2.7793 H   0  0  0  0  0  0  0  0  0  0  0  0
   -5.1606    2.3700    2.0742 H   0  0  0  0  0  0  0  0  0  0  0  0
   -3.1210    3.6916   -1.3229 H   0  0  0  0  0  0  0  0  0  0  0  0
   -2.1265    2.4139   -0.6331 H   0  0  0  0  0  0  0  0  0  0  0  0
   -2.1077    2.1928    2.0497 H   0  0  0  0  0  0  0  0  0  0  0  0
   -3.1006    3.3303    2.9490 H   0  0  0  0  0  0  0  0  0  0  0  0
   -3.8890    4.3910    0.8932 H   0  0  0  0  0  0  0  0  0  0  0  0
   -2.1280    4.3417    0.8786 H   0  0  0  0  0  0  0  0  0  0  0  0
   -1.0528   -0.9361    1.1634 H   0  0  0  0  0  0  0  0  0  0  0  0
   -2.3317    0.3391    0.8426 H   0  0  0  0  0  0  0  0  0  0  0  0
   -1.9901   -3.1429   -1.9003 H   0  0  0  0  0  0  0  0  0  0  0  0
   -3.4503   -3.5446   -1.0208 H   0  0  0  0  0  0  0  0  0  0  0  0
    0.8308   -2.6230    1.1221 H   0  0  0  0  0  0  0  0  0  0  0  0
   -0.6532   -3.1086    1.9219 H   0  0  0  0  0  0  0  0  0  0  0  0
   -1.7199   -5.3121   -0.7844 H   0  0  0  0  0  0  0  0  0  0  0  0
   -2.1992   -4.6416    0.7753 H   0  0  0  0  0  0  0  0  0  0  0  0
    0.1693   -4.8347    0.5660 H   0  0  0  0  0  0  0  0  0  0  0  0
    0.8153    0.0734    0.6534 H   0  0  0  0  0  0  0  0  0  0  0  0
    1.0728    0.7096   -2.1912 H   0  0  0  0  0  0  0  0  0  0  0  0
    2.6902   -1.1299   -1.9120 H   0  0  0  0  0  0  0  0  0  0  0  0
    3.5045    0.3747   -2.2554 H   0  0  0  0  0  0  0  0  0  0  0  0
    2.9174   -2.2229    0.3085 H   0  0  0  0  0  0  0  0  0  0  0  0
    4.9042    1.4989   -0.5105 H   0  0  0  0  0  0  0  0  0  0  0  0
    4.3647   -2.4652    2.3118 H   0  0  0  0  0  0  0  0  0  0  0  0
    3.3971    4.5913   -2.1178 H   0  0  0  0  0  0  0  0  0  0  0  0
    3.4218    4.1691   -0.3912 H   0  0  0  0  0  0  0  0  0  0  0  0
    1.8867    4.6766   -1.1839 H   0  0  0  0  0  0  0  0  0  0  0  0
    6.0420   -0.6728    2.7884 H   0  0  0  0  0  0  0  0  0  0  0  0
  1 19  2  0  0  0  0
  2 21  2  0  0  0  0
  3 24  1  0  0  0  0
  3 29  1  0  0  0  0
  4 24  2  0  0  0  0
  5 10  1  0  0  0  0
  5 19  1  0  0  0  0
  5 43  1  0  0  0  0
  6 16  1  0  0  0  0
  6 17  1  0  0  0  0
  6 19  1  0  0  0  0
  7 18  1  0  0  0  0
  7 20  1  0  0  0  0
  7 50  1  0  0  0  0
  8 21  1  0  0  0  0
  8 22  1  0  0  0  0
  8 51  1  0  0  0  0
  9 27  1  0  0  0  0
  9 30  2  0  0  0  0
 10 11  1  0  0  0  0
 10 12  1  0  0  0  0
 10 31  1  0  0  0  0
 11 13  1  0  0  0  0
 11 32  1  0  0  0  0
 11 33  1  0  0  0  0
 12 14  1  0  0  0  0
 12 34  1  0  0  0  0
 12 35  1  0  0  0  0
 13 15  1  0  0  0  0
 13 36  1  0  0  0  0
 13 37  1  0  0  0  0
 14 15  1  0  0  0  0
 14 38  1  0  0  0  0
 14 39  1  0  0  0  0
 15 40  1  0  0  0  0
 15 41  1  0  0  0  0
 16 18  1  0  0  0  0
 16 21  1  0  0  0  0
 16 42  1  0  0  0  0
 17 20  1  0  0  0  0
 17 44  1  0  0  0  0
 17 45  1  0  0  0  0
 18 46  1  0  0  0  0
 18 47  1  0  0  0  0
 20 48  1  0  0  0  0
 20 49  1  0  0  0  0
 22 23  1  0  0  0  0
 22 24  1  0  0  0  0
 22 52  1  0  0  0  0
 23 25  1  0  0  0  0
 23 53  1  0  0  0  0
 23 54  1  0  0  0  0
 25 26  1  0  0  0  0
 25 27  2  0  0  0  0
 26 28  2  0  0  0  0
 26 55  1  0  0  0  0
 27 56  1  0  0  0  0
 28 30  1  0  0  0  0
 28 57  1  0  0  0  0
 29 58  1  0  0  0  0
 29 59  1  0  0  0  0
 29 60  1  0  0  0  0
 30 61  1  0  0  0  0
M  END
> <PUBCHEM_COMPOUND_CID>
75536037

> <PUBCHEM_CONFORMER_RMSD>
1.2

> <PUBCHEM_CONFORMER_DIVERSEORDER>
1
121
25
105
32
126
34
67
103
93
140
161
185
77
134
111
160
122
117
107
162
31
125
145
116
104
99
187
59
78
157
149
106
64
190
61
70
138
100
180
165
14
148
41
174
146
176
183
171
159
6
84
178
24
65
129
141
156
193
163
172
152
175
87
80
153
147
164
102
86
143
158
130
137
136
51
28
91
12
135
53
56
85
73
19
88
173
170
97
115
119
96
11
177
83
74
21
9
127
60
112
33
89
191
27
123
142
30
90
20
71
154
62
114
8
18
75
139
166
179
181
54
3
72
10
76
108
63
37
82
13
5
167
17
46
57
42
68
133
79
151
45
94
168
118
150
47
120
48
52
182
29
189
131
95
50
132
2
186
7
16
49
40
98
26
66
55
92
101
69
109
169
43
39
110
155
22
124
128
23
184
38
35
144
44
192
58
188
36
4
81
113
15

> <PUBCHEM_MMFF94_PARTIAL_CHARGES>
32
1 -0.57
10 0.3
16 0.36
17 0.3
18 0.27
19 0.69
2 -0.57
20 0.27
21 0.57
22 0.36
23 0.14
24 0.66
25 -0.14
26 -0.15
27 0.16
28 -0.15
29 0.28
3 -0.43
30 0.16
4 -0.57
43 0.37
5 -0.73
50 0.36
51 0.37
55 0.15
56 0.15
57 0.15
6 -0.66
61 0.15
7 -0.9
8 -0.73
9 -0.62

> <PUBCHEM_EFFECTIVE_ROTOR_COUNT>
12.4

> <PUBCHEM_PHARMACOPHORE_FEATURES>
11
1 1 acceptor
1 2 acceptor
1 4 acceptor
1 5 donor
1 7 cation
1 7 donor
1 8 donor
1 9 acceptor
6 10 11 12 13 14 15 rings
6 6 7 16 17 18 20 rings
6 9 25 26 27 28 30 rings

> <PUBCHEM_HEAVY_ATOM_COUNT>
30

> <PUBCHEM_ATOM_DEF_STEREO_COUNT>
2

> <PUBCHEM_ATOM_UDEF_STEREO_COUNT>
0

> <PUBCHEM_BOND_DEF_STEREO_COUNT>
0

> <PUBCHEM_BOND_UDEF_STEREO_COUNT>
0

> <PUBCHEM_ISOTOPIC_ATOM_COUNT>
0

> <PUBCHEM_COMPONENT_COUNT>
1

> <PUBCHEM_CACTVS_TAUTO_COUNT>
4

> <PUBCHEM_CONFORMER_ID>
048096A500000001

> <PUBCHEM_MMFF94_ENERGY>
57.055

> <PUBCHEM_FEATURE_SELFOVERLAP>
55.822

> <PUBCHEM_SHAPE_FINGERPRINT>
10006869 2 18193855953431151947
11049842 53 18194428648322464062
12107183 9 18335133164213281802
12403260 363 18410288151205136407
12422481 6 17753602443440413386
12633257 1 18335707147531478828
12788726 201 18124888012325303623
12978246 48 18409455756362544265
14466204 15 18263639580611332512
14951699 99 18272645779998920528
15347590 135 17322681133375563722
15420108 30 18123740959915271295
16728300 4 17823126831512943571
17818456 19 18411417353709603826
17974551 9 17241352246649102336
20739085 24 18046919173219587114
21033648 29 18200297819779396344
2132832 1 18194669582738357143
23559900 14 18200326523462670566
469060 322 18268451130279979011
5895379 119 18341904012751895276
6371009 1 18411412896040284269
79837 15 18408612444003567803
9862522 239 18189048699235489879

> <PUBCHEM_SHAPE_MULTIPOLES>
569
10.77
5.55
1.72
5.7
0.91
-0.38
-4.43
-4.66
-3.6
0.79
0.69
-0.7
-3.04

> <PUBCHEM_SHAPE_SELFOVERLAP>
1175.605

> <PUBCHEM_SHAPE_VOLUME>
319.2

> <PUBCHEM_COORDINATE_TYPE>
2
5
10

$$$$
