56774213
  -OEChem-12032416273D

 58 60  0     1  0  0  0  0  0999 V2000
    3.5050   -2.2030   -0.2125 O   0  0  0  0  0  0  0  0  0  0  0  0
   -5.1110    0.1430   -1.4133 O   0  0  0  0  0  0  0  0  0  0  0  0
    6.7009    2.6051   -0.8921 O   0  0  0  0  0  0  0  0  0  0  0  0
   -3.4748    0.8452    0.0731 N   0  0  0  0  0  0  0  0  0  0  0  0
    2.1860   -2.6095   -0.3743 N   0  0  0  0  0  0  0  0  0  0  0  0
   -5.6812    1.3910    0.4602 N   0  0  0  0  0  0  0  0  0  0  0  0
    5.1192    0.6466    0.4360 N   0  0  0  0  0  0  0  0  0  0  0  0
   -2.2254   -1.2889   -0.5477 C   0  0  0  0  0  0  0  0  0  0  0  0
   -0.7024   -1.0970   -0.3917 C   0  0  1  0  0  0  0  0  0  0  0  0
   -2.3332    0.2480   -0.6312 C   0  0  2  0  0  0  0  0  0  0  0  0
   -1.0141    0.3072    0.1668 C   0  0  0  0  0  0  0  0  0  0  0  0
    0.0276   -2.0310    0.5826 C   0  0  0  0  0  0  0  0  0  0  0  0
   -2.8794   -1.9414    0.6502 C   0  0  0  0  0  0  0  0  0  0  0  0
   -2.6783   -1.9799   -1.8209 C   0  0  0  0  0  0  0  0  0  0  0  0
    1.4866   -1.8640    0.4862 C   0  0  0  0  0  0  0  0  0  0  0  0
   -4.7893    0.7394   -0.3862 C   0  0  0  0  0  0  0  0  0  0  0  0
    2.3027   -0.9782    1.2108 C   0  0  0  0  0  0  0  0  0  0  0  0
    3.5616   -1.2314    0.7339 C   0  0  0  0  0  0  0  0  0  0  0  0
    4.9247   -0.6699    1.0400 C   0  0  0  0  0  0  0  0  0  0  0  0
   -7.1028    1.4317    0.2118 C   0  0  0  0  0  0  0  0  0  0  0  0
    5.4603    0.5221   -0.9879 C   0  0  0  0  0  0  0  0  0  0  0  0
    6.1690    1.3944    1.1418 C   0  0  0  0  0  0  0  0  0  0  0  0
   -7.7892    0.2217    0.8331 C   0  0  0  0  0  0  0  0  0  0  0  0
   -7.6952    2.7327    0.7378 C   0  0  0  0  0  0  0  0  0  0  0  0
    5.6709    1.9070   -1.5932 C   0  0  0  0  0  0  0  0  0  0  0  0
    6.3617    2.7590    0.4865 C   0  0  0  0  0  0  0  0  0  0  0  0
   -0.1991   -1.0563   -1.3705 H   0  0  0  0  0  0  0  0  0  0  0  0
   -2.2273    0.6630   -1.6424 H   0  0  0  0  0  0  0  0  0  0  0  0
   -1.1313    0.3626    1.2558 H   0  0  0  0  0  0  0  0  0  0  0  0
   -0.3185    1.0935   -0.1419 H   0  0  0  0  0  0  0  0  0  0  0  0
   -0.2235   -3.0719    0.3400 H   0  0  0  0  0  0  0  0  0  0  0  0
   -0.2963   -1.8677    1.6173 H   0  0  0  0  0  0  0  0  0  0  0  0
   -2.5972   -2.9969    0.7367 H   0  0  0  0  0  0  0  0  0  0  0  0
   -2.6276   -1.4539    1.5982 H   0  0  0  0  0  0  0  0  0  0  0  0
   -3.9724   -1.9199    0.5667 H   0  0  0  0  0  0  0  0  0  0  0  0
   -2.2575   -1.5038   -2.7135 H   0  0  0  0  0  0  0  0  0  0  0  0
   -2.3540   -3.0268   -1.8304 H   0  0  0  0  0  0  0  0  0  0  0  0
   -3.7674   -1.9736   -1.9243 H   0  0  0  0  0  0  0  0  0  0  0  0
   -3.3263    1.3692    0.9315 H   0  0  0  0  0  0  0  0  0  0  0  0
    2.0199   -0.2606    1.9667 H   0  0  0  0  0  0  0  0  0  0  0  0
   -5.3260    1.7889    1.3244 H   0  0  0  0  0  0  0  0  0  0  0  0
    5.7099   -1.3789    0.7474 H   0  0  0  0  0  0  0  0  0  0  0  0
    4.9771   -0.5920    2.1347 H   0  0  0  0  0  0  0  0  0  0  0  0
   -7.2608    1.3955   -0.8729 H   0  0  0  0  0  0  0  0  0  0  0  0
    4.6579    0.0213   -1.5407 H   0  0  0  0  0  0  0  0  0  0  0  0
    6.3776   -0.0686   -1.1108 H   0  0  0  0  0  0  0  0  0  0  0  0
    7.1148    0.8376    1.1146 H   0  0  0  0  0  0  0  0  0  0  0  0
    5.8921    1.5449    2.1916 H   0  0  0  0  0  0  0  0  0  0  0  0
   -7.6453    0.1984    1.9192 H   0  0  0  0  0  0  0  0  0  0  0  0
   -7.3817   -0.7110    0.4280 H   0  0  0  0  0  0  0  0  0  0  0  0
   -8.8653    0.2353    0.6314 H   0  0  0  0  0  0  0  0  0  0  0  0
   -7.5589    2.8233    1.8213 H   0  0  0  0  0  0  0  0  0  0  0  0
   -7.2093    3.5968    0.2714 H   0  0  0  0  0  0  0  0  0  0  0  0
   -8.7673    2.7902    0.5230 H   0  0  0  0  0  0  0  0  0  0  0  0
    5.9846    1.8135   -2.6378 H   0  0  0  0  0  0  0  0  0  0  0  0
    4.7488    2.5007   -1.5757 H   0  0  0  0  0  0  0  0  0  0  0  0
    5.4628    3.3813    0.5753 H   0  0  0  0  0  0  0  0  0  0  0  0
    7.1837    3.2934    0.9735 H   0  0  0  0  0  0  0  0  0  0  0  0
  1  5  1  0  0  0  0
  1 18  1  0  0  0  0
  2 16  2  0  0  0  0
  3 25  1  0  0  0  0
  3 26  1  0  0  0  0
  4 10  1  0  0  0  0
  4 16  1  0  0  0  0
  4 39  1  0  0  0  0
  5 15  2  0  0  0  0
  6 16  1  0  0  0  0
  6 20  1  0  0  0  0
  6 41  1  0  0  0  0
  7 19  1  0  0  0  0
  7 21  1  0  0  0  0
  7 22  1  0  0  0  0
  8  9  1  0  0  0  0
  8 10  1  0  0  0  0
  8 13  1  0  0  0  0
  8 14  1  0  0  0  0
  9 11  1  0  0  0  0
  9 12  1  0  0  0  0
  9 27  1  0  0  0  0
 10 11  1  0  0  0  0
 10 28  1  0  0  0  0
 11 29  1  0  0  0  0
 11 30  1  0  0  0  0
 12 15  1  0  0  0  0
 12 31  1  0  0  0  0
 12 32  1  0  0  0  0
 13 33  1  0  0  0  0
 13 34  1  0  0  0  0
 13 35  1  0  0  0  0
 14 36  1  0  0  0  0
 14 37  1  0  0  0  0
 14 38  1  0  0  0  0
 15 17  1  0  0  0  0
 17 18  2  0  0  0  0
 17 40  1  0  0  0  0
 18 19  1  0  0  0  0
 19 42  1  0  0  0  0
 19 43  1  0  0  0  0
 20 23  1  0  0  0  0
 20 24  1  0  0  0  0
 20 44  1  0  0  0  0
 21 25  1  0  0  0  0
 21 45  1  0  0  0  0
 21 46  1  0  0  0  0
 22 26  1  0  0  0  0
 22 47  1  0  0  0  0
 22 48  1  0  0  0  0
 23 49  1  0  0  0  0
 23 50  1  0  0  0  0
 23 51  1  0  0  0  0
 24 52  1  0  0  0  0
 24 53  1  0  0  0  0
 24 54  1  0  0  0  0
 25 55  1  0  0  0  0
 25 56  1  0  0  0  0
 26 57  1  0  0  0  0
 26 58  1  0  0  0  0
M  END
> <PUBCHEM_COMPOUND_CID>
56774213

> <PUBCHEM_CONFORMER_RMSD>
1.2

> <PUBCHEM_CONFORMER_DIVERSEORDER>
1
33
43
58
5
69
8
94
119
72
51
111
38
97
123
101
106
54
81
50
35
80
18
125
59
110
52
15
36
55
102
25
117
11
49
87
86
99
68
32
70
34
2
66
10
92
90
93
114
121
13
31
104
63
74
122
41
39
75
124
115
98
48
116
29
77
53
42
112
45
56
61
64
71
60
120
46
85
107
20
12
76
28
95
126
84
23
37
16
7
79
96
57
73
40
22
47
62
30
17
44
105
118
82
78
113
14
91
83
67
108
9
89
27
21
88
100
109
6
26
4
103
3
24
19
65

> <PUBCHEM_MMFF94_PARTIAL_CHARGES>
22
1 -0.02
10 0.22
12 0.18
15 0.11
16 0.69
17 -0.15
18 -0.04
19 0.45
2 -0.57
20 0.3
21 0.27
22 0.27
25 0.28
26 0.28
3 -0.56
39 0.37
4 -0.65
40 0.15
41 0.37
5 -0.41
6 -0.73
7 -0.81

> <PUBCHEM_EFFECTIVE_ROTOR_COUNT>
10

> <PUBCHEM_PHARMACOPHORE_FEATURES>
11
1 2 acceptor
1 3 acceptor
1 4 donor
1 5 acceptor
1 6 donor
1 7 cation
3 20 23 24 hydrophobe
3 8 13 14 hydrophobe
4 8 9 10 11 rings
5 1 5 15 17 18 rings
6 3 7 21 22 25 26 rings

> <PUBCHEM_HEAVY_ATOM_COUNT>
26

> <PUBCHEM_ATOM_DEF_STEREO_COUNT>
2

> <PUBCHEM_ATOM_UDEF_STEREO_COUNT>
0

> <PUBCHEM_BOND_DEF_STEREO_COUNT>
0

> <PUBCHEM_BOND_UDEF_STEREO_COUNT>
0

> <PUBCHEM_ISOTOPIC_ATOM_COUNT>
0

> <PUBCHEM_COMPONENT_COUNT>
1

> <PUBCHEM_CACTVS_TAUTO_COUNT>
3

> <PUBCHEM_CONFORMER_ID>
03624E4500000001

> <PUBCHEM_MMFF94_ENERGY>
40.8661

> <PUBCHEM_FEATURE_SELFOVERLAP>
55.87

> <PUBCHEM_SHAPE_FINGERPRINT>
10 15 17385725802629831577
10066227 49 9655283836084465201
10319688 67 16370730348595559585
10554248 39 18128519488699225799
10693767 8 10591756558792453389
10906281 52 18273218569489989535
10981352 41 11386362652078404416
11273773 42 18411416254050367981
125118 31 18335984143438145673
12539765 74 17987805099379382103
13862211 1 7853563639508335115
13914758 101 11527956647117059891
13955234 65 17823972343059836586
14251757 52 18341051826826844353
14251764 18 18408321099586700879
14251764 75 18409446977222810739
14394314 77 18262799691600098140
14461889 52 17676777530224809427
14537116 161 17346314873416149137
14565420 104 18040434356428289739
14849402 71 18411984676678997201
14919807 6 12607136050412133649
15183329 4 13470692541941890787
15188451 53 11169907294953568038
15475509 8 14692575407791075715
15519825 34 15357986723780223609
155225 6 18115597092306374900
15685185 35 18191311670312736396
15840311 113 18336268925623628997
16126227 98 18411138061035287187
16760501 71 18186805794067167213
17980427 23 18040997392270585311
20567600 234 16732988630246524550
20691028 202 18409448115515484912
21298829 104 18409728499897926836
21304304 249 8574715715185582336
21315764 119 13830127295820243849
21344244 78 14562533964118966694
21682296 61 9799691519653185461
22224240 67 18041563530281574003
23389318 12 18339633526237379111
2838139 119 18187631540885856612
29717793 49 12823286905731784330
3014063 24 9151175350580860216
3472631 163 18343302587157736732
3610482 184 17774713204522777063
3711267 37 17846222120557456993
397830 11 17749685055567542555
406291 66 9079117752053299265
4169191 19 18410291368690119941
4258327 124 18341334470181839267
4340502 62 16805605828400575139
4403749 210 18187365420908177515
44317340 157 18342744009597638862
444735 82 18262241015207409165
445580 126 18409158914472779712
474113 269 8214150629526679121
5104073 3 17821441383319700986
54583773 228 18339918308380774365
57307002 182 15936700353680980686
59682541 35 17894638054740495953
59682541 52 16702029647621651604
6438161 24 10519983738460966828
6898599 12 18130219488152191166

> <PUBCHEM_SHAPE_MULTIPOLES>
497.54
22.19
3.1
1.3
12.05
0.56
0.34
22.62
-2.29
-1.83
0.04
-0.62
-0.02
-1.97

> <PUBCHEM_SHAPE_SELFOVERLAP>
1020.1

> <PUBCHEM_SHAPE_VOLUME>
289.7

> <PUBCHEM_COORDINATE_TYPE>
2
5
10

$$$$
