75536948
  -OEChem-12032416303D

 36 37  0     1  0  0  0  0  0999 V2000
    3.3786    1.8096    0.7145 O   0  0  0  0  0  0  0  0  0  0  0  0
    4.8200   -0.7412   -1.3764 O   0  0  0  0  0  0  0  0  0  0  0  0
   -4.8469    0.6172   -0.0341 O   0  0  0  0  0  0  0  0  0  0  0  0
    1.3976   -0.5166    0.0901 N   0  0  2  0  0  0  0  0  0  0  0  0
    2.6152   -1.0919   -0.4917 C   0  0  0  0  0  0  0  0  0  0  0  0
    3.9195   -0.2889   -0.3643 C   0  0  2  0  0  0  0  0  0  0  0  0
    1.6107    0.2029    1.3468 C   0  0  0  0  0  0  0  0  0  0  0  0
    0.3711   -1.5499    0.2318 C   0  0  0  0  0  0  0  0  0  0  0  0
    3.7489    1.2157   -0.5252 C   0  0  0  0  0  0  0  0  0  0  0  0
    2.0091    1.6508    1.0577 C   0  0  0  0  0  0  0  0  0  0  0  0
   -1.0181   -0.9736    0.1611 C   0  0  0  0  0  0  0  0  0  0  0  0
   -1.8999   -1.1451    1.2283 C   0  0  0  0  0  0  0  0  0  0  0  0
   -1.4230   -0.2675   -0.9716 C   0  0  0  0  0  0  0  0  0  0  0  0
   -3.1866   -0.6108    1.1626 C   0  0  0  0  0  0  0  0  0  0  0  0
   -2.7097    0.2667   -1.0374 C   0  0  0  0  0  0  0  0  0  0  0  0
   -3.5916    0.0951    0.0296 C   0  0  0  0  0  0  0  0  0  0  0  0
   -5.1949    1.3274   -1.2218 C   0  0  0  0  0  0  0  0  0  0  0  0
    2.4213   -1.2796   -1.5567 H   0  0  0  0  0  0  0  0  0  0  0  0
    2.8144   -2.0820   -0.0561 H   0  0  0  0  0  0  0  0  0  0  0  0
    4.3828   -0.4977    0.6079 H   0  0  0  0  0  0  0  0  0  0  0  0
    2.3468   -0.3028    1.9832 H   0  0  0  0  0  0  0  0  0  0  0  0
    0.6785    0.2545    1.9222 H   0  0  0  0  0  0  0  0  0  0  0  0
    0.5222   -2.1353    1.1487 H   0  0  0  0  0  0  0  0  0  0  0  0
    0.4332   -2.2735   -0.5938 H   0  0  0  0  0  0  0  0  0  0  0  0
    4.7076    1.6635   -0.8116 H   0  0  0  0  0  0  0  0  0  0  0  0
    3.0395    1.4777   -1.3198 H   0  0  0  0  0  0  0  0  0  0  0  0
    1.8546    2.2380    1.9700 H   0  0  0  0  0  0  0  0  0  0  0  0
    1.3744    2.1050    0.2864 H   0  0  0  0  0  0  0  0  0  0  0  0
    4.9524   -1.6956   -1.2448 H   0  0  0  0  0  0  0  0  0  0  0  0
   -1.5976   -1.6918    2.1174 H   0  0  0  0  0  0  0  0  0  0  0  0
   -0.7481   -0.1307   -1.8126 H   0  0  0  0  0  0  0  0  0  0  0  0
   -3.8690   -0.7472    1.9971 H   0  0  0  0  0  0  0  0  0  0  0  0
   -2.9590    0.8026   -1.9468 H   0  0  0  0  0  0  0  0  0  0  0  0
   -6.2269    1.6728   -1.1010 H   0  0  0  0  0  0  0  0  0  0  0  0
   -5.1773    0.6743   -2.1009 H   0  0  0  0  0  0  0  0  0  0  0  0
   -4.5729    2.2191   -1.3543 H   0  0  0  0  0  0  0  0  0  0  0  0
  1  9  1  0  0  0  0
  1 10  1  0  0  0  0
  2  6  1  0  0  0  0
  2 29  1  0  0  0  0
  3 16  1  0  0  0  0
  3 17  1  0  0  0  0
  4  5  1  0  0  0  0
  4  7  1  0  0  0  0
  4  8  1  0  0  0  0
  5  6  1  0  0  0  0
  5 18  1  0  0  0  0
  5 19  1  0  0  0  0
  6  9  1  0  0  0  0
  6 20  1  0  0  0  0
  7 10  1  0  0  0  0
  7 21  1  0  0  0  0
  7 22  1  0  0  0  0
  8 11  1  0  0  0  0
  8 23  1  0  0  0  0
  8 24  1  0  0  0  0
  9 25  1  0  0  0  0
  9 26  1  0  0  0  0
 10 27  1  0  0  0  0
 10 28  1  0  0  0  0
 11 12  2  0  0  0  0
 11 13  1  0  0  0  0
 12 14  1  0  0  0  0
 12 30  1  0  0  0  0
 13 15  2  0  0  0  0
 13 31  1  0  0  0  0
 14 16  2  0  0  0  0
 14 32  1  0  0  0  0
 15 16  1  0  0  0  0
 15 33  1  0  0  0  0
 17 34  1  0  0  0  0
 17 35  1  0  0  0  0
 17 36  1  0  0  0  0
M  END
> <PUBCHEM_COMPOUND_CID>
75536948

> <PUBCHEM_CONFORMER_RMSD>
0.6

> <PUBCHEM_CONFORMER_DIVERSEORDER>
1
31
59
13
55
62
57
7
4
53
24
52
37
30
40
14
63
47
38
33
34
22
50
48
54
8
51
2
25
49
44
39
42
28
17
20
9
19
41
26
11
35
58
3
27
21
5
61
32
60
6
46
45
56
12
23
43
36
16
29
18
15
10

> <PUBCHEM_MMFF94_PARTIAL_CHARGES>
22
1 -0.56
10 0.28
11 -0.14
12 -0.15
13 -0.15
14 -0.15
15 -0.15
16 0.08
17 0.28
2 -0.68
29 0.4
3 -0.36
30 0.15
31 0.15
32 0.15
33 0.15
4 -0.81
5 0.27
6 0.28
7 0.27
8 0.41
9 0.28

> <PUBCHEM_EFFECTIVE_ROTOR_COUNT>
4.4

> <PUBCHEM_PHARMACOPHORE_FEATURES>
7
1 1 acceptor
1 2 acceptor
1 2 donor
1 3 acceptor
1 4 cation
6 11 12 13 14 15 16 rings
7 1 4 5 6 7 9 10 rings

> <PUBCHEM_HEAVY_ATOM_COUNT>
17

> <PUBCHEM_ATOM_DEF_STEREO_COUNT>
1

> <PUBCHEM_ATOM_UDEF_STEREO_COUNT>
0

> <PUBCHEM_BOND_DEF_STEREO_COUNT>
0

> <PUBCHEM_BOND_UDEF_STEREO_COUNT>
0

> <PUBCHEM_ISOTOPIC_ATOM_COUNT>
0

> <PUBCHEM_COMPONENT_COUNT>
1

> <PUBCHEM_CACTVS_TAUTO_COUNT>
1

> <PUBCHEM_CONFORMER_ID>
04809A3400000001

> <PUBCHEM_MMFF94_ENERGY>
58.0264

> <PUBCHEM_FEATURE_SELFOVERLAP>
35.522

> <PUBCHEM_SHAPE_FINGERPRINT>
10498660 4 18187359935190545893
11471102 20 18202568388863395122
11543360 7 17917135179041059375
11595378 159 15068897508640395701
12236239 1 16487257651131171967
12363563 72 11815616423477423023
12500047 106 18259705609865054803
12730499 353 18410016524688993443
12892183 10 12540690376106031087
12969540 114 18261657217661406015
13134695 92 17775288270526458720
13764800 53 17894911841013687329
14252887 29 8358261457835935900
14341114 328 14851608790632697869
16752209 62 14764347115941997879
18186145 218 18342745143326300674
19050596 39 14996279244970653368
192875 21 16200432468030027456
19784866 170 17022907817957325931
19862831 5 17132113563042696291
200 152 16558750105104013619
20645476 183 17203602684221455543
20645477 70 17917721214248693238
20671657 53 14261346959887872179
212847 35 18113614552206915034
21503847 285 17168151165071814628
221357 26 18201998785753009349
22224240 67 11458720438433327084
22289505 5 18342172207294360948
231179 274 18409727374235985536
23402655 69 17988926686421549712
23557571 272 17968392216157367723
23559900 14 17676770868535632914
25 1 18341896303101236066
251288 83 8214148460483759040
3009799 131 18342742897759771638
3060560 45 17846777386755986190
3082319 5 16486975132498325570
4028521 119 18409726245034353729
633830 44 18409721885188731463
74978 22 17131550664729187346
90316 7 15430025553058490775
9882013 296 13190335790263504538
9971528 1 17418375771100883706

> <PUBCHEM_SHAPE_MULTIPOLES>
327.26
10.03
1.59
1.33
2.75
0.26
-0.11
3.95
2.73
-0.2
-0.2
-0.31
0.11
1.53

> <PUBCHEM_SHAPE_SELFOVERLAP>
672.42

> <PUBCHEM_SHAPE_VOLUME>
187.3

> <PUBCHEM_COORDINATE_TYPE>
2
5
10

$$$$
