75367086
  -OEChem-12032416393D

 43 45  0     1  0  0  0  0  0999 V2000
    7.1324    1.8096    0.3546 F   0  0  0  0  0  0  0  0  0  0  0  0
   -1.0895    0.7311   -0.3536 O   0  0  0  0  0  0  0  0  0  0  0  0
   -2.3984   -2.5456    0.3214 O   0  0  0  0  0  0  0  0  0  0  0  0
    2.2196   -2.1392    0.5511 O   0  0  0  0  0  0  0  0  0  0  0  0
   -4.5657   -0.3248   -0.1750 N   0  0  0  0  0  0  0  0  0  0  0  0
    1.3957   -0.5835   -0.9602 N   0  0  0  0  0  0  0  0  0  0  0  0
   -5.3781    0.5747    0.6311 C   0  0  0  0  0  0  0  0  0  0  0  0
   -3.1765   -0.2329    0.2437 C   0  0  1  0  0  0  0  0  0  0  0  0
   -6.8618    0.1635    0.5137 C   0  0  0  0  0  0  0  0  0  0  0  0
   -5.7346    1.8243   -0.2030 C   0  0  0  0  0  0  0  0  0  0  0  0
   -7.1741    1.6671    0.3381 C   0  0  0  0  0  0  0  0  0  0  0  0
   -2.2879   -1.3079   -0.3542 C   0  0  1  0  0  0  0  0  0  0  0  0
   -0.9107   -0.6838   -0.1741 C   0  0  1  0  0  0  0  0  0  0  0  0
   -2.4923    1.0315   -0.2496 C   0  0  0  0  0  0  0  0  0  0  0  0
    0.1171   -1.2011   -1.1646 C   0  0  0  0  0  0  0  0  0  0  0  0
    2.3590   -1.1106   -0.1055 C   0  0  0  0  0  0  0  0  0  0  0  0
    3.6218   -0.3374    0.0164 C   0  0  0  0  0  0  0  0  0  0  0  0
    4.3805   -0.4210    1.1840 C   0  0  0  0  0  0  0  0  0  0  0  0
    4.0491    0.4714   -1.0366 C   0  0  0  0  0  0  0  0  0  0  0  0
    5.5662    0.3044    1.2986 C   0  0  0  0  0  0  0  0  0  0  0  0
    5.2348    1.1969   -0.9220 C   0  0  0  0  0  0  0  0  0  0  0  0
    5.9934    1.1134    0.2456 C   0  0  0  0  0  0  0  0  0  0  0  0
   -5.0632    0.7654    1.6640 H   0  0  0  0  0  0  0  0  0  0  0  0
   -3.1029   -0.3049    1.3383 H   0  0  0  0  0  0  0  0  0  0  0  0
   -7.2962   -0.3036    1.4019 H   0  0  0  0  0  0  0  0  0  0  0  0
   -7.1300   -0.4344   -0.3665 H   0  0  0  0  0  0  0  0  0  0  0  0
   -5.6707    1.7113   -1.2925 H   0  0  0  0  0  0  0  0  0  0  0  0
   -5.2270    2.7487    0.0859 H   0  0  0  0  0  0  0  0  0  0  0  0
   -7.9760    1.9086   -0.3639 H   0  0  0  0  0  0  0  0  0  0  0  0
   -7.3517    2.1951    1.2821 H   0  0  0  0  0  0  0  0  0  0  0  0
   -2.5161   -1.4632   -1.4161 H   0  0  0  0  0  0  0  0  0  0  0  0
   -4.8580   -1.2997   -0.0991 H   0  0  0  0  0  0  0  0  0  0  0  0
   -0.5448   -0.8393    0.8494 H   0  0  0  0  0  0  0  0  0  0  0  0
   -2.6317    1.8794    0.4278 H   0  0  0  0  0  0  0  0  0  0  0  0
   -2.8309    1.3271   -1.2493 H   0  0  0  0  0  0  0  0  0  0  0  0
   -0.1805   -0.9577   -2.1905 H   0  0  0  0  0  0  0  0  0  0  0  0
    0.2208   -2.2883   -1.0817 H   0  0  0  0  0  0  0  0  0  0  0  0
   -2.1951   -2.4004    1.2610 H   0  0  0  0  0  0  0  0  0  0  0  0
    1.5481    0.3081   -1.4191 H   0  0  0  0  0  0  0  0  0  0  0  0
    4.0624   -1.0421    2.0172 H   0  0  0  0  0  0  0  0  0  0  0  0
    3.5050    0.5407   -1.9737 H   0  0  0  0  0  0  0  0  0  0  0  0
    6.1569    0.2405    2.2077 H   0  0  0  0  0  0  0  0  0  0  0  0
    5.5718    1.8216   -1.7440 H   0  0  0  0  0  0  0  0  0  0  0  0
  1 22  1  0  0  0  0
  2 13  1  0  0  0  0
  2 14  1  0  0  0  0
  3 12  1  0  0  0  0
  3 38  1  0  0  0  0
  4 16  2  0  0  0  0
  5  7  1  0  0  0  0
  5  8  1  0  0  0  0
  5 32  1  0  0  0  0
  6 15  1  0  0  0  0
  6 16  1  0  0  0  0
  6 39  1  0  0  0  0
  7  9  1  0  0  0  0
  7 10  1  0  0  0  0
  7 23  1  0  0  0  0
  8 12  1  0  0  0  0
  8 14  1  0  0  0  0
  8 24  1  0  0  0  0
  9 11  1  0  0  0  0
  9 25  1  0  0  0  0
  9 26  1  0  0  0  0
 10 11  1  0  0  0  0
 10 27  1  0  0  0  0
 10 28  1  0  0  0  0
 11 29  1  0  0  0  0
 11 30  1  0  0  0  0
 12 13  1  0  0  0  0
 12 31  1  0  0  0  0
 13 15  1  0  0  0  0
 13 33  1  0  0  0  0
 14 34  1  0  0  0  0
 14 35  1  0  0  0  0
 15 36  1  0  0  0  0
 15 37  1  0  0  0  0
 16 17  1  0  0  0  0
 17 18  2  0  0  0  0
 17 19  1  0  0  0  0
 18 20  1  0  0  0  0
 18 40  1  0  0  0  0
 19 21  2  0  0  0  0
 19 41  1  0  0  0  0
 20 22  2  0  0  0  0
 20 42  1  0  0  0  0
 21 22  1  0  0  0  0
 21 43  1  0  0  0  0
M  END
> <PUBCHEM_COMPOUND_CID>
75367086

> <PUBCHEM_CONFORMER_RMSD>
0.8

> <PUBCHEM_CONFORMER_DIVERSEORDER>
1
61
43
74
27
56
55
60
91
35
76
36
92
68
81
5
80
79
45
38
34
59
9
77
66
16
57
73
52
47
48
93
14
63
87
88
54
32
62
83
94
46
71
75
7
67
85
86
97
4
40
28
58
21
51
17
96
33
89
8
2
22
10
82
95
65
69
41
53
30
29
49
25
13
18
31
90
15
26
78
37
39
70
20
24
64
44
84
72
19
50
11
23
6
3
42
12

> <PUBCHEM_MMFF94_PARTIAL_CHARGES>
26
1 -0.19
12 0.28
13 0.28
14 0.28
15 0.3
16 0.54
17 0.09
18 -0.15
19 -0.15
2 -0.56
20 -0.15
21 -0.15
22 0.19
3 -0.68
32 0.36
38 0.4
39 0.37
4 -0.57
40 0.15
41 0.15
42 0.15
43 0.15
5 -0.84
6 -0.73
7 0.21
8 0.27

> <PUBCHEM_EFFECTIVE_ROTOR_COUNT>
7.8

> <PUBCHEM_PHARMACOPHORE_FEATURES>
10
1 2 acceptor
1 3 acceptor
1 3 donor
1 4 acceptor
1 5 cation
1 5 donor
1 6 donor
4 7 9 10 11 rings
5 2 8 12 13 14 rings
6 17 18 19 20 21 22 rings

> <PUBCHEM_HEAVY_ATOM_COUNT>
22

> <PUBCHEM_ATOM_DEF_STEREO_COUNT>
3

> <PUBCHEM_ATOM_UDEF_STEREO_COUNT>
0

> <PUBCHEM_BOND_DEF_STEREO_COUNT>
0

> <PUBCHEM_BOND_UDEF_STEREO_COUNT>
0

> <PUBCHEM_ISOTOPIC_ATOM_COUNT>
0

> <PUBCHEM_COMPONENT_COUNT>
1

> <PUBCHEM_CACTVS_TAUTO_COUNT>
2

> <PUBCHEM_CONFORMER_ID>
047E02AE00000001

> <PUBCHEM_MMFF94_ENERGY>
54.836

> <PUBCHEM_FEATURE_SELFOVERLAP>
50.747

> <PUBCHEM_SHAPE_FINGERPRINT>
10 15 18259988179836483449
10354089 29 17822009822652321260
10670039 82 16845302596615936288
10693767 8 11599466671791418044
10730089 47 9007049158935896433
10753850 27 8286203842518402276
10906281 52 18200609037689012773
11724838 91 18260266381974138207
117890 112 18411983546495163527
125118 31 18339362951202226753
12596602 18 17748829596755832753
12616971 3 16660645202067258654
12760667 363 7853853888992559301
12788726 201 17703231702637412753
12954195 1 9222964651350694751
13533116 47 18266462009764698726
13668630 136 9007062365891864032
13673619 4 11386369240252144831
13685833 64 11891333153742467820
13782708 43 11458431249658520105
13862211 1 7997963570999521177
14123256 34 8070024484614743221
14251764 18 18260268568856225189
14341114 176 18040431075800800714
14341114 328 18186798102192118898
14347332 77 10087650273156297843
14528608 73 15985099700168085623
15048467 5 18342739611265803625
15183329 4 11672067440929519461
15188451 53 12612749120847034612
15348495 7 16009041621734808745
15510800 12 12613303223822656264
17980427 23 18335419118651147743
19784866 240 7925912594894338455
20281389 69 18409167692884746417
20526848 3 18343304777338207024
21033648 29 17774145920905051954
21150785 3 15267337427535637397
21267235 1 9799687109011857981
21637258 2 12396302573502554007
221357 26 14405187253098279202
22224240 67 17676486172607380490
23198884 109 14692573213173316193
23559900 14 18269294386082779295
2767999 5 18202281386079327081
2916195 48 18341612582341620865
29717793 49 10952052264681812570
300161 21 18413388726735026055
312425 54 16805042917159602473
3472631 163 18059575836551223524
351380 3 8430319030515227680
4340502 62 17385725776807482130
465052 167 10953743291990249432
5104073 3 17749950089230076450
5718773 13 8430328930737027216
59682541 35 18339934788128188667
59682541 52 14620801487842888140
59755656 215 9295291633963430625
6438161 24 10951772945995352316

> <PUBCHEM_SHAPE_MULTIPOLES>
417.91
19.79
1.89
1.02
6.15
0.39
0.02
-12.81
4.31
0.4
0.02
-1.07
0.02
-0.25

> <PUBCHEM_SHAPE_SELFOVERLAP>
879.822

> <PUBCHEM_SHAPE_VOLUME>
237.6

> <PUBCHEM_COORDINATE_TYPE>
2
5
10

$$$$
