26744411
  -OEChem-12032416193D

 39 41  0     1  0  0  0  0  0999 V2000
    6.2536    0.7191   -1.1199 F   0  0  0  0  0  0  0  0  0  0  0  0
   -4.9661   -1.6216   -1.8402 O   0  0  0  0  0  0  0  0  0  0  0  0
   -0.4942   -1.4578    1.6902 O   0  0  0  0  0  0  0  0  0  0  0  0
   -2.8497    0.6964   -0.1318 N   0  0  1  0  0  0  0  0  0  0  0  0
    0.0165   -0.1368   -0.0449 N   0  0  0  0  0  0  0  0  0  0  0  0
    0.9046   -1.4076    1.6375 N   0  0  0  0  0  0  0  0  0  0  0  0
   -2.4390   -0.5715    0.5048 C   0  0  1  0  0  0  0  0  0  0  0  0
   -3.0252   -1.6732   -0.3977 C   0  0  0  0  0  0  0  0  0  0  0  0
   -3.7855   -0.9274   -1.4873 C   0  0  2  0  0  0  0  0  0  0  0  0
   -4.0906    0.4155   -0.8513 C   0  0  0  0  0  0  0  0  0  0  0  0
   -3.0017    1.7923    0.8164 C   0  0  0  0  0  0  0  0  0  0  0  0
   -0.9375   -0.6835    0.6654 C   0  0  0  0  0  0  0  0  0  0  0  0
   -3.4358    3.0630    0.0912 C   0  0  0  0  0  0  0  0  0  0  0  0
   -1.6866    2.0073    1.5590 C   0  0  0  0  0  0  0  0  0  0  0  0
    1.1284   -0.6098    0.5890 C   0  0  0  0  0  0  0  0  0  0  0  0
    2.4499   -0.2672    0.1484 C   0  0  0  0  0  0  0  0  0  0  0  0
    3.5363   -1.0596    0.5196 C   0  0  0  0  0  0  0  0  0  0  0  0
    2.6485    0.8583   -0.6514 C   0  0  0  0  0  0  0  0  0  0  0  0
    4.8211   -0.7264    0.0912 C   0  0  0  0  0  0  0  0  0  0  0  0
    3.9333    1.1915   -1.0798 C   0  0  0  0  0  0  0  0  0  0  0  0
    5.0196    0.3991   -0.7085 C   0  0  0  0  0  0  0  0  0  0  0  0
   -2.9066   -0.6763    1.4943 H   0  0  0  0  0  0  0  0  0  0  0  0
   -2.2618   -2.3212   -0.8434 H   0  0  0  0  0  0  0  0  0  0  0  0
   -3.7005   -2.3173    0.1793 H   0  0  0  0  0  0  0  0  0  0  0  0
   -3.1607   -0.8029   -2.3803 H   0  0  0  0  0  0  0  0  0  0  0  0
   -4.3136    1.1525   -1.6297 H   0  0  0  0  0  0  0  0  0  0  0  0
   -4.9621    0.3423   -0.1872 H   0  0  0  0  0  0  0  0  0  0  0  0
   -3.7724    1.5554    1.5626 H   0  0  0  0  0  0  0  0  0  0  0  0
   -2.7581    3.3070   -0.7349 H   0  0  0  0  0  0  0  0  0  0  0  0
   -4.4527    2.9874   -0.3070 H   0  0  0  0  0  0  0  0  0  0  0  0
   -3.4339    3.9164    0.7789 H   0  0  0  0  0  0  0  0  0  0  0  0
   -0.8429    2.1586    0.8777 H   0  0  0  0  0  0  0  0  0  0  0  0
   -1.4611    1.2120    2.2744 H   0  0  0  0  0  0  0  0  0  0  0  0
   -1.7542    2.9210    2.1635 H   0  0  0  0  0  0  0  0  0  0  0  0
   -4.7025   -2.4982   -2.1680 H   0  0  0  0  0  0  0  0  0  0  0  0
    3.4151   -1.9467    1.1364 H   0  0  0  0  0  0  0  0  0  0  0  0
    1.8206    1.4962   -0.9515 H   0  0  0  0  0  0  0  0  0  0  0  0
    5.6673   -1.3435    0.3787 H   0  0  0  0  0  0  0  0  0  0  0  0
    4.0888    2.0683   -1.7015 H   0  0  0  0  0  0  0  0  0  0  0  0
  1 21  1  0  0  0  0
  2  9  1  0  0  0  0
  2 35  1  0  0  0  0
  3  6  1  0  0  0  0
  3 12  1  0  0  0  0
  4  7  1  0  0  0  0
  4 10  1  0  0  0  0
  4 11  1  0  0  0  0
  5 12  2  0  0  0  0
  5 15  1  0  0  0  0
  6 15  2  0  0  0  0
  7  8  1  0  0  0  0
  7 12  1  0  0  0  0
  7 22  1  0  0  0  0
  8  9  1  0  0  0  0
  8 23  1  0  0  0  0
  8 24  1  0  0  0  0
  9 10  1  0  0  0  0
  9 25  1  0  0  0  0
 10 26  1  0  0  0  0
 10 27  1  0  0  0  0
 11 13  1  0  0  0  0
 11 14  1  0  0  0  0
 11 28  1  0  0  0  0
 13 29  1  0  0  0  0
 13 30  1  0  0  0  0
 13 31  1  0  0  0  0
 14 32  1  0  0  0  0
 14 33  1  0  0  0  0
 14 34  1  0  0  0  0
 15 16  1  0  0  0  0
 16 17  2  0  0  0  0
 16 18  1  0  0  0  0
 17 19  1  0  0  0  0
 17 36  1  0  0  0  0
 18 20  2  0  0  0  0
 18 37  1  0  0  0  0
 19 21  2  0  0  0  0
 19 38  1  0  0  0  0
 20 21  1  0  0  0  0
 20 39  1  0  0  0  0
M  END
> <PUBCHEM_COMPOUND_CID>
26744411

> <PUBCHEM_CONFORMER_RMSD>
0.6

> <PUBCHEM_CONFORMER_DIVERSEORDER>
2
21
10
5
17
13
23
1
20
16
18
8
15
19
14
11
24
6
4
7
22
9
12
3

> <PUBCHEM_MMFF94_PARTIAL_CHARGES>
23
1 -0.19
10 0.27
11 0.27
12 0.3
15 0.46
16 0.05
17 -0.15
18 -0.15
19 -0.15
2 -0.68
20 -0.15
21 0.19
3 -0.02
35 0.4
36 0.15
37 0.15
38 0.15
39 0.15
4 -0.81
5 -0.57
6 -0.41
7 0.45
9 0.28

> <PUBCHEM_EFFECTIVE_ROTOR_COUNT>
4

> <PUBCHEM_PHARMACOPHORE_FEATURES>
8
1 2 acceptor
1 2 donor
1 4 cation
3 11 13 14 hydrophobe
3 5 6 15 cation
5 3 5 6 12 15 rings
5 4 7 8 9 10 rings
6 16 17 18 19 20 21 rings

> <PUBCHEM_HEAVY_ATOM_COUNT>
21

> <PUBCHEM_ATOM_DEF_STEREO_COUNT>
2

> <PUBCHEM_ATOM_UDEF_STEREO_COUNT>
0

> <PUBCHEM_BOND_DEF_STEREO_COUNT>
0

> <PUBCHEM_BOND_UDEF_STEREO_COUNT>
0

> <PUBCHEM_ISOTOPIC_ATOM_COUNT>
0

> <PUBCHEM_COMPONENT_COUNT>
1

> <PUBCHEM_CACTVS_TAUTO_COUNT>
1

> <PUBCHEM_CONFORMER_ID>
0198165B00000002

> <PUBCHEM_MMFF94_ENERGY>
38.3543

> <PUBCHEM_FEATURE_SELFOVERLAP>
40.596

> <PUBCHEM_SHAPE_FINGERPRINT>
10014705 185 16877943883992835206
10871710 139 18261393296058356317
10937287 8 16981264720935539393
11036077 4 8430321225249031269
11089746 13 18408886253022148132
11370993 144 12107775316189375272
11543360 7 18060137660985628242
11552529 35 11458720450859812576
11640471 11 18119533141800752761
12107183 9 17760645871993915874
12236239 1 18335137558006906399
12596602 18 11241975880271788518
12714826 92 16917347039310898831
12788726 201 18341884178915046227
13544653 18 13470688144211949466
13583140 156 14490475317650370616
13675066 3 14562533972872060586
14251764 30 17986389104439047327
14251764 38 18340764970319922328
14848178 96 17677337242105380444
15183329 4 17895194381881116358
15420108 30 16681473981482919456
15842332 3 18119230793340941107
16752209 62 18272076189392777011
16988056 13 15387265154791698793
16994733 274 15864891168557718781
17818456 19 17697031440736154930
1813 80 12895078465358238344
18186145 218 17676493826212766898
18219364 16 16877668980178709973
19489759 90 18344146990729069888
19862831 5 18335413569431957579
200 152 18412543236267915214
20300324 65 18344146994623324889
20693207 138 16845278497259084099
20775438 99 16978111764316686911
20871999 31 18059850654349386261
21033648 29 15936404576436728988
21033650 10 18127438699276874068
22620623 9 17417794133792405773
2297311 6 17918275376719931031
231179 274 16370720426978375330
23402539 116 18342457040845546718
23402655 69 18334297557051403446
235170 7 17275112729932182196
23557571 272 17561086895053744393
23559900 14 18059281162628348392
25147074 1 18263631871524818851
266924 1 18263913363813384227
2838139 119 16082186559990227143
312425 54 8214149517299097676
3268164 11 18202562873740551085
351380 3 12463573976234322228
474 4 17967256364478555768
4921388 177 17060627663780694857
5104073 3 17603591850690272384
531348 171 17987247638014382750
57265010 4 11602821302555971189
59755656 520 17676216757619411915
621550 5 16701731770059621875
633830 44 18041851592857252426

> <PUBCHEM_SHAPE_MULTIPOLES>
398.21
11.51
2.2
1.46
10.3
1.29
0.06
0.96
-5.78
-2.99
0.21
-0.6
-0.28
-2.09

> <PUBCHEM_SHAPE_SELFOVERLAP>
853.742

> <PUBCHEM_SHAPE_VOLUME>
224.2

> <PUBCHEM_COORDINATE_TYPE>
2
5
10

$$$$
