51137552
  -OEChem-12032416243D

 45 47  0     1  0  0  0  0  0999 V2000
    3.4391    0.0738   -0.3320 O   0  0  0  0  0  0  0  0  0  0  0  0
   -6.7764    0.2695    0.4997 O   0  0  0  0  0  0  0  0  0  0  0  0
   -0.5351   -0.7001   -0.0886 N   0  0  1  0  0  0  0  0  0  0  0  0
    4.0962   -1.7942    0.7088 N   0  0  0  0  0  0  0  0  0  0  0  0
    5.2158   -1.1905    0.1673 N   0  0  0  0  0  0  0  0  0  0  0  0
    1.6151   -1.1783    0.7160 C   0  0  1  0  0  0  0  0  0  0  0  0
    1.0058   -0.0239    1.5304 C   0  0  0  0  0  0  0  0  0  0  0  0
    0.7340   -1.2775   -0.5365 C   0  0  0  0  0  0  0  0  0  0  0  0
   -0.1586    0.4810    0.6882 C   0  0  0  0  0  0  0  0  0  0  0  0
   -1.4195   -0.3750   -1.1979 C   0  0  0  0  0  0  0  0  0  0  0  0
    3.0831   -1.0218    0.3928 C   0  0  0  0  0  0  0  0  0  0  0  0
   -2.8456   -0.2039   -0.7464 C   0  0  0  0  0  0  0  0  0  0  0  0
    4.7849   -0.1044   -0.4306 C   0  0  0  0  0  0  0  0  0  0  0  0
   -3.6226   -1.3235   -0.4488 C   0  0  0  0  0  0  0  0  0  0  0  0
   -3.3897    1.0748   -0.6254 C   0  0  0  0  0  0  0  0  0  0  0  0
    5.5370    0.9182   -1.1685 C   0  0  0  0  0  0  0  0  0  0  0  0
    6.2901    1.8990   -0.2439 C   0  0  0  0  0  0  0  0  0  0  0  0
   -4.9435   -1.1645   -0.0303 C   0  0  0  0  0  0  0  0  0  0  0  0
   -4.7107    1.2339   -0.2070 C   0  0  0  0  0  0  0  0  0  0  0  0
   -5.4877    0.1143    0.0905 C   0  0  0  0  0  0  0  0  0  0  0  0
    5.3572    2.6886    0.6607 C   0  0  0  0  0  0  0  0  0  0  0  0
   -7.2689    1.6049    0.6014 C   0  0  0  0  0  0  0  0  0  0  0  0
    1.5044   -2.1006    1.3031 H   0  0  0  0  0  0  0  0  0  0  0  0
    0.6361   -0.4117    2.4880 H   0  0  0  0  0  0  0  0  0  0  0  0
    1.7175    0.7789    1.7503 H   0  0  0  0  0  0  0  0  0  0  0  0
    0.6145   -2.3189   -0.8550 H   0  0  0  0  0  0  0  0  0  0  0  0
    1.1574   -0.7096   -1.3755 H   0  0  0  0  0  0  0  0  0  0  0  0
    0.1819    1.3033    0.0457 H   0  0  0  0  0  0  0  0  0  0  0  0
   -0.9723    0.8457    1.3228 H   0  0  0  0  0  0  0  0  0  0  0  0
   -1.4164   -1.1961   -1.9289 H   0  0  0  0  0  0  0  0  0  0  0  0
   -1.0756    0.5060   -1.7567 H   0  0  0  0  0  0  0  0  0  0  0  0
   -3.2100   -2.3250   -0.5390 H   0  0  0  0  0  0  0  0  0  0  0  0
   -2.7937    1.9548   -0.8527 H   0  0  0  0  0  0  0  0  0  0  0  0
    4.8657    1.4829   -1.8267 H   0  0  0  0  0  0  0  0  0  0  0  0
    6.2667    0.4224   -1.8195 H   0  0  0  0  0  0  0  0  0  0  0  0
    6.8625    2.5972   -0.8656 H   0  0  0  0  0  0  0  0  0  0  0  0
    7.0113    1.3503    0.3737 H   0  0  0  0  0  0  0  0  0  0  0  0
   -5.5439   -2.0403    0.2003 H   0  0  0  0  0  0  0  0  0  0  0  0
   -5.0695    2.2549   -0.1341 H   0  0  0  0  0  0  0  0  0  0  0  0
    4.6049    3.2268    0.0753 H   0  0  0  0  0  0  0  0  0  0  0  0
    4.8407    2.0394    1.3744 H   0  0  0  0  0  0  0  0  0  0  0  0
    5.9276    3.4248    1.2362 H   0  0  0  0  0  0  0  0  0  0  0  0
   -6.7221    2.1789    1.3572 H   0  0  0  0  0  0  0  0  0  0  0  0
   -7.2793    2.1052   -0.3728 H   0  0  0  0  0  0  0  0  0  0  0  0
   -8.3085    1.5410    0.9390 H   0  0  0  0  0  0  0  0  0  0  0  0
  1 11  1  0  0  0  0
  1 13  1  0  0  0  0
  2 20  1  0  0  0  0
  2 22  1  0  0  0  0
  3  8  1  0  0  0  0
  3  9  1  0  0  0  0
  3 10  1  0  0  0  0
  4  5  1  0  0  0  0
  4 11  2  0  0  0  0
  5 13  2  0  0  0  0
  6  7  1  0  0  0  0
  6  8  1  0  0  0  0
  6 11  1  0  0  0  0
  6 23  1  0  0  0  0
  7  9  1  0  0  0  0
  7 24  1  0  0  0  0
  7 25  1  0  0  0  0
  8 26  1  0  0  0  0
  8 27  1  0  0  0  0
  9 28  1  0  0  0  0
  9 29  1  0  0  0  0
 10 12  1  0  0  0  0
 10 30  1  0  0  0  0
 10 31  1  0  0  0  0
 12 14  2  0  0  0  0
 12 15  1  0  0  0  0
 13 16  1  0  0  0  0
 14 18  1  0  0  0  0
 14 32  1  0  0  0  0
 15 19  2  0  0  0  0
 15 33  1  0  0  0  0
 16 17  1  0  0  0  0
 16 34  1  0  0  0  0
 16 35  1  0  0  0  0
 17 21  1  0  0  0  0
 17 36  1  0  0  0  0
 17 37  1  0  0  0  0
 18 20  2  0  0  0  0
 18 38  1  0  0  0  0
 19 20  1  0  0  0  0
 19 39  1  0  0  0  0
 21 40  1  0  0  0  0
 21 41  1  0  0  0  0
 21 42  1  0  0  0  0
 22 43  1  0  0  0  0
 22 44  1  0  0  0  0
 22 45  1  0  0  0  0
M  END
> <PUBCHEM_COMPOUND_CID>
51137552

> <PUBCHEM_CONFORMER_RMSD>
1

> <PUBCHEM_CONFORMER_DIVERSEORDER>
1
63
58
41
65
59
61
11
60
17
33
22
3
35
45
16
50
48
38
27
51
19
57
2
42
39
44
13
32
29
26
43
30
7
53
68
66
47
52
69
67
24
28
18
14
64
49
40
8
25
62
55
56
12
9
31
54
5
36
34
6
21
46
10
37
23
20
4
15

> <PUBCHEM_MMFF94_PARTIAL_CHARGES>
23
1 -0.28
10 0.41
11 0.3
12 -0.14
13 0.3
14 -0.15
15 -0.15
16 0.18
18 -0.15
19 -0.15
2 -0.36
20 0.08
22 0.28
3 -0.81
32 0.15
33 0.15
38 0.15
39 0.15
4 -0.34
5 -0.34
6 0.18
8 0.27
9 0.27

> <PUBCHEM_EFFECTIVE_ROTOR_COUNT>
7

> <PUBCHEM_PHARMACOPHORE_FEATURES>
6
1 2 acceptor
1 21 hydrophobe
1 3 cation
5 1 4 5 11 13 rings
5 3 6 7 8 9 rings
6 12 14 15 18 19 20 rings

> <PUBCHEM_HEAVY_ATOM_COUNT>
22

> <PUBCHEM_ATOM_DEF_STEREO_COUNT>
1

> <PUBCHEM_ATOM_UDEF_STEREO_COUNT>
0

> <PUBCHEM_BOND_DEF_STEREO_COUNT>
0

> <PUBCHEM_BOND_UDEF_STEREO_COUNT>
0

> <PUBCHEM_ISOTOPIC_ATOM_COUNT>
0

> <PUBCHEM_COMPONENT_COUNT>
1

> <PUBCHEM_CACTVS_TAUTO_COUNT>
1

> <PUBCHEM_CONFORMER_ID>
030C4C1000000001

> <PUBCHEM_MMFF94_ENERGY>
43.9293

> <PUBCHEM_FEATURE_SELFOVERLAP>
30.446

> <PUBCHEM_SHAPE_FINGERPRINT>
10 15 15430043183719814388
10066227 112 18343299267227638009
10554248 39 18127960928492265063
10595046 47 18335136492391157150
10638233 991 18202001036257889465
106641 1 12396305889628627286
11796584 16 12607394499177736940
11858739 19 10447930572555186004
12236239 1 18410856559761297455
12403260 363 8430312459268571167
12596602 18 18040719126435706601
12616971 3 18339346510051457134
12730499 353 17894633634866213978
12788726 201 17418100897130185472
12895836 83 17917145130427393910
12916748 109 16515402950079474182
13533116 47 17023457552613019354
13668630 136 10952050048399930237
13955234 65 17896027772697777074
1420 363 15936415511592314659
14211702 104 9007051400693151269
14251732 16 18261395580811678227
14251757 52 18343582940932250825
14251758 9 14908181971180462919
14251764 18 18341895191437675983
14341114 176 18187086126751161439
14366163 111 18272368707204847464
14461889 52 17458632254130768338
14528608 73 18411699911371475126
146900 427 18259981574377190530
14848160 23 11025792106787963501
14933364 13 18409732854466601045
15048467 5 18410576188701763237
15183329 4 12967134895296459437
15188451 53 7853582292340448212
15475509 8 15841287985780810560
17349148 13 11963391799762715422
173720 79 12685093695825143800
17834072 8 15051734191959569583
17844677 252 18262239906677747350
18222031 100 13614525173358137042
19377110 9 16805312301766665513
19489759 90 8718828691511107143
20281389 69 18335701611714519613
20567600 75 10735890455972099930
20735858 18 14562530690994741984
21150785 3 18059847415922966215
21304304 249 8142091970247697656
21307412 95 14189305897479942180
21521721 280 18260271849615290299
21641784 216 17274836735275940392
21682296 61 8213602028864165376
22061861 79 12031788058718881464
22079108 93 17167582700116484794
2215653 11 13902192590586593812
22224240 67 17458065963310105195
23081809 10 18342729720030331479
23522609 53 18200892720205632609
23536379 177 18335420140674028162
23569914 2 17466733421419363684
3004659 81 18130788907186339294
314173 85 15339117944369105066
34797466 226 18202008724127484540
4073 2 18040722505937191354
4325135 7 18113902653938375038
4340502 62 16877659067789940762
445580 126 18411409640745270000
4463277 17 18413108364138897209
5104073 3 15647880527669893621
5312510 48 18270399520487552312
53794403 172 17973166411958117324
542803 24 18411979148411976039
543368 44 18409727408601219565
59682541 35 15936418878488089021
6328613 192 18273217495637532449
960060 61 14692575450993877588

> <PUBCHEM_SHAPE_MULTIPOLES>
426.07
18.69
1.97
1.05
6.54
0.78
-0.04
9.42
-0.24
-1.98
-0.25
-0.37
0.04
-0.7

> <PUBCHEM_SHAPE_SELFOVERLAP>
894.32

> <PUBCHEM_SHAPE_VOLUME>
244.1

> <PUBCHEM_COORDINATE_TYPE>
2
5
10

$$$$
