45783706
  -OEChem-12032416203D

 48 51  0     1  0  0  0  0  0999 V2000
   -1.1676   -1.5345    1.9534 O   0  0  0  0  0  0  0  0  0  0  0  0
    5.7024   -0.3821   -1.0462 O   0  0  0  0  0  0  0  0  0  0  0  0
   -3.4573   -0.4009   -0.6880 N   0  0  1  0  0  0  0  0  0  0  0  0
   -0.5837   -0.9959   -0.1408 N   0  0  0  0  0  0  0  0  0  0  0  0
    0.2302   -1.4452    1.9496 N   0  0  0  0  0  0  0  0  0  0  0  0
    4.2094   -0.8834    0.6579 N   0  0  0  0  0  0  0  0  0  0  0  0
   -3.0572   -1.2870    0.4233 C   0  0  1  0  0  0  0  0  0  0  0  0
   -3.5596   -2.6829    0.0108 C   0  0  0  0  0  0  0  0  0  0  0  0
   -4.2806   -2.4711   -1.3129 C   0  0  0  0  0  0  0  0  0  0  0  0
   -4.6493   -1.0015   -1.2870 C   0  0  0  0  0  0  0  0  0  0  0  0
   -3.6880    0.9760   -0.2703 C   0  0  0  0  0  0  0  0  0  0  0  0
   -1.5659   -1.2561    0.6845 C   0  0  0  0  0  0  0  0  0  0  0  0
   -2.3989    1.7377   -0.1128 C   0  0  0  0  0  0  0  0  0  0  0  0
   -2.0736    2.3112    1.1164 C   0  0  0  0  0  0  0  0  0  0  0  0
   -1.5312    1.8722   -1.1967 C   0  0  0  0  0  0  0  0  0  0  0  0
    0.4985   -1.1240    0.6805 C   0  0  0  0  0  0  0  0  0  0  0  0
   -0.8808    3.0194    1.2616 C   0  0  0  0  0  0  0  0  0  0  0  0
   -0.3384    2.5804   -1.0514 C   0  0  0  0  0  0  0  0  0  0  0  0
   -0.0130    3.1539    0.1778 C   0  0  0  0  0  0  0  0  0  0  0  0
    1.8358   -0.9257    0.2009 C   0  0  0  0  0  0  0  0  0  0  0  0
    1.2621    3.9118    0.3335 C   0  0  0  0  0  0  0  0  0  0  0  0
    2.0781   -0.5936   -1.1274 C   0  0  0  0  0  0  0  0  0  0  0  0
    2.9261   -1.0577    1.0457 C   0  0  0  0  0  0  0  0  0  0  0  0
    3.3850   -0.4063   -1.5640 C   0  0  0  0  0  0  0  0  0  0  0  0
    4.4059   -0.5614   -0.6403 C   0  0  0  0  0  0  0  0  0  0  0  0
    6.7117   -0.5533   -0.0580 C   0  0  0  0  0  0  0  0  0  0  0  0
   -3.5773   -1.0077    1.3504 H   0  0  0  0  0  0  0  0  0  0  0  0
   -2.7625   -3.4268   -0.0951 H   0  0  0  0  0  0  0  0  0  0  0  0
   -4.2696   -3.0551    0.7594 H   0  0  0  0  0  0  0  0  0  0  0  0
   -3.5985   -2.6799   -2.1464 H   0  0  0  0  0  0  0  0  0  0  0  0
   -5.1542   -3.1213   -1.4169 H   0  0  0  0  0  0  0  0  0  0  0  0
   -5.5405   -0.8437   -0.6663 H   0  0  0  0  0  0  0  0  0  0  0  0
   -4.8433   -0.6179   -2.2934 H   0  0  0  0  0  0  0  0  0  0  0  0
   -4.2623    1.5084   -1.0417 H   0  0  0  0  0  0  0  0  0  0  0  0
   -4.3006    1.0277    0.6394 H   0  0  0  0  0  0  0  0  0  0  0  0
   -2.7391    2.2127    1.9698 H   0  0  0  0  0  0  0  0  0  0  0  0
   -1.7728    1.4348   -2.1618 H   0  0  0  0  0  0  0  0  0  0  0  0
   -0.6376    3.4593    2.2251 H   0  0  0  0  0  0  0  0  0  0  0  0
    0.3306    2.6767   -1.9024 H   0  0  0  0  0  0  0  0  0  0  0  0
    1.1773    4.6766    1.1129 H   0  0  0  0  0  0  0  0  0  0  0  0
    1.5284    4.4282   -0.5949 H   0  0  0  0  0  0  0  0  0  0  0  0
    2.0740    3.2280    0.6011 H   0  0  0  0  0  0  0  0  0  0  0  0
    1.2692   -0.4739   -1.8435 H   0  0  0  0  0  0  0  0  0  0  0  0
    2.8228   -1.3141    2.0959 H   0  0  0  0  0  0  0  0  0  0  0  0
    3.5909   -0.1466   -2.5967 H   0  0  0  0  0  0  0  0  0  0  0  0
    6.5967    0.1754    0.7514 H   0  0  0  0  0  0  0  0  0  0  0  0
    6.7083   -1.5760    0.3339 H   0  0  0  0  0  0  0  0  0  0  0  0
    7.6813   -0.3782   -0.5336 H   0  0  0  0  0  0  0  0  0  0  0  0
  1  5  1  0  0  0  0
  1 12  1  0  0  0  0
  2 25  1  0  0  0  0
  2 26  1  0  0  0  0
  3  7  1  0  0  0  0
  3 10  1  0  0  0  0
  3 11  1  0  0  0  0
  4 12  2  0  0  0  0
  4 16  1  0  0  0  0
  5 16  2  0  0  0  0
  6 23  1  0  0  0  0
  6 25  2  0  0  0  0
  7  8  1  0  0  0  0
  7 12  1  0  0  0  0
  7 27  1  0  0  0  0
  8  9  1  0  0  0  0
  8 28  1  0  0  0  0
  8 29  1  0  0  0  0
  9 10  1  0  0  0  0
  9 30  1  0  0  0  0
  9 31  1  0  0  0  0
 10 32  1  0  0  0  0
 10 33  1  0  0  0  0
 11 13  1  0  0  0  0
 11 34  1  0  0  0  0
 11 35  1  0  0  0  0
 13 14  2  0  0  0  0
 13 15  1  0  0  0  0
 14 17  1  0  0  0  0
 14 36  1  0  0  0  0
 15 18  2  0  0  0  0
 15 37  1  0  0  0  0
 16 20  1  0  0  0  0
 17 19  2  0  0  0  0
 17 38  1  0  0  0  0
 18 19  1  0  0  0  0
 18 39  1  0  0  0  0
 19 21  1  0  0  0  0
 20 22  1  0  0  0  0
 20 23  2  0  0  0  0
 21 40  1  0  0  0  0
 21 41  1  0  0  0  0
 21 42  1  0  0  0  0
 22 24  2  0  0  0  0
 22 43  1  0  0  0  0
 23 44  1  0  0  0  0
 24 25  1  0  0  0  0
 24 45  1  0  0  0  0
 26 46  1  0  0  0  0
 26 47  1  0  0  0  0
 26 48  1  0  0  0  0
M  END
> <PUBCHEM_COMPOUND_CID>
45783706

> <PUBCHEM_CONFORMER_RMSD>
0.8

> <PUBCHEM_CONFORMER_DIVERSEORDER>
1
34
7
46
19
42
12
51
44
41
27
63
9
26
45
31
3
57
53
49
29
6
62
20
37
25
10
55
36
28
23
24
13
39
22
21
43
2
60
35
61
11
48
59
58
4
15
50
14
56
5
16
47
17
38
32
8
54
18
33
30
52
40

> <PUBCHEM_MMFF94_PARTIAL_CHARGES>
31
1 -0.02
10 0.27
11 0.41
12 0.3
13 -0.14
14 -0.15
15 -0.15
16 0.46
17 -0.15
18 -0.15
19 -0.14
2 -0.36
20 0.05
21 0.14
22 -0.15
23 0.16
24 -0.15
25 0.39
26 0.28
3 -0.81
36 0.15
37 0.15
38 0.15
39 0.15
4 -0.57
43 0.15
44 0.15
45 0.15
5 -0.41
6 -0.62
7 0.45

> <PUBCHEM_EFFECTIVE_ROTOR_COUNT>
6

> <PUBCHEM_PHARMACOPHORE_FEATURES>
6
1 3 cation
3 4 5 16 cation
5 1 4 5 12 16 rings
5 3 7 8 9 10 rings
6 13 14 15 17 18 19 rings
6 6 20 22 23 24 25 rings

> <PUBCHEM_HEAVY_ATOM_COUNT>
26

> <PUBCHEM_ATOM_DEF_STEREO_COUNT>
1

> <PUBCHEM_ATOM_UDEF_STEREO_COUNT>
0

> <PUBCHEM_BOND_DEF_STEREO_COUNT>
0

> <PUBCHEM_BOND_UDEF_STEREO_COUNT>
0

> <PUBCHEM_ISOTOPIC_ATOM_COUNT>
0

> <PUBCHEM_COMPONENT_COUNT>
1

> <PUBCHEM_CACTVS_TAUTO_COUNT>
1

> <PUBCHEM_CONFORMER_ID>
02BA9A9A00000001

> <PUBCHEM_MMFF94_ENERGY>
57.9114

> <PUBCHEM_FEATURE_SELFOVERLAP>
30.449

> <PUBCHEM_SHAPE_FINGERPRINT>
10871710 139 18115027377420226621
10937287 8 17405996154139681192
1100329 8 18411703162846932257
121448 382 18115312168058656384
12156800 1 15867958830846455276
12166972 35 17604152635262738430
12293681 25 17031350143224834091
12596599 1 18201727214844146321
12788726 201 18262232218559810570
13009979 54 17681529477503790387
13782708 43 17560814178386101110
14787075 74 18334012796266774316
14790565 3 17907858397490628481
14910302 57 17845092870359650118
14955137 171 18269014037267662265
16090146 7 17846506946415687931
17349148 13 17895194372795361446
17357779 13 18342168998884997861
17492 54 18115856422483752949
17818456 19 17975962177605337034
19319366 153 17679299672818377731
20642791 239 18188479208379731461
20642791 35 18336531782064966485
20691752 17 17677034854911650121
20715895 44 16669627920193457949
20775438 99 17259319589740631927
20905425 154 18122907800779153141
21344244 246 17837199751192785031
21623110 236 18337403720218473728
23402539 116 18410293614203369102
23419403 2 18046879805412306613
23557571 272 18272933795403324182
23559900 14 18339631364924544009
392239 28 18410858742227559472
4280585 95 18339349846728836252
469060 322 17387723589825502369
531348 171 18127701431058931982
57527585 103 17388857198840204914
7471813 234 18339924938892465870

> <PUBCHEM_SHAPE_MULTIPOLES>
503.41
10.09
3.89
1.51
13.35
4.1
0.18
-6.91
-3.51
-2.7
0.5
-0.1
-0.28
-0.52

> <PUBCHEM_SHAPE_SELFOVERLAP>
1091.661

> <PUBCHEM_SHAPE_VOLUME>
277.7

> <PUBCHEM_COORDINATE_TYPE>
2
5
10

$$$$
