51136651
  -OEChem-12032416143D

 64 66  0     1  0  0  0  0  0999 V2000
   -0.6209   -3.6741    0.8198 O   0  0  0  0  0  0  0  0  0  0  0  0
   -5.9476    2.6483    1.3583 O   0  0  0  0  0  0  0  0  0  0  0  0
   -6.2761    0.5955    0.4315 O   0  0  0  0  0  0  0  0  0  0  0  0
    5.3615    1.6389    1.2493 O   0  0  0  0  0  0  0  0  0  0  0  0
   -1.6693   -1.9600   -0.3461 N   0  0  0  0  0  0  0  0  0  0  0  0
   -0.2525    2.1252   -1.7931 N   0  0  0  0  0  0  0  0  0  0  0  0
   -2.1306    0.4495   -0.7403 C   0  0  2  0  0  0  0  0  0  0  0  0
   -3.5100    0.2586   -0.0596 C   0  0  1  0  0  0  0  0  0  0  0  0
   -1.6576   -0.8845   -1.3460 C   0  0  0  0  0  0  0  0  0  0  0  0
   -3.4900   -0.9091    0.9412 C   0  0  0  0  0  0  0  0  0  0  0  0
   -2.9657   -2.1873    0.2919 C   0  0  0  0  0  0  0  0  0  0  0  0
   -1.0528    1.0256    0.1864 C   0  0  0  0  0  0  0  0  0  0  0  0
   -4.0321    1.5311    0.6072 C   0  0  0  0  0  0  0  0  0  0  0  0
   -0.5780   -2.7585   -0.0060 C   0  0  0  0  0  0  0  0  0  0  0  0
    0.0544    1.6407   -0.6352 C   0  0  0  0  0  0  0  0  0  0  0  0
    0.7233   -2.4588   -0.7063 C   0  0  0  0  0  0  0  0  0  0  0  0
    1.8538   -3.4240   -0.3061 C   0  0  0  0  0  0  0  0  0  0  0  0
   -5.5268    1.4999    0.7684 C   0  0  0  0  0  0  0  0  0  0  0  0
    1.4329    1.6536   -0.0822 C   0  0  0  0  0  0  0  0  0  0  0  0
    2.4761    1.8636   -0.9930 C   0  0  0  0  0  0  0  0  0  0  0  0
    2.1307   -3.3588    1.2056 C   0  0  0  0  0  0  0  0  0  0  0  0
    3.1483   -3.1134   -1.0768 C   0  0  0  0  0  0  0  0  0  0  0  0
    1.4020   -4.8531   -0.6610 C   0  0  0  0  0  0  0  0  0  0  0  0
    0.8110    2.7767   -2.5651 C   0  0  0  0  0  0  0  0  0  0  0  0
    2.1407    2.0439   -2.4437 C   0  0  0  0  0  0  0  0  0  0  0  0
    1.7048    1.4541    1.2726 C   0  0  0  0  0  0  0  0  0  0  0  0
    3.7991    1.8469   -0.5426 C   0  0  0  0  0  0  0  0  0  0  0  0
    3.0282    1.4546    1.7154 C   0  0  0  0  0  0  0  0  0  0  0  0
    4.0726    1.6475    0.8107 C   0  0  0  0  0  0  0  0  0  0  0  0
    5.5705    1.4275    2.6447 C   0  0  0  0  0  0  0  0  0  0  0  0
   -2.3208    1.1349   -1.5757 H   0  0  0  0  0  0  0  0  0  0  0  0
   -4.2072   -0.0212   -0.8636 H   0  0  0  0  0  0  0  0  0  0  0  0
   -0.6800   -0.7668   -1.8158 H   0  0  0  0  0  0  0  0  0  0  0  0
   -2.3460   -1.1930   -2.1431 H   0  0  0  0  0  0  0  0  0  0  0  0
   -4.4910   -1.1006    1.3425 H   0  0  0  0  0  0  0  0  0  0  0  0
   -2.8499   -0.6530    1.7952 H   0  0  0  0  0  0  0  0  0  0  0  0
   -2.8972   -2.9803    1.0433 H   0  0  0  0  0  0  0  0  0  0  0  0
   -3.6571   -2.5334   -0.4854 H   0  0  0  0  0  0  0  0  0  0  0  0
   -0.6690    0.2519    0.8568 H   0  0  0  0  0  0  0  0  0  0  0  0
   -1.4489    1.8366    0.8059 H   0  0  0  0  0  0  0  0  0  0  0  0
   -3.7972    2.3999   -0.0191 H   0  0  0  0  0  0  0  0  0  0  0  0
   -3.5826    1.6718    1.5963 H   0  0  0  0  0  0  0  0  0  0  0  0
    0.5621   -2.5243   -1.7891 H   0  0  0  0  0  0  0  0  0  0  0  0
    1.0200   -1.4322   -0.4644 H   0  0  0  0  0  0  0  0  0  0  0  0
    1.3643   -3.8117    1.8372 H   0  0  0  0  0  0  0  0  0  0  0  0
    2.2670   -2.3208    1.5306 H   0  0  0  0  0  0  0  0  0  0  0  0
    3.0594   -3.8924    1.4437 H   0  0  0  0  0  0  0  0  0  0  0  0
    2.9881   -3.1811   -2.1587 H   0  0  0  0  0  0  0  0  0  0  0  0
    3.4986   -2.0990   -0.8547 H   0  0  0  0  0  0  0  0  0  0  0  0
    3.9521   -3.8098   -0.8135 H   0  0  0  0  0  0  0  0  0  0  0  0
    2.2619   -5.5349   -0.6331 H   0  0  0  0  0  0  0  0  0  0  0  0
    0.6704   -5.2936    0.0191 H   0  0  0  0  0  0  0  0  0  0  0  0
    0.9965   -4.9025   -1.6783 H   0  0  0  0  0  0  0  0  0  0  0  0
    2.9201    2.6180   -2.9570 H   0  0  0  0  0  0  0  0  0  0  0  0
    2.0785    1.0559   -2.9156 H   0  0  0  0  0  0  0  0  0  0  0  0
    0.9053    3.8182   -2.2328 H   0  0  0  0  0  0  0  0  0  0  0  0
    0.5114    2.8037   -3.6184 H   0  0  0  0  0  0  0  0  0  0  0  0
    0.9139    1.3113    2.0020 H   0  0  0  0  0  0  0  0  0  0  0  0
    4.6171    1.9901   -1.2440 H   0  0  0  0  0  0  0  0  0  0  0  0
   -6.9210    2.6617    1.4795 H   0  0  0  0  0  0  0  0  0  0  0  0
    3.1736    1.2979    2.7790 H   0  0  0  0  0  0  0  0  0  0  0  0
    5.1352    2.2345    3.2438 H   0  0  0  0  0  0  0  0  0  0  0  0
    5.2179    0.4394    2.9595 H   0  0  0  0  0  0  0  0  0  0  0  0
    6.6517    1.4501    2.8164 H   0  0  0  0  0  0  0  0  0  0  0  0
  1 14  2  0  0  0  0
  2 18  1  0  0  0  0
  2 60  1  0  0  0  0
  3 18  2  0  0  0  0
  4 29  1  0  0  0  0
  4 30  1  0  0  0  0
  5  9  1  0  0  0  0
  5 11  1  0  0  0  0
  5 14  1  0  0  0  0
  6 15  2  0  0  0  0
  6 24  1  0  0  0  0
  7  8  1  0  0  0  0
  7  9  1  0  0  0  0
  7 12  1  0  0  0  0
  7 31  1  0  0  0  0
  8 10  1  0  0  0  0
  8 13  1  0  0  0  0
  8 32  1  0  0  0  0
  9 33  1  0  0  0  0
  9 34  1  0  0  0  0
 10 11  1  0  0  0  0
 10 35  1  0  0  0  0
 10 36  1  0  0  0  0
 11 37  1  0  0  0  0
 11 38  1  0  0  0  0
 12 15  1  0  0  0  0
 12 39  1  0  0  0  0
 12 40  1  0  0  0  0
 13 18  1  0  0  0  0
 13 41  1  0  0  0  0
 13 42  1  0  0  0  0
 14 16  1  0  0  0  0
 15 19  1  0  0  0  0
 16 17  1  0  0  0  0
 16 43  1  0  0  0  0
 16 44  1  0  0  0  0
 17 21  1  0  0  0  0
 17 22  1  0  0  0  0
 17 23  1  0  0  0  0
 19 20  2  0  0  0  0
 19 26  1  0  0  0  0
 20 25  1  0  0  0  0
 20 27  1  0  0  0  0
 21 45  1  0  0  0  0
 21 46  1  0  0  0  0
 21 47  1  0  0  0  0
 22 48  1  0  0  0  0
 22 49  1  0  0  0  0
 22 50  1  0  0  0  0
 23 51  1  0  0  0  0
 23 52  1  0  0  0  0
 23 53  1  0  0  0  0
 24 25  1  0  0  0  0
 24 56  1  0  0  0  0
 24 57  1  0  0  0  0
 25 54  1  0  0  0  0
 25 55  1  0  0  0  0
 26 28  2  0  0  0  0
 26 58  1  0  0  0  0
 27 29  2  0  0  0  0
 27 59  1  0  0  0  0
 28 29  1  0  0  0  0
 28 61  1  0  0  0  0
 30 62  1  0  0  0  0
 30 63  1  0  0  0  0
 30 64  1  0  0  0  0
M  END
> <PUBCHEM_COMPOUND_CID>
51136651

> <PUBCHEM_CONFORMER_RMSD>
1

> <PUBCHEM_CONFORMER_DIVERSEORDER>
1
150
111
57
161
164
100
69
49
81
146
162
68
5
67
51
176
138
173
46
85
152
4
171
114
137
139
151
9
157
124
166
120
28
178
109
117
63
6
106
40
2
44
155
93
118
80
163
14
38
26
8
115
76
101
82
131
142
172
84
75
90
116
110
24
132
22
122
102
130
125
87
170
145
59
70
7
141
34
47
18
21
11
61
58
94
10
33
113
43
128
174
168
136
154
74
15
48
103
180
121
149
12
54
29
52
169
71
156
60
36
89
175
134
167
23
147
108
92
64
55
88
20
135
32
97
179
73
91
127
79
129
45
41
50
86
19
65
56
78
3
126
123
160
42
62
83
72
107
112
159
119
95
181
153
104
30
66
77
25
144
35
37
143
16
31
165
53
96
39
17
177
105
98
158
13
133
140
27
148
99

> <PUBCHEM_MMFF94_PARTIAL_CHARGES>
27
1 -0.57
11 0.3
12 0.06
13 0.06
14 0.57
15 0.3
16 0.06
18 0.66
19 0.09
2 -0.65
20 -0.14
24 0.25
25 0.14
26 -0.15
27 -0.15
28 -0.15
29 0.08
3 -0.57
30 0.28
4 -0.36
5 -0.66
58 0.15
59 0.15
6 -0.7
60 0.5
61 0.15
9 0.3

> <PUBCHEM_EFFECTIVE_ROTOR_COUNT>
9.6

> <PUBCHEM_PHARMACOPHORE_FEATURES>
10
1 1 acceptor
1 2 acceptor
1 3 acceptor
1 4 acceptor
1 6 acceptor
3 2 3 18 anion
4 17 21 22 23 hydrophobe
6 19 20 26 27 28 29 rings
6 5 7 8 9 10 11 rings
6 6 15 19 20 24 25 rings

> <PUBCHEM_HEAVY_ATOM_COUNT>
30

> <PUBCHEM_ATOM_DEF_STEREO_COUNT>
2

> <PUBCHEM_ATOM_UDEF_STEREO_COUNT>
0

> <PUBCHEM_BOND_DEF_STEREO_COUNT>
0

> <PUBCHEM_BOND_UDEF_STEREO_COUNT>
0

> <PUBCHEM_ISOTOPIC_ATOM_COUNT>
0

> <PUBCHEM_COMPONENT_COUNT>
1

> <PUBCHEM_CACTVS_TAUTO_COUNT>
1

> <PUBCHEM_CONFORMER_ID>
030C488B00000001

> <PUBCHEM_MMFF94_ENERGY>
92.4738

> <PUBCHEM_FEATURE_SELFOVERLAP>
50.83

> <PUBCHEM_SHAPE_FINGERPRINT>
10032420 55 14802636959659641493
1100329 8 17478059254652450793
11049842 53 18263948650911273796
11513181 2 18060697303630389246
11582403 64 16987981912273000409
12156800 1 14494180749282388170
12422481 6 18262500521473023008
12633257 1 17313100899515826113
12788726 201 17471307613228319927
13140716 1 18409729517662640611
133893 2 17977420203074641281
13726171 33 17828791730173410996
14178342 30 18338799043185625303
14739800 52 17774999038649122417
14840074 17 18041266747598341024
15420108 30 18271230703574464182
15684973 49 17984421016709672692
15927050 60 18343585161446329631
16752209 62 18051421952834959575
17093844 170 18409738374058732836
1979834 28 18335424547263059648
20554085 129 18131060542144866969
20642791 35 18270970024776432374
20691752 17 18186515488532383103
22182313 1 17897716579307453661
23419403 2 17976248046306925453
23559900 14 18189069603221237799
3411729 13 18342458106313895465
5104073 3 18197797531265995169
513532 50 17917158207927700580
5171179 24 17905318529861402341
5265222 85 18124043583601364236
5385378 56 18341342098080946977
7064713 232 18338791333819848088

> <PUBCHEM_SHAPE_MULTIPOLES>
583.95
10.22
5.48
2.01
8.31
7.49
-0.28
-8.38
7
-3.06
-0.97
-2.21
-1.63
0.14

> <PUBCHEM_SHAPE_SELFOVERLAP>
1222.21

> <PUBCHEM_SHAPE_VOLUME>
328.9

> <PUBCHEM_COORDINATE_TYPE>
2
5
10

$$$$
