75367093
  -OEChem-12032416393D

 42 42  0     1  0  0  0  0  0999 V2000
    4.9046    0.5033   -0.2287 S   0  0  0  0  0  0  0  0  0  0  0  0
    0.8818    0.8656    0.8389 O   0  0  0  0  0  0  0  0  0  0  0  0
   -0.2169   -2.4897    0.1753 O   0  0  0  0  0  0  0  0  0  0  0  0
    6.0037    0.7350    0.6879 O   0  0  0  0  0  0  0  0  0  0  0  0
    4.4370    1.5576   -1.1081 O   0  0  0  0  0  0  0  0  0  0  0  0
   -2.4064   -0.2707   -0.2230 N   0  0  0  0  0  0  0  0  0  0  0  0
    3.5646   -0.1249    0.6205 N   0  0  0  0  0  0  0  0  0  0  0  0
   -1.1803   -0.2793    0.5581 C   0  0  1  0  0  0  0  0  0  0  0  0
   -0.0680   -1.1035   -0.0634 C   0  0  1  0  0  0  0  0  0  0  0  0
    1.1520   -0.5330    0.6471 C   0  0  1  0  0  0  0  0  0  0  0  0
   -0.5261    1.0897    0.6476 C   0  0  0  0  0  0  0  0  0  0  0  0
   -4.8554    0.3413   -0.2279 C   0  0  0  0  0  0  0  0  0  0  0  0
   -3.5252    0.2382    0.5613 C   0  0  0  0  0  0  0  0  0  0  0  0
    2.4394   -0.7040   -0.1393 C   0  0  0  0  0  0  0  0  0  0  0  0
   -5.9705    0.9319    0.6527 C   0  0  0  0  0  0  0  0  0  0  0  0
   -5.2707   -1.0772   -0.6625 C   0  0  0  0  0  0  0  0  0  0  0  0
   -4.6909    1.2099   -1.4877 C   0  0  0  0  0  0  0  0  0  0  0  0
    5.3275   -0.8903   -1.2489 C   0  0  0  0  0  0  0  0  0  0  0  0
   -1.3745   -0.6756    1.5649 H   0  0  0  0  0  0  0  0  0  0  0  0
   -0.0105   -0.9356   -1.1461 H   0  0  0  0  0  0  0  0  0  0  0  0
    1.2696   -0.9828    1.6419 H   0  0  0  0  0  0  0  0  0  0  0  0
   -0.6381    1.6664   -0.2779 H   0  0  0  0  0  0  0  0  0  0  0  0
   -0.9124    1.6900    1.4768 H   0  0  0  0  0  0  0  0  0  0  0  0
   -2.6121   -1.2215   -0.5266 H   0  0  0  0  0  0  0  0  0  0  0  0
   -3.6818   -0.3990    1.4421 H   0  0  0  0  0  0  0  0  0  0  0  0
   -3.2822    1.2408    0.9364 H   0  0  0  0  0  0  0  0  0  0  0  0
    2.3475   -0.1869   -1.1008 H   0  0  0  0  0  0  0  0  0  0  0  0
    2.6383   -1.7650   -0.3211 H   0  0  0  0  0  0  0  0  0  0  0  0
   -6.9212    0.9869    0.1107 H   0  0  0  0  0  0  0  0  0  0  0  0
   -5.7141    1.9451    0.9816 H   0  0  0  0  0  0  0  0  0  0  0  0
   -6.1307    0.3210    1.5481 H   0  0  0  0  0  0  0  0  0  0  0  0
   -5.3321   -1.7545    0.1968 H   0  0  0  0  0  0  0  0  0  0  0  0
   -6.2577   -1.0641   -1.1401 H   0  0  0  0  0  0  0  0  0  0  0  0
   -4.5749   -1.5116   -1.3880 H   0  0  0  0  0  0  0  0  0  0  0  0
   -5.6407    1.3059   -2.0262 H   0  0  0  0  0  0  0  0  0  0  0  0
   -4.3546    2.2191   -1.2246 H   0  0  0  0  0  0  0  0  0  0  0  0
   -3.9623    0.7854   -2.1867 H   0  0  0  0  0  0  0  0  0  0  0  0
   -0.2692   -2.6307    1.1358 H   0  0  0  0  0  0  0  0  0  0  0  0
    3.7750   -0.6345    1.4889 H   0  0  0  0  0  0  0  0  0  0  0  0
    6.2366   -0.6358   -1.7989 H   0  0  0  0  0  0  0  0  0  0  0  0
    5.5179   -1.7540   -0.6089 H   0  0  0  0  0  0  0  0  0  0  0  0
    4.5215   -1.0904   -1.9560 H   0  0  0  0  0  0  0  0  0  0  0  0
  1  4  2  0  0  0  0
  1  5  2  0  0  0  0
  1  7  1  0  0  0  0
  1 18  1  0  0  0  0
  2 10  1  0  0  0  0
  2 11  1  0  0  0  0
  3  9  1  0  0  0  0
  3 38  1  0  0  0  0
  6  8  1  0  0  0  0
  6 13  1  0  0  0  0
  6 24  1  0  0  0  0
  7 14  1  0  0  0  0
  7 39  1  0  0  0  0
  8  9  1  0  0  0  0
  8 11  1  0  0  0  0
  8 19  1  0  0  0  0
  9 10  1  0  0  0  0
  9 20  1  0  0  0  0
 10 14  1  0  0  0  0
 10 21  1  0  0  0  0
 11 22  1  0  0  0  0
 11 23  1  0  0  0  0
 12 13  1  0  0  0  0
 12 15  1  0  0  0  0
 12 16  1  0  0  0  0
 12 17  1  0  0  0  0
 13 25  1  0  0  0  0
 13 26  1  0  0  0  0
 14 27  1  0  0  0  0
 14 28  1  0  0  0  0
 15 29  1  0  0  0  0
 15 30  1  0  0  0  0
 15 31  1  0  0  0  0
 16 32  1  0  0  0  0
 16 33  1  0  0  0  0
 16 34  1  0  0  0  0
 17 35  1  0  0  0  0
 17 36  1  0  0  0  0
 17 37  1  0  0  0  0
 18 40  1  0  0  0  0
 18 41  1  0  0  0  0
 18 42  1  0  0  0  0
M  END
> <PUBCHEM_COMPOUND_CID>
75367093

> <PUBCHEM_CONFORMER_RMSD>
1

> <PUBCHEM_CONFORMER_DIVERSEORDER>
1
77
69
11
96
94
35
60
70
14
46
72
23
76
5
15
22
68
92
61
17
47
100
31
18
34
99
51
40
42
101
90
80
88
89
86
78
91
84
49
41
32
27
64
2
16
30
8
85
98
25
74
97
59
66
39
20
3
44
79
45
12
13
43
28
7
75
83
9
56
19
73
48
36
82
6
37
57
54
95
58
62
33
53
55
29
93
10
65
24
63
4
87
50
67
81
38
71
102
52
26
21

> <PUBCHEM_MMFF94_PARTIAL_CHARGES>
17
1 1.33
10 0.28
11 0.28
13 0.27
14 0.36
18 0.11
2 -0.56
24 0.36
3 -0.68
38 0.4
39 0.42
4 -0.65
5 -0.65
6 -0.9
7 -0.91
8 0.27
9 0.28

> <PUBCHEM_EFFECTIVE_ROTOR_COUNT>
7

> <PUBCHEM_PHARMACOPHORE_FEATURES>
10
1 2 acceptor
1 3 acceptor
1 3 donor
1 4 acceptor
1 5 acceptor
1 6 cation
1 6 donor
1 7 donor
4 12 15 16 17 hydrophobe
5 2 8 9 10 11 rings

> <PUBCHEM_HEAVY_ATOM_COUNT>
18

> <PUBCHEM_ATOM_DEF_STEREO_COUNT>
3

> <PUBCHEM_ATOM_UDEF_STEREO_COUNT>
0

> <PUBCHEM_BOND_DEF_STEREO_COUNT>
0

> <PUBCHEM_BOND_UDEF_STEREO_COUNT>
0

> <PUBCHEM_ISOTOPIC_ATOM_COUNT>
0

> <PUBCHEM_COMPONENT_COUNT>
1

> <PUBCHEM_CACTVS_TAUTO_COUNT>
1

> <PUBCHEM_CONFORMER_ID>
047E02B500000001

> <PUBCHEM_MMFF94_ENERGY>
30.5783

> <PUBCHEM_FEATURE_SELFOVERLAP>
50.764

> <PUBCHEM_SHAPE_FINGERPRINT>
106641 1 11386662835489096364
11089746 13 17749103418127032620
11287383 113 17748831834059110713
117890 112 16660362567190603156
11796584 16 14045739314039767837
12236239 1 17418376878812069025
12507557 5 14490475275349167847
12596602 18 12179848303084241620
12670543 26 18131073692738186036
12714333 28 18410572885719094168
12969540 114 18337941350922142023
13533116 47 18342456985934690082
14251718 22 18131068259720568567
14528608 73 18409449197820479884
14911166 2 18273214209538755130
15048467 5 18040997340809689061
15099037 51 18412545435327964096
17834072 33 18202561812915114997
187816 3 18131915961631691402
200 152 16487257672616473706
20281389 69 17095521794474389373
20621476 66 18340211804486104201
20645477 70 18130793304837192110
21150785 3 17417804084603876613
21267235 1 18131351951797449615
21637258 2 14261344717882957044
22079108 93 16081091510363771328
23035841 295 17704073976100138803
23402539 116 18272367581200787941
23402655 69 18271802381327932217
23536379 177 16056883515599687865
23559900 14 17632004351389206664
26918003 58 10807933778144900221
2767999 5 18334290976676423572
2838139 119 17603860117740577973
2916195 48 16950280715466669245
293599 30 18409448089571373898
29717793 49 17418100880171848948
3004659 81 18272092665478155222
3759504 43 18040718103558912939
4340502 62 16805324383541266258
4463277 17 18060421300509889809
465052 167 9799691519574298096
5374978 207 8358258121189867254
542803 24 17675924295984144291

> <PUBCHEM_SHAPE_MULTIPOLES>
340.84
15.17
1.5
1.09
1.97
0.46
0.29
-3.71
3.48
0.04
0.14
-0.05
-0.21
0.13

> <PUBCHEM_SHAPE_SELFOVERLAP>
652.325

> <PUBCHEM_SHAPE_VOLUME>
212.7

> <PUBCHEM_COORDINATE_TYPE>
2
5
10

$$$$
