75367111
  -OEChem-12032416393D

 47 48  0     1  0  0  0  0  0999 V2000
   -0.3448   -0.9048    0.2908 O   0  0  0  0  0  0  0  0  0  0  0  0
   -1.6107    2.4204   -0.2052 O   0  0  0  0  0  0  0  0  0  0  0  0
    2.9991    1.9610   -0.4915 O   0  0  0  0  0  0  0  0  0  0  0  0
   -3.8065    0.2079    0.1937 N   0  0  0  0  0  0  0  0  0  0  0  0
    2.1634    0.3416    0.9445 N   0  0  0  0  0  0  0  0  0  0  0  0
    6.7288   -1.3638   -0.3850 N   0  0  0  0  0  0  0  0  0  0  0  0
   -2.4218    0.1180   -0.2400 C   0  0  1  0  0  0  0  0  0  0  0  0
   -1.5135    1.1482    0.4052 C   0  0  1  0  0  0  0  0  0  0  0  0
   -0.1468    0.5147    0.1826 C   0  0  1  0  0  0  0  0  0  0  0  0
   -1.7525   -1.1796    0.1825 C   0  0  0  0  0  0  0  0  0  0  0  0
   -6.1693   -0.5645   -0.2456 C   0  0  0  0  0  0  0  0  0  0  0  0
   -4.6828   -0.5573   -0.6853 C   0  0  0  0  0  0  0  0  0  0  0  0
    0.8955    0.9659    1.1903 C   0  0  0  0  0  0  0  0  0  0  0  0
   -6.3229   -1.0877    1.1936 C   0  0  0  0  0  0  0  0  0  0  0  0
   -7.0166   -1.4317   -1.1931 C   0  0  0  0  0  0  0  0  0  0  0  0
   -6.6962    0.8822   -0.2990 C   0  0  0  0  0  0  0  0  0  0  0  0
    3.1283    0.8982    0.1104 C   0  0  0  0  0  0  0  0  0  0  0  0
    4.3787    0.1145   -0.0608 C   0  0  0  0  0  0  0  0  0  0  0  0
    5.1286    0.2420   -1.2248 C   0  0  0  0  0  0  0  0  0  0  0  0
    4.8026   -0.7513    0.9413 C   0  0  0  0  0  0  0  0  0  0  0  0
    6.2853   -0.5125   -1.3370 C   0  0  0  0  0  0  0  0  0  0  0  0
    5.9740   -1.4613    0.7323 C   0  0  0  0  0  0  0  0  0  0  0  0
   -2.3566    0.2432   -1.3301 H   0  0  0  0  0  0  0  0  0  0  0  0
   -1.7318    1.2520    1.4754 H   0  0  0  0  0  0  0  0  0  0  0  0
    0.2141    0.7174   -0.8344 H   0  0  0  0  0  0  0  0  0  0  0  0
   -2.0912   -1.5218    1.1673 H   0  0  0  0  0  0  0  0  0  0  0  0
   -1.9082   -1.9897   -0.5364 H   0  0  0  0  0  0  0  0  0  0  0  0
   -4.0926    1.1860    0.1871 H   0  0  0  0  0  0  0  0  0  0  0  0
   -4.6160   -0.1656   -1.7092 H   0  0  0  0  0  0  0  0  0  0  0  0
   -4.3419   -1.5999   -0.7234 H   0  0  0  0  0  0  0  0  0  0  0  0
    0.6016    0.6744    2.2047 H   0  0  0  0  0  0  0  0  0  0  0  0
    1.0143    2.0543    1.1623 H   0  0  0  0  0  0  0  0  0  0  0  0
   -7.3777   -1.1206    1.4898 H   0  0  0  0  0  0  0  0  0  0  0  0
   -5.9204   -2.1027    1.2848 H   0  0  0  0  0  0  0  0  0  0  0  0
   -5.8012   -0.4538    1.9187 H   0  0  0  0  0  0  0  0  0  0  0  0
   -8.0735   -1.4241   -0.9042 H   0  0  0  0  0  0  0  0  0  0  0  0
   -6.6744   -2.4725   -1.1820 H   0  0  0  0  0  0  0  0  0  0  0  0
   -6.9492   -1.0692   -2.2249 H   0  0  0  0  0  0  0  0  0  0  0  0
   -6.5431    1.3249   -1.2898 H   0  0  0  0  0  0  0  0  0  0  0  0
   -7.7722    0.9120   -0.0900 H   0  0  0  0  0  0  0  0  0  0  0  0
   -6.2130    1.5296    0.4403 H   0  0  0  0  0  0  0  0  0  0  0  0
   -1.4175    2.3204   -1.1528 H   0  0  0  0  0  0  0  0  0  0  0  0
    2.3080   -0.5733    1.3582 H   0  0  0  0  0  0  0  0  0  0  0  0
    4.8309    0.9024   -2.0322 H   0  0  0  0  0  0  0  0  0  0  0  0
    4.2784   -0.8740    1.8820 H   0  0  0  0  0  0  0  0  0  0  0  0
    6.9050   -0.4503   -2.2254 H   0  0  0  0  0  0  0  0  0  0  0  0
    6.3517   -2.1445    1.4859 H   0  0  0  0  0  0  0  0  0  0  0  0
  1  9  1  0  0  0  0
  1 10  1  0  0  0  0
  2  8  1  0  0  0  0
  2 42  1  0  0  0  0
  3 17  2  0  0  0  0
  4  7  1  0  0  0  0
  4 12  1  0  0  0  0
  4 28  1  0  0  0  0
  5 13  1  0  0  0  0
  5 17  1  0  0  0  0
  5 43  1  0  0  0  0
  6 21  2  0  0  0  0
  6 22  1  0  0  0  0
  7  8  1  0  0  0  0
  7 10  1  0  0  0  0
  7 23  1  0  0  0  0
  8  9  1  0  0  0  0
  8 24  1  0  0  0  0
  9 13  1  0  0  0  0
  9 25  1  0  0  0  0
 10 26  1  0  0  0  0
 10 27  1  0  0  0  0
 11 12  1  0  0  0  0
 11 14  1  0  0  0  0
 11 15  1  0  0  0  0
 11 16  1  0  0  0  0
 12 29  1  0  0  0  0
 12 30  1  0  0  0  0
 13 31  1  0  0  0  0
 13 32  1  0  0  0  0
 14 33  1  0  0  0  0
 14 34  1  0  0  0  0
 14 35  1  0  0  0  0
 15 36  1  0  0  0  0
 15 37  1  0  0  0  0
 15 38  1  0  0  0  0
 16 39  1  0  0  0  0
 16 40  1  0  0  0  0
 16 41  1  0  0  0  0
 17 18  1  0  0  0  0
 18 19  2  0  0  0  0
 18 20  1  0  0  0  0
 19 21  1  0  0  0  0
 19 44  1  0  0  0  0
 20 22  2  0  0  0  0
 20 45  1  0  0  0  0
 21 46  1  0  0  0  0
 22 47  1  0  0  0  0
M  END
> <PUBCHEM_COMPOUND_CID>
75367111

> <PUBCHEM_CONFORMER_RMSD>
0.8

> <PUBCHEM_CONFORMER_DIVERSEORDER>
1
59
45
13
94
46
28
93
70
53
29
79
87
24
77
36
92
62
6
97
95
19
65
37
34
44
84
12
76
71
73
85
89
74
82
54
48
38
10
66
67
52
56
78
60
81
43
41
27
25
18
33
86
69
63
68
17
11
91
2
58
47
88
4
72
61
31
35
40
39
21
23
50
75
51
55
42
90
26
32
8
14
80
16
9
83
57
15
30
3
64
49
20
96
5
22
7

> <PUBCHEM_MMFF94_PARTIAL_CHARGES>
25
1 -0.56
10 0.28
12 0.27
13 0.3
17 0.54
18 0.09
19 -0.15
2 -0.68
20 -0.15
21 0.16
22 0.16
28 0.36
3 -0.57
4 -0.9
42 0.4
43 0.37
44 0.15
45 0.15
46 0.15
47 0.15
5 -0.73
6 -0.62
7 0.27
8 0.28
9 0.28

> <PUBCHEM_EFFECTIVE_ROTOR_COUNT>
8

> <PUBCHEM_PHARMACOPHORE_FEATURES>
11
1 1 acceptor
1 2 acceptor
1 2 donor
1 3 acceptor
1 4 cation
1 4 donor
1 5 donor
1 6 acceptor
4 11 14 15 16 hydrophobe
5 1 7 8 9 10 rings
6 6 18 19 20 21 22 rings

> <PUBCHEM_HEAVY_ATOM_COUNT>
22

> <PUBCHEM_ATOM_DEF_STEREO_COUNT>
3

> <PUBCHEM_ATOM_UDEF_STEREO_COUNT>
0

> <PUBCHEM_BOND_DEF_STEREO_COUNT>
0

> <PUBCHEM_BOND_UDEF_STEREO_COUNT>
0

> <PUBCHEM_ISOTOPIC_ATOM_COUNT>
0

> <PUBCHEM_COMPONENT_COUNT>
1

> <PUBCHEM_CACTVS_TAUTO_COUNT>
2

> <PUBCHEM_CONFORMER_ID>
047E02C700000001

> <PUBCHEM_MMFF94_ENERGY>
50.8425

> <PUBCHEM_FEATURE_SELFOVERLAP>
55.821

> <PUBCHEM_SHAPE_FINGERPRINT>
10 15 12247674985195040874
106641 1 9655568630880329285
11524674 6 16773794814395419455
117890 112 7853576815819211129
11963148 33 18412819196623812535
12166972 35 17967818266513295997
12236239 1 17603586326713300533
12730499 353 14562529553271709144
12760667 363 18272371970994877299
13533116 47 18341331184368905736
13668630 136 18060422408637897462
13685833 64 17775284967427231834
13862211 1 18343016709897647467
14251752 14 18411134715134515581
14251764 18 17775568662775531624
14294032 229 18120941603306607769
14347332 77 18337948991753610708
14461889 52 10015575129650280181
14933364 13 17240483606962185303
15021287 119 15267051559002802601
15048467 5 11674876693191293239
15183329 4 18334858303064135563
15348495 7 15051440665341867791
18335252 98 17969231211800003257
21150785 3 16805326604070934590
21267235 1 18409452496703535873
21424621 283 11530748272901356559
21781051 124 18335146439820803915
220451 1 16225759723446242777
221357 26 17240480299974836260
22224240 67 12607397785423712988
23035841 295 18412544323590940811
23522609 53 18126034682457132865
23559900 14 18336825419640096816
246663 6 18411704300944407979
28498 318 18059574659592715901
29717793 49 18411140234230716660
3004659 81 18410856573099840808
3472631 163 12252197272726464778
34797466 226 15719397226142355382
4340502 62 13758359981109687444
445580 37 15791723075949076231
465052 167 18272091633862753118
5758199 1 11097849671568313477
59682541 35 10591751091646914062
59682541 52 17385715877366845978
59755656 215 18342739589606747351
59755656 520 17385439938703557731
6438161 24 18334568028475298602

> <PUBCHEM_SHAPE_MULTIPOLES>
420.2
21
1.64
1.13
6.57
0.44
0.04
-9.41
4.39
0.05
0.03
-0.42
-0.18
-0.39

> <PUBCHEM_SHAPE_SELFOVERLAP>
860.818

> <PUBCHEM_SHAPE_VOLUME>
242.1

> <PUBCHEM_COORDINATE_TYPE>
2
5
10

$$$$
