26743012
  -OEChem-12032416193D

 56 58  0     1  0  0  0  0  0999 V2000
   -2.6178    1.3389    1.3487 O   0  0  0  0  0  0  0  0  0  0  0  0
    4.6223   -1.9585    0.9067 O   0  0  0  0  0  0  0  0  0  0  0  0
    7.3434   -0.9935    0.0653 O   0  0  0  0  0  0  0  0  0  0  0  0
    2.1393    3.4395   -0.0778 N   0  0  0  0  0  0  0  0  0  0  0  0
   -3.3742    1.0431   -0.8238 N   0  0  0  0  0  0  0  0  0  0  0  0
    3.2988   -1.5781    1.0925 N   0  0  0  0  0  0  0  0  0  0  0  0
    0.0679    1.5071    0.7477 C   0  0  1  0  0  0  0  0  0  0  0  0
    1.5085    1.0812    0.3769 C   0  0  2  0  0  0  0  0  0  0  0  0
    0.0808    2.9750    1.2062 C   0  0  0  0  0  0  0  0  0  0  0  0
    2.1600    2.0732   -0.6014 C   0  0  0  0  0  0  0  0  0  0  0  0
   -0.9539    1.2954   -0.3758 C   0  0  0  0  0  0  0  0  0  0  0  0
    0.7790    3.8930    0.2038 C   0  0  0  0  0  0  0  0  0  0  0  0
    1.5899   -0.3445   -0.1702 C   0  0  0  0  0  0  0  0  0  0  0  0
    2.9718   -0.9109   -0.0179 C   0  0  0  0  0  0  0  0  0  0  0  0
   -2.3805    1.2302    0.1428 C   0  0  0  0  0  0  0  0  0  0  0  0
    4.0383   -0.8388   -0.9308 C   0  0  0  0  0  0  0  0  0  0  0  0
   -4.7925    0.9595   -0.4830 C   0  0  0  0  0  0  0  0  0  0  0  0
    5.0515   -1.5125   -0.3015 C   0  0  0  0  0  0  0  0  0  0  0  0
   -3.0695    0.9172   -2.2437 C   0  0  0  0  0  0  0  0  0  0  0  0
   -5.2104   -0.4454   -0.1576 C   0  0  0  0  0  0  0  0  0  0  0  0
    6.4387   -1.8292   -0.6619 C   0  0  0  0  0  0  0  0  0  0  0  0
   -5.6726   -1.2872   -1.1692 C   0  0  0  0  0  0  0  0  0  0  0  0
   -5.1365   -0.9087    1.1558 C   0  0  0  0  0  0  0  0  0  0  0  0
   -6.0609   -2.5926   -0.8673 C   0  0  0  0  0  0  0  0  0  0  0  0
   -5.5248   -2.2139    1.4579 C   0  0  0  0  0  0  0  0  0  0  0  0
   -5.9870   -3.0559    0.4464 C   0  0  0  0  0  0  0  0  0  0  0  0
    8.6905   -1.2837   -0.2687 C   0  0  0  0  0  0  0  0  0  0  0  0
   -0.2290    0.8921    1.6086 H   0  0  0  0  0  0  0  0  0  0  0  0
    2.0885    1.1227    1.3123 H   0  0  0  0  0  0  0  0  0  0  0  0
    0.6062    3.0379    2.1688 H   0  0  0  0  0  0  0  0  0  0  0  0
   -0.9345    3.3434    1.3894 H   0  0  0  0  0  0  0  0  0  0  0  0
    3.2087    1.8115   -0.7696 H   0  0  0  0  0  0  0  0  0  0  0  0
    1.6637    2.0409   -1.5792 H   0  0  0  0  0  0  0  0  0  0  0  0
   -0.7724    0.3359   -0.8690 H   0  0  0  0  0  0  0  0  0  0  0  0
   -0.8747    2.0913   -1.1212 H   0  0  0  0  0  0  0  0  0  0  0  0
    0.2057    3.9778   -0.7258 H   0  0  0  0  0  0  0  0  0  0  0  0
    0.8311    4.9018    0.6287 H   0  0  0  0  0  0  0  0  0  0  0  0
    1.3063   -0.3822   -1.2291 H   0  0  0  0  0  0  0  0  0  0  0  0
    0.8899   -0.9963    0.3690 H   0  0  0  0  0  0  0  0  0  0  0  0
    2.5706    4.0672   -0.7557 H   0  0  0  0  0  0  0  0  0  0  0  0
    4.0681   -0.3703   -1.9034 H   0  0  0  0  0  0  0  0  0  0  0  0
   -5.3955    1.3729   -1.3006 H   0  0  0  0  0  0  0  0  0  0  0  0
   -4.9790    1.6023    0.3865 H   0  0  0  0  0  0  0  0  0  0  0  0
   -3.3962   -0.0679   -2.5882 H   0  0  0  0  0  0  0  0  0  0  0  0
   -2.0179    1.0239   -2.5025 H   0  0  0  0  0  0  0  0  0  0  0  0
   -3.6258    1.6874   -2.7876 H   0  0  0  0  0  0  0  0  0  0  0  0
    6.5907   -1.6752   -1.7368 H   0  0  0  0  0  0  0  0  0  0  0  0
    6.6511   -2.8804   -0.4331 H   0  0  0  0  0  0  0  0  0  0  0  0
   -5.7396   -0.9380   -2.1960 H   0  0  0  0  0  0  0  0  0  0  0  0
   -4.7835   -0.2642    1.9560 H   0  0  0  0  0  0  0  0  0  0  0  0
   -6.4218   -3.2478   -1.6547 H   0  0  0  0  0  0  0  0  0  0  0  0
   -5.4683   -2.5744    2.4808 H   0  0  0  0  0  0  0  0  0  0  0  0
   -6.2898   -4.0720    0.6816 H   0  0  0  0  0  0  0  0  0  0  0  0
    9.3398   -0.6222    0.3112 H   0  0  0  0  0  0  0  0  0  0  0  0
    8.8714   -1.1028   -1.3327 H   0  0  0  0  0  0  0  0  0  0  0  0
    8.9355   -2.3199   -0.0159 H   0  0  0  0  0  0  0  0  0  0  0  0
  1 15  2  0  0  0  0
  2  6  1  0  0  0  0
  2 18  1  0  0  0  0
  3 21  1  0  0  0  0
  3 27  1  0  0  0  0
  4 10  1  0  0  0  0
  4 12  1  0  0  0  0
  4 40  1  0  0  0  0
  5 15  1  0  0  0  0
  5 17  1  0  0  0  0
  5 19  1  0  0  0  0
  6 14  2  0  0  0  0
  7  8  1  0  0  0  0
  7  9  1  0  0  0  0
  7 11  1  0  0  0  0
  7 28  1  0  0  0  0
  8 10  1  0  0  0  0
  8 13  1  0  0  0  0
  8 29  1  0  0  0  0
  9 12  1  0  0  0  0
  9 30  1  0  0  0  0
  9 31  1  0  0  0  0
 10 32  1  0  0  0  0
 10 33  1  0  0  0  0
 11 15  1  0  0  0  0
 11 34  1  0  0  0  0
 11 35  1  0  0  0  0
 12 36  1  0  0  0  0
 12 37  1  0  0  0  0
 13 14  1  0  0  0  0
 13 38  1  0  0  0  0
 13 39  1  0  0  0  0
 14 16  1  0  0  0  0
 16 18  2  0  0  0  0
 16 41  1  0  0  0  0
 17 20  1  0  0  0  0
 17 42  1  0  0  0  0
 17 43  1  0  0  0  0
 18 21  1  0  0  0  0
 19 44  1  0  0  0  0
 19 45  1  0  0  0  0
 19 46  1  0  0  0  0
 20 22  2  0  0  0  0
 20 23  1  0  0  0  0
 21 47  1  0  0  0  0
 21 48  1  0  0  0  0
 22 24  1  0  0  0  0
 22 49  1  0  0  0  0
 23 25  2  0  0  0  0
 23 50  1  0  0  0  0
 24 26  2  0  0  0  0
 24 51  1  0  0  0  0
 25 26  1  0  0  0  0
 25 52  1  0  0  0  0
 26 53  1  0  0  0  0
 27 54  1  0  0  0  0
 27 55  1  0  0  0  0
 27 56  1  0  0  0  0
M  END
> <PUBCHEM_COMPOUND_CID>
26743012

> <PUBCHEM_CONFORMER_RMSD>
1

> <PUBCHEM_CONFORMER_DIVERSEORDER>
1
56
156
73
227
12
191
210
49
174
162
46
66
243
121
122
134
201
233
28
59
115
159
205
212
142
51
153
192
130
177
240
125
62
184
25
254
17
211
214
189
10
166
222
36
92
21
220
148
42
106
140
225
127
252
231
257
108
178
85
143
58
77
163
196
164
98
190
258
221
118
107
216
182
34
53
95
246
209
160
193
183
249
256
137
266
269
22
224
45
204
84
113
197
27
213
168
158
89
215
244
111
131
60
70
223
91
195
161
226
7
14
203
79
13
173
262
86
245
128
255
47
81
260
217
194
165
132
136
167
76
176
135
146
61
117
90
3
250
26
31
239
150
102
199
74
35
133
41
230
218
202
69
103
123
268
104
152
207
172
138
155
179
23
237
37
43
120
267
24
105
116
88
63
171
11
154
39
20
157
30
97
232
200
141
234
126
186
149
236
57
48
170
32
119
64
144
219
2
44
38
241
72
265
114
235
93
99
96
8
6
251
33
55
9
100
110
5
87
67
242
151
185
4
109
54
83
261
247
147
248
129
94
71
112
65
229
52
253
145
16
78
263
238
228
181
82
15
68
187
169
75
188
206
19
50
198
40
175
259
124
101
264
80
18
208
29
180
139

> <PUBCHEM_MMFF94_PARTIAL_CHARGES>
31
1 -0.57
10 0.27
11 0.06
12 0.27
13 0.18
14 0.11
15 0.57
16 -0.15
17 0.44
18 -0.04
19 0.3
2 -0.02
20 -0.14
21 0.46
22 -0.15
23 -0.15
24 -0.15
25 -0.15
26 -0.15
27 0.28
3 -0.56
4 -0.9
40 0.36
41 0.15
49 0.15
5 -0.66
50 0.15
51 0.15
52 0.15
53 0.15
6 -0.41

> <PUBCHEM_EFFECTIVE_ROTOR_COUNT>
10.2

> <PUBCHEM_PHARMACOPHORE_FEATURES>
8
1 1 acceptor
1 3 acceptor
1 4 cation
1 4 donor
1 6 acceptor
5 2 6 14 16 18 rings
6 20 22 23 24 25 26 rings
6 4 7 8 9 10 12 rings

> <PUBCHEM_HEAVY_ATOM_COUNT>
27

> <PUBCHEM_ATOM_DEF_STEREO_COUNT>
2

> <PUBCHEM_ATOM_UDEF_STEREO_COUNT>
0

> <PUBCHEM_BOND_DEF_STEREO_COUNT>
0

> <PUBCHEM_BOND_UDEF_STEREO_COUNT>
0

> <PUBCHEM_ISOTOPIC_ATOM_COUNT>
0

> <PUBCHEM_COMPONENT_COUNT>
1

> <PUBCHEM_CACTVS_TAUTO_COUNT>
1

> <PUBCHEM_CONFORMER_ID>
019810E400000001

> <PUBCHEM_MMFF94_ENERGY>
52.0308

> <PUBCHEM_FEATURE_SELFOVERLAP>
40.597

> <PUBCHEM_SHAPE_FINGERPRINT>
11315621 136 18336548308444675539
12107183 9 18271258119157440457
12166972 35 18114186332760907500
12373685 5 15430032159340463632
12422481 6 16773806861598946509
12633257 1 17845663672140834607
13009979 54 17989211429784509785
1361 87 18041561442558722723
13673619 4 18260832613936649357
13690498 29 18186517683935631757
13740256 8 18410573972482963517
13782708 43 18113615715773806581
13955234 65 18055070132142471545
14251740 57 18271800263249809112
14251751 18 18335422374426202919
14950920 106 18059021708861561395
15510800 12 18116150150997281051
16991971 28 18342463638680185446
17492 89 18339641265378107665
17686467 74 18342450423451028280
17780758 139 17775008960355450011
19319366 153 17624977527565054357
19427546 20 18192714445217730900
19841028 212 18195240256141222479
20567600 70 18410293605628972818
21196832 93 18187653552050761162
21344244 246 18262523718829557780
21756936 100 7925613502051859608
21774942 28 13118268245045523254
21796203 349 17916601953923180531
22393880 68 17895180122404674481
2260408 40 16773533091482562166
23559900 14 18262230127781519437
249057 3 18337108965724960933
2747138 104 18273209777955503712
2748736 6 8574429794511492431
2838139 119 8213847176759170218
439807 62 18260554450496125543
484989 97 18187655759727027666
5104073 3 17988649627299207897
5486654 36 18411989040238688649
57724786 102 8573896592286994591
6673363 416 18272098167922455812
7495541 125 18335703857575960981
7970288 3 18340487755343854102
8863177 126 18336828697095652379
9981440 41 9943518644293968525
999808 66 18060422387100036806

> <PUBCHEM_SHAPE_MULTIPOLES>
523.1
19.65
3.96
1.33
17.4
2.35
-0.19
-23.06
-1.62
-0.33
0.66
-1.55
-0.02
0.75

> <PUBCHEM_SHAPE_SELFOVERLAP>
1085.583

> <PUBCHEM_SHAPE_VOLUME>
297.5

> <PUBCHEM_COORDINATE_TYPE>
2
5
10

$$$$
