51136940
  -OEChem-12032416223D

 48 52  0     1  0  0  0  0  0999 V2000
    5.9454   -0.6044   -0.8834 F   0  0  0  0  0  0  0  0  0  0  0  0
   -0.9635   -2.3203    1.6213 O   0  0  0  0  0  0  0  0  0  0  0  0
   -3.1962   -0.3836   -0.5626 N   0  0  1  0  0  0  0  0  0  0  0  0
   -0.3905    2.2771    1.8064 N   0  0  0  0  0  0  0  0  0  0  0  0
   -0.3478   -1.2099   -0.2239 N   0  0  0  0  0  0  0  0  0  0  0  0
    0.4365   -2.2811    1.6393 N   0  0  0  0  0  0  0  0  0  0  0  0
    3.0390   -1.7782    0.9425 N   0  0  0  0  0  0  0  0  0  0  0  0
   -2.8334   -1.5703    0.2378 C   0  0  1  0  0  0  0  0  0  0  0  0
   -3.3791   -2.7654   -0.5652 C   0  0  0  0  0  0  0  0  0  0  0  0
   -4.4035   -0.7410   -1.3077 C   0  0  0  0  0  0  0  0  0  0  0  0
   -4.0837   -2.1496   -1.7657 C   0  0  0  0  0  0  0  0  0  0  0  0
   -3.3839    0.8166    0.2423 C   0  0  0  0  0  0  0  0  0  0  0  0
   -1.3437   -1.6679    0.4917 C   0  0  0  0  0  0  0  0  0  0  0  0
   -2.0712    1.4543    0.6125 C   0  0  0  0  0  0  0  0  0  0  0  0
   -1.0748    1.9255   -0.2877 C   0  0  0  0  0  0  0  0  0  0  0  0
   -1.6215    1.6843    1.8923 C   0  0  0  0  0  0  0  0  0  0  0  0
   -0.0313    2.4367    0.4869 C   0  0  0  0  0  0  0  0  0  0  0  0
   -0.9604    1.9662   -1.6914 C   0  0  0  0  0  0  0  0  0  0  0  0
    1.1256    2.9888   -0.0744 C   0  0  0  0  0  0  0  0  0  0  0  0
    0.7240   -1.6103    0.5198 C   0  0  0  0  0  0  0  0  0  0  0  0
    0.4056    2.6727    2.9480 C   0  0  0  0  0  0  0  0  0  0  0  0
    0.1911    2.5156   -2.2669 C   0  0  0  0  0  0  0  0  0  0  0  0
    1.2169    3.0184   -1.4689 C   0  0  0  0  0  0  0  0  0  0  0  0
    2.0703   -1.3251    0.1153 C   0  0  0  0  0  0  0  0  0  0  0  0
    2.3148   -0.6268   -1.0562 C   0  0  0  0  0  0  0  0  0  0  0  0
    3.6386   -0.3776   -1.4011 C   0  0  0  0  0  0  0  0  0  0  0  0
    4.3134   -1.5170    0.5745 C   0  0  0  0  0  0  0  0  0  0  0  0
    4.6630   -0.8279   -0.5755 C   0  0  0  0  0  0  0  0  0  0  0  0
   -3.3502   -1.5583    1.2077 H   0  0  0  0  0  0  0  0  0  0  0  0
   -2.6064   -3.4718   -0.8878 H   0  0  0  0  0  0  0  0  0  0  0  0
   -4.1062   -3.3170    0.0432 H   0  0  0  0  0  0  0  0  0  0  0  0
   -4.5775   -0.0722   -2.1563 H   0  0  0  0  0  0  0  0  0  0  0  0
   -5.2931   -0.7424   -0.6651 H   0  0  0  0  0  0  0  0  0  0  0  0
   -3.4031   -2.1270   -2.6259 H   0  0  0  0  0  0  0  0  0  0  0  0
   -4.9776   -2.7107   -2.0536 H   0  0  0  0  0  0  0  0  0  0  0  0
   -3.9339    1.5685   -0.3411 H   0  0  0  0  0  0  0  0  0  0  0  0
   -3.9921    0.6221    1.1351 H   0  0  0  0  0  0  0  0  0  0  0  0
   -2.0766    1.4730    2.8509 H   0  0  0  0  0  0  0  0  0  0  0  0
   -1.7500    1.5811   -2.3301 H   0  0  0  0  0  0  0  0  0  0  0  0
    1.9284    3.3805    0.5412 H   0  0  0  0  0  0  0  0  0  0  0  0
   -0.1285    2.4304    3.8703 H   0  0  0  0  0  0  0  0  0  0  0  0
    1.3515    2.1260    2.9139 H   0  0  0  0  0  0  0  0  0  0  0  0
    0.5775    3.7505    2.8922 H   0  0  0  0  0  0  0  0  0  0  0  0
    0.2853    2.5489   -3.3490 H   0  0  0  0  0  0  0  0  0  0  0  0
    2.1032    3.4391   -1.9369 H   0  0  0  0  0  0  0  0  0  0  0  0
    1.5211   -0.2813   -1.7093 H   0  0  0  0  0  0  0  0  0  0  0  0
    3.8720    0.1649   -2.3122 H   0  0  0  0  0  0  0  0  0  0  0  0
    5.0750   -1.8894    1.2515 H   0  0  0  0  0  0  0  0  0  0  0  0
  1 28  1  0  0  0  0
  2  6  1  0  0  0  0
  2 13  1  0  0  0  0
  3  8  1  0  0  0  0
  3 10  1  0  0  0  0
  3 12  1  0  0  0  0
  4 16  1  0  0  0  0
  4 17  1  0  0  0  0
  4 21  1  0  0  0  0
  5 13  2  0  0  0  0
  5 20  1  0  0  0  0
  6 20  2  0  0  0  0
  7 24  2  0  0  0  0
  7 27  1  0  0  0  0
  8  9  1  0  0  0  0
  8 13  1  0  0  0  0
  8 29  1  0  0  0  0
  9 11  1  0  0  0  0
  9 30  1  0  0  0  0
  9 31  1  0  0  0  0
 10 11  1  0  0  0  0
 10 32  1  0  0  0  0
 10 33  1  0  0  0  0
 11 34  1  0  0  0  0
 11 35  1  0  0  0  0
 12 14  1  0  0  0  0
 12 36  1  0  0  0  0
 12 37  1  0  0  0  0
 14 15  1  0  0  0  0
 14 16  2  0  0  0  0
 15 17  1  0  0  0  0
 15 18  2  0  0  0  0
 16 38  1  0  0  0  0
 17 19  2  0  0  0  0
 18 22  1  0  0  0  0
 18 39  1  0  0  0  0
 19 23  1  0  0  0  0
 19 40  1  0  0  0  0
 20 24  1  0  0  0  0
 21 41  1  0  0  0  0
 21 42  1  0  0  0  0
 21 43  1  0  0  0  0
 22 23  2  0  0  0  0
 22 44  1  0  0  0  0
 23 45  1  0  0  0  0
 24 25  1  0  0  0  0
 25 26  2  0  0  0  0
 25 46  1  0  0  0  0
 26 28  1  0  0  0  0
 26 47  1  0  0  0  0
 27 28  2  0  0  0  0
 27 48  1  0  0  0  0
M  END
> <PUBCHEM_COMPOUND_CID>
51136940

> <PUBCHEM_CONFORMER_RMSD>
0.8

> <PUBCHEM_CONFORMER_DIVERSEORDER>
1
186
46
30
165
157
64
100
82
164
49
14
175
53
87
184
48
194
192
7
176
43
172
181
135
163
81
147
168
99
142
123
174
119
58
162
21
56
62
66
166
144
137
54
12
139
140
131
79
44
199
145
111
106
59
185
23
120
2
193
80
122
13
26
129
179
60
86
141
11
152
15
178
8
169
103
61
17
67
115
68
110
39
24
160
195
116
125
191
94
143
190
71
101
96
134
85
51
128
198
22
201
127
159
97
63
104
31
88
167
155
150
55
187
65
200
197
84
57
196
148
5
153
40
170
158
102
154
105
188
70
113
91
16
121
156
92
42
173
108
189
69
9
136
89
33
161
146
4
32
133
73
75
177
3
151
19
83
180
182
203
41
50
171
37
35
10
76
117
109
28
138
74
72
27
90
149
126
78
124
34
202
38
98
47
114
132
25
112
18
77
118
95
107
52
29
36
45
6
130
20
183
93

> <PUBCHEM_MMFF94_PARTIAL_CHARGES>
33
1 -0.19
10 0.27
12 0.45
13 0.3
14 -0.18
16 -0.3
17 -0.15
18 -0.15
19 -0.15
2 -0.02
20 0.46
21 0.26
22 -0.15
23 -0.15
24 0.36
25 -0.15
26 -0.15
27 0.16
28 0.19
3 -0.81
38 0.15
39 0.15
4 0.05
40 0.15
44 0.15
45 0.15
46 0.15
47 0.15
48 0.15
5 -0.57
6 -0.41
7 -0.62
8 0.45

> <PUBCHEM_EFFECTIVE_ROTOR_COUNT>
5

> <PUBCHEM_PHARMACOPHORE_FEATURES>
9
1 3 cation
1 4 cation
1 7 acceptor
3 5 6 20 cation
5 2 5 6 13 20 rings
5 3 8 9 10 11 rings
5 4 14 15 16 17 rings
6 15 17 18 19 22 23 rings
6 7 24 25 26 27 28 rings

> <PUBCHEM_HEAVY_ATOM_COUNT>
28

> <PUBCHEM_ATOM_DEF_STEREO_COUNT>
1

> <PUBCHEM_ATOM_UDEF_STEREO_COUNT>
0

> <PUBCHEM_BOND_DEF_STEREO_COUNT>
0

> <PUBCHEM_BOND_UDEF_STEREO_COUNT>
0

> <PUBCHEM_ISOTOPIC_ATOM_COUNT>
0

> <PUBCHEM_COMPONENT_COUNT>
1

> <PUBCHEM_CACTVS_TAUTO_COUNT>
1

> <PUBCHEM_CONFORMER_ID>
030C49AC00000001

> <PUBCHEM_MMFF94_ENERGY>
46.3258

> <PUBCHEM_FEATURE_SELFOVERLAP>
45.766

> <PUBCHEM_SHAPE_FINGERPRINT>
10871710 139 18116156571271287405
1100329 8 18410866451429806281
11578080 2 18267280132684563869
12156800 1 16811742181489206492
12166972 35 17676774261496500326
12596599 1 18128552487064601988
133893 2 18190748737591048297
14142880 1 18048610221976798713
14251757 17 17824543212679002767
14910302 57 17773599308839140726
14955137 171 18129120978037570523
16090146 7 17632304484801863055
17357779 13 18341885324869291966
17492 54 18040436581289420087
17909252 39 17407393002406596975
20691752 17 18040702697721666449
20775438 99 17334185310600633751
20905425 154 17981336899441622175
21304303 64 17676213446484437285
21623110 236 18337404819951472244
23402539 116 18410856547135306774
23419403 2 17982976142245338365
23557571 272 17988646250879932214
23559900 14 18118952831747932383
392239 28 18202562869904455440
469060 322 18114192890949121424
57527295 17 17770508843888443229
57527585 103 17753368393276826930
7471813 234 18199465635358234558
81228 2 18265630805001957554

> <PUBCHEM_SHAPE_MULTIPOLES>
538.18
7.59
4.11
2.14
5.19
1.8
0.53
-6.66
-3.27
-0.54
0.46
-0.12
1.42
-1.05

> <PUBCHEM_SHAPE_SELFOVERLAP>
1195.036

> <PUBCHEM_SHAPE_VOLUME>
291.8

> <PUBCHEM_COORDINATE_TYPE>
2
5
10

$$$$
