75367142
  -OEChem-12032416393D

 32 34  0     0  0  0  0  0  0999 V2000
   -5.2340   -0.1449   -1.1363 O   0  0  0  0  0  0  0  0  0  0  0  0
    0.1800   -1.6481    0.2184 O   0  0  0  0  0  0  0  0  0  0  0  0
    4.7476    2.2401   -0.0092 O   0  0  0  0  0  0  0  0  0  0  0  0
   -3.1245    1.8120   -0.5299 N   0  0  0  0  0  0  0  0  0  0  0  0
   -1.1732   -1.5990    0.5303 N   0  0  0  0  0  0  0  0  0  0  0  0
   -3.5870    0.5430    0.0385 C   0  0  0  0  0  0  0  0  0  0  0  0
   -3.8149   -0.4519   -1.1074 C   0  0  0  0  0  0  0  0  0  0  0  0
   -5.1190    0.5781    0.1177 C   0  0  0  0  0  0  0  0  0  0  0  0
   -2.8000    0.1109    1.2486 C   0  0  0  0  0  0  0  0  0  0  0  0
   -1.4085   -0.3227    0.8481 C   0  0  0  0  0  0  0  0  0  0  0  0
   -0.2528    0.4721    0.7557 C   0  0  0  0  0  0  0  0  0  0  0  0
    0.7171   -0.4089    0.3563 C   0  0  0  0  0  0  0  0  0  0  0  0
    2.1169   -0.3013    0.0643 C   0  0  0  0  0  0  0  0  0  0  0  0
    2.7597    0.9319    0.1723 C   0  0  0  0  0  0  0  0  0  0  0  0
    2.8354   -1.4301   -0.3298 C   0  0  0  0  0  0  0  0  0  0  0  0
    4.1209    1.0365   -0.1137 C   0  0  0  0  0  0  0  0  0  0  0  0
    4.1967   -1.3255   -0.6160 C   0  0  0  0  0  0  0  0  0  0  0  0
    4.8396   -0.0924   -0.5078 C   0  0  0  0  0  0  0  0  0  0  0  0
   -3.3314   -0.2371   -2.0658 H   0  0  0  0  0  0  0  0  0  0  0  0
   -3.6676   -1.5097   -0.8650 H   0  0  0  0  0  0  0  0  0  0  0  0
   -5.5654    0.0009    0.9348 H   0  0  0  0  0  0  0  0  0  0  0  0
   -5.6051    1.5579    0.0698 H   0  0  0  0  0  0  0  0  0  0  0  0
   -3.2960   -0.7302    1.7506 H   0  0  0  0  0  0  0  0  0  0  0  0
   -2.7376    0.9161    1.9914 H   0  0  0  0  0  0  0  0  0  0  0  0
   -3.1544    2.5919    0.1259 H   0  0  0  0  0  0  0  0  0  0  0  0
   -3.6337    2.1218   -1.3571 H   0  0  0  0  0  0  0  0  0  0  0  0
   -0.1515    1.5293    0.9532 H   0  0  0  0  0  0  0  0  0  0  0  0
    2.2208    1.8260    0.4771 H   0  0  0  0  0  0  0  0  0  0  0  0
    2.3707   -2.4081   -0.4259 H   0  0  0  0  0  0  0  0  0  0  0  0
    4.7565   -2.2042   -0.9231 H   0  0  0  0  0  0  0  0  0  0  0  0
    5.9003   -0.0243   -0.7336 H   0  0  0  0  0  0  0  0  0  0  0  0
    5.6849    2.1287   -0.2439 H   0  0  0  0  0  0  0  0  0  0  0  0
  1  7  1  0  0  0  0
  1  8  1  0  0  0  0
  2  5  1  0  0  0  0
  2 12  1  0  0  0  0
  3 16  1  0  0  0  0
  3 32  1  0  0  0  0
  4  6  1  0  0  0  0
  4 25  1  0  0  0  0
  4 26  1  0  0  0  0
  5 10  2  0  0  0  0
  6  7  1  0  0  0  0
  6  8  1  0  0  0  0
  6  9  1  0  0  0  0
  7 19  1  0  0  0  0
  7 20  1  0  0  0  0
  8 21  1  0  0  0  0
  8 22  1  0  0  0  0
  9 10  1  0  0  0  0
  9 23  1  0  0  0  0
  9 24  1  0  0  0  0
 10 11  1  0  0  0  0
 11 12  2  0  0  0  0
 11 27  1  0  0  0  0
 12 13  1  0  0  0  0
 13 14  2  0  0  0  0
 13 15  1  0  0  0  0
 14 16  1  0  0  0  0
 14 28  1  0  0  0  0
 15 17  2  0  0  0  0
 15 29  1  0  0  0  0
 16 18  2  0  0  0  0
 17 18  1  0  0  0  0
 17 30  1  0  0  0  0
 18 31  1  0  0  0  0
M  END
> <PUBCHEM_COMPOUND_CID>
75367142

> <PUBCHEM_CONFORMER_RMSD>
0.6

> <PUBCHEM_CONFORMER_DIVERSEORDER>
1
73
62
26
44
53
41
30
79
34
8
71
13
60
43
52
76
16
68
61
74
64
31
12
35
69
36
59
49
48
56
29
75
25
50
42
24
28
72
77
32
23
57
54
46
27
63
58
65
21
47
39
51
70
55
45
15
40
37
11
67
22
33
18
78
10
7
66
38
3
20
2
17
14
6
9
4
5
19

> <PUBCHEM_MMFF94_PARTIAL_CHARGES>
26
1 -0.52
10 0.11
11 -0.15
12 0.09
13 0.05
14 -0.15
15 -0.15
16 0.08
17 -0.15
18 -0.15
2 -0.02
25 0.36
26 0.36
27 0.15
28 0.15
29 0.15
3 -0.53
30 0.15
31 0.15
32 0.45
4 -0.93
5 -0.41
6 0.21
7 0.26
8 0.26
9 0.18

> <PUBCHEM_EFFECTIVE_ROTOR_COUNT>
3.8

> <PUBCHEM_PHARMACOPHORE_FEATURES>
8
1 1 acceptor
1 3 donor
1 4 cation
1 4 donor
1 5 acceptor
4 1 6 7 8 rings
5 2 5 10 11 12 rings
6 13 14 15 16 17 18 rings

> <PUBCHEM_HEAVY_ATOM_COUNT>
18

> <PUBCHEM_ATOM_DEF_STEREO_COUNT>
0

> <PUBCHEM_ATOM_UDEF_STEREO_COUNT>
0

> <PUBCHEM_BOND_DEF_STEREO_COUNT>
0

> <PUBCHEM_BOND_UDEF_STEREO_COUNT>
0

> <PUBCHEM_ISOTOPIC_ATOM_COUNT>
0

> <PUBCHEM_COMPONENT_COUNT>
1

> <PUBCHEM_CACTVS_TAUTO_COUNT>
3

> <PUBCHEM_CONFORMER_ID>
047E02E600000001

> <PUBCHEM_MMFF94_ENERGY>
39.3206

> <PUBCHEM_FEATURE_SELFOVERLAP>
40.596

> <PUBCHEM_SHAPE_FINGERPRINT>
10014705 185 18187929533462846778
10354089 29 11819282152621829046
11089746 13 18260824900122664106
11128504 68 18131631196720600693
11471102 20 18413112753959373186
11543360 7 18131349713106534667
12236239 1 17632578227581120771
12251169 10 11386374737704496099
12403259 415 18114464474674359829
12403260 363 18340767023176165128
12507557 5 16443353087167509957
12670546 177 18201999932345279679
12916748 109 18114184124931445481
12969540 114 17968084335536949351
13081056 2 18334579022842288341
13167823 11 17989205923641230095
13583140 156 16732986452798520817
13675066 3 17676780845870814194
13760787 5 18130798844848644595
14251757 5 17201911755133108911
14252887 29 10592042445143227174
14455015 7 10952058857256359484
14528608 73 18272652376487996244
15209294 21 13479131285464369535
15375358 24 18334580165767644050
15475509 84 12613015190166965254
17834072 33 18060137652131806758
17959699 21 18410575071884029456
1813 80 13470685957783393803
18186145 218 18334577919051459227
193927 3 13470690381736819103
200 152 17632578231865649106
20300324 65 18202846543809592401
20432913 95 10231754491737700957
20645477 56 18113903787841363482
20645477 70 18272940380079020358
212916 134 16370721551874678960
21503847 285 15574725707295784014
21637258 2 15697702780190895405
221357 26 18341327812603326517
231179 274 17675922092739807042
23402539 116 17417814989319983000
23402655 69 18201721721443525873
23557571 272 17458645410016768891
23559900 14 18412548713179535714
29717793 49 17346325864722093388
314173 85 13183021817646710107
341906 21 16515683333870942508
351380 180 18334011683395406292
3545911 37 18113907064954313834
4028521 119 18040429967409166189
42 15 8718828695204505707
495365 180 18131625712754213322
5281201 14 18339647737371427796
542803 24 18202005412828992273
5924683 9 10954041285786376417
633830 44 18338237068200498387
69090 78 18412826884603676534
88748 71 10590672458172220452

> <PUBCHEM_SHAPE_MULTIPOLES>
342.86
11.77
1.62
0.97
2.21
0.26
0
2.73
3.43
-1.47
0.09
0.85
-0.07
0.17

> <PUBCHEM_SHAPE_SELFOVERLAP>
744.575

> <PUBCHEM_SHAPE_VOLUME>
189.6

> <PUBCHEM_COORDINATE_TYPE>
2
5
10

$$$$
