38027350
  -OEChem-12032416143D

 64 65  0     1  0  0  0  0  0999 V2000
   -2.8802    2.4809   -0.0152 O   0  0  0  0  0  0  0  0  0  0  0  0
    3.3401   -1.4309   -1.3673 O   0  0  0  0  0  0  0  0  0  0  0  0
    1.4070   -6.0103   -0.4184 O   0  0  0  0  0  0  0  0  0  0  0  0
    1.1332   -4.8871    1.5365 O   0  0  0  0  0  0  0  0  0  0  0  0
   -3.2176    0.2352    0.4782 N   0  0  0  0  0  0  0  0  0  0  0  0
    3.0465   -0.2271    0.6012 N   0  0  0  0  0  0  0  0  0  0  0  0
    1.4325    1.9176   -0.7550 C   0  0  1  0  0  0  0  0  0  0  0  0
    2.5945    2.1429    0.2446 C   0  0  1  0  0  0  0  0  0  0  0  0
    0.2283    2.7966   -0.3843 C   0  0  0  0  0  0  0  0  0  0  0  0
   -0.2882    2.5077    1.0378 C   0  0  2  0  0  0  0  0  0  0  0  0
    1.8597    2.2047   -2.1978 C   0  0  0  0  0  0  0  0  0  0  0  0
    0.8415    2.4476    2.0458 C   0  0  0  0  0  0  0  0  0  0  0  0
    2.1247    2.2977    1.6721 C   0  0  0  0  0  0  0  0  0  0  0  0
   -1.1228    1.2225    1.0718 C   0  0  0  0  0  0  0  0  0  0  0  0
    3.6207    1.0070    0.1651 C   0  0  0  0  0  0  0  0  0  0  0  0
   -4.5564    0.1249   -0.0464 C   0  0  0  0  0  0  0  0  0  0  0  0
    0.9744    1.4405   -3.1769 C   0  0  0  0  0  0  0  0  0  0  0  0
    1.8098    3.7030   -2.4793 C   0  0  0  0  0  0  0  0  0  0  0  0
   -5.3487   -0.9679    0.6596 C   0  0  0  0  0  0  0  0  0  0  0  0
   -4.5618   -0.3385   -1.4983 C   0  0  0  0  0  0  0  0  0  0  0  0
   -2.4872    1.4141    0.4489 C   0  0  0  0  0  0  0  0  0  0  0  0
    0.4671    2.6097    3.4928 C   0  0  0  0  0  0  0  0  0  0  0  0
   -4.9158   -2.2603   -0.0272 C   0  0  0  0  0  0  0  0  0  0  0  0
   -4.4503   -1.8605   -1.4276 C   0  0  0  0  0  0  0  0  0  0  0  0
    2.9490   -1.3622   -0.2054 C   0  0  0  0  0  0  0  0  0  0  0  0
    2.2938   -2.5237    0.5203 C   0  0  0  0  0  0  0  0  0  0  0  0
    2.1829   -3.7690   -0.3532 C   0  0  0  0  0  0  0  0  0  0  0  0
    1.5231   -4.9150    0.3775 C   0  0  0  0  0  0  0  0  0  0  0  0
    1.1164    0.8696   -0.6962 H   0  0  0  0  0  0  0  0  0  0  0  0
    3.1190    3.0734   -0.0067 H   0  0  0  0  0  0  0  0  0  0  0  0
   -0.5805    2.6836   -1.1128 H   0  0  0  0  0  0  0  0  0  0  0  0
    0.5080    3.8581   -0.3872 H   0  0  0  0  0  0  0  0  0  0  0  0
   -0.9277    3.3565    1.3184 H   0  0  0  0  0  0  0  0  0  0  0  0
    2.8857    1.8624   -2.3676 H   0  0  0  0  0  0  0  0  0  0  0  0
    2.8993    2.3087    2.4364 H   0  0  0  0  0  0  0  0  0  0  0  0
   -1.3003    0.9021    2.1057 H   0  0  0  0  0  0  0  0  0  0  0  0
   -0.6151    0.3930    0.5673 H   0  0  0  0  0  0  0  0  0  0  0  0
    4.4651    1.2134    0.8339 H   0  0  0  0  0  0  0  0  0  0  0  0
    4.0377    0.9014   -0.8401 H   0  0  0  0  0  0  0  0  0  0  0  0
   -5.0492    1.0979    0.0548 H   0  0  0  0  0  0  0  0  0  0  0  0
   -0.0760    1.7403   -3.1103 H   0  0  0  0  0  0  0  0  0  0  0  0
    1.0313    0.3616   -2.9960 H   0  0  0  0  0  0  0  0  0  0  0  0
    1.3021    1.6180   -4.2072 H   0  0  0  0  0  0  0  0  0  0  0  0
    0.7894    4.0898   -2.5720 H   0  0  0  0  0  0  0  0  0  0  0  0
    2.2925    3.9037   -3.4439 H   0  0  0  0  0  0  0  0  0  0  0  0
    2.3532    4.2917   -1.7344 H   0  0  0  0  0  0  0  0  0  0  0  0
   -6.4218   -0.8134    0.4925 H   0  0  0  0  0  0  0  0  0  0  0  0
   -5.1771   -1.0014    1.7402 H   0  0  0  0  0  0  0  0  0  0  0  0
   -3.7606    0.1019   -2.1005 H   0  0  0  0  0  0  0  0  0  0  0  0
   -5.5177   -0.0718   -1.9658 H   0  0  0  0  0  0  0  0  0  0  0  0
    1.3481    2.6594    4.1419 H   0  0  0  0  0  0  0  0  0  0  0  0
   -0.1448    1.7710    3.8368 H   0  0  0  0  0  0  0  0  0  0  0  0
   -0.0978    3.5364    3.6376 H   0  0  0  0  0  0  0  0  0  0  0  0
   -5.7327   -2.9880   -0.0612 H   0  0  0  0  0  0  0  0  0  0  0  0
   -4.0874   -2.7244    0.5206 H   0  0  0  0  0  0  0  0  0  0  0  0
   -3.4118   -2.1767   -1.5791 H   0  0  0  0  0  0  0  0  0  0  0  0
   -5.0539   -2.3368   -2.2070 H   0  0  0  0  0  0  0  0  0  0  0  0
   -2.7762   -0.6048    0.8421 H   0  0  0  0  0  0  0  0  0  0  0  0
    2.7422   -0.2972    1.5681 H   0  0  0  0  0  0  0  0  0  0  0  0
    2.8826   -2.7448    1.4189 H   0  0  0  0  0  0  0  0  0  0  0  0
    1.2975   -2.2039    0.8498 H   0  0  0  0  0  0  0  0  0  0  0  0
    3.1806   -4.0935   -0.6696 H   0  0  0  0  0  0  0  0  0  0  0  0
    1.5883   -3.5450   -1.2463 H   0  0  0  0  0  0  0  0  0  0  0  0
    0.9788   -6.7584    0.0500 H   0  0  0  0  0  0  0  0  0  0  0  0
  1 21  2  0  0  0  0
  2 25  2  0  0  0  0
  3 28  1  0  0  0  0
  3 64  1  0  0  0  0
  4 28  2  0  0  0  0
  5 16  1  0  0  0  0
  5 21  1  0  0  0  0
  5 58  1  0  0  0  0
  6 15  1  0  0  0  0
  6 25  1  0  0  0  0
  6 59  1  0  0  0  0
  7  8  1  0  0  0  0
  7  9  1  0  0  0  0
  7 11  1  0  0  0  0
  7 29  1  0  0  0  0
  8 13  1  0  0  0  0
  8 15  1  0  0  0  0
  8 30  1  0  0  0  0
  9 10  1  0  0  0  0
  9 31  1  0  0  0  0
  9 32  1  0  0  0  0
 10 12  1  0  0  0  0
 10 14  1  0  0  0  0
 10 33  1  0  0  0  0
 11 17  1  0  0  0  0
 11 18  1  0  0  0  0
 11 34  1  0  0  0  0
 12 13  2  0  0  0  0
 12 22  1  0  0  0  0
 13 35  1  0  0  0  0
 14 21  1  0  0  0  0
 14 36  1  0  0  0  0
 14 37  1  0  0  0  0
 15 38  1  0  0  0  0
 15 39  1  0  0  0  0
 16 19  1  0  0  0  0
 16 20  1  0  0  0  0
 16 40  1  0  0  0  0
 17 41  1  0  0  0  0
 17 42  1  0  0  0  0
 17 43  1  0  0  0  0
 18 44  1  0  0  0  0
 18 45  1  0  0  0  0
 18 46  1  0  0  0  0
 19 23  1  0  0  0  0
 19 47  1  0  0  0  0
 19 48  1  0  0  0  0
 20 24  1  0  0  0  0
 20 49  1  0  0  0  0
 20 50  1  0  0  0  0
 22 51  1  0  0  0  0
 22 52  1  0  0  0  0
 22 53  1  0  0  0  0
 23 24  1  0  0  0  0
 23 54  1  0  0  0  0
 23 55  1  0  0  0  0
 24 56  1  0  0  0  0
 24 57  1  0  0  0  0
 25 26  1  0  0  0  0
 26 27  1  0  0  0  0
 26 60  1  0  0  0  0
 26 61  1  0  0  0  0
 27 28  1  0  0  0  0
 27 62  1  0  0  0  0
 27 63  1  0  0  0  0
M  END
> <PUBCHEM_COMPOUND_CID>
38027350

> <PUBCHEM_CONFORMER_RMSD>
1.2

> <PUBCHEM_CONFORMER_DIVERSEORDER>
1
57
37
50
40
23
22
64
14
43
38
18
66
44
49
25
36
60
2
65
55
27
13
54
31
48
26
28
7
68
24
6
46
42
29
47
17
51
53
15
33
62
35
20
11
4
59
39
21
30
3
61
16
41
58
34
45
52
10
32
8
9
12
67
5
56
63
19

> <PUBCHEM_MMFF94_PARTIAL_CHARGES>
23
1 -0.57
10 0.14
12 -0.28
13 -0.29
14 0.06
15 0.3
16 0.3
2 -0.57
21 0.57
22 0.14
25 0.57
26 0.06
27 0.06
28 0.66
3 -0.65
35 0.15
4 -0.57
5 -0.73
58 0.37
59 0.37
6 -0.73
64 0.5
8 0.14

> <PUBCHEM_EFFECTIVE_ROTOR_COUNT>
12.8

> <PUBCHEM_PHARMACOPHORE_FEATURES>
10
1 1 acceptor
1 2 acceptor
1 3 acceptor
1 4 acceptor
1 5 donor
1 6 donor
3 11 17 18 hydrophobe
3 3 4 28 anion
5 16 19 20 23 24 rings
6 7 8 9 10 12 13 rings

> <PUBCHEM_HEAVY_ATOM_COUNT>
28

> <PUBCHEM_ATOM_DEF_STEREO_COUNT>
3

> <PUBCHEM_ATOM_UDEF_STEREO_COUNT>
0

> <PUBCHEM_BOND_DEF_STEREO_COUNT>
0

> <PUBCHEM_BOND_UDEF_STEREO_COUNT>
0

> <PUBCHEM_ISOTOPIC_ATOM_COUNT>
0

> <PUBCHEM_COMPONENT_COUNT>
1

> <PUBCHEM_CACTVS_TAUTO_COUNT>
4

> <PUBCHEM_CONFORMER_ID>
0244405600000001

> <PUBCHEM_MMFF94_ENERGY>
44.3836

> <PUBCHEM_FEATURE_SELFOVERLAP>
50.804

> <PUBCHEM_SHAPE_FINGERPRINT>
10064457 181 17977938309111033628
10928967 22 18200885096849366903
114674 6 18128527348372864883
12969540 37 18267579118337015184
13583140 156 17988343949849916037
14674994 50 17039219923089830630
14863182 85 18337953510127959920
15110567 62 18341330110595355507
16114785 44 14824833797380945408
20764821 26 18121216747511593275
20775530 9 18050568439153227139
21304303 282 15876739874472575932
25222932 49 17631727321735672453
46194498 28 17676768785798092493
463206 1 18270965772911530283
6433294 58 18413385445348701259
66674814 147 18260834791211093354
6823239 73 16414099506358215653
86090 222 18195246839676780147

> <PUBCHEM_SHAPE_MULTIPOLES>
542.79
8.58
7
2.58
16.43
15.38
-0.24
-0.17
-1.93
-4.39
1.01
-1.8
-2.74
-0.63

> <PUBCHEM_SHAPE_SELFOVERLAP>
1095.119

> <PUBCHEM_SHAPE_VOLUME>
316

> <PUBCHEM_COORDINATE_TYPE>
2
5
10

$$$$
