75366936
  -OEChem-12032416383D

 49 50  0     1  0  0  0  0  0999 V2000
    1.7253   -0.2400    0.7492 O   0  0  0  0  0  0  0  0  0  0  0  0
    4.5648   -0.4906    1.4992 O   0  0  0  0  0  0  0  0  0  0  0  0
   -2.7205   -1.1097   -1.1267 O   0  0  0  0  0  0  0  0  0  0  0  0
    1.0610    2.2917   -0.3768 N   0  0  0  0  0  0  0  0  0  0  0  0
   -1.5160   -1.7959   -1.2225 N   0  0  0  0  0  0  0  0  0  0  0  0
    2.7479    0.7304    0.4890 C   0  0  1  0  0  0  0  0  0  0  0  0
    1.5797   -1.2528   -0.2492 C   0  0  1  0  0  0  0  0  0  0  0  0
    4.1088    0.0599    0.2606 C   0  0  2  0  0  0  0  0  0  0  0  0
    2.8850   -2.0271   -0.4257 C   0  0  0  0  0  0  0  0  0  0  0  0
    4.0334   -1.0775   -0.7545 C   0  0  0  0  0  0  0  0  0  0  0  0
    0.4556   -2.1793    0.1983 C   0  0  0  0  0  0  0  0  0  0  0  0
    2.3440    1.6633   -0.6507 C   0  0  0  0  0  0  0  0  0  0  0  0
   -0.8994   -1.5761   -0.0578 C   0  0  0  0  0  0  0  0  0  0  0  0
   -4.0111    0.2741    0.3553 C   0  0  0  0  0  0  0  0  0  0  0  0
   -2.7943   -0.5007    0.0843 C   0  0  0  0  0  0  0  0  0  0  0  0
   -1.6593   -0.7663    0.8038 C   0  0  0  0  0  0  0  0  0  0  0  0
    0.4531    2.7903   -1.6131 C   0  0  0  0  0  0  0  0  0  0  0  0
    1.2136    3.3846    0.5871 C   0  0  0  0  0  0  0  0  0  0  0  0
   -5.0867    0.3039   -0.7951 C   0  0  0  0  0  0  0  0  0  0  0  0
   -4.7883   -0.2668    1.6062 C   0  0  0  0  0  0  0  0  0  0  0  0
   -3.6967    1.7847    0.6391 C   0  0  0  0  0  0  0  0  0  0  0  0
    2.8359    1.3065    1.4169 H   0  0  0  0  0  0  0  0  0  0  0  0
    1.3037   -0.7903   -1.2041 H   0  0  0  0  0  0  0  0  0  0  0  0
    4.8523    0.8018   -0.0511 H   0  0  0  0  0  0  0  0  0  0  0  0
    2.7849   -2.7765   -1.2191 H   0  0  0  0  0  0  0  0  0  0  0  0
    3.1253   -2.5636    0.5010 H   0  0  0  0  0  0  0  0  0  0  0  0
    4.9712   -1.6451   -0.7671 H   0  0  0  0  0  0  0  0  0  0  0  0
    3.8882   -0.6681   -1.7610 H   0  0  0  0  0  0  0  0  0  0  0  0
    0.5448   -2.4055    1.2685 H   0  0  0  0  0  0  0  0  0  0  0  0
    0.5111   -3.1347   -0.3394 H   0  0  0  0  0  0  0  0  0  0  0  0
    2.2750    1.0841   -1.5786 H   0  0  0  0  0  0  0  0  0  0  0  0
    3.1270    2.4128   -0.8278 H   0  0  0  0  0  0  0  0  0  0  0  0
    5.4476   -0.8683    1.3457 H   0  0  0  0  0  0  0  0  0  0  0  0
   -1.4176   -0.4256    1.7998 H   0  0  0  0  0  0  0  0  0  0  0  0
    0.2733    1.9670   -2.3136 H   0  0  0  0  0  0  0  0  0  0  0  0
    1.0814    3.5386   -2.1094 H   0  0  0  0  0  0  0  0  0  0  0  0
   -0.5247    3.2402   -1.4068 H   0  0  0  0  0  0  0  0  0  0  0  0
    1.5623    3.0254    1.5597 H   0  0  0  0  0  0  0  0  0  0  0  0
    0.2439    3.8600    0.7762 H   0  0  0  0  0  0  0  0  0  0  0  0
    1.9048    4.1580    0.2324 H   0  0  0  0  0  0  0  0  0  0  0  0
   -5.4278   -0.7108   -1.0309 H   0  0  0  0  0  0  0  0  0  0  0  0
   -4.6609    0.7313   -1.7104 H   0  0  0  0  0  0  0  0  0  0  0  0
   -5.9628    0.9006   -0.5178 H   0  0  0  0  0  0  0  0  0  0  0  0
   -4.1575   -0.2334    2.5021 H   0  0  0  0  0  0  0  0  0  0  0  0
   -5.0895   -1.3097    1.4529 H   0  0  0  0  0  0  0  0  0  0  0  0
   -5.6891    0.3230    1.8092 H   0  0  0  0  0  0  0  0  0  0  0  0
   -3.1974    2.2440   -0.2221 H   0  0  0  0  0  0  0  0  0  0  0  0
   -3.0283    1.8889    1.5017 H   0  0  0  0  0  0  0  0  0  0  0  0
   -4.6079    2.3553    0.8508 H   0  0  0  0  0  0  0  0  0  0  0  0
  1  6  1  0  0  0  0
  1  7  1  0  0  0  0
  2  8  1  0  0  0  0
  2 33  1  0  0  0  0
  3  5  1  0  0  0  0
  3 15  1  0  0  0  0
  4 12  1  0  0  0  0
  4 17  1  0  0  0  0
  4 18  1  0  0  0  0
  5 13  2  0  0  0  0
  6  8  1  0  0  0  0
  6 12  1  0  0  0  0
  6 22  1  0  0  0  0
  7  9  1  0  0  0  0
  7 11  1  0  0  0  0
  7 23  1  0  0  0  0
  8 10  1  0  0  0  0
  8 24  1  0  0  0  0
  9 10  1  0  0  0  0
  9 25  1  0  0  0  0
  9 26  1  0  0  0  0
 10 27  1  0  0  0  0
 10 28  1  0  0  0  0
 11 13  1  0  0  0  0
 11 29  1  0  0  0  0
 11 30  1  0  0  0  0
 12 31  1  0  0  0  0
 12 32  1  0  0  0  0
 13 16  1  0  0  0  0
 14 15  1  0  0  0  0
 14 19  1  0  0  0  0
 14 20  1  0  0  0  0
 14 21  1  0  0  0  0
 15 16  2  0  0  0  0
 16 34  1  0  0  0  0
 17 35  1  0  0  0  0
 17 36  1  0  0  0  0
 17 37  1  0  0  0  0
 18 38  1  0  0  0  0
 18 39  1  0  0  0  0
 18 40  1  0  0  0  0
 19 41  1  0  0  0  0
 19 42  1  0  0  0  0
 19 43  1  0  0  0  0
 20 44  1  0  0  0  0
 20 45  1  0  0  0  0
 20 46  1  0  0  0  0
 21 47  1  0  0  0  0
 21 48  1  0  0  0  0
 21 49  1  0  0  0  0
M  END
> <PUBCHEM_COMPOUND_CID>
75366936

> <PUBCHEM_CONFORMER_RMSD>
0.8

> <PUBCHEM_CONFORMER_DIVERSEORDER>
1
153
143
40
104
35
120
45
121
22
66
102
70
132
79
57
80
110
147
129
103
77
155
139
109
14
115
48
65
92
25
3
36
69
42
9
150
21
72
131
101
89
148
112
114
55
119
67
24
83
8
144
12
31
17
94
27
38
127
145
135
41
140
124
85
20
146
64
54
32
15
105
100
106
76
82
136
95
61
23
125
99
10
60
91
7
90
6
81
34
47
78
51
19
74
39
88
28
96
73
33
30
117
62
138
59
52
133
5
98
152
141
16
49
53
87
2
26
43
97
108
46
56
142
130
44
134
4
123
122
149
37
58
113
137
71
63
116
86
93
11
18
107
50
84
68
13
151
118
29
111
154
128
126
75

> <PUBCHEM_MMFF94_PARTIAL_CHARGES>
18
1 -0.56
11 0.18
12 0.27
13 0.11
14 0.18
15 -0.04
16 -0.15
17 0.27
18 0.27
2 -0.68
3 -0.02
33 0.4
34 0.15
4 -0.81
5 -0.41
6 0.28
7 0.28
8 0.28

> <PUBCHEM_EFFECTIVE_ROTOR_COUNT>
6.2

> <PUBCHEM_PHARMACOPHORE_FEATURES>
8
1 1 acceptor
1 2 acceptor
1 2 donor
1 4 cation
1 5 acceptor
4 14 19 20 21 hydrophobe
5 3 5 13 15 16 rings
6 1 6 7 8 9 10 rings

> <PUBCHEM_HEAVY_ATOM_COUNT>
21

> <PUBCHEM_ATOM_DEF_STEREO_COUNT>
3

> <PUBCHEM_ATOM_UDEF_STEREO_COUNT>
0

> <PUBCHEM_BOND_DEF_STEREO_COUNT>
0

> <PUBCHEM_BOND_UDEF_STEREO_COUNT>
0

> <PUBCHEM_ISOTOPIC_ATOM_COUNT>
0

> <PUBCHEM_COMPONENT_COUNT>
1

> <PUBCHEM_CACTVS_TAUTO_COUNT>
1

> <PUBCHEM_CONFORMER_ID>
047E021800000001

> <PUBCHEM_MMFF94_ENERGY>
43.5514

> <PUBCHEM_FEATURE_SELFOVERLAP>
40.597

> <PUBCHEM_SHAPE_FINGERPRINT>
10366900 7 17313391132152418771
104564 63 18263363577686753220
10688039 33 17822571607915550036
10708813 3 18127985100273119177
11045977 3 17968390026077364723
116883 192 18268998600928470324
12293681 4 18041009422578924208
12422481 6 18053367817717620026
12507557 5 18334013895936280739
12633257 1 18261100907337247830
12788726 201 18263086535564736896
13075007 39 17824003271197728553
13140716 1 18264768950814651970
13402501 40 18115296758064665253
13583140 156 17822006511111593835
14713325 29 15511416081298587196
14790565 3 17903921403034308428
15081414 286 18341903974065735964
15210252 30 18115045055858941596
15238133 3 17894634708291110714
1601671 61 18411986875427192316
17357779 13 18336255739451713476
17980427 23 17916006040560148336
18219364 16 18113889477406063351
18785283 64 17970646283528999957
200 152 10809345563870611515
21033648 29 17988352677095965227
21033650 10 15409800045060417395
21041028 32 17973718074214848674
21298829 104 18271804571714592641
21304253 335 18131358479108509785
21475661 188 17968088695393069397
22289505 5 18335978658205142255
23184049 59 18409729564547987038
23227448 37 18412263978080099727
23558518 356 17901382621320015338
23559900 14 16774076268087417698
3052486 1 18043252336543331428
3472631 163 16200435750002207665
350125 39 18048607215351887731
474 4 18410009961741464707
508706 21 17968652701945544429
5939293 188 18338515352285565924
7164475 11 17913481625955423335
7495541 125 17458636656329860411
7832392 63 18342738546071937190
81228 2 18191033300844501520
9971528 1 18272651234258777974
9981440 41 17404568365445031216

> <PUBCHEM_SHAPE_MULTIPOLES>
404.6
9.43
3.06
1.26
5.51
2.41
0.02
-0.71
-1.76
-1.54
0.57
0.33
0.18
-0.15

> <PUBCHEM_SHAPE_SELFOVERLAP>
818.735

> <PUBCHEM_SHAPE_VOLUME>
239.9

> <PUBCHEM_COORDINATE_TYPE>
2
5
10

$$$$
