7165085
  -OEChem-12032416233D

 65 69  0     1  0  0  0  0  0999 V2000
   -2.6206   -0.9143   -1.1930 O   0  0  0  0  0  0  0  0  0  0  0  0
    0.1108   -0.1341    0.0510 O   0  0  0  0  0  0  0  0  0  0  0  0
   -5.9069    1.4949   -0.5526 O   0  0  0  0  0  0  0  0  0  0  0  0
   -7.3039    0.1137    0.5969 O   0  0  0  0  0  0  0  0  0  0  0  0
    1.5944    4.2962   -0.4886 O   0  0  0  0  0  0  0  0  0  0  0  0
    6.2531    0.2491   -0.3745 O   0  0  0  0  0  0  0  0  0  0  0  0
   -2.4211    0.7755    0.3755 N   0  0  0  0  0  0  0  0  0  0  0  0
   -0.5721    3.8546   -0.0252 N   0  0  0  0  0  0  0  0  0  0  0  0
    0.9512    2.0450   -0.2276 N   0  0  0  0  0  0  0  0  0  0  0  0
   -5.0202   -1.7965   -0.1366 C   0  0  0  0  0  0  0  0  0  0  0  0
   -4.3148   -2.8867   -0.9784 C   0  0  0  0  0  0  0  0  0  0  0  0
   -6.0441   -2.5577    0.7362 C   0  0  0  0  0  0  0  0  0  0  0  0
   -4.0009   -1.0579    0.7420 C   0  0  0  0  0  0  0  0  0  0  0  0
   -5.1109   -4.1649   -0.7463 C   0  0  0  0  0  0  0  0  0  0  0  0
   -5.6109   -4.0156    0.6783 C   0  0  0  0  0  0  0  0  0  0  0  0
   -1.4844    1.6051   -0.3837 C   0  0  1  0  0  0  0  0  0  0  0  0
   -5.7329   -0.7813   -1.0385 C   0  0  0  0  0  0  0  0  0  0  0  0
   -1.6748    2.9761    0.2295 C   0  0  1  0  0  0  0  0  0  0  0  0
   -1.9153    2.6672    1.7068 C   0  0  0  0  0  0  0  0  0  0  0  0
   -2.9550   -0.4021   -0.1236 C   0  0  0  0  0  0  0  0  0  0  0  0
   -2.7874    1.4192    1.6383 C   0  0  0  0  0  0  0  0  0  0  0  0
   -0.0738    1.0674   -0.1582 C   0  0  0  0  0  0  0  0  0  0  0  0
   -6.4198    0.2797   -0.2299 C   0  0  0  0  0  0  0  0  0  0  0  0
    0.7294    3.4483   -0.2463 C   0  0  0  0  0  0  0  0  0  0  0  0
    2.3231    1.5795   -0.2643 C   0  0  0  0  0  0  0  0  0  0  0  0
    2.6260    0.3462   -0.8413 C   0  0  0  0  0  0  0  0  0  0  0  0
    3.3408    2.3655    0.2761 C   0  0  0  0  0  0  0  0  0  0  0  0
    3.9465   -0.1012   -0.8777 C   0  0  0  0  0  0  0  0  0  0  0  0
    4.6615    1.9181    0.2398 C   0  0  0  0  0  0  0  0  0  0  0  0
    4.9643    0.6847   -0.3371 C   0  0  0  0  0  0  0  0  0  0  0  0
    6.4977   -1.0686   -0.0260 C   0  0  0  0  0  0  0  0  0  0  0  0
    5.8894   -1.6157    1.1037 C   0  0  0  0  0  0  0  0  0  0  0  0
    7.3531   -1.8485   -0.8042 C   0  0  0  0  0  0  0  0  0  0  0  0
    6.1365   -2.9428    1.4553 C   0  0  0  0  0  0  0  0  0  0  0  0
    7.6001   -3.1756   -0.4527 C   0  0  0  0  0  0  0  0  0  0  0  0
    6.9920   -3.7226    0.6770 C   0  0  0  0  0  0  0  0  0  0  0  0
   -4.2653   -2.6565   -2.0481 H   0  0  0  0  0  0  0  0  0  0  0  0
   -3.2970   -3.0905   -0.6232 H   0  0  0  0  0  0  0  0  0  0  0  0
   -7.0563   -2.4888    0.3184 H   0  0  0  0  0  0  0  0  0  0  0  0
   -6.0889   -2.1977    1.7694 H   0  0  0  0  0  0  0  0  0  0  0  0
   -4.5122   -0.3504    1.3970 H   0  0  0  0  0  0  0  0  0  0  0  0
   -3.4765   -1.7633    1.3997 H   0  0  0  0  0  0  0  0  0  0  0  0
   -4.5036   -5.0643   -0.8833 H   0  0  0  0  0  0  0  0  0  0  0  0
   -5.9566   -4.2142   -1.4426 H   0  0  0  0  0  0  0  0  0  0  0  0
   -6.4315   -4.7018    0.9060 H   0  0  0  0  0  0  0  0  0  0  0  0
   -4.7987   -4.2008    1.3910 H   0  0  0  0  0  0  0  0  0  0  0  0
   -1.7023    1.5708   -1.4564 H   0  0  0  0  0  0  0  0  0  0  0  0
   -6.5020   -1.2699   -1.6506 H   0  0  0  0  0  0  0  0  0  0  0  0
   -5.0483   -0.3167   -1.7574 H   0  0  0  0  0  0  0  0  0  0  0  0
   -2.5723    3.4523   -0.1863 H   0  0  0  0  0  0  0  0  0  0  0  0
   -2.4005    3.4896    2.2411 H   0  0  0  0  0  0  0  0  0  0  0  0
   -0.9732    2.4464    2.2239 H   0  0  0  0  0  0  0  0  0  0  0  0
   -3.8456    1.6966    1.5918 H   0  0  0  0  0  0  0  0  0  0  0  0
   -2.6241    0.7384    2.4786 H   0  0  0  0  0  0  0  0  0  0  0  0
   -0.7554    4.8534   -0.0264 H   0  0  0  0  0  0  0  0  0  0  0  0
   -6.3280    2.2175   -0.0399 H   0  0  0  0  0  0  0  0  0  0  0  0
    1.8883   -0.2675   -1.3480 H   0  0  0  0  0  0  0  0  0  0  0  0
    3.1559    3.2946    0.8049 H   0  0  0  0  0  0  0  0  0  0  0  0
    4.1594   -1.0474   -1.3683 H   0  0  0  0  0  0  0  0  0  0  0  0
    5.4485    2.5264    0.6771 H   0  0  0  0  0  0  0  0  0  0  0  0
    5.2364   -1.0245    1.7403 H   0  0  0  0  0  0  0  0  0  0  0  0
    7.8294   -1.4274   -1.6853 H   0  0  0  0  0  0  0  0  0  0  0  0
    5.6670   -3.3675    2.3378 H   0  0  0  0  0  0  0  0  0  0  0  0
    8.2663   -3.7828   -1.0586 H   0  0  0  0  0  0  0  0  0  0  0  0
    7.1854   -4.7555    0.9515 H   0  0  0  0  0  0  0  0  0  0  0  0
  1 20  2  0  0  0  0
  2 22  2  0  0  0  0
  3 23  1  0  0  0  0
  3 56  1  0  0  0  0
  4 23  2  0  0  0  0
  5 24  2  0  0  0  0
  6 30  1  0  0  0  0
  6 31  1  0  0  0  0
  7 16  1  0  0  0  0
  7 20  1  0  0  0  0
  7 21  1  0  0  0  0
  8 18  1  0  0  0  0
  8 24  1  0  0  0  0
  8 55  1  0  0  0  0
  9 22  1  0  0  0  0
  9 24  1  0  0  0  0
  9 25  1  0  0  0  0
 10 11  1  0  0  0  0
 10 12  1  0  0  0  0
 10 13  1  0  0  0  0
 10 17  1  0  0  0  0
 11 14  1  0  0  0  0
 11 37  1  0  0  0  0
 11 38  1  0  0  0  0
 12 15  1  0  0  0  0
 12 39  1  0  0  0  0
 12 40  1  0  0  0  0
 13 20  1  0  0  0  0
 13 41  1  0  0  0  0
 13 42  1  0  0  0  0
 14 15  1  0  0  0  0
 14 43  1  0  0  0  0
 14 44  1  0  0  0  0
 15 45  1  0  0  0  0
 15 46  1  0  0  0  0
 16 18  1  0  0  0  0
 16 22  1  0  0  0  0
 16 47  1  0  0  0  0
 17 23  1  0  0  0  0
 17 48  1  0  0  0  0
 17 49  1  0  0  0  0
 18 19  1  0  0  0  0
 18 50  1  0  0  0  0
 19 21  1  0  0  0  0
 19 51  1  0  0  0  0
 19 52  1  0  0  0  0
 21 53  1  0  0  0  0
 21 54  1  0  0  0  0
 25 26  2  0  0  0  0
 25 27  1  0  0  0  0
 26 28  1  0  0  0  0
 26 57  1  0  0  0  0
 27 29  2  0  0  0  0
 27 58  1  0  0  0  0
 28 30  2  0  0  0  0
 28 59  1  0  0  0  0
 29 30  1  0  0  0  0
 29 60  1  0  0  0  0
 31 32  2  0  0  0  0
 31 33  1  0  0  0  0
 32 34  1  0  0  0  0
 32 61  1  0  0  0  0
 33 35  2  0  0  0  0
 33 62  1  0  0  0  0
 34 36  2  0  0  0  0
 34 63  1  0  0  0  0
 35 36  1  0  0  0  0
 35 64  1  0  0  0  0
 36 65  1  0  0  0  0
M  END
> <PUBCHEM_COMPOUND_CID>
7165085

> <PUBCHEM_CONFORMER_RMSD>
1

> <PUBCHEM_CONFORMER_DIVERSEORDER>
1
94
202
69
257
56
88
133
108
204
232
84
218
25
144
237
158
17
137
211
263
239
217
224
259
77
14
110
104
114
253
142
54
117
256
22
251
233
140
8
267
93
216
75
182
128
229
241
89
29
59
201
123
178
226
166
157
184
74
220
190
210
135
187
118
141
20
86
97
213
236
38
155
68
67
60
153
98
246
260
196
138
78
247
125
148
183
80
62
36
18
162
214
161
250
231
249
16
228
146
195
24
143
169
154
71
136
219
261
112
248
212
106
215
113
223
48
156
205
120
160
34
225
221
191
240
122
252
79
58
254
31
175
99
61
44
163
50
150
227
119
127
134
107
167
145
165
11
91
255
116
152
180
139
238
242
265
266
168
100
111
151
130
264
170
49
147
63
208
197
235
52
164
83
234
174
209
203
85
82
222
76
199
194
188
126
121
45
131
173
200
41
258
65
198
149
181
179
192
33
103
19
185
230
96
26
102
15
28
70
176
32
115
207
35
244
12
43
129
90
132
92
206
124
53
95
159
245
47
9
101
13
51
243
46
87
4
57
186
193
7
6
177
109
81
73
172
37
23
72
55
39
27
5
10
262
171
105
189
3
30
66
64
40
2
21
42

> <PUBCHEM_MMFF94_PARTIAL_CHARGES>
41
1 -0.57
13 0.06
16 0.36
17 0.06
18 0.3
2 -0.57
20 0.57
21 0.3
22 0.57
23 0.66
24 0.69
25 0.12
26 -0.15
27 -0.15
28 -0.15
29 -0.15
3 -0.65
30 0.08
31 0.08
32 -0.15
33 -0.15
34 -0.15
35 -0.15
36 -0.15
4 -0.57
5 -0.57
55 0.37
56 0.5
57 0.15
58 0.15
59 0.15
6 -0.17
60 0.15
61 0.15
62 0.15
63 0.15
64 0.15
65 0.15
7 -0.66
8 -0.73
9 -0.24

> <PUBCHEM_EFFECTIVE_ROTOR_COUNT>
10

> <PUBCHEM_PHARMACOPHORE_FEATURES>
13
1 1 acceptor
1 2 acceptor
1 3 acceptor
1 4 acceptor
1 5 acceptor
1 6 acceptor
1 8 donor
3 3 4 23 anion
5 10 11 12 14 15 rings
5 7 16 18 19 21 rings
6 25 26 27 28 29 30 rings
6 31 32 33 34 35 36 rings
6 8 9 16 18 22 24 rings

> <PUBCHEM_HEAVY_ATOM_COUNT>
36

> <PUBCHEM_ATOM_DEF_STEREO_COUNT>
2

> <PUBCHEM_ATOM_UDEF_STEREO_COUNT>
0

> <PUBCHEM_BOND_DEF_STEREO_COUNT>
0

> <PUBCHEM_BOND_UDEF_STEREO_COUNT>
0

> <PUBCHEM_ISOTOPIC_ATOM_COUNT>
0

> <PUBCHEM_COMPONENT_COUNT>
1

> <PUBCHEM_CACTVS_TAUTO_COUNT>
2

> <PUBCHEM_CONFORMER_ID>
006D549D00000001

> <PUBCHEM_MMFF94_ENERGY>
133.8853

> <PUBCHEM_FEATURE_SELFOVERLAP>
66.221

> <PUBCHEM_SHAPE_FINGERPRINT>
10050765 1 18410855443645729244
10622 236 18411979204135534284
11497681 19 18335424569861236876
11607047 403 17983002647406615576
117089 54 18264212580862878859
11963148 33 17981320402572679454
12107183 9 18341907316030334057
12166972 35 18040436637345749228
12645989 146 18339085887367269452
13248334 5 18121782995942421180
13540713 5 18267045966577614884
1361 4 18410012174087621434
13782708 43 17896029004952086951
13885169 86 9655578530315936890
14068700 675 18343020003768551985
14117953 113 18341044117381452479
14347332 77 18410008819490803322
15230672 131 18261948553893862915
15510800 12 18058736797594308414
16728300 4 18200313355150924351
17492 89 18339642347024252440
18393751 57 17624393674422808672
19246450 95 18126022477082666313
19301676 85 18336543932069491979
19315092 285 18131073774986358128
19841028 212 18334292055414913298
20028762 73 18412825760077184270
208703 8 18409724033416729954
21130935 74 18269557294110488891
21585483 132 18126551551717134535
22223350 30 17558535061752458082
23522609 53 18050041872939175084
23559900 14 18341325716991641089
2748736 6 9439407900223640846
32027 91 18341606066433407081
3504750 166 18343304730426045217
4046055 25 18186518825695988693
439807 62 18335703819348574950
474113 269 18342448202050771975
4756088 132 17836074946287702031
484985 159 18264765472086697965
50009960 94 18115566181801077738
5085150 59 17988357083711818183
5104073 3 18060699468963513880
5265222 85 8430302541930076198
5718773 13 18410573981500354430
6057620 51 18335149730762388500
6058803 2 18266765578407134024
6201320 77 17315946483307286979
6695519 79 16753278206293871961
6697151 62 18200009842327947341
6712543 237 16343704317797567062
7970288 3 18338232768996575634

> <PUBCHEM_SHAPE_MULTIPOLES>
690.7
21.97
5.64
1.14
14.24
1.03
-0.28
26.49
-0.38
0.11
-0.47
-0.13
0.23
-1.56

> <PUBCHEM_SHAPE_SELFOVERLAP>
1511.088

> <PUBCHEM_SHAPE_VOLUME>
372.3

> <PUBCHEM_COORDINATE_TYPE>
2
5
10

$$$$
