45360511
  -OEChem-12032416333D

 76 79  0     1  0  0  0  0  0999 V2000
    7.5748   -1.1544   -0.8598 F   0  0  0  0  0  0  0  0  0  0  0  0
    8.9483    0.4171   -0.2504 F   0  0  0  0  0  0  0  0  0  0  0  0
    7.6944    0.6823   -2.0069 F   0  0  0  0  0  0  0  0  0  0  0  0
   -4.8803   -1.7674    2.2992 O   0  0  0  0  0  0  0  0  0  0  0  0
   -4.6074    5.9541   -0.6826 O   0  0  0  0  0  0  0  0  0  0  0  0
   -6.3328    4.4728   -0.7798 O   0  0  0  0  0  0  0  0  0  0  0  0
   -4.7331   -0.4754    0.3542 N   0  0  0  0  0  0  0  0  0  0  0  0
    0.1620    0.7493   -0.2267 N   0  0  0  0  0  0  0  0  0  0  0  0
    2.9550    1.1159    0.2472 N   0  0  0  0  0  0  0  0  0  0  0  0
   -0.4255   -5.1717   -0.5898 N   0  0  0  0  0  0  0  0  0  0  0  0
   -3.5296    1.2072   -1.0227 C   0  0  2  0  0  0  0  0  0  0  0  0
   -4.5812    2.2590   -0.5864 C   0  0  1  0  0  0  0  0  0  0  0  0
   -4.1434   -0.2037   -0.9643 C   0  0  0  0  0  0  0  0  0  0  0  0
   -5.2030    1.9061    0.7755 C   0  0  0  0  0  0  0  0  0  0  0  0
   -2.2276    1.2555   -0.2130 C   0  0  0  0  0  0  0  0  0  0  0  0
   -5.7521    0.4822    0.7801 C   0  0  0  0  0  0  0  0  0  0  0  0
   -1.0625    0.7089   -1.0253 C   0  0  0  0  0  0  0  0  0  0  0  0
   -4.0347    3.6864   -0.5754 C   0  0  0  0  0  0  0  0  0  0  0  0
    1.1345   -0.2312   -0.7253 C   0  0  0  0  0  0  0  0  0  0  0  0
    0.7503    2.0939   -0.2535 C   0  0  0  0  0  0  0  0  0  0  0  0
   -4.3934   -1.5395    1.1930 C   0  0  0  0  0  0  0  0  0  0  0  0
    2.3984   -0.2385    0.1375 C   0  0  0  0  0  0  0  0  0  0  0  0
    2.0023    2.1646    0.6243 C   0  0  0  0  0  0  0  0  0  0  0  0
   -5.1363    4.7035   -0.6909 C   0  0  0  0  0  0  0  0  0  0  0  0
   -3.3662   -2.4802    0.7321 C   0  0  0  0  0  0  0  0  0  0  0  0
    4.3041    1.2461    0.5949 C   0  0  0  0  0  0  0  0  0  0  0  0
   -2.0234   -2.2472    1.0297 C   0  0  0  0  0  0  0  0  0  0  0  0
   -3.7320   -3.6070   -0.0042 C   0  0  0  0  0  0  0  0  0  0  0  0
    5.2899    0.6785   -0.2124 C   0  0  0  0  0  0  0  0  0  0  0  0
    4.6633    1.9434    1.7483 C   0  0  0  0  0  0  0  0  0  0  0  0
    6.6349    0.8082    0.1339 C   0  0  0  0  0  0  0  0  0  0  0  0
   -1.0466   -3.1407    0.5907 C   0  0  0  0  0  0  0  0  0  0  0  0
   -2.7551   -4.5006   -0.4433 C   0  0  0  0  0  0  0  0  0  0  0  0
    6.0083    2.0730    2.0946 C   0  0  0  0  0  0  0  0  0  0  0  0
   -1.4125   -4.2674   -0.1458 C   0  0  0  0  0  0  0  0  0  0  0  0
    6.9941    1.5054    1.2874 C   0  0  0  0  0  0  0  0  0  0  0  0
    7.6884    0.2005   -0.7289 C   0  0  0  0  0  0  0  0  0  0  0  0
   -0.7970   -6.3492   -1.3491 C   0  0  0  0  0  0  0  0  0  0  0  0
    0.9726   -4.9397   -0.2861 C   0  0  0  0  0  0  0  0  0  0  0  0
   -3.2885    1.4202   -2.0735 H   0  0  0  0  0  0  0  0  0  0  0  0
   -5.3885    2.2043   -1.3319 H   0  0  0  0  0  0  0  0  0  0  0  0
   -3.4147   -0.9636   -1.2498 H   0  0  0  0  0  0  0  0  0  0  0  0
   -4.9621   -0.2776   -1.6914 H   0  0  0  0  0  0  0  0  0  0  0  0
   -6.0120    2.5989    1.0305 H   0  0  0  0  0  0  0  0  0  0  0  0
   -4.4445    1.9999    1.5633 H   0  0  0  0  0  0  0  0  0  0  0  0
   -2.0040    2.2900    0.0565 H   0  0  0  0  0  0  0  0  0  0  0  0
   -2.3305    0.7211    0.7370 H   0  0  0  0  0  0  0  0  0  0  0  0
   -6.5952    0.3946    0.0847 H   0  0  0  0  0  0  0  0  0  0  0  0
   -6.1257    0.2339    1.7786 H   0  0  0  0  0  0  0  0  0  0  0  0
   -1.2907   -0.3285   -1.2947 H   0  0  0  0  0  0  0  0  0  0  0  0
   -0.9441    1.2525   -1.9717 H   0  0  0  0  0  0  0  0  0  0  0  0
   -3.4807    3.8925    0.3470 H   0  0  0  0  0  0  0  0  0  0  0  0
   -3.3699    3.8357   -1.4345 H   0  0  0  0  0  0  0  0  0  0  0  0
    1.4040   -0.0086   -1.7669 H   0  0  0  0  0  0  0  0  0  0  0  0
    0.7080   -1.2388   -0.7134 H   0  0  0  0  0  0  0  0  0  0  0  0
    0.0477    2.8452    0.1216 H   0  0  0  0  0  0  0  0  0  0  0  0
    1.0127    2.3815   -1.2810 H   0  0  0  0  0  0  0  0  0  0  0  0
    3.1129   -0.9376   -0.3121 H   0  0  0  0  0  0  0  0  0  0  0  0
    2.1667   -0.6157    1.1421 H   0  0  0  0  0  0  0  0  0  0  0  0
    1.7184    2.0504    1.6784 H   0  0  0  0  0  0  0  0  0  0  0  0
    2.4497    3.1585    0.4980 H   0  0  0  0  0  0  0  0  0  0  0  0
   -5.3003    6.6445   -0.7563 H   0  0  0  0  0  0  0  0  0  0  0  0
   -1.7266   -1.3820    1.6159 H   0  0  0  0  0  0  0  0  0  0  0  0
   -4.7756   -3.7970   -0.2417 H   0  0  0  0  0  0  0  0  0  0  0  0
    5.0215    0.1450   -1.1214 H   0  0  0  0  0  0  0  0  0  0  0  0
    3.9223    2.3860    2.4077 H   0  0  0  0  0  0  0  0  0  0  0  0
   -0.0179   -2.9232    0.8594 H   0  0  0  0  0  0  0  0  0  0  0  0
   -3.0907   -5.3614   -1.0129 H   0  0  0  0  0  0  0  0  0  0  0  0
    6.2880    2.6130    2.9945 H   0  0  0  0  0  0  0  0  0  0  0  0
    8.0357    1.6171    1.5753 H   0  0  0  0  0  0  0  0  0  0  0  0
   -1.4573   -7.0029   -0.7684 H   0  0  0  0  0  0  0  0  0  0  0  0
   -1.2861   -6.0752   -2.2905 H   0  0  0  0  0  0  0  0  0  0  0  0
    0.0788   -6.9508   -1.6174 H   0  0  0  0  0  0  0  0  0  0  0  0
    1.3197   -3.9934   -0.7162 H   0  0  0  0  0  0  0  0  0  0  0  0
    1.1474   -4.9372    0.7956 H   0  0  0  0  0  0  0  0  0  0  0  0
    1.6135   -5.7243   -0.7036 H   0  0  0  0  0  0  0  0  0  0  0  0
  1 37  1  0  0  0  0
  2 37  1  0  0  0  0
  3 37  1  0  0  0  0
  4 21  2  0  0  0  0
  5 24  1  0  0  0  0
  5 62  1  0  0  0  0
  6 24  2  0  0  0  0
  7 13  1  0  0  0  0
  7 16  1  0  0  0  0
  7 21  1  0  0  0  0
  8 17  1  0  0  0  0
  8 19  1  0  0  0  0
  8 20  1  0  0  0  0
  9 22  1  0  0  0  0
  9 23  1  0  0  0  0
  9 26  1  0  0  0  0
 10 35  1  0  0  0  0
 10 38  1  0  0  0  0
 10 39  1  0  0  0  0
 11 12  1  0  0  0  0
 11 13  1  0  0  0  0
 11 15  1  0  0  0  0
 11 40  1  0  0  0  0
 12 14  1  0  0  0  0
 12 18  1  0  0  0  0
 12 41  1  0  0  0  0
 13 42  1  0  0  0  0
 13 43  1  0  0  0  0
 14 16  1  0  0  0  0
 14 44  1  0  0  0  0
 14 45  1  0  0  0  0
 15 17  1  0  0  0  0
 15 46  1  0  0  0  0
 15 47  1  0  0  0  0
 16 48  1  0  0  0  0
 16 49  1  0  0  0  0
 17 50  1  0  0  0  0
 17 51  1  0  0  0  0
 18 24  1  0  0  0  0
 18 52  1  0  0  0  0
 18 53  1  0  0  0  0
 19 22  1  0  0  0  0
 19 54  1  0  0  0  0
 19 55  1  0  0  0  0
 20 23  1  0  0  0  0
 20 56  1  0  0  0  0
 20 57  1  0  0  0  0
 21 25  1  0  0  0  0
 22 58  1  0  0  0  0
 22 59  1  0  0  0  0
 23 60  1  0  0  0  0
 23 61  1  0  0  0  0
 25 27  2  0  0  0  0
 25 28  1  0  0  0  0
 26 29  1  0  0  0  0
 26 30  2  0  0  0  0
 27 32  1  0  0  0  0
 27 63  1  0  0  0  0
 28 33  2  0  0  0  0
 28 64  1  0  0  0  0
 29 31  2  0  0  0  0
 29 65  1  0  0  0  0
 30 34  1  0  0  0  0
 30 66  1  0  0  0  0
 31 36  1  0  0  0  0
 31 37  1  0  0  0  0
 32 35  2  0  0  0  0
 32 67  1  0  0  0  0
 33 35  1  0  0  0  0
 33 68  1  0  0  0  0
 34 36  2  0  0  0  0
 34 69  1  0  0  0  0
 36 70  1  0  0  0  0
 38 71  1  0  0  0  0
 38 72  1  0  0  0  0
 38 73  1  0  0  0  0
 39 74  1  0  0  0  0
 39 75  1  0  0  0  0
 39 76  1  0  0  0  0
M  END
> <PUBCHEM_COMPOUND_CID>
45360511

> <PUBCHEM_CONFORMER_RMSD>
1.2

> <PUBCHEM_CONFORMER_DIVERSEORDER>
1
111
52
69
97
95
125
65
121
43
100
92
36
138
105
101
162
50
59
170
56
141
165
88
78
139
119
31
151
129
9
102
123
144
114
169
103
146
148
63
145
127
115
85
8
160
81
120
154
77
106
72
136
60
94
93
155
107
42
70
156
24
45
149
33
133
134
168
90
98
89
159
21
39
76
82
113
46
49
37
26
35
126
116
130
47
22
131
137
86
58
74
150
29
117
99
54
67
157
10
110
108
79
32
128
153
83
163
38
6
75
152
84
14
161
109
87
15
118
28
104
57
62
41
96
12
91
25
158
40
23
164
51
44
53
73
13
27
143
122
11
19
61
147
112
167
5
142
17
55
80
166
18
124
4
132
48
30
68
2
135
140
66
7
34
20
71
16
3
64

> <PUBCHEM_MMFF94_PARTIAL_CHARGES>
44
1 -0.34
10 -0.84
13 0.3
16 0.3
17 0.27
18 0.06
19 0.27
2 -0.34
20 0.27
21 0.54
22 0.37
23 0.37
24 0.66
25 0.09
26 0.1
27 -0.15
28 -0.15
29 -0.15
3 -0.34
30 -0.15
31 -0.14
32 -0.15
33 -0.15
34 -0.15
35 0.1
36 -0.15
37 1.16
38 0.37
39 0.37
4 -0.57
5 -0.65
6 -0.57
62 0.5
63 0.15
64 0.15
65 0.15
66 0.15
67 0.15
68 0.15
69 0.15
7 -0.66
70 0.15
8 -0.81
9 -0.84

> <PUBCHEM_EFFECTIVE_ROTOR_COUNT>
12.4

> <PUBCHEM_PHARMACOPHORE_FEATURES>
11
1 10 cation
1 4 acceptor
1 5 acceptor
1 6 acceptor
1 8 cation
1 9 cation
3 5 6 24 anion
6 25 27 28 32 33 35 rings
6 26 29 30 31 34 36 rings
6 7 11 12 13 14 16 rings
6 8 9 19 20 22 23 rings

> <PUBCHEM_HEAVY_ATOM_COUNT>
39

> <PUBCHEM_ATOM_DEF_STEREO_COUNT>
2

> <PUBCHEM_ATOM_UDEF_STEREO_COUNT>
0

> <PUBCHEM_BOND_DEF_STEREO_COUNT>
0

> <PUBCHEM_BOND_UDEF_STEREO_COUNT>
0

> <PUBCHEM_ISOTOPIC_ATOM_COUNT>
0

> <PUBCHEM_COMPONENT_COUNT>
1

> <PUBCHEM_CACTVS_TAUTO_COUNT>
1

> <PUBCHEM_CONFORMER_ID>
02B4257F00000001

> <PUBCHEM_MMFF94_ENERGY>
118.4993

> <PUBCHEM_FEATURE_SELFOVERLAP>
55.881

> <PUBCHEM_SHAPE_FINGERPRINT>
10290309 65 18339644413399186225
10675989 125 17617933639629295513
10864689 126 18340492154313284670
10940486 97 18261113018860673860
11049842 53 17971776384172458333
11377469 6 17387124475904362044
14856354 85 17313386746484407041
15230672 131 18335700486860706882
15326921 28 18339906169796088513
15361156 5 18045790254589103850
15400415 2 18266454313304383389
15439362 3 17977381638743080077
15444296 121 17895485807521695760
15927050 60 18340198601197733551
15968369 26 17687445889807151230
19311894 1 17977380860731988090
21987440 362 18262801731312872735
23516275 137 18117295670140730546
23522609 53 17386020446726164244
3383291 50 18268144443476656891
397830 11 18056473083742161112
4017518 198 18412543215136483879
4073 2 18270392915164791880
4403749 210 18337379526235049001
4516262 110 18048023075170097549
5080951 261 17825076402846286612
5265222 85 18336836393708364164
9896288 288 18334016086459370281

> <PUBCHEM_SHAPE_MULTIPOLES>
743.25
19.98
8.2
1.42
44.11
7.07
-0.39
-16.36
-0.25
-15.31
2.72
0.71
-0.06
3.61

> <PUBCHEM_SHAPE_SELFOVERLAP>
1569.693

> <PUBCHEM_SHAPE_VOLUME>
418.4

> <PUBCHEM_COORDINATE_TYPE>
2
5
10

$$$$
