25339256
  -OEChem-12032416193D

 55 57  0     1  0  0  0  0  0999 V2000
    6.7520    1.6350   -0.2134 S   0  0  0  0  0  0  0  0  0  0  0  0
    1.2324   -4.3034    0.8656 O   0  0  0  0  0  0  0  0  0  0  0  0
    4.9614   -0.1009   -1.7891 O   0  0  0  0  0  0  0  0  0  0  0  0
   -3.5814    2.3594    0.1115 O   0  0  0  0  0  0  0  0  0  0  0  0
    0.1484   -1.1386   -0.2816 N   0  0  2  0  0  0  0  0  0  0  0  0
   -0.8134   -3.2895    1.1061 N   0  0  0  0  0  0  0  0  0  0  0  0
    3.0252    0.1887   -0.5458 N   0  0  0  0  0  0  0  0  0  0  0  0
   -5.6282    1.2711    0.0385 N   0  0  0  0  0  0  0  0  0  0  0  0
    0.7348   -2.4485   -0.5790 C   0  0  1  0  0  0  0  0  0  0  0  0
   -1.3120   -1.2359   -0.2553 C   0  0  1  0  0  0  0  0  0  0  0  0
    2.1862   -0.6797   -1.3340 C   0  0  1  0  0  0  0  0  0  0  0  0
    2.2035   -2.1121   -0.7872 C   0  0  0  0  0  0  0  0  0  0  0  0
    0.7176   -0.2465   -1.2912 C   0  0  0  0  0  0  0  0  0  0  0  0
   -1.6756   -2.1291    0.9392 C   0  0  0  0  0  0  0  0  0  0  0  0
   -2.0011    0.1225   -0.1073 C   0  0  0  0  0  0  0  0  0  0  0  0
    0.4457   -3.4120    0.5489 C   0  0  0  0  0  0  0  0  0  0  0  0
   -3.5187   -0.0274   -0.1024 C   0  0  0  0  0  0  0  0  0  0  0  0
    4.3624    0.4075   -0.8451 C   0  0  0  0  0  0  0  0  0  0  0  0
   -4.2299    1.3133    0.0256 C   0  0  0  0  0  0  0  0  0  0  0  0
    5.0968    1.3087    0.0798 C   0  0  0  0  0  0  0  0  0  0  0  0
   -6.4381    0.0592   -0.0603 C   0  0  0  0  0  0  0  0  0  0  0  0
   -6.3827    2.5115    0.1685 C   0  0  0  0  0  0  0  0  0  0  0  0
    4.6318    1.9614    1.2003 C   0  0  0  0  0  0  0  0  0  0  0  0
   -6.7287   -0.5264    1.3060 C   0  0  0  0  0  0  0  0  0  0  0  0
   -6.6868    3.1201   -1.1847 C   0  0  0  0  0  0  0  0  0  0  0  0
    5.6479    2.7397    1.8262 C   0  0  0  0  0  0  0  0  0  0  0  0
    6.8507    2.6522    1.1604 C   0  0  0  0  0  0  0  0  0  0  0  0
    0.3211   -2.8764   -1.5035 H   0  0  0  0  0  0  0  0  0  0  0  0
   -1.6667   -1.7103   -1.1813 H   0  0  0  0  0  0  0  0  0  0  0  0
    2.5468   -0.6664   -2.3694 H   0  0  0  0  0  0  0  0  0  0  0  0
    2.7763   -2.1859    0.1458 H   0  0  0  0  0  0  0  0  0  0  0  0
    2.6618   -2.8000   -1.5068 H   0  0  0  0  0  0  0  0  0  0  0  0
    0.6036    0.8101   -1.0280 H   0  0  0  0  0  0  0  0  0  0  0  0
    0.2530   -0.4182   -2.2708 H   0  0  0  0  0  0  0  0  0  0  0  0
   -1.6133   -1.5742    1.8831 H   0  0  0  0  0  0  0  0  0  0  0  0
   -2.6925   -2.5233    0.8451 H   0  0  0  0  0  0  0  0  0  0  0  0
   -1.6693    0.6239    0.8115 H   0  0  0  0  0  0  0  0  0  0  0  0
   -1.7238    0.7812   -0.9395 H   0  0  0  0  0  0  0  0  0  0  0  0
   -1.0768   -3.9654    1.8167 H   0  0  0  0  0  0  0  0  0  0  0  0
    2.6148    0.6005    0.2854 H   0  0  0  0  0  0  0  0  0  0  0  0
   -3.8401   -0.6481    0.7367 H   0  0  0  0  0  0  0  0  0  0  0  0
   -3.8304   -0.4998   -1.0401 H   0  0  0  0  0  0  0  0  0  0  0  0
   -5.9230   -0.6879   -0.6691 H   0  0  0  0  0  0  0  0  0  0  0  0
   -7.3737    0.2928   -0.5809 H   0  0  0  0  0  0  0  0  0  0  0  0
   -5.7963    3.2275    0.7556 H   0  0  0  0  0  0  0  0  0  0  0  0
   -7.3074    2.3226    0.7246 H   0  0  0  0  0  0  0  0  0  0  0  0
    3.6184    1.9020    1.5747 H   0  0  0  0  0  0  0  0  0  0  0  0
   -7.2967    0.1763    1.9243 H   0  0  0  0  0  0  0  0  0  0  0  0
   -5.8115   -0.7721    1.8488 H   0  0  0  0  0  0  0  0  0  0  0  0
   -7.3202   -1.4421    1.2078 H   0  0  0  0  0  0  0  0  0  0  0  0
   -7.2897    2.4434   -1.7989 H   0  0  0  0  0  0  0  0  0  0  0  0
   -5.7662    3.3376   -1.7365 H   0  0  0  0  0  0  0  0  0  0  0  0
   -7.2415    4.0560   -1.0656 H   0  0  0  0  0  0  0  0  0  0  0  0
    5.5042    3.3336    2.7194 H   0  0  0  0  0  0  0  0  0  0  0  0
    7.7826    3.1369    1.4151 H   0  0  0  0  0  0  0  0  0  0  0  0
  1 20  1  0  0  0  0
  1 27  1  0  0  0  0
  2 16  2  0  0  0  0
  3 18  2  0  0  0  0
  4 19  2  0  0  0  0
  5  9  1  0  0  0  0
  5 10  1  0  0  0  0
  5 13  1  0  0  0  0
  6 14  1  0  0  0  0
  6 16  1  0  0  0  0
  6 39  1  0  0  0  0
  7 11  1  0  0  0  0
  7 18  1  0  0  0  0
  7 40  1  0  0  0  0
  8 19  1  0  0  0  0
  8 21  1  0  0  0  0
  8 22  1  0  0  0  0
  9 12  1  0  0  0  0
  9 16  1  0  0  0  0
  9 28  1  0  0  0  0
 10 14  1  0  0  0  0
 10 15  1  0  0  0  0
 10 29  1  0  0  0  0
 11 12  1  0  0  0  0
 11 13  1  0  0  0  0
 11 30  1  0  0  0  0
 12 31  1  0  0  0  0
 12 32  1  0  0  0  0
 13 33  1  0  0  0  0
 13 34  1  0  0  0  0
 14 35  1  0  0  0  0
 14 36  1  0  0  0  0
 15 17  1  0  0  0  0
 15 37  1  0  0  0  0
 15 38  1  0  0  0  0
 17 19  1  0  0  0  0
 17 41  1  0  0  0  0
 17 42  1  0  0  0  0
 18 20  1  0  0  0  0
 20 23  2  0  0  0  0
 21 24  1  0  0  0  0
 21 43  1  0  0  0  0
 21 44  1  0  0  0  0
 22 25  1  0  0  0  0
 22 45  1  0  0  0  0
 22 46  1  0  0  0  0
 23 26  1  0  0  0  0
 23 47  1  0  0  0  0
 24 48  1  0  0  0  0
 24 49  1  0  0  0  0
 24 50  1  0  0  0  0
 25 51  1  0  0  0  0
 25 52  1  0  0  0  0
 25 53  1  0  0  0  0
 26 27  2  0  0  0  0
 26 54  1  0  0  0  0
 27 55  1  0  0  0  0
M  END
> <PUBCHEM_COMPOUND_CID>
25339256

> <PUBCHEM_CONFORMER_RMSD>
1

> <PUBCHEM_CONFORMER_DIVERSEORDER>
1
45
69
135
121
115
31
127
160
73
107
93
33
51
87
78
90
30
119
91
110
39
22
72
134
142
100
71
25
133
7
95
77
114
26
59
70
155
84
5
19
106
112
13
146
32
55
65
105
48
122
131
157
24
104
81
132
103
140
101
21
67
92
137
159
150
158
15
111
36
28
154
54
52
76
89
144
149
136
130
14
118
11
56
153
58
2
116
68
41
8
124
49
3
12
44
129
6
23
117
97
161
128
62
123
83
141
37
46
79
42
17
143
43
63
109
4
57
126
88
74
86
10
61
82
148
35
18
9
99
108
27
47
34
152
139
156
147
96
85
138
53
16
38
50
125
29
40
80
66
113
20
120
151
64
75
94
98
145
102
60

> <PUBCHEM_MMFF94_PARTIAL_CHARGES>
28
1 -0.08
10 0.27
11 0.3
13 0.27
14 0.3
16 0.57
17 0.06
18 0.71
19 0.57
2 -0.57
20 -0.05
21 0.3
22 0.3
23 -0.15
26 -0.15
27 -0.11
3 -0.57
39 0.37
4 -0.57
40 0.37
47 0.15
5 -0.81
54 0.15
55 0.15
6 -0.73
7 -0.73
8 -0.66
9 0.33

> <PUBCHEM_EFFECTIVE_ROTOR_COUNT>
10.2

> <PUBCHEM_PHARMACOPHORE_FEATURES>
9
1 2 acceptor
1 3 acceptor
1 4 acceptor
1 5 cation
1 6 donor
1 7 donor
5 1 20 23 26 27 rings
5 5 9 11 12 13 rings
6 5 6 9 10 14 16 rings

> <PUBCHEM_HEAVY_ATOM_COUNT>
27

> <PUBCHEM_ATOM_DEF_STEREO_COUNT>
3

> <PUBCHEM_ATOM_UDEF_STEREO_COUNT>
0

> <PUBCHEM_BOND_DEF_STEREO_COUNT>
0

> <PUBCHEM_BOND_UDEF_STEREO_COUNT>
0

> <PUBCHEM_ISOTOPIC_ATOM_COUNT>
0

> <PUBCHEM_COMPONENT_COUNT>
1

> <PUBCHEM_CACTVS_TAUTO_COUNT>
6

> <PUBCHEM_CONFORMER_ID>
0182A57800000001

> <PUBCHEM_MMFF94_ENERGY>
48.4102

> <PUBCHEM_FEATURE_SELFOVERLAP>
45.763

> <PUBCHEM_SHAPE_FINGERPRINT>
10074138 170 17823702060472207843
10692045 39 18335410224291212290
11135609 127 18048866413340880941
12107183 9 18262224566025419706
12623949 98 11530486606176632322
12778500 126 18334847313466886624
12925494 130 18410851101617656178
13103583 49 16443625817696086386
13402501 40 18273213127439865240
13540713 4 18265918941368118406
14251764 30 8862952675310791472
14347332 77 10303277710909956796
14461889 52 17895492362321921259
14565420 104 18408319960666207938
14739800 52 18339636737743755441
15510800 12 11458963413608780288
16994733 274 16988572294562148787
1813 80 9655575218822331090
19053607 189 17968106261371785405
20554085 129 18408037420474207008
20567600 254 18410008836349127061
21033648 29 18338240478821022452
21049683 118 18335968840406120506
21401589 2 18342745164500405258
21424621 283 18410571807703297910
21585481 104 14763530199977119744
23522609 53 17242460645667117668
23559900 14 17824555063174468743
23929065 36 18193835079441784747
249999 5 18263081024578779986
2838139 119 18201996620872721068
2916195 48 18412827984484452605
3246875 12 18411420644034334923
34797466 226 17418383471576410269
4340502 62 18335708229958546439
5104073 3 18187086126704208755
56633871 153 11530770322678573945
57091435 61 18342174431966250264
59682541 35 18337402625607695811
6371380 46 18410300190674057598
6695519 79 18266486277131613227
67856867 119 18191022297049014619
9658208 31 18337685195342683014
9896288 288 17970349432955174570
9981440 41 18334579070208644811

> <PUBCHEM_SHAPE_MULTIPOLES>
521.96
19.55
4.45
1.37
6.16
2.45
0.05
-24.66
2.79
0.05
1.44
-1.16
-0.13
3.41

> <PUBCHEM_SHAPE_SELFOVERLAP>
1068.231

> <PUBCHEM_SHAPE_VOLUME>
303.3

> <PUBCHEM_COORDINATE_TYPE>
2
5
10

$$$$
