26742630
  -OEChem-12032416183D

 58 60  0     1  0  0  0  0  0999 V2000
    3.6438   -0.7306    1.3138 S   0  0  0  0  0  0  0  0  0  0  0  0
   -6.3786   -3.3294    0.3890 F   0  0  0  0  0  0  0  0  0  0  0  0
    3.3026   -2.1258    1.4878 O   0  0  0  0  0  0  0  0  0  0  0  0
    4.2011    0.0428    2.4022 O   0  0  0  0  0  0  0  0  0  0  0  0
   -2.5895    2.3723    1.1686 O   0  0  0  0  0  0  0  0  0  0  0  0
    6.5099   -0.1416   -1.3406 O   0  0  0  0  0  0  0  0  0  0  0  0
    2.2862    0.1012    0.6797 N   0  0  1  0  0  0  0  0  0  0  0  0
   -3.4817    2.1197   -0.9623 N   0  0  0  0  0  0  0  0  0  0  0  0
    5.6139   -0.8244   -2.1541 N   0  0  0  0  0  0  0  0  0  0  0  0
   -0.1804    0.3946    0.6103 C   0  0  2  0  0  0  0  0  0  0  0  0
    0.0285    1.8530    0.1348 C   0  0  1  0  0  0  0  0  0  0  0  0
    1.3809    2.0238   -0.5736 C   0  0  0  0  0  0  0  0  0  0  0  0
    1.0208   -0.0560    1.4568 C   0  0  0  0  0  0  0  0  0  0  0  0
    2.5318    1.5191    0.2908 C   0  0  0  0  0  0  0  0  0  0  0  0
   -0.4426   -0.6022   -0.5261 C   0  0  0  0  0  0  0  0  0  0  0  0
   -1.1103    2.3671   -0.7458 C   0  0  0  0  0  0  0  0  0  0  0  0
   -0.6589   -2.0002    0.0130 C   0  0  0  0  0  0  0  0  0  0  0  0
   -2.4519    2.2916   -0.0490 C   0  0  0  0  0  0  0  0  0  0  0  0
    4.7466   -0.6105   -0.0591 C   0  0  0  0  0  0  0  0  0  0  0  0
    5.9824   -0.0206   -0.0956 C   0  0  0  0  0  0  0  0  0  0  0  0
    4.5685   -1.0939   -1.3669 C   0  0  0  0  0  0  0  0  0  0  0  0
   -4.8699    2.0133   -0.5756 C   0  0  0  0  0  0  0  0  0  0  0  0
    6.8082    0.6826    0.8951 C   0  0  0  0  0  0  0  0  0  0  0  0
    3.4132   -1.8230   -1.9174 C   0  0  0  0  0  0  0  0  0  0  0  0
   -5.2723    0.5855   -0.3181 C   0  0  0  0  0  0  0  0  0  0  0  0
   -5.7736   -0.1965   -1.3588 C   0  0  0  0  0  0  0  0  0  0  0  0
   -5.1447    0.0449    0.9615 C   0  0  0  0  0  0  0  0  0  0  0  0
   -6.1468   -1.5193   -1.1201 C   0  0  0  0  0  0  0  0  0  0  0  0
   -5.5181   -1.2776    1.2003 C   0  0  0  0  0  0  0  0  0  0  0  0
   -6.0190   -2.0598    0.1596 C   0  0  0  0  0  0  0  0  0  0  0  0
   -1.0526    0.3665    1.2759 H   0  0  0  0  0  0  0  0  0  0  0  0
    0.0589    2.4815    1.0373 H   0  0  0  0  0  0  0  0  0  0  0  0
    1.5469    3.0820   -0.8089 H   0  0  0  0  0  0  0  0  0  0  0  0
    1.3777    1.4854   -1.5294 H   0  0  0  0  0  0  0  0  0  0  0  0
    1.0867    0.5742    2.3540 H   0  0  0  0  0  0  0  0  0  0  0  0
    0.9080   -1.0811    1.8166 H   0  0  0  0  0  0  0  0  0  0  0  0
    3.4537    1.6237   -0.2858 H   0  0  0  0  0  0  0  0  0  0  0  0
    2.6272    2.1361    1.1922 H   0  0  0  0  0  0  0  0  0  0  0  0
   -1.3492   -0.3158   -1.0696 H   0  0  0  0  0  0  0  0  0  0  0  0
    0.3736   -0.6149   -1.2551 H   0  0  0  0  0  0  0  0  0  0  0  0
   -1.1361    1.8295   -1.7002 H   0  0  0  0  0  0  0  0  0  0  0  0
   -0.9411    3.4239   -0.9882 H   0  0  0  0  0  0  0  0  0  0  0  0
    0.2771   -2.4714    0.3266 H   0  0  0  0  0  0  0  0  0  0  0  0
   -1.0758   -2.6368   -0.7754 H   0  0  0  0  0  0  0  0  0  0  0  0
   -1.3635   -2.0109    0.8506 H   0  0  0  0  0  0  0  0  0  0  0  0
   -3.2668    2.0548   -1.9529 H   0  0  0  0  0  0  0  0  0  0  0  0
   -5.4724    2.4421   -1.3843 H   0  0  0  0  0  0  0  0  0  0  0  0
   -5.0491    2.6256    0.3160 H   0  0  0  0  0  0  0  0  0  0  0  0
    6.9948    0.0458    1.7653 H   0  0  0  0  0  0  0  0  0  0  0  0
    7.7791    0.9675    0.4770 H   0  0  0  0  0  0  0  0  0  0  0  0
    6.3094    1.5959    1.2335 H   0  0  0  0  0  0  0  0  0  0  0  0
    2.6109   -1.1242   -2.1735 H   0  0  0  0  0  0  0  0  0  0  0  0
    3.6813   -2.3722   -2.8265 H   0  0  0  0  0  0  0  0  0  0  0  0
    3.0202   -2.5514   -1.2021 H   0  0  0  0  0  0  0  0  0  0  0  0
   -5.8763    0.2127   -2.3604 H   0  0  0  0  0  0  0  0  0  0  0  0
   -4.7584    0.6429    1.7822 H   0  0  0  0  0  0  0  0  0  0  0  0
   -6.5366   -2.1286   -1.9301 H   0  0  0  0  0  0  0  0  0  0  0  0
   -5.4194   -1.6987    2.1964 H   0  0  0  0  0  0  0  0  0  0  0  0
  1  3  2  0  0  0  0
  1  4  2  0  0  0  0
  1  7  1  0  0  0  0
  1 19  1  0  0  0  0
  2 30  1  0  0  0  0
  5 18  2  0  0  0  0
  6  9  1  0  0  0  0
  6 20  1  0  0  0  0
  7 13  1  0  0  0  0
  7 14  1  0  0  0  0
  8 18  1  0  0  0  0
  8 22  1  0  0  0  0
  8 46  1  0  0  0  0
  9 21  2  0  0  0  0
 10 11  1  0  0  0  0
 10 13  1  0  0  0  0
 10 15  1  0  0  0  0
 10 31  1  0  0  0  0
 11 12  1  0  0  0  0
 11 16  1  0  0  0  0
 11 32  1  0  0  0  0
 12 14  1  0  0  0  0
 12 33  1  0  0  0  0
 12 34  1  0  0  0  0
 13 35  1  0  0  0  0
 13 36  1  0  0  0  0
 14 37  1  0  0  0  0
 14 38  1  0  0  0  0
 15 17  1  0  0  0  0
 15 39  1  0  0  0  0
 15 40  1  0  0  0  0
 16 18  1  0  0  0  0
 16 41  1  0  0  0  0
 16 42  1  0  0  0  0
 17 43  1  0  0  0  0
 17 44  1  0  0  0  0
 17 45  1  0  0  0  0
 19 20  2  0  0  0  0
 19 21  1  0  0  0  0
 20 23  1  0  0  0  0
 21 24  1  0  0  0  0
 22 25  1  0  0  0  0
 22 47  1  0  0  0  0
 22 48  1  0  0  0  0
 23 49  1  0  0  0  0
 23 50  1  0  0  0  0
 23 51  1  0  0  0  0
 24 52  1  0  0  0  0
 24 53  1  0  0  0  0
 24 54  1  0  0  0  0
 25 26  2  0  0  0  0
 25 27  1  0  0  0  0
 26 28  1  0  0  0  0
 26 55  1  0  0  0  0
 27 29  2  0  0  0  0
 27 56  1  0  0  0  0
 28 30  2  0  0  0  0
 28 57  1  0  0  0  0
 29 30  1  0  0  0  0
 29 58  1  0  0  0  0
M  END
> <PUBCHEM_COMPOUND_CID>
26742630

> <PUBCHEM_CONFORMER_RMSD>
1.4

> <PUBCHEM_CONFORMER_DIVERSEORDER>
3
141
147
42
108
134
87
93
105
1
156
119
88
97
99
150
104
27
28
106
79
29
62
148
80
100
145
94
51
82
117
135
39
75
84
121
163
26
33
107
96
30
120
109
91
57
123
136
21
95
22
133
18
7
122
165
149
68
56
70
60
85
19
164
49
101
151
124
78
160
15
12
112
143
61
115
113
35
81
116
142
144
73
125
162
44
137
10
48
161
53
159
153
25
83
16
4
111
63
138
2
102
139
41
58
155
132
43
92
158
86
66
72
52
128
36
77
23
146
140
110
8
98
45
38
131
154
71
6
17
13
20
129
50
76
37
54
24
103
89
31
118
166
59
47
114
34
69
127
5
130
152
46
14
9
157
40
11
67
64
55
65
126
32
74
90

> <PUBCHEM_MMFF94_PARTIAL_CHARGES>
30
1 1.5
13 0.36
14 0.36
16 0.06
18 0.57
19 -0.06
2 -0.19
20 -0.04
21 0.11
22 0.44
23 0.18
24 0.18
25 -0.14
26 -0.15
27 -0.15
28 -0.15
29 -0.15
3 -0.65
30 0.19
4 -0.65
46 0.37
5 -0.57
55 0.15
56 0.15
57 0.15
58 0.15
6 -0.02
7 -0.85
8 -0.73
9 -0.41

> <PUBCHEM_EFFECTIVE_ROTOR_COUNT>
9.2

> <PUBCHEM_PHARMACOPHORE_FEATURES>
9
1 17 hydrophobe
1 3 acceptor
1 4 acceptor
1 5 acceptor
1 8 donor
1 9 acceptor
5 6 9 19 20 21 rings
6 25 26 27 28 29 30 rings
6 7 10 11 12 13 14 rings

> <PUBCHEM_HEAVY_ATOM_COUNT>
30

> <PUBCHEM_ATOM_DEF_STEREO_COUNT>
2

> <PUBCHEM_ATOM_UDEF_STEREO_COUNT>
0

> <PUBCHEM_BOND_DEF_STEREO_COUNT>
0

> <PUBCHEM_BOND_UDEF_STEREO_COUNT>
0

> <PUBCHEM_ISOTOPIC_ATOM_COUNT>
0

> <PUBCHEM_COMPONENT_COUNT>
1

> <PUBCHEM_CACTVS_TAUTO_COUNT>
2

> <PUBCHEM_CONFORMER_ID>
01980F6600000003

> <PUBCHEM_MMFF94_ENERGY>
51.8748

> <PUBCHEM_FEATURE_SELFOVERLAP>
45.69

> <PUBCHEM_SHAPE_FINGERPRINT>
10076449 9 17775294863438038012
11089746 13 12179849406864364768
11315621 136 18187367692128193085
11488393 25 17558277518317814271
12422481 6 17489588952798085693
12730499 353 17632289065578281874
13782708 43 17917150494615206150
14117953 113 18340479050768991575
14767858 380 17603309249624858392
14950920 106 15697995276022116635
15183329 4 18187081767449280115
15350500 55 12829788361912300502
15352257 5 18060142007165724999
15510800 12 18342174518883636695
16120349 21 12031796825227199948
18608769 82 18201717370889795926
18927931 339 18409449190063956199
20028762 73 18273209833358029663
21054139 6 18040154011259540160
21315759 148 17846498102059517968
21623969 137 17632860810859873934
21774942 28 13335002890311377198
2303208 19 17846215535944706100
23559900 14 18335128796532955985
24771293 8 18187085057827583644
25222932 49 18335413561290675806
2838139 119 10953744421624754621
4015057 19 15140972746261953373
437795 51 17560511906987650400
4435113 14 17987535744331473663
46194498 28 18272087206506422964
484989 97 18058741199999752926
5381727 24 18408601462815650448
550186 72 18187080611776751469
6086070 43 13045947935999341764
999808 66 17704077261122301980

> <PUBCHEM_SHAPE_MULTIPOLES>
575.54
18.64
2.82
1.69
3.39
0.08
0.03
-8.22
2.32
3.89
0.21
-1.78
-0.52
1.26

> <PUBCHEM_SHAPE_SELFOVERLAP>
1189.437

> <PUBCHEM_SHAPE_VOLUME>
332.2

> <PUBCHEM_COORDINATE_TYPE>
2
5
10

$$$$
