11883045
  -OEChem-12032416133D

 79 83  0     1  0  0  0  0  0999 V2000
   -0.8363    2.6775   -0.8341 S   0  0  0  0  0  0  0  0  0  0  0  0
    2.9293    4.2158    0.2399 F   0  0  0  0  0  0  0  0  0  0  0  0
    5.1508    0.0180    0.1824 F   0  0  0  0  0  0  0  0  0  0  0  0
   -7.8569   -0.8322   -0.9759 O   0  0  0  0  0  0  0  0  0  0  0  0
   -7.9024    1.5479   -0.6979 O   0  0  0  0  0  0  0  0  0  0  0  0
    0.5775   -1.2591    2.5613 O   0  0  0  0  0  0  0  0  0  0  0  0
    2.7519    0.3455    0.9986 O   0  0  0  0  0  0  0  0  0  0  0  0
    5.7813   -3.3075   -1.2084 O   0  0  0  0  0  0  0  0  0  0  0  0
   -0.1461    0.5325    0.4368 N   0  0  0  0  0  0  0  0  0  0  0  0
   -0.2499   -2.7242    0.9581 N   0  0  0  0  0  0  0  0  0  0  0  0
    1.6150    2.0815   -0.1190 N   0  0  0  0  0  0  0  0  0  0  0  0
    2.9565   -3.2836   -0.8603 N   0  0  0  0  0  0  0  0  0  0  0  0
   -3.8915   -0.3234    0.7635 C   0  0  2  0  0  0  0  0  0  0  0  0
   -4.2561    0.3948   -0.6101 C   0  0  1  0  0  0  0  0  0  0  0  0
   -5.7848    0.4813   -0.9890 C   0  0  1  0  0  0  0  0  0  0  0  0
   -2.3353   -0.6852    0.7328 C   0  0  1  0  0  0  0  0  0  0  0  0
   -4.6977   -1.6425    0.8857 C   0  0  0  0  0  0  0  0  0  0  0  0
   -6.4471   -0.9079   -0.7659 C   0  0  1  0  0  0  0  0  0  0  0  0
   -3.4941    1.7429   -0.7668 C   0  0  0  0  0  0  0  0  0  0  0  0
   -6.1882   -1.4811    0.6228 C   0  0  0  0  0  0  0  0  0  0  0  0
   -4.1908    0.5584    2.0010 C   0  0  0  0  0  0  0  0  0  0  0  0
   -1.5159    0.4861    0.2553 C   0  0  0  0  0  0  0  0  0  0  0  0
   -6.5666    1.5893   -0.2492 C   0  0  0  0  0  0  0  0  0  0  0  0
   -5.9140    0.8176   -2.5017 C   0  0  0  0  0  0  0  0  0  0  0  0
   -2.0530    1.5560   -0.4313 C   0  0  0  0  0  0  0  0  0  0  0  0
   -1.7869   -1.2556    2.0477 C   0  0  0  0  0  0  0  0  0  0  0  0
   -0.3558   -1.7209    1.9102 C   0  0  0  0  0  0  0  0  0  0  0  0
    0.3170    1.6453   -0.0900 C   0  0  0  0  0  0  0  0  0  0  0  0
    1.0028   -3.3574    0.6142 C   0  0  0  0  0  0  0  0  0  0  0  0
    2.7350    1.4233    0.4143 C   0  0  0  0  0  0  0  0  0  0  0  0
    1.6981   -2.6219   -0.5220 C   0  0  0  0  0  0  0  0  0  0  0  0
    4.0359    2.1146    0.2119 C   0  0  0  0  0  0  0  0  0  0  0  0
    3.8723   -3.2818    0.2890 C   0  0  0  0  0  0  0  0  0  0  0  0
    3.5942   -2.6335   -2.0134 C   0  0  0  0  0  0  0  0  0  0  0  0
    5.1824   -3.9657   -0.0915 C   0  0  0  0  0  0  0  0  0  0  0  0
    4.9103   -3.3337   -2.3398 C   0  0  0  0  0  0  0  0  0  0  0  0
    4.0527    3.4914    0.1359 C   0  0  0  0  0  0  0  0  0  0  0  0
    5.1826    1.3563    0.1063 C   0  0  0  0  0  0  0  0  0  0  0  0
    5.2729    4.1399   -0.0541 C   0  0  0  0  0  0  0  0  0  0  0  0
    6.4029    2.0047   -0.0836 C   0  0  0  0  0  0  0  0  0  0  0  0
    6.4480    3.3965   -0.1638 C   0  0  0  0  0  0  0  0  0  0  0  0
   -3.8282   -0.2721   -1.3788 H   0  0  0  0  0  0  0  0  0  0  0  0
   -2.2200   -1.4403   -0.0572 H   0  0  0  0  0  0  0  0  0  0  0  0
   -4.3037   -2.3805    0.1742 H   0  0  0  0  0  0  0  0  0  0  0  0
   -4.5695   -2.0815    1.8821 H   0  0  0  0  0  0  0  0  0  0  0  0
   -6.0544   -1.6231   -1.5014 H   0  0  0  0  0  0  0  0  0  0  0  0
   -3.5796    2.1079   -1.7957 H   0  0  0  0  0  0  0  0  0  0  0  0
   -3.9163    2.5090   -0.1078 H   0  0  0  0  0  0  0  0  0  0  0  0
   -6.6788   -2.4596    0.7042 H   0  0  0  0  0  0  0  0  0  0  0  0
   -6.6624   -0.8627    1.3930 H   0  0  0  0  0  0  0  0  0  0  0  0
   -3.9567    0.0277    2.9304 H   0  0  0  0  0  0  0  0  0  0  0  0
   -5.2408    0.8262    2.0896 H   0  0  0  0  0  0  0  0  0  0  0  0
   -3.6108    1.4855    2.0064 H   0  0  0  0  0  0  0  0  0  0  0  0
   -6.1629    2.5894   -0.4356 H   0  0  0  0  0  0  0  0  0  0  0  0
   -6.6016    1.4379    0.8259 H   0  0  0  0  0  0  0  0  0  0  0  0
   -5.5771    1.8367   -2.7190 H   0  0  0  0  0  0  0  0  0  0  0  0
   -5.3051    0.1344   -3.1054 H   0  0  0  0  0  0  0  0  0  0  0  0
   -6.9379    0.7376   -2.8796 H   0  0  0  0  0  0  0  0  0  0  0  0
   -1.7970   -0.4991    2.8413 H   0  0  0  0  0  0  0  0  0  0  0  0
   -2.3801   -2.1079    2.3949 H   0  0  0  0  0  0  0  0  0  0  0  0
   -8.0164   -0.7882   -1.9331 H   0  0  0  0  0  0  0  0  0  0  0  0
   -7.9713    2.1048   -1.4916 H   0  0  0  0  0  0  0  0  0  0  0  0
   -1.0858   -3.0825    0.5073 H   0  0  0  0  0  0  0  0  0  0  0  0
    1.7447    2.9664   -0.6015 H   0  0  0  0  0  0  0  0  0  0  0  0
    1.5908   -3.3788    1.5344 H   0  0  0  0  0  0  0  0  0  0  0  0
    0.7743   -4.3903    0.3289 H   0  0  0  0  0  0  0  0  0  0  0  0
    1.0328   -2.6282   -1.3954 H   0  0  0  0  0  0  0  0  0  0  0  0
    1.8541   -1.5713   -0.2614 H   0  0  0  0  0  0  0  0  0  0  0  0
    4.0744   -2.2560    0.6201 H   0  0  0  0  0  0  0  0  0  0  0  0
    3.4797   -3.8478    1.1370 H   0  0  0  0  0  0  0  0  0  0  0  0
    2.9382   -2.6837   -2.8899 H   0  0  0  0  0  0  0  0  0  0  0  0
    3.7885   -1.5754   -1.7939 H   0  0  0  0  0  0  0  0  0  0  0  0
    5.0323   -5.0260   -0.3292 H   0  0  0  0  0  0  0  0  0  0  0  0
    5.8885   -3.9104    0.7434 H   0  0  0  0  0  0  0  0  0  0  0  0
    4.7493   -4.3722   -2.6542 H   0  0  0  0  0  0  0  0  0  0  0  0
    5.4152   -2.8139   -3.1602 H   0  0  0  0  0  0  0  0  0  0  0  0
    5.3078    5.2235   -0.1167 H   0  0  0  0  0  0  0  0  0  0  0  0
    7.3176    1.4256   -0.1690 H   0  0  0  0  0  0  0  0  0  0  0  0
    7.3982    3.9014   -0.3118 H   0  0  0  0  0  0  0  0  0  0  0  0
  1 25  1  0  0  0  0
  1 28  1  0  0  0  0
  2 37  1  0  0  0  0
  3 38  1  0  0  0  0
  4 18  1  0  0  0  0
  4 61  1  0  0  0  0
  5 23  1  0  0  0  0
  5 62  1  0  0  0  0
  6 27  2  0  0  0  0
  7 30  2  0  0  0  0
  8 35  1  0  0  0  0
  8 36  1  0  0  0  0
  9 22  1  0  0  0  0
  9 28  2  0  0  0  0
 10 27  1  0  0  0  0
 10 29  1  0  0  0  0
 10 63  1  0  0  0  0
 11 28  1  0  0  0  0
 11 30  1  0  0  0  0
 11 64  1  0  0  0  0
 12 31  1  0  0  0  0
 12 33  1  0  0  0  0
 12 34  1  0  0  0  0
 13 14  1  0  0  0  0
 13 16  1  0  0  0  0
 13 17  1  0  0  0  0
 13 21  1  0  0  0  0
 14 15  1  0  0  0  0
 14 19  1  0  0  0  0
 14 42  1  0  0  0  0
 15 18  1  0  0  0  0
 15 23  1  0  0  0  0
 15 24  1  0  0  0  0
 16 22  1  0  0  0  0
 16 26  1  0  0  0  0
 16 43  1  0  0  0  0
 17 20  1  0  0  0  0
 17 44  1  0  0  0  0
 17 45  1  0  0  0  0
 18 20  1  0  0  0  0
 18 46  1  0  0  0  0
 19 25  1  0  0  0  0
 19 47  1  0  0  0  0
 19 48  1  0  0  0  0
 20 49  1  0  0  0  0
 20 50  1  0  0  0  0
 21 51  1  0  0  0  0
 21 52  1  0  0  0  0
 21 53  1  0  0  0  0
 22 25  2  0  0  0  0
 23 54  1  0  0  0  0
 23 55  1  0  0  0  0
 24 56  1  0  0  0  0
 24 57  1  0  0  0  0
 24 58  1  0  0  0  0
 26 27  1  0  0  0  0
 26 59  1  0  0  0  0
 26 60  1  0  0  0  0
 29 31  1  0  0  0  0
 29 65  1  0  0  0  0
 29 66  1  0  0  0  0
 30 32  1  0  0  0  0
 31 67  1  0  0  0  0
 31 68  1  0  0  0  0
 32 37  2  0  0  0  0
 32 38  1  0  0  0  0
 33 35  1  0  0  0  0
 33 69  1  0  0  0  0
 33 70  1  0  0  0  0
 34 36  1  0  0  0  0
 34 71  1  0  0  0  0
 34 72  1  0  0  0  0
 35 73  1  0  0  0  0
 35 74  1  0  0  0  0
 36 75  1  0  0  0  0
 36 76  1  0  0  0  0
 37 39  1  0  0  0  0
 38 40  2  0  0  0  0
 39 41  2  0  0  0  0
 39 77  1  0  0  0  0
 40 41  1  0  0  0  0
 40 78  1  0  0  0  0
 41 79  1  0  0  0  0
M  END
> <PUBCHEM_COMPOUND_CID>
11883045

> <PUBCHEM_CONFORMER_RMSD>
1.2

> <PUBCHEM_CONFORMER_DIVERSEORDER>
1
37
22
26
16
7
27
39
10
31
19
38
5
15
33
34
24
30
3
21
36
35
42
41
13
43
29
2
23
18
32
17
40
9
20
28
14
8
4
25
11
6
12

> <PUBCHEM_MMFF94_PARTIAL_CHARGES>
41
1 -0.08
10 -0.73
11 -0.49
12 -0.81
16 0.18
18 0.28
19 0.18
2 -0.19
22 0.05
23 0.28
25 -0.14
26 0.06
27 0.57
28 0.44
29 0.3
3 -0.19
30 0.54
31 0.27
32 0.09
33 0.27
34 0.27
35 0.28
36 0.28
37 0.19
38 0.19
39 -0.15
4 -0.68
40 -0.15
41 -0.15
5 -0.68
6 -0.57
61 0.4
62 0.4
63 0.37
64 0.37
7 -0.57
77 0.15
78 0.15
79 0.15
8 -0.56
9 -0.57

> <PUBCHEM_EFFECTIVE_ROTOR_COUNT>
12.4

> <PUBCHEM_PHARMACOPHORE_FEATURES>
15
1 10 donor
1 11 donor
1 12 cation
1 4 acceptor
1 4 donor
1 5 acceptor
1 5 donor
1 6 acceptor
1 7 acceptor
1 8 acceptor
5 1 9 22 25 28 rings
6 13 14 15 17 18 20 rings
6 13 14 16 19 22 25 rings
6 32 37 38 39 40 41 rings
6 8 12 33 34 35 36 rings

> <PUBCHEM_HEAVY_ATOM_COUNT>
41

> <PUBCHEM_ATOM_DEF_STEREO_COUNT>
5

> <PUBCHEM_ATOM_UDEF_STEREO_COUNT>
0

> <PUBCHEM_BOND_DEF_STEREO_COUNT>
0

> <PUBCHEM_BOND_UDEF_STEREO_COUNT>
0

> <PUBCHEM_ISOTOPIC_ATOM_COUNT>
0

> <PUBCHEM_COMPONENT_COUNT>
1

> <PUBCHEM_CACTVS_TAUTO_COUNT>
6

> <PUBCHEM_CONFORMER_ID>
00B5522500000001

> <PUBCHEM_MMFF94_ENERGY>
116.6135

> <PUBCHEM_FEATURE_SELFOVERLAP>
76.27

> <PUBCHEM_SHAPE_FINGERPRINT>
10050765 1 18340205164140071653
10556698 54 17826772764673274949
11181472 205 18272939289416212345
12107698 1 18197778803990044799
12522641 33 18409164454204982149
12857493 111 18338231540820707728
13540713 4 18187942710818676635
1361 2 18411696634195572028
13811026 1 18407759231575070378
14725015 67 18189045414039416650
15264996 44 18201168672571663374
15328684 2 16988296295869544907
15351334 14 18115285836110187247
15400415 2 18051699047104212832
15444296 7 17774708793597152150
15927050 60 18269271446931508702
16067689 134 17619354208219832825
16067689 302 18339645642018821791
20642791 35 18189053097651305067
21344244 246 18411980303937708607
23559900 14 18336262358402257819
255183 451 18057892338541782358
27425 322 16878510171726552784
3298306 158 18339088185274960684
3388396 114 18131080354328142464
4017518 198 18198633323042537852
4066623 53 18115869595127253636
4403749 210 17764022863752514008
46194498 28 18341046316046154630
5265222 85 17904773524345030452
57828716 16 16702025232516856891
59755656 215 18334856147001219461
6669772 16 18410012182091935358

> <PUBCHEM_SHAPE_MULTIPOLES>
783.79
19.04
5.52
1.74
14.05
1.07
-0.08
-4.53
-6.65
-13.43
-1.01
0.99
1.21
3.31

> <PUBCHEM_SHAPE_SELFOVERLAP>
1665.267

> <PUBCHEM_SHAPE_VOLUME>
440.7

> <PUBCHEM_COORDINATE_TYPE>
2
5
10

$$$$
