28990909
  -OEChem-12032416253D

 62 66  0     1  0  0  0  0  0999 V2000
    3.7448   -0.1003   -0.0409 S   0  0  0  0  0  0  0  0  0  0  0  0
    1.3898    2.4866    1.8862 O   0  0  0  0  0  0  0  0  0  0  0  0
    3.5315   -0.7845    1.2202 O   0  0  0  0  0  0  0  0  0  0  0  0
    3.2536   -0.6547   -1.2875 O   0  0  0  0  0  0  0  0  0  0  0  0
   -3.0389    0.8402    0.2106 N   0  0  2  0  0  0  0  0  0  0  0  0
   -0.3242    2.5153    0.2989 N   0  0  0  0  0  0  0  0  0  0  0  0
    3.2374    1.5233    0.0936 N   0  0  0  0  0  0  0  0  0  0  0  0
   -2.5166   -3.5231   -0.9198 N   0  0  0  0  0  0  0  0  0  0  0  0
   -2.7187    3.2436    0.8486 C   0  0  1  0  0  0  0  0  0  0  0  0
   -2.1618    2.5157   -1.4225 C   0  0  2  0  0  0  0  0  0  0  0  0
   -2.7700    3.6596   -0.6156 C   0  0  0  0  0  0  0  0  0  0  0  0
   -3.5189    1.9401    1.0561 C   0  0  0  0  0  0  0  0  0  0  0  0
   -2.9944    1.2315   -1.2063 C   0  0  0  0  0  0  0  0  0  0  0  0
   -1.2505    3.1077    1.2739 C   0  0  0  0  0  0  0  0  0  0  0  0
   -0.7159    2.2850   -1.0238 C   0  0  0  0  0  0  0  0  0  0  0  0
   -3.8537   -0.3580    0.3970 C   0  0  0  0  0  0  0  0  0  0  0  0
    0.1765    1.8449   -1.9264 C   0  0  0  0  0  0  0  0  0  0  0  0
    0.9953    2.2841    0.7369 C   0  0  0  0  0  0  0  0  0  0  0  0
   -3.0959   -1.6113    0.0479 C   0  0  0  0  0  0  0  0  0  0  0  0
    1.9535    1.7717   -0.2935 C   0  0  0  0  0  0  0  0  0  0  0  0
    1.5371    1.5822   -1.5501 C   0  0  0  0  0  0  0  0  0  0  0  0
   -1.8801   -2.0578    0.6374 C   0  0  0  0  0  0  0  0  0  0  0  0
   -3.4620   -2.5329   -0.9058 C   0  0  0  0  0  0  0  0  0  0  0  0
   -1.5386   -3.2590    0.0124 C   0  0  0  0  0  0  0  0  0  0  0  0
   -1.0350   -1.5537    1.6458 C   0  0  0  0  0  0  0  0  0  0  0  0
   -0.3895   -3.9843    0.3468 C   0  0  0  0  0  0  0  0  0  0  0  0
   -2.5564   -4.6760   -1.7936 C   0  0  0  0  0  0  0  0  0  0  0  0
    5.4945    0.1458   -0.2163 C   0  0  0  0  0  0  0  0  0  0  0  0
    0.1180   -2.2685    1.9908 C   0  0  0  0  0  0  0  0  0  0  0  0
    0.4338   -3.4648    1.3499 C   0  0  0  0  0  0  0  0  0  0  0  0
    6.2278   -1.1775   -0.3602 C   0  0  0  0  0  0  0  0  0  0  0  0
    7.7275   -0.9707   -0.4907 C   0  0  0  0  0  0  0  0  0  0  0  0
   -3.1862    4.0200    1.4670 H   0  0  0  0  0  0  0  0  0  0  0  0
   -2.2128    2.7847   -2.4858 H   0  0  0  0  0  0  0  0  0  0  0  0
   -2.2163    4.5931   -0.7761 H   0  0  0  0  0  0  0  0  0  0  0  0
   -3.8058    3.8416   -0.9272 H   0  0  0  0  0  0  0  0  0  0  0  0
   -3.4447    1.6518    2.1122 H   0  0  0  0  0  0  0  0  0  0  0  0
   -4.5797    2.1398    0.8518 H   0  0  0  0  0  0  0  0  0  0  0  0
   -4.0098    1.4001   -1.5909 H   0  0  0  0  0  0  0  0  0  0  0  0
   -2.5570    0.4241   -1.8072 H   0  0  0  0  0  0  0  0  0  0  0  0
   -0.8540    4.1103    1.4856 H   0  0  0  0  0  0  0  0  0  0  0  0
   -1.1711    2.5483    2.2146 H   0  0  0  0  0  0  0  0  0  0  0  0
   -4.7975   -0.2998   -0.1609 H   0  0  0  0  0  0  0  0  0  0  0  0
   -4.1347   -0.4634    1.4544 H   0  0  0  0  0  0  0  0  0  0  0  0
   -0.1040    1.6546   -2.9571 H   0  0  0  0  0  0  0  0  0  0  0  0
    2.2010    1.2671   -2.3476 H   0  0  0  0  0  0  0  0  0  0  0  0
   -4.3146   -2.5620   -1.5714 H   0  0  0  0  0  0  0  0  0  0  0  0
    3.4798    1.9535    0.9967 H   0  0  0  0  0  0  0  0  0  0  0  0
   -1.2646   -0.6234    2.1575 H   0  0  0  0  0  0  0  0  0  0  0  0
   -0.1376   -4.9160   -0.1485 H   0  0  0  0  0  0  0  0  0  0  0  0
   -1.6579   -4.6681   -2.4158 H   0  0  0  0  0  0  0  0  0  0  0  0
   -2.5925   -5.5763   -1.1750 H   0  0  0  0  0  0  0  0  0  0  0  0
   -3.4456   -4.6265   -2.4273 H   0  0  0  0  0  0  0  0  0  0  0  0
    5.8405    0.6838    0.6722 H   0  0  0  0  0  0  0  0  0  0  0  0
    5.6514    0.7721   -1.1005 H   0  0  0  0  0  0  0  0  0  0  0  0
    0.7743   -1.8836    2.7668 H   0  0  0  0  0  0  0  0  0  0  0  0
    1.3350   -4.0028    1.6329 H   0  0  0  0  0  0  0  0  0  0  0  0
    6.0280   -1.8167    0.5077 H   0  0  0  0  0  0  0  0  0  0  0  0
    5.8606   -1.7184   -1.2402 H   0  0  0  0  0  0  0  0  0  0  0  0
    7.9647   -0.3656   -1.3715 H   0  0  0  0  0  0  0  0  0  0  0  0
    8.1323   -0.4662    0.3925 H   0  0  0  0  0  0  0  0  0  0  0  0
    8.2358   -1.9345   -0.5939 H   0  0  0  0  0  0  0  0  0  0  0  0
  1  3  2  0  0  0  0
  1  4  2  0  0  0  0
  1  7  1  0  0  0  0
  1 28  1  0  0  0  0
  2 18  2  0  0  0  0
  5 12  1  0  0  0  0
  5 13  1  0  0  0  0
  5 16  1  0  0  0  0
  6 14  1  0  0  0  0
  6 15  1  0  0  0  0
  6 18  1  0  0  0  0
  7 20  1  0  0  0  0
  7 48  1  0  0  0  0
  8 23  1  0  0  0  0
  8 24  1  0  0  0  0
  8 27  1  0  0  0  0
  9 11  1  0  0  0  0
  9 12  1  0  0  0  0
  9 14  1  0  0  0  0
  9 33  1  0  0  0  0
 10 11  1  0  0  0  0
 10 13  1  0  0  0  0
 10 15  1  0  0  0  0
 10 34  1  0  0  0  0
 11 35  1  0  0  0  0
 11 36  1  0  0  0  0
 12 37  1  0  0  0  0
 12 38  1  0  0  0  0
 13 39  1  0  0  0  0
 13 40  1  0  0  0  0
 14 41  1  0  0  0  0
 14 42  1  0  0  0  0
 15 17  2  0  0  0  0
 16 19  1  0  0  0  0
 16 43  1  0  0  0  0
 16 44  1  0  0  0  0
 17 21  1  0  0  0  0
 17 45  1  0  0  0  0
 18 20  1  0  0  0  0
 19 22  1  0  0  0  0
 19 23  2  0  0  0  0
 20 21  2  0  0  0  0
 21 46  1  0  0  0  0
 22 24  1  0  0  0  0
 22 25  2  0  0  0  0
 23 47  1  0  0  0  0
 24 26  2  0  0  0  0
 25 29  1  0  0  0  0
 25 49  1  0  0  0  0
 26 30  1  0  0  0  0
 26 50  1  0  0  0  0
 27 51  1  0  0  0  0
 27 52  1  0  0  0  0
 27 53  1  0  0  0  0
 28 31  1  0  0  0  0
 28 54  1  0  0  0  0
 28 55  1  0  0  0  0
 29 30  2  0  0  0  0
 29 56  1  0  0  0  0
 30 57  1  0  0  0  0
 31 32  1  0  0  0  0
 31 58  1  0  0  0  0
 31 59  1  0  0  0  0
 32 60  1  0  0  0  0
 32 61  1  0  0  0  0
 32 62  1  0  0  0  0
M  END
> <PUBCHEM_COMPOUND_CID>
28990909

> <PUBCHEM_CONFORMER_RMSD>
1

> <PUBCHEM_CONFORMER_DIVERSEORDER>
1
125
149
66
154
117
101
144
15
96
107
80
158
55
87
127
152
119
21
75
53
120
136
124
141
86
31
76
40
147
82
39
102
135
131
142
5
128
93
113
133
8
105
90
123
121
98
63
56
94
74
85
65
26
103
22
89
91
57
108
156
73
70
114
60
148
157
112
79
145
106
88
146
48
71
38
58
126
50
151
84
27
30
155
138
67
118
42
37
29
19
137
110
130
32
111
47
104
143
2
116
16
43
69
23
54
150
78
100
20
64
35
59
140
25
34
61
41
95
115
3
46
33
36
4
139
44
83
109
134
10
11
153
28
14
12
81
72
13
97
17
7
68
62
122
52
6
77
9
45
51
99
49
18
24
129
92
132

> <PUBCHEM_MMFF94_PARTIAL_CHARGES>
35
1 1.33
10 0.14
12 0.27
13 0.27
14 0.3
15 -0.03
16 0.45
17 -0.15
18 0.62
19 -0.18
2 -0.57
20 0.21
21 -0.15
23 -0.3
24 -0.15
25 -0.15
26 -0.15
27 0.26
28 0.11
29 -0.15
3 -0.65
30 -0.15
4 -0.65
45 0.15
46 0.15
47 0.15
48 0.42
49 0.15
5 -0.81
50 0.15
56 0.15
57 0.15
6 -0.47
7 -0.75
8 0.05

> <PUBCHEM_EFFECTIVE_ROTOR_COUNT>
7

> <PUBCHEM_PHARMACOPHORE_FEATURES>
12
1 2 acceptor
1 3 acceptor
1 32 hydrophobe
1 4 acceptor
1 5 cation
1 7 donor
1 8 cation
5 8 19 22 23 24 rings
6 22 24 25 26 29 30 rings
6 5 9 10 11 12 13 rings
6 6 15 17 18 20 21 rings
6 6 9 10 11 14 15 rings

> <PUBCHEM_HEAVY_ATOM_COUNT>
32

> <PUBCHEM_ATOM_DEF_STEREO_COUNT>
2

> <PUBCHEM_ATOM_UDEF_STEREO_COUNT>
0

> <PUBCHEM_BOND_DEF_STEREO_COUNT>
0

> <PUBCHEM_BOND_UDEF_STEREO_COUNT>
0

> <PUBCHEM_ISOTOPIC_ATOM_COUNT>
0

> <PUBCHEM_COMPONENT_COUNT>
1

> <PUBCHEM_CACTVS_TAUTO_COUNT>
3

> <PUBCHEM_CONFORMER_ID>
01BA5DBD00000001

> <PUBCHEM_MMFF94_ENERGY>
66.4601

> <PUBCHEM_FEATURE_SELFOVERLAP>
62.555

> <PUBCHEM_SHAPE_FINGERPRINT>
12156800 1 17976780377148089723
12553582 1 17614858734732960905
12788726 201 18265070169808841324
13122387 1 18191865626356050787
14028597 1 17629772167383019121
14251740 79 18334859411524472200
14251757 5 18334862744704190386
14659021 117 18265606757748832914
14674994 50 18342466928451203210
14725015 67 18411136978376734091
14866123 147 18410577270822992995
15274700 242 16732979809333420832
15297060 5 17986957349543150603
17627616 140 18117273649595502650
19315092 285 16482472804234541895
20764821 26 18045788054763956034
20771845 165 17174614948781569845
20775438 99 16612487954096799327
20775530 9 18120936375961110555
23559900 14 18340480174943159856
244849 19 17559935724403260794
35225 105 18264749026619640757
463206 1 17905890627705066075
469060 322 17023479555129096119
5080951 261 18190154855810759814
5171179 24 18200027495070418688
5265222 85 18261687999434079460
6287921 2 17045407983295072195
9896288 288 18126862512155430969

> <PUBCHEM_SHAPE_MULTIPOLES>
624.86
9.94
6.2
1.73
24.55
3.93
-0.02
2.01
1.93
-6.64
0.46
-0.52
0.13
-0.97

> <PUBCHEM_SHAPE_SELFOVERLAP>
1344.219

> <PUBCHEM_SHAPE_VOLUME>
347.3

> <PUBCHEM_COORDINATE_TYPE>
2
5
10

$$$$
