11911745
  -OEChem-12032416253D

 57 61  0     1  0  0  0  0  0999 V2000
    3.6101   -2.0794    1.7888 S   0  0  0  0  0  0  0  0  0  0  0  0
    0.7885    1.5633    1.6647 O   0  0  0  0  0  0  0  0  0  0  0  0
    0.7791    3.8827   -0.4226 O   0  0  0  0  0  0  0  0  0  0  0  0
   -3.8339    2.6680    1.2288 O   0  0  0  0  0  0  0  0  0  0  0  0
   -1.9976    1.6093    0.2877 N   0  0  0  0  0  0  0  0  0  0  0  0
    2.9988    1.8804   -1.2237 N   0  0  0  0  0  0  0  0  0  0  0  0
    3.9081   -0.1033   -0.3604 N   0  0  0  0  0  0  0  0  0  0  0  0
    4.1670    0.4669   -2.6874 N   0  0  0  0  0  0  0  0  0  0  0  0
   -6.6054   -2.6904   -0.7389 N   0  0  0  0  0  0  0  0  0  0  0  0
    0.1300    2.6014   -0.3719 C   0  0  1  0  0  0  0  0  0  0  0  0
    1.1031    1.6275    0.2635 C   0  0  1  0  0  0  0  0  0  0  0  0
   -1.0341    2.6395    0.5917 C   0  0  2  0  0  0  0  0  0  0  0  0
    2.4550    2.2695    0.0590 C   0  0  2  0  0  0  0  0  0  0  0  0
   -0.3588    2.3847    1.9275 C   0  0  0  0  0  0  0  0  0  0  0  0
    2.1238    3.7506    0.0613 C   0  0  0  0  0  0  0  0  0  0  0  0
   -3.3362    1.7133    0.6378 C   0  0  0  0  0  0  0  0  0  0  0  0
    3.7126    0.7132   -1.4299 C   0  0  0  0  0  0  0  0  0  0  0  0
   -4.1944    0.5555    0.2770 C   0  0  0  0  0  0  0  0  0  0  0  0
   -5.3233    0.3032    1.0287 C   0  0  0  0  0  0  0  0  0  0  0  0
   -3.8359   -0.2298   -0.7991 C   0  0  0  0  0  0  0  0  0  0  0  0
    4.6073   -1.2325   -0.5977 C   0  0  0  0  0  0  0  0  0  0  0  0
    4.8584   -0.6798   -2.8533 C   0  0  0  0  0  0  0  0  0  0  0  0
    5.1116   -1.5762   -1.8354 C   0  0  0  0  0  0  0  0  0  0  0  0
   -6.1297   -0.7831    0.6892 C   0  0  0  0  0  0  0  0  0  0  0  0
   -4.6424   -1.3160   -1.1386 C   0  0  0  0  0  0  0  0  0  0  0  0
   -5.7893   -1.5927   -0.3944 C   0  0  0  0  0  0  0  0  0  0  0  0
    4.7985   -2.0754    0.5524 C   0  0  0  0  0  0  0  0  0  0  0  0
    5.8415   -2.9324    0.8431 C   0  0  0  0  0  0  0  0  0  0  0  0
   -6.0313   -3.8622   -1.3699 C   0  0  0  0  0  0  0  0  0  0  0  0
   -8.0308   -2.6550   -0.4791 C   0  0  0  0  0  0  0  0  0  0  0  0
    5.6614   -3.5963    2.0908 C   0  0  0  0  0  0  0  0  0  0  0  0
    4.4886   -3.2246    2.7103 C   0  0  0  0  0  0  0  0  0  0  0  0
   -0.1419    2.3300   -1.3971 H   0  0  0  0  0  0  0  0  0  0  0  0
    1.0096    0.6127   -0.1364 H   0  0  0  0  0  0  0  0  0  0  0  0
   -1.5458    3.6080    0.6030 H   0  0  0  0  0  0  0  0  0  0  0  0
    3.1696    2.0599    0.8632 H   0  0  0  0  0  0  0  0  0  0  0  0
   -0.9994    1.8867    2.6617 H   0  0  0  0  0  0  0  0  0  0  0  0
    0.0057    3.3200    2.3665 H   0  0  0  0  0  0  0  0  0  0  0  0
    2.7924    4.3572   -0.5576 H   0  0  0  0  0  0  0  0  0  0  0  0
    2.1414    4.1531    1.0802 H   0  0  0  0  0  0  0  0  0  0  0  0
   -1.6360    0.7424   -0.0960 H   0  0  0  0  0  0  0  0  0  0  0  0
    2.8142    2.4549   -2.0382 H   0  0  0  0  0  0  0  0  0  0  0  0
   -5.5978    0.9194    1.8797 H   0  0  0  0  0  0  0  0  0  0  0  0
   -2.9732   -0.0261   -1.4249 H   0  0  0  0  0  0  0  0  0  0  0  0
    5.2136   -0.8649   -3.8614 H   0  0  0  0  0  0  0  0  0  0  0  0
    5.6670   -2.4865   -2.0236 H   0  0  0  0  0  0  0  0  0  0  0  0
   -7.0086   -0.9786    1.2969 H   0  0  0  0  0  0  0  0  0  0  0  0
   -4.3601   -1.9146   -2.0002 H   0  0  0  0  0  0  0  0  0  0  0  0
    6.7017   -3.0814    0.2023 H   0  0  0  0  0  0  0  0  0  0  0  0
   -5.8764   -3.6901   -2.4402 H   0  0  0  0  0  0  0  0  0  0  0  0
   -5.0768   -4.1398   -0.9085 H   0  0  0  0  0  0  0  0  0  0  0  0
   -6.6933   -4.7296   -1.2682 H   0  0  0  0  0  0  0  0  0  0  0  0
   -8.4611   -1.6799   -0.7344 H   0  0  0  0  0  0  0  0  0  0  0  0
   -8.5614   -3.4005   -1.0822 H   0  0  0  0  0  0  0  0  0  0  0  0
   -8.2391   -2.8750    0.5731 H   0  0  0  0  0  0  0  0  0  0  0  0
    6.3573   -4.3093    2.5132 H   0  0  0  0  0  0  0  0  0  0  0  0
    4.1057   -3.5703    3.6602 H   0  0  0  0  0  0  0  0  0  0  0  0
  1 27  1  0  0  0  0
  1 32  1  0  0  0  0
  2 11  1  0  0  0  0
  2 14  1  0  0  0  0
  3 10  1  0  0  0  0
  3 15  1  0  0  0  0
  4 16  2  0  0  0  0
  5 12  1  0  0  0  0
  5 16  1  0  0  0  0
  5 41  1  0  0  0  0
  6 13  1  0  0  0  0
  6 17  1  0  0  0  0
  6 42  1  0  0  0  0
  7 17  1  0  0  0  0
  7 21  2  0  0  0  0
  8 17  2  0  0  0  0
  8 22  1  0  0  0  0
  9 26  1  0  0  0  0
  9 29  1  0  0  0  0
  9 30  1  0  0  0  0
 10 11  1  0  0  0  0
 10 12  1  0  0  0  0
 10 33  1  0  0  0  0
 11 13  1  0  0  0  0
 11 34  1  0  0  0  0
 12 14  1  0  0  0  0
 12 35  1  0  0  0  0
 13 15  1  0  0  0  0
 13 36  1  0  0  0  0
 14 37  1  0  0  0  0
 14 38  1  0  0  0  0
 15 39  1  0  0  0  0
 15 40  1  0  0  0  0
 16 18  1  0  0  0  0
 18 19  2  0  0  0  0
 18 20  1  0  0  0  0
 19 24  1  0  0  0  0
 19 43  1  0  0  0  0
 20 25  2  0  0  0  0
 20 44  1  0  0  0  0
 21 23  1  0  0  0  0
 21 27  1  0  0  0  0
 22 23  2  0  0  0  0
 22 45  1  0  0  0  0
 23 46  1  0  0  0  0
 24 26  2  0  0  0  0
 24 47  1  0  0  0  0
 25 26  1  0  0  0  0
 25 48  1  0  0  0  0
 27 28  2  0  0  0  0
 28 31  1  0  0  0  0
 28 49  1  0  0  0  0
 29 50  1  0  0  0  0
 29 51  1  0  0  0  0
 29 52  1  0  0  0  0
 30 53  1  0  0  0  0
 30 54  1  0  0  0  0
 30 55  1  0  0  0  0
 31 32  2  0  0  0  0
 31 56  1  0  0  0  0
 32 57  1  0  0  0  0
M  END
> <PUBCHEM_COMPOUND_CID>
11911745

> <PUBCHEM_CONFORMER_RMSD>
1

> <PUBCHEM_CONFORMER_DIVERSEORDER>
1
52
5
29
36
20
62
66
57
95
80
28
98
78
88
53
31
18
46
51
19
71
85
86
33
17
68
14
94
30
60
89
81
63
16
13
32
70
65
38
26
47
11
54
23
61
25
44
90
91
84
6
69
21
45
73
34
48
96
9
37
93
10
67
64
83
43
74
58
92
39
7
77
27
41
24
35
79
12
56
76
40
50
3
97
82
8
22
75
72
49
2
87
42
15
55
59
4

> <PUBCHEM_MMFF94_PARTIAL_CHARGES>
43
1 -0.08
10 0.28
11 0.28
12 0.3
13 0.37
14 0.28
15 0.28
16 0.54
17 0.72
18 0.09
19 -0.15
2 -0.56
20 -0.15
21 0.36
22 0.16
23 -0.15
24 -0.15
25 -0.15
26 0.1
27 -0.01
28 -0.15
29 0.37
3 -0.56
30 0.37
31 -0.15
32 -0.11
4 -0.57
41 0.37
42 0.4
43 0.15
44 0.15
45 0.15
46 0.15
47 0.15
48 0.15
49 0.15
5 -0.73
56 0.15
57 0.15
6 -0.87
7 -0.62
8 -0.62
9 -0.84

> <PUBCHEM_EFFECTIVE_ROTOR_COUNT>
8.2

> <PUBCHEM_PHARMACOPHORE_FEATURES>
13
1 2 acceptor
1 3 acceptor
1 4 acceptor
1 5 donor
1 6 donor
1 7 acceptor
1 9 cation
4 6 7 8 17 cation
5 1 27 28 31 32 rings
5 2 10 11 12 14 rings
5 3 10 11 13 15 rings
6 18 19 20 24 25 26 rings
6 7 8 17 21 22 23 rings

> <PUBCHEM_HEAVY_ATOM_COUNT>
32

> <PUBCHEM_ATOM_DEF_STEREO_COUNT>
4

> <PUBCHEM_ATOM_UDEF_STEREO_COUNT>
0

> <PUBCHEM_BOND_DEF_STEREO_COUNT>
0

> <PUBCHEM_BOND_UDEF_STEREO_COUNT>
0

> <PUBCHEM_ISOTOPIC_ATOM_COUNT>
0

> <PUBCHEM_COMPONENT_COUNT>
1

> <PUBCHEM_CACTVS_TAUTO_COUNT>
6

> <PUBCHEM_CONFORMER_ID>
00B5C24100000001

> <PUBCHEM_MMFF94_ENERGY>
103.3307

> <PUBCHEM_FEATURE_SELFOVERLAP>
66.679

> <PUBCHEM_SHAPE_FINGERPRINT>
10074138 170 17057536820505066689
10258705 36 17697883563035061766
10556698 54 14346058798874643015
10622 236 18334856069665297963
10928967 22 18336552629023623747
11227150 75 17532914036160485770
11607047 403 18267569377815711160
11796584 16 18200319805458774148
11963148 33 17838045263177443575
11973864 118 18121758767994948946
1200032 147 11815606528537541402
12047536 79 15482677887973806899
12342043 65 16557361332172076684
12661589 4 18271806890674854147
13553644 42 18409726271527604775
13782708 43 18261670467767506007
14026016 60 18054771031532621287
14040221 126 17114367699370873371
14340393 91 17096912595485407991
14347332 77 18411419518948426269
15001296 14 18268710683205676375
15163728 17 8718531861842119240
17138139 8 18336276673691798562
17324776 126 17825375289832491258
19303781 99 17460879480211037138
19315092 285 18040997294145408566
19841028 212 18199466744457211903
20691028 202 8141822577367054367
20775438 99 18115303522326614938
208703 8 18342178851587851094
21585481 104 17095234788481557455
21585483 132 18269825579734023735
21599406 157 16805610312816235299
21792938 131 18410284840476980691
24983565 74 17842273959392499463
25222932 49 18410855469541198460
2838139 119 12107790769202372013
397830 11 11815618644835242029
439807 62 18186525376137591195
45266715 3 18115584997292678352
463206 1 18188500060229163192
50009960 94 18268126769274420010
5104073 3 17489316325739393481
59025328 239 16951413114228444724
6058803 2 18339942458075921401
6201460 15 18045771291491770323
636783 263 18123163952904260367
6636735 143 15554442977764969135
7970288 3 18199479761695399934
96874 4 18261949640135785698

> <PUBCHEM_SHAPE_MULTIPOLES>
619.88
19.42
5.43
2.3
22.56
0.01
0.41
-25.84
2.98
-0.94
-1.56
-4.16
-1.26
-5.82

> <PUBCHEM_SHAPE_SELFOVERLAP>
1341.375

> <PUBCHEM_SHAPE_VOLUME>
343

> <PUBCHEM_COORDINATE_TYPE>
2
5
10

$$$$
