11941656
  -OEChem-12032416163D

 55 58  0     1  0  0  0  0  0999 V2000
    2.5992   -2.2505    1.8743 O   0  0  0  0  0  0  0  0  0  0  0  0
    0.9102    0.3613    2.1241 O   0  0  0  0  0  0  0  0  0  0  0  0
    5.8030    0.3312    0.4743 O   0  0  0  0  0  0  0  0  0  0  0  0
   -6.3924    2.9548    0.5438 O   0  0  0  0  0  0  0  0  0  0  0  0
    0.0187   -2.6135    0.2046 N   0  0  0  0  0  0  0  0  0  0  0  0
    3.6425    1.0996    0.8394 N   0  0  0  0  0  0  0  0  0  0  0  0
    5.0252    2.2275   -0.6132 N   0  0  0  0  0  0  0  0  0  0  0  0
   -1.8986   -1.3753   -0.2236 N   0  0  0  0  0  0  0  0  0  0  0  0
   -1.1973   -3.1452   -1.7009 N   0  0  0  0  0  0  0  0  0  0  0  0
    1.0681   -0.6123    1.0783 C   0  0  1  0  0  0  0  0  0  0  0  0
    2.5195   -1.0506    1.0871 C   0  0  1  0  0  0  0  0  0  0  0  0
    0.3004   -1.8694    1.4127 C   0  0  2  0  0  0  0  0  0  0  0  0
    3.2417    0.0820    1.7805 C   0  0  2  0  0  0  0  0  0  0  0  0
    1.2787   -2.6348    2.2846 C   0  0  0  0  0  0  0  0  0  0  0  0
    2.1848    0.6032    2.7380 C   0  0  0  0  0  0  0  0  0  0  0  0
   -1.0732   -2.3671   -0.6088 C   0  0  0  0  0  0  0  0  0  0  0  0
    4.9065    1.1444    0.2541 C   0  0  0  0  0  0  0  0  0  0  0  0
   -2.9522   -1.1626   -1.0390 C   0  0  0  0  0  0  0  0  0  0  0  0
    6.2332    2.5093   -1.3524 C   0  0  0  0  0  0  0  0  0  0  0  0
   -2.2725   -2.8781   -2.4711 C   0  0  0  0  0  0  0  0  0  0  0  0
   -3.1922   -1.8895   -2.1871 C   0  0  0  0  0  0  0  0  0  0  0  0
   -3.8386   -0.0996   -0.6301 C   0  0  0  0  0  0  0  0  0  0  0  0
    6.1768    1.8033   -2.6662 C   0  0  0  0  0  0  0  0  0  0  0  0
   -5.1801   -0.3750   -0.3646 C   0  0  0  0  0  0  0  0  0  0  0  0
   -3.3555    1.2027   -0.5017 C   0  0  0  0  0  0  0  0  0  0  0  0
   -6.0383    0.6516    0.0292 C   0  0  0  0  0  0  0  0  0  0  0  0
   -4.2137    2.2293   -0.1080 C   0  0  0  0  0  0  0  0  0  0  0  0
    7.0840    0.9070   -3.0706 C   0  0  0  0  0  0  0  0  0  0  0  0
   -5.5550    1.9538    0.1575 C   0  0  0  0  0  0  0  0  0  0  0  0
   -5.8330    4.2627    0.6550 C   0  0  0  0  0  0  0  0  0  0  0  0
    0.7769   -0.1296    0.1399 H   0  0  0  0  0  0  0  0  0  0  0  0
    2.9017   -1.2871    0.0887 H   0  0  0  0  0  0  0  0  0  0  0  0
   -0.6189   -1.6879    1.9814 H   0  0  0  0  0  0  0  0  0  0  0  0
    4.1270   -0.2542    2.3308 H   0  0  0  0  0  0  0  0  0  0  0  0
    1.1712   -2.3481    3.3366 H   0  0  0  0  0  0  0  0  0  0  0  0
    1.1803   -3.7226    2.2150 H   0  0  0  0  0  0  0  0  0  0  0  0
    2.2017    0.0457    3.6810 H   0  0  0  0  0  0  0  0  0  0  0  0
    2.2814    1.6690    2.9661 H   0  0  0  0  0  0  0  0  0  0  0  0
    0.6720   -3.3233   -0.1071 H   0  0  0  0  0  0  0  0  0  0  0  0
    2.9511    1.7806    0.5393 H   0  0  0  0  0  0  0  0  0  0  0  0
    4.2233    2.8362   -0.7466 H   0  0  0  0  0  0  0  0  0  0  0  0
    7.1030    2.2091   -0.7583 H   0  0  0  0  0  0  0  0  0  0  0  0
    6.2791    3.5909   -1.5118 H   0  0  0  0  0  0  0  0  0  0  0  0
   -2.3768   -3.5008   -3.3532 H   0  0  0  0  0  0  0  0  0  0  0  0
   -4.0382   -1.7084   -2.8385 H   0  0  0  0  0  0  0  0  0  0  0  0
    5.3557    2.0480   -3.3356 H   0  0  0  0  0  0  0  0  0  0  0  0
   -5.5760   -1.3841   -0.4533 H   0  0  0  0  0  0  0  0  0  0  0  0
   -2.3132    1.4362   -0.7075 H   0  0  0  0  0  0  0  0  0  0  0  0
   -7.0819    0.4308    0.2361 H   0  0  0  0  0  0  0  0  0  0  0  0
   -3.7731    3.2172   -0.0285 H   0  0  0  0  0  0  0  0  0  0  0  0
    6.9924    0.4325   -4.0415 H   0  0  0  0  0  0  0  0  0  0  0  0
    7.9264    0.6312   -2.4461 H   0  0  0  0  0  0  0  0  0  0  0  0
   -5.0596    4.3050    1.4295 H   0  0  0  0  0  0  0  0  0  0  0  0
   -5.4727    4.6298   -0.3119 H   0  0  0  0  0  0  0  0  0  0  0  0
   -6.6389    4.9331    0.9713 H   0  0  0  0  0  0  0  0  0  0  0  0
  1 11  1  0  0  0  0
  1 14  1  0  0  0  0
  2 10  1  0  0  0  0
  2 15  1  0  0  0  0
  3 17  2  0  0  0  0
  4 29  1  0  0  0  0
  4 30  1  0  0  0  0
  5 12  1  0  0  0  0
  5 16  1  0  0  0  0
  5 39  1  0  0  0  0
  6 13  1  0  0  0  0
  6 17  1  0  0  0  0
  6 40  1  0  0  0  0
  7 17  1  0  0  0  0
  7 19  1  0  0  0  0
  7 41  1  0  0  0  0
  8 16  1  0  0  0  0
  8 18  2  0  0  0  0
  9 16  2  0  0  0  0
  9 20  1  0  0  0  0
 10 11  1  0  0  0  0
 10 12  1  0  0  0  0
 10 31  1  0  0  0  0
 11 13  1  0  0  0  0
 11 32  1  0  0  0  0
 12 14  1  0  0  0  0
 12 33  1  0  0  0  0
 13 15  1  0  0  0  0
 13 34  1  0  0  0  0
 14 35  1  0  0  0  0
 14 36  1  0  0  0  0
 15 37  1  0  0  0  0
 15 38  1  0  0  0  0
 18 21  1  0  0  0  0
 18 22  1  0  0  0  0
 19 23  1  0  0  0  0
 19 42  1  0  0  0  0
 19 43  1  0  0  0  0
 20 21  2  0  0  0  0
 20 44  1  0  0  0  0
 21 45  1  0  0  0  0
 22 24  2  0  0  0  0
 22 25  1  0  0  0  0
 23 28  2  0  0  0  0
 23 46  1  0  0  0  0
 24 26  1  0  0  0  0
 24 47  1  0  0  0  0
 25 27  2  0  0  0  0
 25 48  1  0  0  0  0
 26 29  2  0  0  0  0
 26 49  1  0  0  0  0
 27 29  1  0  0  0  0
 27 50  1  0  0  0  0
 28 51  1  0  0  0  0
 28 52  1  0  0  0  0
 30 53  1  0  0  0  0
 30 54  1  0  0  0  0
 30 55  1  0  0  0  0
M  END
> <PUBCHEM_COMPOUND_CID>
11941656

> <PUBCHEM_CONFORMER_RMSD>
1

> <PUBCHEM_CONFORMER_DIVERSEORDER>
1
52
19
25
37
61
9
42
23
5
14
48
8
35
54
12
13
10
45
29
59
2
22
27
7
15
20
51
16
32
21
18
53
36
49
40
55
33
11
24
17
50
57
43
26
34
31
4
56
30
38
60
41
44
58
47
28
3
6
46
39

> <PUBCHEM_MMFF94_PARTIAL_CHARGES>
41
1 -0.56
10 0.28
11 0.28
12 0.37
13 0.3
14 0.28
15 0.28
16 0.72
17 0.69
18 0.31
19 0.44
2 -0.56
20 0.16
21 -0.15
23 -0.29
24 -0.15
25 -0.15
26 -0.15
27 -0.15
28 -0.3
29 0.08
3 -0.57
30 0.28
39 0.4
4 -0.36
40 0.37
41 0.37
44 0.15
45 0.15
46 0.15
47 0.15
48 0.15
49 0.15
5 -0.87
50 0.15
51 0.15
52 0.15
6 -0.73
7 -0.73
8 -0.62
9 -0.62

> <PUBCHEM_EFFECTIVE_ROTOR_COUNT>
10.2

> <PUBCHEM_PHARMACOPHORE_FEATURES>
14
1 1 acceptor
1 2 acceptor
1 28 hydrophobe
1 3 acceptor
1 4 acceptor
1 5 donor
1 6 donor
1 7 donor
1 8 acceptor
4 5 8 9 16 cation
5 1 10 11 12 14 rings
5 2 10 11 13 15 rings
6 22 24 25 26 27 29 rings
6 8 9 16 18 20 21 rings

> <PUBCHEM_HEAVY_ATOM_COUNT>
30

> <PUBCHEM_ATOM_DEF_STEREO_COUNT>
4

> <PUBCHEM_ATOM_UDEF_STEREO_COUNT>
0

> <PUBCHEM_BOND_DEF_STEREO_COUNT>
0

> <PUBCHEM_BOND_UDEF_STEREO_COUNT>
0

> <PUBCHEM_ISOTOPIC_ATOM_COUNT>
0

> <PUBCHEM_COMPONENT_COUNT>
1

> <PUBCHEM_CACTVS_TAUTO_COUNT>
9

> <PUBCHEM_CONFORMER_ID>
00B6371800000001

> <PUBCHEM_MMFF94_ENERGY>
87.5067

> <PUBCHEM_FEATURE_SELFOVERLAP>
71.804

> <PUBCHEM_SHAPE_FINGERPRINT>
10670039 82 18269538567836657295
10917259 128 18268131236995879440
11374522 72 18115864102118127933
11410812 94 18270969050874183844
11475781 23 17917990594993319264
1200032 147 18269287780707420409
12390115 104 17531813596713985618
13782708 43 16127243605587634623
13828863 39 17603587456126136555
13885169 86 17458913755241532700
13944108 23 17410213902825113537
14114211 68 18272094851225930435
14187579 7 17980473791393819800
1454969 45 17987497318244980591
14840074 17 17676485068379097909
14849402 71 17823691976374300058
15119646 57 17388553867481417012
15131766 46 17385995238829250893
15163728 17 17749956678232608610
15513586 35 15072581139219092788
16120349 67 18336276703545527584
16991971 28 17626084710642959567
16992727 255 18342454829576115488
1768 23 18040720277213057244
19304144 158 17270586212866171016
19304671 126 16343405242614784713
21033650 10 18269273637627963050
21223535 225 18264208187828578060
21315764 119 18060149743087588612
21458453 9 14201972318217657932
21756936 100 18335129946845421179
21772528 278 17458634444695996512
21774942 28 18266176314038033020
24771750 20 17845658041122666847
312425 83 17700411670382434132
3552219 110 17970060261671252311
3610482 184 18335423534077916214
38570 142 18187653513548230782
397830 11 7853585561300950252
4258327 124 17967800670765163191
437795 139 9583512118694365509
437795 70 18270693068585560220
4394409 98 17846787278572500406
4408954 87 13334745673374336680
444735 79 12035736439824658300
50009960 94 10810501193842407505
508180 173 18271531991520207256
5252454 2 18269533006265589361
57724786 102 18263073327991662555
6523845 18 17417823867930292851
6700243 42 17343490404338492494
7808743 9 18343291574962043459

> <PUBCHEM_SHAPE_MULTIPOLES>
569
17.39
4.23
2.81
9.28
1.01
-0.67
21
-8.84
-4.42
-0.57
4.63
-1.03
-5.4

> <PUBCHEM_SHAPE_SELFOVERLAP>
1221.325

> <PUBCHEM_SHAPE_VOLUME>
312.9

> <PUBCHEM_COORDINATE_TYPE>
2
5
10

$$$$
