45783256
  -OEChem-12032416223D

 57 61  0     1  0  0  0  0  0999 V2000
   -5.2369   -2.4676    0.1743 O   0  0  0  0  0  0  0  0  0  0  0  0
    0.4583    3.0609    1.1295 N   0  0  2  0  0  0  0  0  0  0  0  0
    3.2104    0.5244    0.6118 N   0  0  0  0  0  0  0  0  0  0  0  0
   -1.6159    0.1693   -1.7266 N   0  0  0  0  0  0  0  0  0  0  0  0
   -3.2795   -1.4960   -1.2104 N   0  0  0  0  0  0  0  0  0  0  0  0
   -0.2079    2.6389   -1.3526 C   0  0  2  0  0  0  0  0  0  0  0  0
   -1.3576    2.2082   -0.4002 C   0  0  2  0  0  0  0  0  0  0  0  0
    1.5402    2.3166    0.4324 C   0  0  2  0  0  0  0  0  0  0  0  0
    1.0799    1.8773   -0.9743 C   0  0  0  0  0  0  0  0  0  0  0  0
    0.0551    4.1362   -1.0845 C   0  0  0  0  0  0  0  0  0  0  0  0
   -0.8132    2.2991    1.0541 C   0  0  0  0  0  0  0  0  0  0  0  0
    0.2673    4.3511    0.4243 C   0  0  0  0  0  0  0  0  0  0  0  0
    2.0603    1.1368    1.2564 C   0  0  0  0  0  0  0  0  0  0  0  0
   -2.0591    0.8854   -0.6726 C   0  0  0  0  0  0  0  0  0  0  0  0
   -3.0932    0.4825    0.1476 C   0  0  0  0  0  0  0  0  0  0  0  0
    3.7045   -0.6068    1.3871 C   0  0  0  0  0  0  0  0  0  0  0  0
   -3.6719   -0.7287   -0.1723 C   0  0  0  0  0  0  0  0  0  0  0  0
   -2.2615   -0.9940   -1.9351 C   0  0  0  0  0  0  0  0  0  0  0  0
    4.8879   -1.2641    0.7280 C   0  0  0  0  0  0  0  0  0  0  0  0
   -4.7608   -1.2674    0.5985 C   0  0  0  0  0  0  0  0  0  0  0  0
   -1.7987   -1.8151   -3.0908 C   0  0  0  0  0  0  0  0  0  0  0  0
    4.6918   -2.3060   -0.1785 C   0  0  0  0  0  0  0  0  0  0  0  0
    6.1803   -0.8312    1.0241 C   0  0  0  0  0  0  0  0  0  0  0  0
   -5.4565   -0.8347    1.7036 C   0  0  0  0  0  0  0  0  0  0  0  0
    5.7883   -2.9151   -0.7889 C   0  0  0  0  0  0  0  0  0  0  0  0
    7.2768   -1.4401    0.4138 C   0  0  0  0  0  0  0  0  0  0  0  0
   -6.4219   -1.8332    1.9760 C   0  0  0  0  0  0  0  0  0  0  0  0
   -6.2475   -2.8048    1.0179 C   0  0  0  0  0  0  0  0  0  0  0  0
    7.0808   -2.4820   -0.4927 C   0  0  0  0  0  0  0  0  0  0  0  0
   -0.4640    2.4784   -2.4051 H   0  0  0  0  0  0  0  0  0  0  0  0
   -2.1494    2.9657   -0.5098 H   0  0  0  0  0  0  0  0  0  0  0  0
    2.3881    3.0085    0.3159 H   0  0  0  0  0  0  0  0  0  0  0  0
    1.8678    2.1052   -1.7030 H   0  0  0  0  0  0  0  0  0  0  0  0
    0.9013    0.7974   -1.0245 H   0  0  0  0  0  0  0  0  0  0  0  0
    0.9404    4.4651   -1.6423 H   0  0  0  0  0  0  0  0  0  0  0  0
   -0.7905    4.7416   -1.4313 H   0  0  0  0  0  0  0  0  0  0  0  0
   -0.6829    1.3085    1.5045 H   0  0  0  0  0  0  0  0  0  0  0  0
   -1.5604    2.7975    1.6864 H   0  0  0  0  0  0  0  0  0  0  0  0
   -0.5873    4.8875    0.8559 H   0  0  0  0  0  0  0  0  0  0  0  0
    1.1354    5.0011    0.5897 H   0  0  0  0  0  0  0  0  0  0  0  0
    2.3403    1.4927    2.2564 H   0  0  0  0  0  0  0  0  0  0  0  0
    1.2752    0.3829    1.3845 H   0  0  0  0  0  0  0  0  0  0  0  0
    3.9505    1.2184    0.5070 H   0  0  0  0  0  0  0  0  0  0  0  0
   -3.4259    1.0887    0.9813 H   0  0  0  0  0  0  0  0  0  0  0  0
    3.9904   -0.2863    2.3977 H   0  0  0  0  0  0  0  0  0  0  0  0
    2.9124   -1.3560    1.5162 H   0  0  0  0  0  0  0  0  0  0  0  0
   -1.9530   -2.8812   -2.8967 H   0  0  0  0  0  0  0  0  0  0  0  0
   -0.7323   -1.6555   -3.2784 H   0  0  0  0  0  0  0  0  0  0  0  0
   -2.3584   -1.5371   -3.9886 H   0  0  0  0  0  0  0  0  0  0  0  0
    3.6898   -2.6513   -0.4189 H   0  0  0  0  0  0  0  0  0  0  0  0
    6.3461   -0.0193    1.7273 H   0  0  0  0  0  0  0  0  0  0  0  0
   -5.2987    0.0822    2.2537 H   0  0  0  0  0  0  0  0  0  0  0  0
    5.6358   -3.7260   -1.4950 H   0  0  0  0  0  0  0  0  0  0  0  0
    8.2832   -1.1027    0.6439 H   0  0  0  0  0  0  0  0  0  0  0  0
   -7.1533   -1.8435    2.7710 H   0  0  0  0  0  0  0  0  0  0  0  0
   -6.7349   -3.7461    0.8104 H   0  0  0  0  0  0  0  0  0  0  0  0
    7.9346   -2.9560   -0.9681 H   0  0  0  0  0  0  0  0  0  0  0  0
  1 20  1  0  0  0  0
  1 28  1  0  0  0  0
  2  8  1  0  0  0  0
  2 11  1  0  0  0  0
  2 12  1  0  0  0  0
  3 13  1  0  0  0  0
  3 16  1  0  0  0  0
  3 43  1  0  0  0  0
  4 14  2  0  0  0  0
  4 18  1  0  0  0  0
  5 17  1  0  0  0  0
  5 18  2  0  0  0  0
  6  7  1  0  0  0  0
  6  9  1  0  0  0  0
  6 10  1  0  0  0  0
  6 30  1  0  0  0  0
  7 11  1  0  0  0  0
  7 14  1  0  0  0  0
  7 31  1  0  0  0  0
  8  9  1  0  0  0  0
  8 13  1  0  0  0  0
  8 32  1  0  0  0  0
  9 33  1  0  0  0  0
  9 34  1  0  0  0  0
 10 12  1  0  0  0  0
 10 35  1  0  0  0  0
 10 36  1  0  0  0  0
 11 37  1  0  0  0  0
 11 38  1  0  0  0  0
 12 39  1  0  0  0  0
 12 40  1  0  0  0  0
 13 41  1  0  0  0  0
 13 42  1  0  0  0  0
 14 15  1  0  0  0  0
 15 17  2  0  0  0  0
 15 44  1  0  0  0  0
 16 19  1  0  0  0  0
 16 45  1  0  0  0  0
 16 46  1  0  0  0  0
 17 20  1  0  0  0  0
 18 21  1  0  0  0  0
 19 22  2  0  0  0  0
 19 23  1  0  0  0  0
 20 24  2  0  0  0  0
 21 47  1  0  0  0  0
 21 48  1  0  0  0  0
 21 49  1  0  0  0  0
 22 25  1  0  0  0  0
 22 50  1  0  0  0  0
 23 26  2  0  0  0  0
 23 51  1  0  0  0  0
 24 27  1  0  0  0  0
 24 52  1  0  0  0  0
 25 29  2  0  0  0  0
 25 53  1  0  0  0  0
 26 29  1  0  0  0  0
 26 54  1  0  0  0  0
 27 28  2  0  0  0  0
 27 55  1  0  0  0  0
 28 56  1  0  0  0  0
 29 57  1  0  0  0  0
M  END
> <PUBCHEM_COMPOUND_CID>
45783256

> <PUBCHEM_CONFORMER_RMSD>
0.8

> <PUBCHEM_CONFORMER_DIVERSEORDER>
1
235
265
119
168
122
52
53
256
170
144
207
83
40
261
217
197
259
202
46
245
213
196
50
175
221
42
258
206
204
179
65
104
114
28
191
64
137
229
171
266
86
190
241
183
184
55
161
212
222
121
133
15
10
237
186
243
97
200
85
6
76
44
110
90
205
143
250
227
113
252
26
188
81
253
92
47
163
123
172
260
138
68
218
189
141
236
82
201
249
169
112
32
149
220
29
63
199
160
156
225
23
251
240
173
94
111
19
257
24
210
228
182
106
84
219
70
62
124
8
88
167
152
166
116
115
117
95
102
14
180
226
178
203
193
230
18
146
125
126
48
157
254
77
263
57
109
99
75
72
96
246
187
51
127
262
100
248
244
132
54
223
39
67
61
74
89
118
59
16
208
192
49
34
234
128
103
264
142
177
58
231
242
255
232
150
108
5
238
33
215
107
239
2
162
79
195
22
216
98
185
30
91
181
134
9
27
105
12
56
247
37
153
45
31
198
174
11
60
165
69
73
4
209
3
224
87
17
233
147
41
164
71
158
148
211
36
194
43
155
139
140
154
214
136
129
35
130
151
101
21
20
66
131
135
80
13
176
25
145
120
159
93
78
38
7

> <PUBCHEM_MMFF94_PARTIAL_CHARGES>
36
1 -0.28
11 0.27
12 0.27
13 0.27
14 0.17
15 -0.15
16 0.41
17 0.36
18 0.48
19 -0.14
2 -0.81
20 0.09
21 0.14
22 -0.15
23 -0.15
24 -0.15
25 -0.15
26 -0.15
27 -0.15
28 -0.01
29 -0.15
3 -0.9
4 -0.62
43 0.36
44 0.15
5 -0.62
50 0.15
51 0.15
52 0.15
53 0.15
54 0.15
55 0.15
56 0.15
57 0.15
7 0.14
8 0.27

> <PUBCHEM_EFFECTIVE_ROTOR_COUNT>
7.2

> <PUBCHEM_PHARMACOPHORE_FEATURES>
10
1 1 acceptor
1 2 cation
1 3 cation
1 3 donor
1 4 acceptor
3 4 5 18 cation
5 1 20 24 27 28 rings
6 19 22 23 25 26 29 rings
6 4 5 14 15 17 18 rings
8 2 6 7 8 9 10 11 12 rings

> <PUBCHEM_HEAVY_ATOM_COUNT>
29

> <PUBCHEM_ATOM_DEF_STEREO_COUNT>
3

> <PUBCHEM_ATOM_UDEF_STEREO_COUNT>
0

> <PUBCHEM_BOND_DEF_STEREO_COUNT>
0

> <PUBCHEM_BOND_UDEF_STEREO_COUNT>
0

> <PUBCHEM_ISOTOPIC_ATOM_COUNT>
0

> <PUBCHEM_COMPONENT_COUNT>
1

> <PUBCHEM_CACTVS_TAUTO_COUNT>
1

> <PUBCHEM_CONFORMER_ID>
02BA98D800000001

> <PUBCHEM_MMFF94_ENERGY>
66.9792

> <PUBCHEM_FEATURE_SELFOVERLAP>
50.747

> <PUBCHEM_SHAPE_FINGERPRINT>
10928967 22 18269818887984916078
11059845 2 17986974972432620721
11135926 11 18122051272753078580
11374522 101 10303227142582809442
11399939 17 17832431165011143847
11513181 2 17394181257786586411
11607047 141 18116448123311945667
117089 54 18336557070083930115
11756154 5 18334853935642318858
12107183 9 18340217319429828217
12422481 6 17989488502556456439
12633257 1 16558743550672735656
13103583 49 16773787130482245278
1361 87 17458912655904141059
13673619 4 17821447989021261595
14251764 30 18335140899127946770
14950920 106 15912462715253222930
14955137 171 18412828005816702001
15064986 96 17488470680769510703
15721738 202 18040725775008443454
16110190 28 17988921189164143246
16991981 162 15359356551542808391
19053607 189 12966311404222325131
19246450 95 18201168646500802451
19319366 153 17620765315814893361
20775530 9 18336814347340683458
21033648 29 16199887076509801233
21344244 246 17822865285859972764
21716022 299 18041859414104001740
22440779 20 17385723569964750021
2747138 104 18410573964631721842
2748736 6 10015580584533000602
2838139 119 8935012463876320528
3737641 26 18341040896198262624
3862424 121 15937838404562507403
437795 150 18053953853685188726
437815 12 18334016111817912347
4408954 87 15812872572455675243
46194498 28 16733821054975066052
469060 322 18043545927495936450
474113 269 18200584922060310015
504843 32 17757548551844527781
513202 73 18270398283183010198
56633871 153 18201996659643964887
57527573 199 16341467787210246161
613672 6 18192965254011111056
7918774 8 18334858320339223450
7970288 3 18408322206908230322
86090 222 17168983560009534875
999808 66 18341896260135979234

> <PUBCHEM_SHAPE_MULTIPOLES>
571.01
16.85
4.95
1.98
14.68
4.59
-0.99
-25.47
6.9
0.04
-0.33
-1.94
-0.74
1.76

> <PUBCHEM_SHAPE_SELFOVERLAP>
1242.852

> <PUBCHEM_SHAPE_VOLUME>
306.9

> <PUBCHEM_COORDINATE_TYPE>
2
5
10

$$$$
