26742824
  -OEChem-12032416183D

 63 67  0     1  0  0  0  0  0999 V2000
    5.2657   -0.0732    0.9461 O   0  0  0  0  0  0  0  0  0  0  0  0
   -1.5229    1.5002    1.6136 O   0  0  0  0  0  0  0  0  0  0  0  0
   -0.5439   -3.6651   -1.0322 O   0  0  0  0  0  0  0  0  0  0  0  0
   -0.6548   -3.7018    1.3748 O   0  0  0  0  0  0  0  0  0  0  0  0
   -6.9277   -0.1879    0.0527 O   0  0  0  0  0  0  0  0  0  0  0  0
    0.2590    2.5857    0.5922 N   0  0  0  0  0  0  0  0  0  0  0  0
    3.9823   -0.1383   -0.9853 N   0  0  0  0  0  0  0  0  0  0  0  0
    2.2332    2.6008   -0.9228 C   0  0  2  0  0  0  0  0  0  0  0  0
    3.1417    2.5829    0.3290 C   0  0  1  0  0  0  0  0  0  0  0  0
    2.4390    1.9229    1.5298 C   0  0  0  0  0  0  0  0  0  0  0  0
    0.8763    3.2423   -0.5673 C   0  0  0  0  0  0  0  0  0  0  0  0
    2.0085    1.2304   -1.5896 C   0  0  0  0  0  0  0  0  0  0  0  0
    4.5468    2.0215    0.0761 C   0  0  0  0  0  0  0  0  0  0  0  0
    1.0846    2.5744    1.7998 C   0  0  0  0  0  0  0  0  0  0  0  0
    3.2971    0.5688   -2.0650 C   0  0  0  0  0  0  0  0  0  0  0  0
    4.6377    0.5073    0.0570 C   0  0  0  0  0  0  0  0  0  0  0  0
   -1.0171    2.0243    0.6179 C   0  0  0  0  0  0  0  0  0  0  0  0
    3.9471   -1.5941   -1.0345 C   0  0  0  0  0  0  0  0  0  0  0  0
   -1.8028    2.0731   -0.6681 C   0  0  0  0  0  0  0  0  0  0  0  0
    2.7287   -2.1499   -0.3558 C   0  0  0  0  0  0  0  0  0  0  0  0
   -3.1615    1.4742   -0.4793 C   0  0  0  0  0  0  0  0  0  0  0  0
    1.6714   -2.6434   -1.1240 C   0  0  0  0  0  0  0  0  0  0  0  0
    2.6638   -2.1713    1.0486 C   0  0  0  0  0  0  0  0  0  0  0  0
    0.5741   -3.1462   -0.4552 C   0  0  0  0  0  0  0  0  0  0  0  0
   -3.3591    0.1103   -0.6962 C   0  0  0  0  0  0  0  0  0  0  0  0
   -4.2298    2.2794   -0.0842 C   0  0  0  0  0  0  0  0  0  0  0  0
    1.5410   -2.6863    1.7009 C   0  0  0  0  0  0  0  0  0  0  0  0
    0.5107   -3.1671    0.9192 C   0  0  0  0  0  0  0  0  0  0  0  0
   -4.6248   -0.4481   -0.5179 C   0  0  0  0  0  0  0  0  0  0  0  0
   -5.4954    1.7209    0.0941 C   0  0  0  0  0  0  0  0  0  0  0  0
   -5.6930    0.3573   -0.1228 C   0  0  0  0  0  0  0  0  0  0  0  0
   -1.3179   -4.0154    0.1332 C   0  0  0  0  0  0  0  0  0  0  0  0
   -7.0581   -1.5889   -0.1847 C   0  0  0  0  0  0  0  0  0  0  0  0
    2.7083    3.2499   -1.6718 H   0  0  0  0  0  0  0  0  0  0  0  0
    3.2962    3.6386    0.6004 H   0  0  0  0  0  0  0  0  0  0  0  0
    3.0665    2.0056    2.4249 H   0  0  0  0  0  0  0  0  0  0  0  0
    2.2830    0.8550    1.3434 H   0  0  0  0  0  0  0  0  0  0  0  0
    1.0233    4.2941   -0.2917 H   0  0  0  0  0  0  0  0  0  0  0  0
    0.2226    3.2396   -1.4416 H   0  0  0  0  0  0  0  0  0  0  0  0
    1.3727    1.3887   -2.4707 H   0  0  0  0  0  0  0  0  0  0  0  0
    1.4531    0.5581   -0.9263 H   0  0  0  0  0  0  0  0  0  0  0  0
    5.2051    2.3648    0.8857 H   0  0  0  0  0  0  0  0  0  0  0  0
    4.9779    2.4282   -0.8452 H   0  0  0  0  0  0  0  0  0  0  0  0
    0.5785    2.0470    2.6144 H   0  0  0  0  0  0  0  0  0  0  0  0
    1.2158    3.6157    2.1169 H   0  0  0  0  0  0  0  0  0  0  0  0
    3.0605   -0.1443   -2.8631 H   0  0  0  0  0  0  0  0  0  0  0  0
    3.9809    1.3057   -2.4997 H   0  0  0  0  0  0  0  0  0  0  0  0
    4.8370   -1.9964   -0.5337 H   0  0  0  0  0  0  0  0  0  0  0  0
    4.0212   -1.9287   -2.0762 H   0  0  0  0  0  0  0  0  0  0  0  0
   -1.2602    1.5278   -1.4489 H   0  0  0  0  0  0  0  0  0  0  0  0
   -1.9074    3.1139   -0.9957 H   0  0  0  0  0  0  0  0  0  0  0  0
    1.7042   -2.6326   -2.2081 H   0  0  0  0  0  0  0  0  0  0  0  0
    3.4882   -1.8002    1.6500 H   0  0  0  0  0  0  0  0  0  0  0  0
   -2.5333   -0.5276   -1.0009 H   0  0  0  0  0  0  0  0  0  0  0  0
   -4.0885    3.3427    0.0904 H   0  0  0  0  0  0  0  0  0  0  0  0
    1.4879   -2.7064    2.7835 H   0  0  0  0  0  0  0  0  0  0  0  0
   -4.7071   -1.5138   -0.7022 H   0  0  0  0  0  0  0  0  0  0  0  0
   -6.3235    2.3530    0.4029 H   0  0  0  0  0  0  0  0  0  0  0  0
   -1.5243   -5.0915    0.1072 H   0  0  0  0  0  0  0  0  0  0  0  0
   -2.2700   -3.4733    0.0974 H   0  0  0  0  0  0  0  0  0  0  0  0
   -8.1044   -1.8523    0.0020 H   0  0  0  0  0  0  0  0  0  0  0  0
   -6.4516   -2.1738    0.5150 H   0  0  0  0  0  0  0  0  0  0  0  0
   -6.8465   -1.8415   -1.2292 H   0  0  0  0  0  0  0  0  0  0  0  0
  1 16  2  0  0  0  0
  2 17  2  0  0  0  0
  3 24  1  0  0  0  0
  3 32  1  0  0  0  0
  4 28  1  0  0  0  0
  4 32  1  0  0  0  0
  5 31  1  0  0  0  0
  5 33  1  0  0  0  0
  6 11  1  0  0  0  0
  6 14  1  0  0  0  0
  6 17  1  0  0  0  0
  7 15  1  0  0  0  0
  7 16  1  0  0  0  0
  7 18  1  0  0  0  0
  8  9  1  0  0  0  0
  8 11  1  0  0  0  0
  8 12  1  0  0  0  0
  8 34  1  0  0  0  0
  9 10  1  0  0  0  0
  9 13  1  0  0  0  0
  9 35  1  0  0  0  0
 10 14  1  0  0  0  0
 10 36  1  0  0  0  0
 10 37  1  0  0  0  0
 11 38  1  0  0  0  0
 11 39  1  0  0  0  0
 12 15  1  0  0  0  0
 12 40  1  0  0  0  0
 12 41  1  0  0  0  0
 13 16  1  0  0  0  0
 13 42  1  0  0  0  0
 13 43  1  0  0  0  0
 14 44  1  0  0  0  0
 14 45  1  0  0  0  0
 15 46  1  0  0  0  0
 15 47  1  0  0  0  0
 17 19  1  0  0  0  0
 18 20  1  0  0  0  0
 18 48  1  0  0  0  0
 18 49  1  0  0  0  0
 19 21  1  0  0  0  0
 19 50  1  0  0  0  0
 19 51  1  0  0  0  0
 20 22  2  0  0  0  0
 20 23  1  0  0  0  0
 21 25  2  0  0  0  0
 21 26  1  0  0  0  0
 22 24  1  0  0  0  0
 22 52  1  0  0  0  0
 23 27  2  0  0  0  0
 23 53  1  0  0  0  0
 24 28  2  0  0  0  0
 25 29  1  0  0  0  0
 25 54  1  0  0  0  0
 26 30  2  0  0  0  0
 26 55  1  0  0  0  0
 27 28  1  0  0  0  0
 27 56  1  0  0  0  0
 29 31  2  0  0  0  0
 29 57  1  0  0  0  0
 30 31  1  0  0  0  0
 30 58  1  0  0  0  0
 32 59  1  0  0  0  0
 32 60  1  0  0  0  0
 33 61  1  0  0  0  0
 33 62  1  0  0  0  0
 33 63  1  0  0  0  0
M  END
> <PUBCHEM_COMPOUND_CID>
26742824

> <PUBCHEM_CONFORMER_RMSD>
1.2

> <PUBCHEM_CONFORMER_DIVERSEORDER>
1
68
175
53
110
122
75
127
91
144
111
38
166
6
29
41
36
24
229
74
196
109
92
55
124
17
152
114
30
226
4
176
50
112
77
67
145
66
90
204
56
34
18
120
32
197
172
5
81
108
84
212
31
79
45
3
147
85
20
165
26
230
14
194
131
215
186
138
132
154
190
182
44
96
153
163
206
97
21
219
180
60
86
184
213
104
15
93
65
178
63
105
140
164
64
224
137
33
28
82
159
117
158
201
16
71
57
231
142
70
168
125
227
162
148
13
98
136
59
171
95
129
151
195
167
116
10
161
100
221
155
49
170
220
42
123
217
143
25
223
52
103
54
118
46
99
8
80
199
43
174
185
228
106
135
27
128
2
76
9
107
47
222
113
94
23
40
203
173
48
216
62
150
160
72
141
139
7
61
69
119
207
51
205
88
83
134
35
130
73
133
177
156
169
39
12
208
78
198
157
102
214
87
179
209
101
218
22
200
181
188
121
183
11
225
58
202
191
89
192
211
19
146
193
210
115
149
187
189
37
126

> <PUBCHEM_MMFF94_PARTIAL_CHARGES>
36
1 -0.57
11 0.3
13 0.06
14 0.3
15 0.3
16 0.57
17 0.57
18 0.44
19 0.2
2 -0.57
20 -0.14
21 -0.14
22 -0.15
23 -0.15
24 0.08
25 -0.15
26 -0.15
27 -0.15
28 0.08
29 -0.15
3 -0.36
30 -0.15
31 0.08
32 0.56
33 0.28
4 -0.36
5 -0.36
52 0.15
53 0.15
54 0.15
55 0.15
56 0.15
57 0.15
58 0.15
6 -0.66
7 -0.66

> <PUBCHEM_EFFECTIVE_ROTOR_COUNT>
8.2

> <PUBCHEM_PHARMACOPHORE_FEATURES>
10
1 1 acceptor
1 2 acceptor
1 3 acceptor
1 4 acceptor
1 5 acceptor
5 3 4 24 28 32 rings
6 20 22 23 24 27 28 rings
6 21 25 26 29 30 31 rings
6 6 8 9 10 11 14 rings
7 7 8 9 12 13 15 16 rings

> <PUBCHEM_HEAVY_ATOM_COUNT>
33

> <PUBCHEM_ATOM_DEF_STEREO_COUNT>
2

> <PUBCHEM_ATOM_UDEF_STEREO_COUNT>
0

> <PUBCHEM_BOND_DEF_STEREO_COUNT>
0

> <PUBCHEM_BOND_UDEF_STEREO_COUNT>
0

> <PUBCHEM_ISOTOPIC_ATOM_COUNT>
0

> <PUBCHEM_COMPONENT_COUNT>
1

> <PUBCHEM_CACTVS_TAUTO_COUNT>
2

> <PUBCHEM_CONFORMER_ID>
0198102800000001

> <PUBCHEM_MMFF94_ENERGY>
92.4563

> <PUBCHEM_FEATURE_SELFOVERLAP>
50.932

> <PUBCHEM_SHAPE_FINGERPRINT>
10316853 100 18336830887491965619
10864689 126 18338804394989670175
1100329 8 18409444821533940630
11014199 57 17330557540556128047
11578080 2 16414047881452366538
12156800 1 17909514541279299034
13122387 1 17833832672826153118
13383661 66 17914631470373428590
13402501 40 18410575106148484391
1361 2 18335422378679037073
13617811 41 18187642557646348045
14931854 50 18338811030328540358
15001296 14 18410571829589695103
15968369 153 17983856967719850567
16114785 44 16334944767212129832
17093844 170 18339079401703285168
17492 54 18261974963620918212
20764821 26 18192995039440594679
20775530 9 17402044500816839950
21133410 90 17273416286347842794
21197605 99 18340488979562287079
21304304 249 18409726245424386502
23516275 137 17273445900216323151
238 59 18335996267829512152
25222932 49 18201992244401533301
3298306 158 18337110159276859203
338550 245 18335702805546434757
35225 105 17976857420493030430
404807 78 17823713038709192731
444735 86 18341317977576150663
463206 1 18340484560114506445
484989 97 18336561485246753274
5309563 4 18336828572220088021
5776283 40 18194415613355332628
66674814 147 18410295791746312240

> <PUBCHEM_SHAPE_MULTIPOLES>
639.82
12.28
5.43
1.52
20.8
4
0.14
-1.8
-1.37
-1.4
0.85
-1.37
-0.01
0.02

> <PUBCHEM_SHAPE_SELFOVERLAP>
1385.157

> <PUBCHEM_SHAPE_VOLUME>
346.7

> <PUBCHEM_COORDINATE_TYPE>
2
5
10

$$$$
