26744194
  -OEChem-12032416283D

 49 51  0     1  0  0  0  0  0999 V2000
   -2.4299   -4.5211    0.7214 O   0  0  0  0  0  0  0  0  0  0  0  0
   -2.4572    0.6133   -1.7553 O   0  0  0  0  0  0  0  0  0  0  0  0
    5.3200    0.5917    1.0016 O   0  0  0  0  0  0  0  0  0  0  0  0
   -0.3455   -1.6634    0.2114 N   0  0  1  0  0  0  0  0  0  0  0  0
    3.4707    0.0770   -0.3073 N   0  0  0  0  0  0  0  0  0  0  0  0
   -1.8118    0.9326    0.3656 N   0  0  0  0  0  0  0  0  0  0  0  0
   -2.7713    1.9433   -1.4486 N   0  0  0  0  0  0  0  0  0  0  0  0
    0.9674   -1.3766   -0.3613 C   0  0  0  0  0  0  0  0  0  0  0  0
   -1.4610   -1.3575   -0.7072 C   0  0  1  0  0  0  0  0  0  0  0  0
   -0.4886   -3.0700    0.5823 C   0  0  0  0  0  0  0  0  0  0  0  0
   -2.5800   -2.3374   -0.3079 C   0  0  0  0  0  0  0  0  0  0  0  0
   -1.9837   -3.1820    0.8113 C   0  0  1  0  0  0  0  0  0  0  0  0
    2.0687   -1.7085    0.6539 C   0  0  0  0  0  0  0  0  0  0  0  0
    1.0495    0.0976   -0.7784 C   0  0  0  0  0  0  0  0  0  0  0  0
    3.4443   -1.3263    0.1107 C   0  0  0  0  0  0  0  0  0  0  0  0
    2.4465    0.4449   -1.2929 C   0  0  0  0  0  0  0  0  0  0  0  0
   -1.8967    0.0907   -0.6332 C   0  0  0  0  0  0  0  0  0  0  0  0
    4.4465    0.9341    0.2003 C   0  0  0  0  0  0  0  0  0  0  0  0
   -2.3607    2.0554   -0.1819 C   0  0  0  0  0  0  0  0  0  0  0  0
    4.4045    2.3638   -0.2767 C   0  0  0  0  0  0  0  0  0  0  0  0
   -2.4921    3.3085    0.5697 C   0  0  0  0  0  0  0  0  0  0  0  0
   -1.1308    3.9055    1.0090 C   0  0  0  0  0  0  0  0  0  0  0  0
   -3.4088    3.1846    1.8133 C   0  0  0  0  0  0  0  0  0  0  0  0
    1.1286   -1.9946   -1.2566 H   0  0  0  0  0  0  0  0  0  0  0  0
   -1.1804   -1.5874   -1.7451 H   0  0  0  0  0  0  0  0  0  0  0  0
    0.0447   -3.3306    1.5023 H   0  0  0  0  0  0  0  0  0  0  0  0
   -0.1634   -3.7564   -0.2107 H   0  0  0  0  0  0  0  0  0  0  0  0
   -3.4917   -1.8372    0.0387 H   0  0  0  0  0  0  0  0  0  0  0  0
   -2.8595   -2.9640   -1.1641 H   0  0  0  0  0  0  0  0  0  0  0  0
   -2.2594   -2.7760    1.7924 H   0  0  0  0  0  0  0  0  0  0  0  0
    1.8900   -1.1668    1.5924 H   0  0  0  0  0  0  0  0  0  0  0  0
    2.0929   -2.7776    0.8912 H   0  0  0  0  0  0  0  0  0  0  0  0
    0.3680    0.3325   -1.6001 H   0  0  0  0  0  0  0  0  0  0  0  0
    0.8245    0.7517    0.0732 H   0  0  0  0  0  0  0  0  0  0  0  0
    3.6936   -1.9341   -0.7672 H   0  0  0  0  0  0  0  0  0  0  0  0
    4.2078   -1.5209    0.8705 H   0  0  0  0  0  0  0  0  0  0  0  0
    2.4855    1.5055   -1.5471 H   0  0  0  0  0  0  0  0  0  0  0  0
    2.6662   -0.1151   -2.2098 H   0  0  0  0  0  0  0  0  0  0  0  0
   -3.3991   -4.5119    0.8005 H   0  0  0  0  0  0  0  0  0  0  0  0
    3.4539    2.8271    0.0007 H   0  0  0  0  0  0  0  0  0  0  0  0
    4.5515    2.4059   -1.3592 H   0  0  0  0  0  0  0  0  0  0  0  0
    5.2111    2.9301    0.1992 H   0  0  0  0  0  0  0  0  0  0  0  0
   -2.9601    4.0577   -0.0843 H   0  0  0  0  0  0  0  0  0  0  0  0
   -0.6118    3.2353    1.7033 H   0  0  0  0  0  0  0  0  0  0  0  0
   -1.2713    4.8721    1.5038 H   0  0  0  0  0  0  0  0  0  0  0  0
   -0.4795    4.0573    0.1412 H   0  0  0  0  0  0  0  0  0  0  0  0
   -2.9904    2.4829    2.5434 H   0  0  0  0  0  0  0  0  0  0  0  0
   -4.3999    2.8172    1.5256 H   0  0  0  0  0  0  0  0  0  0  0  0
   -3.5339    4.1561    2.3026 H   0  0  0  0  0  0  0  0  0  0  0  0
  1 12  1  0  0  0  0
  1 39  1  0  0  0  0
  2  7  1  0  0  0  0
  2 17  1  0  0  0  0
  3 18  2  0  0  0  0
  4  8  1  0  0  0  0
  4  9  1  0  0  0  0
  4 10  1  0  0  0  0
  5 15  1  0  0  0  0
  5 16  1  0  0  0  0
  5 18  1  0  0  0  0
  6 17  2  0  0  0  0
  6 19  1  0  0  0  0
  7 19  2  0  0  0  0
  8 13  1  0  0  0  0
  8 14  1  0  0  0  0
  8 24  1  0  0  0  0
  9 11  1  0  0  0  0
  9 17  1  0  0  0  0
  9 25  1  0  0  0  0
 10 12  1  0  0  0  0
 10 26  1  0  0  0  0
 10 27  1  0  0  0  0
 11 12  1  0  0  0  0
 11 28  1  0  0  0  0
 11 29  1  0  0  0  0
 12 30  1  0  0  0  0
 13 15  1  0  0  0  0
 13 31  1  0  0  0  0
 13 32  1  0  0  0  0
 14 16  1  0  0  0  0
 14 33  1  0  0  0  0
 14 34  1  0  0  0  0
 15 35  1  0  0  0  0
 15 36  1  0  0  0  0
 16 37  1  0  0  0  0
 16 38  1  0  0  0  0
 18 20  1  0  0  0  0
 19 21  1  0  0  0  0
 20 40  1  0  0  0  0
 20 41  1  0  0  0  0
 20 42  1  0  0  0  0
 21 22  1  0  0  0  0
 21 23  1  0  0  0  0
 21 43  1  0  0  0  0
 22 44  1  0  0  0  0
 22 45  1  0  0  0  0
 22 46  1  0  0  0  0
 23 47  1  0  0  0  0
 23 48  1  0  0  0  0
 23 49  1  0  0  0  0
M  END
> <PUBCHEM_COMPOUND_CID>
26744194

> <PUBCHEM_CONFORMER_RMSD>
0.8

> <PUBCHEM_CONFORMER_DIVERSEORDER>
1
130
121
153
118
167
143
129
166
170
55
43
95
162
102
37
136
158
116
104
176
80
149
87
152
82
157
29
131
51
171
146
148
150
71
92
57
120
117
60
132
78
34
100
122
108
45
105
109
46
93
101
86
70
39
69
139
140
16
49
81
32
107
145
141
174
165
47
22
72
83
177
68
36
154
64
114
123
42
115
106
19
124
112
54
59
52
147
125
84
134
161
8
58
17
103
175
11
179
76
163
91
4
173
168
30
65
96
138
12
74
99
135
6
137
18
85
20
90
23
111
53
41
126
144
9
61
10
110
67
63
113
169
15
31
25
27
21
94
142
155
156
33
172
38
24
178
35
88
3
28
14
7
89
98
128
77
2
62
13
40
48
26
133
127
75
73
44
97
79
56
159
164
66
50
5
119
160
151

> <PUBCHEM_MMFF94_PARTIAL_CHARGES>
19
1 -0.68
10 0.27
12 0.28
15 0.3
16 0.3
17 0.3
18 0.57
19 0.34
2 -0.02
20 0.06
21 0.18
3 -0.57
39 0.4
4 -0.81
5 -0.66
6 -0.57
7 -0.41
8 0.27
9 0.45

> <PUBCHEM_EFFECTIVE_ROTOR_COUNT>
6.2

> <PUBCHEM_PHARMACOPHORE_FEATURES>
9
1 1 acceptor
1 1 donor
1 3 acceptor
1 4 cation
3 21 22 23 hydrophobe
3 6 7 19 cation
5 2 6 7 17 19 rings
5 4 9 10 11 12 rings
6 5 8 13 14 15 16 rings

> <PUBCHEM_HEAVY_ATOM_COUNT>
23

> <PUBCHEM_ATOM_DEF_STEREO_COUNT>
2

> <PUBCHEM_ATOM_UDEF_STEREO_COUNT>
0

> <PUBCHEM_BOND_DEF_STEREO_COUNT>
0

> <PUBCHEM_BOND_UDEF_STEREO_COUNT>
0

> <PUBCHEM_ISOTOPIC_ATOM_COUNT>
0

> <PUBCHEM_COMPONENT_COUNT>
1

> <PUBCHEM_CACTVS_TAUTO_COUNT>
1

> <PUBCHEM_CONFORMER_ID>
0198158200000001

> <PUBCHEM_MMFF94_ENERGY>
34.6063

> <PUBCHEM_FEATURE_SELFOVERLAP>
45.671

> <PUBCHEM_SHAPE_FINGERPRINT>
10291535 26 18342450469957242160
10670039 82 18046077214360787324
1100329 8 18266751362475665345
11036077 51 18338230458087619890
11640471 11 17554315922304028769
12107183 9 18190447265769113810
12160290 23 18115047275877199455
12173636 292 18339646633474960407
12293681 160 18194655203900123695
12788726 201 18046361991639138638
13140716 1 18122068873106356067
13583140 156 17022900112638602976
13965767 371 17754175284640343532
14081887 123 18338791346672783082
14123250 116 18341047432537074261
14178342 30 18334294284291923406
14363568 33 17112979019898801832
14787075 74 18340757188065015429
14955137 171 17328597119850343707
1741750 31 18411417280816511638
19765921 60 17913205369463723169
20510252 161 18335979877939313942
20600515 1 18118699931215074583
20739085 24 17252316310550928598
21049683 271 17179409291940210639
21304253 13 17979646950524015235
21524375 3 18054503608828156263
21731228 192 18193285095867269183
21864079 5 18054226531629535240
22182937 141 18412268324143677160
22956985 138 16460228705195253858
23419403 2 17557415793480264659
23557571 272 18340493364924077238
23558518 356 18339924818312141223
23559900 14 18341324506222216014
23845131 108 18119538643996406161
283562 15 18190460652491539674
3091708 16 8984389306429391555
3886686 26 17901910168527903634
474 4 17978506430162946009
5104073 3 18335408094350709466
56616090 278 17335637310272343641
633830 44 17912642410635504741
81228 2 18116171011078294207
9709674 26 18410853274597113150
9981440 41 18059841840892333250

> <PUBCHEM_SHAPE_MULTIPOLES>
435.8
7.72
5.37
1.28
10.09
0.98
0.11
-5.32
-1.14
-5.92
-2.46
-0.76
-0.53
-0.61

> <PUBCHEM_SHAPE_SELFOVERLAP>
902.486

> <PUBCHEM_SHAPE_VOLUME>
251.2

> <PUBCHEM_COORDINATE_TYPE>
2
5
10

$$$$
