11867244
  -OEChem-12032416223D

 63 67  0     1  0  0  0  0  0999 V2000
    1.7822    2.4235    1.1162 S   0  0  0  0  0  0  0  0  0  0  0  0
   -0.4139   -5.4541    0.0266 F   0  0  0  0  0  0  0  0  0  0  0  0
   -1.1519    3.4909    1.0458 O   0  0  0  0  0  0  0  0  0  0  0  0
    2.2050    3.6299    1.8022 O   0  0  0  0  0  0  0  0  0  0  0  0
    0.8974    1.4807    1.7741 O   0  0  0  0  0  0  0  0  0  0  0  0
    5.9537   -2.7701   -0.6135 O   0  0  0  0  0  0  0  0  0  0  0  0
   -4.2183   -0.4342    0.4301 N   0  0  2  0  0  0  0  0  0  0  0  0
   -2.5232    2.1634   -0.3128 N   0  0  0  0  0  0  0  0  0  0  0  0
    1.1599    2.8216   -0.4065 N   0  0  0  0  0  0  0  0  0  0  0  0
    6.6817   -0.5345   -0.4378 N   0  0  0  0  0  0  0  0  0  0  0  0
   -5.0437    1.9044    0.0631 C   0  0  1  0  0  0  0  0  0  0  0  0
   -3.9619    0.7052   -1.7787 C   0  0  2  0  0  0  0  0  0  0  0  0
   -5.0942    1.6715   -1.4413 C   0  0  0  0  0  0  0  0  0  0  0  0
   -5.2224    0.5665    0.8116 C   0  0  0  0  0  0  0  0  0  0  0  0
   -4.1793   -0.6280   -1.0271 C   0  0  0  0  0  0  0  0  0  0  0  0
   -3.7227    2.6030    0.4123 C   0  0  0  0  0  0  0  0  0  0  0  0
   -2.6154    1.3054   -1.4171 C   0  0  0  0  0  0  0  0  0  0  0  0
   -4.4518   -1.7004    1.1203 C   0  0  0  0  0  0  0  0  0  0  0  0
   -1.5203    1.0004   -2.1371 C   0  0  0  0  0  0  0  0  0  0  0  0
   -1.2941    2.7220    0.0960 C   0  0  0  0  0  0  0  0  0  0  0  0
   -0.1193    2.3310   -0.7234 C   0  0  0  0  0  0  0  0  0  0  0  0
   -0.2303    1.5272   -1.7816 C   0  0  0  0  0  0  0  0  0  0  0  0
   -3.3706   -2.7065    0.8275 C   0  0  0  0  0  0  0  0  0  0  0  0
   -3.5098   -3.5638   -0.2548 C   0  0  0  0  0  0  0  0  0  0  0  0
   -2.2498   -2.7615    1.6441 C   0  0  0  0  0  0  0  0  0  0  0  0
   -2.5077   -4.4954   -0.5261 C   0  0  0  0  0  0  0  0  0  0  0  0
   -1.2476   -3.6931    1.3726 C   0  0  0  0  0  0  0  0  0  0  0  0
   -1.3765   -4.5600    0.2876 C   0  0  0  0  0  0  0  0  0  0  0  0
    3.2435    1.5410    0.6533 C   0  0  0  0  0  0  0  0  0  0  0  0
    3.1735    0.1724    0.4633 C   0  0  0  0  0  0  0  0  0  0  0  0
    4.4279    2.2370    0.4898 C   0  0  0  0  0  0  0  0  0  0  0  0
    4.3260   -0.5233    0.0980 C   0  0  0  0  0  0  0  0  0  0  0  0
    5.5804    1.5413    0.1244 C   0  0  0  0  0  0  0  0  0  0  0  0
    5.5294    0.1612   -0.0715 C   0  0  0  0  0  0  0  0  0  0  0  0
    6.8240   -1.9079   -0.6773 C   0  0  0  0  0  0  0  0  0  0  0  0
    8.2401   -2.2665   -1.0524 C   0  0  0  0  0  0  0  0  0  0  0  0
   -5.8702    2.5619    0.3602 H   0  0  0  0  0  0  0  0  0  0  0  0
   -3.9977    0.5033   -2.8575 H   0  0  0  0  0  0  0  0  0  0  0  0
   -4.9815    2.6167   -1.9868 H   0  0  0  0  0  0  0  0  0  0  0  0
   -6.0622    1.2452   -1.7316 H   0  0  0  0  0  0  0  0  0  0  0  0
   -5.1585    0.7571    1.8902 H   0  0  0  0  0  0  0  0  0  0  0  0
   -6.2335    0.1852    0.6136 H   0  0  0  0  0  0  0  0  0  0  0  0
   -3.3477   -1.2740   -1.3240 H   0  0  0  0  0  0  0  0  0  0  0  0
   -5.1092   -1.0913   -1.3839 H   0  0  0  0  0  0  0  0  0  0  0  0
   -3.8249    3.6742    0.1906 H   0  0  0  0  0  0  0  0  0  0  0  0
   -3.5230    2.5371    1.4893 H   0  0  0  0  0  0  0  0  0  0  0  0
   -4.4844   -1.5336    2.2055 H   0  0  0  0  0  0  0  0  0  0  0  0
   -5.4309   -2.1250    0.8577 H   0  0  0  0  0  0  0  0  0  0  0  0
   -1.5691    0.3324   -2.9906 H   0  0  0  0  0  0  0  0  0  0  0  0
    0.6183    1.2355   -2.3912 H   0  0  0  0  0  0  0  0  0  0  0  0
    1.8294    2.7215   -1.1826 H   0  0  0  0  0  0  0  0  0  0  0  0
   -4.3912   -3.5359   -0.8892 H   0  0  0  0  0  0  0  0  0  0  0  0
   -2.1377   -2.0892    2.4900 H   0  0  0  0  0  0  0  0  0  0  0  0
   -2.6090   -5.1725   -1.3691 H   0  0  0  0  0  0  0  0  0  0  0  0
   -0.3663   -3.7427    2.0052 H   0  0  0  0  0  0  0  0  0  0  0  0
    2.2437   -0.3754    0.5828 H   0  0  0  0  0  0  0  0  0  0  0  0
    4.4859    3.3118    0.6301 H   0  0  0  0  0  0  0  0  0  0  0  0
    4.2077   -1.5893   -0.0375 H   0  0  0  0  0  0  0  0  0  0  0  0
    6.5111    2.0878   -0.0062 H   0  0  0  0  0  0  0  0  0  0  0  0
    7.5186    0.0355   -0.5414 H   0  0  0  0  0  0  0  0  0  0  0  0
    8.9228   -1.9694   -0.2515 H   0  0  0  0  0  0  0  0  0  0  0  0
    8.3212   -3.3463   -1.2046 H   0  0  0  0  0  0  0  0  0  0  0  0
    8.5176   -1.7548   -1.9783 H   0  0  0  0  0  0  0  0  0  0  0  0
  1  4  2  0  0  0  0
  1  5  2  0  0  0  0
  1  9  1  0  0  0  0
  1 29  1  0  0  0  0
  2 28  1  0  0  0  0
  3 20  2  0  0  0  0
  6 35  2  0  0  0  0
  7 14  1  0  0  0  0
  7 15  1  0  0  0  0
  7 18  1  0  0  0  0
  8 16  1  0  0  0  0
  8 17  1  0  0  0  0
  8 20  1  0  0  0  0
  9 21  1  0  0  0  0
  9 51  1  0  0  0  0
 10 34  1  0  0  0  0
 10 35  1  0  0  0  0
 10 60  1  0  0  0  0
 11 13  1  0  0  0  0
 11 14  1  0  0  0  0
 11 16  1  0  0  0  0
 11 37  1  0  0  0  0
 12 13  1  0  0  0  0
 12 15  1  0  0  0  0
 12 17  1  0  0  0  0
 12 38  1  0  0  0  0
 13 39  1  0  0  0  0
 13 40  1  0  0  0  0
 14 41  1  0  0  0  0
 14 42  1  0  0  0  0
 15 43  1  0  0  0  0
 15 44  1  0  0  0  0
 16 45  1  0  0  0  0
 16 46  1  0  0  0  0
 17 19  2  0  0  0  0
 18 23  1  0  0  0  0
 18 47  1  0  0  0  0
 18 48  1  0  0  0  0
 19 22  1  0  0  0  0
 19 49  1  0  0  0  0
 20 21  1  0  0  0  0
 21 22  2  0  0  0  0
 22 50  1  0  0  0  0
 23 24  2  0  0  0  0
 23 25  1  0  0  0  0
 24 26  1  0  0  0  0
 24 52  1  0  0  0  0
 25 27  2  0  0  0  0
 25 53  1  0  0  0  0
 26 28  2  0  0  0  0
 26 54  1  0  0  0  0
 27 28  1  0  0  0  0
 27 55  1  0  0  0  0
 29 30  2  0  0  0  0
 29 31  1  0  0  0  0
 30 32  1  0  0  0  0
 30 56  1  0  0  0  0
 31 33  2  0  0  0  0
 31 57  1  0  0  0  0
 32 34  2  0  0  0  0
 32 58  1  0  0  0  0
 33 34  1  0  0  0  0
 33 59  1  0  0  0  0
 35 36  1  0  0  0  0
 36 61  1  0  0  0  0
 36 62  1  0  0  0  0
 36 63  1  0  0  0  0
M  END
> <PUBCHEM_COMPOUND_CID>
11867244

> <PUBCHEM_CONFORMER_RMSD>
1

> <PUBCHEM_CONFORMER_DIVERSEORDER>
1
18
32
3
25
45
28
39
6
56
53
26
37
13
11
16
42
50
34
35
52
24
38
2
44
20
5
4
31
29
46
22
51
21
48
30
9
41
49
54
43
19
55
17
27
36
47
15
12
14
7
23
40
8
33
10

> <PUBCHEM_MMFF94_PARTIAL_CHARGES>
46
1 1.45
10 -0.55
12 0.14
14 0.27
15 0.27
16 0.3
17 -0.03
18 0.41
19 -0.15
2 -0.19
20 0.62
21 0.21
22 -0.15
23 -0.14
24 -0.15
25 -0.15
26 -0.15
27 -0.15
28 0.19
29 -0.01
3 -0.57
30 -0.15
31 -0.15
32 -0.15
33 -0.15
34 0.12
35 0.57
36 0.06
4 -0.65
49 0.15
5 -0.65
50 0.15
51 0.42
52 0.15
53 0.15
54 0.15
55 0.15
56 0.15
57 0.15
58 0.15
59 0.15
6 -0.57
60 0.37
7 -0.81
8 -0.47
9 -0.75

> <PUBCHEM_EFFECTIVE_ROTOR_COUNT>
8

> <PUBCHEM_PHARMACOPHORE_FEATURES>
12
1 10 donor
1 3 acceptor
1 4 acceptor
1 5 acceptor
1 6 acceptor
1 7 cation
1 9 donor
6 23 24 25 26 27 28 rings
6 29 30 31 32 33 34 rings
6 7 11 12 13 14 15 rings
6 8 11 12 13 16 17 rings
6 8 17 19 20 21 22 rings

> <PUBCHEM_HEAVY_ATOM_COUNT>
36

> <PUBCHEM_ATOM_DEF_STEREO_COUNT>
2

> <PUBCHEM_ATOM_UDEF_STEREO_COUNT>
0

> <PUBCHEM_BOND_DEF_STEREO_COUNT>
0

> <PUBCHEM_BOND_UDEF_STEREO_COUNT>
0

> <PUBCHEM_ISOTOPIC_ATOM_COUNT>
0

> <PUBCHEM_COMPONENT_COUNT>
1

> <PUBCHEM_CACTVS_TAUTO_COUNT>
2

> <PUBCHEM_CONFORMER_ID>
00B5146C00000001

> <PUBCHEM_MMFF94_ENERGY>
92.2684

> <PUBCHEM_FEATURE_SELFOVERLAP>
62.47

> <PUBCHEM_SHAPE_FINGERPRINT>
10305334 12 17986399897533106281
10462674 296 17189532504736445054
10864689 126 18336256830610737572
11387372 6 18410295813294878407
117089 54 18340490070832205046
11756154 5 18412821366308913226
1361 87 18411979161570911916
14279260 333 18127690436158756502
14400156 162 18341343184470387041
14444916 359 18337679603363581573
14950920 106 17773047568829165169
15927050 60 18339067204723716943
15975801 100 17314222264354039462
17627616 140 18046903775582743011
19301676 85 18122616421598490767
19315958 150 18194965382117023105
19958102 18 18335416833997421294
20764821 26 18263906787786216811
20775530 9 17611456828840568755
23516275 137 17901125030640127290
23559900 14 18410285951834571961
244849 19 17773017873256547232
3383291 50 18412256220905140946
4017518 198 18409160009594683255
4073 2 18339918316438627720
4435113 14 18341902917641068174
44880168 125 18341895255087401475
508706 21 18116986878860480995
5265222 85 18259701199234517285
54324442 115 18412263960568219922
999808 66 18342741776314533884

> <PUBCHEM_SHAPE_MULTIPOLES>
694.04
15.93
6.46
1.61
31
7.84
0.2
6.17
3.47
-3.15
-1.23
-0.87
-0.48
3.09

> <PUBCHEM_SHAPE_SELFOVERLAP>
1501.638

> <PUBCHEM_SHAPE_VOLUME>
382.8

> <PUBCHEM_COORDINATE_TYPE>
2
5
10

$$$$
