45783456
  -OEChem-12032416263D

 55 58  0     1  0  0  0  0  0999 V2000
    2.4622    1.7226    1.2743 F   0  0  0  0  0  0  0  0  0  0  0  0
    1.5922    3.3635    2.4049 F   0  0  0  0  0  0  0  0  0  0  0  0
    2.3894    3.7112    0.4122 F   0  0  0  0  0  0  0  0  0  0  0  0
   -2.8808   -1.2949    1.8348 O   0  0  0  0  0  0  0  0  0  0  0  0
    3.3640   -2.0375   -1.1018 O   0  0  0  0  0  0  0  0  0  0  0  0
    5.0878    0.0309   -1.8746 O   0  0  0  0  0  0  0  0  0  0  0  0
   -3.6983    0.2494   -1.3981 N   0  0  1  0  0  0  0  0  0  0  0  0
   -1.5298   -1.2031    0.0507 N   0  0  0  0  0  0  0  0  0  0  0  0
   -1.6110   -1.6746    2.2879 N   0  0  0  0  0  0  0  0  0  0  0  0
    1.0610   -2.2791    2.3488 N   0  0  0  0  0  0  0  0  0  0  0  0
   -3.9952   -0.5975   -0.2255 C   0  0  1  0  0  0  0  0  0  0  0  0
   -4.7975   -1.7832   -0.7924 C   0  0  0  0  0  0  0  0  0  0  0  0
   -4.9534   -1.4846   -2.2768 C   0  0  0  0  0  0  0  0  0  0  0  0
   -4.7774    0.0183   -2.3587 C   0  0  0  0  0  0  0  0  0  0  0  0
   -3.5534    1.6607   -1.0656 C   0  0  0  0  0  0  0  0  0  0  0  0
   -2.7448   -1.0351    0.5081 C   0  0  0  0  0  0  0  0  0  0  0  0
   -2.1960    1.9644   -0.4891 C   0  0  0  0  0  0  0  0  0  0  0  0
   -2.0887    2.5235    0.7844 C   0  0  0  0  0  0  0  0  0  0  0  0
   -1.0459    1.6859   -1.2276 C   0  0  0  0  0  0  0  0  0  0  0  0
   -0.8699   -1.5955    1.1787 C   0  0  0  0  0  0  0  0  0  0  0  0
   -0.8314    2.8044    1.3190 C   0  0  0  0  0  0  0  0  0  0  0  0
    0.2114    1.9668   -0.6930 C   0  0  0  0  0  0  0  0  0  0  0  0
    0.3186    2.5260    0.5803 C   0  0  0  0  0  0  0  0  0  0  0  0
    0.5312   -1.9030    1.1633 C   0  0  0  0  0  0  0  0  0  0  0  0
    1.6628    2.8234    1.1535 C   0  0  0  0  0  0  0  0  0  0  0  0
    1.2551   -1.8066   -0.0142 C   0  0  0  0  0  0  0  0  0  0  0  0
    2.6100   -2.1163    0.0277 C   0  0  0  0  0  0  0  0  0  0  0  0
    2.3808   -2.5722    2.3507 C   0  0  0  0  0  0  0  0  0  0  0  0
    3.1914   -2.5072    1.2288 C   0  0  0  0  0  0  0  0  0  0  0  0
    2.9730   -1.0725   -2.0780 C   0  0  0  0  0  0  0  0  0  0  0  0
    4.2073   -0.5806   -2.8094 C   0  0  0  0  0  0  0  0  0  0  0  0
    6.2755    0.4924   -2.5032 C   0  0  0  0  0  0  0  0  0  0  0  0
   -4.6451   -0.0659    0.4839 H   0  0  0  0  0  0  0  0  0  0  0  0
   -4.3174   -2.7559   -0.6396 H   0  0  0  0  0  0  0  0  0  0  0  0
   -5.7867   -1.8184   -0.3198 H   0  0  0  0  0  0  0  0  0  0  0  0
   -4.1645   -1.9938   -2.8442 H   0  0  0  0  0  0  0  0  0  0  0  0
   -5.9206   -1.8159   -2.6662 H   0  0  0  0  0  0  0  0  0  0  0  0
   -4.5049    0.3366   -3.3697 H   0  0  0  0  0  0  0  0  0  0  0  0
   -5.7033    0.5266   -2.0611 H   0  0  0  0  0  0  0  0  0  0  0  0
   -3.6383    2.2692   -1.9771 H   0  0  0  0  0  0  0  0  0  0  0  0
   -4.3588    2.0077   -0.4050 H   0  0  0  0  0  0  0  0  0  0  0  0
   -2.9760    2.7433    1.3719 H   0  0  0  0  0  0  0  0  0  0  0  0
   -1.1132    1.2553   -2.2232 H   0  0  0  0  0  0  0  0  0  0  0  0
   -0.7696    3.2384    2.3131 H   0  0  0  0  0  0  0  0  0  0  0  0
    1.1011    1.7523   -1.2779 H   0  0  0  0  0  0  0  0  0  0  0  0
    0.7649   -1.5269   -0.9406 H   0  0  0  0  0  0  0  0  0  0  0  0
    2.7857   -2.8714    3.3118 H   0  0  0  0  0  0  0  0  0  0  0  0
    4.2455   -2.7541    1.2908 H   0  0  0  0  0  0  0  0  0  0  0  0
    2.5065   -0.2004   -1.6046 H   0  0  0  0  0  0  0  0  0  0  0  0
    2.2747   -1.5335   -2.7847 H   0  0  0  0  0  0  0  0  0  0  0  0
    4.7209   -1.4279   -3.2785 H   0  0  0  0  0  0  0  0  0  0  0  0
    3.9223    0.1431   -3.5810 H   0  0  0  0  0  0  0  0  0  0  0  0
    6.8216   -0.3427   -2.9523 H   0  0  0  0  0  0  0  0  0  0  0  0
    6.0402    1.2425   -3.2645 H   0  0  0  0  0  0  0  0  0  0  0  0
    6.9101    0.9549   -1.7424 H   0  0  0  0  0  0  0  0  0  0  0  0
  1 25  1  0  0  0  0
  2 25  1  0  0  0  0
  3 25  1  0  0  0  0
  4  9  1  0  0  0  0
  4 16  1  0  0  0  0
  5 27  1  0  0  0  0
  5 30  1  0  0  0  0
  6 31  1  0  0  0  0
  6 32  1  0  0  0  0
  7 11  1  0  0  0  0
  7 14  1  0  0  0  0
  7 15  1  0  0  0  0
  8 16  2  0  0  0  0
  8 20  1  0  0  0  0
  9 20  2  0  0  0  0
 10 24  2  0  0  0  0
 10 28  1  0  0  0  0
 11 12  1  0  0  0  0
 11 16  1  0  0  0  0
 11 33  1  0  0  0  0
 12 13  1  0  0  0  0
 12 34  1  0  0  0  0
 12 35  1  0  0  0  0
 13 14  1  0  0  0  0
 13 36  1  0  0  0  0
 13 37  1  0  0  0  0
 14 38  1  0  0  0  0
 14 39  1  0  0  0  0
 15 17  1  0  0  0  0
 15 40  1  0  0  0  0
 15 41  1  0  0  0  0
 17 18  2  0  0  0  0
 17 19  1  0  0  0  0
 18 21  1  0  0  0  0
 18 42  1  0  0  0  0
 19 22  2  0  0  0  0
 19 43  1  0  0  0  0
 20 24  1  0  0  0  0
 21 23  2  0  0  0  0
 21 44  1  0  0  0  0
 22 23  1  0  0  0  0
 22 45  1  0  0  0  0
 23 25  1  0  0  0  0
 24 26  1  0  0  0  0
 26 27  2  0  0  0  0
 26 46  1  0  0  0  0
 27 29  1  0  0  0  0
 28 29  2  0  0  0  0
 28 47  1  0  0  0  0
 29 48  1  0  0  0  0
 30 31  1  0  0  0  0
 30 49  1  0  0  0  0
 30 50  1  0  0  0  0
 31 51  1  0  0  0  0
 31 52  1  0  0  0  0
 32 53  1  0  0  0  0
 32 54  1  0  0  0  0
 32 55  1  0  0  0  0
M  END
> <PUBCHEM_COMPOUND_CID>
45783456

> <PUBCHEM_CONFORMER_RMSD>
1

> <PUBCHEM_CONFORMER_DIVERSEORDER>
1
67
36
64
112
41
33
86
116
115
104
27
7
93
76
69
87
13
4
74
26
96
28
58
118
15
73
46
105
17
57
45
52
56
85
83
51
77
6
78
106
100
94
19
72
18
97
71
109
108
48
11
50
60
49
88
114
62
66
12
90
20
22
110
95
32
107
3
16
117
70
43
98
103
34
24
37
80
53
25
68
39
54
81
35
47
8
113
111
10
23
102
42
2
30
79
61
89
44
38
14
5
40
91
55
92
9
99
63
65
59
75
21
31
82
29
84
101

> <PUBCHEM_MMFF94_PARTIAL_CHARGES>
37
1 -0.34
10 -0.62
11 0.45
14 0.27
15 0.41
16 0.3
17 -0.14
18 -0.15
19 -0.15
2 -0.34
20 0.46
21 -0.15
22 -0.15
23 -0.14
24 0.36
25 1.16
26 -0.15
27 0.08
28 0.16
29 -0.15
3 -0.34
30 0.28
31 0.28
32 0.28
4 -0.02
42 0.15
43 0.15
44 0.15
45 0.15
46 0.15
47 0.15
48 0.15
5 -0.36
6 -0.56
7 -0.81
8 -0.57
9 -0.41

> <PUBCHEM_EFFECTIVE_ROTOR_COUNT>
10

> <PUBCHEM_PHARMACOPHORE_FEATURES>
9
1 10 acceptor
1 5 acceptor
1 6 acceptor
1 7 cation
3 8 9 20 cation
5 4 8 9 16 20 rings
5 7 11 12 13 14 rings
6 10 24 26 27 28 29 rings
6 17 18 19 21 22 23 rings

> <PUBCHEM_HEAVY_ATOM_COUNT>
32

> <PUBCHEM_ATOM_DEF_STEREO_COUNT>
1

> <PUBCHEM_ATOM_UDEF_STEREO_COUNT>
0

> <PUBCHEM_BOND_DEF_STEREO_COUNT>
0

> <PUBCHEM_BOND_UDEF_STEREO_COUNT>
0

> <PUBCHEM_ISOTOPIC_ATOM_COUNT>
0

> <PUBCHEM_COMPONENT_COUNT>
1

> <PUBCHEM_CACTVS_TAUTO_COUNT>
1

> <PUBCHEM_CONFORMER_ID>
02BA99A000000001

> <PUBCHEM_MMFF94_ENERGY>
67.5111

> <PUBCHEM_FEATURE_SELFOVERLAP>
45.676

> <PUBCHEM_SHAPE_FINGERPRINT>
1100329 8 18051388701430879673
12166972 35 17388519524295612306
12596599 1 17843668981395045169
12788726 201 17981615866026108528
13009979 54 17467616114523329387
13165053 68 13046228351031480721
13383661 66 16761412384520261607
13617811 41 17603579713023465125
14931854 50 18261682501643384302
19319366 153 17682966483972710619
20028762 73 16972223948622818039
20691752 17 17460010939186788353
20764821 26 18264481789601831368
20905425 154 18265590222129978913
22182313 1 17968646242488511851
238918 7 17905595962724936737
3298306 158 18048011237490142545
469060 322 16519392033841170514
57527295 17 18408880737872651383
59755656 215 17757520304682684167
70251023 43 18131356331935864319

> <PUBCHEM_SHAPE_MULTIPOLES>
599.19
9.8
4.25
2.9
2.7
2.55
-0.67
-2.84
-10.05
1.55
2.88
2.01
-0.49
-0.7

> <PUBCHEM_SHAPE_SELFOVERLAP>
1289.584

> <PUBCHEM_SHAPE_VOLUME>
333.7

> <PUBCHEM_COORDINATE_TYPE>
2
5
10

$$$$
