26742295
  -OEChem-12032416183D

 58 62  0     1  0  0  0  0  0999 V2000
    7.2978   -1.6123    1.2959 Cl  0  0  0  0  0  0  0  0  0  0  0  0
   -4.3228   -1.1124   -2.6286 O   0  0  0  0  0  0  0  0  0  0  0  0
   -3.3914    2.6530    0.8033 O   0  0  0  0  0  0  0  0  0  0  0  0
    2.5665    3.6525   -0.8365 O   0  0  0  0  0  0  0  0  0  0  0  0
   -2.5008    0.6691    1.6671 N   0  0  0  0  0  0  0  0  0  0  0  0
   -3.0117   -1.3801   -0.7064 N   0  0  0  0  0  0  0  0  0  0  0  0
   -4.0473   -1.2789    1.6377 C   0  0  1  0  0  0  0  0  0  0  0  0
   -1.6286   -1.6354    1.3761 C   0  0  2  0  0  0  0  0  0  0  0  0
   -2.8963   -2.1937    2.0227 C   0  0  0  0  0  0  0  0  0  0  0  0
   -3.7912    0.1579    2.1262 C   0  0  0  0  0  0  0  0  0  0  0  0
   -4.2262   -1.3513    0.1212 C   0  0  0  0  0  0  0  0  0  0  0  0
   -1.3575   -0.2195    1.9247 C   0  0  0  0  0  0  0  0  0  0  0  0
   -1.7314   -1.5890   -0.1520 C   0  0  0  0  0  0  0  0  0  0  0  0
   -0.6437   -1.7076   -0.9612 C   0  0  0  0  0  0  0  0  0  0  0  0
   -3.2277   -1.2801   -2.0914 C   0  0  0  0  0  0  0  0  0  0  0  0
   -2.4391    1.9060    1.0213 C   0  0  0  0  0  0  0  0  0  0  0  0
   -0.8409   -1.6122   -2.3988 C   0  0  0  0  0  0  0  0  0  0  0  0
   -2.0340   -1.4033   -2.9540 C   0  0  0  0  0  0  0  0  0  0  0  0
    0.7048   -1.8901   -0.4496 C   0  0  0  0  0  0  0  0  0  0  0  0
   -1.1323    2.3621    0.5360 C   0  0  0  0  0  0  0  0  0  0  0  0
    1.6827   -1.0171   -0.6856 C   0  0  0  0  0  0  0  0  0  0  0  0
   -0.7148    2.0360   -0.7545 C   0  0  0  0  0  0  0  0  0  0  0  0
   -0.3069    3.1218    1.3650 C   0  0  0  0  0  0  0  0  0  0  0  0
    3.0652   -1.1635   -0.1976 C   0  0  0  0  0  0  0  0  0  0  0  0
    0.5280    2.4700   -1.2160 C   0  0  0  0  0  0  0  0  0  0  0  0
    0.9359    3.5556    0.9036 C   0  0  0  0  0  0  0  0  0  0  0  0
    1.3534    3.2297   -0.3869 C   0  0  0  0  0  0  0  0  0  0  0  0
    3.3391   -2.0068    0.8792 C   0  0  0  0  0  0  0  0  0  0  0  0
    4.1002   -0.4587   -0.8124 C   0  0  0  0  0  0  0  0  0  0  0  0
    4.6480   -2.1458    1.3410 C   0  0  0  0  0  0  0  0  0  0  0  0
    5.4090   -0.5974   -0.3503 C   0  0  0  0  0  0  0  0  0  0  0  0
    5.6829   -1.4410    0.7262 C   0  0  0  0  0  0  0  0  0  0  0  0
    2.9310    3.2828   -2.1656 C   0  0  0  0  0  0  0  0  0  0  0  0
   -4.9721   -1.6297    2.1123 H   0  0  0  0  0  0  0  0  0  0  0  0
   -0.8021   -2.2871    1.6823 H   0  0  0  0  0  0  0  0  0  0  0  0
   -3.0847   -3.2204    1.6845 H   0  0  0  0  0  0  0  0  0  0  0  0
   -2.7854   -2.2308    3.1133 H   0  0  0  0  0  0  0  0  0  0  0  0
   -4.6053    0.8176    1.8076 H   0  0  0  0  0  0  0  0  0  0  0  0
   -3.7689    0.1798    3.2227 H   0  0  0  0  0  0  0  0  0  0  0  0
   -4.7694   -2.2751   -0.1224 H   0  0  0  0  0  0  0  0  0  0  0  0
   -4.8657   -0.5288   -0.2244 H   0  0  0  0  0  0  0  0  0  0  0  0
   -1.2256   -0.2576    3.0133 H   0  0  0  0  0  0  0  0  0  0  0  0
   -0.4299    0.1821    1.5115 H   0  0  0  0  0  0  0  0  0  0  0  0
    0.0275   -1.7115   -3.0443 H   0  0  0  0  0  0  0  0  0  0  0  0
   -2.1593   -1.3322   -4.0277 H   0  0  0  0  0  0  0  0  0  0  0  0
    0.8533   -2.7930    0.1340 H   0  0  0  0  0  0  0  0  0  0  0  0
    1.4991   -0.1445   -1.3038 H   0  0  0  0  0  0  0  0  0  0  0  0
   -1.3556    1.4553   -1.4117 H   0  0  0  0  0  0  0  0  0  0  0  0
   -0.6222    3.3807    2.3725 H   0  0  0  0  0  0  0  0  0  0  0  0
    0.7860    2.1878   -2.2310 H   0  0  0  0  0  0  0  0  0  0  0  0
    1.5748    4.1466    1.5542 H   0  0  0  0  0  0  0  0  0  0  0  0
    2.5643   -2.5578    1.4040 H   0  0  0  0  0  0  0  0  0  0  0  0
    3.9088    0.1924   -1.6599 H   0  0  0  0  0  0  0  0  0  0  0  0
    4.8466   -2.8028    2.1841 H   0  0  0  0  0  0  0  0  0  0  0  0
    6.2059   -0.0441   -0.8407 H   0  0  0  0  0  0  0  0  0  0  0  0
    3.9358    3.6778   -2.3476 H   0  0  0  0  0  0  0  0  0  0  0  0
    2.2657    3.7443   -2.9034 H   0  0  0  0  0  0  0  0  0  0  0  0
    2.9868    2.1977   -2.2871 H   0  0  0  0  0  0  0  0  0  0  0  0
  1 32  1  0  0  0  0
  2 15  2  0  0  0  0
  3 16  2  0  0  0  0
  4 27  1  0  0  0  0
  4 33  1  0  0  0  0
  5 10  1  0  0  0  0
  5 12  1  0  0  0  0
  5 16  1  0  0  0  0
  6 11  1  0  0  0  0
  6 13  1  0  0  0  0
  6 15  1  0  0  0  0
  7  9  1  0  0  0  0
  7 10  1  0  0  0  0
  7 11  1  0  0  0  0
  7 34  1  0  0  0  0
  8  9  1  0  0  0  0
  8 12  1  0  0  0  0
  8 13  1  0  0  0  0
  8 35  1  0  0  0  0
  9 36  1  0  0  0  0
  9 37  1  0  0  0  0
 10 38  1  0  0  0  0
 10 39  1  0  0  0  0
 11 40  1  0  0  0  0
 11 41  1  0  0  0  0
 12 42  1  0  0  0  0
 12 43  1  0  0  0  0
 13 14  2  0  0  0  0
 14 17  1  0  0  0  0
 14 19  1  0  0  0  0
 15 18  1  0  0  0  0
 16 20  1  0  0  0  0
 17 18  2  0  0  0  0
 17 44  1  0  0  0  0
 18 45  1  0  0  0  0
 19 21  2  0  0  0  0
 19 46  1  0  0  0  0
 20 22  2  0  0  0  0
 20 23  1  0  0  0  0
 21 24  1  0  0  0  0
 21 47  1  0  0  0  0
 22 25  1  0  0  0  0
 22 48  1  0  0  0  0
 23 26  2  0  0  0  0
 23 49  1  0  0  0  0
 24 28  2  0  0  0  0
 24 29  1  0  0  0  0
 25 27  2  0  0  0  0
 25 50  1  0  0  0  0
 26 27  1  0  0  0  0
 26 51  1  0  0  0  0
 28 30  1  0  0  0  0
 28 52  1  0  0  0  0
 29 31  2  0  0  0  0
 29 53  1  0  0  0  0
 30 32  2  0  0  0  0
 30 54  1  0  0  0  0
 31 32  1  0  0  0  0
 31 55  1  0  0  0  0
 33 56  1  0  0  0  0
 33 57  1  0  0  0  0
 33 58  1  0  0  0  0
M  END
> <PUBCHEM_COMPOUND_CID>
26742295

> <PUBCHEM_CONFORMER_RMSD>
0.8

> <PUBCHEM_CONFORMER_DIVERSEORDER>
1
7
10
8
6
9
11
3
2
4
5

> <PUBCHEM_MMFF94_PARTIAL_CHARGES>
42
1 -0.18
10 0.3
11 0.3
12 0.3
13 -0.03
15 0.62
16 0.54
17 -0.15
18 -0.14
19 -0.15
2 -0.57
20 0.09
21 -0.18
22 -0.15
23 -0.15
24 0.03
25 -0.15
26 -0.15
27 0.08
28 -0.15
29 -0.15
3 -0.57
30 -0.15
31 -0.15
32 0.18
33 0.28
4 -0.36
44 0.15
45 0.15
46 0.15
47 0.15
48 0.15
49 0.15
5 -0.66
50 0.15
51 0.15
52 0.15
53 0.15
54 0.15
55 0.15
6 -0.47
8 0.14

> <PUBCHEM_EFFECTIVE_ROTOR_COUNT>
6

> <PUBCHEM_PHARMACOPHORE_FEATURES>
8
1 2 acceptor
1 3 acceptor
1 4 acceptor
6 20 22 23 25 26 27 rings
6 24 28 29 30 31 32 rings
6 5 7 8 9 10 12 rings
6 6 13 14 15 17 18 rings
6 6 7 8 9 11 13 rings

> <PUBCHEM_HEAVY_ATOM_COUNT>
33

> <PUBCHEM_ATOM_DEF_STEREO_COUNT>
2

> <PUBCHEM_ATOM_UDEF_STEREO_COUNT>
0

> <PUBCHEM_BOND_DEF_STEREO_COUNT>
1

> <PUBCHEM_BOND_UDEF_STEREO_COUNT>
0

> <PUBCHEM_ISOTOPIC_ATOM_COUNT>
0

> <PUBCHEM_COMPONENT_COUNT>
1

> <PUBCHEM_CACTVS_TAUTO_COUNT>
4

> <PUBCHEM_CONFORMER_ID>
01980E1700000001

> <PUBCHEM_MMFF94_ENERGY>
107.2194

> <PUBCHEM_FEATURE_SELFOVERLAP>
42.17

> <PUBCHEM_SHAPE_FINGERPRINT>
11135926 11 17972045992318508076
11578080 2 17458628981682089149
11595378 159 18340486647912159506
11963148 33 17329161676475533899
12104220 1 18041556933169934378
12422481 6 17984453826428784545
12788726 201 18046322185708536378
133893 2 18051964011471575158
14068700 675 17702360988159583967
14142880 1 18058445409516534183
14840074 17 18130514127282446802
15324884 4 17483430463775401591
15484559 13 13452337681670742374
17492 54 17911495637915824733
17686467 74 17344037901727628226
17980427 23 18202014196374742483
19319366 153 17688049908037539756
208703 8 18200049459063646246
20905425 154 17979112493214421009
23419403 2 17968375766490516559
23559900 14 16515680104019074310
25019877 29 16630521869074207862
35225 105 17393622284834873215
445580 44 18198602390060811450
469060 322 18130212800956728006
484985 159 17170109236309519802
581034 39 17561370603888287870
5951187 136 13034733828319744027

> <PUBCHEM_SHAPE_MULTIPOLES>
653.42
10.65
4.48
2.57
17.22
5.63
-1.12
-7.86
3.4
1.47
-0.11
-2.46
-0.72
-2.56

> <PUBCHEM_SHAPE_SELFOVERLAP>
1425.393

> <PUBCHEM_SHAPE_VOLUME>
353.6

> <PUBCHEM_COORDINATE_TYPE>
2
5
10

$$$$
