38027141
  -OEChem-12032416243D

 66 67  0     1  0  0  0  0  0999 V2000
   -1.7267    2.5881    0.2657 O   0  0  0  0  0  0  0  0  0  0  0  0
    3.1255   -2.9391   -0.8971 O   0  0  0  0  0  0  0  0  0  0  0  0
    3.6276   -1.1162    0.4539 N   0  0  0  0  0  0  0  0  0  0  0  0
   -2.3331    0.8376    1.6611 N   0  0  0  0  0  0  0  0  0  0  0  0
    2.6357   -2.9937    1.3703 N   0  0  0  0  0  0  0  0  0  0  0  0
    1.9686    0.7691   -1.2004 C   0  0  1  0  0  0  0  0  0  0  0  0
    3.4061    1.0292   -0.6849 C   0  0  1  0  0  0  0  0  0  0  0  0
    1.0719    1.9858   -0.9250 C   0  0  0  0  0  0  0  0  0  0  0  0
    0.9981    2.3276    0.5751 C   0  0  2  0  0  0  0  0  0  0  0  0
    1.9516    0.4403   -2.6964 C   0  0  0  0  0  0  0  0  0  0  0  0
    2.3700    2.3387    1.2182 C   0  0  0  0  0  0  0  0  0  0  0  0
    3.4371    1.7651    0.6341 C   0  0  0  0  0  0  0  0  0  0  0  0
    4.1935   -0.2800   -0.5578 C   0  0  0  0  0  0  0  0  0  0  0  0
    0.0537    1.3724    1.3134 C   0  0  0  0  0  0  0  0  0  0  0  0
    0.7084   -0.3702   -3.0491 C   0  0  0  0  0  0  0  0  0  0  0  0
    2.0154    1.7205   -3.5232 C   0  0  0  0  0  0  0  0  0  0  0  0
    2.4977    3.0648    2.5285 C   0  0  0  0  0  0  0  0  0  0  0  0
   -1.4060    1.6677    1.0222 C   0  0  0  0  0  0  0  0  0  0  0  0
    3.1276   -2.4017    0.2097 C   0  0  0  0  0  0  0  0  0  0  0  0
   -3.7752    0.9922    1.4844 C   0  0  0  0  0  0  0  0  0  0  0  0
   -1.9302   -0.2443    2.5513 C   0  0  0  0  0  0  0  0  0  0  0  0
   -4.2989    0.1389    0.3656 C   0  0  0  0  0  0  0  0  0  0  0  0
    2.0640   -4.3195    1.3906 C   0  0  0  0  0  0  0  0  0  0  0  0
   -4.3497    0.6460   -0.9329 C   0  0  0  0  0  0  0  0  0  0  0  0
   -4.7345   -1.1605    0.6244 C   0  0  0  0  0  0  0  0  0  0  0  0
    0.6309   -4.3131    0.9003 C   0  0  0  0  0  0  0  0  0  0  0  0
   -4.8362   -0.1465   -1.9727 C   0  0  0  0  0  0  0  0  0  0  0  0
   -5.2210   -1.9531   -0.4153 C   0  0  0  0  0  0  0  0  0  0  0  0
   -5.2719   -1.4460   -1.7139 C   0  0  0  0  0  0  0  0  0  0  0  0
    1.5509   -0.0881   -0.6598 H   0  0  0  0  0  0  0  0  0  0  0  0
    3.9433    1.6636   -1.4011 H   0  0  0  0  0  0  0  0  0  0  0  0
    0.0676    1.8328   -1.3316 H   0  0  0  0  0  0  0  0  0  0  0  0
    1.4752    2.8826   -1.4129 H   0  0  0  0  0  0  0  0  0  0  0  0
    0.6018    3.3504    0.6454 H   0  0  0  0  0  0  0  0  0  0  0  0
    2.8159   -0.1773   -2.9615 H   0  0  0  0  0  0  0  0  0  0  0  0
    4.4078    1.8448    1.1196 H   0  0  0  0  0  0  0  0  0  0  0  0
    5.2256   -0.0717   -0.2508 H   0  0  0  0  0  0  0  0  0  0  0  0
    4.2535   -0.8156   -1.5089 H   0  0  0  0  0  0  0  0  0  0  0  0
    0.1865    1.5037    2.3930 H   0  0  0  0  0  0  0  0  0  0  0  0
    0.2720    0.3295    1.0631 H   0  0  0  0  0  0  0  0  0  0  0  0
   -0.2172    0.1797   -2.8529 H   0  0  0  0  0  0  0  0  0  0  0  0
    0.6752   -1.3044   -2.4780 H   0  0  0  0  0  0  0  0  0  0  0  0
    0.7140   -0.6357   -4.1120 H   0  0  0  0  0  0  0  0  0  0  0  0
    1.0792    2.2886   -3.5099 H   0  0  0  0  0  0  0  0  0  0  0  0
    2.1903    1.4608   -4.5748 H   0  0  0  0  0  0  0  0  0  0  0  0
    2.8399    2.3753   -3.2262 H   0  0  0  0  0  0  0  0  0  0  0  0
    2.1269    4.0905    2.4327 H   0  0  0  0  0  0  0  0  0  0  0  0
    3.5386    3.1245    2.8646 H   0  0  0  0  0  0  0  0  0  0  0  0
    1.9296    2.5606    3.3152 H   0  0  0  0  0  0  0  0  0  0  0  0
    3.6453   -0.7925    1.4162 H   0  0  0  0  0  0  0  0  0  0  0  0
   -3.9906    2.0455    1.2656 H   0  0  0  0  0  0  0  0  0  0  0  0
   -4.2906    0.7701    2.4266 H   0  0  0  0  0  0  0  0  0  0  0  0
   -0.8858   -0.2161    2.8573 H   0  0  0  0  0  0  0  0  0  0  0  0
   -2.1083   -1.1966    2.0434 H   0  0  0  0  0  0  0  0  0  0  0  0
   -2.5370   -0.2040    3.4615 H   0  0  0  0  0  0  0  0  0  0  0  0
    2.6664   -2.4668    2.2375 H   0  0  0  0  0  0  0  0  0  0  0  0
    2.6738   -4.9777    0.7628 H   0  0  0  0  0  0  0  0  0  0  0  0
    2.1123   -4.6825    2.4219 H   0  0  0  0  0  0  0  0  0  0  0  0
   -4.0156    1.6568   -1.1498 H   0  0  0  0  0  0  0  0  0  0  0  0
   -4.7026   -1.5670    1.6317 H   0  0  0  0  0  0  0  0  0  0  0  0
    0.0105   -3.6508    1.5136 H   0  0  0  0  0  0  0  0  0  0  0  0
    0.5649   -3.9634   -0.1352 H   0  0  0  0  0  0  0  0  0  0  0  0
    0.2068   -5.3208    0.9473 H   0  0  0  0  0  0  0  0  0  0  0  0
   -4.8760    0.2484   -2.9836 H   0  0  0  0  0  0  0  0  0  0  0  0
   -5.5605   -2.9648   -0.2138 H   0  0  0  0  0  0  0  0  0  0  0  0
   -5.6507   -2.0631   -2.5234 H   0  0  0  0  0  0  0  0  0  0  0  0
  1 18  2  0  0  0  0
  2 19  2  0  0  0  0
  3 13  1  0  0  0  0
  3 19  1  0  0  0  0
  3 50  1  0  0  0  0
  4 18  1  0  0  0  0
  4 20  1  0  0  0  0
  4 21  1  0  0  0  0
  5 19  1  0  0  0  0
  5 23  1  0  0  0  0
  5 56  1  0  0  0  0
  6  7  1  0  0  0  0
  6  8  1  0  0  0  0
  6 10  1  0  0  0  0
  6 30  1  0  0  0  0
  7 12  1  0  0  0  0
  7 13  1  0  0  0  0
  7 31  1  0  0  0  0
  8  9  1  0  0  0  0
  8 32  1  0  0  0  0
  8 33  1  0  0  0  0
  9 11  1  0  0  0  0
  9 14  1  0  0  0  0
  9 34  1  0  0  0  0
 10 15  1  0  0  0  0
 10 16  1  0  0  0  0
 10 35  1  0  0  0  0
 11 12  2  0  0  0  0
 11 17  1  0  0  0  0
 12 36  1  0  0  0  0
 13 37  1  0  0  0  0
 13 38  1  0  0  0  0
 14 18  1  0  0  0  0
 14 39  1  0  0  0  0
 14 40  1  0  0  0  0
 15 41  1  0  0  0  0
 15 42  1  0  0  0  0
 15 43  1  0  0  0  0
 16 44  1  0  0  0  0
 16 45  1  0  0  0  0
 16 46  1  0  0  0  0
 17 47  1  0  0  0  0
 17 48  1  0  0  0  0
 17 49  1  0  0  0  0
 20 22  1  0  0  0  0
 20 51  1  0  0  0  0
 20 52  1  0  0  0  0
 21 53  1  0  0  0  0
 21 54  1  0  0  0  0
 21 55  1  0  0  0  0
 22 24  2  0  0  0  0
 22 25  1  0  0  0  0
 23 26  1  0  0  0  0
 23 57  1  0  0  0  0
 23 58  1  0  0  0  0
 24 27  1  0  0  0  0
 24 59  1  0  0  0  0
 25 28  2  0  0  0  0
 25 60  1  0  0  0  0
 26 61  1  0  0  0  0
 26 62  1  0  0  0  0
 26 63  1  0  0  0  0
 27 29  2  0  0  0  0
 27 64  1  0  0  0  0
 28 29  1  0  0  0  0
 28 65  1  0  0  0  0
 29 66  1  0  0  0  0
M  END
> <PUBCHEM_COMPOUND_CID>
38027141

> <PUBCHEM_CONFORMER_RMSD>
1.2

> <PUBCHEM_CONFORMER_DIVERSEORDER>
1
100
22
132
70
138
122
78
101
113
145
51
131
48
34
53
73
139
42
25
93
74
59
137
155
97
125
10
87
68
121
32
18
80
69
111
108
23
5
117
92
82
112
46
123
29
133
88
84
96
107
146
40
55
110
103
21
58
114
153
154
20
118
126
120
85
66
77
45
98
140
44
127
89
91
141
134
105
63
65
14
76
94
24
52
28
49
39
37
149
71
79
142
9
33
43
129
6
41
67
56
26
116
54
128
50
35
27
64
135
16
62
3
60
109
57
7
147
86
83
119
75
81
15
106
102
148
2
115
136
99
72
12
90
124
11
30
152
36
19
61
17
130
31
38
104
13
143
8
151
95
150
47
144
4

> <PUBCHEM_MMFF94_PARTIAL_CHARGES>
31
1 -0.57
11 -0.28
12 -0.29
13 0.3
14 0.06
17 0.14
18 0.57
19 0.69
2 -0.57
20 0.44
21 0.3
22 -0.14
23 0.3
24 -0.15
25 -0.15
27 -0.15
28 -0.15
29 -0.15
3 -0.73
36 0.15
4 -0.66
5 -0.73
50 0.37
56 0.37
59 0.15
60 0.15
64 0.15
65 0.15
66 0.15
7 0.14
9 0.14

> <PUBCHEM_EFFECTIVE_ROTOR_COUNT>
11.8

> <PUBCHEM_PHARMACOPHORE_FEATURES>
7
1 1 acceptor
1 2 acceptor
1 3 donor
1 5 donor
3 10 15 16 hydrophobe
6 22 24 25 27 28 29 rings
6 6 7 8 9 11 12 rings

> <PUBCHEM_HEAVY_ATOM_COUNT>
29

> <PUBCHEM_ATOM_DEF_STEREO_COUNT>
3

> <PUBCHEM_ATOM_UDEF_STEREO_COUNT>
0

> <PUBCHEM_BOND_DEF_STEREO_COUNT>
0

> <PUBCHEM_BOND_UDEF_STEREO_COUNT>
0

> <PUBCHEM_ISOTOPIC_ATOM_COUNT>
0

> <PUBCHEM_COMPONENT_COUNT>
1

> <PUBCHEM_CACTVS_TAUTO_COUNT>
3

> <PUBCHEM_CONFORMER_ID>
02443F8500000001

> <PUBCHEM_MMFF94_ENERGY>
57.8064

> <PUBCHEM_FEATURE_SELFOVERLAP>
35.568

> <PUBCHEM_SHAPE_FINGERPRINT>
11069576 57 18335144137818325966
11796584 16 17704078400011542377
12156800 1 15362439522328785450
13383661 66 16899603409101054739
13583140 156 18271229548032985525
14251757 17 16661217935929637299
15210252 30 11386368153772943318
17138139 8 18129379465658417694
17349148 13 17489033755092133133
19315092 285 18131058346883367625
20764821 26 18121223344496866555
20775530 9 17611476237724309850
25222932 49 17913760885029475327
25265897 201 15864653716315757427
35225 105 17614031863081499270
392239 28 14117506615337797748
46194498 28 16444782486205357477
463206 1 18339654351489402923
513532 50 16588296232931170668
66674814 147 18041282071546132154
6669772 16 18054776545056526313

> <PUBCHEM_SHAPE_MULTIPOLES>
570.12
10.3
4.49
3.04
14.5
5.72
-1.93
2.73
-2.25
-4.58
2.71
-0.72
-1.1
-0.86

> <PUBCHEM_SHAPE_SELFOVERLAP>
1158.548

> <PUBCHEM_SHAPE_VOLUME>
330.6

> <PUBCHEM_COORDINATE_TYPE>
2
5
10

$$$$
