11886429
  -OEChem-12032416363D

 65 69  0     1  0  0  0  0  0999 V2000
   -3.4768    0.6107    2.2561 O   0  0  0  0  0  0  0  0  0  0  0  0
    0.0046   -1.0181   -2.4112 O   0  0  0  0  0  0  0  0  0  0  0  0
    2.8922   -0.6917    1.4447 O   0  0  0  0  0  0  0  0  0  0  0  0
   -4.0578   -0.9054    0.5959 N   0  0  0  0  0  0  0  0  0  0  0  0
   -1.4538   -2.0634   -0.9143 N   0  0  0  0  0  0  0  0  0  0  0  0
   -4.1696    1.4284    0.2277 N   0  0  0  0  0  0  0  0  0  0  0  0
    2.1391   -1.1962   -0.6895 N   0  0  0  0  0  0  0  0  0  0  0  0
    4.2263   -0.2750   -0.4407 N   0  0  0  0  0  0  0  0  0  0  0  0
    9.5580    1.9104   -1.7057 N   0  0  0  0  0  0  0  0  0  0  0  0
   -3.9388   -2.4097   -1.4138 C   0  0  1  0  0  0  0  0  0  0  0  0
   -3.0114   -3.1690    0.7276 C   0  0  2  0  0  0  0  0  0  0  0  0
   -3.8215   -3.6111   -0.4870 C   0  0  0  0  0  0  0  0  0  0  0  0
   -4.6457   -1.2341   -0.7120 C   0  0  0  0  0  0  0  0  0  0  0  0
   -3.7712   -2.0536    1.4649 C   0  0  0  0  0  0  0  0  0  0  0  0
   -2.5375   -2.0244   -1.9040 C   0  0  0  0  0  0  0  0  0  0  0  0
   -1.6328   -2.6786    0.3281 C   0  0  0  0  0  0  0  0  0  0  0  0
   -3.8718    0.3929    1.1060 C   0  0  0  0  0  0  0  0  0  0  0  0
   -4.0364    2.8187    0.6027 C   0  0  0  0  0  0  0  0  0  0  0  0
   -0.5959   -2.8098    1.1726 C   0  0  0  0  0  0  0  0  0  0  0  0
   -0.2052   -1.5506   -1.3204 C   0  0  0  0  0  0  0  0  0  0  0  0
   -5.3205    3.3378    1.2586 C   0  0  0  0  0  0  0  0  0  0  0  0
   -3.6415    3.6789   -0.6023 C   0  0  0  0  0  0  0  0  0  0  0  0
   -6.4625    3.5061    0.2563 C   0  0  0  0  0  0  0  0  0  0  0  0
   -4.7861    3.8468   -1.6015 C   0  0  0  0  0  0  0  0  0  0  0  0
   -6.0489    4.3748   -0.9276 C   0  0  0  0  0  0  0  0  0  0  0  0
    0.9180   -1.6935   -0.3406 C   0  0  0  0  0  0  0  0  0  0  0  0
    0.7034   -2.3045    0.8293 C   0  0  0  0  0  0  0  0  0  0  0  0
    3.0793   -0.7130    0.2302 C   0  0  0  0  0  0  0  0  0  0  0  0
    5.4014    0.2792    0.1183 C   0  0  0  0  0  0  0  0  0  0  0  0
    6.4398    0.6543   -0.7185 C   0  0  0  0  0  0  0  0  0  0  0  0
    5.4907    0.4338    1.4922 C   0  0  0  0  0  0  0  0  0  0  0  0
    7.5992    1.1988   -0.1664 C   0  0  0  0  0  0  0  0  0  0  0  0
    6.6501    0.9782    2.0443 C   0  0  0  0  0  0  0  0  0  0  0  0
    7.7044    1.3608    1.2151 C   0  0  0  0  0  0  0  0  0  0  0  0
    8.6794    1.5913   -1.0153 C   0  0  0  0  0  0  0  0  0  0  0  0
   -4.5424   -2.6807   -2.2892 H   0  0  0  0  0  0  0  0  0  0  0  0
   -2.9150   -4.0277    1.4047 H   0  0  0  0  0  0  0  0  0  0  0  0
   -3.3310   -4.4486   -0.9987 H   0  0  0  0  0  0  0  0  0  0  0  0
   -4.8159   -3.9589   -0.1817 H   0  0  0  0  0  0  0  0  0  0  0  0
   -4.6581   -0.3874   -1.3975 H   0  0  0  0  0  0  0  0  0  0  0  0
   -5.6918   -1.5001   -0.5162 H   0  0  0  0  0  0  0  0  0  0  0  0
   -3.2140   -1.7358    2.3531 H   0  0  0  0  0  0  0  0  0  0  0  0
   -4.7399   -2.4292    1.8182 H   0  0  0  0  0  0  0  0  0  0  0  0
   -2.2382   -2.7230   -2.6974 H   0  0  0  0  0  0  0  0  0  0  0  0
   -2.5521   -1.0304   -2.3686 H   0  0  0  0  0  0  0  0  0  0  0  0
   -3.2276    2.8848    1.3410 H   0  0  0  0  0  0  0  0  0  0  0  0
   -0.7110   -3.2778    2.1447 H   0  0  0  0  0  0  0  0  0  0  0  0
   -4.6297    1.2453   -0.6516 H   0  0  0  0  0  0  0  0  0  0  0  0
   -5.6415    2.6662    2.0639 H   0  0  0  0  0  0  0  0  0  0  0  0
   -5.1142    4.3110    1.7223 H   0  0  0  0  0  0  0  0  0  0  0  0
   -3.3357    4.6712   -0.2472 H   0  0  0  0  0  0  0  0  0  0  0  0
   -2.7745    3.2429   -1.1132 H   0  0  0  0  0  0  0  0  0  0  0  0
   -6.7852    2.5225   -0.1060 H   0  0  0  0  0  0  0  0  0  0  0  0
   -7.3262    3.9571    0.7579 H   0  0  0  0  0  0  0  0  0  0  0  0
   -4.4787    4.5398   -2.3932 H   0  0  0  0  0  0  0  0  0  0  0  0
   -5.0030    2.8902   -2.0910 H   0  0  0  0  0  0  0  0  0  0  0  0
   -5.8750    5.4014   -0.5823 H   0  0  0  0  0  0  0  0  0  0  0  0
   -6.8657    4.4180   -1.6568 H   0  0  0  0  0  0  0  0  0  0  0  0
    1.4762   -2.4984    1.5634 H   0  0  0  0  0  0  0  0  0  0  0  0
    2.2703   -0.9403   -1.6644 H   0  0  0  0  0  0  0  0  0  0  0  0
    4.2230   -0.3661   -1.4535 H   0  0  0  0  0  0  0  0  0  0  0  0
    6.3535    0.5259   -1.7952 H   0  0  0  0  0  0  0  0  0  0  0  0
    4.7210    0.1632    2.1995 H   0  0  0  0  0  0  0  0  0  0  0  0
    6.7331    1.1049    3.1199 H   0  0  0  0  0  0  0  0  0  0  0  0
    8.6017    1.7839    1.6606 H   0  0  0  0  0  0  0  0  0  0  0  0
  1 17  2  0  0  0  0
  2 20  2  0  0  0  0
  3 28  2  0  0  0  0
  4 13  1  0  0  0  0
  4 14  1  0  0  0  0
  4 17  1  0  0  0  0
  5 15  1  0  0  0  0
  5 16  1  0  0  0  0
  5 20  1  0  0  0  0
  6 17  1  0  0  0  0
  6 18  1  0  0  0  0
  6 48  1  0  0  0  0
  7 26  1  0  0  0  0
  7 28  1  0  0  0  0
  7 60  1  0  0  0  0
  8 28  1  0  0  0  0
  8 29  1  0  0  0  0
  8 61  1  0  0  0  0
  9 35  3  0  0  0  0
 10 12  1  0  0  0  0
 10 13  1  0  0  0  0
 10 15  1  0  0  0  0
 10 36  1  0  0  0  0
 11 12  1  0  0  0  0
 11 14  1  0  0  0  0
 11 16  1  0  0  0  0
 11 37  1  0  0  0  0
 12 38  1  0  0  0  0
 12 39  1  0  0  0  0
 13 40  1  0  0  0  0
 13 41  1  0  0  0  0
 14 42  1  0  0  0  0
 14 43  1  0  0  0  0
 15 44  1  0  0  0  0
 15 45  1  0  0  0  0
 16 19  2  0  0  0  0
 18 21  1  0  0  0  0
 18 22  1  0  0  0  0
 18 46  1  0  0  0  0
 19 27  1  0  0  0  0
 19 47  1  0  0  0  0
 20 26  1  0  0  0  0
 21 23  1  0  0  0  0
 21 49  1  0  0  0  0
 21 50  1  0  0  0  0
 22 24  1  0  0  0  0
 22 51  1  0  0  0  0
 22 52  1  0  0  0  0
 23 25  1  0  0  0  0
 23 53  1  0  0  0  0
 23 54  1  0  0  0  0
 24 25  1  0  0  0  0
 24 55  1  0  0  0  0
 24 56  1  0  0  0  0
 25 57  1  0  0  0  0
 25 58  1  0  0  0  0
 26 27  2  0  0  0  0
 27 59  1  0  0  0  0
 29 30  1  0  0  0  0
 29 31  2  0  0  0  0
 30 32  2  0  0  0  0
 30 62  1  0  0  0  0
 31 33  1  0  0  0  0
 31 63  1  0  0  0  0
 32 34  1  0  0  0  0
 32 35  1  0  0  0  0
 33 34  2  0  0  0  0
 33 64  1  0  0  0  0
 34 65  1  0  0  0  0
M  END
> <PUBCHEM_COMPOUND_CID>
11886429

> <PUBCHEM_CONFORMER_RMSD>
1

> <PUBCHEM_CONFORMER_DIVERSEORDER>
1
32
64
42
12
31
72
60
74
17
77
76
54
58
35
79
66
7
75
30
37
2
38
20
78
19
8
27
25
55
68
34
21
69
70
9
43
28
47
41
50
11
48
63
15
67
53
33
23
61
26
56
71
57
24
51
29
16
3
49
59
5
40
80
46
14
52
10
65
44
6
45
62
22
13
4
18
39
36
73

> <PUBCHEM_MMFF94_PARTIAL_CHARGES>
37
1 -0.57
11 0.14
13 0.3
14 0.3
15 0.3
16 -0.03
17 0.69
18 0.3
19 -0.15
2 -0.57
20 0.62
26 0.12
27 -0.15
28 0.69
29 0.12
3 -0.57
30 -0.15
31 -0.15
32 0.07
33 -0.15
34 -0.15
35 0.48
4 -0.66
47 0.15
48 0.37
5 -0.47
59 0.15
6 -0.73
60 0.37
61 0.37
62 0.15
63 0.15
64 0.15
65 0.15
7 -0.54
8 -0.55
9 -0.56

> <PUBCHEM_EFFECTIVE_ROTOR_COUNT>
9.2

> <PUBCHEM_PHARMACOPHORE_FEATURES>
12
1 1 acceptor
1 2 acceptor
1 3 acceptor
1 6 donor
1 7 donor
1 8 donor
1 9 acceptor
6 18 21 22 23 24 25 rings
6 29 30 31 32 33 34 rings
6 4 10 11 12 13 14 rings
6 5 10 11 12 15 16 rings
6 5 16 19 20 26 27 rings

> <PUBCHEM_HEAVY_ATOM_COUNT>
35

> <PUBCHEM_ATOM_DEF_STEREO_COUNT>
2

> <PUBCHEM_ATOM_UDEF_STEREO_COUNT>
0

> <PUBCHEM_BOND_DEF_STEREO_COUNT>
0

> <PUBCHEM_BOND_UDEF_STEREO_COUNT>
0

> <PUBCHEM_ISOTOPIC_ATOM_COUNT>
0

> <PUBCHEM_COMPONENT_COUNT>
1

> <PUBCHEM_CACTVS_TAUTO_COUNT>
6

> <PUBCHEM_CONFORMER_ID>
00B55F5D00000001

> <PUBCHEM_MMFF94_ENERGY>
82.9529

> <PUBCHEM_FEATURE_SELFOVERLAP>
62.498

> <PUBCHEM_SHAPE_FINGERPRINT>
10864689 126 18196652900321575744
10930396 42 18335710485739485187
11211813 15 18189321408854408597
11315181 36 15792279526874069678
11479125 193 17682657551455537965
12895837 130 18335423452399924537
12988421 55 16660362571480478515
13008946 113 18336551513471889094
13165053 103 12319469796065305460
13782708 43 7925913678017290294
13947947 63 18265598897674182832
14512766 119 18413394219972005908
14647877 103 18408046204315732780
14856354 85 18196373843163741158
14904525 67 18269551814582460968
14950920 106 16516549800858126137
15064981 113 17917701384179492590
15183329 4 16271939246315504134
15198563 99 18057586854846093607
15328684 2 18114727297098676400
15338160 23 18407758153110836069
15803439 3 16629952244820151717
16114785 44 18411136927343872991
16120349 189 18335979758223457805
16126227 98 18342177714154772913
16728433 281 18201732726020995352
16992828 155 18261386707473081709
19304152 47 18260840288895527835
19304671 126 17772196314600455501
21033648 29 18188781534994954539
21223535 225 18341604958880516536
21927370 108 18123756624041639787
23522609 53 17459204009616368476
23569914 2 17412981592635656072
255183 451 9979267581132856143
3418910 222 17760372488856961752
3711267 37 17531816883065776436
397830 11 11169916126219147678
4112364 45 17971752164993982521
44249763 50 18059841896647332522
44802255 64 17703511081549218574
4756326 101 16372117812639048165
48014 12 18411990173366619784
4938544 92 18408886243519525717
57527585 21 16772389514302388065
58902169 19 13398640472012556602
6201320 215 18273210877314404272

> <PUBCHEM_SHAPE_MULTIPOLES>
672.79
23.08
5.55
1.89
58.26
3.45
-0.05
26.77
-1.39
-14.26
-0.89
0.4
0.04
-0.52

> <PUBCHEM_SHAPE_SELFOVERLAP>
1451.536

> <PUBCHEM_SHAPE_VOLUME>
356.7

> <PUBCHEM_COORDINATE_TYPE>
2
5
10

$$$$
