26763134
  -OEChem-12032416383D

 53 54  0     1  0  0  0  0  0999 V2000
   -3.0632    3.8137    1.2995 S   0  0  0  0  0  0  0  0  0  0  0  0
    4.0606    0.5477    2.3932 F   0  0  0  0  0  0  0  0  0  0  0  0
    8.0898   -0.7613    0.2874 F   0  0  0  0  0  0  0  0  0  0  0  0
   -1.2829   -0.2112    1.2816 O   0  0  0  0  0  0  0  0  0  0  0  0
   -4.5409    0.9034    0.5757 O   0  0  0  0  0  0  0  0  0  0  0  0
    2.2104    0.1118   -2.3044 O   0  0  0  0  0  0  0  0  0  0  0  0
   -4.9591   -2.2691    1.0109 O   0  0  0  0  0  0  0  0  0  0  0  0
   -2.5855    1.0697   -0.6516 N   0  0  0  0  0  0  0  0  0  0  0  0
    0.5564    0.7627   -0.8257 N   0  0  0  0  0  0  0  0  0  0  0  0
   -2.2569   -2.2567    0.7624 N   0  0  0  0  0  0  0  0  0  0  0  0
    2.6831    0.4215   -0.0260 N   0  0  0  0  0  0  0  0  0  0  0  0
   -5.2600   -3.6617   -0.7935 N   0  0  0  0  0  0  0  0  0  0  0  0
   -0.5138    0.8313   -1.7890 C   0  0  1  0  0  0  0  0  0  0  0  0
   -2.3718   -0.3615   -0.8079 C   0  0  1  0  0  0  0  0  0  0  0  0
   -1.2874   -0.4870   -1.8759 C   0  0  0  0  0  0  0  0  0  0  0  0
   -1.5803    1.8428   -1.3809 C   0  0  0  0  0  0  0  0  0  0  0  0
   -1.9194   -0.9275    0.5045 C   0  0  0  0  0  0  0  0  0  0  0  0
   -3.7134    1.5854   -0.0312 C   0  0  0  0  0  0  0  0  0  0  0  0
   -3.8813    3.0811   -0.1249 C   0  0  0  0  0  0  0  0  0  0  0  0
    1.8671    0.4005   -1.1605 C   0  0  0  0  0  0  0  0  0  0  0  0
   -3.0127   -3.0693   -0.1873 C   0  0  0  0  0  0  0  0  0  0  0  0
   -1.8798   -2.9310    1.9981 C   0  0  0  0  0  0  0  0  0  0  0  0
   -4.4926   -2.9269    0.0847 C   0  0  0  0  0  0  0  0  0  0  0  0
    4.0626    0.1203    0.0567 C   0  0  0  0  0  0  0  0  0  0  0  0
   -3.4048    5.5567    0.9522 C   0  0  0  0  0  0  0  0  0  0  0  0
    4.7231    0.1927    1.2831 C   0  0  0  0  0  0  0  0  0  0  0  0
    4.7626   -0.2500   -1.0917 C   0  0  0  0  0  0  0  0  0  0  0  0
    6.0835   -0.1050    1.3612 C   0  0  0  0  0  0  0  0  0  0  0  0
    6.1230   -0.5478   -1.0136 C   0  0  0  0  0  0  0  0  0  0  0  0
    6.7835   -0.4753    0.2129 C   0  0  0  0  0  0  0  0  0  0  0  0
   -0.0784    1.0950   -2.7589 H   0  0  0  0  0  0  0  0  0  0  0  0
   -3.3237   -0.7832   -1.1359 H   0  0  0  0  0  0  0  0  0  0  0  0
   -0.6523   -1.3707   -1.7542 H   0  0  0  0  0  0  0  0  0  0  0  0
   -1.7676   -0.5502   -2.8607 H   0  0  0  0  0  0  0  0  0  0  0  0
   -1.1938    2.6647   -0.7730 H   0  0  0  0  0  0  0  0  0  0  0  0
   -2.0701    2.2533   -2.2712 H   0  0  0  0  0  0  0  0  0  0  0  0
    0.3384    0.9281    0.1521 H   0  0  0  0  0  0  0  0  0  0  0  0
   -4.9530    3.3044   -0.0893 H   0  0  0  0  0  0  0  0  0  0  0  0
   -3.4940    3.4877   -1.0608 H   0  0  0  0  0  0  0  0  0  0  0  0
   -2.7909   -2.8002   -1.2227 H   0  0  0  0  0  0  0  0  0  0  0  0
   -2.7272   -4.1204   -0.0615 H   0  0  0  0  0  0  0  0  0  0  0  0
   -2.7787   -3.3045    2.4964 H   0  0  0  0  0  0  0  0  0  0  0  0
   -1.3571   -2.2474    2.6721 H   0  0  0  0  0  0  0  0  0  0  0  0
   -1.2162   -3.7663    1.7566 H   0  0  0  0  0  0  0  0  0  0  0  0
    2.2416    0.6840    0.8516 H   0  0  0  0  0  0  0  0  0  0  0  0
   -2.9701    6.1734    1.7432 H   0  0  0  0  0  0  0  0  0  0  0  0
   -4.4829    5.7347    0.9246 H   0  0  0  0  0  0  0  0  0  0  0  0
   -2.9580    5.8485   -0.0018 H   0  0  0  0  0  0  0  0  0  0  0  0
   -4.8512   -4.2104   -1.5433 H   0  0  0  0  0  0  0  0  0  0  0  0
   -6.2719   -3.6717   -0.7200 H   0  0  0  0  0  0  0  0  0  0  0  0
    4.3232   -0.3288   -2.0758 H   0  0  0  0  0  0  0  0  0  0  0  0
    6.5978   -0.0486    2.3160 H   0  0  0  0  0  0  0  0  0  0  0  0
    6.6696   -0.8363   -1.9067 H   0  0  0  0  0  0  0  0  0  0  0  0
  1 19  1  0  0  0  0
  1 25  1  0  0  0  0
  2 26  1  0  0  0  0
  3 30  1  0  0  0  0
  4 17  2  0  0  0  0
  5 18  2  0  0  0  0
  6 20  2  0  0  0  0
  7 23  2  0  0  0  0
  8 14  1  0  0  0  0
  8 16  1  0  0  0  0
  8 18  1  0  0  0  0
  9 13  1  0  0  0  0
  9 20  1  0  0  0  0
  9 37  1  0  0  0  0
 10 17  1  0  0  0  0
 10 21  1  0  0  0  0
 10 22  1  0  0  0  0
 11 20  1  0  0  0  0
 11 24  1  0  0  0  0
 11 45  1  0  0  0  0
 12 23  1  0  0  0  0
 12 49  1  0  0  0  0
 12 50  1  0  0  0  0
 13 15  1  0  0  0  0
 13 16  1  0  0  0  0
 13 31  1  0  0  0  0
 14 15  1  0  0  0  0
 14 17  1  0  0  0  0
 14 32  1  0  0  0  0
 15 33  1  0  0  0  0
 15 34  1  0  0  0  0
 16 35  1  0  0  0  0
 16 36  1  0  0  0  0
 18 19  1  0  0  0  0
 19 38  1  0  0  0  0
 19 39  1  0  0  0  0
 21 23  1  0  0  0  0
 21 40  1  0  0  0  0
 21 41  1  0  0  0  0
 22 42  1  0  0  0  0
 22 43  1  0  0  0  0
 22 44  1  0  0  0  0
 24 26  2  0  0  0  0
 24 27  1  0  0  0  0
 25 46  1  0  0  0  0
 25 47  1  0  0  0  0
 25 48  1  0  0  0  0
 26 28  1  0  0  0  0
 27 29  2  0  0  0  0
 27 51  1  0  0  0  0
 28 30  2  0  0  0  0
 28 52  1  0  0  0  0
 29 30  1  0  0  0  0
 29 53  1  0  0  0  0
M  END
> <PUBCHEM_COMPOUND_CID>
26763134

> <PUBCHEM_CONFORMER_RMSD>
1

> <PUBCHEM_CONFORMER_DIVERSEORDER>
1
31
2
7
14
4
25
17
26
18
29
13
22
24
8
10
16
23
28
3
34
33
27
32
20
21
9
6
11
15
5
30
19
12

> <PUBCHEM_MMFF94_PARTIAL_CHARGES>
36
1 -0.46
10 -0.66
11 -0.55
12 -0.8
13 0.3
14 0.36
16 0.3
17 0.57
18 0.57
19 0.29
2 -0.19
20 0.69
21 0.36
22 0.3
23 0.57
24 0.12
25 0.23
26 0.19
27 -0.15
28 -0.15
29 -0.15
3 -0.19
30 0.19
37 0.37
4 -0.57
45 0.37
49 0.37
5 -0.57
50 0.37
51 0.15
52 0.15
53 0.15
6 -0.57
7 -0.57
8 -0.66
9 -0.73

> <PUBCHEM_EFFECTIVE_ROTOR_COUNT>
12

> <PUBCHEM_PHARMACOPHORE_FEATURES>
10
1 11 donor
1 12 donor
1 25 hydrophobe
1 4 acceptor
1 5 acceptor
1 6 acceptor
1 7 acceptor
1 9 donor
5 8 13 14 15 16 rings
6 24 26 27 28 29 30 rings

> <PUBCHEM_HEAVY_ATOM_COUNT>
30

> <PUBCHEM_ATOM_DEF_STEREO_COUNT>
2

> <PUBCHEM_ATOM_UDEF_STEREO_COUNT>
0

> <PUBCHEM_BOND_DEF_STEREO_COUNT>
0

> <PUBCHEM_BOND_UDEF_STEREO_COUNT>
0

> <PUBCHEM_ISOTOPIC_ATOM_COUNT>
0

> <PUBCHEM_COMPONENT_COUNT>
1

> <PUBCHEM_CACTVS_TAUTO_COUNT>
6

> <PUBCHEM_CONFORMER_ID>
01985F7E00000001

> <PUBCHEM_MMFF94_ENERGY>
78.5017

> <PUBCHEM_FEATURE_SELFOVERLAP>
50.798

> <PUBCHEM_SHAPE_FINGERPRINT>
10319926 262 18343023285418757412
11135926 11 15140959535817594698
11545043 162 18272086111173120338
12128747 34 18057891247076782838
12616971 3 16515693230382687750
12633257 1 18040718043792951956
12760667 363 18114460183918044295
12788726 201 18191325946962447471
13004483 165 18194122047913275575
13540713 5 17896621619949522261
13583140 156 17775565334334210670
14068700 675 18263080088370497687
14705955 166 18343585135512482744
14844126 61 18412825819868681135
15183329 4 15358238472782395494
15420108 30 18046061558983037269
15444296 121 18339088090596724396
15537594 2 16660644021383333576
17844677 252 18411984702332184408
17980427 26 17548974460762647117
18470217 77 18272644675643490841
21304303 282 18267859490034970229
23522609 53 17751387048381836052
23559900 14 17606680489667048823
23929065 36 18341041974198033057
25147074 1 17749967651230141196
376196 1 17484525529927871485
4073 2 18341050723478860390
5104073 3 18409160048455103736
5924683 9 18335419101265627431
6009941 240 18272087142102538496
9981440 41 17846217687865694725

> <PUBCHEM_SHAPE_MULTIPOLES>
558.31
15.67
4.74
1.88
32.48
3.37
0.02
-2.99
3.58
-13.91
2.08
0.78
0.01
-0.33

> <PUBCHEM_SHAPE_SELFOVERLAP>
1147.96

> <PUBCHEM_SHAPE_VOLUME>
323.8

> <PUBCHEM_COORDINATE_TYPE>
2
5
10

$$$$
