38027663
  -OEChem-12032416283D

 61 62  0     1  0  0  0  0  0999 V2000
   -3.6546    0.8363   -1.6728 O   0  0  0  0  0  0  0  0  0  0  0  0
    2.8961   -0.7458    2.1591 O   0  0  0  0  0  0  0  0  0  0  0  0
   -4.3563    1.8595    1.0908 O   0  0  0  0  0  0  0  0  0  0  0  0
    2.4239   -1.4759    0.0074 N   0  0  0  0  0  0  0  0  0  0  0  0
   -2.1885    2.3677   -0.7209 N   0  0  0  0  0  0  0  0  0  0  0  0
    4.9164    2.6095    0.6629 N   0  0  0  0  0  0  0  0  0  0  0  0
   -0.4985   -1.8361    0.6182 C   0  0  1  0  0  0  0  0  0  0  0  0
    0.4140   -2.8522   -0.1131 C   0  0  1  0  0  0  0  0  0  0  0  0
   -1.8187   -1.6542   -0.1461 C   0  0  0  0  0  0  0  0  0  0  0  0
   -1.5942   -1.1595   -1.5875 C   0  0  2  0  0  0  0  0  0  0  0  0
   -0.7886   -2.2665    2.0594 C   0  0  0  0  0  0  0  0  0  0  0  0
   -0.5083   -1.9482   -2.2908 C   0  0  0  0  0  0  0  0  0  0  0  0
    0.3716   -2.7097   -1.6165 C   0  0  0  0  0  0  0  0  0  0  0  0
    1.8646   -2.7403    0.3698 C   0  0  0  0  0  0  0  0  0  0  0  0
   -1.2869    0.3418   -1.6145 C   0  0  0  0  0  0  0  0  0  0  0  0
   -1.1414   -1.0547    2.9160 C   0  0  0  0  0  0  0  0  0  0  0  0
   -1.9127   -3.2970    2.0908 C   0  0  0  0  0  0  0  0  0  0  0  0
   -0.4850   -1.8780   -3.7924 C   0  0  0  0  0  0  0  0  0  0  0  0
   -2.5190    1.1791   -1.3551 C   0  0  0  0  0  0  0  0  0  0  0  0
    2.9040   -0.5619    0.9448 C   0  0  0  0  0  0  0  0  0  0  0  0
   -3.1676    3.3641   -0.3520 C   0  0  0  0  0  0  0  0  0  0  0  0
    3.4307    0.7193    0.4081 C   0  0  0  0  0  0  0  0  0  0  0  0
   -3.7082    3.1240    1.0459 C   0  0  0  0  0  0  0  0  0  0  0  0
    2.9704    1.2343   -0.7986 C   0  0  0  0  0  0  0  0  0  0  0  0
    4.3957    1.4388    1.0944 C   0  0  0  0  0  0  0  0  0  0  0  0
    3.4819    2.4362   -1.2754 C   0  0  0  0  0  0  0  0  0  0  0  0
    4.4446    3.0789   -0.5139 C   0  0  0  0  0  0  0  0  0  0  0  0
   -4.8855    1.5905    2.3819 C   0  0  0  0  0  0  0  0  0  0  0  0
    0.0099   -0.8655    0.6493 H   0  0  0  0  0  0  0  0  0  0  0  0
    0.0759   -3.8727    0.1064 H   0  0  0  0  0  0  0  0  0  0  0  0
   -2.4943   -0.9702    0.3792 H   0  0  0  0  0  0  0  0  0  0  0  0
   -2.3482   -2.6111   -0.2399 H   0  0  0  0  0  0  0  0  0  0  0  0
   -2.5316   -1.3453   -2.1297 H   0  0  0  0  0  0  0  0  0  0  0  0
    0.1003   -2.7214    2.5084 H   0  0  0  0  0  0  0  0  0  0  0  0
    1.1007   -3.2916   -2.1771 H   0  0  0  0  0  0  0  0  0  0  0  0
    2.4832   -3.5063   -0.1137 H   0  0  0  0  0  0  0  0  0  0  0  0
    1.9506   -2.9069    1.4469 H   0  0  0  0  0  0  0  0  0  0  0  0
   -0.9282    0.6533   -2.6031 H   0  0  0  0  0  0  0  0  0  0  0  0
   -0.4911    0.5941   -0.9057 H   0  0  0  0  0  0  0  0  0  0  0  0
   -2.0452   -0.5463    2.5658 H   0  0  0  0  0  0  0  0  0  0  0  0
   -0.3231   -0.3265    2.9200 H   0  0  0  0  0  0  0  0  0  0  0  0
   -1.3160   -1.3579    3.9543 H   0  0  0  0  0  0  0  0  0  0  0  0
   -2.8984   -2.8645    1.8892 H   0  0  0  0  0  0  0  0  0  0  0  0
   -1.9775   -3.7277    3.0977 H   0  0  0  0  0  0  0  0  0  0  0  0
   -1.7386   -4.1340    1.4082 H   0  0  0  0  0  0  0  0  0  0  0  0
   -1.4600   -2.1625   -4.2013 H   0  0  0  0  0  0  0  0  0  0  0  0
    0.2604   -2.5548   -4.2238 H   0  0  0  0  0  0  0  0  0  0  0  0
   -0.2451   -0.8672   -4.1341 H   0  0  0  0  0  0  0  0  0  0  0  0
    2.5443   -1.2876   -0.9825 H   0  0  0  0  0  0  0  0  0  0  0  0
   -1.2172    2.5644   -0.4981 H   0  0  0  0  0  0  0  0  0  0  0  0
   -3.9835    3.3343   -1.0823 H   0  0  0  0  0  0  0  0  0  0  0  0
   -2.6803    4.3421   -0.4104 H   0  0  0  0  0  0  0  0  0  0  0  0
   -4.4237    3.9135    1.3025 H   0  0  0  0  0  0  0  0  0  0  0  0
   -2.8884    3.1383    1.7740 H   0  0  0  0  0  0  0  0  0  0  0  0
    2.1978    0.7409   -1.3807 H   0  0  0  0  0  0  0  0  0  0  0  0
    4.8005    1.0910    2.0399 H   0  0  0  0  0  0  0  0  0  0  0  0
    3.1337    2.8598   -2.2105 H   0  0  0  0  0  0  0  0  0  0  0  0
    4.8743    4.0200   -0.8411 H   0  0  0  0  0  0  0  0  0  0  0  0
   -5.3695    0.6105    2.3575 H   0  0  0  0  0  0  0  0  0  0  0  0
   -5.6320    2.3424    2.6553 H   0  0  0  0  0  0  0  0  0  0  0  0
   -4.0843    1.5649    3.1269 H   0  0  0  0  0  0  0  0  0  0  0  0
  1 19  2  0  0  0  0
  2 20  2  0  0  0  0
  3 23  1  0  0  0  0
  3 28  1  0  0  0  0
  4 14  1  0  0  0  0
  4 20  1  0  0  0  0
  4 49  1  0  0  0  0
  5 19  1  0  0  0  0
  5 21  1  0  0  0  0
  5 50  1  0  0  0  0
  6 25  1  0  0  0  0
  6 27  2  0  0  0  0
  7  8  1  0  0  0  0
  7  9  1  0  0  0  0
  7 11  1  0  0  0  0
  7 29  1  0  0  0  0
  8 13  1  0  0  0  0
  8 14  1  0  0  0  0
  8 30  1  0  0  0  0
  9 10  1  0  0  0  0
  9 31  1  0  0  0  0
  9 32  1  0  0  0  0
 10 12  1  0  0  0  0
 10 15  1  0  0  0  0
 10 33  1  0  0  0  0
 11 16  1  0  0  0  0
 11 17  1  0  0  0  0
 11 34  1  0  0  0  0
 12 13  2  0  0  0  0
 12 18  1  0  0  0  0
 13 35  1  0  0  0  0
 14 36  1  0  0  0  0
 14 37  1  0  0  0  0
 15 19  1  0  0  0  0
 15 38  1  0  0  0  0
 15 39  1  0  0  0  0
 16 40  1  0  0  0  0
 16 41  1  0  0  0  0
 16 42  1  0  0  0  0
 17 43  1  0  0  0  0
 17 44  1  0  0  0  0
 17 45  1  0  0  0  0
 18 46  1  0  0  0  0
 18 47  1  0  0  0  0
 18 48  1  0  0  0  0
 20 22  1  0  0  0  0
 21 23  1  0  0  0  0
 21 51  1  0  0  0  0
 21 52  1  0  0  0  0
 22 24  1  0  0  0  0
 22 25  2  0  0  0  0
 23 53  1  0  0  0  0
 23 54  1  0  0  0  0
 24 26  2  0  0  0  0
 24 55  1  0  0  0  0
 25 56  1  0  0  0  0
 26 27  1  0  0  0  0
 26 57  1  0  0  0  0
 27 58  1  0  0  0  0
 28 59  1  0  0  0  0
 28 60  1  0  0  0  0
 28 61  1  0  0  0  0
M  END
> <PUBCHEM_COMPOUND_CID>
38027663

> <PUBCHEM_CONFORMER_RMSD>
1

> <PUBCHEM_CONFORMER_DIVERSEORDER>
1
22
32
104
41
117
79
62
94
50
42
87
108
46
106
57
40
74
115
102
81
61
66
53
82
75
6
92
96
67
116
103
28
25
52
63
98
112
11
88
80
107
91
37
95
56
58
85
69
113
10
114
105
49
60
38
93
89
76
7
17
4
39
84
109
100
30
29
34
111
64
5
55
48
86
54
44
65
101
36
70
72
24
19
9
26
47
14
77
78
45
51
18
99
43
15
21
2
68
97
73
31
110
13
33
35
16
83
12
8
90
23
71
27
59
20
3

> <PUBCHEM_MMFF94_PARTIAL_CHARGES>
30
1 -0.57
10 0.14
12 -0.28
13 -0.29
14 0.3
15 0.06
18 0.14
19 0.57
2 -0.57
20 0.54
21 0.3
22 0.09
23 0.28
24 -0.15
25 0.16
26 -0.15
27 0.16
28 0.28
3 -0.56
35 0.15
4 -0.73
49 0.37
5 -0.73
50 0.37
55 0.15
56 0.15
57 0.15
58 0.15
6 -0.62
8 0.14

> <PUBCHEM_EFFECTIVE_ROTOR_COUNT>
11.8

> <PUBCHEM_PHARMACOPHORE_FEATURES>
9
1 1 acceptor
1 2 acceptor
1 3 acceptor
1 4 donor
1 5 donor
1 6 acceptor
3 11 16 17 hydrophobe
6 6 22 24 25 26 27 rings
6 7 8 9 10 12 13 rings

> <PUBCHEM_HEAVY_ATOM_COUNT>
28

> <PUBCHEM_ATOM_DEF_STEREO_COUNT>
3

> <PUBCHEM_ATOM_UDEF_STEREO_COUNT>
0

> <PUBCHEM_BOND_DEF_STEREO_COUNT>
0

> <PUBCHEM_BOND_UDEF_STEREO_COUNT>
0

> <PUBCHEM_ISOTOPIC_ATOM_COUNT>
0

> <PUBCHEM_COMPONENT_COUNT>
1

> <PUBCHEM_CACTVS_TAUTO_COUNT>
4

> <PUBCHEM_CONFORMER_ID>
0244418F00000001

> <PUBCHEM_MMFF94_ENERGY>
58.8683

> <PUBCHEM_FEATURE_SELFOVERLAP>
45.673

> <PUBCHEM_SHAPE_FINGERPRINT>
11221954 11 18408601444396403030
11445158 3 16770463233675409759
11578080 2 17270646501189878611
12104220 4 16043416435723330129
12156800 1 17247572235298207133
12788726 201 18053642935715126911
14251757 17 14836398125568506481
14787075 74 18116414007933571911
15163728 17 17775293746234838213
20764821 26 17616241928972503288
21315764 21 14692300508251662972
21860390 5 17766009302256061322
23419403 2 17336806284358861831
25222932 49 13485398532187993897
392239 28 18114180788111193427
469060 322 17693655222637490342
474 4 18192695774661669903
7288768 16 17895175728009623980
9981440 41 18119222181979069570

> <PUBCHEM_SHAPE_MULTIPOLES>
543.68
8.45
4.92
3.07
4.11
1.12
-0.75
11.6
3.48
-1.42
0.29
-2.08
-1.98
-0.6

> <PUBCHEM_SHAPE_SELFOVERLAP>
1108.231

> <PUBCHEM_SHAPE_VOLUME>
312.5

> <PUBCHEM_COORDINATE_TYPE>
2
5
10

$$$$
