11882028
  -OEChem-12032416123D

 76 79  0     1  0  0  0  0  0999 V2000
    1.5822    0.8254    1.3286 O   0  0  0  0  0  0  0  0  0  0  0  0
   -0.0643   -3.4486   -1.8972 O   0  0  0  0  0  0  0  0  0  0  0  0
    4.6860    0.9956    0.8910 O   0  0  0  0  0  0  0  0  0  0  0  0
    1.4975    4.8051    1.1940 O   0  0  0  0  0  0  0  0  0  0  0  0
    3.2284   -0.1865   -0.4686 N   0  0  0  0  0  0  0  0  0  0  0  0
    0.3196   -1.3265   -1.0406 N   0  0  0  0  0  0  0  0  0  0  0  0
   -1.4427   -2.5731   -0.2467 N   0  0  0  0  0  0  0  0  0  0  0  0
    0.7763    2.4848   -0.0912 N   0  0  0  0  0  0  0  0  0  0  0  0
   -2.7888    1.5531   -2.5018 N   0  0  0  0  0  0  0  0  0  0  0  0
    0.0954    4.2408    2.9238 N   0  0  0  0  0  0  0  0  0  0  0  0
    1.4755   -1.0217   -1.8464 C   0  0  1  0  0  0  0  0  0  0  0  0
    2.4498    0.9696   -0.8910 C   0  0  1  0  0  0  0  0  0  0  0  0
    1.6253    0.4829   -2.0799 C   0  0  0  0  0  0  0  0  0  0  0  0
    2.7748   -1.4053   -1.1439 C   0  0  0  0  0  0  0  0  0  0  0  0
   -2.3306   -3.7083   -0.1286 C   0  0  0  0  0  0  0  0  0  0  0  0
   -3.7497   -3.2621    0.2394 C   0  0  0  0  0  0  0  0  0  0  0  0
   -1.7899   -4.7279    0.8796 C   0  0  0  0  0  0  0  0  0  0  0  0
   -3.8526   -2.7725    1.6840 C   0  0  0  0  0  0  0  0  0  0  0  0
   -1.8962   -4.2360    2.3230 C   0  0  0  0  0  0  0  0  0  0  0  0
   -3.3192   -3.8082    2.6689 C   0  0  0  0  0  0  0  0  0  0  0  0
    1.5738    1.4046    0.2456 C   0  0  0  0  0  0  0  0  0  0  0  0
   -0.3686   -2.5348   -1.1317 C   0  0  0  0  0  0  0  0  0  0  0  0
    4.3425   -0.0516    0.3428 C   0  0  0  0  0  0  0  0  0  0  0  0
   -0.1737    3.0807    0.8204 C   0  0  2  0  0  0  0  0  0  0  0  0
    5.1613   -1.2620    0.5542 C   0  0  0  0  0  0  0  0  0  0  0  0
   -1.3526    3.7325    0.0867 C   0  0  0  0  0  0  0  0  0  0  0  0
   -2.1238    2.7650   -0.7651 C   0  0  0  0  0  0  0  0  0  0  0  0
    0.5818    4.1172    1.6393 C   0  0  0  0  0  0  0  0  0  0  0  0
    6.4584   -1.3783    0.2228 C   0  0  0  0  0  0  0  0  0  0  0  0
   -3.2414    1.9829   -0.3600 C   0  0  0  0  0  0  0  0  0  0  0  0
   -1.8695    2.4789   -2.0866 C   0  0  0  0  0  0  0  0  0  0  0  0
   -3.6392    1.2317   -1.4681 C   0  0  0  0  0  0  0  0  0  0  0  0
    7.1740   -0.2149   -0.4143 C   0  0  0  0  0  0  0  0  0  0  0  0
    7.3238   -2.5916    0.4220 C   0  0  0  0  0  0  0  0  0  0  0  0
   -3.9549    1.8415    0.8468 C   0  0  0  0  0  0  0  0  0  0  0  0
   -4.7193    0.3427   -1.4295 C   0  0  0  0  0  0  0  0  0  0  0  0
   -5.0375    0.9559    0.9002 C   0  0  0  0  0  0  0  0  0  0  0  0
   -5.4121    0.2190   -0.2217 C   0  0  0  0  0  0  0  0  0  0  0  0
    1.3765   -1.5593   -2.7957 H   0  0  0  0  0  0  0  0  0  0  0  0
    3.1177    1.7965   -1.1581 H   0  0  0  0  0  0  0  0  0  0  0  0
    0.6657    0.9857   -2.2185 H   0  0  0  0  0  0  0  0  0  0  0  0
    2.2126    0.6355   -2.9949 H   0  0  0  0  0  0  0  0  0  0  0  0
    3.5479   -1.6748   -1.8726 H   0  0  0  0  0  0  0  0  0  0  0  0
    2.6678   -2.2222   -0.4235 H   0  0  0  0  0  0  0  0  0  0  0  0
   -2.3698   -4.1918   -1.1127 H   0  0  0  0  0  0  0  0  0  0  0  0
   -4.0865   -2.4746   -0.4424 H   0  0  0  0  0  0  0  0  0  0  0  0
   -4.4344   -4.1094    0.1065 H   0  0  0  0  0  0  0  0  0  0  0  0
   -0.7447   -4.9733    0.6565 H   0  0  0  0  0  0  0  0  0  0  0  0
   -2.3610   -5.6601    0.7832 H   0  0  0  0  0  0  0  0  0  0  0  0
    0.0196   -0.6576   -0.3383 H   0  0  0  0  0  0  0  0  0  0  0  0
   -3.2991   -1.8338    1.8035 H   0  0  0  0  0  0  0  0  0  0  0  0
   -4.8999   -2.5506    1.9194 H   0  0  0  0  0  0  0  0  0  0  0  0
   -1.5761   -5.0315    3.0055 H   0  0  0  0  0  0  0  0  0  0  0  0
   -1.2125   -3.3924    2.4776 H   0  0  0  0  0  0  0  0  0  0  0  0
   -3.3447   -3.3986    3.6849 H   0  0  0  0  0  0  0  0  0  0  0  0
   -3.9750   -4.6876    2.6630 H   0  0  0  0  0  0  0  0  0  0  0  0
   -1.5634   -1.7904    0.3885 H   0  0  0  0  0  0  0  0  0  0  0  0
    0.9237    2.9433   -0.9860 H   0  0  0  0  0  0  0  0  0  0  0  0
   -0.5398    2.2904    1.4882 H   0  0  0  0  0  0  0  0  0  0  0  0
    4.6428   -2.1117    0.9896 H   0  0  0  0  0  0  0  0  0  0  0  0
   -0.9882    4.5509   -0.5497 H   0  0  0  0  0  0  0  0  0  0  0  0
   -2.0287    4.2016    0.8128 H   0  0  0  0  0  0  0  0  0  0  0  0
   -1.1195    2.8510   -2.7706 H   0  0  0  0  0  0  0  0  0  0  0  0
   -2.8365    1.1616   -3.4324 H   0  0  0  0  0  0  0  0  0  0  0  0
    7.8595    0.2431    0.3065 H   0  0  0  0  0  0  0  0  0  0  0  0
    6.5153    0.5648   -0.8052 H   0  0  0  0  0  0  0  0  0  0  0  0
    7.7653   -0.5646   -1.2685 H   0  0  0  0  0  0  0  0  0  0  0  0
    7.6914   -2.9629   -0.5398 H   0  0  0  0  0  0  0  0  0  0  0  0
    6.7673   -3.4022    0.9040 H   0  0  0  0  0  0  0  0  0  0  0  0
    8.1813   -2.3492    1.0577 H   0  0  0  0  0  0  0  0  0  0  0  0
   -0.6771    3.6814    3.2706 H   0  0  0  0  0  0  0  0  0  0  0  0
    0.5011    4.9075    3.5721 H   0  0  0  0  0  0  0  0  0  0  0  0
   -3.6748    2.4066    1.7311 H   0  0  0  0  0  0  0  0  0  0  0  0
   -5.0105   -0.2328   -2.3017 H   0  0  0  0  0  0  0  0  0  0  0  0
   -5.5903    0.8409    1.8288 H   0  0  0  0  0  0  0  0  0  0  0  0
   -6.2546   -0.4648   -0.1573 H   0  0  0  0  0  0  0  0  0  0  0  0
  1 21  2  0  0  0  0
  2 22  2  0  0  0  0
  3 23  2  0  0  0  0
  4 28  2  0  0  0  0
  5 12  1  0  0  0  0
  5 14  1  0  0  0  0
  5 23  1  0  0  0  0
  6 11  1  0  0  0  0
  6 22  1  0  0  0  0
  6 50  1  0  0  0  0
  7 15  1  0  0  0  0
  7 22  1  0  0  0  0
  7 57  1  0  0  0  0
  8 21  1  0  0  0  0
  8 24  1  0  0  0  0
  8 58  1  0  0  0  0
  9 31  1  0  0  0  0
  9 32  1  0  0  0  0
  9 64  1  0  0  0  0
 10 28  1  0  0  0  0
 10 71  1  0  0  0  0
 10 72  1  0  0  0  0
 11 13  1  0  0  0  0
 11 14  1  0  0  0  0
 11 39  1  0  0  0  0
 12 13  1  0  0  0  0
 12 21  1  0  0  0  0
 12 40  1  0  0  0  0
 13 41  1  0  0  0  0
 13 42  1  0  0  0  0
 14 43  1  0  0  0  0
 14 44  1  0  0  0  0
 15 16  1  0  0  0  0
 15 17  1  0  0  0  0
 15 45  1  0  0  0  0
 16 18  1  0  0  0  0
 16 46  1  0  0  0  0
 16 47  1  0  0  0  0
 17 19  1  0  0  0  0
 17 48  1  0  0  0  0
 17 49  1  0  0  0  0
 18 20  1  0  0  0  0
 18 51  1  0  0  0  0
 18 52  1  0  0  0  0
 19 20  1  0  0  0  0
 19 53  1  0  0  0  0
 19 54  1  0  0  0  0
 20 55  1  0  0  0  0
 20 56  1  0  0  0  0
 23 25  1  0  0  0  0
 24 26  1  0  0  0  0
 24 28  1  0  0  0  0
 24 59  1  0  0  0  0
 25 29  2  0  0  0  0
 25 60  1  0  0  0  0
 26 27  1  0  0  0  0
 26 61  1  0  0  0  0
 26 62  1  0  0  0  0
 27 30  1  0  0  0  0
 27 31  2  0  0  0  0
 29 33  1  0  0  0  0
 29 34  1  0  0  0  0
 30 32  1  0  0  0  0
 30 35  2  0  0  0  0
 31 63  1  0  0  0  0
 32 36  2  0  0  0  0
 33 65  1  0  0  0  0
 33 66  1  0  0  0  0
 33 67  1  0  0  0  0
 34 68  1  0  0  0  0
 34 69  1  0  0  0  0
 34 70  1  0  0  0  0
 35 37  1  0  0  0  0
 35 73  1  0  0  0  0
 36 38  1  0  0  0  0
 36 74  1  0  0  0  0
 37 38  2  0  0  0  0
 37 75  1  0  0  0  0
 38 76  1  0  0  0  0
M  END
> <PUBCHEM_COMPOUND_CID>
11882028

> <PUBCHEM_CONFORMER_RMSD>
1.2

> <PUBCHEM_CONFORMER_DIVERSEORDER>
1
34
29
121
17
106
54
23
53
76
26
42
50
46
114
40
35
63
103
4
2
82
62
117
77
24
9
94
89
67
75
88
110
18
113
25
93
48
96
37
27
80
21
112
12
71
44
61
102
119
13
69
5
51
86
81
107
14
90
3
52
72
38
120
65
111
6
15
84
99
66
10
109
43
105
39
98
22
41
55
87
73
30
58
115
59
116
31
16
57
104
100
33
70
83
47
95
108
91
74
118
64
36
101
60
97
79
20
45
56
68
78
49
19
8
32
85
92
28
7
11

> <PUBCHEM_MMFF94_PARTIAL_CHARGES>
43
1 -0.57
10 -0.8
11 0.3
12 0.36
14 0.3
15 0.3
2 -0.57
21 0.57
22 0.69
23 0.62
24 0.36
25 -0.14
26 0.18
27 -0.18
28 0.57
29 -0.28
3 -0.57
31 -0.3
32 -0.15
33 0.14
34 0.14
35 -0.15
36 -0.15
37 -0.15
38 -0.15
4 -0.57
5 -0.66
50 0.37
57 0.37
58 0.37
6 -0.73
60 0.15
63 0.15
64 0.27
7 -0.73
71 0.37
72 0.37
73 0.15
74 0.15
75 0.15
76 0.15
8 -0.73
9 0.03

> <PUBCHEM_EFFECTIVE_ROTOR_COUNT>
14.2

> <PUBCHEM_PHARMACOPHORE_FEATURES>
15
1 1 acceptor
1 10 donor
1 2 acceptor
1 3 acceptor
1 4 acceptor
1 6 donor
1 7 donor
1 8 donor
1 9 cation
1 9 donor
3 29 33 34 hydrophobe
5 5 11 12 13 14 rings
5 9 27 30 31 32 rings
6 15 16 17 18 19 20 rings
6 30 32 35 36 37 38 rings

> <PUBCHEM_HEAVY_ATOM_COUNT>
38

> <PUBCHEM_ATOM_DEF_STEREO_COUNT>
3

> <PUBCHEM_ATOM_UDEF_STEREO_COUNT>
0

> <PUBCHEM_BOND_DEF_STEREO_COUNT>
0

> <PUBCHEM_BOND_UDEF_STEREO_COUNT>
0

> <PUBCHEM_ISOTOPIC_ATOM_COUNT>
0

> <PUBCHEM_COMPONENT_COUNT>
1

> <PUBCHEM_CACTVS_TAUTO_COUNT>
12

> <PUBCHEM_CONFORMER_ID>
00B54E2C00000001

> <PUBCHEM_MMFF94_ENERGY>
69.7385

> <PUBCHEM_FEATURE_SELFOVERLAP>
76.266

> <PUBCHEM_SHAPE_FINGERPRINT>
10032420 55 18122313858215435645
10119406 146 18125162633236148590
11756154 5 18410003330575320872
12128747 34 18337107861407013990
12422481 6 17403733844994320001
12788726 201 17985529071501906392
13383668 90 16154837804212758726
13402501 40 18413387623049516599
13947930 73 18261116304636508643
13965767 371 17120036750935784691
14725015 67 18336543919843018011
14918310 93 12268960318944047263
15351339 4 18048300172851342035
17627616 140 17971177150304048123
19611394 137 18340477946693247840
20764821 26 18270965781622531117
21796203 349 18199491967713374049
21857420 4 12090155508946788706
35225 105 17896857989843989815
392239 28 18129941170092480580
42626532 9 17462017757807282507
57527295 17 17692779651227358941

> <PUBCHEM_SHAPE_MULTIPOLES>
728.66
12.66
6.99
2.28
21.18
1.84
-0.36
6.22
-1.04
-5.71
-4.53
-1.45
-0.28
2.7

> <PUBCHEM_SHAPE_SELFOVERLAP>
1539.041

> <PUBCHEM_SHAPE_VOLUME>
407.2

> <PUBCHEM_COORDINATE_TYPE>
2
5
10

$$$$
