11912182
  -OEChem-12032416253D

 62 66  0     1  0  0  0  0  0999 V2000
    0.4271   -3.6471    1.1364 O   0  0  0  0  0  0  0  0  0  0  0  0
   -0.7250   -0.9597    2.2260 O   0  0  0  0  0  0  0  0  0  0  0  0
    4.2288   -1.5970    0.9897 O   0  0  0  0  0  0  0  0  0  0  0  0
    9.0056    2.1273   -1.3922 O   0  0  0  0  0  0  0  0  0  0  0  0
   -7.0637    3.6730    1.2714 O   0  0  0  0  0  0  0  0  0  0  0  0
   -1.9101   -2.7899   -0.7023 N   0  0  0  0  0  0  0  0  0  0  0  0
    2.2538   -0.4951    1.4698 N   0  0  0  0  0  0  0  0  0  0  0  0
    4.0145    0.7116    0.6214 N   0  0  0  0  0  0  0  0  0  0  0  0
   -3.4613   -1.0627   -0.7605 N   0  0  0  0  0  0  0  0  0  0  0  0
   -2.9245   -2.3285   -2.7396 N   0  0  0  0  0  0  0  0  0  0  0  0
   -0.6177   -1.5216    0.9071 C   0  0  1  0  0  0  0  0  0  0  0  0
    0.7010   -2.2672    0.8418 C   0  0  1  0  0  0  0  0  0  0  0  0
   -1.6602   -2.5966    0.7093 C   0  0  2  0  0  0  0  0  0  0  0  0
    1.5286   -1.6484    1.9451 C   0  0  2  0  0  0  0  0  0  0  0  0
   -0.9881   -3.8241    1.2964 C   0  0  0  0  0  0  0  0  0  0  0  0
    0.4719   -1.2537    2.9615 C   0  0  0  0  0  0  0  0  0  0  0  0
   -2.8041   -2.0270   -1.4326 C   0  0  0  0  0  0  0  0  0  0  0  0
    3.5774   -0.5554    1.0177 C   0  0  0  0  0  0  0  0  0  0  0  0
   -4.3246   -0.3389   -1.5028 C   0  0  0  0  0  0  0  0  0  0  0  0
    5.2826    1.0711    0.1083 C   0  0  0  0  0  0  0  0  0  0  0  0
   -3.8044   -1.5657   -3.4211 C   0  0  0  0  0  0  0  0  0  0  0  0
   -4.5393   -0.5471   -2.8499 C   0  0  0  0  0  0  0  0  0  0  0  0
   -5.0301    0.6964   -0.7862 C   0  0  0  0  0  0  0  0  0  0  0  0
    5.5449    2.3970   -0.2370 C   0  0  0  0  0  0  0  0  0  0  0  0
    6.2713    0.1003   -0.0513 C   0  0  0  0  0  0  0  0  0  0  0  0
   -6.4234    0.6731   -0.7220 C   0  0  0  0  0  0  0  0  0  0  0  0
   -4.3202    1.7205   -0.1594 C   0  0  0  0  0  0  0  0  0  0  0  0
    6.7958    2.7519   -0.7419 C   0  0  0  0  0  0  0  0  0  0  0  0
    7.5222    0.4550   -0.5562 C   0  0  0  0  0  0  0  0  0  0  0  0
    7.7844    1.7807   -0.9016 C   0  0  0  0  0  0  0  0  0  0  0  0
   -7.1067    1.6738   -0.0311 C   0  0  0  0  0  0  0  0  0  0  0  0
   -5.0034    2.7213    0.5314 C   0  0  0  0  0  0  0  0  0  0  0  0
   -6.3966    2.6979    0.5956 C   0  0  0  0  0  0  0  0  0  0  0  0
    9.9700    1.0847   -1.5298 C   0  0  0  0  0  0  0  0  0  0  0  0
   -6.2763    4.6901    1.8889 C   0  0  0  0  0  0  0  0  0  0  0  0
   -0.6704   -0.6911    0.1960 H   0  0  0  0  0  0  0  0  0  0  0  0
    1.1662   -2.2291   -0.1485 H   0  0  0  0  0  0  0  0  0  0  0  0
   -2.5960   -2.4092    1.2483 H   0  0  0  0  0  0  0  0  0  0  0  0
    2.2408   -2.3536    2.3867 H   0  0  0  0  0  0  0  0  0  0  0  0
   -1.2906   -4.7650    0.8261 H   0  0  0  0  0  0  0  0  0  0  0  0
   -1.1845   -3.9002    2.3716 H   0  0  0  0  0  0  0  0  0  0  0  0
    0.2432   -2.0886    3.6330 H   0  0  0  0  0  0  0  0  0  0  0  0
    0.7458   -0.3868    3.5706 H   0  0  0  0  0  0  0  0  0  0  0  0
   -1.3740   -3.4824   -1.2130 H   0  0  0  0  0  0  0  0  0  0  0  0
    1.7608    0.3901    1.3985 H   0  0  0  0  0  0  0  0  0  0  0  0
    3.3468    1.4733    0.7102 H   0  0  0  0  0  0  0  0  0  0  0  0
   -3.9045   -1.8030   -4.4749 H   0  0  0  0  0  0  0  0  0  0  0  0
   -5.2309    0.0424   -3.4389 H   0  0  0  0  0  0  0  0  0  0  0  0
    4.7835    3.1633   -0.1172 H   0  0  0  0  0  0  0  0  0  0  0  0
    6.1430   -0.9446    0.1936 H   0  0  0  0  0  0  0  0  0  0  0  0
   -6.9959   -0.1191   -1.1989 H   0  0  0  0  0  0  0  0  0  0  0  0
   -3.2339    1.7562   -0.2017 H   0  0  0  0  0  0  0  0  0  0  0  0
    6.9945    3.7862   -1.0087 H   0  0  0  0  0  0  0  0  0  0  0  0
    8.2449   -0.3479   -0.6548 H   0  0  0  0  0  0  0  0  0  0  0  0
   -8.1920    1.6496    0.0168 H   0  0  0  0  0  0  0  0  0  0  0  0
   -4.3905    3.4868    0.9947 H   0  0  0  0  0  0  0  0  0  0  0  0
   10.2330    0.6492   -0.5598 H   0  0  0  0  0  0  0  0  0  0  0  0
    9.6436    0.3270   -2.2504 H   0  0  0  0  0  0  0  0  0  0  0  0
   10.8809    1.5383   -1.9339 H   0  0  0  0  0  0  0  0  0  0  0  0
   -5.6280    4.2784    2.6699 H   0  0  0  0  0  0  0  0  0  0  0  0
   -5.7164    5.2709    1.1481 H   0  0  0  0  0  0  0  0  0  0  0  0
   -6.9688    5.3815    2.3801 H   0  0  0  0  0  0  0  0  0  0  0  0
  1 12  1  0  0  0  0
  1 15  1  0  0  0  0
  2 11  1  0  0  0  0
  2 16  1  0  0  0  0
  3 18  2  0  0  0  0
  4 30  1  0  0  0  0
  4 34  1  0  0  0  0
  5 33  1  0  0  0  0
  5 35  1  0  0  0  0
  6 13  1  0  0  0  0
  6 17  1  0  0  0  0
  6 44  1  0  0  0  0
  7 14  1  0  0  0  0
  7 18  1  0  0  0  0
  7 45  1  0  0  0  0
  8 18  1  0  0  0  0
  8 20  1  0  0  0  0
  8 46  1  0  0  0  0
  9 17  1  0  0  0  0
  9 19  2  0  0  0  0
 10 17  2  0  0  0  0
 10 21  1  0  0  0  0
 11 12  1  0  0  0  0
 11 13  1  0  0  0  0
 11 36  1  0  0  0  0
 12 14  1  0  0  0  0
 12 37  1  0  0  0  0
 13 15  1  0  0  0  0
 13 38  1  0  0  0  0
 14 16  1  0  0  0  0
 14 39  1  0  0  0  0
 15 40  1  0  0  0  0
 15 41  1  0  0  0  0
 16 42  1  0  0  0  0
 16 43  1  0  0  0  0
 19 22  1  0  0  0  0
 19 23  1  0  0  0  0
 20 24  2  0  0  0  0
 20 25  1  0  0  0  0
 21 22  2  0  0  0  0
 21 47  1  0  0  0  0
 22 48  1  0  0  0  0
 23 26  2  0  0  0  0
 23 27  1  0  0  0  0
 24 28  1  0  0  0  0
 24 49  1  0  0  0  0
 25 29  2  0  0  0  0
 25 50  1  0  0  0  0
 26 31  1  0  0  0  0
 26 51  1  0  0  0  0
 27 32  2  0  0  0  0
 27 52  1  0  0  0  0
 28 30  2  0  0  0  0
 28 53  1  0  0  0  0
 29 30  1  0  0  0  0
 29 54  1  0  0  0  0
 31 33  2  0  0  0  0
 31 55  1  0  0  0  0
 32 33  1  0  0  0  0
 32 56  1  0  0  0  0
 34 57  1  0  0  0  0
 34 58  1  0  0  0  0
 34 59  1  0  0  0  0
 35 60  1  0  0  0  0
 35 61  1  0  0  0  0
 35 62  1  0  0  0  0
M  END
> <PUBCHEM_COMPOUND_CID>
11912182

> <PUBCHEM_CONFORMER_RMSD>
1

> <PUBCHEM_CONFORMER_DIVERSEORDER>
1
33
131
102
130
143
96
239
171
91
244
126
80
238
183
125
17
30
42
120
110
40
243
186
65
214
232
241
101
44
98
107
176
70
34
151
49
212
182
150
47
181
138
133
13
88
46
230
45
236
222
217
189
228
38
106
245
14
136
75
206
112
55
54
200
29
59
225
233
159
116
174
64
37
226
195
149
154
119
9
109
177
128
188
234
180
196
27
153
114
105
240
58
99
139
202
135
211
28
158
32
81
157
224
193
145
95
129
178
209
123
56
163
141
19
223
218
142
144
100
216
192
156
74
190
51
26
219
36
20
197
140
160
213
118
191
204
168
10
242
104
215
15
170
124
18
76
43
63
198
52
8
164
62
161
22
16
175
205
53
86
221
21
108
201
31
235
84
12
39
82
229
41
152
137
172
203
147
71
167
24
166
87
210
179
92
155
73
148
227
111
66
127
89
79
115
97
69
23
57
61
187
162
90
117
25
11
199
78
68
165
35
194
220
113
94
83
4
93
7
231
184
6
72
85
134
5
169
122
50
208
207
60
237
132
121
146
48
77
103
185
2
173
3
67

> <PUBCHEM_MMFF94_PARTIAL_CHARGES>
47
1 -0.56
10 -0.62
11 0.28
12 0.28
13 0.37
14 0.3
15 0.28
16 0.28
17 0.72
18 0.69
19 0.31
2 -0.56
20 0.12
21 0.16
22 -0.15
24 -0.15
25 -0.15
26 -0.15
27 -0.15
28 -0.15
29 -0.15
3 -0.57
30 0.08
31 -0.15
32 -0.15
33 0.08
34 0.28
35 0.28
4 -0.36
44 0.4
45 0.37
46 0.37
47 0.15
48 0.15
49 0.15
5 -0.36
50 0.15
51 0.15
52 0.15
53 0.15
54 0.15
55 0.15
56 0.15
6 -0.87
7 -0.73
8 -0.55
9 -0.62

> <PUBCHEM_EFFECTIVE_ROTOR_COUNT>
10.2

> <PUBCHEM_PHARMACOPHORE_FEATURES>
15
1 1 acceptor
1 2 acceptor
1 3 acceptor
1 4 acceptor
1 5 acceptor
1 6 donor
1 7 donor
1 8 donor
1 9 acceptor
4 6 9 10 17 cation
5 1 11 12 13 15 rings
5 2 11 12 14 16 rings
6 20 24 25 28 29 30 rings
6 23 26 27 31 32 33 rings
6 9 10 17 19 21 22 rings

> <PUBCHEM_HEAVY_ATOM_COUNT>
35

> <PUBCHEM_ATOM_DEF_STEREO_COUNT>
4

> <PUBCHEM_ATOM_UDEF_STEREO_COUNT>
0

> <PUBCHEM_BOND_DEF_STEREO_COUNT>
0

> <PUBCHEM_BOND_UDEF_STEREO_COUNT>
0

> <PUBCHEM_ISOTOPIC_ATOM_COUNT>
0

> <PUBCHEM_COMPONENT_COUNT>
1

> <PUBCHEM_CACTVS_TAUTO_COUNT>
9

> <PUBCHEM_CONFORMER_ID>
00B5C3F600000001

> <PUBCHEM_MMFF94_ENERGY>
125.7862

> <PUBCHEM_FEATURE_SELFOVERLAP>
76.883

> <PUBCHEM_SHAPE_FINGERPRINT>
10369192 42 18187649132682290435
10794284 68 18272930571191491623
10920273 25 18336555949207891153
10930396 42 14923943466845339077
11273773 42 18408601470187305893
11374522 72 18049434852442406765
11410812 94 17988922289245814472
1200032 147 18040435486705697898
12013929 29 18409168792818685796
13165053 182 18046357593694075520
13383665 225 17631445676258118829
13627167 48 18188195525425412292
13782708 43 12823029651077787022
14150022 121 17532102755418825131
14664723 55 18408323293460811013
14765038 42 18260266343303796908
14840074 17 18187635870033932805
14950920 106 11169903983866735846
15064981 194 17824837864937280446
15131766 46 18042105623446414605
15350500 16 11169920507043461641
15357212 105 18128822950394070275
15510800 12 13686295815977537934
15685185 35 18187652452570684260
16120349 67 18413111658231250387
16991971 28 17341778435930155191
16992727 255 18130503041971992960
16993427 108 10954040190553677153
17852330 134 18341058420187245678
17899979 129 18335422336289013938
19304152 47 15358242840806073974
19438510 23 18260830410260107082
21033650 10 18131058377112214355
21136928 129 17822588191480904036
21223535 225 18342169007834115952
21585480 29 9223236252192018516
21772528 278 18040722463129455857
21774942 28 18341325674463792400
21792965 184 11170209657190293896
23569914 152 17344080563600226190
24771750 20 17273977935686348519
32027 91 12319158677060598247
3552219 110 18264472028122940687
3610482 184 18272075102992917607
38570 142 18410289190529342499
397830 11 11530750506316005042
3986486 107 15195003792071789121
4258327 124 18189594109281141647
4408954 87 15574724569171851129
4516262 110 18262790775536946975
474113 269 9799691485309232873
50677037 204 18261942059397435836
508180 173 17988640848016699080
57634706 229 18114471127415444322
5911458 16 18410856534150210345
5937810 71 17604153761504422116
6695519 79 16660926557148421169
6703917 75 18410294718590654659

> <PUBCHEM_SHAPE_MULTIPOLES>
666.03
26.07
4.89
2.66
46.56
1.43
-0.96
33.71
-11.14
-6.71
2.23
-2.79
-1.49
-6.82

> <PUBCHEM_SHAPE_SELFOVERLAP>
1452.238

> <PUBCHEM_SHAPE_VOLUME>
360.7

> <PUBCHEM_COORDINATE_TYPE>
2
5
10

$$$$
