40777854
  -OEChem-12032416173D

 53 56  0     1  0  0  0  0  0999 V2000
   -2.5831    1.0138    0.9264 O   0  0  0  0  0  0  0  0  0  0  0  0
   -4.7917    2.3056   -0.7191 O   0  0  0  0  0  0  0  0  0  0  0  0
   -5.3945   -0.3765   -0.8238 O   0  0  0  0  0  0  0  0  0  0  0  0
   -0.2221    2.1239    1.0056 O   0  0  0  0  0  0  0  0  0  0  0  0
   -0.5846   -0.8277    2.1913 O   0  0  0  0  0  0  0  0  0  0  0  0
    1.2017    1.2686   -0.6339 N   0  0  0  0  0  0  0  0  0  0  0  0
   -2.2046   -1.7980    0.8431 N   0  0  0  0  0  0  0  0  0  0  0  0
   -2.5008    1.7632   -0.3076 C   0  0  2  0  0  0  0  0  0  0  0  0
   -3.7500    1.4111   -1.1080 C   0  0  1  0  0  0  0  0  0  0  0  0
   -4.0518    0.0091   -0.6206 C   0  0  1  0  0  0  0  0  0  0  0  0
   -3.7070    0.1188    0.8551 C   0  0  1  0  0  0  0  0  0  0  0  0
   -1.2104    1.3638   -1.0101 C   0  0  0  0  0  0  0  0  0  0  0  0
   -3.3419   -1.2118    1.4886 C   0  0  0  0  0  0  0  0  0  0  0  0
   -0.0303    1.6273   -0.1045 C   0  0  0  0  0  0  0  0  0  0  0  0
    1.4291    0.6724   -1.9672 C   0  0  0  0  0  0  0  0  0  0  0  0
    2.9352    0.4370   -2.1234 C   0  0  0  0  0  0  0  0  0  0  0  0
    2.4502    1.4116    0.0069 C   0  0  0  0  0  0  0  0  0  0  0  0
    3.4701    0.9432   -0.8240 C   0  0  0  0  0  0  0  0  0  0  0  0
    2.7417    1.9229    1.2630 C   0  0  0  0  0  0  0  0  0  0  0  0
    4.7974    0.9734   -0.4236 C   0  0  0  0  0  0  0  0  0  0  0  0
   -0.8960   -1.5556    1.2522 C   0  0  0  0  0  0  0  0  0  0  0  0
    4.0779    1.9576    1.6746 C   0  0  0  0  0  0  0  0  0  0  0  0
    5.0989    1.4862    0.8377 C   0  0  0  0  0  0  0  0  0  0  0  0
    0.1733   -2.2184    0.4621 C   0  0  0  0  0  0  0  0  0  0  0  0
    1.3977   -2.5176    1.0595 C   0  0  0  0  0  0  0  0  0  0  0  0
   -0.0468   -2.5405   -0.8772 C   0  0  0  0  0  0  0  0  0  0  0  0
    2.4023   -3.1393    0.3176 C   0  0  0  0  0  0  0  0  0  0  0  0
    0.9578   -3.1622   -1.6191 C   0  0  0  0  0  0  0  0  0  0  0  0
    2.1822   -3.4617   -1.0215 C   0  0  0  0  0  0  0  0  0  0  0  0
   -2.4785    2.8270   -0.0422 H   0  0  0  0  0  0  0  0  0  0  0  0
   -3.6346    1.4803   -2.1934 H   0  0  0  0  0  0  0  0  0  0  0  0
   -3.4046   -0.7035   -1.1430 H   0  0  0  0  0  0  0  0  0  0  0  0
   -4.5346    0.5649    1.4206 H   0  0  0  0  0  0  0  0  0  0  0  0
   -1.0964    1.9395   -1.9344 H   0  0  0  0  0  0  0  0  0  0  0  0
   -1.2236    0.2980   -1.2547 H   0  0  0  0  0  0  0  0  0  0  0  0
   -4.1727   -1.9209    1.4156 H   0  0  0  0  0  0  0  0  0  0  0  0
   -3.1036   -1.0667    2.5481 H   0  0  0  0  0  0  0  0  0  0  0  0
    1.0635    1.3730   -2.7270 H   0  0  0  0  0  0  0  0  0  0  0  0
    0.8567   -0.2500   -2.0703 H   0  0  0  0  0  0  0  0  0  0  0  0
   -4.5390    3.1947   -1.0212 H   0  0  0  0  0  0  0  0  0  0  0  0
   -5.5786   -0.3022   -1.7757 H   0  0  0  0  0  0  0  0  0  0  0  0
    3.3379    1.0036   -2.9686 H   0  0  0  0  0  0  0  0  0  0  0  0
    3.1569   -0.6260   -2.2558 H   0  0  0  0  0  0  0  0  0  0  0  0
   -2.3928   -2.4541    0.0925 H   0  0  0  0  0  0  0  0  0  0  0  0
    1.9787    2.2946    1.9356 H   0  0  0  0  0  0  0  0  0  0  0  0
    5.5864    0.6075   -1.0720 H   0  0  0  0  0  0  0  0  0  0  0  0
    4.3286    2.3540    2.6550 H   0  0  0  0  0  0  0  0  0  0  0  0
    6.1310    1.5209    1.1753 H   0  0  0  0  0  0  0  0  0  0  0  0
    1.5870   -2.2762    2.1021 H   0  0  0  0  0  0  0  0  0  0  0  0
   -0.9740   -2.2987   -1.3879 H   0  0  0  0  0  0  0  0  0  0  0  0
    3.3562   -3.3712    0.7822 H   0  0  0  0  0  0  0  0  0  0  0  0
    0.7901   -3.4057   -2.6641 H   0  0  0  0  0  0  0  0  0  0  0  0
    2.9654   -3.9429   -1.5999 H   0  0  0  0  0  0  0  0  0  0  0  0
  1  8  1  0  0  0  0
  1 11  1  0  0  0  0
  2  9  1  0  0  0  0
  2 40  1  0  0  0  0
  3 10  1  0  0  0  0
  3 41  1  0  0  0  0
  4 14  2  0  0  0  0
  5 21  2  0  0  0  0
  6 14  1  0  0  0  0
  6 15  1  0  0  0  0
  6 17  1  0  0  0  0
  7 13  1  0  0  0  0
  7 21  1  0  0  0  0
  7 44  1  0  0  0  0
  8  9  1  0  0  0  0
  8 12  1  0  0  0  0
  8 30  1  0  0  0  0
  9 10  1  0  0  0  0
  9 31  1  0  0  0  0
 10 11  1  0  0  0  0
 10 32  1  0  0  0  0
 11 13  1  0  0  0  0
 11 33  1  0  0  0  0
 12 14  1  0  0  0  0
 12 34  1  0  0  0  0
 12 35  1  0  0  0  0
 13 36  1  0  0  0  0
 13 37  1  0  0  0  0
 15 16  1  0  0  0  0
 15 38  1  0  0  0  0
 15 39  1  0  0  0  0
 16 18  1  0  0  0  0
 16 42  1  0  0  0  0
 16 43  1  0  0  0  0
 17 18  1  0  0  0  0
 17 19  2  0  0  0  0
 18 20  2  0  0  0  0
 19 22  1  0  0  0  0
 19 45  1  0  0  0  0
 20 23  1  0  0  0  0
 20 46  1  0  0  0  0
 21 24  1  0  0  0  0
 22 23  2  0  0  0  0
 22 47  1  0  0  0  0
 23 48  1  0  0  0  0
 24 25  2  0  0  0  0
 24 26  1  0  0  0  0
 25 27  1  0  0  0  0
 25 49  1  0  0  0  0
 26 28  2  0  0  0  0
 26 50  1  0  0  0  0
 27 29  2  0  0  0  0
 27 51  1  0  0  0  0
 28 29  1  0  0  0  0
 28 52  1  0  0  0  0
 29 53  1  0  0  0  0
M  END
> <PUBCHEM_COMPOUND_CID>
40777854

> <PUBCHEM_CONFORMER_RMSD>
1.2

> <PUBCHEM_CONFORMER_DIVERSEORDER>
1
155
42
139
13
55
73
41
154
87
86
147
90
88
103
101
121
6
49
130
92
146
14
117
84
126
160
71
22
68
32
3
104
134
106
37
107
91
140
46
17
131
153
127
94
136
144
62
10
76
24
145
81
12
74
80
135
43
4
150
115
148
149
157
63
114
75
96
36
78
18
54
45
56
161
138
113
26
61
53
30
2
100
47
102
29
129
128
108
133
109
79
59
111
34
119
67
23
25
142
141
27
93
116
52
60
162
89
159
124
15
85
105
120
48
33
50
5
137
83
31
158
19
151
70
51
156
57
44
66
82
98
11
58
97
20
38
132
99
35
64
65
7
123
143
28
40
122
8
110
95
9
16
69
39
125
77
112
72
21
152
118

> <PUBCHEM_MMFF94_PARTIAL_CHARGES>
41
1 -0.56
10 0.28
11 0.28
12 0.06
13 0.3
14 0.57
15 0.3
16 0.14
17 0.12
18 -0.14
19 -0.15
2 -0.68
20 -0.15
21 0.54
22 -0.15
23 -0.15
24 0.09
25 -0.15
26 -0.15
27 -0.15
28 -0.15
29 -0.15
3 -0.68
4 -0.57
40 0.4
41 0.4
44 0.37
45 0.15
46 0.15
47 0.15
48 0.15
49 0.15
5 -0.57
50 0.15
51 0.15
52 0.15
53 0.15
6 -0.48
7 -0.73
8 0.28
9 0.28

> <PUBCHEM_EFFECTIVE_ROTOR_COUNT>
8.6

> <PUBCHEM_PHARMACOPHORE_FEATURES>
12
1 1 acceptor
1 2 acceptor
1 2 donor
1 3 acceptor
1 3 donor
1 4 acceptor
1 5 acceptor
1 7 donor
5 1 8 9 10 11 rings
5 6 15 16 17 18 rings
6 17 18 19 20 22 23 rings
6 24 25 26 27 28 29 rings

> <PUBCHEM_HEAVY_ATOM_COUNT>
29

> <PUBCHEM_ATOM_DEF_STEREO_COUNT>
4

> <PUBCHEM_ATOM_UDEF_STEREO_COUNT>
0

> <PUBCHEM_BOND_DEF_STEREO_COUNT>
0

> <PUBCHEM_BOND_UDEF_STEREO_COUNT>
0

> <PUBCHEM_ISOTOPIC_ATOM_COUNT>
0

> <PUBCHEM_COMPONENT_COUNT>
1

> <PUBCHEM_CACTVS_TAUTO_COUNT>
2

> <PUBCHEM_CONFORMER_ID>
026E387E00000001

> <PUBCHEM_MMFF94_ENERGY>
85.8257

> <PUBCHEM_FEATURE_SELFOVERLAP>
61.007

> <PUBCHEM_SHAPE_FINGERPRINT>
1100329 8 17404026920308529320
11370993 70 18408600387739567472
12156800 1 17125594640206439226
12422481 6 18188470403680587338
12633257 1 17985265416508252088
12788726 201 17616528897216926502
13140716 1 17904781212261955411
133893 2 17972621904187069480
14251764 3 18272375321016737352
16752209 62 18116439330743717768
17093844 170 18115028502690991956
17980427 23 17770782308245355426
20197701 30 18339352054616333018
20567600 347 18408317787349400606
20691752 17 16878514410558359855
20905425 154 18335718112583394359
21033648 29 18200301238647606416
22182313 1 18114197297986519779
22393880 68 18343305833968376943
23419403 2 17754712971754125822
23559900 14 18335427833445966692
238 59 18342749481084897206
238918 7 18410578430912627154
3298306 158 18409727369862039684
35225 105 18124326157899272430
4093350 32 18271251509191988083
469060 322 12390687440264720191
508706 21 17822296747446749487
5265222 85 18191600851135425060
5895379 119 16840517362834515681
59755656 215 18334289886292514837
6287921 2 17843399575028795378
6669772 16 17201331183281806026
9862522 239 18335410326678940530

> <PUBCHEM_SHAPE_MULTIPOLES>
557.5
8.92
3.89
1.85
3.08
3.51
-0.04
-5.57
-0.02
-1.92
-0.23
-0.56
0.14
1.64

> <PUBCHEM_SHAPE_SELFOVERLAP>
1210.55

> <PUBCHEM_SHAPE_VOLUME>
303.7

> <PUBCHEM_COORDINATE_TYPE>
2
5
10

$$$$
