11939796
  -OEChem-12032416383D

 58 61  0     1  0  0  0  0  0999 V2000
    3.3349   -1.7542    1.8559 O   0  0  0  0  0  0  0  0  0  0  0  0
    1.4785    0.7514    1.7448 O   0  0  0  0  0  0  0  0  0  0  0  0
    6.2455    0.6995   -0.2385 O   0  0  0  0  0  0  0  0  0  0  0  0
    0.6877   -2.5817    0.4823 N   0  0  0  0  0  0  0  0  0  0  0  0
    4.0631    1.3949    0.1427 N   0  0  0  0  0  0  0  0  0  0  0  0
    5.2649    2.3064   -1.5948 N   0  0  0  0  0  0  0  0  0  0  0  0
   -1.3627   -1.5651   -0.0359 N   0  0  0  0  0  0  0  0  0  0  0  0
   -0.6279   -3.5374   -1.2094 N   0  0  0  0  0  0  0  0  0  0  0  0
   -6.1349    2.5967    0.2639 N   0  0  0  0  0  0  0  0  0  0  0  0
    1.6409   -0.3918    0.8885 C   0  0  1  0  0  0  0  0  0  0  0  0
    3.1182   -0.7326    0.8684 C   0  0  1  0  0  0  0  0  0  0  0  0
    0.9898   -1.6063    1.5069 C   0  0  2  0  0  0  0  0  0  0  0  0
    3.7979    0.5522    1.2835 C   0  0  2  0  0  0  0  0  0  0  0  0
    2.0745   -2.1322    2.4290 C   0  0  0  0  0  0  0  0  0  0  0  0
    2.7682    1.1814    2.2051 C   0  0  0  0  0  0  0  0  0  0  0  0
   -0.4686   -2.5607   -0.2771 C   0  0  0  0  0  0  0  0  0  0  0  0
    5.2804    1.4022   -0.5358 C   0  0  0  0  0  0  0  0  0  0  0  0
    6.3994    2.5135   -2.4636 C   0  0  0  0  0  0  0  0  0  0  0  0
   -2.4787   -1.5751   -0.7940 C   0  0  0  0  0  0  0  0  0  0  0  0
   -1.7665   -3.4868   -1.9315 C   0  0  0  0  0  0  0  0  0  0  0  0
   -2.7367   -2.5198   -1.7663 C   0  0  0  0  0  0  0  0  0  0  0  0
   -3.4135   -0.5094   -0.5226 C   0  0  0  0  0  0  0  0  0  0  0  0
    7.5683    1.6345   -2.0690 C   0  0  0  0  0  0  0  0  0  0  0  0
   -4.7813   -0.7084   -0.7226 C   0  0  0  0  0  0  0  0  0  0  0  0
   -2.9531    0.7257   -0.0606 C   0  0  0  0  0  0  0  0  0  0  0  0
   -5.2217    1.5547   -0.0005 C   0  0  0  0  0  0  0  0  0  0  0  0
   -5.6842    0.3224   -0.4619 C   0  0  0  0  0  0  0  0  0  0  0  0
   -3.8561    1.7564    0.2002 C   0  0  0  0  0  0  0  0  0  0  0  0
   -5.8541    3.5739    1.2969 C   0  0  0  0  0  0  0  0  0  0  0  0
   -7.3722    2.6955   -0.4842 C   0  0  0  0  0  0  0  0  0  0  0  0
    1.2563   -0.1145   -0.0982 H   0  0  0  0  0  0  0  0  0  0  0  0
    3.4530   -1.1309   -0.0948 H   0  0  0  0  0  0  0  0  0  0  0  0
    0.0964   -1.3754    2.0983 H   0  0  0  0  0  0  0  0  0  0  0  0
    4.7384    0.3804    1.8180 H   0  0  0  0  0  0  0  0  0  0  0  0
    2.0517   -3.2174    2.5696 H   0  0  0  0  0  0  0  0  0  0  0  0
    2.0127   -1.6580    3.4147 H   0  0  0  0  0  0  0  0  0  0  0  0
    2.8852    0.8151    3.2310 H   0  0  0  0  0  0  0  0  0  0  0  0
    2.8008    2.2750    2.2240 H   0  0  0  0  0  0  0  0  0  0  0  0
    1.3704   -3.2969    0.2584 H   0  0  0  0  0  0  0  0  0  0  0  0
    3.3066    1.9647   -0.2244 H   0  0  0  0  0  0  0  0  0  0  0  0
    4.4223    2.8462   -1.7659 H   0  0  0  0  0  0  0  0  0  0  0  0
    6.6705    3.5722   -2.4071 H   0  0  0  0  0  0  0  0  0  0  0  0
    6.0764    2.2978   -3.4867 H   0  0  0  0  0  0  0  0  0  0  0  0
   -1.8779   -4.2681   -2.6757 H   0  0  0  0  0  0  0  0  0  0  0  0
   -3.6164   -2.5252   -2.3970 H   0  0  0  0  0  0  0  0  0  0  0  0
    8.3918    1.8406   -2.7653 H   0  0  0  0  0  0  0  0  0  0  0  0
    7.3620    0.5655   -2.1865 H   0  0  0  0  0  0  0  0  0  0  0  0
    7.9711    1.8725   -1.0790 H   0  0  0  0  0  0  0  0  0  0  0  0
   -5.1872   -1.6605   -1.0540 H   0  0  0  0  0  0  0  0  0  0  0  0
   -1.8942    0.9203    0.0937 H   0  0  0  0  0  0  0  0  0  0  0  0
   -6.7424    0.1274   -0.6117 H   0  0  0  0  0  0  0  0  0  0  0  0
   -3.4625    2.7084    0.5450 H   0  0  0  0  0  0  0  0  0  0  0  0
   -6.7674    4.0929    1.6089 H   0  0  0  0  0  0  0  0  0  0  0  0
   -5.4385    3.1012    2.1939 H   0  0  0  0  0  0  0  0  0  0  0  0
   -5.1528    4.3321    0.9333 H   0  0  0  0  0  0  0  0  0  0  0  0
   -8.1191    1.9966   -0.0932 H   0  0  0  0  0  0  0  0  0  0  0  0
   -7.7961    3.7036   -0.4148 H   0  0  0  0  0  0  0  0  0  0  0  0
   -7.2145    2.4936   -1.5498 H   0  0  0  0  0  0  0  0  0  0  0  0
  1 11  1  0  0  0  0
  1 14  1  0  0  0  0
  2 10  1  0  0  0  0
  2 15  1  0  0  0  0
  3 17  2  0  0  0  0
  4 12  1  0  0  0  0
  4 16  1  0  0  0  0
  4 39  1  0  0  0  0
  5 13  1  0  0  0  0
  5 17  1  0  0  0  0
  5 40  1  0  0  0  0
  6 17  1  0  0  0  0
  6 18  1  0  0  0  0
  6 41  1  0  0  0  0
  7 16  1  0  0  0  0
  7 19  2  0  0  0  0
  8 16  2  0  0  0  0
  8 20  1  0  0  0  0
  9 26  1  0  0  0  0
  9 29  1  0  0  0  0
  9 30  1  0  0  0  0
 10 11  1  0  0  0  0
 10 12  1  0  0  0  0
 10 31  1  0  0  0  0
 11 13  1  0  0  0  0
 11 32  1  0  0  0  0
 12 14  1  0  0  0  0
 12 33  1  0  0  0  0
 13 15  1  0  0  0  0
 13 34  1  0  0  0  0
 14 35  1  0  0  0  0
 14 36  1  0  0  0  0
 15 37  1  0  0  0  0
 15 38  1  0  0  0  0
 18 23  1  0  0  0  0
 18 42  1  0  0  0  0
 18 43  1  0  0  0  0
 19 21  1  0  0  0  0
 19 22  1  0  0  0  0
 20 21  2  0  0  0  0
 20 44  1  0  0  0  0
 21 45  1  0  0  0  0
 22 24  2  0  0  0  0
 22 25  1  0  0  0  0
 23 46  1  0  0  0  0
 23 47  1  0  0  0  0
 23 48  1  0  0  0  0
 24 27  1  0  0  0  0
 24 49  1  0  0  0  0
 25 28  2  0  0  0  0
 25 50  1  0  0  0  0
 26 27  2  0  0  0  0
 26 28  1  0  0  0  0
 27 51  1  0  0  0  0
 28 52  1  0  0  0  0
 29 53  1  0  0  0  0
 29 54  1  0  0  0  0
 29 55  1  0  0  0  0
 30 56  1  0  0  0  0
 30 57  1  0  0  0  0
 30 58  1  0  0  0  0
M  END
> <PUBCHEM_COMPOUND_CID>
11939796

> <PUBCHEM_CONFORMER_RMSD>
1

> <PUBCHEM_CONFORMER_DIVERSEORDER>
1
6
97
26
110
76
47
43
36
54
115
49
157
149
143
102
148
25
34
170
20
52
146
89
168
14
100
130
124
133
153
156
79
10
99
21
109
71
114
95
23
48
91
131
127
163
60
123
104
112
15
69
13
111
65
94
141
105
116
128
11
164
98
4
62
137
16
77
147
32
166
121
31
138
135
18
72
44
120
19
144
59
159
67
150
78
33
51
125
40
88
162
29
140
142
85
171
5
63
158
8
90
70
113
92
75
106
17
173
117
161
145
151
101
53
172
134
108
7
87
155
12
169
152
50
24
103
154
82
107
93
80
28
39
122
9
42
132
35
86
167
118
27
96
46
119
55
30
37
136
58
66
2
160
139
83
81
74
129
57
38
84
41
61
22
165
45
126
68
3
64
73
56

> <PUBCHEM_MMFF94_PARTIAL_CHARGES>
37
1 -0.56
10 0.28
11 0.28
12 0.37
13 0.3
14 0.28
15 0.28
16 0.72
17 0.69
18 0.3
19 0.31
2 -0.56
20 0.16
21 -0.15
24 -0.15
25 -0.15
26 0.1
27 -0.15
28 -0.15
29 0.37
3 -0.57
30 0.37
39 0.4
4 -0.87
40 0.37
41 0.37
44 0.15
45 0.15
49 0.15
5 -0.73
50 0.15
51 0.15
52 0.15
6 -0.73
7 -0.62
8 -0.62
9 -0.84

> <PUBCHEM_EFFECTIVE_ROTOR_COUNT>
9.2

> <PUBCHEM_PHARMACOPHORE_FEATURES>
13
1 1 acceptor
1 2 acceptor
1 3 acceptor
1 4 donor
1 5 donor
1 6 donor
1 7 acceptor
1 9 cation
4 4 7 8 16 cation
5 1 10 11 12 14 rings
5 2 10 11 13 15 rings
6 22 24 25 26 27 28 rings
6 7 8 16 19 20 21 rings

> <PUBCHEM_HEAVY_ATOM_COUNT>
30

> <PUBCHEM_ATOM_DEF_STEREO_COUNT>
4

> <PUBCHEM_ATOM_UDEF_STEREO_COUNT>
0

> <PUBCHEM_BOND_DEF_STEREO_COUNT>
0

> <PUBCHEM_BOND_UDEF_STEREO_COUNT>
0

> <PUBCHEM_ISOTOPIC_ATOM_COUNT>
0

> <PUBCHEM_COMPONENT_COUNT>
1

> <PUBCHEM_CACTVS_TAUTO_COUNT>
9

> <PUBCHEM_CONFORMER_ID>
00B62FD400000001

> <PUBCHEM_MMFF94_ENERGY>
105.3208

> <PUBCHEM_FEATURE_SELFOVERLAP>
66.728

> <PUBCHEM_SHAPE_FINGERPRINT>
10049733 130 16698950912069476502
10670039 82 18340479066666497934
10674148 151 16271941384369909049
10917259 128 18267291223044626448
11374522 72 18114457843852023757
11410812 94 18270688692594186492
11475781 23 18060699520677129504
1200032 147 18338809917900459129
12104220 4 18114196249793383004
12390115 104 18060701680950304963
13782708 43 11455586809247213837
13828863 39 17676491686896852327
13944108 23 17695914328295800977
14114211 68 17988366958310837483
14187579 7 17907015436901264260
1454969 45 18130489922081526855
14664723 55 18338811051682830132
14790565 3 18201990003029991313
14840074 17 17822288011182966277
15131766 46 17532078552692354677
15183329 4 17560810943900725026
15188451 53 9367355812080091654
15198563 99 17842821482028375143
15238133 3 18201140088672621858
15297060 5 18059583472744496081
15575132 122 18187639185485162469
16120349 67 18337964462357497754
16991971 28 17696741539636094511
16992727 255 18411985771774110696
16993427 108 9511178491261158397
1768 23 17967818275503936004
19304144 158 17055253466173039456
19304671 126 16558738010550410417
21033650 10 18196092364334336850
21136928 129 16372156480234875572
21315764 119 18201168710856746556
21458453 9 13552044411044037460
21756936 100 18114747160932133386
21772528 278 17241055413243646336
21774942 28 18264772250605874876
22393880 68 17773591814342540366
245318 6 18410859815921787005
24771750 20 17988086561244883615
3552219 110 17825101765240827255
3610482 184 18262524826724852894
38570 142 18113624508257780758
4058900 60 18340772525267083611
4258327 124 17895182342882064559
439807 62 10375572838409621217
4408954 87 13190626091546897984
444735 79 11169912814567051996
508180 173 18130790096285385856
5252454 2 18338218419315329681
57634706 229 17241624995022361072
57724786 102 18187640263210554354
5911458 16 18260553333161317164
6058803 2 18191557896266339962
6523845 18 17703524280500507875
7808743 9 18341886411817953031

> <PUBCHEM_SHAPE_MULTIPOLES>
569.89
18.29
4.38
2.23
4.83
1.03
-0.09
-23.82
8.22
-3.7
1.33
3.82
0.2
-5.39

> <PUBCHEM_SHAPE_SELFOVERLAP>
1221.303

> <PUBCHEM_SHAPE_VOLUME>
315.5

> <PUBCHEM_COORDINATE_TYPE>
2
5
10

$$$$
