26761949
  -OEChem-12032416313D

 46 50  0     1  0  0  0  0  0999 V2000
   -5.4070    0.6351   -2.8188 Cl  0  0  0  0  0  0  0  0  0  0  0  0
    7.4138   -1.9790   -1.3899 F   0  0  0  0  0  0  0  0  0  0  0  0
   -7.2138   -1.3310   -1.5317 F   0  0  0  0  0  0  0  0  0  0  0  0
   -0.7679   -0.9073    2.5220 O   0  0  0  0  0  0  0  0  0  0  0  0
    1.8626    0.3495    0.5499 N   0  0  2  0  0  0  0  0  0  0  0  0
    1.1798    3.4198   -1.4438 N   0  0  0  0  0  0  0  0  0  0  0  0
    0.6275    4.3174    0.5284 N   0  0  0  0  0  0  0  0  0  0  0  0
   -1.4000    0.1658    0.6604 N   0  0  0  0  0  0  0  0  0  0  0  0
   -2.0522   -1.3769    2.2189 N   0  0  0  0  0  0  0  0  0  0  0  0
    0.9123    0.6653    1.6596 C   0  0  1  0  0  0  0  0  0  0  0  0
    0.8290    2.2103    1.9305 C   0  0  0  0  0  0  0  0  0  0  0  0
    1.5527    0.9835   -0.7490 C   0  0  0  0  0  0  0  0  0  0  0  0
    1.2324    2.4107   -0.5313 C   0  0  0  0  0  0  0  0  0  0  0  0
    0.8856    2.9833    0.6673 C   0  0  0  0  0  0  0  0  0  0  0  0
    2.1467   -1.0729    0.3960 C   0  0  0  0  0  0  0  0  0  0  0  0
   -0.4600   -0.0030    1.5558 C   0  0  0  0  0  0  0  0  0  0  0  0
    3.5540   -1.3151   -0.0812 C   0  0  0  0  0  0  0  0  0  0  0  0
    0.8114    4.5500   -0.7566 C   0  0  0  0  0  0  0  0  0  0  0  0
    3.8257   -1.3796   -1.4480 C   0  0  0  0  0  0  0  0  0  0  0  0
    4.5861   -1.4754    0.8433 C   0  0  0  0  0  0  0  0  0  0  0  0
   -2.3567   -0.6978    1.1090 C   0  0  0  0  0  0  0  0  0  0  0  0
    5.1294   -1.6044   -1.8900 C   0  0  0  0  0  0  0  0  0  0  0  0
    5.8897   -1.7001    0.4013 C   0  0  0  0  0  0  0  0  0  0  0  0
   -3.6074   -0.8577    0.4252 C   0  0  0  0  0  0  0  0  0  0  0  0
    6.1614   -1.7647   -0.9653 C   0  0  0  0  0  0  0  0  0  0  0  0
   -3.8709   -0.1207   -0.7294 C   0  0  0  0  0  0  0  0  0  0  0  0
   -4.5603   -1.7509    0.9152 C   0  0  0  0  0  0  0  0  0  0  0  0
   -5.0872   -0.2768   -1.3940 C   0  0  0  0  0  0  0  0  0  0  0  0
   -5.7766   -1.9071    0.2505 C   0  0  0  0  0  0  0  0  0  0  0  0
   -6.0400   -1.1701   -0.9042 C   0  0  0  0  0  0  0  0  0  0  0  0
    1.3624    0.2554    2.5765 H   0  0  0  0  0  0  0  0  0  0  0  0
    1.6899    2.5086    2.5423 H   0  0  0  0  0  0  0  0  0  0  0  0
   -0.0797    2.4600    2.4897 H   0  0  0  0  0  0  0  0  0  0  0  0
    0.7049    0.4903   -1.2394 H   0  0  0  0  0  0  0  0  0  0  0  0
    2.4143    0.9324   -1.4214 H   0  0  0  0  0  0  0  0  0  0  0  0
    1.4236   -1.5665   -0.2675 H   0  0  0  0  0  0  0  0  0  0  0  0
    2.0426   -1.5930    1.3585 H   0  0  0  0  0  0  0  0  0  0  0  0
    1.3695    3.3545   -2.4353 H   0  0  0  0  0  0  0  0  0  0  0  0
    0.6959    5.5039   -1.2515 H   0  0  0  0  0  0  0  0  0  0  0  0
    3.0309   -1.2697   -2.1808 H   0  0  0  0  0  0  0  0  0  0  0  0
    4.3885   -1.4250    1.9108 H   0  0  0  0  0  0  0  0  0  0  0  0
    5.3410   -1.6572   -2.9539 H   0  0  0  0  0  0  0  0  0  0  0  0
    6.6937   -1.8240    1.1207 H   0  0  0  0  0  0  0  0  0  0  0  0
   -3.1382    0.5799   -1.1247 H   0  0  0  0  0  0  0  0  0  0  0  0
   -4.3908   -2.3422    1.8115 H   0  0  0  0  0  0  0  0  0  0  0  0
   -6.5190   -2.6023    0.6314 H   0  0  0  0  0  0  0  0  0  0  0  0
  1 28  1  0  0  0  0
  2 25  1  0  0  0  0
  3 30  1  0  0  0  0
  4  9  1  0  0  0  0
  4 16  1  0  0  0  0
  5 10  1  0  0  0  0
  5 12  1  0  0  0  0
  5 15  1  0  0  0  0
  6 13  1  0  0  0  0
  6 18  1  0  0  0  0
  6 38  1  0  0  0  0
  7 14  1  0  0  0  0
  7 18  2  0  0  0  0
  8 16  2  0  0  0  0
  8 21  1  0  0  0  0
  9 21  2  0  0  0  0
 10 11  1  0  0  0  0
 10 16  1  0  0  0  0
 10 31  1  0  0  0  0
 11 14  1  0  0  0  0
 11 32  1  0  0  0  0
 11 33  1  0  0  0  0
 12 13  1  0  0  0  0
 12 34  1  0  0  0  0
 12 35  1  0  0  0  0
 13 14  2  0  0  0  0
 15 17  1  0  0  0  0
 15 36  1  0  0  0  0
 15 37  1  0  0  0  0
 17 19  2  0  0  0  0
 17 20  1  0  0  0  0
 18 39  1  0  0  0  0
 19 22  1  0  0  0  0
 19 40  1  0  0  0  0
 20 23  2  0  0  0  0
 20 41  1  0  0  0  0
 21 24  1  0  0  0  0
 22 25  2  0  0  0  0
 22 42  1  0  0  0  0
 23 25  1  0  0  0  0
 23 43  1  0  0  0  0
 24 26  2  0  0  0  0
 24 27  1  0  0  0  0
 26 28  1  0  0  0  0
 26 44  1  0  0  0  0
 27 29  2  0  0  0  0
 27 45  1  0  0  0  0
 28 30  2  0  0  0  0
 29 30  1  0  0  0  0
 29 46  1  0  0  0  0
M  END
> <PUBCHEM_COMPOUND_CID>
26761949

> <PUBCHEM_CONFORMER_RMSD>
0.8

> <PUBCHEM_CONFORMER_DIVERSEORDER>
3
35
43
36
74
62
81
65
82
83
59
27
54
77
85
28
73
25
68
67
78
75
13
41
44
80
58
66
70
46
42
37
71
15
61
79
72
40
50
45
26
60
39
86
63
38
32
51
84
1
14
53
12
24
69
16
31
52
33
17
21
48
56
9
18
76
22
4
29
49
55
10
8
47
19
57
11
34
64
23
20
2
7
6
30
5

> <PUBCHEM_MMFF94_PARTIAL_CHARGES>
39
1 -0.18
10 0.45
11 0.18
12 0.45
13 -0.33
14 0.05
15 0.41
16 0.3
17 -0.14
18 0.04
19 -0.15
2 -0.19
20 -0.15
21 0.46
22 -0.15
23 -0.15
24 0.05
25 0.19
26 -0.15
27 -0.15
28 0.18
29 -0.15
3 -0.19
30 0.19
38 0.27
39 0.15
4 -0.02
40 0.15
41 0.15
42 0.15
43 0.15
44 0.15
45 0.15
46 0.15
5 -0.81
6 0.03
7 -0.57
8 -0.57
9 -0.41

> <PUBCHEM_EFFECTIVE_ROTOR_COUNT>
4.8

> <PUBCHEM_PHARMACOPHORE_FEATURES>
9
1 5 cation
1 6 donor
3 6 7 18 cation
3 8 9 21 cation
5 4 8 9 16 21 rings
5 6 7 13 14 18 rings
6 17 19 20 22 23 25 rings
6 24 26 27 28 29 30 rings
6 5 10 11 12 13 14 rings

> <PUBCHEM_HEAVY_ATOM_COUNT>
30

> <PUBCHEM_ATOM_DEF_STEREO_COUNT>
1

> <PUBCHEM_ATOM_UDEF_STEREO_COUNT>
0

> <PUBCHEM_BOND_DEF_STEREO_COUNT>
0

> <PUBCHEM_BOND_UDEF_STEREO_COUNT>
0

> <PUBCHEM_ISOTOPIC_ATOM_COUNT>
0

> <PUBCHEM_COMPONENT_COUNT>
1

> <PUBCHEM_CACTVS_TAUTO_COUNT>
2

> <PUBCHEM_CONFORMER_ID>
01985ADD00000003

> <PUBCHEM_MMFF94_ENERGY>
62.6336

> <PUBCHEM_FEATURE_SELFOVERLAP>
45.774

> <PUBCHEM_SHAPE_FINGERPRINT>
10670039 82 16515675625111612751
10815517 723 18126295147086730577
10930396 42 18265026147496604834
11115154 58 18411982421588830817
11135609 99 16916778634781141558
11297750 10 17027723854875436114
11331351 85 17773334364727147081
11386260 185 18264472032111887845
11445158 3 17611795349351502067
11497681 19 17702677549537091062
11720765 8 18410574032449800548
11763715 3 17202509765373597976
1200032 147 14563088053733879405
12166972 35 18060418045067208047
12422481 6 11959731568429805957
12623949 98 16486428581484811622
12788726 201 18042403522182776050
13540713 4 17679312029254847523
13726171 33 14201944672067004151
13782708 43 17629776582825676934
13911987 19 18115892787930027030
14068700 675 17988926656187811563
14347329 18 16153419537492096007
14508225 48 18336273362282946176
14556957 393 18044403594200899412
15021287 119 18269012959114937345
15183329 4 16950001409163879190
15297060 5 16660366966023351179
15419009 47 17985825931131183837
15775530 1 17464279466057564210
16992727 255 17532649018865275021
17686467 74 18341897382018794370
1813 80 18201452354348803534
18222031 100 18341899584735942074
18336668 15 17561083596640252031
18365409 1 18050291362545528341
19784866 240 17846501439428565419
20775438 99 17833251392374935807
2132832 1 18131361812193263353
21365058 113 18408606980651686365
21424621 283 12468646036385054230
21756936 100 10737582664765820874
23536364 44 18188485779363040621
23559900 14 18263923396835700387
249057 3 18342177731524156137
340366 18 18270394009590642615
376196 1 17395002601509579097
38570 142 13623531242456373299
4017518 198 17768255966619332280
4066623 53 17967243209062963244
4339292 15 18129103330444849534
437795 70 18268415842597085981
437815 12 18409446977317133007
4403749 210 10519402096767811475
44802255 64 16745960935268696860
46194498 28 18189897702642918197
4756261 7 13469531505123936110
5081480 168 18335409188860988141
508180 173 18186795856077782089
5281201 14 18262512715011867249
5969126 39 18340210679193681404
613672 6 18339096920859483594
6823239 73 17677040343711030261

> <PUBCHEM_SHAPE_MULTIPOLES>
573.93
15.63
4.03
2.24
3.88
6.92
0.16
-17.43
10.33
-3.12
0.49
1.22
-0.11
1.74

> <PUBCHEM_SHAPE_SELFOVERLAP>
1265.32

> <PUBCHEM_SHAPE_VOLUME>
311

> <PUBCHEM_COORDINATE_TYPE>
2
5
10

$$$$
