40781599
  -OEChem-12032416173D

 47 48  0     1  0  0  0  0  0999 V2000
   -2.5655   -0.4481   -0.8811 O   0  0  0  0  0  0  0  0  0  0  0  0
   -4.4362    1.5455    1.4483 O   0  0  0  0  0  0  0  0  0  0  0  0
   -4.9005   -1.1198    0.9494 O   0  0  0  0  0  0  0  0  0  0  0  0
   -0.6293   -2.3420   -1.4628 O   0  0  0  0  0  0  0  0  0  0  0  0
   -0.1751    0.7419   -2.2431 O   0  0  0  0  0  0  0  0  0  0  0  0
   -1.1519    1.9907   -0.5491 N   0  0  0  0  0  0  0  0  0  0  0  0
    1.0150   -2.2429    0.1766 N   0  0  0  0  0  0  0  0  0  0  0  0
   -3.3681    0.7461    0.9869 C   0  0  1  0  0  0  0  0  0  0  0  0
   -3.5630   -0.7311    1.2597 C   0  0  2  0  0  0  0  0  0  0  0  0
   -3.2555    0.7637   -0.5283 C   0  0  1  0  0  0  0  0  0  0  0  0
   -2.6346   -1.3687    0.2319 C   0  0  2  0  0  0  0  0  0  0  0  0
   -2.4900    1.9616   -1.0612 C   0  0  0  0  0  0  0  0  0  0  0  0
   -1.2193   -1.5754    0.7541 C   0  0  0  0  0  0  0  0  0  0  0  0
   -0.2737   -2.0928   -0.3140 C   0  0  0  0  0  0  0  0  0  0  0  0
   -0.0842    1.3688   -1.1908 C   0  0  0  0  0  0  0  0  0  0  0  0
    1.2362    1.4689   -0.5174 C   0  0  0  0  0  0  0  0  0  0  0  0
    2.1150   -2.7220   -0.6286 C   0  0  0  0  0  0  0  0  0  0  0  0
    2.4096    1.4066   -1.2690 C   0  0  0  0  0  0  0  0  0  0  0  0
    1.3023    1.6246    0.8672 C   0  0  0  0  0  0  0  0  0  0  0  0
    3.6490    1.4998   -0.6362 C   0  0  0  0  0  0  0  0  0  0  0  0
    2.5417    1.7178    1.5002 C   0  0  0  0  0  0  0  0  0  0  0  0
    3.7150    1.6554    0.7485 C   0  0  0  0  0  0  0  0  0  0  0  0
    3.3523   -2.7781    0.1494 C   0  0  0  0  0  0  0  0  0  0  0  0
    5.0408    1.7549    1.4248 C   0  0  0  0  0  0  0  0  0  0  0  0
    4.3700   -2.8253    0.7846 C   0  0  0  0  0  0  0  0  0  0  0  0
   -2.4470    1.0860    1.4724 H   0  0  0  0  0  0  0  0  0  0  0  0
   -3.3627   -1.0133    2.2972 H   0  0  0  0  0  0  0  0  0  0  0  0
   -4.2473    0.7402   -0.9969 H   0  0  0  0  0  0  0  0  0  0  0  0
   -3.0355   -2.3130   -0.1542 H   0  0  0  0  0  0  0  0  0  0  0  0
   -2.9801    2.8978   -0.7752 H   0  0  0  0  0  0  0  0  0  0  0  0
   -2.4427    1.9166   -2.1548 H   0  0  0  0  0  0  0  0  0  0  0  0
   -1.2288   -2.2909    1.5846 H   0  0  0  0  0  0  0  0  0  0  0  0
   -0.8036   -0.6332    1.1269 H   0  0  0  0  0  0  0  0  0  0  0  0
   -4.5281    1.3870    2.4033 H   0  0  0  0  0  0  0  0  0  0  0  0
   -4.9677   -2.0777    1.1030 H   0  0  0  0  0  0  0  0  0  0  0  0
   -0.9955    2.5389    0.2900 H   0  0  0  0  0  0  0  0  0  0  0  0
    1.1958   -2.0007    1.1473 H   0  0  0  0  0  0  0  0  0  0  0  0
    1.8460   -3.7117   -1.0126 H   0  0  0  0  0  0  0  0  0  0  0  0
    2.2206   -2.0513   -1.4878 H   0  0  0  0  0  0  0  0  0  0  0  0
    2.3780    1.2891   -2.3489 H   0  0  0  0  0  0  0  0  0  0  0  0
    0.4144    1.6490    1.4918 H   0  0  0  0  0  0  0  0  0  0  0  0
    4.5562    1.4517   -1.2326 H   0  0  0  0  0  0  0  0  0  0  0  0
    2.5806    1.8339    2.5800 H   0  0  0  0  0  0  0  0  0  0  0  0
    5.3659    2.7993    1.4625 H   0  0  0  0  0  0  0  0  0  0  0  0
    4.9936    1.3651    2.4473 H   0  0  0  0  0  0  0  0  0  0  0  0
    5.7989    1.1692    0.8940 H   0  0  0  0  0  0  0  0  0  0  0  0
    5.2726   -2.8656    1.3482 H   0  0  0  0  0  0  0  0  0  0  0  0
  1 10  1  0  0  0  0
  1 11  1  0  0  0  0
  2  8  1  0  0  0  0
  2 34  1  0  0  0  0
  3  9  1  0  0  0  0
  3 35  1  0  0  0  0
  4 14  2  0  0  0  0
  5 15  2  0  0  0  0
  6 12  1  0  0  0  0
  6 15  1  0  0  0  0
  6 36  1  0  0  0  0
  7 14  1  0  0  0  0
  7 17  1  0  0  0  0
  7 37  1  0  0  0  0
  8  9  1  0  0  0  0
  8 10  1  0  0  0  0
  8 26  1  0  0  0  0
  9 11  1  0  0  0  0
  9 27  1  0  0  0  0
 10 12  1  0  0  0  0
 10 28  1  0  0  0  0
 11 13  1  0  0  0  0
 11 29  1  0  0  0  0
 12 30  1  0  0  0  0
 12 31  1  0  0  0  0
 13 14  1  0  0  0  0
 13 32  1  0  0  0  0
 13 33  1  0  0  0  0
 15 16  1  0  0  0  0
 16 18  2  0  0  0  0
 16 19  1  0  0  0  0
 17 23  1  0  0  0  0
 17 38  1  0  0  0  0
 17 39  1  0  0  0  0
 18 20  1  0  0  0  0
 18 40  1  0  0  0  0
 19 21  2  0  0  0  0
 19 41  1  0  0  0  0
 20 22  2  0  0  0  0
 20 42  1  0  0  0  0
 21 22  1  0  0  0  0
 21 43  1  0  0  0  0
 22 24  1  0  0  0  0
 23 25  3  0  0  0  0
 24 44  1  0  0  0  0
 24 45  1  0  0  0  0
 24 46  1  0  0  0  0
 25 47  1  0  0  0  0
M  END
> <PUBCHEM_COMPOUND_CID>
40781599

> <PUBCHEM_CONFORMER_RMSD>
1.2

> <PUBCHEM_CONFORMER_DIVERSEORDER>
2
5
51
15
63
70
72
43
12
66
27
65
50
4
62
53
52
18
32
38
68
55
49
47
56
41
58
16
60
22
54
31
21
37
71
3
25
35
67
33
64
34
28
1
7
73
39
14
61
57
45
40
36
44
59
23
48
19
24
69
46
11
20
6
9
26
30
29
10
42
13
17
8

> <PUBCHEM_MMFF94_PARTIAL_CHARGES>
34
1 -0.56
10 0.28
11 0.28
12 0.3
13 0.06
14 0.57
15 0.54
16 0.09
17 0.5
18 -0.15
19 -0.15
2 -0.68
20 -0.15
21 -0.15
22 -0.14
23 -0.2
24 0.14
25 -0.18
3 -0.68
34 0.4
35 0.4
36 0.37
37 0.37
4 -0.57
40 0.15
41 0.15
42 0.15
43 0.15
47 0.18
5 -0.57
6 -0.73
7 -0.73
8 0.28
9 0.28

> <PUBCHEM_EFFECTIVE_ROTOR_COUNT>
9

> <PUBCHEM_PHARMACOPHORE_FEATURES>
12
1 1 acceptor
1 2 acceptor
1 2 donor
1 25 hydrophobe
1 3 acceptor
1 3 donor
1 4 acceptor
1 5 acceptor
1 6 donor
1 7 donor
5 1 8 9 10 11 rings
6 16 18 19 20 21 22 rings

> <PUBCHEM_HEAVY_ATOM_COUNT>
25

> <PUBCHEM_ATOM_DEF_STEREO_COUNT>
4

> <PUBCHEM_ATOM_UDEF_STEREO_COUNT>
0

> <PUBCHEM_BOND_DEF_STEREO_COUNT>
0

> <PUBCHEM_BOND_UDEF_STEREO_COUNT>
0

> <PUBCHEM_ISOTOPIC_ATOM_COUNT>
0

> <PUBCHEM_COMPONENT_COUNT>
1

> <PUBCHEM_CACTVS_TAUTO_COUNT>
10

> <PUBCHEM_CONFORMER_ID>
026E471F00000002

> <PUBCHEM_MMFF94_ENERGY>
53.6125

> <PUBCHEM_FEATURE_SELFOVERLAP>
60.914

> <PUBCHEM_SHAPE_FINGERPRINT>
1100329 8 17621045252723469488
11112241 14 17270556358410482624
12422481 6 18190994895500103594
12633257 1 18268716000132472339
13140716 1 18266179435433979233
13583140 156 18200859764557735492
14178342 30 18195532720772587999
15420108 30 18201998880268813278
1813 80 16950567692021984908
20691752 17 17313391101786921691
20905425 154 18409741654949809207
22182313 1 18114737149215342165
23419403 2 18190735341155568182
23559900 14 18261393291356882524
465052 167 17170404167797940259
5104073 3 18339660966435196027
5265222 85 18193282025963289020
56638632 33 16014634575313219122
5895379 119 16268578948936920409
9862522 239 18262782056046850204

> <PUBCHEM_SHAPE_MULTIPOLES>
475.18
8.8
3.66
1.59
0.11
2.43
-0.15
-0.75
4.26
-3.41
-0.09
0.12
-0.56
0.63

> <PUBCHEM_SHAPE_SELFOVERLAP>
988.226

> <PUBCHEM_SHAPE_VOLUME>
269.5

> <PUBCHEM_COORDINATE_TYPE>
2
5
10

$$$$
