11884130
  -OEChem-12032416373D

 56 59  0     1  0  0  0  0  0999 V2000
   -4.3150   -0.9549    1.1072 O   0  0  0  0  0  0  0  0  0  0  0  0
   -3.4955   -2.1860   -1.5791 O   0  0  0  0  0  0  0  0  0  0  0  0
   -6.3548   -0.2446   -0.6367 O   0  0  0  0  0  0  0  0  0  0  0  0
    0.5940   -1.9628   -0.1057 O   0  0  0  0  0  0  0  0  0  0  0  0
   -6.2150    1.9583   -1.2715 O   0  0  0  0  0  0  0  0  0  0  0  0
    6.4265    0.6066    1.2135 O   0  0  0  0  0  0  0  0  0  0  0  0
   -1.1891   -1.0139    1.0194 N   0  0  0  0  0  0  0  0  0  0  0  0
    0.9222   -0.1914    1.3993 N   0  0  0  0  0  0  0  0  0  0  0  0
   -8.0955    1.1334   -0.1921 N   0  0  0  0  0  0  0  0  0  0  0  0
   -2.8584   -1.1927   -0.7488 C   0  0  1  0  0  0  0  0  0  0  0  0
   -3.9638   -0.3482   -0.1476 C   0  0  1  0  0  0  0  0  0  0  0  0
   -2.2146   -1.8525    0.4483 C   0  0  2  0  0  0  0  0  0  0  0  0
   -5.0705   -0.4867   -1.1652 C   0  0  1  0  0  0  0  0  0  0  0  0
   -3.3892   -2.0134    1.3978 C   0  0  0  0  0  0  0  0  0  0  0  0
   -4.9046   -1.9178   -1.6244 C   0  0  0  0  0  0  0  0  0  0  0  0
    0.1678   -1.1329    0.6937 C   0  0  0  0  0  0  0  0  0  0  0  0
   -6.8367    1.0399   -0.7474 C   0  0  0  0  0  0  0  0  0  0  0  0
    2.3210    0.0124    1.3511 C   0  0  0  0  0  0  0  0  0  0  0  0
   -8.8663    2.3547   -0.1534 C   0  0  0  0  0  0  0  0  0  0  0  0
    3.1135   -0.7826    0.5230 C   0  0  0  0  0  0  0  0  0  0  0  0
    2.9083    1.0076    2.1324 C   0  0  0  0  0  0  0  0  0  0  0  0
   -8.4159    3.2597    0.9746 C   0  0  0  0  0  0  0  0  0  0  0  0
    4.4931   -0.5824    0.4762 C   0  0  0  0  0  0  0  0  0  0  0  0
    4.2878    1.2078    2.0857 C   0  0  0  0  0  0  0  0  0  0  0  0
    5.0803    0.4128    1.2575 C   0  0  0  0  0  0  0  0  0  0  0  0
    7.0339    0.6262   -0.0309 C   0  0  0  0  0  0  0  0  0  0  0  0
    6.4590    1.3487   -1.0764 C   0  0  0  0  0  0  0  0  0  0  0  0
    8.2200   -0.0777   -0.2392 C   0  0  0  0  0  0  0  0  0  0  0  0
    7.0701    1.3676   -2.3301 C   0  0  0  0  0  0  0  0  0  0  0  0
    8.8312   -0.0588   -1.4929 C   0  0  0  0  0  0  0  0  0  0  0  0
    8.2562    0.6638   -2.5383 C   0  0  0  0  0  0  0  0  0  0  0  0
   -2.1717   -0.6216   -1.3817 H   0  0  0  0  0  0  0  0  0  0  0  0
   -3.6772    0.6882    0.0529 H   0  0  0  0  0  0  0  0  0  0  0  0
   -1.7784   -2.8286    0.2102 H   0  0  0  0  0  0  0  0  0  0  0  0
   -4.8556    0.1595   -2.0277 H   0  0  0  0  0  0  0  0  0  0  0  0
   -3.9128   -2.9584    1.2153 H   0  0  0  0  0  0  0  0  0  0  0  0
   -3.1119   -1.9726    2.4557 H   0  0  0  0  0  0  0  0  0  0  0  0
   -5.4212   -2.6279   -0.9690 H   0  0  0  0  0  0  0  0  0  0  0  0
   -5.2757   -2.0743   -2.6418 H   0  0  0  0  0  0  0  0  0  0  0  0
   -1.4707   -0.2592    1.6378 H   0  0  0  0  0  0  0  0  0  0  0  0
    0.4117    0.4252    2.0265 H   0  0  0  0  0  0  0  0  0  0  0  0
   -8.4997    0.2970    0.2180 H   0  0  0  0  0  0  0  0  0  0  0  0
   -9.9171    2.0772   -0.0243 H   0  0  0  0  0  0  0  0  0  0  0  0
   -8.7582    2.8694   -1.1139 H   0  0  0  0  0  0  0  0  0  0  0  0
    2.7336   -1.5752   -0.1059 H   0  0  0  0  0  0  0  0  0  0  0  0
    2.3023    1.6339    2.7821 H   0  0  0  0  0  0  0  0  0  0  0  0
   -9.0257    4.1679    1.0018 H   0  0  0  0  0  0  0  0  0  0  0  0
   -7.3687    3.5557    0.8539 H   0  0  0  0  0  0  0  0  0  0  0  0
   -8.5089    2.7550    1.9421 H   0  0  0  0  0  0  0  0  0  0  0  0
    5.0895   -1.2316   -0.1597 H   0  0  0  0  0  0  0  0  0  0  0  0
    4.7398    1.9844    2.6966 H   0  0  0  0  0  0  0  0  0  0  0  0
    5.5474    1.9236   -0.9361 H   0  0  0  0  0  0  0  0  0  0  0  0
    8.6718   -0.6426    0.5715 H   0  0  0  0  0  0  0  0  0  0  0  0
    6.6253    1.9343   -3.1430 H   0  0  0  0  0  0  0  0  0  0  0  0
    9.7548   -0.6066   -1.6551 H   0  0  0  0  0  0  0  0  0  0  0  0
    8.7328    0.6795   -3.5141 H   0  0  0  0  0  0  0  0  0  0  0  0
  1 11  1  0  0  0  0
  1 14  1  0  0  0  0
  2 10  1  0  0  0  0
  2 15  1  0  0  0  0
  3 13  1  0  0  0  0
  3 17  1  0  0  0  0
  4 16  2  0  0  0  0
  5 17  2  0  0  0  0
  6 25  1  0  0  0  0
  6 26  1  0  0  0  0
  7 12  1  0  0  0  0
  7 16  1  0  0  0  0
  7 40  1  0  0  0  0
  8 16  1  0  0  0  0
  8 18  1  0  0  0  0
  8 41  1  0  0  0  0
  9 17  1  0  0  0  0
  9 19  1  0  0  0  0
  9 42  1  0  0  0  0
 10 11  1  0  0  0  0
 10 12  1  0  0  0  0
 10 32  1  0  0  0  0
 11 13  1  0  0  0  0
 11 33  1  0  0  0  0
 12 14  1  0  0  0  0
 12 34  1  0  0  0  0
 13 15  1  0  0  0  0
 13 35  1  0  0  0  0
 14 36  1  0  0  0  0
 14 37  1  0  0  0  0
 15 38  1  0  0  0  0
 15 39  1  0  0  0  0
 18 20  2  0  0  0  0
 18 21  1  0  0  0  0
 19 22  1  0  0  0  0
 19 43  1  0  0  0  0
 19 44  1  0  0  0  0
 20 23  1  0  0  0  0
 20 45  1  0  0  0  0
 21 24  2  0  0  0  0
 21 46  1  0  0  0  0
 22 47  1  0  0  0  0
 22 48  1  0  0  0  0
 22 49  1  0  0  0  0
 23 25  2  0  0  0  0
 23 50  1  0  0  0  0
 24 25  1  0  0  0  0
 24 51  1  0  0  0  0
 26 27  2  0  0  0  0
 26 28  1  0  0  0  0
 27 29  1  0  0  0  0
 27 52  1  0  0  0  0
 28 30  2  0  0  0  0
 28 53  1  0  0  0  0
 29 31  2  0  0  0  0
 29 54  1  0  0  0  0
 30 31  1  0  0  0  0
 30 55  1  0  0  0  0
 31 56  1  0  0  0  0
M  END
> <PUBCHEM_COMPOUND_CID>
11884130

> <PUBCHEM_CONFORMER_RMSD>
1

> <PUBCHEM_CONFORMER_DIVERSEORDER>
1
83
55
34
63
37
80
24
67
81
25
18
20
78
82
73
45
3
22
61
48
41
75
43
33
36
38
54
85
57
21
79
35
56
59
47
84
62
53
68
49
72
11
5
30
40
29
77
26
46
60
27
71
51
31
70
4
10
64
13
12
9
69
17
14
15
23
44
16
7
50
2
66
32
19
58
42
74
6
76
8
65
28
39
52

> <PUBCHEM_MMFF94_PARTIAL_CHARGES>
42
1 -0.56
10 0.28
11 0.28
12 0.3
13 0.28
14 0.28
15 0.28
16 0.69
17 0.78
18 0.12
19 0.3
2 -0.56
20 -0.15
21 -0.15
23 -0.15
24 -0.15
25 0.08
26 0.08
27 -0.15
28 -0.15
29 -0.15
3 -0.43
30 -0.15
31 -0.15
4 -0.57
40 0.37
41 0.37
42 0.37
45 0.15
46 0.15
5 -0.57
50 0.15
51 0.15
52 0.15
53 0.15
54 0.15
55 0.15
56 0.15
6 -0.17
7 -0.73
8 -0.55
9 -0.73

> <PUBCHEM_EFFECTIVE_ROTOR_COUNT>
11.2

> <PUBCHEM_PHARMACOPHORE_FEATURES>
12
1 1 acceptor
1 2 acceptor
1 4 acceptor
1 5 acceptor
1 6 acceptor
1 7 donor
1 8 donor
1 9 donor
5 1 10 11 12 14 rings
5 2 10 11 13 15 rings
6 18 20 21 23 24 25 rings
6 26 27 28 29 30 31 rings

> <PUBCHEM_HEAVY_ATOM_COUNT>
31

> <PUBCHEM_ATOM_DEF_STEREO_COUNT>
4

> <PUBCHEM_ATOM_UDEF_STEREO_COUNT>
0

> <PUBCHEM_BOND_DEF_STEREO_COUNT>
0

> <PUBCHEM_BOND_UDEF_STEREO_COUNT>
0

> <PUBCHEM_ISOTOPIC_ATOM_COUNT>
0

> <PUBCHEM_COMPONENT_COUNT>
1

> <PUBCHEM_CACTVS_TAUTO_COUNT>
6

> <PUBCHEM_CONFORMER_ID>
00B5566200000001

> <PUBCHEM_MMFF94_ENERGY>
89.3521

> <PUBCHEM_FEATURE_SELFOVERLAP>
61.667

> <PUBCHEM_SHAPE_FINGERPRINT>
10 15 13767919131143825086
10533779 47 13912585171348248912
10577160 183 13182751321234252551
11135926 11 16630536141398276919
11181472 205 18337113363290742224
11386260 185 17131825504124364720
11408170 132 18059856117252517664
11409948 41 15266786512096476308
11456790 92 14057263335004541292
12013929 112 18343028757222917388
13668630 136 16916786331446749526
13782708 43 12751246930129472898
14359421 15 11239413997523100253
14461889 52 11458421311136242176
14664723 55 18343303669680087673
14849402 71 14851893607843253350
14919807 6 17988646254979785829
14931854 50 17561365075700998555
15064981 194 18341055224398708961
15152005 77 14548196281792047652
15183329 4 17775568654687088098
15188451 53 11815897868384049282
15198563 99 17917162615414479408
15347590 135 12468633932729487748
15350500 16 11527943448439979025
15461852 350 18337390547727733479
15519825 34 7997963575067985957
15706992 2 17313395508222809685
1577012 14 17822003224686009090
16992610 120 18341898472502715525
1754908 1 12324238356203355133
1768 124 13326587242015225284
1768 4 15647055988606816372
18603816 31 10807922766229327909
190975 80 8502654818264471026
19303781 99 8934412131657111985
2026 5 14261366729944083100
20609170 45 17842000983849287542
21095123 293 17894630327493794805
21130935 74 11386907966621840576
212700 22 15410901743612355822
21585482 111 18268143155545890833
21781055 127 18334287635845768730
22149856 69 12108057817658059934
23524908 199 16773515477842851685
23559900 14 16987713670765847058
3711267 37 18334299777001863052
4339292 15 9799403392215303937
4353968 344 14404913452853696641
44880568 143 18200867504104289752
474113 269 13973971973997451532
504579 68 17346880048251754362
5104073 3 12036539036252741774
5109719 28 14201401603912437662
54076057 127 14923934619138896240
5718773 13 12031786972223900823
5758199 1 14634866479424545530
5911458 16 17530686502637488556
5937810 71 17822296824772284164
59682541 35 13479136795569897629
6081469 158 15841551872966859073
6201320 221 13613969829375748372
9689198 14 16732986444746558554
9953998 17 14923947847643305513
9962374 69 8213843874198254363

> <PUBCHEM_SHAPE_MULTIPOLES>
587.81
31.67
2.38
2.14
1.19
0.73
0.34
22.02
14.75
6.79
0.02
-3.52
0.39
-1.27

> <PUBCHEM_SHAPE_SELFOVERLAP>
1261.122

> <PUBCHEM_SHAPE_VOLUME>
323.9

> <PUBCHEM_COORDINATE_TYPE>
2
5
10

$$$$
