40777175
  -OEChem-12032416173D

 60 64  0     1  0  0  0  0  0999 V2000
   -4.2014   -1.0991    1.1368 O   0  0  0  0  0  0  0  0  0  0  0  0
   -0.1999   -3.2121    0.6372 N   0  0  2  0  0  0  0  0  0  0  0  0
    4.2510   -1.5606    0.3061 N   0  0  0  0  0  0  0  0  0  0  0  0
   -2.2073   -0.0121    0.7105 N   0  0  0  0  0  0  0  0  0  0  0  0
    4.9863   -0.4424    0.4293 N   0  0  0  0  0  0  0  0  0  0  0  0
   -4.1635    1.0328    0.1548 N   0  0  0  0  0  0  0  0  0  0  0  0
    0.9324   -2.2894   -1.5191 C   0  0  2  0  0  0  0  0  0  0  0  0
    1.9805   -2.4594   -0.3847 C   0  0  2  0  0  0  0  0  0  0  0  0
   -0.9653   -2.0473    0.1198 C   0  0  2  0  0  0  0  0  0  0  0  0
   -0.2002   -1.3610   -1.0322 C   0  0  0  0  0  0  0  0  0  0  0  0
    0.3070   -3.6802   -1.7596 C   0  0  0  0  0  0  0  0  0  0  0  0
    1.2033   -2.8157    0.9147 C   0  0  0  0  0  0  0  0  0  0  0  0
   -0.1865   -4.2524   -0.4192 C   0  0  0  0  0  0  0  0  0  0  0  0
    2.9900   -1.3417   -0.1656 C   0  0  0  0  0  0  0  0  0  0  0  0
   -1.3387   -1.0577    1.2255 C   0  0  0  0  0  0  0  0  0  0  0  0
    2.8936    0.0139   -0.3644 C   0  0  0  0  0  0  0  0  0  0  0  0
    4.1518    0.5160    0.0181 C   0  0  0  0  0  0  0  0  0  0  0  0
    4.8335   -2.8317    0.6691 C   0  0  0  0  0  0  0  0  0  0  0  0
   -3.5970   -0.1192    0.7076 C   0  0  0  0  0  0  0  0  0  0  0  0
    4.5711    1.8932    0.0000 C   0  0  0  0  0  0  0  0  0  0  0  0
    3.6351    2.9093    0.1928 C   0  0  0  0  0  0  0  0  0  0  0  0
    5.9128    2.2117   -0.2101 C   0  0  0  0  0  0  0  0  0  0  0  0
   -5.5355    1.3223   -0.0304 C   0  0  0  0  0  0  0  0  0  0  0  0
    4.0406    4.2439    0.1754 C   0  0  0  0  0  0  0  0  0  0  0  0
    6.3184    3.5462   -0.2272 C   0  0  0  0  0  0  0  0  0  0  0  0
    5.3823    4.5623   -0.0346 C   0  0  0  0  0  0  0  0  0  0  0  0
   -5.9205    2.5337   -0.6050 C   0  0  0  0  0  0  0  0  0  0  0  0
   -6.5034    0.3975    0.3611 C   0  0  0  0  0  0  0  0  0  0  0  0
   -7.2733    2.8202   -0.7881 C   0  0  0  0  0  0  0  0  0  0  0  0
   -7.8562    0.6838    0.1779 C   0  0  0  0  0  0  0  0  0  0  0  0
   -8.2411    1.8953   -0.3966 C   0  0  0  0  0  0  0  0  0  0  0  0
    1.3889   -1.9012   -2.4357 H   0  0  0  0  0  0  0  0  0  0  0  0
    2.5708   -3.3445   -0.6660 H   0  0  0  0  0  0  0  0  0  0  0  0
   -1.9150   -2.4281   -0.2846 H   0  0  0  0  0  0  0  0  0  0  0  0
    0.1878   -0.3881   -0.7282 H   0  0  0  0  0  0  0  0  0  0  0  0
   -0.8942   -1.1731   -1.8615 H   0  0  0  0  0  0  0  0  0  0  0  0
    1.0426   -4.3593   -2.2061 H   0  0  0  0  0  0  0  0  0  0  0  0
   -0.5277   -3.5964   -2.4661 H   0  0  0  0  0  0  0  0  0  0  0  0
    1.7108   -3.6480    1.4201 H   0  0  0  0  0  0  0  0  0  0  0  0
    1.2295   -1.9931    1.6389 H   0  0  0  0  0  0  0  0  0  0  0  0
   -1.1913   -4.6751   -0.5418 H   0  0  0  0  0  0  0  0  0  0  0  0
    0.4486   -5.0911   -0.1068 H   0  0  0  0  0  0  0  0  0  0  0  0
   -0.4609   -0.5545    1.6429 H   0  0  0  0  0  0  0  0  0  0  0  0
   -1.8546   -1.5733    2.0437 H   0  0  0  0  0  0  0  0  0  0  0  0
    2.0506    0.5672   -0.7473 H   0  0  0  0  0  0  0  0  0  0  0  0
   -1.7776    0.8267    0.3332 H   0  0  0  0  0  0  0  0  0  0  0  0
    4.9325   -3.4372   -0.2350 H   0  0  0  0  0  0  0  0  0  0  0  0
    5.8199   -2.6666    1.1114 H   0  0  0  0  0  0  0  0  0  0  0  0
    4.1857   -3.3207    1.3998 H   0  0  0  0  0  0  0  0  0  0  0  0
   -3.5187    1.7555   -0.1550 H   0  0  0  0  0  0  0  0  0  0  0  0
    2.5844    2.6932    0.3695 H   0  0  0  0  0  0  0  0  0  0  0  0
    6.6642    1.4426   -0.3717 H   0  0  0  0  0  0  0  0  0  0  0  0
    3.3124    5.0351    0.3278 H   0  0  0  0  0  0  0  0  0  0  0  0
    7.3627    3.7947   -0.3925 H   0  0  0  0  0  0  0  0  0  0  0  0
    5.6983    5.6012   -0.0480 H   0  0  0  0  0  0  0  0  0  0  0  0
   -5.1764    3.2633   -0.9145 H   0  0  0  0  0  0  0  0  0  0  0  0
   -6.2843   -0.5599    0.8123 H   0  0  0  0  0  0  0  0  0  0  0  0
   -7.5732    3.7634   -1.2354 H   0  0  0  0  0  0  0  0  0  0  0  0
   -8.6110   -0.0355    0.4822 H   0  0  0  0  0  0  0  0  0  0  0  0
   -9.2945    2.1183   -0.5391 H   0  0  0  0  0  0  0  0  0  0  0  0
  1 19  2  0  0  0  0
  2  9  1  0  0  0  0
  2 12  1  0  0  0  0
  2 13  1  0  0  0  0
  3  5  1  0  0  0  0
  3 14  1  0  0  0  0
  3 18  1  0  0  0  0
  4 15  1  0  0  0  0
  4 19  1  0  0  0  0
  4 46  1  0  0  0  0
  5 17  2  0  0  0  0
  6 19  1  0  0  0  0
  6 23  1  0  0  0  0
  6 50  1  0  0  0  0
  7  8  1  0  0  0  0
  7 10  1  0  0  0  0
  7 11  1  0  0  0  0
  7 32  1  0  0  0  0
  8 12  1  0  0  0  0
  8 14  1  0  0  0  0
  8 33  1  0  0  0  0
  9 10  1  0  0  0  0
  9 15  1  0  0  0  0
  9 34  1  0  0  0  0
 10 35  1  0  0  0  0
 10 36  1  0  0  0  0
 11 13  1  0  0  0  0
 11 37  1  0  0  0  0
 11 38  1  0  0  0  0
 12 39  1  0  0  0  0
 12 40  1  0  0  0  0
 13 41  1  0  0  0  0
 13 42  1  0  0  0  0
 14 16  2  0  0  0  0
 15 43  1  0  0  0  0
 15 44  1  0  0  0  0
 16 17  1  0  0  0  0
 16 45  1  0  0  0  0
 17 20  1  0  0  0  0
 18 47  1  0  0  0  0
 18 48  1  0  0  0  0
 18 49  1  0  0  0  0
 20 21  2  0  0  0  0
 20 22  1  0  0  0  0
 21 24  1  0  0  0  0
 21 51  1  0  0  0  0
 22 25  2  0  0  0  0
 22 52  1  0  0  0  0
 23 27  2  0  0  0  0
 23 28  1  0  0  0  0
 24 26  2  0  0  0  0
 24 53  1  0  0  0  0
 25 26  1  0  0  0  0
 25 54  1  0  0  0  0
 26 55  1  0  0  0  0
 27 29  1  0  0  0  0
 27 56  1  0  0  0  0
 28 30  2  0  0  0  0
 28 57  1  0  0  0  0
 29 31  2  0  0  0  0
 29 58  1  0  0  0  0
 30 31  1  0  0  0  0
 30 59  1  0  0  0  0
 31 60  1  0  0  0  0
M  END
> <PUBCHEM_COMPOUND_CID>
40777175

> <PUBCHEM_CONFORMER_RMSD>
1

> <PUBCHEM_CONFORMER_DIVERSEORDER>
1
10
17
6
31
25
20
11
39
27
46
15
18
57
13
48
16
7
35
2
9
32
41
47
12
54
38
8
49
42
14
58
33
44
4
43
52
36
40
29
3
23
53
30
26
50
51
19
5
34
55
45
56
28
22
24
21
37

> <PUBCHEM_MMFF94_PARTIAL_CHARGES>
41
1 -0.57
12 0.27
13 0.27
14 -0.33
15 0.3
16 -0.15
17 0.23
18 0.26
19 0.69
2 -0.81
20 0.05
21 -0.15
22 -0.15
23 0.12
24 -0.15
25 -0.15
26 -0.15
27 -0.15
28 -0.15
29 -0.15
3 0.31
30 -0.15
31 -0.15
4 -0.73
45 0.15
46 0.37
5 -0.71
50 0.37
51 0.15
52 0.15
53 0.15
54 0.15
55 0.15
56 0.15
57 0.15
58 0.15
59 0.15
6 -0.55
60 0.15
8 0.18
9 0.27

> <PUBCHEM_EFFECTIVE_ROTOR_COUNT>
8.2

> <PUBCHEM_PHARMACOPHORE_FEATURES>
9
1 1 acceptor
1 2 cation
1 4 donor
1 5 acceptor
1 6 donor
5 3 5 14 16 17 rings
6 20 21 22 24 25 26 rings
6 23 27 28 29 30 31 rings
8 2 7 8 9 10 11 12 13 rings

> <PUBCHEM_HEAVY_ATOM_COUNT>
31

> <PUBCHEM_ATOM_DEF_STEREO_COUNT>
3

> <PUBCHEM_ATOM_UDEF_STEREO_COUNT>
0

> <PUBCHEM_BOND_DEF_STEREO_COUNT>
0

> <PUBCHEM_BOND_UDEF_STEREO_COUNT>
0

> <PUBCHEM_ISOTOPIC_ATOM_COUNT>
0

> <PUBCHEM_COMPONENT_COUNT>
1

> <PUBCHEM_CACTVS_TAUTO_COUNT>
3

> <PUBCHEM_CONFORMER_ID>
026E35D700000001

> <PUBCHEM_MMFF94_ENERGY>
81.7474

> <PUBCHEM_FEATURE_SELFOVERLAP>
45.726

> <PUBCHEM_SHAPE_FINGERPRINT>
10050765 1 18337954596829077930
10673678 19 18412547600450358737
10864689 126 18269562805208683448
10904742 38 18334015033876066657
11135609 127 18338791218341001701
11386260 185 18198906898794227942
11479125 193 18265872766432994293
11505856 67 18124305275363026399
11621639 179 18261112938099736020
12107183 9 18410003369894814442
12888983 3 17896586294761930349
12925494 130 18337670948651026536
13878862 14 18335968801519182492
14117953 113 18341896264963508084
14142895 15 18412260641570739469
14223995 32 18126277782855790672
14251764 30 9583525308612556645
14251764 75 18338794623664557076
14400156 96 17822294608431665350
14565420 104 18260825986206350627
14739800 52 17750509586414829305
15198563 99 17480297211481008983
15320295 44 18201430398840302279
15705408 1 16982958003259874055
15890870 6 18411702114584884908
15979999 66 17767694849725325790
16120349 189 18337393858693441972
19053607 189 18339913939487203952
19304152 47 17756719894133919856
20715895 44 18411418380064395570
21033648 29 17531252776504992179
21315764 268 18261671455013904517
21585482 57 18338507643151469037
21585483 110 18412262865409640233
21716022 299 14547347397767925422
21796203 349 16880999333192650770
22122407 14 18337400348299238785
23516275 100 18334856121575672053
23522609 53 17416982630171811177
23569914 2 16841886590367653640
23729417 116 16830385264670201935
2838139 119 18409727382762928295
3388396 114 16396055717377016900
345986 75 12829205568181316743
34797466 226 18200315391281563063
3534868 343 17415566411269930715
4112364 45 18041265617404601968
44880168 125 14345785055297566392
5109719 28 18410020931604702505
5219985 13 18410855507430831079
57527585 21 16844194340150162531
57634706 280 18040721342834069051
57634706 306 18334287665857953631
6036956 94 17471294427557954293
6327066 14 18340488975398902636
6371009 1 18271803467543494416
7288768 16 17823976951822975922
7970288 3 8755699159811432580
99344 41 18409445912403379921

> <PUBCHEM_SHAPE_MULTIPOLES>
607.19
20.49
6.3
1.06
35.5
1.35
0.18
27.93
0.35
-8.73
1.04
0.32
-0.78
0.72

> <PUBCHEM_SHAPE_SELFOVERLAP>
1319.676

> <PUBCHEM_SHAPE_VOLUME>
327.3

> <PUBCHEM_COORDINATE_TYPE>
2
5
10

$$$$
