75368477
  -OEChem-12032416393D

 30 31  0     1  0  0  0  0  0999 V2000
    3.2083    0.2307   -0.0050 S   0  0  0  0  0  0  0  0  0  0  0  0
   -3.2033   -1.6531    0.3336 O   0  0  0  0  0  0  0  0  0  0  0  0
    3.4880    1.5942   -0.3965 O   0  0  0  0  0  0  0  0  0  0  0  0
    4.0103   -0.8769   -0.4741 O   0  0  0  0  0  0  0  0  0  0  0  0
   -1.1860   -0.6319   -0.3049 N   0  0  0  0  0  0  0  0  0  0  0  0
    1.5599   -0.1072   -0.3318 N   0  0  2  0  0  0  0  0  0  0  0  0
   -2.9716    0.6787    0.0715 N   0  0  0  0  0  0  0  0  0  0  0  0
   -0.7404    0.7013   -0.6626 C   0  0  2  0  0  0  0  0  0  0  0  0
    0.6046    1.0055   -0.0120 C   0  0  0  0  0  0  0  0  0  0  0  0
   -1.8858    1.6024   -0.2065 C   0  0  0  0  0  0  0  0  0  0  0  0
   -0.2824   -1.7552   -0.4578 C   0  0  0  0  0  0  0  0  0  0  0  0
    1.0662   -1.4306    0.1767 C   0  0  0  0  0  0  0  0  0  0  0  0
   -2.5381   -0.6617    0.0640 C   0  0  0  0  0  0  0  0  0  0  0  0
   -4.2929    1.1381    0.4381 C   0  0  0  0  0  0  0  0  0  0  0  0
    3.1633    0.1657    1.7671 C   0  0  0  0  0  0  0  0  0  0  0  0
   -0.6503    0.7223   -1.7563 H   0  0  0  0  0  0  0  0  0  0  0  0
    0.9771    1.9588   -0.3990 H   0  0  0  0  0  0  0  0  0  0  0  0
    0.4920    1.0877    1.0748 H   0  0  0  0  0  0  0  0  0  0  0  0
   -1.6573    2.1498    0.7139 H   0  0  0  0  0  0  0  0  0  0  0  0
   -2.1876    2.3084   -0.9860 H   0  0  0  0  0  0  0  0  0  0  0  0
   -0.1679   -1.9307   -1.5335 H   0  0  0  0  0  0  0  0  0  0  0  0
   -0.7264   -2.6506   -0.0119 H   0  0  0  0  0  0  0  0  0  0  0  0
    0.9452   -1.3866    1.2646 H   0  0  0  0  0  0  0  0  0  0  0  0
    1.7772   -2.2251   -0.0695 H   0  0  0  0  0  0  0  0  0  0  0  0
   -4.2195    1.7174    1.3623 H   0  0  0  0  0  0  0  0  0  0  0  0
   -4.9602    0.2869    0.5949 H   0  0  0  0  0  0  0  0  0  0  0  0
   -4.6831    1.7692   -0.3645 H   0  0  0  0  0  0  0  0  0  0  0  0
    2.9395   -0.8464    2.1045 H   0  0  0  0  0  0  0  0  0  0  0  0
    4.1617    0.4353    2.1231 H   0  0  0  0  0  0  0  0  0  0  0  0
    2.4491    0.8907    2.1569 H   0  0  0  0  0  0  0  0  0  0  0  0
  1  3  2  0  0  0  0
  1  4  2  0  0  0  0
  1  6  1  0  0  0  0
  1 15  1  0  0  0  0
  2 13  2  0  0  0  0
  5  8  1  0  0  0  0
  5 11  1  0  0  0  0
  5 13  1  0  0  0  0
  6  9  1  0  0  0  0
  6 12  1  0  0  0  0
  7 10  1  0  0  0  0
  7 13  1  0  0  0  0
  7 14  1  0  0  0  0
  8  9  1  0  0  0  0
  8 10  1  0  0  0  0
  8 16  1  0  0  0  0
  9 17  1  0  0  0  0
  9 18  1  0  0  0  0
 10 19  1  0  0  0  0
 10 20  1  0  0  0  0
 11 12  1  0  0  0  0
 11 21  1  0  0  0  0
 11 22  1  0  0  0  0
 12 23  1  0  0  0  0
 12 24  1  0  0  0  0
 14 25  1  0  0  0  0
 14 26  1  0  0  0  0
 14 27  1  0  0  0  0
 15 28  1  0  0  0  0
 15 29  1  0  0  0  0
 15 30  1  0  0  0  0
M  END
> <PUBCHEM_COMPOUND_CID>
75368477

> <PUBCHEM_CONFORMER_RMSD>
0.6

> <PUBCHEM_CONFORMER_DIVERSEORDER>
1
3
4
5
8
6
7
2

> <PUBCHEM_MMFF94_PARTIAL_CHARGES>
15
1 1.33
10 0.3
11 0.3
12 0.36
13 0.69
14 0.3
15 0.11
2 -0.57
3 -0.65
4 -0.65
5 -0.66
6 -0.85
7 -0.66
8 0.3
9 0.36

> <PUBCHEM_EFFECTIVE_ROTOR_COUNT>
2.2

> <PUBCHEM_PHARMACOPHORE_FEATURES>
5
1 2 acceptor
1 3 acceptor
1 4 acceptor
5 5 7 8 10 13 rings
6 5 6 8 9 11 12 rings

> <PUBCHEM_HEAVY_ATOM_COUNT>
15

> <PUBCHEM_ATOM_DEF_STEREO_COUNT>
1

> <PUBCHEM_ATOM_UDEF_STEREO_COUNT>
0

> <PUBCHEM_BOND_DEF_STEREO_COUNT>
0

> <PUBCHEM_BOND_UDEF_STEREO_COUNT>
0

> <PUBCHEM_ISOTOPIC_ATOM_COUNT>
0

> <PUBCHEM_COMPONENT_COUNT>
1

> <PUBCHEM_CACTVS_TAUTO_COUNT>
1

> <PUBCHEM_CONFORMER_ID>
047E081D00000001

> <PUBCHEM_MMFF94_ENERGY>
28.0107

> <PUBCHEM_FEATURE_SELFOVERLAP>
25.487

> <PUBCHEM_SHAPE_FINGERPRINT>
10608611 8 18411980239175452652
11132069 177 18409725157974909833
11543360 7 15267046073828255789
12032990 46 18410862074604930446
12251169 10 18261108534972143385
12382932 28 18410294696687666673
12932764 1 17313095337591069812
13214271 11 18412824707281851215
13296908 3 18342176678460590030
13380535 21 18340210687166684183
13380535 76 18411137996537015511
14144814 61 18335136522708895412
14325111 11 18410576201581507292
15196674 1 18410577309498362356
15219456 202 18202290173339919350
15309172 13 18411426098252573019
15775835 57 18410577279396706985
16945 1 18261103028760630071
17846911 113 18341324522589455217
18175812 5 18412266124983089870
18186145 218 18411697664961232508
19422 9 18259986002472544130
20510252 161 18342741857259477561
20528008 55 18341046337715870797
23402539 116 18131625677872242020
23463225 33 18333448729394690676
23559900 14 18341333293239825310
2748010 2 18267585714974349839
5104073 3 18410012160600840040
53812653 166 18343861099961619545
7364860 26 18055354639176006926
81228 2 17625234774319784798
90316 7 17968082101927387757

> <PUBCHEM_SHAPE_MULTIPOLES>
279.99
7.2
1.76
0.92
0.3
0.28
-0.34
-1.46
-1.2
-0.57
0.13
0.66
-0.06
0.03

> <PUBCHEM_SHAPE_SELFOVERLAP>
558.054

> <PUBCHEM_SHAPE_VOLUME>
168.9

> <PUBCHEM_COORDINATE_TYPE>
2
5
10

$$$$
