28962073
  -OEChem-12032416253D

 59 62  0     1  0  0  0  0  0999 V2000
    8.1726   -2.9599    0.4327 F   0  0  0  0  0  0  0  0  0  0  0  0
    1.6382    2.5710    0.7512 O   0  0  0  0  0  0  0  0  0  0  0  0
   -0.2404    2.9261   -1.5539 O   0  0  0  0  0  0  0  0  0  0  0  0
    2.8742    5.0456    0.2479 O   0  0  0  0  0  0  0  0  0  0  0  0
   -1.6580    1.0812    0.1220 N   0  0  0  0  0  0  0  0  0  0  0  0
   -4.0875   -0.4212    0.1140 N   0  0  0  0  0  0  0  0  0  0  0  0
    2.5535   -0.0690    0.1800 N   0  0  0  0  0  0  0  0  0  0  0  0
   -5.0973   -2.4982   -0.4061 N   0  0  0  0  0  0  0  0  0  0  0  0
   -0.6718    2.0042    0.6557 C   0  0  1  0  0  0  0  0  0  0  0  0
    0.7414    1.4431    0.8597 C   0  0  1  0  0  0  0  0  0  0  0  0
   -0.4284    3.2498   -0.1824 C   0  0  1  0  0  0  0  0  0  0  0  0
    0.8751    3.7496    0.4289 C   0  0  2  0  0  0  0  0  0  0  0  0
   -1.8203   -0.0725    1.0154 C   0  0  0  0  0  0  0  0  0  0  0  0
   -2.9487    1.7560   -0.0614 C   0  0  0  0  0  0  0  0  0  0  0  0
    1.2115    0.3940   -0.1417 C   0  0  0  0  0  0  0  0  0  0  0  0
   -2.8153   -1.0803    0.4355 C   0  0  0  0  0  0  0  0  0  0  0  0
   -3.9824    0.8092   -0.6764 C   0  0  0  0  0  0  0  0  0  0  0  0
    1.7069    4.6575   -0.4586 C   0  0  0  0  0  0  0  0  0  0  0  0
   -5.2327   -1.2184    0.0081 C   0  0  0  0  0  0  0  0  0  0  0  0
    2.9991   -1.0793   -0.7706 C   0  0  0  0  0  0  0  0  0  0  0  0
   -6.4447   -0.6343    0.3392 C   0  0  0  0  0  0  0  0  0  0  0  0
    4.3815   -1.5812   -0.4486 C   0  0  0  0  0  0  0  0  0  0  0  0
   -7.5916   -1.4138    0.2388 C   0  0  0  0  0  0  0  0  0  0  0  0
   -6.2340   -3.2250   -0.4914 C   0  0  0  0  0  0  0  0  0  0  0  0
    5.4982   -0.9494   -0.9959 C   0  0  0  0  0  0  0  0  0  0  0  0
    4.5456   -2.6787    0.3967 C   0  0  0  0  0  0  0  0  0  0  0  0
   -7.4929   -2.7349   -0.1834 C   0  0  0  0  0  0  0  0  0  0  0  0
    6.7790   -1.4148   -0.6977 C   0  0  0  0  0  0  0  0  0  0  0  0
    5.8262   -3.1442    0.6947 C   0  0  0  0  0  0  0  0  0  0  0  0
    6.9430   -2.5122    0.1476 C   0  0  0  0  0  0  0  0  0  0  0  0
   -1.0092    2.3591    1.6434 H   0  0  0  0  0  0  0  0  0  0  0  0
    0.8353    1.0405    1.8764 H   0  0  0  0  0  0  0  0  0  0  0  0
   -1.2239    3.9977   -0.1029 H   0  0  0  0  0  0  0  0  0  0  0  0
    0.6779    4.2473    1.3872 H   0  0  0  0  0  0  0  0  0  0  0  0
   -2.1918    0.2639    1.9943 H   0  0  0  0  0  0  0  0  0  0  0  0
   -0.8914   -0.6088    1.2191 H   0  0  0  0  0  0  0  0  0  0  0  0
   -2.8623    2.6065   -0.7457 H   0  0  0  0  0  0  0  0  0  0  0  0
   -3.3279    2.1410    0.8950 H   0  0  0  0  0  0  0  0  0  0  0  0
    1.2319    0.8348   -1.1458 H   0  0  0  0  0  0  0  0  0  0  0  0
    0.5454   -0.4689   -0.1842 H   0  0  0  0  0  0  0  0  0  0  0  0
   -2.4001   -1.5448   -0.4680 H   0  0  0  0  0  0  0  0  0  0  0  0
   -2.9717   -1.8728    1.1783 H   0  0  0  0  0  0  0  0  0  0  0  0
   -4.9402    1.3389   -0.7335 H   0  0  0  0  0  0  0  0  0  0  0  0
   -3.6949    0.5527   -1.7043 H   0  0  0  0  0  0  0  0  0  0  0  0
    1.1470    5.5550   -0.7377 H   0  0  0  0  0  0  0  0  0  0  0  0
    2.0389    4.1368   -1.3623 H   0  0  0  0  0  0  0  0  0  0  0  0
   -0.1972    3.7611   -2.0500 H   0  0  0  0  0  0  0  0  0  0  0  0
    3.1955    0.7236    0.1693 H   0  0  0  0  0  0  0  0  0  0  0  0
    2.9944   -0.6769   -1.7923 H   0  0  0  0  0  0  0  0  0  0  0  0
    2.3078   -1.9322   -0.7746 H   0  0  0  0  0  0  0  0  0  0  0  0
    3.3850    5.6274   -0.3405 H   0  0  0  0  0  0  0  0  0  0  0  0
   -6.5220    0.3914    0.6845 H   0  0  0  0  0  0  0  0  0  0  0  0
   -8.5603   -0.9939    0.4929 H   0  0  0  0  0  0  0  0  0  0  0  0
   -6.1029   -4.2491   -0.8253 H   0  0  0  0  0  0  0  0  0  0  0  0
    5.3837   -0.0926   -1.6546 H   0  0  0  0  0  0  0  0  0  0  0  0
    3.6838   -3.1789    0.8306 H   0  0  0  0  0  0  0  0  0  0  0  0
   -8.3734   -3.3613   -0.2681 H   0  0  0  0  0  0  0  0  0  0  0  0
    7.6486   -0.9230   -1.1234 H   0  0  0  0  0  0  0  0  0  0  0  0
    5.9544   -3.9985    1.3528 H   0  0  0  0  0  0  0  0  0  0  0  0
  1 30  1  0  0  0  0
  2 10  1  0  0  0  0
  2 12  1  0  0  0  0
  3 11  1  0  0  0  0
  3 47  1  0  0  0  0
  4 18  1  0  0  0  0
  4 51  1  0  0  0  0
  5  9  1  0  0  0  0
  5 13  1  0  0  0  0
  5 14  1  0  0  0  0
  6 16  1  0  0  0  0
  6 17  1  0  0  0  0
  6 19  1  0  0  0  0
  7 15  1  0  0  0  0
  7 20  1  0  0  0  0
  7 48  1  0  0  0  0
  8 19  1  0  0  0  0
  8 24  2  0  0  0  0
  9 10  1  0  0  0  0
  9 11  1  0  0  0  0
  9 31  1  0  0  0  0
 10 15  1  0  0  0  0
 10 32  1  0  0  0  0
 11 12  1  0  0  0  0
 11 33  1  0  0  0  0
 12 18  1  0  0  0  0
 12 34  1  0  0  0  0
 13 16  1  0  0  0  0
 13 35  1  0  0  0  0
 13 36  1  0  0  0  0
 14 17  1  0  0  0  0
 14 37  1  0  0  0  0
 14 38  1  0  0  0  0
 15 39  1  0  0  0  0
 15 40  1  0  0  0  0
 16 41  1  0  0  0  0
 16 42  1  0  0  0  0
 17 43  1  0  0  0  0
 17 44  1  0  0  0  0
 18 45  1  0  0  0  0
 18 46  1  0  0  0  0
 19 21  2  0  0  0  0
 20 22  1  0  0  0  0
 20 49  1  0  0  0  0
 20 50  1  0  0  0  0
 21 23  1  0  0  0  0
 21 52  1  0  0  0  0
 22 25  2  0  0  0  0
 22 26  1  0  0  0  0
 23 27  2  0  0  0  0
 23 53  1  0  0  0  0
 24 27  1  0  0  0  0
 24 54  1  0  0  0  0
 25 28  1  0  0  0  0
 25 55  1  0  0  0  0
 26 29  2  0  0  0  0
 26 56  1  0  0  0  0
 27 57  1  0  0  0  0
 28 30  2  0  0  0  0
 28 58  1  0  0  0  0
 29 30  1  0  0  0  0
 29 59  1  0  0  0  0
M  END
> <PUBCHEM_COMPOUND_CID>
28962073

> <PUBCHEM_CONFORMER_RMSD>
1

> <PUBCHEM_CONFORMER_DIVERSEORDER>
1
14
23
41
22
34
44
12
42
2
32
43
25
45
9
26
7
6
10
18
8
11
37
38
24
28
4
31
33
20
36
21
29
30
35
15
39
40
16
17
19
3
27
46
13
5

> <PUBCHEM_MMFF94_PARTIAL_CHARGES>
41
1 -0.19
10 0.28
11 0.28
12 0.28
13 0.27
14 0.27
15 0.27
16 0.37
17 0.37
18 0.28
19 0.41
2 -0.56
20 0.41
21 -0.15
22 -0.14
23 -0.15
24 0.16
25 -0.15
26 -0.15
27 -0.15
28 -0.15
29 -0.15
3 -0.68
30 0.19
4 -0.68
47 0.4
48 0.36
5 -0.81
51 0.4
52 0.15
53 0.15
54 0.15
55 0.15
56 0.15
57 0.15
58 0.15
59 0.15
6 -0.84
7 -0.9
8 -0.62
9 0.27

> <PUBCHEM_EFFECTIVE_ROTOR_COUNT>
9.2

> <PUBCHEM_PHARMACOPHORE_FEATURES>
14
1 2 acceptor
1 3 acceptor
1 3 donor
1 4 acceptor
1 4 donor
1 5 cation
1 6 cation
1 7 cation
1 7 donor
1 8 acceptor
5 2 9 10 11 12 rings
6 22 25 26 28 29 30 rings
6 5 6 13 14 16 17 rings
6 8 19 21 23 24 27 rings

> <PUBCHEM_HEAVY_ATOM_COUNT>
30

> <PUBCHEM_ATOM_DEF_STEREO_COUNT>
4

> <PUBCHEM_ATOM_UDEF_STEREO_COUNT>
0

> <PUBCHEM_BOND_DEF_STEREO_COUNT>
0

> <PUBCHEM_BOND_UDEF_STEREO_COUNT>
0

> <PUBCHEM_ISOTOPIC_ATOM_COUNT>
0

> <PUBCHEM_COMPONENT_COUNT>
1

> <PUBCHEM_CACTVS_TAUTO_COUNT>
1

> <PUBCHEM_CONFORMER_ID>
01B9ED1900000001

> <PUBCHEM_MMFF94_ENERGY>
87.8719

> <PUBCHEM_FEATURE_SELFOVERLAP>
71.054

> <PUBCHEM_SHAPE_FINGERPRINT>
10050765 1 18412263952305612329
10100884 174 18261109626749717858
10319688 140 18265898136545964860
10411042 1 18411138013463683584
10622 236 17556844030692568951
11059845 2 17630346159818288153
11297750 10 18335693936191893101
11963148 33 17694497453250940735
12107183 9 18271540697988186425
12166972 35 18113623386680603270
12342043 65 16914833431745919406
12522641 68 17036703699231059572
13248334 5 18122907791868374464
13533116 47 18127976511045083993
13540713 4 18338496604648648789
13540713 5 18200052723445149665
1361 4 17980480393587079687
13631057 29 18335985247397461922
13690498 29 18187079525771536573
14068700 675 18272654545435834171
14251764 30 18409726248812343535
14394314 77 18266181634277731323
15183329 4 16081370722151615042
15538507 32 18337675312754757766
15773216 30 18263931110829559820
15890870 6 18192158316727670812
15927050 60 17765717206026142918
16990366 60 18335414686350789186
16991971 28 18272102603763459870
16992752 21 18341906156125309636
16993427 108 18189041032978050834
17492 89 18339920524056735065
17686467 74 18271233947186688042
19303781 99 18341320193569175511
20165401 70 18198622332375364111
20691028 202 9078528405668980034
20771845 171 18042690675412863108
20775438 99 17903345245613132451
21033648 29 12966591746192312443
21049683 271 18410579517803259748
21130935 74 18123756615947148843
21344244 246 18336551633404218100
23522609 53 18123225413215819841
23559900 14 18337950212009385819
23569943 247 18409452497189827051
249999 5 18127408071606941976
255183 313 17692832396813327008
255183 451 18411701010471873741
32027 91 18411129260758099959
3504750 166 17612305248507238074
4046055 25 18115311064378850900
4280585 95 18410571743183797384
439807 62 18335143089941166735
5219985 9 18410579469829969386
5718773 13 18412261735738191727
6057620 51 18334304137558999294
6697151 62 18127384870520461589
6700243 42 17771092422686261340
7970288 3 18411697647528889611
9849439 229 9871462144923671928
9962374 69 18200869695244830207

> <PUBCHEM_SHAPE_MULTIPOLES>
572.58
20.76
5.97
0.92
1.87
6.7
0.08
-32.85
0.93
-5.04
0.07
-0.34
0.13
-0.72

> <PUBCHEM_SHAPE_SELFOVERLAP>
1213.897

> <PUBCHEM_SHAPE_VOLUME>
319.9

> <PUBCHEM_COORDINATE_TYPE>
2
5
10

$$$$
