26742294
  -OEChem-12032416113D

 55 59  0     1  0  0  0  0  0999 V2000
   -1.7603   -2.7695    2.9782 O   0  0  0  0  0  0  0  0  0  0  0  0
    1.7485   -2.9143   -0.4443 O   0  0  0  0  0  0  0  0  0  0  0  0
    2.4025    1.9772    0.5025 O   0  0  0  0  0  0  0  0  0  0  0  0
   -1.9546   -1.7034    0.9017 N   0  0  0  0  0  0  0  0  0  0  0  0
    0.0279   -1.8191   -1.5376 N   0  0  0  0  0  0  0  0  0  0  0  0
    1.6902   -0.5982   -0.3929 N   0  0  0  0  0  0  0  0  0  0  0  0
   -3.3355    3.8179   -0.7217 N   0  0  0  0  0  0  0  0  0  0  0  0
   -2.1214   -3.0407   -1.2774 C   0  0  2  0  0  0  0  0  0  0  0  0
   -2.1089   -0.5807   -1.3465 C   0  0  2  0  0  0  0  0  0  0  0  0
   -2.8759   -1.8247   -1.7955 C   0  0  0  0  0  0  0  0  0  0  0  0
   -2.1529   -3.0065    0.2508 C   0  0  0  0  0  0  0  0  0  0  0  0
   -0.6832   -3.0662   -1.8271 C   0  0  0  0  0  0  0  0  0  0  0  0
   -0.6931   -0.6092   -1.9653 C   0  0  0  0  0  0  0  0  0  0  0  0
   -2.0160   -0.4926    0.1815 C   0  0  0  0  0  0  0  0  0  0  0  0
   -1.9517    0.6917    0.8444 C   0  0  0  0  0  0  0  0  0  0  0  0
   -1.8050   -1.7432    2.2993 C   0  0  0  0  0  0  0  0  0  0  0  0
    1.2058   -1.8522   -0.7602 C   0  0  0  0  0  0  0  0  0  0  0  0
   -1.7943    0.6890    2.2864 C   0  0  0  0  0  0  0  0  0  0  0  0
   -1.7096   -0.4386    2.9917 C   0  0  0  0  0  0  0  0  0  0  0  0
   -2.0073    1.9879    0.1339 C   0  0  0  0  0  0  0  0  0  0  0  0
   -0.8503    2.5965   -0.3400 C   0  0  0  0  0  0  0  0  0  0  0  0
   -3.2143    2.6338   -0.0807 C   0  0  0  0  0  0  0  0  0  0  0  0
    3.0402   -0.2381   -0.1645 C   0  0  0  0  0  0  0  0  0  0  0  0
   -0.9345    3.8150   -1.0044 C   0  0  0  0  0  0  0  0  0  0  0  0
    3.3695    1.0429    0.2788 C   0  0  0  0  0  0  0  0  0  0  0  0
    4.0457   -1.1790   -0.3871 C   0  0  0  0  0  0  0  0  0  0  0  0
   -2.1894    4.3791   -1.1681 C   0  0  0  0  0  0  0  0  0  0  0  0
    4.7043    1.3830    0.4994 C   0  0  0  0  0  0  0  0  0  0  0  0
    5.3804   -0.8389   -0.1663 C   0  0  0  0  0  0  0  0  0  0  0  0
    5.7097    0.4421    0.2769 C   0  0  0  0  0  0  0  0  0  0  0  0
    2.8336    3.2591    0.9545 C   0  0  0  0  0  0  0  0  0  0  0  0
   -2.6222   -3.9565   -1.6148 H   0  0  0  0  0  0  0  0  0  0  0  0
   -2.6448    0.2847   -1.7521 H   0  0  0  0  0  0  0  0  0  0  0  0
   -3.9024   -1.8093   -1.4082 H   0  0  0  0  0  0  0  0  0  0  0  0
   -2.9468   -1.8572   -2.8897 H   0  0  0  0  0  0  0  0  0  0  0  0
   -3.1381   -3.3567    0.5889 H   0  0  0  0  0  0  0  0  0  0  0  0
   -1.4254   -3.7185    0.6609 H   0  0  0  0  0  0  0  0  0  0  0  0
   -0.1427   -3.9294   -1.4255 H   0  0  0  0  0  0  0  0  0  0  0  0
   -0.7027   -3.1770   -2.9181 H   0  0  0  0  0  0  0  0  0  0  0  0
   -0.7728   -0.6648   -3.0588 H   0  0  0  0  0  0  0  0  0  0  0  0
   -0.1354    0.3022   -1.7582 H   0  0  0  0  0  0  0  0  0  0  0  0
   -1.7316    1.6449    2.7982 H   0  0  0  0  0  0  0  0  0  0  0  0
   -1.5863   -0.4305    4.0681 H   0  0  0  0  0  0  0  0  0  0  0  0
    1.0218    0.1508   -0.2537 H   0  0  0  0  0  0  0  0  0  0  0  0
    0.1158    2.1341   -0.2026 H   0  0  0  0  0  0  0  0  0  0  0  0
   -4.1535    2.2107    0.2638 H   0  0  0  0  0  0  0  0  0  0  0  0
   -0.0456    4.3069   -1.3826 H   0  0  0  0  0  0  0  0  0  0  0  0
    3.8593   -2.1768   -0.7646 H   0  0  0  0  0  0  0  0  0  0  0  0
   -2.3090    5.3285   -1.6796 H   0  0  0  0  0  0  0  0  0  0  0  0
    5.0369    2.3565    0.8422 H   0  0  0  0  0  0  0  0  0  0  0  0
    6.1647   -1.5683   -0.3471 H   0  0  0  0  0  0  0  0  0  0  0  0
    6.7496    0.7062    0.4464 H   0  0  0  0  0  0  0  0  0  0  0  0
    1.9367    3.8739    1.0838 H   0  0  0  0  0  0  0  0  0  0  0  0
    3.4569    3.7622    0.2075 H   0  0  0  0  0  0  0  0  0  0  0  0
    3.3193    3.2002    1.9345 H   0  0  0  0  0  0  0  0  0  0  0  0
  1 16  2  0  0  0  0
  2 17  2  0  0  0  0
  3 25  1  0  0  0  0
  3 31  1  0  0  0  0
  4 11  1  0  0  0  0
  4 14  1  0  0  0  0
  4 16  1  0  0  0  0
  5 12  1  0  0  0  0
  5 13  1  0  0  0  0
  5 17  1  0  0  0  0
  6 17  1  0  0  0  0
  6 23  1  0  0  0  0
  6 44  1  0  0  0  0
  7 22  1  0  0  0  0
  7 27  2  0  0  0  0
  8 10  1  0  0  0  0
  8 11  1  0  0  0  0
  8 12  1  0  0  0  0
  8 32  1  0  0  0  0
  9 10  1  0  0  0  0
  9 13  1  0  0  0  0
  9 14  1  0  0  0  0
  9 33  1  0  0  0  0
 10 34  1  0  0  0  0
 10 35  1  0  0  0  0
 11 36  1  0  0  0  0
 11 37  1  0  0  0  0
 12 38  1  0  0  0  0
 12 39  1  0  0  0  0
 13 40  1  0  0  0  0
 13 41  1  0  0  0  0
 14 15  2  0  0  0  0
 15 18  1  0  0  0  0
 15 20  1  0  0  0  0
 16 19  1  0  0  0  0
 18 19  2  0  0  0  0
 18 42  1  0  0  0  0
 19 43  1  0  0  0  0
 20 21  1  0  0  0  0
 20 22  2  0  0  0  0
 21 24  2  0  0  0  0
 21 45  1  0  0  0  0
 22 46  1  0  0  0  0
 23 25  1  0  0  0  0
 23 26  2  0  0  0  0
 24 27  1  0  0  0  0
 24 47  1  0  0  0  0
 25 28  2  0  0  0  0
 26 29  1  0  0  0  0
 26 48  1  0  0  0  0
 27 49  1  0  0  0  0
 28 30  1  0  0  0  0
 28 50  1  0  0  0  0
 29 30  2  0  0  0  0
 29 51  1  0  0  0  0
 30 52  1  0  0  0  0
 31 53  1  0  0  0  0
 31 54  1  0  0  0  0
 31 55  1  0  0  0  0
M  END
> <PUBCHEM_COMPOUND_CID>
26742294

> <PUBCHEM_CONFORMER_RMSD>
0.8

> <PUBCHEM_CONFORMER_DIVERSEORDER>
2
27
63
45
9
8
66
6
50
25
43
26
32
40
57
64
48
20
41
46
69
33
44
39
37
65
54
52
24
16
58
42
15
67
36
23
11
68
56
49
19
18
53
47
51
30
17
22
61
38
35
1
55
29
13
7
21
28
62
3
14
12
59
31
4
60
34
5
10

> <PUBCHEM_MMFF94_PARTIAL_CHARGES>
40
1 -0.57
11 0.3
12 0.3
13 0.3
14 -0.03
15 -0.03
16 0.62
17 0.69
18 -0.15
19 -0.14
2 -0.57
20 0.03
21 -0.15
22 0.16
23 0.12
24 -0.15
25 0.08
26 -0.15
27 0.16
28 -0.15
29 -0.15
3 -0.36
30 -0.15
31 0.28
4 -0.47
42 0.15
43 0.15
44 0.37
45 0.15
46 0.15
47 0.15
48 0.15
49 0.15
5 -0.66
50 0.15
51 0.15
52 0.15
6 -0.55
7 -0.62
9 0.14

> <PUBCHEM_EFFECTIVE_ROTOR_COUNT>
6

> <PUBCHEM_PHARMACOPHORE_FEATURES>
10
1 1 acceptor
1 2 acceptor
1 3 acceptor
1 6 donor
1 7 acceptor
6 23 25 26 28 29 30 rings
6 4 14 15 16 18 19 rings
6 4 8 9 10 11 14 rings
6 5 8 9 10 12 13 rings
6 7 20 21 22 24 27 rings

> <PUBCHEM_HEAVY_ATOM_COUNT>
31

> <PUBCHEM_ATOM_DEF_STEREO_COUNT>
2

> <PUBCHEM_ATOM_UDEF_STEREO_COUNT>
0

> <PUBCHEM_BOND_DEF_STEREO_COUNT>
0

> <PUBCHEM_BOND_UDEF_STEREO_COUNT>
0

> <PUBCHEM_ISOTOPIC_ATOM_COUNT>
0

> <PUBCHEM_COMPONENT_COUNT>
1

> <PUBCHEM_CACTVS_TAUTO_COUNT>
6

> <PUBCHEM_CONFORMER_ID>
01980E1600000002

> <PUBCHEM_MMFF94_ENERGY>
108.0894

> <PUBCHEM_FEATURE_SELFOVERLAP>
52.335

> <PUBCHEM_SHAPE_FINGERPRINT>
10483366 6 18270095995211333621
10653451 467 18336277777899853705
107951 10 17970071041126100177
10871710 139 18267586982095340228
11045515 52 18125988610569048551
11582403 64 17756142289736194863
11725454 13 17611191459922522765
12156800 1 17121917735883709205
12422481 6 18269858517874269753
12788726 201 18262499464489249857
13004483 165 18196920278877309447
13402501 40 18266180526456509836
1361 2 18126275355634648741
14142880 1 18059584606663438731
14468879 13 18265617576265146657
15840311 113 17272042821206998443
17974551 9 17100043922807135130
19930381 70 17546149161864530613
20905425 154 16314146928655862549
23419403 2 16957599288310358515
238 59 17623006798689144693
3298306 158 18049719612103221372
3380486 77 17839751704991403359
35225 105 17385720249295361025
376196 1 17758957026212711413
460360 51 18341905056751293278
469060 322 17620185872880243088
508706 21 18411976954031691548
9981440 41 18339071588809731130

> <PUBCHEM_SHAPE_MULTIPOLES>
600.43
7.9
5.3
2.25
15.19
3.84
1.65
1.64
0.41
-4.47
-1.84
-2.42
-1.35
1.37

> <PUBCHEM_SHAPE_SELFOVERLAP>
1321.065

> <PUBCHEM_SHAPE_VOLUME>
315.5

> <PUBCHEM_COORDINATE_TYPE>
2
5
10

$$$$
