7144110
  -OEChem-12032416413D

 54 57  0     1  0  0  0  0  0999 V2000
   -2.2382   -3.8427   -0.3554 S   0  0  0  0  0  0  0  0  0  0  0  0
   -3.2042    1.9672    2.6436 O   0  0  0  0  0  0  0  0  0  0  0  0
   -3.6779   -1.6589   -1.1475 O   0  0  0  0  0  0  0  0  0  0  0  0
    5.6973    0.4310   -0.8646 O   0  0  0  0  0  0  0  0  0  0  0  0
    1.3198   -3.8803    0.6008 O   0  0  0  0  0  0  0  0  0  0  0  0
   -0.3316   -3.8823    2.1623 O   0  0  0  0  0  0  0  0  0  0  0  0
   -2.0589   -0.1046   -1.7476 N   0  0  0  0  0  0  0  0  0  0  0  0
   -1.8274    1.8511    0.7523 N   0  0  0  0  0  0  0  0  0  0  0  0
   -2.7443    2.2854   -1.6020 C   0  0  1  0  0  0  0  0  0  0  0  0
   -0.3818    1.6793   -1.2976 C   0  0  2  0  0  0  0  0  0  0  0  0
   -1.3200    2.7111   -1.9215 C   0  0  0  0  0  0  0  0  0  0  0  0
   -3.0400    0.8911   -2.1787 C   0  0  0  0  0  0  0  0  0  0  0  0
   -2.9359    2.3292   -0.0856 C   0  0  0  0  0  0  0  0  0  0  0  0
   -0.6558    0.2940   -1.9199 C   0  0  0  0  0  0  0  0  0  0  0  0
   -0.5422    1.6172    0.2239 C   0  0  0  0  0  0  0  0  0  0  0  0
    0.4889    1.3230    1.0582 C   0  0  0  0  0  0  0  0  0  0  0  0
   -2.1055    1.7602    2.1278 C   0  0  0  0  0  0  0  0  0  0  0  0
   -2.4921   -1.3465   -1.2840 C   0  0  0  0  0  0  0  0  0  0  0  0
    0.2390    1.2172    2.4832 C   0  0  0  0  0  0  0  0  0  0  0  0
   -0.9712    1.4031    3.0095 C   0  0  0  0  0  0  0  0  0  0  0  0
    1.8589    1.0883    0.5518 C   0  0  0  0  0  0  0  0  0  0  0  0
   -1.4210   -2.3458   -0.9268 C   0  0  0  0  0  0  0  0  0  0  0  0
    2.2490   -0.1958    0.1842 C   0  0  0  0  0  0  0  0  0  0  0  0
    2.7483    2.1534    0.4471 C   0  0  0  0  0  0  0  0  0  0  0  0
    3.5411   -0.4168   -0.2926 C   0  0  0  0  0  0  0  0  0  0  0  0
    4.0404    1.9322   -0.0298 C   0  0  0  0  0  0  0  0  0  0  0  0
    4.4368    0.6471   -0.3996 C   0  0  0  0  0  0  0  0  0  0  0  0
   -0.7722   -4.8442   -0.0033 C   0  0  0  0  0  0  0  0  0  0  0  0
    0.0644   -4.1559    1.0365 C   0  0  0  0  0  0  0  0  0  0  0  0
    6.0363   -0.9075   -1.2246 C   0  0  0  0  0  0  0  0  0  0  0  0
   -3.4503    2.9891   -2.0601 H   0  0  0  0  0  0  0  0  0  0  0  0
    0.6375    1.9782   -1.5662 H   0  0  0  0  0  0  0  0  0  0  0  0
   -1.1696    2.7590   -3.0070 H   0  0  0  0  0  0  0  0  0  0  0  0
   -1.1150    3.7134   -1.5247 H   0  0  0  0  0  0  0  0  0  0  0  0
   -2.9947    0.9244   -3.2743 H   0  0  0  0  0  0  0  0  0  0  0  0
   -4.0547    0.5779   -1.9109 H   0  0  0  0  0  0  0  0  0  0  0  0
   -3.8483    1.7896    0.1988 H   0  0  0  0  0  0  0  0  0  0  0  0
   -3.1006    3.3735    0.2145 H   0  0  0  0  0  0  0  0  0  0  0  0
    0.0257   -0.4546   -1.5181 H   0  0  0  0  0  0  0  0  0  0  0  0
   -0.4722    0.3303   -3.0012 H   0  0  0  0  0  0  0  0  0  0  0  0
    1.0713    0.9647    3.1337 H   0  0  0  0  0  0  0  0  0  0  0  0
   -1.1498    1.3163    4.0746 H   0  0  0  0  0  0  0  0  0  0  0  0
   -0.8131   -2.5661   -1.8085 H   0  0  0  0  0  0  0  0  0  0  0  0
   -0.8112   -1.9257   -0.1234 H   0  0  0  0  0  0  0  0  0  0  0  0
    1.5650   -1.0353    0.2713 H   0  0  0  0  0  0  0  0  0  0  0  0
    2.4530    3.1604    0.7311 H   0  0  0  0  0  0  0  0  0  0  0  0
    3.7831   -1.4398   -0.5599 H   0  0  0  0  0  0  0  0  0  0  0  0
    4.7335    2.7650   -0.1112 H   0  0  0  0  0  0  0  0  0  0  0  0
   -1.0636   -5.8282    0.3752 H   0  0  0  0  0  0  0  0  0  0  0  0
   -0.2012   -4.9962   -0.9243 H   0  0  0  0  0  0  0  0  0  0  0  0
    7.0742   -0.8954   -1.5732 H   0  0  0  0  0  0  0  0  0  0  0  0
    5.9972   -1.5788   -0.3601 H   0  0  0  0  0  0  0  0  0  0  0  0
    5.4234   -1.2675   -2.0579 H   0  0  0  0  0  0  0  0  0  0  0  0
    1.8573   -3.4354    1.2903 H   0  0  0  0  0  0  0  0  0  0  0  0
  1 22  1  0  0  0  0
  1 28  1  0  0  0  0
  2 17  2  0  0  0  0
  3 18  2  0  0  0  0
  4 27  1  0  0  0  0
  4 30  1  0  0  0  0
  5 29  1  0  0  0  0
  5 54  1  0  0  0  0
  6 29  2  0  0  0  0
  7 12  1  0  0  0  0
  7 14  1  0  0  0  0
  7 18  1  0  0  0  0
  8 13  1  0  0  0  0
  8 15  1  0  0  0  0
  8 17  1  0  0  0  0
  9 11  1  0  0  0  0
  9 12  1  0  0  0  0
  9 13  1  0  0  0  0
  9 31  1  0  0  0  0
 10 11  1  0  0  0  0
 10 14  1  0  0  0  0
 10 15  1  0  0  0  0
 10 32  1  0  0  0  0
 11 33  1  0  0  0  0
 11 34  1  0  0  0  0
 12 35  1  0  0  0  0
 12 36  1  0  0  0  0
 13 37  1  0  0  0  0
 13 38  1  0  0  0  0
 14 39  1  0  0  0  0
 14 40  1  0  0  0  0
 15 16  2  0  0  0  0
 16 19  1  0  0  0  0
 16 21  1  0  0  0  0
 17 20  1  0  0  0  0
 18 22  1  0  0  0  0
 19 20  2  0  0  0  0
 19 41  1  0  0  0  0
 20 42  1  0  0  0  0
 21 23  2  0  0  0  0
 21 24  1  0  0  0  0
 22 43  1  0  0  0  0
 22 44  1  0  0  0  0
 23 25  1  0  0  0  0
 23 45  1  0  0  0  0
 24 26  2  0  0  0  0
 24 46  1  0  0  0  0
 25 27  2  0  0  0  0
 25 47  1  0  0  0  0
 26 27  1  0  0  0  0
 26 48  1  0  0  0  0
 28 29  1  0  0  0  0
 28 49  1  0  0  0  0
 28 50  1  0  0  0  0
 30 51  1  0  0  0  0
 30 52  1  0  0  0  0
 30 53  1  0  0  0  0
M  END
> <PUBCHEM_COMPOUND_CID>
7144110

> <PUBCHEM_CONFORMER_RMSD>
1

> <PUBCHEM_CONFORMER_DIVERSEORDER>
1
8
5
9
2
14
7
4
13
12
3
10
6
11

> <PUBCHEM_MMFF94_PARTIAL_CHARGES>
35
1 -0.46
10 0.14
12 0.3
13 0.3
14 0.3
15 -0.03
16 -0.03
17 0.62
18 0.57
19 -0.15
2 -0.57
20 -0.14
21 0.03
22 0.29
23 -0.15
24 -0.15
25 -0.15
26 -0.15
27 0.08
28 0.29
29 0.66
3 -0.57
30 0.28
4 -0.36
41 0.15
42 0.15
45 0.15
46 0.15
47 0.15
48 0.15
5 -0.65
54 0.5
6 -0.57
7 -0.66
8 -0.47

> <PUBCHEM_EFFECTIVE_ROTOR_COUNT>
8

> <PUBCHEM_PHARMACOPHORE_FEATURES>
10
1 2 acceptor
1 3 acceptor
1 4 acceptor
1 5 acceptor
1 6 acceptor
3 5 6 29 anion
6 21 23 24 25 26 27 rings
6 7 9 10 11 12 14 rings
6 8 15 16 17 19 20 rings
6 8 9 10 11 13 15 rings

> <PUBCHEM_HEAVY_ATOM_COUNT>
30

> <PUBCHEM_ATOM_DEF_STEREO_COUNT>
2

> <PUBCHEM_ATOM_UDEF_STEREO_COUNT>
0

> <PUBCHEM_BOND_DEF_STEREO_COUNT>
0

> <PUBCHEM_BOND_UDEF_STEREO_COUNT>
0

> <PUBCHEM_ISOTOPIC_ATOM_COUNT>
0

> <PUBCHEM_COMPONENT_COUNT>
1

> <PUBCHEM_CACTVS_TAUTO_COUNT>
1

> <PUBCHEM_CONFORMER_ID>
006D02AE00000001

> <PUBCHEM_MMFF94_ENERGY>
91.2892

> <PUBCHEM_FEATURE_SELFOVERLAP>
52.371

> <PUBCHEM_SHAPE_FINGERPRINT>
10764073 3 12814938335395967828
107951 10 18411412878221872031
11578080 2 16239330754253855101
121448 382 18338223947328571400
12156800 1 17545659711766015079
12539773 59 16620908611194613047
13135754 10 17342697579118528156
14251740 79 18413388748209998998
15463212 79 18114448012227919660
17974551 9 17269488912866620347
1979834 28 15526857750778731163
20642791 178 17476617803835916325
20775530 9 17689712382419385390
23466295 7 18338242686049565070
3027735 51 18411416219780793698
3493558 16 11088030731303757318
35225 105 17698205925033520003
394222 165 17054164562824262361
469060 322 18042140845977453575
484985 159 18059866055743868710
50150288 127 17273446974068728450
5080951 261 18187928443390454336
59755656 520 18129115432796889104
70634741 139 18339356487887739208

> <PUBCHEM_SHAPE_MULTIPOLES>
581.93
7.56
5.48
2.58
13.76
9.06
-1.41
-0.65
3.73
-3.92
-1.49
-2.05
-1.42
-0.06

> <PUBCHEM_SHAPE_SELFOVERLAP>
1241.212

> <PUBCHEM_SHAPE_VOLUME>
324.3

> <PUBCHEM_COORDINATE_TYPE>
2
5
10

$$$$
