40586222
  -OEChem-12032416113D

 61 64  0     1  0  0  0  0  0999 V2000
   -3.8369   -1.6792    1.5927 O   0  0  0  0  0  0  0  0  0  0  0  0
   -0.0262    2.0523    2.0551 O   0  0  0  0  0  0  0  0  0  0  0  0
    2.8401   -0.1244   -1.1633 O   0  0  0  0  0  0  0  0  0  0  0  0
   -4.0699   -0.0546   -0.0522 N   0  0  0  0  0  0  0  0  0  0  0  0
   -1.6088    1.9483    0.3390 N   0  0  0  0  0  0  0  0  0  0  0  0
    2.0567    1.4219    0.3770 N   0  0  0  0  0  0  0  0  0  0  0  0
    4.2322    0.7082    0.5331 N   0  0  0  0  0  0  0  0  0  0  0  0
   -4.1107    2.3147    0.7383 C   0  0  1  0  0  0  0  0  0  0  0  0
   -3.2985    1.7975   -1.5242 C   0  0  2  0  0  0  0  0  0  0  0  0
   -4.1307    2.7862   -0.7105 C   0  0  0  0  0  0  0  0  0  0  0  0
   -4.7086    0.9018    0.8541 C   0  0  0  0  0  0  0  0  0  0  0  0
   -3.9370    0.3969   -1.4453 C   0  0  0  0  0  0  0  0  0  0  0  0
   -2.6703    2.3753    1.2602 C   0  0  0  0  0  0  0  0  0  0  0  0
   -1.8688    1.7407   -1.0194 C   0  0  0  0  0  0  0  0  0  0  0  0
   -3.7174   -1.3196    0.4186 C   0  0  0  0  0  0  0  0  0  0  0  0
   -0.8622    1.4646   -1.8655 C   0  0  0  0  0  0  0  0  0  0  0  0
   -0.3061    1.8616    0.8707 C   0  0  0  0  0  0  0  0  0  0  0  0
   -3.1505   -2.2832   -0.5930 C   0  0  0  0  0  0  0  0  0  0  0  0
   -2.8417   -3.6668    0.0067 C   0  0  0  0  0  0  0  0  0  0  0  0
    0.7834    1.5278   -0.1005 C   0  0  0  0  0  0  0  0  0  0  0  0
    0.4892    1.3555   -1.3935 C   0  0  0  0  0  0  0  0  0  0  0  0
   -1.8180   -3.5608    1.1499 C   0  0  0  0  0  0  0  0  0  0  0  0
   -2.3107   -4.6316   -1.0671 C   0  0  0  0  0  0  0  0  0  0  0  0
   -4.1542   -4.2389    0.5747 C   0  0  0  0  0  0  0  0  0  0  0  0
    3.0362    0.5912   -0.1834 C   0  0  0  0  0  0  0  0  0  0  0  0
    5.4570    0.0422    0.2940 C   0  0  0  0  0  0  0  0  0  0  0  0
    6.5552    0.2845    1.1190 C   0  0  0  0  0  0  0  0  0  0  0  0
    5.5666   -0.8565   -0.7670 C   0  0  0  0  0  0  0  0  0  0  0  0
    7.7632   -0.3720    0.8831 C   0  0  0  0  0  0  0  0  0  0  0  0
    6.7744   -1.5130   -1.0031 C   0  0  0  0  0  0  0  0  0  0  0  0
    7.8728   -1.2707   -0.1780 C   0  0  0  0  0  0  0  0  0  0  0  0
   -4.7260    2.9849    1.3512 H   0  0  0  0  0  0  0  0  0  0  0  0
   -3.3083    2.1238   -2.5723 H   0  0  0  0  0  0  0  0  0  0  0  0
   -3.7212    3.8008   -0.7930 H   0  0  0  0  0  0  0  0  0  0  0  0
   -5.1599    2.8233   -1.0875 H   0  0  0  0  0  0  0  0  0  0  0  0
   -4.6519    0.5511    1.8901 H   0  0  0  0  0  0  0  0  0  0  0  0
   -5.7717    0.9265    0.5839 H   0  0  0  0  0  0  0  0  0  0  0  0
   -4.9498    0.4215   -1.8662 H   0  0  0  0  0  0  0  0  0  0  0  0
   -3.3621   -0.3082   -2.0495 H   0  0  0  0  0  0  0  0  0  0  0  0
   -2.4346    3.4168    1.5187 H   0  0  0  0  0  0  0  0  0  0  0  0
   -2.5745    1.8050    2.1927 H   0  0  0  0  0  0  0  0  0  0  0  0
   -1.0396    1.2925   -2.9220 H   0  0  0  0  0  0  0  0  0  0  0  0
   -2.2252   -1.8545   -0.9971 H   0  0  0  0  0  0  0  0  0  0  0  0
   -3.8679   -2.3911   -1.4157 H   0  0  0  0  0  0  0  0  0  0  0  0
    1.2276    1.1710   -2.1645 H   0  0  0  0  0  0  0  0  0  0  0  0
   -2.1991   -3.1213    2.0736 H   0  0  0  0  0  0  0  0  0  0  0  0
   -0.9428   -2.9808    0.8353 H   0  0  0  0  0  0  0  0  0  0  0  0
   -1.4566   -4.5588    1.4282 H   0  0  0  0  0  0  0  0  0  0  0  0
   -3.0331   -4.7490   -1.8826 H   0  0  0  0  0  0  0  0  0  0  0  0
   -1.3770   -4.2558   -1.5001 H   0  0  0  0  0  0  0  0  0  0  0  0
   -2.1103   -5.6260   -0.6527 H   0  0  0  0  0  0  0  0  0  0  0  0
   -4.9749   -4.1452   -0.1461 H   0  0  0  0  0  0  0  0  0  0  0  0
   -4.4814   -3.8044    1.5214 H   0  0  0  0  0  0  0  0  0  0  0  0
   -4.0376   -5.3111    0.7794 H   0  0  0  0  0  0  0  0  0  0  0  0
    2.2263    1.7699    1.3168 H   0  0  0  0  0  0  0  0  0  0  0  0
    4.2302    1.3503    1.3217 H   0  0  0  0  0  0  0  0  0  0  0  0
    6.4833    0.9824    1.9492 H   0  0  0  0  0  0  0  0  0  0  0  0
    4.7627   -1.0964   -1.4485 H   0  0  0  0  0  0  0  0  0  0  0  0
    8.6184   -0.1834    1.5254 H   0  0  0  0  0  0  0  0  0  0  0  0
    6.8612   -2.2131   -1.8290 H   0  0  0  0  0  0  0  0  0  0  0  0
    8.8133   -1.7819   -0.3618 H   0  0  0  0  0  0  0  0  0  0  0  0
  1 15  2  0  0  0  0
  2 17  2  0  0  0  0
  3 25  2  0  0  0  0
  4 11  1  0  0  0  0
  4 12  1  0  0  0  0
  4 15  1  0  0  0  0
  5 13  1  0  0  0  0
  5 14  1  0  0  0  0
  5 17  1  0  0  0  0
  6 20  1  0  0  0  0
  6 25  1  0  0  0  0
  6 55  1  0  0  0  0
  7 25  1  0  0  0  0
  7 26  1  0  0  0  0
  7 56  1  0  0  0  0
  8 10  1  0  0  0  0
  8 11  1  0  0  0  0
  8 13  1  0  0  0  0
  8 32  1  0  0  0  0
  9 10  1  0  0  0  0
  9 12  1  0  0  0  0
  9 14  1  0  0  0  0
  9 33  1  0  0  0  0
 10 34  1  0  0  0  0
 10 35  1  0  0  0  0
 11 36  1  0  0  0  0
 11 37  1  0  0  0  0
 12 38  1  0  0  0  0
 12 39  1  0  0  0  0
 13 40  1  0  0  0  0
 13 41  1  0  0  0  0
 14 16  2  0  0  0  0
 15 18  1  0  0  0  0
 16 21  1  0  0  0  0
 16 42  1  0  0  0  0
 17 20  1  0  0  0  0
 18 19  1  0  0  0  0
 18 43  1  0  0  0  0
 18 44  1  0  0  0  0
 19 22  1  0  0  0  0
 19 23  1  0  0  0  0
 19 24  1  0  0  0  0
 20 21  2  0  0  0  0
 21 45  1  0  0  0  0
 22 46  1  0  0  0  0
 22 47  1  0  0  0  0
 22 48  1  0  0  0  0
 23 49  1  0  0  0  0
 23 50  1  0  0  0  0
 23 51  1  0  0  0  0
 24 52  1  0  0  0  0
 24 53  1  0  0  0  0
 24 54  1  0  0  0  0
 26 27  2  0  0  0  0
 26 28  1  0  0  0  0
 27 29  1  0  0  0  0
 27 57  1  0  0  0  0
 28 30  2  0  0  0  0
 28 58  1  0  0  0  0
 29 31  2  0  0  0  0
 29 59  1  0  0  0  0
 30 31  1  0  0  0  0
 30 60  1  0  0  0  0
 31 61  1  0  0  0  0
M  END
> <PUBCHEM_COMPOUND_CID>
40586222

> <PUBCHEM_CONFORMER_RMSD>
1

> <PUBCHEM_CONFORMER_DIVERSEORDER>
1
21
24
23
18
15
9
12
10
20
14
5
3
25
19
17
4
22
13
6
8
7
11
2
16

> <PUBCHEM_MMFF94_PARTIAL_CHARGES>
34
1 -0.57
11 0.3
12 0.3
13 0.3
14 -0.03
15 0.57
16 -0.15
17 0.62
18 0.06
2 -0.57
20 0.12
21 -0.15
25 0.69
26 0.12
27 -0.15
28 -0.15
29 -0.15
3 -0.57
30 -0.15
31 -0.15
4 -0.66
42 0.15
45 0.15
5 -0.47
55 0.37
56 0.37
57 0.15
58 0.15
59 0.15
6 -0.54
60 0.15
61 0.15
7 -0.55
9 0.14

> <PUBCHEM_EFFECTIVE_ROTOR_COUNT>
8

> <PUBCHEM_PHARMACOPHORE_FEATURES>
10
1 1 acceptor
1 2 acceptor
1 3 acceptor
1 6 donor
1 7 donor
4 19 22 23 24 hydrophobe
6 26 27 28 29 30 31 rings
6 4 8 9 10 11 12 rings
6 5 14 16 17 20 21 rings
6 5 8 9 10 13 14 rings

> <PUBCHEM_HEAVY_ATOM_COUNT>
31

> <PUBCHEM_ATOM_DEF_STEREO_COUNT>
2

> <PUBCHEM_ATOM_UDEF_STEREO_COUNT>
0

> <PUBCHEM_BOND_DEF_STEREO_COUNT>
0

> <PUBCHEM_BOND_UDEF_STEREO_COUNT>
0

> <PUBCHEM_ISOTOPIC_ATOM_COUNT>
0

> <PUBCHEM_COMPONENT_COUNT>
1

> <PUBCHEM_CACTVS_TAUTO_COUNT>
9

> <PUBCHEM_CONFORMER_ID>
026B4BEE00000001

> <PUBCHEM_MMFF94_ENERGY>
97.6115

> <PUBCHEM_FEATURE_SELFOVERLAP>
52.36

> <PUBCHEM_SHAPE_FINGERPRINT>
10319688 45 18333729117708395716
10391435 84 18339349860410336512
10940486 97 18186520994659793324
11315181 36 17703500021792321324
11477941 20 16588021308407412876
11524674 6 18341891853557133807
12643181 29 18408880712044818386
12712778 12 18411423933557621894
14114206 34 16298931156764130381
14251751 18 18409167753319983942
14461889 52 18201987847404470498
14725015 67 18267302217612030667
14844126 61 18339643438315178587
14856354 85 18413673504531343756
14866123 147 18338241561343322003
14950920 106 17488471943025347819
15021287 119 16950287308457493644
15183329 4 13262402138088840560
15230672 131 18117835500343147098
15348495 7 18272365395774889752
15352257 5 18337673006536544462
15439362 3 17542499437140790189
15484559 13 13562943504864256348
15510800 12 18341617056991370279
15799311 1 18337409153620284398
17627616 140 18188763929782480554
17780758 139 18413671313813003561
19611394 137 18131349744184104192
19958102 18 18334852771658325262
20771845 165 17391345213872092445
20771845 38 18340212891192127491
20775530 9 18046335603339492859
23428019 142 17603866749624153810
23466295 7 18262805202153044603
23516275 137 17828504478497011698
23559900 14 18341322370890624072
244849 19 17702645787878715362
249057 3 18187643574857641669
25019877 29 13840847465846630753
2838139 119 8718284411627287150
3383291 50 18413392055720328391
397830 11 18341602781379726464
4017518 198 18338229363382948743
4073 2 18343018870730258616
437795 96 18201165381920553974
4435113 14 18200610107358280470
445580 160 18411421700760229326
44802255 64 17459176414171871335
484985 159 18335132120726535695
5080951 261 18187910782094516268
6441014 3 18050003595452421154
68570916 9 18260829337357111700
70634741 139 18337394945926802968
9896288 288 18339653218335565537

> <PUBCHEM_SHAPE_MULTIPOLES>
600.43
17.09
4.82
1.57
45.65
6.78
0.06
5.89
-1.57
-9.38
-0.19
-0.63
-0.43
1.08

> <PUBCHEM_SHAPE_SELFOVERLAP>
1289.311

> <PUBCHEM_SHAPE_VOLUME>
323.8

> <PUBCHEM_COORDINATE_TYPE>
2
5
10

$$$$
