40781523
  -OEChem-12032416173D

 50 51  0     1  0  0  0  0  0999 V2000
    1.5141   -0.1276   -0.6128 O   0  0  0  0  0  0  0  0  0  0  0  0
    3.7020    2.4500    0.5992 O   0  0  0  0  0  0  0  0  0  0  0  0
    4.4580    0.4453   -1.1266 O   0  0  0  0  0  0  0  0  0  0  0  0
   -0.4846    1.2621   -1.7323 O   0  0  0  0  0  0  0  0  0  0  0  0
   -0.5346   -1.4345    1.0450 O   0  0  0  0  0  0  0  0  0  0  0  0
   -1.8016    2.3177   -0.1546 N   0  0  0  0  0  0  0  0  0  0  0  0
    1.2431   -2.7750    0.3992 N   0  0  0  0  0  0  0  0  0  0  0  0
   -0.8798   -3.5006    0.0472 N   0  0  0  0  0  0  0  0  0  0  0  0
    1.7907    1.2502   -0.3053 C   0  0  2  0  0  0  0  0  0  0  0  0
    2.9921    1.2302    0.6244 C   0  0  1  0  0  0  0  0  0  0  0  0
    3.7841    0.0633    0.0719 C   0  0  1  0  0  0  0  0  0  0  0  0
    2.6810   -0.9218   -0.2989 C   0  0  1  0  0  0  0  0  0  0  0  0
    0.5617    1.8929    0.3123 C   0  0  0  0  0  0  0  0  0  0  0  0
    2.3122   -1.8608    0.8416 C   0  0  0  0  0  0  0  0  0  0  0  0
   -0.6142    1.7876   -0.6254 C   0  0  0  0  0  0  0  0  0  0  0  0
   -3.0261    2.3008   -0.9415 C   0  0  0  0  0  0  0  0  0  0  0  0
   -2.0219    2.9479    1.1433 C   0  0  0  0  0  0  0  0  0  0  0  0
   -4.1201    2.6672    0.0494 C   0  0  0  0  0  0  0  0  0  0  0  0
   -3.3982    3.5873    1.0258 C   0  0  0  0  0  0  0  0  0  0  0  0
   -0.0902   -2.4679    0.5466 C   0  0  0  0  0  0  0  0  0  0  0  0
   -2.3230   -3.4612    0.0652 C   0  0  0  0  0  0  0  0  0  0  0  0
   -2.8892   -4.8667    0.2192 C   0  0  0  0  0  0  0  0  0  0  0  0
   -2.8552   -2.7864   -1.1930 C   0  0  0  0  0  0  0  0  0  0  0  0
    2.0390    1.7595   -1.2461 H   0  0  0  0  0  0  0  0  0  0  0  0
    2.6828    1.0216    1.6556 H   0  0  0  0  0  0  0  0  0  0  0  0
    4.5317   -0.3252    0.7693 H   0  0  0  0  0  0  0  0  0  0  0  0
    2.9308   -1.4985   -1.1972 H   0  0  0  0  0  0  0  0  0  0  0  0
    0.7621    2.9466    0.5313 H   0  0  0  0  0  0  0  0  0  0  0  0
    0.2952    1.3778    1.2426 H   0  0  0  0  0  0  0  0  0  0  0  0
    1.9476   -1.3129    1.7168 H   0  0  0  0  0  0  0  0  0  0  0  0
    3.1650   -2.4804    1.1347 H   0  0  0  0  0  0  0  0  0  0  0  0
   -3.1770    1.3223   -1.4070 H   0  0  0  0  0  0  0  0  0  0  0  0
   -2.9262    3.0561   -1.7288 H   0  0  0  0  0  0  0  0  0  0  0  0
   -1.2403    3.6776    1.3694 H   0  0  0  0  0  0  0  0  0  0  0  0
   -2.0092    2.1599    1.9042 H   0  0  0  0  0  0  0  0  0  0  0  0
   -4.4676    1.7695    0.5748 H   0  0  0  0  0  0  0  0  0  0  0  0
   -4.9815    3.1408   -0.4291 H   0  0  0  0  0  0  0  0  0  0  0  0
   -3.3103    4.5908    0.5921 H   0  0  0  0  0  0  0  0  0  0  0  0
   -3.9068    3.6731    1.9898 H   0  0  0  0  0  0  0  0  0  0  0  0
    4.5138    2.3254    1.1196 H   0  0  0  0  0  0  0  0  0  0  0  0
    4.9202   -0.3413   -1.4634 H   0  0  0  0  0  0  0  0  0  0  0  0
    1.5098   -3.6531   -0.0347 H   0  0  0  0  0  0  0  0  0  0  0  0
   -0.4212   -4.2801   -0.4147 H   0  0  0  0  0  0  0  0  0  0  0  0
   -2.6370   -2.8665    0.9315 H   0  0  0  0  0  0  0  0  0  0  0  0
   -3.9827   -4.8452    0.2700 H   0  0  0  0  0  0  0  0  0  0  0  0
   -2.5165   -5.3369    1.1359 H   0  0  0  0  0  0  0  0  0  0  0  0
   -2.5992   -5.5076   -0.6210 H   0  0  0  0  0  0  0  0  0  0  0  0
   -3.9488   -2.7355   -1.1775 H   0  0  0  0  0  0  0  0  0  0  0  0
   -2.4715   -1.7639   -1.2813 H   0  0  0  0  0  0  0  0  0  0  0  0
   -2.5508   -3.3305   -2.0941 H   0  0  0  0  0  0  0  0  0  0  0  0
  1  9  1  0  0  0  0
  1 12  1  0  0  0  0
  2 10  1  0  0  0  0
  2 40  1  0  0  0  0
  3 11  1  0  0  0  0
  3 41  1  0  0  0  0
  4 15  2  0  0  0  0
  5 20  2  0  0  0  0
  6 15  1  0  0  0  0
  6 16  1  0  0  0  0
  6 17  1  0  0  0  0
  7 14  1  0  0  0  0
  7 20  1  0  0  0  0
  7 42  1  0  0  0  0
  8 20  1  0  0  0  0
  8 21  1  0  0  0  0
  8 43  1  0  0  0  0
  9 10  1  0  0  0  0
  9 13  1  0  0  0  0
  9 24  1  0  0  0  0
 10 11  1  0  0  0  0
 10 25  1  0  0  0  0
 11 12  1  0  0  0  0
 11 26  1  0  0  0  0
 12 14  1  0  0  0  0
 12 27  1  0  0  0  0
 13 15  1  0  0  0  0
 13 28  1  0  0  0  0
 13 29  1  0  0  0  0
 14 30  1  0  0  0  0
 14 31  1  0  0  0  0
 16 18  1  0  0  0  0
 16 32  1  0  0  0  0
 16 33  1  0  0  0  0
 17 19  1  0  0  0  0
 17 34  1  0  0  0  0
 17 35  1  0  0  0  0
 18 19  1  0  0  0  0
 18 36  1  0  0  0  0
 18 37  1  0  0  0  0
 19 38  1  0  0  0  0
 19 39  1  0  0  0  0
 21 22  1  0  0  0  0
 21 23  1  0  0  0  0
 21 44  1  0  0  0  0
 22 45  1  0  0  0  0
 22 46  1  0  0  0  0
 22 47  1  0  0  0  0
 23 48  1  0  0  0  0
 23 49  1  0  0  0  0
 23 50  1  0  0  0  0
M  END
> <PUBCHEM_COMPOUND_CID>
40781523

> <PUBCHEM_CONFORMER_RMSD>
1

> <PUBCHEM_CONFORMER_DIVERSEORDER>
1
50
66
38
36
83
29
20
69
48
114
43
98
115
55
81
93
63
45
94
59
27
5
58
8
34
41
109
72
46
116
80
85
32
9
57
18
101
74
84
73
86
111
26
92
39
37
35
52
68
107
82
17
106
42
113
11
110
62
24
22
31
40
54
44
14
117
70
76
47
75
79
108
88
16
87
7
100
67
25
3
65
19
4
77
104
51
89
78
105
56
33
112
61
103
23
91
102
97
2
60
71
90
15
13
30
21
99
12
64
53
95
6
96
28
49
10

> <PUBCHEM_MMFF94_PARTIAL_CHARGES>
23
1 -0.56
10 0.28
11 0.28
12 0.28
13 0.06
14 0.3
15 0.57
16 0.3
17 0.3
2 -0.68
20 0.69
21 0.3
3 -0.68
4 -0.57
40 0.4
41 0.4
42 0.37
43 0.37
5 -0.57
6 -0.66
7 -0.73
8 -0.73
9 0.28

> <PUBCHEM_EFFECTIVE_ROTOR_COUNT>
10

> <PUBCHEM_PHARMACOPHORE_FEATURES>
12
1 1 acceptor
1 2 acceptor
1 2 donor
1 3 acceptor
1 3 donor
1 4 acceptor
1 5 acceptor
1 7 donor
1 8 donor
3 21 22 23 hydrophobe
5 1 9 10 11 12 rings
5 6 16 17 18 19 rings

> <PUBCHEM_HEAVY_ATOM_COUNT>
23

> <PUBCHEM_ATOM_DEF_STEREO_COUNT>
4

> <PUBCHEM_ATOM_UDEF_STEREO_COUNT>
0

> <PUBCHEM_BOND_DEF_STEREO_COUNT>
0

> <PUBCHEM_BOND_UDEF_STEREO_COUNT>
0

> <PUBCHEM_ISOTOPIC_ATOM_COUNT>
0

> <PUBCHEM_COMPONENT_COUNT>
1

> <PUBCHEM_CACTVS_TAUTO_COUNT>
3

> <PUBCHEM_CONFORMER_ID>
026E46D300000001

> <PUBCHEM_MMFF94_ENERGY>
43.4737

> <PUBCHEM_FEATURE_SELFOVERLAP>
60.975

> <PUBCHEM_SHAPE_FINGERPRINT>
10064457 181 18338802208576918444
104564 63 18335987579105715598
1100329 8 18194111920417587370
11646440 116 17830735717874969210
116883 192 18194403522599582222
12107183 9 10749845466021773727
12403259 226 17323787237494211127
12788726 201 18048309243906745392
13134695 92 17547005690102335854
13533116 47 17835801898880266825
138480 1 16969422912226773123
14466204 15 16248839923469103305
14863182 85 17616822028719450126
14866123 147 18410289168975819986
17138139 8 17912041111705049133
19930381 70 17401487048901560265
20028762 73 17910661082520118359
20645477 70 17683518442667666381
21197605 99 18264222339940152931
21304303 94 17908444471452299126
2255824 54 18049728421244636588
22620623 9 18124065470712033094
23558518 356 18261958565288387688
283562 15 18119247513780200480
5309563 4 16754373814022455039
5939293 188 17113535377266944170
59682541 52 17254242668335950053
59755656 520 18338516318784992244
6287921 2 17335047963645171499
6438718 38 18131062740846388431
6443956 14 17688307202295294791
653340 110 18340199816498885441
7097593 13 16901589641747171017
81228 2 18042685185969378656
8272917 22 17833557794914525401
9777508 108 18340481252900219528
9981440 41 17127007521929332368

> <PUBCHEM_SHAPE_MULTIPOLES>
429.04
7
6.51
1.12
0.6
9.95
-0.17
-6.42
0.05
5.5
0.87
0.31
-0.26
-0.93

> <PUBCHEM_SHAPE_SELFOVERLAP>
869.746

> <PUBCHEM_SHAPE_VOLUME>
251.5

> <PUBCHEM_COORDINATE_TYPE>
2
5
10

$$$$
