45784167
  -OEChem-12032416263D

 65 67  0     1  0  0  0  0  0999 V2000
   -5.6954    0.9064    0.5696 F   0  0  0  0  0  0  0  0  0  0  0  0
   -1.5706    0.4114    0.7623 O   0  0  0  0  0  0  0  0  0  0  0  0
    2.9862   -2.7530   -1.0668 O   0  0  0  0  0  0  0  0  0  0  0  0
    3.7243   -0.7981   -0.0808 N   0  0  0  0  0  0  0  0  0  0  0  0
   -2.0396    2.4433    1.5727 N   0  0  0  0  0  0  0  0  0  0  0  0
   -3.2302    1.8450    1.2044 N   0  0  0  0  0  0  0  0  0  0  0  0
    1.5571    0.8259   -1.3882 C   0  0  1  0  0  0  0  0  0  0  0  0
    3.0627    1.1866   -1.3344 C   0  0  1  0  0  0  0  0  0  0  0  0
    0.7005    2.0414   -1.0022 C   0  0  0  0  0  0  0  0  0  0  0  0
    1.0280    2.5601    0.4107 C   0  0  2  0  0  0  0  0  0  0  0  0
    1.1430    0.3181   -2.7727 C   0  0  0  0  0  0  0  0  0  0  0  0
    2.5217    2.6874    0.6316 C   0  0  0  0  0  0  0  0  0  0  0  0
    3.4159    2.0774   -0.1665 C   0  0  0  0  0  0  0  0  0  0  0  0
    3.9328   -0.0750   -1.2959 C   0  0  0  0  0  0  0  0  0  0  0  0
    0.3877    1.6753    1.4861 C   0  0  0  0  0  0  0  0  0  0  0  0
    0.8947    1.4901   -3.7169 C   0  0  0  0  0  0  0  0  0  0  0  0
   -0.0974   -0.5636   -2.6672 C   0  0  0  0  0  0  0  0  0  0  0  0
    2.9657    3.5700    1.7647 C   0  0  0  0  0  0  0  0  0  0  0  0
   -1.0985    1.5707    1.2971 C   0  0  0  0  0  0  0  0  0  0  0  0
    3.2564   -2.1123   -0.0506 C   0  0  0  0  0  0  0  0  0  0  0  0
    3.1044   -2.7104    1.3639 C   0  0  0  0  0  0  0  0  0  0  0  0
    2.1103   -1.8759    2.1856 C   0  0  0  0  0  0  0  0  0  0  0  0
    2.5651   -4.1482    1.2550 C   0  0  0  0  0  0  0  0  0  0  0  0
    4.4693   -2.7514    2.0679 C   0  0  0  0  0  0  0  0  0  0  0  0
   -2.9083    0.6615    0.7369 C   0  0  0  0  0  0  0  0  0  0  0  0
   -3.7329   -0.3889    0.2140 C   0  0  0  0  0  0  0  0  0  0  0  0
   -5.1169   -0.2279    0.1484 C   0  0  0  0  0  0  0  0  0  0  0  0
   -3.1470   -1.5747   -0.2288 C   0  0  0  0  0  0  0  0  0  0  0  0
   -5.9149   -1.2526   -0.3601 C   0  0  0  0  0  0  0  0  0  0  0  0
   -3.9451   -2.5997   -0.7371 C   0  0  0  0  0  0  0  0  0  0  0  0
   -5.3290   -2.4386   -0.8028 C   0  0  0  0  0  0  0  0  0  0  0  0
    1.3567    0.0326   -0.6578 H   0  0  0  0  0  0  0  0  0  0  0  0
    3.3387    1.7446   -2.2381 H   0  0  0  0  0  0  0  0  0  0  0  0
    0.9195    2.8830   -1.6737 H   0  0  0  0  0  0  0  0  0  0  0  0
   -0.3679    1.8417   -1.1205 H   0  0  0  0  0  0  0  0  0  0  0  0
    0.5869    3.5648    0.4827 H   0  0  0  0  0  0  0  0  0  0  0  0
    1.9348   -0.3029   -3.2040 H   0  0  0  0  0  0  0  0  0  0  0  0
    4.4770    2.2424    0.0109 H   0  0  0  0  0  0  0  0  0  0  0  0
    4.9946    0.1992   -1.3173 H   0  0  0  0  0  0  0  0  0  0  0  0
    3.7610   -0.7158   -2.1648 H   0  0  0  0  0  0  0  0  0  0  0  0
    0.5655    2.0938    2.4838 H   0  0  0  0  0  0  0  0  0  0  0  0
    0.8264    0.6730    1.4875 H   0  0  0  0  0  0  0  0  0  0  0  0
   -0.0316    2.0316   -3.4979 H   0  0  0  0  0  0  0  0  0  0  0  0
    0.7818    1.1097   -4.7398 H   0  0  0  0  0  0  0  0  0  0  0  0
    1.7292    2.1971   -3.7415 H   0  0  0  0  0  0  0  0  0  0  0  0
   -0.9646   -0.0162   -2.2856 H   0  0  0  0  0  0  0  0  0  0  0  0
    0.0837   -1.4175   -2.0055 H   0  0  0  0  0  0  0  0  0  0  0  0
   -0.3679   -0.9623   -3.6511 H   0  0  0  0  0  0  0  0  0  0  0  0
    2.5406    4.5728    1.6545 H   0  0  0  0  0  0  0  0  0  0  0  0
    4.0552    3.6771    1.8012 H   0  0  0  0  0  0  0  0  0  0  0  0
    2.6440    3.1581    2.7258 H   0  0  0  0  0  0  0  0  0  0  0  0
    3.9814   -0.3464    0.7909 H   0  0  0  0  0  0  0  0  0  0  0  0
    1.1540   -1.7769    1.6595 H   0  0  0  0  0  0  0  0  0  0  0  0
    2.4878   -0.8660    2.3774 H   0  0  0  0  0  0  0  0  0  0  0  0
    1.9133   -2.3397    3.1587 H   0  0  0  0  0  0  0  0  0  0  0  0
    3.2441   -4.7846    0.6756 H   0  0  0  0  0  0  0  0  0  0  0  0
    2.4432   -4.6045    2.2438 H   0  0  0  0  0  0  0  0  0  0  0  0
    1.5895   -4.1692    0.7553 H   0  0  0  0  0  0  0  0  0  0  0  0
    4.3994   -3.2566    3.0378 H   0  0  0  0  0  0  0  0  0  0  0  0
    5.2078   -3.2869    1.4603 H   0  0  0  0  0  0  0  0  0  0  0  0
    4.8663   -1.7472    2.2510 H   0  0  0  0  0  0  0  0  0  0  0  0
   -2.0730   -1.7387   -0.1933 H   0  0  0  0  0  0  0  0  0  0  0  0
   -6.9924   -1.1270   -0.4112 H   0  0  0  0  0  0  0  0  0  0  0  0
   -3.4892   -3.5232   -1.0820 H   0  0  0  0  0  0  0  0  0  0  0  0
   -5.9505   -3.2365   -1.1987 H   0  0  0  0  0  0  0  0  0  0  0  0
  1 27  1  0  0  0  0
  2 19  1  0  0  0  0
  2 25  1  0  0  0  0
  3 20  2  0  0  0  0
  4 14  1  0  0  0  0
  4 20  1  0  0  0  0
  4 52  1  0  0  0  0
  5  6  1  0  0  0  0
  5 19  2  0  0  0  0
  6 25  2  0  0  0  0
  7  8  1  0  0  0  0
  7  9  1  0  0  0  0
  7 11  1  0  0  0  0
  7 32  1  0  0  0  0
  8 13  1  0  0  0  0
  8 14  1  0  0  0  0
  8 33  1  0  0  0  0
  9 10  1  0  0  0  0
  9 34  1  0  0  0  0
  9 35  1  0  0  0  0
 10 12  1  0  0  0  0
 10 15  1  0  0  0  0
 10 36  1  0  0  0  0
 11 16  1  0  0  0  0
 11 17  1  0  0  0  0
 11 37  1  0  0  0  0
 12 13  2  0  0  0  0
 12 18  1  0  0  0  0
 13 38  1  0  0  0  0
 14 39  1  0  0  0  0
 14 40  1  0  0  0  0
 15 19  1  0  0  0  0
 15 41  1  0  0  0  0
 15 42  1  0  0  0  0
 16 43  1  0  0  0  0
 16 44  1  0  0  0  0
 16 45  1  0  0  0  0
 17 46  1  0  0  0  0
 17 47  1  0  0  0  0
 17 48  1  0  0  0  0
 18 49  1  0  0  0  0
 18 50  1  0  0  0  0
 18 51  1  0  0  0  0
 20 21  1  0  0  0  0
 21 22  1  0  0  0  0
 21 23  1  0  0  0  0
 21 24  1  0  0  0  0
 22 53  1  0  0  0  0
 22 54  1  0  0  0  0
 22 55  1  0  0  0  0
 23 56  1  0  0  0  0
 23 57  1  0  0  0  0
 23 58  1  0  0  0  0
 24 59  1  0  0  0  0
 24 60  1  0  0  0  0
 24 61  1  0  0  0  0
 25 26  1  0  0  0  0
 26 27  1  0  0  0  0
 26 28  2  0  0  0  0
 27 29  2  0  0  0  0
 28 30  1  0  0  0  0
 28 62  1  0  0  0  0
 29 31  1  0  0  0  0
 29 63  1  0  0  0  0
 30 31  2  0  0  0  0
 30 64  1  0  0  0  0
 31 65  1  0  0  0  0
M  END
> <PUBCHEM_COMPOUND_CID>
45784167

> <PUBCHEM_CONFORMER_RMSD>
1.2

> <PUBCHEM_CONFORMER_DIVERSEORDER>
1
9
124
23
31
118
33
95
146
110
164
79
177
43
4
151
19
26
70
18
125
66
115
50
69
94
127
63
132
156
175
139
131
46
176
153
32
89
40
20
128
168
163
73
81
74
149
8
104
60
100
145
123
121
56
135
42
51
61
154
29
28
178
166
78
21
65
57
68
47
170
38
167
113
133
25
76
141
34
147
75
129
7
159
58
109
53
83
88
86
71
55
24
134
152
98
130
16
138
117
136
97
157
3
14
108
35
116
105
161
173
72
48
101
126
27
99
102
93
174
148
155
120
162
150
171
144
2
103
62
142
12
85
52
6
106
143
91
49
39
59
15
119
165
77
37
45
114
13
160
17
92
10
172
11
96
122
158
107
137
64
90
112
82
5
140
87
41
84
169
67
30
80
22
36
54
111
44

> <PUBCHEM_MMFF94_PARTIAL_CHARGES>
29
1 -0.19
10 0.14
12 -0.28
13 -0.29
14 0.3
15 0.18
18 0.14
19 0.3
2 -0.28
20 0.57
21 0.06
25 0.43
26 0.05
27 0.19
28 -0.15
29 -0.15
3 -0.57
30 -0.15
31 -0.15
38 0.15
4 -0.73
5 -0.34
52 0.37
6 -0.34
62 0.15
63 0.15
64 0.15
65 0.15
8 0.14

> <PUBCHEM_EFFECTIVE_ROTOR_COUNT>
8.8

> <PUBCHEM_PHARMACOPHORE_FEATURES>
7
1 3 acceptor
1 4 donor
3 11 16 17 hydrophobe
4 21 22 23 24 hydrophobe
5 2 5 6 19 25 rings
6 26 27 28 29 30 31 rings
6 7 8 9 10 12 13 rings

> <PUBCHEM_HEAVY_ATOM_COUNT>
31

> <PUBCHEM_ATOM_DEF_STEREO_COUNT>
3

> <PUBCHEM_ATOM_UDEF_STEREO_COUNT>
0

> <PUBCHEM_BOND_DEF_STEREO_COUNT>
0

> <PUBCHEM_BOND_UDEF_STEREO_COUNT>
0

> <PUBCHEM_ISOTOPIC_ATOM_COUNT>
0

> <PUBCHEM_COMPONENT_COUNT>
1

> <PUBCHEM_CACTVS_TAUTO_COUNT>
2

> <PUBCHEM_CONFORMER_ID>
02BA9C6700000001

> <PUBCHEM_MMFF94_ENERGY>
61.5595

> <PUBCHEM_FEATURE_SELFOVERLAP>
35.522

> <PUBCHEM_SHAPE_FINGERPRINT>
11186622 123 18270115863398104915
11552529 35 17543903508940759250
11578080 2 18115292393982415860
11796584 16 18131079229441926789
12156800 1 15264221570374880390
13165053 137 13860770268522752739
13583140 156 18341600525577877860
13726171 33 17631192898939499625
14028597 1 16477914199371993940
14674994 50 17176577560130605830
14705955 166 16266855945924013000
17138139 8 18196663001889061782
18681886 176 17060350655670783396
19315092 285 18336533988876335882
20511986 3 18411133645381645565
20567600 347 18193552496431388712
20600515 1 17699848423612254208
20626108 58 18201444640171211256
20775530 9 17389953257910231074
21421861 104 18343022220050492851
21703447 108 18201712994207813169
23559900 14 17559978553300165077
25222932 49 17769089382782874463
3680242 22 18129963195238389499
444735 86 17839729697763958271
46194498 28 15793453805481561305
463206 1 18335147517688231451
484985 159 17035838933683459570
5081480 168 16733544910558905231
513532 50 16226326022725061716
59025328 239 17749385932127120342
66674814 147 17894351060014047962
6823239 73 17201950096247955740

> <PUBCHEM_SHAPE_MULTIPOLES>
604.01
10.78
4.55
2.69
16.36
2.51
-1.98
5.99
1.18
-4.9
2.41
-1.94
-0.83
-2.43

> <PUBCHEM_SHAPE_SELFOVERLAP>
1267.427

> <PUBCHEM_SHAPE_VOLUME>
344.6

> <PUBCHEM_COORDINATE_TYPE>
2
5
10

$$$$
