56775709
  -OEChem-12032416383D

 47 50  0     0  0  0  0  0  0999 V2000
    1.4786    3.9355    1.0757 O   0  0  0  0  0  0  0  0  0  0  0  0
   -3.5971    1.4892    0.0698 O   0  0  0  0  0  0  0  0  0  0  0  0
    6.3181   -0.7531    0.5606 O   0  0  0  0  0  0  0  0  0  0  0  0
    1.2167    1.0218    0.2796 N   0  0  0  0  0  0  0  0  0  0  0  0
   -2.5794    2.3810   -0.2465 N   0  0  0  0  0  0  0  0  0  0  0  0
   -5.3203   -0.3764    0.5602 N   0  0  0  0  0  0  0  0  0  0  0  0
    0.6824    2.3345   -0.0902 C   0  0  0  0  0  0  0  0  0  0  0  0
    1.8372    3.3254   -0.1851 C   0  0  0  0  0  0  0  0  0  0  0  0
    0.3109    3.0895    1.1811 C   0  0  0  0  0  0  0  0  0  0  0  0
   -0.3088    2.2666   -1.2112 C   0  0  0  0  0  0  0  0  0  0  0  0
    1.7992    0.3896   -0.9053 C   0  0  0  0  0  0  0  0  0  0  0  0
   -1.6003    1.6239   -0.7496 C   0  0  0  0  0  0  0  0  0  0  0  0
    2.8368   -0.6231   -0.5565 C   0  0  0  0  0  0  0  0  0  0  0  0
   -1.9398    0.2602   -0.7752 C   0  0  0  0  0  0  0  0  0  0  0  0
   -3.2043    0.2295   -0.2495 C   0  0  0  0  0  0  0  0  0  0  0  0
    4.1073   -0.2099   -0.1554 C   0  0  0  0  0  0  0  0  0  0  0  0
    2.5373   -1.9834   -0.6319 C   0  0  0  0  0  0  0  0  0  0  0  0
    5.0784   -1.1568    0.1703 C   0  0  0  0  0  0  0  0  0  0  0  0
   -4.1582   -0.8068    0.0199 C   0  0  0  0  0  0  0  0  0  0  0  0
    3.5083   -2.9304   -0.3065 C   0  0  0  0  0  0  0  0  0  0  0  0
    4.7788   -2.5172    0.0949 C   0  0  0  0  0  0  0  0  0  0  0  0
   -3.8791   -2.1340   -0.2634 C   0  0  0  0  0  0  0  0  0  0  0  0
   -4.8557   -3.0804    0.0261 C   0  0  0  0  0  0  0  0  0  0  0  0
   -6.2457   -1.3249    0.8279 C   0  0  0  0  0  0  0  0  0  0  0  0
   -6.0644   -2.6765    0.5822 C   0  0  0  0  0  0  0  0  0  0  0  0
    7.2632   -1.7739    0.8779 C   0  0  0  0  0  0  0  0  0  0  0  0
    1.7667    4.0554   -0.9988 H   0  0  0  0  0  0  0  0  0  0  0  0
    2.8609    2.9393   -0.1536 H   0  0  0  0  0  0  0  0  0  0  0  0
    0.3074    2.5265    2.1206 H   0  0  0  0  0  0  0  0  0  0  0  0
   -0.5948    3.7026    1.1385 H   0  0  0  0  0  0  0  0  0  0  0  0
    0.0579    1.7680   -2.1144 H   0  0  0  0  0  0  0  0  0  0  0  0
   -0.5540    3.2850   -1.5464 H   0  0  0  0  0  0  0  0  0  0  0  0
    0.5467    0.3881    0.7135 H   0  0  0  0  0  0  0  0  0  0  0  0
    2.2779    1.1135   -1.5790 H   0  0  0  0  0  0  0  0  0  0  0  0
    1.0170   -0.0964   -1.5004 H   0  0  0  0  0  0  0  0  0  0  0  0
   -1.3508   -0.5736   -1.1276 H   0  0  0  0  0  0  0  0  0  0  0  0
    4.3488    0.8484   -0.0954 H   0  0  0  0  0  0  0  0  0  0  0  0
    1.5512   -2.3206   -0.9403 H   0  0  0  0  0  0  0  0  0  0  0  0
    3.2739   -3.9894   -0.3650 H   0  0  0  0  0  0  0  0  0  0  0  0
    5.4848   -3.3053    0.3333 H   0  0  0  0  0  0  0  0  0  0  0  0
   -2.9371   -2.4528   -0.6972 H   0  0  0  0  0  0  0  0  0  0  0  0
   -4.6755   -4.1310   -0.1812 H   0  0  0  0  0  0  0  0  0  0  0  0
   -7.1706   -0.9582    1.2608 H   0  0  0  0  0  0  0  0  0  0  0  0
   -6.8400   -3.3967    0.8160 H   0  0  0  0  0  0  0  0  0  0  0  0
    8.1935   -1.2743    1.1675 H   0  0  0  0  0  0  0  0  0  0  0  0
    7.4923   -2.3954    0.0056 H   0  0  0  0  0  0  0  0  0  0  0  0
    6.9388   -2.3692    1.7381 H   0  0  0  0  0  0  0  0  0  0  0  0
  1  8  1  0  0  0  0
  1  9  1  0  0  0  0
  2  5  1  0  0  0  0
  2 15  1  0  0  0  0
  3 18  1  0  0  0  0
  3 26  1  0  0  0  0
  4  7  1  0  0  0  0
  4 11  1  0  0  0  0
  4 33  1  0  0  0  0
  5 12  2  0  0  0  0
  6 19  1  0  0  0  0
  6 24  2  0  0  0  0
  7  8  1  0  0  0  0
  7  9  1  0  0  0  0
  7 10  1  0  0  0  0
  8 27  1  0  0  0  0
  8 28  1  0  0  0  0
  9 29  1  0  0  0  0
  9 30  1  0  0  0  0
 10 12  1  0  0  0  0
 10 31  1  0  0  0  0
 10 32  1  0  0  0  0
 11 13  1  0  0  0  0
 11 34  1  0  0  0  0
 11 35  1  0  0  0  0
 12 14  1  0  0  0  0
 13 16  2  0  0  0  0
 13 17  1  0  0  0  0
 14 15  2  0  0  0  0
 14 36  1  0  0  0  0
 15 19  1  0  0  0  0
 16 18  1  0  0  0  0
 16 37  1  0  0  0  0
 17 20  2  0  0  0  0
 17 38  1  0  0  0  0
 18 21  2  0  0  0  0
 19 22  2  0  0  0  0
 20 21  1  0  0  0  0
 20 39  1  0  0  0  0
 21 40  1  0  0  0  0
 22 23  1  0  0  0  0
 22 41  1  0  0  0  0
 23 25  2  0  0  0  0
 23 42  1  0  0  0  0
 24 25  1  0  0  0  0
 24 43  1  0  0  0  0
 25 44  1  0  0  0  0
 26 45  1  0  0  0  0
 26 46  1  0  0  0  0
 26 47  1  0  0  0  0
M  END
> <PUBCHEM_COMPOUND_CID>
56775709

> <PUBCHEM_CONFORMER_RMSD>
1.2

> <PUBCHEM_CONFORMER_DIVERSEORDER>
1
33
54
66
53
37
23
49
69
89
15
51
90
87
84
44
91
34
83
56
39
31
86
70
20
28
50
26
92
55
43
64
24
52
60
22
3
85
74
82
61
75
63
29
8
38
62
32
17
80
73
21
48
19
36
30
81
9
65
11
67
78
27
59
79
77
16
76
40
35
13
47
88
72
71
58
14
46
45
5
18
41
68
25
6
57
10
42
7
2
4
12

> <PUBCHEM_MMFF94_PARTIAL_CHARGES>
36
1 -0.52
10 0.18
11 0.41
12 0.11
13 -0.14
14 -0.15
15 0.09
16 -0.15
17 -0.15
18 0.08
19 0.36
2 -0.02
20 -0.15
21 -0.15
22 -0.15
23 -0.15
24 0.16
25 -0.15
26 0.28
3 -0.36
33 0.36
36 0.15
37 0.15
38 0.15
39 0.15
4 -0.84
40 0.15
41 0.15
42 0.15
43 0.15
44 0.15
5 -0.41
6 -0.62
7 0.21
8 0.26
9 0.26

> <PUBCHEM_EFFECTIVE_ROTOR_COUNT>
7.8

> <PUBCHEM_PHARMACOPHORE_FEATURES>
10
1 1 acceptor
1 3 acceptor
1 4 cation
1 4 donor
1 5 acceptor
1 6 acceptor
4 1 7 8 9 rings
5 2 5 12 14 15 rings
6 13 16 17 18 20 21 rings
6 6 19 22 23 24 25 rings

> <PUBCHEM_HEAVY_ATOM_COUNT>
26

> <PUBCHEM_ATOM_DEF_STEREO_COUNT>
0

> <PUBCHEM_ATOM_UDEF_STEREO_COUNT>
0

> <PUBCHEM_BOND_DEF_STEREO_COUNT>
0

> <PUBCHEM_BOND_UDEF_STEREO_COUNT>
0

> <PUBCHEM_ISOTOPIC_ATOM_COUNT>
0

> <PUBCHEM_COMPONENT_COUNT>
1

> <PUBCHEM_CACTVS_TAUTO_COUNT>
1

> <PUBCHEM_CONFORMER_ID>
0362541D00000001

> <PUBCHEM_MMFF94_ENERGY>
72.878

> <PUBCHEM_FEATURE_SELFOVERLAP>
50.748

> <PUBCHEM_SHAPE_FINGERPRINT>
10483366 6 8790342066290831096
11070050 100 17342649299360012880
114674 6 18190459548573837155
11796584 16 18042678408220887308
11828532 37 17678469777795426131
11963148 33 17975973490343478674
12107183 9 18270414806581607601
12166972 35 17967255299870057030
12969540 37 18336825398144076940
12990986 174 18337390443967503663
13103583 49 18130804321412066433
13402501 40 18409168809444887771
13533116 47 18197504124606358819
13540713 4 18263061345402782717
13631057 29 18334576790166156674
13955234 65 18053947526406862617
14028597 1 17559128768251673008
14251751 18 18408605868286473335
14347329 18 9511452308543185118
14429380 30 18262238927441898467
14444916 359 17840292656766731392
14725015 67 18334010627519669603
14863182 85 17902796602053128637
14866123 147 18266745667502135121
15352361 1 18408887330309996287
15475509 84 18059871562435618857
15510800 12 17678181705769469731
15927050 60 17694783326405504876
16110190 28 18343865536742405983
17492 89 18192996135416975131
19315092 285 17630045095247852123
1979834 28 17489321775546606959
19841028 212 18122623023458927675
20165401 70 18122912190774910443
20567600 70 18409728469595259138
20775530 9 18335976532418032479
21033650 10 16226314942453594589
23559900 14 18335413634468812725
2747138 104 18271802390302904618
3117164 225 18271258149137834745
316301 35 18336547243445838331
329604 57 18334017190007632078
3421961 26 18339363084140036269
439807 62 18113622300507667839
5104073 3 18056215772462123115
54583773 228 18264217929558437974
5486654 36 18410299082044727665
613672 6 18199743657080856767
6431902 208 18409161104157482055
7970288 3 18337391535106026730

> <PUBCHEM_SHAPE_MULTIPOLES>
502.52
15.65
4.67
0.97
1.06
2.33
0.03
-18.56
4.56
0.39
0.7
0.12
0.33
0.57

> <PUBCHEM_SHAPE_SELFOVERLAP>
1090.936

> <PUBCHEM_SHAPE_VOLUME>
275.2

> <PUBCHEM_COORDINATE_TYPE>
2
5
10

$$$$
