26761900
  -OEChem-12032416353D

 52 57  0     1  0  0  0  0  0999 V2000
    1.0628   -2.0298    2.0270 O   0  0  0  0  0  0  0  0  0  0  0  0
    6.9441    0.6507    0.8223 O   0  0  0  0  0  0  0  0  0  0  0  0
    6.8217    1.5073   -1.4269 O   0  0  0  0  0  0  0  0  0  0  0  0
   -3.0128    5.5217   -1.3338 O   0  0  0  0  0  0  0  0  0  0  0  0
   -5.0000    5.3971   -0.2375 O   0  0  0  0  0  0  0  0  0  0  0  0
   -1.9928   -1.1727    0.4690 N   0  0  1  0  0  0  0  0  0  0  0  0
   -4.5870   -3.4924   -0.9295 N   0  0  0  0  0  0  0  0  0  0  0  0
   -2.8433   -4.7650   -1.5109 N   0  0  0  0  0  0  0  0  0  0  0  0
    1.1858   -1.1551   -0.0313 N   0  0  0  0  0  0  0  0  0  0  0  0
    2.3532   -1.4985    1.9060 N   0  0  0  0  0  0  0  0  0  0  0  0
   -0.9975   -2.2720    0.7166 C   0  0  1  0  0  0  0  0  0  0  0  0
   -1.0352   -3.3778   -0.3973 C   0  0  0  0  0  0  0  0  0  0  0  0
   -3.3955   -1.6794    0.4269 C   0  0  0  0  0  0  0  0  0  0  0  0
   -3.4812   -2.8992   -0.4011 C   0  0  0  0  0  0  0  0  0  0  0  0
   -2.4293   -3.6990   -0.7640 C   0  0  0  0  0  0  0  0  0  0  0  0
   -1.9201   -0.1137    1.4848 C   0  0  0  0  0  0  0  0  0  0  0  0
    0.4427   -1.7853    0.8430 C   0  0  0  0  0  0  0  0  0  0  0  0
   -2.4389    1.2000    0.9632 C   0  0  0  0  0  0  0  0  0  0  0  0
   -4.1509   -4.6142   -1.5905 C   0  0  0  0  0  0  0  0  0  0  0  0
   -3.7034    1.6507    1.3423 C   0  0  0  0  0  0  0  0  0  0  0  0
   -1.6550    1.9661    0.1006 C   0  0  0  0  0  0  0  0  0  0  0  0
    2.3486   -1.0008    0.6659 C   0  0  0  0  0  0  0  0  0  0  0  0
    3.4889   -0.3453    0.0934 C   0  0  0  0  0  0  0  0  0  0  0  0
   -4.1837    2.8677    0.8587 C   0  0  0  0  0  0  0  0  0  0  0  0
   -2.1353    3.1830   -0.3828 C   0  0  0  0  0  0  0  0  0  0  0  0
   -3.3996    3.6339   -0.0038 C   0  0  0  0  0  0  0  0  0  0  0  0
    4.6598   -0.2101    0.8430 C   0  0  0  0  0  0  0  0  0  0  0  0
    3.4173    0.1546   -1.2188 C   0  0  0  0  0  0  0  0  0  0  0  0
    5.7301    0.4271    0.2494 C   0  0  0  0  0  0  0  0  0  0  0  0
    5.6602    0.9163   -1.0349 C   0  0  0  0  0  0  0  0  0  0  0  0
    4.5160    0.7956   -1.7965 C   0  0  0  0  0  0  0  0  0  0  0  0
   -3.9001    4.9033   -0.5072 C   0  0  0  0  0  0  0  0  0  0  0  0
    7.6307    1.3351   -0.2455 C   0  0  0  0  0  0  0  0  0  0  0  0
   -1.2682   -2.7514    1.6699 H   0  0  0  0  0  0  0  0  0  0  0  0
   -0.5181   -4.2777   -0.0441 H   0  0  0  0  0  0  0  0  0  0  0  0
   -0.5118   -3.0309   -1.2976 H   0  0  0  0  0  0  0  0  0  0  0  0
   -4.0552   -0.9154    0.0009 H   0  0  0  0  0  0  0  0  0  0  0  0
   -3.7560   -1.9232    1.4348 H   0  0  0  0  0  0  0  0  0  0  0  0
   -0.8876    0.0864    1.7959 H   0  0  0  0  0  0  0  0  0  0  0  0
   -2.4305   -0.4015    2.4142 H   0  0  0  0  0  0  0  0  0  0  0  0
   -5.5446   -3.1759   -0.8500 H   0  0  0  0  0  0  0  0  0  0  0  0
   -4.8354   -5.2729   -2.1058 H   0  0  0  0  0  0  0  0  0  0  0  0
   -4.3245    1.0633    2.0133 H   0  0  0  0  0  0  0  0  0  0  0  0
   -0.6682    1.6249   -0.2016 H   0  0  0  0  0  0  0  0  0  0  0  0
   -5.1715    3.2013    1.1659 H   0  0  0  0  0  0  0  0  0  0  0  0
   -1.4918    3.7473   -1.0519 H   0  0  0  0  0  0  0  0  0  0  0  0
    4.7555   -0.5817    1.8580 H   0  0  0  0  0  0  0  0  0  0  0  0
    2.5122    0.0566   -1.8139 H   0  0  0  0  0  0  0  0  0  0  0  0
    4.4652    1.1827   -2.8078 H   0  0  0  0  0  0  0  0  0  0  0  0
    8.5246    0.7601   -0.5131 H   0  0  0  0  0  0  0  0  0  0  0  0
    7.9420    2.3227    0.1137 H   0  0  0  0  0  0  0  0  0  0  0  0
   -3.3596    6.3766   -1.6676 H   0  0  0  0  0  0  0  0  0  0  0  0
  1 10  1  0  0  0  0
  1 17  1  0  0  0  0
  2 29  1  0  0  0  0
  2 33  1  0  0  0  0
  3 30  1  0  0  0  0
  3 33  1  0  0  0  0
  4 32  1  0  0  0  0
  4 52  1  0  0  0  0
  5 32  2  0  0  0  0
  6 11  1  0  0  0  0
  6 13  1  0  0  0  0
  6 16  1  0  0  0  0
  7 14  1  0  0  0  0
  7 19  1  0  0  0  0
  7 41  1  0  0  0  0
  8 15  1  0  0  0  0
  8 19  2  0  0  0  0
  9 17  2  0  0  0  0
  9 22  1  0  0  0  0
 10 22  2  0  0  0  0
 11 12  1  0  0  0  0
 11 17  1  0  0  0  0
 11 34  1  0  0  0  0
 12 15  1  0  0  0  0
 12 35  1  0  0  0  0
 12 36  1  0  0  0  0
 13 14  1  0  0  0  0
 13 37  1  0  0  0  0
 13 38  1  0  0  0  0
 14 15  2  0  0  0  0
 16 18  1  0  0  0  0
 16 39  1  0  0  0  0
 16 40  1  0  0  0  0
 18 20  2  0  0  0  0
 18 21  1  0  0  0  0
 19 42  1  0  0  0  0
 20 24  1  0  0  0  0
 20 43  1  0  0  0  0
 21 25  2  0  0  0  0
 21 44  1  0  0  0  0
 22 23  1  0  0  0  0
 23 27  2  0  0  0  0
 23 28  1  0  0  0  0
 24 26  2  0  0  0  0
 24 45  1  0  0  0  0
 25 26  1  0  0  0  0
 25 46  1  0  0  0  0
 26 32  1  0  0  0  0
 27 29  1  0  0  0  0
 27 47  1  0  0  0  0
 28 31  2  0  0  0  0
 28 48  1  0  0  0  0
 29 30  2  0  0  0  0
 30 31  1  0  0  0  0
 31 49  1  0  0  0  0
 33 50  1  0  0  0  0
 33 51  1  0  0  0  0
M  END
> <PUBCHEM_COMPOUND_CID>
26761900

> <PUBCHEM_CONFORMER_RMSD>
1

> <PUBCHEM_CONFORMER_DIVERSEORDER>
1
43
4
36
59
62
49
21
9
11
46
33
25
39
42
28
44
27
35
45
15
38
31
50
51
12
30
41
40
18
20
19
47
58
26
5
48
37
52
57
34
22
56
16
54
29
24
55
17
6
60
10
14
61
3
23
13
7
32
8
53
2

> <PUBCHEM_MMFF94_PARTIAL_CHARGES>
43
1 -0.02
10 -0.41
11 0.45
12 0.18
13 0.45
14 -0.33
15 0.05
16 0.41
17 0.3
18 -0.14
19 0.04
2 -0.36
20 -0.15
21 -0.15
22 0.46
23 0.05
24 -0.15
25 -0.15
26 0.09
27 -0.15
28 -0.15
29 0.08
3 -0.36
30 0.08
31 -0.15
32 0.63
33 0.56
4 -0.65
41 0.27
42 0.15
43 0.15
44 0.15
45 0.15
46 0.15
47 0.15
48 0.15
49 0.15
5 -0.57
52 0.5
6 -0.81
7 0.03
8 -0.57
9 -0.57

> <PUBCHEM_EFFECTIVE_ROTOR_COUNT>
6.4

> <PUBCHEM_PHARMACOPHORE_FEATURES>
15
1 2 acceptor
1 3 acceptor
1 4 acceptor
1 5 acceptor
1 6 cation
1 7 donor
3 4 5 32 anion
3 7 8 19 cation
3 9 10 22 cation
5 1 9 10 17 22 rings
5 2 3 29 30 33 rings
5 7 8 14 15 19 rings
6 18 20 21 24 25 26 rings
6 23 27 28 29 30 31 rings
6 6 11 12 13 14 15 rings

> <PUBCHEM_HEAVY_ATOM_COUNT>
33

> <PUBCHEM_ATOM_DEF_STEREO_COUNT>
1

> <PUBCHEM_ATOM_UDEF_STEREO_COUNT>
0

> <PUBCHEM_BOND_DEF_STEREO_COUNT>
0

> <PUBCHEM_BOND_UDEF_STEREO_COUNT>
0

> <PUBCHEM_ISOTOPIC_ATOM_COUNT>
0

> <PUBCHEM_COMPONENT_COUNT>
1

> <PUBCHEM_CACTVS_TAUTO_COUNT>
2

> <PUBCHEM_CONFORMER_ID>
01985AAC00000001

> <PUBCHEM_MMFF94_ENERGY>
79.6062

> <PUBCHEM_FEATURE_SELFOVERLAP>
76.436

> <PUBCHEM_SHAPE_FINGERPRINT>
10290309 65 18197793106220330843
10673678 19 17905608796678970049
10864689 126 18193845847500022996
10871710 139 18335988640083983251
10937287 8 18195246603247317273
11101153 10 18122348145108209384
11477941 20 18126561456253376100
12107698 1 18196654214733672412
12788726 201 18337099163934559947
13540713 5 18189038846829160706
13617811 41 18197777919333056623
13782708 43 17417538042051893750
13911987 19 18127691531212069049
14068700 675 18191862542389950934
14114206 34 18197192940761230607
14114211 80 18055361240751958657
14294032 229 18412549795046915033
14556957 393 18190746525234661094
14910302 57 17844832397947168462
15064981 113 18201710713980917454
15198563 99 18341327911724749975
15419008 42 17844819092639483246
15420108 30 18262514767494739796
15448158 71 18188225203718570584
15705408 1 17475208667962940351
15876981 60 18265619968741370215
16087824 20 18412261749825522723
16992828 155 18187929439006163877
17686467 74 17840868792189317514
19309040 13 17695628455600185445
21033650 10 18192739863403212246
21792964 463 17821452357050481631
21927370 108 18122077656547572907
23191077 185 18336260133377382666
23516275 100 17619062176651910664
23929065 36 18268975631211464400
249057 25 18114738344007469410
255183 313 18198931196035631521
255183 451 17481417601625454727
3388396 114 17687759645610794732
3418910 222 17759816132005744624
376196 1 17683812008309313137
4066623 53 18052808432296702421
4353968 344 18341610452191472942
44249763 50 18272364287536157944
46194498 28 17345195708956282872
508706 21 18341603871789768792
5171179 24 18057040431293915192
5219985 13 18264493871318876241
563151 74 15575267693149888561
563151 97 18334580170437774858
57591035 28 18191848224077178389
6058803 2 18189596281617604978
6371009 1 18043247041180971172
6608658 132 18336827592940904255
6677587 24 17177397830455465845
6700243 42 17699041627001184342
6898599 12 18410292480210638053
7808743 9 18410012100671978408

> <PUBCHEM_SHAPE_MULTIPOLES>
624.87
15.14
7.57
1.56
32.31
4.36
0.04
8.83
-3.47
-20.05
-3.87
0.36
-0.53
-2.5

> <PUBCHEM_SHAPE_SELFOVERLAP>
1404.033

> <PUBCHEM_SHAPE_VOLUME>
329.6

> <PUBCHEM_COORDINATE_TYPE>
2
5
10

$$$$
