75537014
  -OEChem-12032416313D

 45 48  0     1  0  0  0  0  0999 V2000
    2.3641   -2.7451    0.3437 O   0  0  0  0  0  0  0  0  0  0  0  0
   -4.5210   -1.6191   -0.0306 O   0  0  0  0  0  0  0  0  0  0  0  0
   -3.5293    1.4053    0.8998 O   0  0  0  0  0  0  0  0  0  0  0  0
    2.2210   -0.3998    0.1461 N   0  0  0  0  0  0  0  0  0  0  0  0
    0.3203   -1.5865    0.3136 N   0  0  0  0  0  0  0  0  0  0  0  0
   -2.2978   -1.0170   -0.4247 N   0  0  0  0  0  0  0  0  0  0  0  0
   -4.0700    2.6837    0.8335 N   0  0  0  0  0  0  0  0  0  0  0  0
   -0.1113   -0.1990    0.3288 C   0  0  1  0  0  0  0  0  0  0  0  0
    3.6134   -0.0411    0.0248 C   0  0  0  0  0  0  0  0  0  0  0  0
    1.1591    0.5804    0.0002 C   0  0  0  0  0  0  0  0  0  0  0  0
    3.8802    0.6504   -1.3148 C   0  0  0  0  0  0  0  0  0  0  0  0
    4.0455    0.8377    1.2011 C   0  0  0  0  0  0  0  0  0  0  0  0
   -1.2594    0.0064   -0.6542 C   0  0  0  0  0  0  0  0  0  0  0  0
    1.7164   -1.7085    0.2799 C   0  0  0  0  0  0  0  0  0  0  0  0
   -0.6613   -2.6504    0.4356 C   0  0  0  0  0  0  0  0  0  0  0  0
    5.3373    1.0872   -1.4414 C   0  0  0  0  0  0  0  0  0  0  0  0
    5.5020    1.2759    1.0709 C   0  0  0  0  0  0  0  0  0  0  0  0
    5.7665    1.9616   -0.2666 C   0  0  0  0  0  0  0  0  0  0  0  0
   -1.8226   -2.4040   -0.5259 C   0  0  0  0  0  0  0  0  0  0  0  0
   -3.6484   -0.7649   -0.1784 C   0  0  0  0  0  0  0  0  0  0  0  0
   -4.0823    0.6339   -0.0709 C   0  0  0  0  0  0  0  0  0  0  0  0
   -4.9854    1.3728   -0.7884 C   0  0  0  0  0  0  0  0  0  0  0  0
   -4.9370    2.6401   -0.1821 C   0  0  0  0  0  0  0  0  0  0  0  0
   -0.4411    0.0177    1.3529 H   0  0  0  0  0  0  0  0  0  0  0  0
    4.2011   -0.9676    0.0574 H   0  0  0  0  0  0  0  0  0  0  0  0
    1.1486    0.9465   -1.0309 H   0  0  0  0  0  0  0  0  0  0  0  0
    1.2984    1.4203    0.6854 H   0  0  0  0  0  0  0  0  0  0  0  0
    3.6231   -0.0206   -2.1434 H   0  0  0  0  0  0  0  0  0  0  0  0
    3.2513    1.5420   -1.4266 H   0  0  0  0  0  0  0  0  0  0  0  0
    3.4203    1.7362    1.2667 H   0  0  0  0  0  0  0  0  0  0  0  0
    3.9084    0.2955    2.1447 H   0  0  0  0  0  0  0  0  0  0  0  0
   -1.6462    1.0242   -0.5886 H   0  0  0  0  0  0  0  0  0  0  0  0
   -0.9163   -0.1356   -1.6871 H   0  0  0  0  0  0  0  0  0  0  0  0
   -1.0163   -2.6375    1.4723 H   0  0  0  0  0  0  0  0  0  0  0  0
   -0.1863   -3.6183    0.2488 H   0  0  0  0  0  0  0  0  0  0  0  0
    5.4782    1.6355   -2.3798 H   0  0  0  0  0  0  0  0  0  0  0  0
    5.9807    0.2001   -1.4903 H   0  0  0  0  0  0  0  0  0  0  0  0
    6.1557    0.4002    1.1674 H   0  0  0  0  0  0  0  0  0  0  0  0
    5.7574    1.9563    1.8910 H   0  0  0  0  0  0  0  0  0  0  0  0
    6.8324    2.1999   -0.3543 H   0  0  0  0  0  0  0  0  0  0  0  0
    5.2220    2.9132   -0.3023 H   0  0  0  0  0  0  0  0  0  0  0  0
   -1.4961   -2.5529   -1.5622 H   0  0  0  0  0  0  0  0  0  0  0  0
   -2.6320   -3.1133   -0.3276 H   0  0  0  0  0  0  0  0  0  0  0  0
   -5.5881    1.0471   -1.6230 H   0  0  0  0  0  0  0  0  0  0  0  0
   -5.4928    3.5312   -0.4342 H   0  0  0  0  0  0  0  0  0  0  0  0
  1 14  2  0  0  0  0
  2 20  2  0  0  0  0
  3  7  1  0  0  0  0
  3 21  1  0  0  0  0
  4  9  1  0  0  0  0
  4 10  1  0  0  0  0
  4 14  1  0  0  0  0
  5  8  1  0  0  0  0
  5 14  1  0  0  0  0
  5 15  1  0  0  0  0
  6 13  1  0  0  0  0
  6 19  1  0  0  0  0
  6 20  1  0  0  0  0
  7 23  2  0  0  0  0
  8 10  1  0  0  0  0
  8 13  1  0  0  0  0
  8 24  1  0  0  0  0
  9 11  1  0  0  0  0
  9 12  1  0  0  0  0
  9 25  1  0  0  0  0
 10 26  1  0  0  0  0
 10 27  1  0  0  0  0
 11 16  1  0  0  0  0
 11 28  1  0  0  0  0
 11 29  1  0  0  0  0
 12 17  1  0  0  0  0
 12 30  1  0  0  0  0
 12 31  1  0  0  0  0
 13 32  1  0  0  0  0
 13 33  1  0  0  0  0
 15 19  1  0  0  0  0
 15 34  1  0  0  0  0
 15 35  1  0  0  0  0
 16 18  1  0  0  0  0
 16 36  1  0  0  0  0
 16 37  1  0  0  0  0
 17 18  1  0  0  0  0
 17 38  1  0  0  0  0
 17 39  1  0  0  0  0
 18 40  1  0  0  0  0
 18 41  1  0  0  0  0
 19 42  1  0  0  0  0
 19 43  1  0  0  0  0
 20 21  1  0  0  0  0
 21 22  2  0  0  0  0
 22 23  1  0  0  0  0
 22 44  1  0  0  0  0
 23 45  1  0  0  0  0
M  END
> <PUBCHEM_COMPOUND_CID>
75537014

> <PUBCHEM_CONFORMER_RMSD>
0.8

> <PUBCHEM_CONFORMER_DIVERSEORDER>
1
65
35
49
63
25
22
58
29
41
66
64
36
68
46
20
43
44
57
39
42
3
15
47
62
48
21
51
33
17
12
8
61
45
19
34
67
16
11
28
4
50
55
31
2
69
23
26
27
32
53
7
5
56
14
24
30
10
38
40
52
9
60
6
13
37
18
54
59

> <PUBCHEM_MMFF94_PARTIAL_CHARGES>
20
1 -0.57
10 0.3
13 0.3
14 0.69
15 0.3
19 0.3
2 -0.57
20 0.71
21 0.05
22 -0.15
23 0.14
3 -0.02
4 -0.66
44 0.15
45 0.15
5 -0.66
6 -0.66
7 -0.41
8 0.3
9 0.3

> <PUBCHEM_EFFECTIVE_ROTOR_COUNT>
5.4

> <PUBCHEM_PHARMACOPHORE_FEATURES>
7
1 1 acceptor
1 2 acceptor
1 7 acceptor
5 3 7 21 22 23 rings
5 4 5 8 10 14 rings
6 5 6 8 13 15 19 rings
6 9 11 12 16 17 18 rings

> <PUBCHEM_HEAVY_ATOM_COUNT>
23

> <PUBCHEM_ATOM_DEF_STEREO_COUNT>
1

> <PUBCHEM_ATOM_UDEF_STEREO_COUNT>
0

> <PUBCHEM_BOND_DEF_STEREO_COUNT>
0

> <PUBCHEM_BOND_UDEF_STEREO_COUNT>
0

> <PUBCHEM_ISOTOPIC_ATOM_COUNT>
0

> <PUBCHEM_COMPONENT_COUNT>
1

> <PUBCHEM_CACTVS_TAUTO_COUNT>
1

> <PUBCHEM_CONFORMER_ID>
04809A7600000001

> <PUBCHEM_MMFF94_ENERGY>
41.6923

> <PUBCHEM_FEATURE_SELFOVERLAP>
35.621

> <PUBCHEM_SHAPE_FINGERPRINT>
10378564 45 18059582348032536540
10411042 1 17690277536002623231
10498660 4 18272373066132760856
10670039 82 18408890637661674340
12236239 1 17822284734787134784
12390115 104 18342186557054169465
12422481 6 17385997330784188172
12596602 18 17240201049353568881
12633257 1 15936699232409503769
12788726 201 18190168182715452539
12916748 109 18340491165536843907
12969540 114 17131830992959971790
13073987 5 18335699468393989818
13140716 1 17831298676624098731
13540713 5 18265594559704920395
14251764 38 18123750018022930296
14251764 75 18198352749682827521
14739800 52 18200574952691532456
14790565 3 18334862757346759108
14848178 96 18339078194316243712
14931854 50 18130498648774745773
15188451 53 11386369283033031753
15196674 1 18410008810648037851
15209294 21 18408881841061898717
15348495 7 12685094808290485596
1601671 61 18334857216875669052
17959699 21 18413672418025403784
200 152 13758088406417565966
20739085 24 17968662588416589622
21279426 13 18272093764730956350
21304253 335 18333454235653599444
21421861 104 17823685387994259418
23559900 14 18057603157866961878
25147074 1 18264468672529791002
2838139 119 18272922808861280044
2916195 48 18200305645415368408
293599 30 18411139129886051253
312425 54 12108051276333282412
34797466 226 17346599715662686324
350125 39 18410294757260365817
474 4 18113622265614763787
5104073 3 18260829254934958699
5283173 99 18273218620792311240
59682541 52 17060061385285752380
6034566 193 17897186786369584476
6299153 45 18263637382315993386
633830 44 18339357444832581575
7064713 232 18333448750853989116
76465 3 10087635992247386543
7808743 9 18410289228962294241
960060 61 13758354488284170440
9981440 41 18334576862637724299

> <PUBCHEM_SHAPE_MULTIPOLES>
435.8
13.48
2.98
1.04
4.46
0.64
0.09
-11.05
0.89
-2.46
-0.31
1.01
-0.35
-0.58

> <PUBCHEM_SHAPE_SELFOVERLAP>
926.117

> <PUBCHEM_SHAPE_VOLUME>
241.6

> <PUBCHEM_COORDINATE_TYPE>
2
5
10

$$$$
