40777761
  -OEChem-12032416183D

 58 61  0     1  0  0  0  0  0999 V2000
   -6.5034   -2.6311    2.4069 Cl  0  0  0  0  0  0  0  0  0  0  0  0
    1.9831    1.2120    1.1492 O   0  0  0  0  0  0  0  0  0  0  0  0
    3.6111    1.8695   -0.3159 O   0  0  0  0  0  0  0  0  0  0  0  0
    8.6499   -2.2519   -0.7294 O   0  0  0  0  0  0  0  0  0  0  0  0
   -3.8705    0.5682   -0.5738 N   0  0  0  0  0  0  0  0  0  0  0  0
   -4.2857    1.5838   -1.3498 N   0  0  0  0  0  0  0  0  0  0  0  0
    3.7797   -0.1174    0.9104 N   0  0  0  0  0  0  0  0  0  0  0  0
   -1.0501    2.8146    0.0747 C   0  0  1  0  0  0  0  0  0  0  0  0
    0.2527    2.0811   -0.2970 C   0  0  0  0  0  0  0  0  0  0  0  0
    1.2375    2.3758    0.8381 C   0  0  1  0  0  0  0  0  0  0  0  0
   -2.2964    2.0634   -0.3348 C   0  0  0  0  0  0  0  0  0  0  0  0
   -0.9019    3.0106    1.5558 C   0  0  0  0  0  0  0  0  0  0  0  0
    0.3449    2.7643    1.9692 C   0  0  0  0  0  0  0  0  0  0  0  0
   -2.6843    0.8053    0.0565 C   0  0  0  0  0  0  0  0  0  0  0  0
   -3.3201    2.4944   -1.1997 C   0  0  0  0  0  0  0  0  0  0  0  0
   -2.0372   -0.1680    0.9597 C   0  0  0  0  0  0  0  0  0  0  0  0
   -3.4201    3.7806   -1.9119 C   0  0  0  0  0  0  0  0  0  0  0  0
   -4.6431   -0.5896   -0.4772 C   0  0  0  0  0  0  0  0  0  0  0  0
    3.1842    1.0582    0.4965 C   0  0  0  0  0  0  0  0  0  0  0  0
   -5.1370   -0.9982    0.7616 C   0  0  0  0  0  0  0  0  0  0  0  0
   -4.9207   -1.3394   -1.6205 C   0  0  0  0  0  0  0  0  0  0  0  0
   -5.9085   -2.1564    0.8576 C   0  0  0  0  0  0  0  0  0  0  0  0
   -5.6920   -2.4977   -1.5245 C   0  0  0  0  0  0  0  0  0  0  0  0
   -6.1861   -2.9061   -0.2855 C   0  0  0  0  0  0  0  0  0  0  0  0
    5.0173   -0.6592    0.4952 C   0  0  0  0  0  0  0  0  0  0  0  0
   -7.0078   -4.1532   -0.2245 C   0  0  0  0  0  0  0  0  0  0  0  0
    5.4632   -1.8695    1.0266 C   0  0  0  0  0  0  0  0  0  0  0  0
    5.7927    0.0164   -0.4473 C   0  0  0  0  0  0  0  0  0  0  0  0
    6.6840   -2.4044    0.6152 C   0  0  0  0  0  0  0  0  0  0  0  0
    7.0137   -0.5184   -0.8585 C   0  0  0  0  0  0  0  0  0  0  0  0
    7.4593   -1.7287   -0.3273 C   0  0  0  0  0  0  0  0  0  0  0  0
    9.3918   -1.5091   -1.6956 C   0  0  0  0  0  0  0  0  0  0  0  0
   -1.0548    3.8068   -0.3949 H   0  0  0  0  0  0  0  0  0  0  0  0
    0.1256    1.0040   -0.4534 H   0  0  0  0  0  0  0  0  0  0  0  0
    0.6436    2.4658   -1.2477 H   0  0  0  0  0  0  0  0  0  0  0  0
    1.8864    3.2296    0.6051 H   0  0  0  0  0  0  0  0  0  0  0  0
   -1.6987    3.3441    2.2060 H   0  0  0  0  0  0  0  0  0  0  0  0
    0.6779    2.8746    2.9912 H   0  0  0  0  0  0  0  0  0  0  0  0
   -2.5631   -0.2143    1.9186 H   0  0  0  0  0  0  0  0  0  0  0  0
   -2.0246   -1.1712    0.5205 H   0  0  0  0  0  0  0  0  0  0  0  0
   -1.0004    0.0845    1.1875 H   0  0  0  0  0  0  0  0  0  0  0  0
   -2.5574    3.9229   -2.5710 H   0  0  0  0  0  0  0  0  0  0  0  0
   -4.3233    3.8367   -2.5287 H   0  0  0  0  0  0  0  0  0  0  0  0
   -3.4500    4.6122   -1.2003 H   0  0  0  0  0  0  0  0  0  0  0  0
   -4.9402   -0.4073    1.6538 H   0  0  0  0  0  0  0  0  0  0  0  0
   -4.5400   -1.0382   -2.5934 H   0  0  0  0  0  0  0  0  0  0  0  0
   -5.8969   -3.0698   -2.4255 H   0  0  0  0  0  0  0  0  0  0  0  0
    3.2672   -0.6630    1.5990 H   0  0  0  0  0  0  0  0  0  0  0  0
   -6.5306   -4.8972    0.4218 H   0  0  0  0  0  0  0  0  0  0  0  0
   -8.0129   -3.9338    0.1508 H   0  0  0  0  0  0  0  0  0  0  0  0
   -7.1259   -4.6126   -1.2121 H   0  0  0  0  0  0  0  0  0  0  0  0
    4.8686   -2.4062    1.7615 H   0  0  0  0  0  0  0  0  0  0  0  0
    5.5120    0.9565   -0.9016 H   0  0  0  0  0  0  0  0  0  0  0  0
    7.0258   -3.3477    1.0323 H   0  0  0  0  0  0  0  0  0  0  0  0
    7.5661    0.0571   -1.5936 H   0  0  0  0  0  0  0  0  0  0  0  0
   10.3099   -2.0702   -1.8991 H   0  0  0  0  0  0  0  0  0  0  0  0
    9.6946   -0.5314   -1.3058 H   0  0  0  0  0  0  0  0  0  0  0  0
    8.8499   -1.4284   -2.6440 H   0  0  0  0  0  0  0  0  0  0  0  0
  1 22  1  0  0  0  0
  2 10  1  0  0  0  0
  2 19  1  0  0  0  0
  3 19  2  0  0  0  0
  4 31  1  0  0  0  0
  4 32  1  0  0  0  0
  5  6  1  0  0  0  0
  5 14  1  0  0  0  0
  5 18  1  0  0  0  0
  6 15  2  0  0  0  0
  7 19  1  0  0  0  0
  7 25  1  0  0  0  0
  7 48  1  0  0  0  0
  8  9  1  0  0  0  0
  8 11  1  0  0  0  0
  8 12  1  0  0  0  0
  8 33  1  0  0  0  0
  9 10  1  0  0  0  0
  9 34  1  0  0  0  0
  9 35  1  0  0  0  0
 10 13  1  0  0  0  0
 10 36  1  0  0  0  0
 11 14  2  0  0  0  0
 11 15  1  0  0  0  0
 12 13  2  0  0  0  0
 12 37  1  0  0  0  0
 13 38  1  0  0  0  0
 14 16  1  0  0  0  0
 15 17  1  0  0  0  0
 16 39  1  0  0  0  0
 16 40  1  0  0  0  0
 16 41  1  0  0  0  0
 17 42  1  0  0  0  0
 17 43  1  0  0  0  0
 17 44  1  0  0  0  0
 18 20  2  0  0  0  0
 18 21  1  0  0  0  0
 20 22  1  0  0  0  0
 20 45  1  0  0  0  0
 21 23  2  0  0  0  0
 21 46  1  0  0  0  0
 22 24  2  0  0  0  0
 23 24  1  0  0  0  0
 23 47  1  0  0  0  0
 24 26  1  0  0  0  0
 25 27  2  0  0  0  0
 25 28  1  0  0  0  0
 26 49  1  0  0  0  0
 26 50  1  0  0  0  0
 26 51  1  0  0  0  0
 27 29  1  0  0  0  0
 27 52  1  0  0  0  0
 28 30  2  0  0  0  0
 28 53  1  0  0  0  0
 29 31  2  0  0  0  0
 29 54  1  0  0  0  0
 30 31  1  0  0  0  0
 30 55  1  0  0  0  0
 32 56  1  0  0  0  0
 32 57  1  0  0  0  0
 32 58  1  0  0  0  0
M  END
> <PUBCHEM_COMPOUND_CID>
40777761

> <PUBCHEM_CONFORMER_RMSD>
1

> <PUBCHEM_CONFORMER_DIVERSEORDER>
1
83
93
131
127
47
45
187
87
50
58
24
112
188
84
126
182
62
96
133
108
154
153
114
64
142
110
85
88
158
77
113
19
124
179
172
185
69
166
105
144
3
104
177
41
122
138
180
141
71
99
121
97
134
76
67
103
54
117
107
183
52
181
147
174
156
95
152
165
149
119
101
159
111
118
171
55
91
129
163
22
173
86
30
130
106
72
161
16
20
148
168
184
175
123
120
155
70
98
178
28
40
167
60
34
186
57
61
43
89
90
143
81
140
48
14
162
73
146
37
79
2
56
100
157
59
139
75
63
80
29
68
4
23
132
137
39
102
32
94
25
46
135
145
116
27
164
176
136
35
170
53
8
82
125
49
21
115
6
15
128
33
66
160
10
169
51
17
26
109
150
42
38
65
9
92
78
36
151
13
31
7
18
11
44
12
74
5

> <PUBCHEM_MMFF94_PARTIAL_CHARGES>
41
1 -0.18
10 0.42
11 -0.18
12 -0.29
13 -0.29
14 -0.33
15 0.11
16 0.18
17 0.18
18 -0.02
19 0.78
2 -0.43
20 -0.15
21 -0.15
22 0.18
23 -0.15
24 -0.14
25 0.12
26 0.14
27 -0.15
28 -0.15
29 -0.15
3 -0.57
30 -0.15
31 0.08
32 0.28
37 0.15
38 0.15
4 -0.36
45 0.15
46 0.15
47 0.15
48 0.37
5 0.59
52 0.15
53 0.15
54 0.15
55 0.15
6 -0.71
7 -0.55
8 0.32

> <PUBCHEM_EFFECTIVE_ROTOR_COUNT>
7.6

> <PUBCHEM_PHARMACOPHORE_FEATURES>
8
1 3 acceptor
1 4 acceptor
1 6 acceptor
1 7 donor
5 5 6 11 14 15 rings
5 8 9 10 12 13 rings
6 18 20 21 22 23 24 rings
6 25 27 28 29 30 31 rings

> <PUBCHEM_HEAVY_ATOM_COUNT>
32

> <PUBCHEM_ATOM_DEF_STEREO_COUNT>
2

> <PUBCHEM_ATOM_UDEF_STEREO_COUNT>
0

> <PUBCHEM_BOND_DEF_STEREO_COUNT>
0

> <PUBCHEM_BOND_UDEF_STEREO_COUNT>
0

> <PUBCHEM_ISOTOPIC_ATOM_COUNT>
0

> <PUBCHEM_COMPONENT_COUNT>
1

> <PUBCHEM_CACTVS_TAUTO_COUNT>
2

> <PUBCHEM_CONFORMER_ID>
026E382100000001

> <PUBCHEM_MMFF94_ENERGY>
101.7338

> <PUBCHEM_FEATURE_SELFOVERLAP>
40.598

> <PUBCHEM_SHAPE_FINGERPRINT>
10119406 146 18337942421508683317
10280341 67 8214146218474518462
10533779 1 8430326705364252071
10883706 89 11455624149629510684
10930396 42 14189576334934033371
11059845 2 17630912451287920793
11135609 201 8646497349459268997
11421887 103 8934732049795046614
11497681 19 18410577293284260284
11621639 307 14057544705878125271
117089 54 18337112366700872939
11761917 116 18410576215005064326
11963148 33 18340761526035849126
12013929 27 18333735685409528942
12166972 35 18260831522688142636
12342043 65 18270671082399948177
12645989 146 18340205310063529447
13008946 119 10423001161791187133
131258 43 17896043298513909141
13540713 4 18268969012556987809
1361 4 18195806490636121787
1361 87 17677328459044972907
13690498 29 18333726905931814501
13757389 114 17897436204175388597
13782708 43 18410004459751059248
14420673 8 18341891897013241105
14931854 50 17894623760140353610
15064986 266 18040727956340457785
15183329 4 16805604725379651192
15467298 65 18049719616847134138
15803439 3 15285356228032918000
16067689 68 17632590365908636819
16120349 189 8286202742658881665
19246450 95 17774179915993161115
19438510 23 10015593813184837365
20505436 4 16953373487400496809
21095086 4 18339363075592734907
21130935 74 17909547604497485187
21196832 93 18261678155542843930
21223535 225 15141239850683871364
21307412 95 18336530669842614885
21344244 246 18262524805746674316
21682296 61 18337669849761962379
21796203 349 16988561351133671208
22899556 105 18114169865830759227
229767 8 18048035456996224619
23559900 14 18269255933594440856
23569943 247 18341051917375098987
24204213 62 17322684428128579684
24983565 74 17911225445687384319
25269216 80 16226046713467059123
255183 451 18262517108236533813
2747138 104 17846211125915107232
2748736 6 8358265829923070346
2838139 119 10881697814218736512
32027 91 18128242584136935711
3504750 166 17988640853007971655
3862424 121 17678471968091148419
3918712 181 11386359361970237446
393628 179 11963392989949224838
393628 194 8286204959210918979
397638 26 10663825174243645530
406291 66 18413670223303085398
4107672 100 17896033261681837773
4112364 45 11239738360981996741
4330586 98 17895766217620992546
437795 150 18335985285419281998
439807 62 18408323289402888949
474113 269 17844797265874128199
484985 159 18272651191425585345
484989 97 18342175562481158722
49967989 163 18126567825933215956
513202 73 18336260237168331679
5372103 7 10375325366541489291
54039377 194 18342182172103745342
5470011 282 17967817180197189238
5718773 13 18341327876737451735
58260988 114 18130516266667083225
59521506 201 9006518069087988951
6327066 14 7853577902440747072
636775 8 18272941488723694118
6691757 9 17915748570346443209
9980921 52 17341506890374455207
999808 66 17775002358811302836

> <PUBCHEM_SHAPE_MULTIPOLES>
627.86
25.31
4.96
1.77
43.61
0.59
0.21
-34.61
-6.69
-6.84
-0.17
-1.57
0.18
2.52

> <PUBCHEM_SHAPE_SELFOVERLAP>
1352.069

> <PUBCHEM_SHAPE_VOLUME>
348.6

> <PUBCHEM_COORDINATE_TYPE>
2
5
10

$$$$
