75536259
  -OEChem-12032416413D

 59 62  0     1  0  0  0  0  0999 V2000
   -6.7070   -0.7670    1.2195 F   0  0  0  0  0  0  0  0  0  0  0  0
    2.8141   -1.1770    0.8148 O   0  0  0  0  0  0  0  0  0  0  0  0
    5.6247   -1.2605    1.6988 O   0  0  0  0  0  0  0  0  0  0  0  0
   -1.2949   -1.7358   -1.7995 O   0  0  0  0  0  0  0  0  0  0  0  0
    1.6239    1.4024    1.0359 N   0  0  0  0  0  0  0  0  0  0  0  0
   -1.1451    4.1114   -0.7129 N   0  0  0  0  0  0  0  0  0  0  0  0
    0.0327   -2.0433   -2.0718 N   0  0  0  0  0  0  0  0  0  0  0  0
    3.6001   -0.0457    1.2117 C   0  0  1  0  0  0  0  0  0  0  0  0
    1.0718    2.6537    0.5217 C   0  0  0  0  0  0  0  0  0  0  0  0
    5.0796   -0.2414    0.8564 C   0  0  2  0  0  0  0  0  0  0  0  0
    3.0191    1.2514    0.6527 C   0  0  0  0  0  0  0  0  0  0  0  0
    2.9146   -1.5330   -0.5662 C   0  0  1  0  0  0  0  0  0  0  0  0
    5.2765   -0.6802   -0.5921 C   0  0  0  0  0  0  0  0  0  0  0  0
    4.3621   -1.8524   -0.9363 C   0  0  0  0  0  0  0  0  0  0  0  0
   -0.1887    3.0365    1.3012 C   0  0  0  0  0  0  0  0  0  0  0  0
    0.7479    2.5376   -0.9707 C   0  0  0  0  0  0  0  0  0  0  0  0
   -0.8377    4.2921    0.7127 C   0  0  0  0  0  0  0  0  0  0  0  0
    0.0683    3.8093   -1.4850 C   0  0  0  0  0  0  0  0  0  0  0  0
    2.0167   -2.7430   -0.7941 C   0  0  0  0  0  0  0  0  0  0  0  0
   -1.8094    5.2996   -1.2478 C   0  0  0  0  0  0  0  0  0  0  0  0
    0.5663   -2.3514   -0.8863 C   0  0  0  0  0  0  0  0  0  0  0  0
   -0.3675   -2.2569    0.1600 C   0  0  0  0  0  0  0  0  0  0  0  0
   -1.5210   -1.8666   -0.4673 C   0  0  0  0  0  0  0  0  0  0  0  0
   -2.8575   -1.5821   -0.0322 C   0  0  0  0  0  0  0  0  0  0  0  0
   -3.1896   -1.6910    1.3183 C   0  0  0  0  0  0  0  0  0  0  0  0
   -3.8258   -1.1976   -0.9596 C   0  0  0  0  0  0  0  0  0  0  0  0
   -4.4899   -1.4156    1.7412 C   0  0  0  0  0  0  0  0  0  0  0  0
   -5.1262   -0.9223   -0.5367 C   0  0  0  0  0  0  0  0  0  0  0  0
   -5.4581   -1.0312    0.8136 C   0  0  0  0  0  0  0  0  0  0  0  0
    3.5206   -0.0133    2.3063 H   0  0  0  0  0  0  0  0  0  0  0  0
    1.7962    3.4673    0.6686 H   0  0  0  0  0  0  0  0  0  0  0  0
    5.6451    0.6750    1.0583 H   0  0  0  0  0  0  0  0  0  0  0  0
    3.1206    1.2639   -0.4354 H   0  0  0  0  0  0  0  0  0  0  0  0
    3.6085    2.0922    1.0401 H   0  0  0  0  0  0  0  0  0  0  0  0
    2.5602   -0.6999   -1.1850 H   0  0  0  0  0  0  0  0  0  0  0  0
    6.3171   -0.9784   -0.7661 H   0  0  0  0  0  0  0  0  0  0  0  0
    5.0618    0.1569   -1.2665 H   0  0  0  0  0  0  0  0  0  0  0  0
    4.4449   -2.0860   -2.0039 H   0  0  0  0  0  0  0  0  0  0  0  0
    4.6993   -2.7374   -0.3818 H   0  0  0  0  0  0  0  0  0  0  0  0
    0.0558    3.2175    2.3553 H   0  0  0  0  0  0  0  0  0  0  0  0
   -0.9136    2.2111    1.2799 H   0  0  0  0  0  0  0  0  0  0  0  0
    0.0890    1.6767   -1.1490 H   0  0  0  0  0  0  0  0  0  0  0  0
    1.6535    2.3715   -1.5641 H   0  0  0  0  0  0  0  0  0  0  0  0
    1.5577    1.3897    2.0536 H   0  0  0  0  0  0  0  0  0  0  0  0
   -1.7622    4.4899    1.2688 H   0  0  0  0  0  0  0  0  0  0  0  0
   -0.1756    5.1549    0.8643 H   0  0  0  0  0  0  0  0  0  0  0  0
   -0.1931    3.6534   -2.5388 H   0  0  0  0  0  0  0  0  0  0  0  0
    0.7765    4.6475   -1.4453 H   0  0  0  0  0  0  0  0  0  0  0  0
    2.1353   -3.4704    0.0191 H   0  0  0  0  0  0  0  0  0  0  0  0
    2.2923   -3.2528   -1.7263 H   0  0  0  0  0  0  0  0  0  0  0  0
    6.5719   -1.3369    1.4923 H   0  0  0  0  0  0  0  0  0  0  0  0
   -2.0847    5.1469   -2.2973 H   0  0  0  0  0  0  0  0  0  0  0  0
   -1.1770    6.1924   -1.1832 H   0  0  0  0  0  0  0  0  0  0  0  0
   -2.7409    5.4966   -0.7054 H   0  0  0  0  0  0  0  0  0  0  0  0
   -0.2129   -2.4465    1.2122 H   0  0  0  0  0  0  0  0  0  0  0  0
   -2.4571   -1.9880    2.0644 H   0  0  0  0  0  0  0  0  0  0  0  0
   -3.6062   -1.1013   -2.0199 H   0  0  0  0  0  0  0  0  0  0  0  0
   -4.7492   -1.5002    2.7924 H   0  0  0  0  0  0  0  0  0  0  0  0
   -5.8807   -0.6229   -1.2581 H   0  0  0  0  0  0  0  0  0  0  0  0
  1 29  1  0  0  0  0
  2  8  1  0  0  0  0
  2 12  1  0  0  0  0
  3 10  1  0  0  0  0
  3 51  1  0  0  0  0
  4  7  1  0  0  0  0
  4 23  1  0  0  0  0
  5  9  1  0  0  0  0
  5 11  1  0  0  0  0
  5 44  1  0  0  0  0
  6 17  1  0  0  0  0
  6 18  1  0  0  0  0
  6 20  1  0  0  0  0
  7 21  2  0  0  0  0
  8 10  1  0  0  0  0
  8 11  1  0  0  0  0
  8 30  1  0  0  0  0
  9 15  1  0  0  0  0
  9 16  1  0  0  0  0
  9 31  1  0  0  0  0
 10 13  1  0  0  0  0
 10 32  1  0  0  0  0
 11 33  1  0  0  0  0
 11 34  1  0  0  0  0
 12 14  1  0  0  0  0
 12 19  1  0  0  0  0
 12 35  1  0  0  0  0
 13 14  1  0  0  0  0
 13 36  1  0  0  0  0
 13 37  1  0  0  0  0
 14 38  1  0  0  0  0
 14 39  1  0  0  0  0
 15 17  1  0  0  0  0
 15 40  1  0  0  0  0
 15 41  1  0  0  0  0
 16 18  1  0  0  0  0
 16 42  1  0  0  0  0
 16 43  1  0  0  0  0
 17 45  1  0  0  0  0
 17 46  1  0  0  0  0
 18 47  1  0  0  0  0
 18 48  1  0  0  0  0
 19 21  1  0  0  0  0
 19 49  1  0  0  0  0
 19 50  1  0  0  0  0
 20 52  1  0  0  0  0
 20 53  1  0  0  0  0
 20 54  1  0  0  0  0
 21 22  1  0  0  0  0
 22 23  2  0  0  0  0
 22 55  1  0  0  0  0
 23 24  1  0  0  0  0
 24 25  2  0  0  0  0
 24 26  1  0  0  0  0
 25 27  1  0  0  0  0
 25 56  1  0  0  0  0
 26 28  2  0  0  0  0
 26 57  1  0  0  0  0
 27 29  2  0  0  0  0
 27 58  1  0  0  0  0
 28 29  1  0  0  0  0
 28 59  1  0  0  0  0
M  END
> <PUBCHEM_COMPOUND_CID>
75536259

> <PUBCHEM_CONFORMER_RMSD>
1

> <PUBCHEM_CONFORMER_DIVERSEORDER>
1
81
130
101
134
42
31
137
57
111
92
115
95
38
44
89
83
141
152
51
25
47
142
133
122
104
102
138
120
105
96
118
99
63
94
33
117
10
91
58
132
112
93
9
72
87
77
28
74
109
107
55
86
52
15
76
148
78
119
29
146
22
82
49
121
129
139
59
50
98
73
144
14
70
43
35
85
56
68
131
127
100
79
151
150
65
18
23
116
80
114
34
11
3
149
136
143
123
106
125
37
113
97
24
88
48
53
84
67
13
41
32
2
145
62
26
124
40
46
8
4
110
45
126
103
5
108
12
90
140
27
135
30
69
128
20
19
147
39
66
60
64
17
61
75
54
36
71
7
6
21
16

> <PUBCHEM_MMFF94_PARTIAL_CHARGES>
32
1 -0.19
10 0.28
11 0.27
12 0.28
17 0.27
18 0.27
19 0.18
2 -0.56
20 0.27
21 0.11
22 -0.15
23 0.09
24 0.05
25 -0.15
26 -0.15
27 -0.15
28 -0.15
29 0.19
3 -0.68
4 -0.02
44 0.36
5 -0.9
51 0.4
55 0.15
56 0.15
57 0.15
58 0.15
59 0.15
6 -0.81
7 -0.41
8 0.28
9 0.27

> <PUBCHEM_EFFECTIVE_ROTOR_COUNT>
8.4

> <PUBCHEM_PHARMACOPHORE_FEATURES>
11
1 2 acceptor
1 3 acceptor
1 3 donor
1 5 cation
1 5 donor
1 6 cation
1 7 acceptor
5 4 7 21 22 23 rings
6 2 8 10 12 13 14 rings
6 24 25 26 27 28 29 rings
6 6 9 15 16 17 18 rings

> <PUBCHEM_HEAVY_ATOM_COUNT>
29

> <PUBCHEM_ATOM_DEF_STEREO_COUNT>
3

> <PUBCHEM_ATOM_UDEF_STEREO_COUNT>
0

> <PUBCHEM_BOND_DEF_STEREO_COUNT>
0

> <PUBCHEM_BOND_UDEF_STEREO_COUNT>
0

> <PUBCHEM_ISOTOPIC_ATOM_COUNT>
0

> <PUBCHEM_COMPONENT_COUNT>
1

> <PUBCHEM_CACTVS_TAUTO_COUNT>
1

> <PUBCHEM_CONFORMER_ID>
0480978300000001

> <PUBCHEM_MMFF94_ENERGY>
42.114

> <PUBCHEM_FEATURE_SELFOVERLAP>
55.823

> <PUBCHEM_SHAPE_FINGERPRINT>
10670039 82 18268448871095552126
10688039 33 18408043987595194930
11421498 54 18041274375233685282
11476731 47 17978215391243659855
12156800 1 17910429153948323388
12166972 35 18129662044911208811
12422481 6 18129115441207313843
12633257 1 18335137652117210587
12788726 201 18334579027796489330
13075007 39 18117290348401709579
13402501 40 18340198605682052581
13561361 72 18266744567099119736
14363568 33 18120384403886426469
150020 26 18194687205537961281
151778 21 17759533553048170649
15276724 80 18342455968216883932
16993438 75 18195235616768668037
17138139 8 17407910515663513852
18785283 64 18120665887996176243
20739085 24 18267024040926791608
20775438 99 17406242474977035135
21285901 2 18131360683033530678
21360442 67 17397542005609060109
21641784 216 18263386740767134628
21860390 5 18267309905223084583
469060 322 18188221887723840400
474 4 18130507534692984851
513202 73 18265621974786879402
5283268 108 18411139134571369578
550186 83 18188470463198433736
6086070 43 17972287820351888863

> <PUBCHEM_SHAPE_MULTIPOLES>
556.98
11.18
5.99
1.7
3.92
11.27
0.04
-9.07
-4.44
2.15
2.11
0.22
-0.02
1.23

> <PUBCHEM_SHAPE_SELFOVERLAP>
1175.704

> <PUBCHEM_SHAPE_VOLUME>
313.3

> <PUBCHEM_COORDINATE_TYPE>
2
5
10

$$$$
