7675200
  -OEChem-12032416353D

 44 46  0     1  0  0  0  0  0999 V2000
    0.9643    1.3361    1.9411 O   0  0  0  0  0  0  0  0  0  0  0  0
    2.6247   -2.6212    0.2615 O   0  0  0  0  0  0  0  0  0  0  0  0
   -4.0149   -1.6725   -1.3534 O   0  0  0  0  0  0  0  0  0  0  0  0
   -7.4419    1.6240   -0.1259 O   0  0  0  0  0  0  0  0  0  0  0  0
   -5.5036    2.5210    0.6504 O   0  0  0  0  0  0  0  0  0  0  0  0
    0.4524   -1.7962    0.5461 N   0  0  0  0  0  0  0  0  0  0  0  0
   -1.9259   -0.9585   -0.6319 N   0  0  0  0  0  0  0  0  0  0  0  0
    2.1572   -0.5436    1.2295 N   0  0  0  0  0  0  0  0  0  0  0  0
   -0.1901   -0.6114    1.0703 C   0  0  2  0  0  0  0  0  0  0  0  0
   -1.0481    0.0459   -0.0014 C   0  0  0  0  0  0  0  0  0  0  0  0
   -0.3598   -2.8021   -0.1144 C   0  0  0  0  0  0  0  0  0  0  0  0
   -1.2289   -2.1342   -1.1788 C   0  0  0  0  0  0  0  0  0  0  0  0
    1.0243    0.2063    1.4744 C   0  0  0  0  0  0  0  0  0  0  0  0
    1.8433   -1.7595    0.6432 C   0  0  0  0  0  0  0  0  0  0  0  0
    3.5046   -0.0842    1.5012 C   0  0  0  0  0  0  0  0  0  0  0  0
   -3.3069   -0.8407   -0.7803 C   0  0  0  0  0  0  0  0  0  0  0  0
   -3.9458    0.3904   -0.1891 C   0  0  0  0  0  0  0  0  0  0  0  0
    4.1035    0.6286    0.3234 C   0  0  0  0  0  0  0  0  0  0  0  0
   -5.4408    0.3636   -0.4364 C   0  0  0  0  0  0  0  0  0  0  0  0
    4.8172   -0.0927   -0.6266 C   0  0  0  0  0  0  0  0  0  0  0  0
    3.9379    2.0026    0.1941 C   0  0  0  0  0  0  0  0  0  0  0  0
   -6.1021    1.6163    0.0828 C   0  0  0  0  0  0  0  0  0  0  0  0
    5.3734    0.5693   -1.7211 C   0  0  0  0  0  0  0  0  0  0  0  0
    4.4941    2.6647   -0.9005 C   0  0  0  0  0  0  0  0  0  0  0  0
    5.2118    1.9479   -1.8581 C   0  0  0  0  0  0  0  0  0  0  0  0
   -0.7687   -0.8956    1.9554 H   0  0  0  0  0  0  0  0  0  0  0  0
   -1.6062    0.8786    0.4306 H   0  0  0  0  0  0  0  0  0  0  0  0
   -0.4256    0.4658   -0.8020 H   0  0  0  0  0  0  0  0  0  0  0  0
    0.2806   -3.5721   -0.5551 H   0  0  0  0  0  0  0  0  0  0  0  0
   -0.9867   -3.2666    0.6548 H   0  0  0  0  0  0  0  0  0  0  0  0
   -1.9394   -2.8575   -1.5903 H   0  0  0  0  0  0  0  0  0  0  0  0
   -0.6055   -1.7732   -2.0059 H   0  0  0  0  0  0  0  0  0  0  0  0
    3.4862    0.5811    2.3728 H   0  0  0  0  0  0  0  0  0  0  0  0
    4.1239   -0.9490    1.7686 H   0  0  0  0  0  0  0  0  0  0  0  0
   -3.7448    0.4193    0.8878 H   0  0  0  0  0  0  0  0  0  0  0  0
   -3.5059    1.2786   -0.6570 H   0  0  0  0  0  0  0  0  0  0  0  0
   -5.8974   -0.4957    0.0683 H   0  0  0  0  0  0  0  0  0  0  0  0
   -5.6531    0.2977   -1.5100 H   0  0  0  0  0  0  0  0  0  0  0  0
    4.9527   -1.1662   -0.5306 H   0  0  0  0  0  0  0  0  0  0  0  0
    3.3826    2.5724    0.9337 H   0  0  0  0  0  0  0  0  0  0  0  0
    5.9327    0.0115   -2.4665 H   0  0  0  0  0  0  0  0  0  0  0  0
    4.3686    3.7382   -1.0071 H   0  0  0  0  0  0  0  0  0  0  0  0
    5.6449    2.4634   -2.7103 H   0  0  0  0  0  0  0  0  0  0  0  0
   -7.8625    2.4378    0.2248 H   0  0  0  0  0  0  0  0  0  0  0  0
  1 13  2  0  0  0  0
  2 14  2  0  0  0  0
  3 16  2  0  0  0  0
  4 22  1  0  0  0  0
  4 44  1  0  0  0  0
  5 22  2  0  0  0  0
  6  9  1  0  0  0  0
  6 11  1  0  0  0  0
  6 14  1  0  0  0  0
  7 10  1  0  0  0  0
  7 12  1  0  0  0  0
  7 16  1  0  0  0  0
  8 13  1  0  0  0  0
  8 14  1  0  0  0  0
  8 15  1  0  0  0  0
  9 10  1  0  0  0  0
  9 13  1  0  0  0  0
  9 26  1  0  0  0  0
 10 27  1  0  0  0  0
 10 28  1  0  0  0  0
 11 12  1  0  0  0  0
 11 29  1  0  0  0  0
 11 30  1  0  0  0  0
 12 31  1  0  0  0  0
 12 32  1  0  0  0  0
 15 18  1  0  0  0  0
 15 33  1  0  0  0  0
 15 34  1  0  0  0  0
 16 17  1  0  0  0  0
 17 19  1  0  0  0  0
 17 35  1  0  0  0  0
 17 36  1  0  0  0  0
 18 20  2  0  0  0  0
 18 21  1  0  0  0  0
 19 22  1  0  0  0  0
 19 37  1  0  0  0  0
 19 38  1  0  0  0  0
 20 23  1  0  0  0  0
 20 39  1  0  0  0  0
 21 24  2  0  0  0  0
 21 40  1  0  0  0  0
 23 25  2  0  0  0  0
 23 41  1  0  0  0  0
 24 25  1  0  0  0  0
 24 42  1  0  0  0  0
 25 43  1  0  0  0  0
M  END
> <PUBCHEM_COMPOUND_CID>
7675200

> <PUBCHEM_CONFORMER_RMSD>
0.8

> <PUBCHEM_CONFORMER_DIVERSEORDER>
1
84
195
157
198
135
28
139
184
193
24
140
19
125
191
173
88
211
14
186
164
38
66
155
197
32
163
37
213
180
190
35
10
202
217
209
210
3
172
18
150
178
119
159
15
54
102
47
189
31
86
60
169
207
149
46
20
136
100
128
126
221
82
220
41
105
69
216
112
72
96
196
76
121
7
170
64
224
92
23
117
165
50
152
120
167
192
214
115
25
144
185
146
116
103
73
87
204
83
90
188
95
48
45
171
78
52
114
12
145
104
223
222
65
219
143
168
99
62
68
75
142
2
158
175
161
203
13
67
109
26
205
174
132
81
51
36
162
94
33
108
133
156
124
22
85
208
9
58
215
53
89
59
183
93
113
30
98
70
110
179
97
17
129
21
127
80
63
182
160
138
200
118
27
194
187
11
176
151
212
206
40
177
71
49
122
56
106
29
130
8
107
154
199
131
91
57
79
148
34
218
39
141
101
44
201
111
6
74
123
166
42
77
43
181
16
55
137
4
134
61
147
153
5

> <PUBCHEM_MMFF94_PARTIAL_CHARGES>
31
1 -0.57
10 0.3
11 0.3
12 0.3
13 0.57
14 0.69
15 0.44
16 0.57
17 0.06
18 -0.14
19 0.06
2 -0.57
20 -0.15
21 -0.15
22 0.66
23 -0.15
24 -0.15
25 -0.15
3 -0.57
39 0.15
4 -0.65
40 0.15
41 0.15
42 0.15
43 0.15
44 0.5
5 -0.57
6 -0.66
7 -0.66
8 -0.42
9 0.36

> <PUBCHEM_EFFECTIVE_ROTOR_COUNT>
7

> <PUBCHEM_PHARMACOPHORE_FEATURES>
9
1 1 acceptor
1 2 acceptor
1 3 acceptor
1 4 acceptor
1 5 acceptor
3 4 5 22 anion
5 6 8 9 13 14 rings
6 18 20 21 23 24 25 rings
6 6 7 9 10 11 12 rings

> <PUBCHEM_HEAVY_ATOM_COUNT>
25

> <PUBCHEM_ATOM_DEF_STEREO_COUNT>
1

> <PUBCHEM_ATOM_UDEF_STEREO_COUNT>
0

> <PUBCHEM_BOND_DEF_STEREO_COUNT>
0

> <PUBCHEM_BOND_UDEF_STEREO_COUNT>
0

> <PUBCHEM_ISOTOPIC_ATOM_COUNT>
0

> <PUBCHEM_COMPONENT_COUNT>
1

> <PUBCHEM_CACTVS_TAUTO_COUNT>
1

> <PUBCHEM_CONFORMER_ID>
00751D4000000001

> <PUBCHEM_MMFF94_ENERGY>
46.1522

> <PUBCHEM_FEATURE_SELFOVERLAP>
45.848

> <PUBCHEM_SHAPE_FINGERPRINT>
10378564 45 17560802117494908116
10498660 4 18116996800751464140
10554248 39 18194662814508429863
10670039 82 17988369165407511449
11578080 2 17168444717501875650
11796584 16 14045741542879679671
12390115 104 18202286909950751147
12596602 18 17385724669623908609
12633257 1 13479687746212700494
12788726 201 17703514285678775345
12892183 10 11314567867152043798
13955234 65 17168695324306179978
14251751 18 10159702374205029545
14251764 75 17823146798900701380
14347332 77 10015864280550751467
14790565 3 18411419505725868801
14840074 17 17967254208685081285
14848178 5 12607414299145724308
15052358 14 17561089102592971261
15183329 4 16630532812634519953
15188451 53 9799417693454280845
15210252 30 18336263543908956592
15238133 3 18342726430190696090
15342168 16 18260827107261263031
15475509 8 16702035149158636481
15575132 122 18187923946391702157
1601671 61 18412818075746968033
17134984 74 12175323847127550684
17349148 13 8646488565659960147
17857418 61 10303812090355627613
18222031 100 9078840722657117666
18335252 114 18334289834489280564
1979834 28 13407074760778613337
20567600 234 13984671377059460455
20567600 70 8790587218143829645
20621476 91 12612759046875534889
20715895 44 18411418445238107880
21315764 119 17988653973483877414
21728266 224 9511471026047129151
22061861 79 15123790695334565941
22079108 93 16081086004162852841
2215653 11 16343985814449326581
23559900 14 16415193524611426562
2838139 119 17531237414098025572
3004659 81 18200873977126595078
3472631 163 18410577318098996444
34797466 226 16414620700876318731
38570 142 18335150781783975501
392239 28 15140961806953421525
397830 11 17531543031296682801
4058900 60 18339933614974895171
4258327 124 18259980488620753677
439807 62 10663516229295049805
5104073 3 17313658369238482794
59682541 52 16200154249034354773
6438161 24 9078824166286568197
76465 3 10519992568781858427
8988823 20 11383823870944398634
960060 61 16558757870737415044

> <PUBCHEM_SHAPE_MULTIPOLES>
470.2
14.99
2.91
1.55
16.69
0.25
0.05
-13.56
-4.82
0.14
-0.4
-1.54
-0.17
-2.15

> <PUBCHEM_SHAPE_SELFOVERLAP>
1000.704

> <PUBCHEM_SHAPE_VOLUME>
260.6

> <PUBCHEM_COORDINATE_TYPE>
2
5
10

$$$$
