45784220
  -OEChem-12032416283D

 40 43  0     1  0  0  0  0  0999 V2000
   -4.3320   -1.6954   -1.3191 S   0  0  0  0  0  0  0  0  0  0  0  0
   -2.5730    1.3961    0.0393 N   0  0  1  0  0  0  0  0  0  0  0  0
    1.8989    0.2542    1.3265 N   0  0  0  0  0  0  0  0  0  0  0  0
    1.4969    0.6419   -0.8247 N   0  0  0  0  0  0  0  0  0  0  0  0
   -0.3601    1.2092    0.7926 C   0  0  1  0  0  0  0  0  0  0  0  0
   -0.6508    2.6700    0.4069 C   0  0  0  0  0  0  0  0  0  0  0  0
   -1.5015    0.4048    0.1560 C   0  0  0  0  0  0  0  0  0  0  0  0
   -1.9133    2.6094   -0.4431 C   0  0  0  0  0  0  0  0  0  0  0  0
    1.0084    0.7073    0.3935 C   0  0  0  0  0  0  0  0  0  0  0  0
   -3.6417    0.9571   -0.8459 C   0  0  0  0  0  0  0  0  0  0  0  0
    3.0380   -0.1296    0.6664 C   0  0  0  0  0  0  0  0  0  0  0  0
   -4.3124   -0.2918   -0.3385 C   0  0  0  0  0  0  0  0  0  0  0  0
    2.7622    0.1223   -0.6747 C   0  0  0  0  0  0  0  0  0  0  0  0
    4.2489   -0.6591    1.1135 C   0  0  0  0  0  0  0  0  0  0  0  0
    3.7411   -0.1651   -1.6409 C   0  0  0  0  0  0  0  0  0  0  0  0
   -4.9522   -0.4929    0.8648 C   0  0  0  0  0  0  0  0  0  0  0  0
    5.2118   -0.9391    0.1384 C   0  0  0  0  0  0  0  0  0  0  0  0
    4.9645   -0.6972   -1.2149 C   0  0  0  0  0  0  0  0  0  0  0  0
   -5.4649   -1.8169    0.9833 C   0  0  0  0  0  0  0  0  0  0  0  0
   -5.1978   -2.5772   -0.1339 C   0  0  0  0  0  0  0  0  0  0  0  0
    6.5289   -1.5079    0.5542 C   0  0  0  0  0  0  0  0  0  0  0  0
   -0.4528    1.1351    1.8860 H   0  0  0  0  0  0  0  0  0  0  0  0
   -0.8365    3.2564    1.3156 H   0  0  0  0  0  0  0  0  0  0  0  0
    0.1716    3.1490   -0.1349 H   0  0  0  0  0  0  0  0  0  0  0  0
   -1.7755   -0.4396    0.7979 H   0  0  0  0  0  0  0  0  0  0  0  0
   -1.2075    0.0099   -0.8259 H   0  0  0  0  0  0  0  0  0  0  0  0
   -1.6421    2.5319   -1.5039 H   0  0  0  0  0  0  0  0  0  0  0  0
   -2.5339    3.5003   -0.3047 H   0  0  0  0  0  0  0  0  0  0  0  0
   -4.4083    1.7413   -0.9017 H   0  0  0  0  0  0  0  0  0  0  0  0
   -3.2713    0.8130   -1.8698 H   0  0  0  0  0  0  0  0  0  0  0  0
    1.7484    0.2082    2.3257 H   0  0  0  0  0  0  0  0  0  0  0  0
    4.4284   -0.8403    2.1678 H   0  0  0  0  0  0  0  0  0  0  0  0
    3.5586    0.0197   -2.6946 H   0  0  0  0  0  0  0  0  0  0  0  0
   -5.0515    0.2700    1.6266 H   0  0  0  0  0  0  0  0  0  0  0  0
    5.7257   -0.9193   -1.9595 H   0  0  0  0  0  0  0  0  0  0  0  0
   -6.0026   -2.1926    1.8441 H   0  0  0  0  0  0  0  0  0  0  0  0
   -5.4696   -3.6083   -0.3108 H   0  0  0  0  0  0  0  0  0  0  0  0
    6.9088   -2.2085   -0.1972 H   0  0  0  0  0  0  0  0  0  0  0  0
    6.4438   -2.0627    1.4948 H   0  0  0  0  0  0  0  0  0  0  0  0
    7.2592   -0.7037    0.6882 H   0  0  0  0  0  0  0  0  0  0  0  0
  1 12  1  0  0  0  0
  1 20  1  0  0  0  0
  2  7  1  0  0  0  0
  2  8  1  0  0  0  0
  2 10  1  0  0  0  0
  3  9  1  0  0  0  0
  3 11  1  0  0  0  0
  3 31  1  0  0  0  0
  4  9  2  0  0  0  0
  4 13  1  0  0  0  0
  5  6  1  0  0  0  0
  5  7  1  0  0  0  0
  5  9  1  0  0  0  0
  5 22  1  0  0  0  0
  6  8  1  0  0  0  0
  6 23  1  0  0  0  0
  6 24  1  0  0  0  0
  7 25  1  0  0  0  0
  7 26  1  0  0  0  0
  8 27  1  0  0  0  0
  8 28  1  0  0  0  0
 10 12  1  0  0  0  0
 10 29  1  0  0  0  0
 10 30  1  0  0  0  0
 11 13  2  0  0  0  0
 11 14  1  0  0  0  0
 12 16  2  0  0  0  0
 13 15  1  0  0  0  0
 14 17  2  0  0  0  0
 14 32  1  0  0  0  0
 15 18  2  0  0  0  0
 15 33  1  0  0  0  0
 16 19  1  0  0  0  0
 16 34  1  0  0  0  0
 17 18  1  0  0  0  0
 17 21  1  0  0  0  0
 18 35  1  0  0  0  0
 19 20  2  0  0  0  0
 19 36  1  0  0  0  0
 20 37  1  0  0  0  0
 21 38  1  0  0  0  0
 21 39  1  0  0  0  0
 21 40  1  0  0  0  0
M  END
> <PUBCHEM_COMPOUND_CID>
45784220

> <PUBCHEM_CONFORMER_RMSD>
0.6

> <PUBCHEM_CONFORMER_DIVERSEORDER>
1
54
102
106
138
113
139
111
11
73
104
112
107
154
129
46
16
158
79
114
105
80
33
96
103
50
145
44
131
36
119
84
117
116
24
140
147
100
83
155
34
141
95
124
30
109
125
130
99
18
29
143
121
97
148
101
37
146
92
2
67
110
150
134
157
78
153
137
66
144
32
20
135
142
151
27
49
128
156
76
52
21
77
81
149
48
133
74
53
69
58
127
15
25
87
152
82
14
10
68
13
26
9
126
59
23
22
136
28
19
123
75
5
8
60
39
43
42
91
94
35
108
90
4
118
17
3
7
38
115
64
51
93
41
57
71
122
65
45
6
72
86
47
12
31
62
40
61
98
55
85
63
56
132
88
120
89
70

> <PUBCHEM_MMFF94_PARTIAL_CHARGES>
27
1 -0.08
10 0.45
11 -0.15
12 -0.14
13 0.23
14 -0.15
15 -0.15
16 -0.15
17 -0.14
18 -0.15
19 -0.15
2 -0.81
20 -0.11
21 0.14
3 0.03
31 0.27
32 0.15
33 0.15
34 0.15
35 0.15
36 0.15
37 0.15
4 -0.57
5 0.18
7 0.27
8 0.27
9 0.01

> <PUBCHEM_EFFECTIVE_ROTOR_COUNT>
4

> <PUBCHEM_PHARMACOPHORE_FEATURES>
7
1 2 cation
1 3 donor
3 3 4 9 cation
5 1 12 16 19 20 rings
5 2 5 6 7 8 rings
5 3 4 9 11 13 rings
6 11 13 14 15 17 18 rings

> <PUBCHEM_HEAVY_ATOM_COUNT>
21

> <PUBCHEM_ATOM_DEF_STEREO_COUNT>
1

> <PUBCHEM_ATOM_UDEF_STEREO_COUNT>
0

> <PUBCHEM_BOND_DEF_STEREO_COUNT>
0

> <PUBCHEM_BOND_UDEF_STEREO_COUNT>
0

> <PUBCHEM_ISOTOPIC_ATOM_COUNT>
0

> <PUBCHEM_COMPONENT_COUNT>
1

> <PUBCHEM_CACTVS_TAUTO_COUNT>
2

> <PUBCHEM_CONFORMER_ID>
02BA9C9C00000001

> <PUBCHEM_MMFF94_ENERGY>
34.8922

> <PUBCHEM_FEATURE_SELFOVERLAP>
35.63

> <PUBCHEM_SHAPE_FINGERPRINT>
10 15 11671782706695331527
10622 236 17533194411061163706
10928967 22 18337103575113892699
11045515 52 17748827401875174445
11089746 13 12468354682904064428
11370993 144 16056889000626339815
11796584 16 18267299837861810734
11809386 21 18261668173505708267
12166972 35 17603590741987258092
12236239 1 17967534537094920572
12553582 1 18337102458543071747
12633257 1 15985099747391711445
12969540 114 13479132410619135825
13103583 49 16200441299078977739
13690498 29 17967247633638328735
13740256 8 18413108389808571769
14211702 104 18339082562989658214
14251732 14 18340783601797511196
14251740 79 17313107475274423371
14251751 18 18413386540375126114
14251757 5 17386860580519614211
14251764 30 18189342428076305451
14251764 75 11388849687478368951
14347329 18 7925918079715535270
14576447 43 17894910724422404202
14848178 96 8357998670583826423
14950920 106 15985097565786143707
15003188 100 13551481405155892311
15183329 4 15791726395352322514
15537594 2 18334580122960727467
16120349 189 10879725247609534467
17138139 8 17895185666416871835
17349148 13 17967818223621105602
17844677 252 18344146990265463657
1813 80 18341056319425868101
18785283 64 17130690847058494384
18927931 339 18343017770648984063
193927 3 18272655657758581805
200 152 17748829591980914344
20281389 69 9223224152973610230
20374829 77 18412263943619692637
20621476 21 17988936539219218526
21054139 6 17968094197167112818
21150785 3 18040726866177880958
21315763 191 18335710438009157595
21401589 2 9799418866871467981
21403212 168 18130518444964179155
21623969 137 17132113537605384134
22950370 63 18339087085489188581
23402539 116 18113618945610578621
235170 7 15791720915406855067
23522609 53 18120972526796592005
23559900 14 18337659875951388136
25122255 55 18269562654404247742
270888 7 9439140749205546395
2748736 6 10015322191164446563
2767999 5 8574436400355563007
2838139 119 12324230698434707551
3004659 81 17894344497066219987
312425 54 16630535033291413447
312425 83 14419507254200485731
314173 85 17988926665200076713
329604 57 18261680353927477550
351380 3 18335422382989906539
3737641 26 17916881109602422343
4015057 19 16009043782203676988
4028521 119 12684807805964982789
4107672 100 16878216516697507295
439807 62 17894915157224903323
5104073 3 18131068225419386048
5486654 36 18411145757896367225
56616090 284 18113058246451824067
59682541 52 14418397885221598866
7471813 234 17894635829578886316
7495541 125 18131064940207078536
7970288 3 18337951298489327835

> <PUBCHEM_SHAPE_MULTIPOLES>
421.08
15.07
2.4
1.31
4.52
0.65
-0.2
-12.5
0.37
-3.14
0
0.45
-0.25
-0.01

> <PUBCHEM_SHAPE_SELFOVERLAP>
907.661

> <PUBCHEM_SHAPE_VOLUME>
236

> <PUBCHEM_COORDINATE_TYPE>
2
5
10

$$$$
