7113084
  -OEChem-12032416133D

 73 76  0     1  0  0  0  0  0999 V2000
   -1.5147    4.4567   -0.2511 O   0  0  0  0  0  0  0  0  0  0  0  0
   -0.5733    0.6118   -1.3002 O   0  0  0  0  0  0  0  0  0  0  0  0
    3.4842   -0.5099    1.6799 O   0  0  0  0  0  0  0  0  0  0  0  0
    1.7833   -2.4882   -0.4663 O   0  0  0  0  0  0  0  0  0  0  0  0
   -0.2869    2.5899    0.3921 N   0  0  0  0  0  0  0  0  0  0  0  0
   -2.6445    2.5115    0.2202 N   0  0  0  0  0  0  0  0  0  0  0  0
    2.2746    1.2626    0.8143 N   0  0  0  0  0  0  0  0  0  0  0  0
   -0.4256   -1.0531    0.3200 N   0  0  0  0  0  0  0  0  0  0  0  0
    4.4643    0.8368    0.0529 N   0  0  0  0  0  0  0  0  0  0  0  0
    0.6657   -3.0914   -2.3803 N   0  0  0  0  0  0  0  0  0  0  0  0
   -4.6038   -2.4397    1.7055 N   0  0  0  0  0  0  0  0  0  0  0  0
   -3.9559    3.0580   -0.0495 C   0  0  0  0  0  0  0  0  0  0  0  0
   -4.3155    2.9203   -1.5328 C   0  0  0  0  0  0  0  0  0  0  0  0
   -5.0182    2.4069    0.8423 C   0  0  0  0  0  0  0  0  0  0  0  0
   -4.6122    1.4745   -1.9309 C   0  0  0  0  0  0  0  0  0  0  0  0
   -5.3138    0.9618    0.4404 C   0  0  0  0  0  0  0  0  0  0  0  0
   -5.6799    0.8520   -1.0365 C   0  0  0  0  0  0  0  0  0  0  0  0
   -0.2126    1.2428    0.9767 C   0  0  2  0  0  0  0  0  0  0  0  0
    1.1224    0.9694    1.6726 C   0  0  0  0  0  0  0  0  0  0  0  0
    0.9760    3.3238    0.2804 C   0  0  0  0  0  0  0  0  0  0  0  0
    2.1476    2.4200   -0.0809 C   0  0  0  0  0  0  0  0  0  0  0  0
   -1.4857    3.2717    0.0965 C   0  0  0  0  0  0  0  0  0  0  0  0
   -0.4166    0.2540   -0.1358 C   0  0  0  0  0  0  0  0  0  0  0  0
    3.4306    0.4516    0.9101 C   0  0  0  0  0  0  0  0  0  0  0  0
   -0.6272   -2.1914   -0.5471 C   0  0  2  0  0  0  0  0  0  0  0  0
   -1.2598   -3.3770    0.1902 C   0  0  0  0  0  0  0  0  0  0  0  0
    0.7358   -2.5785   -1.1021 C   0  0  0  0  0  0  0  0  0  0  0  0
   -2.7512   -3.2267    0.3663 C   0  0  0  0  0  0  0  0  0  0  0  0
    5.7398    0.2359   -0.0912 C   0  0  0  0  0  0  0  0  0  0  0  0
   -3.6379   -3.7083   -0.5904 C   0  0  0  0  0  0  0  0  0  0  0  0
   -3.2802   -2.6057    1.4863 C   0  0  0  0  0  0  0  0  0  0  0  0
    6.6570    0.7570   -1.0039 C   0  0  0  0  0  0  0  0  0  0  0  0
    6.0784   -0.8758    0.6803 C   0  0  0  0  0  0  0  0  0  0  0  0
   -5.0069   -3.5564   -0.4005 C   0  0  0  0  0  0  0  0  0  0  0  0
    7.9125    0.1660   -1.1456 C   0  0  0  0  0  0  0  0  0  0  0  0
    7.3340   -1.4666    0.5386 C   0  0  0  0  0  0  0  0  0  0  0  0
    8.2510   -0.9457   -0.3743 C   0  0  0  0  0  0  0  0  0  0  0  0
   -5.4349   -2.9207    0.7538 C   0  0  0  0  0  0  0  0  0  0  0  0
   -3.9230    4.1272    0.1939 H   0  0  0  0  0  0  0  0  0  0  0  0
   -3.5082    3.3110   -2.1636 H   0  0  0  0  0  0  0  0  0  0  0  0
   -5.2033    3.5310   -1.7413 H   0  0  0  0  0  0  0  0  0  0  0  0
   -4.7023    2.4342    1.8922 H   0  0  0  0  0  0  0  0  0  0  0  0
   -5.9466    2.9883    0.7740 H   0  0  0  0  0  0  0  0  0  0  0  0
   -4.9440    1.4428   -2.9748 H   0  0  0  0  0  0  0  0  0  0  0  0
   -3.6934    0.8783   -1.8726 H   0  0  0  0  0  0  0  0  0  0  0  0
   -4.4418    0.3319    0.6486 H   0  0  0  0  0  0  0  0  0  0  0  0
   -6.1363    0.5733    1.0517 H   0  0  0  0  0  0  0  0  0  0  0  0
   -6.6395    1.3538   -1.2118 H   0  0  0  0  0  0  0  0  0  0  0  0
   -5.8174   -0.2013   -1.3054 H   0  0  0  0  0  0  0  0  0  0  0  0
   -1.0246    1.1250    1.7038 H   0  0  0  0  0  0  0  0  0  0  0  0
   -2.5781    1.5161    0.3922 H   0  0  0  0  0  0  0  0  0  0  0  0
    1.2200    1.6369    2.5390 H   0  0  0  0  0  0  0  0  0  0  0  0
    1.1929   -0.0469    2.0702 H   0  0  0  0  0  0  0  0  0  0  0  0
    0.8820    4.1246   -0.4608 H   0  0  0  0  0  0  0  0  0  0  0  0
    1.1483    3.8018    1.2527 H   0  0  0  0  0  0  0  0  0  0  0  0
    3.0650    3.0156   -0.0427 H   0  0  0  0  0  0  0  0  0  0  0  0
    2.0343    2.0278   -1.0982 H   0  0  0  0  0  0  0  0  0  0  0  0
   -0.3018   -1.2388    1.3102 H   0  0  0  0  0  0  0  0  0  0  0  0
   -1.2645   -1.8727   -1.3822 H   0  0  0  0  0  0  0  0  0  0  0  0
   -1.0731   -4.3089   -0.3607 H   0  0  0  0  0  0  0  0  0  0  0  0
   -0.7872   -3.5251    1.1706 H   0  0  0  0  0  0  0  0  0  0  0  0
    4.3089    1.6171   -0.5753 H   0  0  0  0  0  0  0  0  0  0  0  0
   -0.2104   -3.1820   -2.8848 H   0  0  0  0  0  0  0  0  0  0  0  0
    1.5025   -3.4013   -2.8632 H   0  0  0  0  0  0  0  0  0  0  0  0
   -3.2734   -4.2008   -1.4876 H   0  0  0  0  0  0  0  0  0  0  0  0
   -2.6396   -2.2083    2.2676 H   0  0  0  0  0  0  0  0  0  0  0  0
    6.4062    1.6230   -1.6111 H   0  0  0  0  0  0  0  0  0  0  0  0
    5.4315   -1.3412    1.4091 H   0  0  0  0  0  0  0  0  0  0  0  0
   -5.7166   -3.9225   -1.1336 H   0  0  0  0  0  0  0  0  0  0  0  0
    8.6267    0.5715   -1.8563 H   0  0  0  0  0  0  0  0  0  0  0  0
    7.5993   -2.3323    1.1387 H   0  0  0  0  0  0  0  0  0  0  0  0
    9.2287   -1.4057   -0.4845 H   0  0  0  0  0  0  0  0  0  0  0  0
   -6.4924   -2.7752    0.9483 H   0  0  0  0  0  0  0  0  0  0  0  0
  1 22  2  0  0  0  0
  2 23  2  0  0  0  0
  3 24  2  0  0  0  0
  4 27  2  0  0  0  0
  5 18  1  0  0  0  0
  5 20  1  0  0  0  0
  5 22  1  0  0  0  0
  6 12  1  0  0  0  0
  6 22  1  0  0  0  0
  6 51  1  0  0  0  0
  7 19  1  0  0  0  0
  7 21  1  0  0  0  0
  7 24  1  0  0  0  0
  8 23  1  0  0  0  0
  8 25  1  0  0  0  0
  8 58  1  0  0  0  0
  9 24  1  0  0  0  0
  9 29  1  0  0  0  0
  9 62  1  0  0  0  0
 10 27  1  0  0  0  0
 10 63  1  0  0  0  0
 10 64  1  0  0  0  0
 11 31  1  0  0  0  0
 11 38  2  0  0  0  0
 12 13  1  0  0  0  0
 12 14  1  0  0  0  0
 12 39  1  0  0  0  0
 13 15  1  0  0  0  0
 13 40  1  0  0  0  0
 13 41  1  0  0  0  0
 14 16  1  0  0  0  0
 14 42  1  0  0  0  0
 14 43  1  0  0  0  0
 15 17  1  0  0  0  0
 15 44  1  0  0  0  0
 15 45  1  0  0  0  0
 16 17  1  0  0  0  0
 16 46  1  0  0  0  0
 16 47  1  0  0  0  0
 17 48  1  0  0  0  0
 17 49  1  0  0  0  0
 18 19  1  0  0  0  0
 18 23  1  0  0  0  0
 18 50  1  0  0  0  0
 19 52  1  0  0  0  0
 19 53  1  0  0  0  0
 20 21  1  0  0  0  0
 20 54  1  0  0  0  0
 20 55  1  0  0  0  0
 21 56  1  0  0  0  0
 21 57  1  0  0  0  0
 25 26  1  0  0  0  0
 25 27  1  0  0  0  0
 25 59  1  0  0  0  0
 26 28  1  0  0  0  0
 26 60  1  0  0  0  0
 26 61  1  0  0  0  0
 28 30  1  0  0  0  0
 28 31  2  0  0  0  0
 29 32  2  0  0  0  0
 29 33  1  0  0  0  0
 30 34  2  0  0  0  0
 30 65  1  0  0  0  0
 31 66  1  0  0  0  0
 32 35  1  0  0  0  0
 32 67  1  0  0  0  0
 33 36  2  0  0  0  0
 33 68  1  0  0  0  0
 34 38  1  0  0  0  0
 34 69  1  0  0  0  0
 35 37  2  0  0  0  0
 35 70  1  0  0  0  0
 36 37  1  0  0  0  0
 36 71  1  0  0  0  0
 37 72  1  0  0  0  0
 38 73  1  0  0  0  0
M  END
> <PUBCHEM_COMPOUND_CID>
7113084

> <PUBCHEM_CONFORMER_RMSD>
1.2

> <PUBCHEM_CONFORMER_DIVERSEORDER>
1
75
23
49
90
32
103
51
107
50
88
46
36
35
77
26
104
73
33
76
38
34
55
86
4
115
48
43
17
92
110
87
30
114
117
58
10
41
20
118
94
2
106
109
85
37
105
82
97
113
18
91
22
5
60
120
119
66
39
16
96
89
100
57
108
61
70
54
27
25
101
14
93
53
102
6
80
29
83
65
79
8
63
81
19
69
74
112
71
121
21
45
56
44
40
12
68
111
9
64
7
95
11
78
42
59
24
62
116
72
15
99
52
13
3
67
84
28
31
47
98

> <PUBCHEM_MMFF94_PARTIAL_CHARGES>
47
1 -0.57
10 -0.8
11 -0.62
12 0.3
18 0.36
19 0.3
2 -0.57
20 0.3
21 0.3
22 0.69
23 0.57
24 0.69
25 0.36
26 0.14
27 0.57
28 -0.14
29 0.12
3 -0.57
30 -0.15
31 0.16
32 -0.15
33 -0.15
34 -0.15
35 -0.15
36 -0.15
37 -0.15
38 0.16
4 -0.57
5 -0.66
51 0.37
58 0.37
6 -0.73
62 0.37
63 0.37
64 0.37
65 0.15
66 0.15
67 0.15
68 0.15
69 0.15
7 -0.66
70 0.15
71 0.15
72 0.15
73 0.15
8 -0.73
9 -0.55

> <PUBCHEM_EFFECTIVE_ROTOR_COUNT>
14.4

> <PUBCHEM_PHARMACOPHORE_FEATURES>
13
1 1 acceptor
1 10 donor
1 11 acceptor
1 2 acceptor
1 3 acceptor
1 4 acceptor
1 6 donor
1 8 donor
1 9 donor
6 11 28 30 31 34 38 rings
6 12 13 14 15 16 17 rings
6 29 32 33 35 36 37 rings
6 5 7 18 19 20 21 rings

> <PUBCHEM_HEAVY_ATOM_COUNT>
38

> <PUBCHEM_ATOM_DEF_STEREO_COUNT>
2

> <PUBCHEM_ATOM_UDEF_STEREO_COUNT>
0

> <PUBCHEM_BOND_DEF_STEREO_COUNT>
0

> <PUBCHEM_BOND_UDEF_STEREO_COUNT>
0

> <PUBCHEM_ISOTOPIC_ATOM_COUNT>
0

> <PUBCHEM_COMPONENT_COUNT>
1

> <PUBCHEM_CACTVS_TAUTO_COUNT>
16

> <PUBCHEM_CONFORMER_ID>
006C897C00000001

> <PUBCHEM_MMFF94_ENERGY>
89.5716

> <PUBCHEM_FEATURE_SELFOVERLAP>
65.975

> <PUBCHEM_SHAPE_FINGERPRINT>
10050765 1 18339080518558832304
10119406 146 18268714905274767934
10462674 296 17981883352394933239
11763389 116 18131074814163371342
11991303 11 18187918430946052085
12355185 283 17343237233987722814
12645989 146 18197214974254675751
13690498 29 18260829349413383715
13947934 56 18409449169048438870
14117953 113 18340484565380125727
14202776 33 17821450161937246909
14856354 85 18411415098957555037
15131766 46 15576436595208185668
15276724 80 18268997669168636108
15444296 9 18272102612332437743
15975801 100 17459175314449357301
20764821 26 18338527430097319991
21133410 90 17346595322206321865
22311459 1 18339362964071330328
23576562 1 17895194445346089508
3534868 343 16041381853532726830
4058900 60 17976255742619508240
4107672 100 18260267443057809756
513202 73 18337677515297332651
58902169 19 17531252738646767900

> <PUBCHEM_SHAPE_MULTIPOLES>
723.68
17.75
5.73
1.49
33.41
0.61
0.26
3.91
2.23
-9.62
0.47
-0.56
0.33
1.38

> <PUBCHEM_SHAPE_SELFOVERLAP>
1524.204

> <PUBCHEM_SHAPE_VOLUME>
398.9

> <PUBCHEM_COORDINATE_TYPE>
2
5
10

$$$$
