51136629
  -OEChem-12032416143D

 68 71  0     1  0  0  0  0  0999 V2000
    5.3188    2.7151   -1.0629 F   0  0  0  0  0  0  0  0  0  0  0  0
    3.4003    2.8452   -2.0777 F   0  0  0  0  0  0  0  0  0  0  0  0
    3.9090    4.2847   -0.5373 F   0  0  0  0  0  0  0  0  0  0  0  0
   -7.0664   -0.2867   -2.3632 O   0  0  0  0  0  0  0  0  0  0  0  0
   -0.5065    3.4605    0.8538 O   0  0  0  0  0  0  0  0  0  0  0  0
   -7.0283    1.3005   -0.7322 O   0  0  0  0  0  0  0  0  0  0  0  0
    2.3505   -1.3379   -2.6900 O   0  0  0  0  0  0  0  0  0  0  0  0
    3.8912   -2.9406   -1.0277 O   0  0  0  0  0  0  0  0  0  0  0  0
   -2.1259    1.8681    1.2835 N   0  0  0  0  0  0  0  0  0  0  0  0
   -2.1184   -2.6818    1.1656 N   0  0  0  0  0  0  0  0  0  0  0  0
    0.1313    1.4545    1.8289 N   0  0  0  0  0  0  0  0  0  0  0  0
   -3.2720   -0.2528    0.7052 C   0  0  2  0  0  0  0  0  0  0  0  0
   -4.4069    0.5805    0.0528 C   0  0  1  0  0  0  0  0  0  0  0  0
   -3.9103    1.9643   -0.4045 C   0  0  0  0  0  0  0  0  0  0  0  0
   -2.5946    0.5770    1.8089 C   0  0  0  0  0  0  0  0  0  0  0  0
   -3.1901    2.7023    0.7232 C   0  0  0  0  0  0  0  0  0  0  0  0
   -2.2291   -0.7746   -0.2898 C   0  0  0  0  0  0  0  0  0  0  0  0
   -5.1026   -0.1491   -1.0959 C   0  0  0  0  0  0  0  0  0  0  0  0
   -1.4894   -1.9465    0.3092 C   0  0  0  0  0  0  0  0  0  0  0  0
   -0.7993    2.3485    1.3006 C   0  0  0  0  0  0  0  0  0  0  0  0
   -0.0843   -2.1924   -0.1044 C   0  0  0  0  0  0  0  0  0  0  0  0
   -6.4842    0.3916   -1.3410 C   0  0  0  0  0  0  0  0  0  0  0  0
    0.6835   -3.0166    0.7282 C   0  0  0  0  0  0  0  0  0  0  0  0
    0.0526   -3.5753    1.9689 C   0  0  0  0  0  0  0  0  0  0  0  0
   -1.4205   -3.8552    1.7018 C   0  0  0  0  0  0  0  0  0  0  0  0
    0.4738   -1.6303   -1.2540 C   0  0  0  0  0  0  0  0  0  0  0  0
    2.0249   -3.2547    0.4164 C   0  0  0  0  0  0  0  0  0  0  0  0
    1.8098   -1.8866   -1.5657 C   0  0  0  0  0  0  0  0  0  0  0  0
    2.5842   -2.6939   -0.7319 C   0  0  0  0  0  0  0  0  0  0  0  0
    1.5012    1.3371    1.4863 C   0  0  0  0  0  0  0  0  0  0  0  0
    2.0535    2.1768    0.5190 C   0  0  0  0  0  0  0  0  0  0  0  0
    2.2976    0.3810    2.1168 C   0  0  0  0  0  0  0  0  0  0  0  0
    3.4021    2.0605    0.1821 C   0  0  0  0  0  0  0  0  0  0  0  0
    3.6464    0.2649    1.7802 C   0  0  0  0  0  0  0  0  0  0  0  0
    4.1986    1.1045    0.8127 C   0  0  0  0  0  0  0  0  0  0  0  0
    1.4941   -0.5249   -3.4896 C   0  0  0  0  0  0  0  0  0  0  0  0
    4.6130   -3.7757   -0.1245 C   0  0  0  0  0  0  0  0  0  0  0  0
    3.9925    2.9582   -0.8520 C   0  0  0  0  0  0  0  0  0  0  0  0
   -3.7843   -1.0900    1.1957 H   0  0  0  0  0  0  0  0  0  0  0  0
   -5.1462    0.7559    0.8487 H   0  0  0  0  0  0  0  0  0  0  0  0
   -3.2210    1.8465   -1.2505 H   0  0  0  0  0  0  0  0  0  0  0  0
   -4.7422    2.5830   -0.7577 H   0  0  0  0  0  0  0  0  0  0  0  0
   -1.8055   -0.0071    2.2804 H   0  0  0  0  0  0  0  0  0  0  0  0
   -3.3189    0.8045    2.6014 H   0  0  0  0  0  0  0  0  0  0  0  0
   -1.5433    0.0258   -0.5795 H   0  0  0  0  0  0  0  0  0  0  0  0
   -2.7008   -1.1555   -1.2013 H   0  0  0  0  0  0  0  0  0  0  0  0
   -2.7937    3.6501    0.3467 H   0  0  0  0  0  0  0  0  0  0  0  0
   -3.8875    2.9395    1.5353 H   0  0  0  0  0  0  0  0  0  0  0  0
   -5.2159   -1.2106   -0.8451 H   0  0  0  0  0  0  0  0  0  0  0  0
   -4.5288   -0.0610   -2.0250 H   0  0  0  0  0  0  0  0  0  0  0  0
    0.1633   -2.8445    2.7791 H   0  0  0  0  0  0  0  0  0  0  0  0
    0.5475   -4.5029    2.2774 H   0  0  0  0  0  0  0  0  0  0  0  0
   -1.9048   -4.1515    2.6387 H   0  0  0  0  0  0  0  0  0  0  0  0
   -1.5402   -4.6916    1.0017 H   0  0  0  0  0  0  0  0  0  0  0  0
   -0.1784    0.7923    2.5305 H   0  0  0  0  0  0  0  0  0  0  0  0
   -0.1644   -1.0244   -1.8839 H   0  0  0  0  0  0  0  0  0  0  0  0
    2.5778   -3.8827    1.1067 H   0  0  0  0  0  0  0  0  0  0  0  0
   -7.9717    0.0413   -2.5509 H   0  0  0  0  0  0  0  0  0  0  0  0
    1.4751    2.9159   -0.0213 H   0  0  0  0  0  0  0  0  0  0  0  0
    1.8794   -0.2815    2.8702 H   0  0  0  0  0  0  0  0  0  0  0  0
    4.2655   -0.4816    2.2691 H   0  0  0  0  0  0  0  0  0  0  0  0
    5.2506    0.9964    0.5639 H   0  0  0  0  0  0  0  0  0  0  0  0
    0.6614   -1.1018   -3.9062 H   0  0  0  0  0  0  0  0  0  0  0  0
    1.1580    0.3648   -2.9458 H   0  0  0  0  0  0  0  0  0  0  0  0
    2.0886   -0.1700   -4.3381 H   0  0  0  0  0  0  0  0  0  0  0  0
    4.6941   -3.3205    0.8686 H   0  0  0  0  0  0  0  0  0  0  0  0
    4.1957   -4.7878   -0.0881 H   0  0  0  0  0  0  0  0  0  0  0  0
    5.6319   -3.8668   -0.5152 H   0  0  0  0  0  0  0  0  0  0  0  0
  1 38  1  0  0  0  0
  2 38  1  0  0  0  0
  3 38  1  0  0  0  0
  4 22  1  0  0  0  0
  4 58  1  0  0  0  0
  5 20  2  0  0  0  0
  6 22  2  0  0  0  0
  7 28  1  0  0  0  0
  7 36  1  0  0  0  0
  8 29  1  0  0  0  0
  8 37  1  0  0  0  0
  9 15  1  0  0  0  0
  9 16  1  0  0  0  0
  9 20  1  0  0  0  0
 10 19  2  0  0  0  0
 10 25  1  0  0  0  0
 11 20  1  0  0  0  0
 11 30  1  0  0  0  0
 11 55  1  0  0  0  0
 12 13  1  0  0  0  0
 12 15  1  0  0  0  0
 12 17  1  0  0  0  0
 12 39  1  0  0  0  0
 13 14  1  0  0  0  0
 13 18  1  0  0  0  0
 13 40  1  0  0  0  0
 14 16  1  0  0  0  0
 14 41  1  0  0  0  0
 14 42  1  0  0  0  0
 15 43  1  0  0  0  0
 15 44  1  0  0  0  0
 16 47  1  0  0  0  0
 16 48  1  0  0  0  0
 17 19  1  0  0  0  0
 17 45  1  0  0  0  0
 17 46  1  0  0  0  0
 18 22  1  0  0  0  0
 18 49  1  0  0  0  0
 18 50  1  0  0  0  0
 19 21  1  0  0  0  0
 21 23  1  0  0  0  0
 21 26  2  0  0  0  0
 23 24  1  0  0  0  0
 23 27  2  0  0  0  0
 24 25  1  0  0  0  0
 24 51  1  0  0  0  0
 24 52  1  0  0  0  0
 25 53  1  0  0  0  0
 25 54  1  0  0  0  0
 26 28  1  0  0  0  0
 26 56  1  0  0  0  0
 27 29  1  0  0  0  0
 27 57  1  0  0  0  0
 28 29  2  0  0  0  0
 30 31  1  0  0  0  0
 30 32  2  0  0  0  0
 31 33  2  0  0  0  0
 31 59  1  0  0  0  0
 32 34  1  0  0  0  0
 32 60  1  0  0  0  0
 33 35  1  0  0  0  0
 33 38  1  0  0  0  0
 34 35  2  0  0  0  0
 34 61  1  0  0  0  0
 35 62  1  0  0  0  0
 36 63  1  0  0  0  0
 36 64  1  0  0  0  0
 36 65  1  0  0  0  0
 37 66  1  0  0  0  0
 37 67  1  0  0  0  0
 37 68  1  0  0  0  0
M  END
> <PUBCHEM_COMPOUND_CID>
51136629

> <PUBCHEM_CONFORMER_RMSD>
1.2

> <PUBCHEM_CONFORMER_DIVERSEORDER>
1
26
20
77
58
83
21
54
78
59
7
38
10
25
22
50
72
9
14
75
71
57
39
69
2
40
44
32
74
37
27
28
17
61
55
76
81
35
41
80
47
12
19
73
43
67
29
64
31
53
42
68
82
66
45
65
34
36
8
79
30
16
46
18
5
60
33
6
51
56
70
62
13
48
24
52
23
11
49
63
4
15
3

> <PUBCHEM_MMFF94_PARTIAL_CHARGES>
43
1 -0.34
10 -0.7
11 -0.55
15 0.3
16 0.3
17 0.06
18 0.06
19 0.3
2 -0.34
20 0.69
21 0.09
22 0.66
23 -0.14
24 0.14
25 0.25
26 -0.15
27 -0.15
28 0.08
29 0.08
3 -0.34
30 0.12
31 -0.15
32 -0.15
33 -0.14
34 -0.15
35 -0.15
36 0.28
37 0.28
38 1.16
4 -0.65
5 -0.57
55 0.37
56 0.15
57 0.15
58 0.5
59 0.15
6 -0.57
60 0.15
61 0.15
62 0.15
7 -0.36
8 -0.36
9 -0.66

> <PUBCHEM_EFFECTIVE_ROTOR_COUNT>
11.6

> <PUBCHEM_PHARMACOPHORE_FEATURES>
12
1 10 acceptor
1 11 donor
1 4 acceptor
1 5 acceptor
1 6 acceptor
1 7 acceptor
1 8 acceptor
3 4 6 22 anion
6 10 19 21 23 24 25 rings
6 21 23 26 27 28 29 rings
6 30 31 32 33 34 35 rings
6 9 12 13 14 15 16 rings

> <PUBCHEM_HEAVY_ATOM_COUNT>
38

> <PUBCHEM_ATOM_DEF_STEREO_COUNT>
2

> <PUBCHEM_ATOM_UDEF_STEREO_COUNT>
0

> <PUBCHEM_BOND_DEF_STEREO_COUNT>
0

> <PUBCHEM_BOND_UDEF_STEREO_COUNT>
0

> <PUBCHEM_ISOTOPIC_ATOM_COUNT>
0

> <PUBCHEM_COMPONENT_COUNT>
1

> <PUBCHEM_CACTVS_TAUTO_COUNT>
2

> <PUBCHEM_CONFORMER_ID>
030C487500000001

> <PUBCHEM_MMFF94_ENERGY>
115.5529

> <PUBCHEM_FEATURE_SELFOVERLAP>
60.986

> <PUBCHEM_SHAPE_FINGERPRINT>
10675989 125 18408601431612195657
11578080 2 18261397801020113927
12107698 1 18058159532014092695
12156800 1 17395340074200633882
12166972 35 18265332794311603679
13726171 33 17907040695393241272
14068700 675 18055064359600293898
14784336 7 18118962490834579907
15160629 35 13551195527932409183
15439362 3 18337681815235192744
17909252 39 17203049582126623823
20691752 17 18264498290887385185
20764821 26 18267882600230220328
20775438 99 17987494019009140095
21133410 230 17756450492026032659
27425 322 17023459875467594089
3298306 158 18270675484677648569
35225 105 18054500572138649964
4058900 60 18333448742770489193
4112364 45 15502380049906893013
513532 50 16415474969787083844
59755656 215 18131340934557229093

> <PUBCHEM_SHAPE_MULTIPOLES>
715.91
11.44
5.51
2.44
16.31
0.52
-1.28
-4.66
-6.17
-6.31
0.92
-0.6
0.41
-0.17

> <PUBCHEM_SHAPE_SELFOVERLAP>
1533.951

> <PUBCHEM_SHAPE_VOLUME>
396.4

> <PUBCHEM_COORDINATE_TYPE>
2
5
10

$$$$
