11881998
  -OEChem-12032416253D

 58 59  0     1  0  0  0  0  0999 V2000
    3.1470   -3.8034    0.0168 S   0  0  0  0  0  0  0  0  0  0  0  0
   -1.8817    3.1319    1.4459 O   0  0  0  0  0  0  0  0  0  0  0  0
    0.1967    4.3764   -1.2955 O   0  0  0  0  0  0  0  0  0  0  0  0
    2.7030    1.5033    2.3618 O   0  0  0  0  0  0  0  0  0  0  0  0
   -3.3602    1.1839   -2.0358 O   0  0  0  0  0  0  0  0  0  0  0  0
    4.4478   -4.4424    0.1214 O   0  0  0  0  0  0  0  0  0  0  0  0
    2.1984   -3.8730    1.1152 O   0  0  0  0  0  0  0  0  0  0  0  0
    4.8013    0.8220   -1.8696 O   0  0  0  0  0  0  0  0  0  0  0  0
   -2.1210    0.8525   -0.1038 N   0  0  0  0  0  0  0  0  0  0  0  0
    3.0928    0.7980    0.1743 N   0  0  0  0  0  0  0  0  0  0  0  0
    6.4752   -0.2134   -0.6857 N   0  0  0  0  0  0  0  0  0  0  0  0
   -1.4109    3.2081    0.0985 C   0  0  2  0  0  0  0  0  0  0  0  0
   -1.0727    1.7942   -0.4117 C   0  0  1  0  0  0  0  0  0  0  0  0
   -0.1854    4.1293    0.0561 C   0  0  1  0  0  0  0  0  0  0  0  0
    1.0026    3.5490    0.8426 C   0  0  0  0  0  0  0  0  0  0  0  0
    1.1477    2.0613    0.6916 C   0  0  0  0  0  0  0  0  0  0  0  0
    0.2299    1.2644    0.1241 C   0  0  0  0  0  0  0  0  0  0  0  0
    2.3815    1.4352    1.1759 C   0  0  0  0  0  0  0  0  0  0  0  0
    4.3429    0.1111    0.4081 C   0  0  1  0  0  0  0  0  0  0  0  0
    4.1329   -1.3712    0.7251 C   0  0  0  0  0  0  0  0  0  0  0  0
    3.3976   -2.1039   -0.3896 C   0  0  0  0  0  0  0  0  0  0  0  0
   -3.1920    0.6242   -0.9556 C   0  0  0  0  0  0  0  0  0  0  0  0
    5.1948    0.2741   -0.8426 C   0  0  0  0  0  0  0  0  0  0  0  0
   -4.2016   -0.3572   -0.4817 C   0  0  0  0  0  0  0  0  0  0  0  0
    2.3429   -4.4569   -1.4285 C   0  0  0  0  0  0  0  0  0  0  0  0
   -5.5231   -0.2639   -0.9185 C   0  0  0  0  0  0  0  0  0  0  0  0
   -3.8284   -1.3717    0.3998 C   0  0  0  0  0  0  0  0  0  0  0  0
   -6.4713   -1.1850   -0.4736 C   0  0  0  0  0  0  0  0  0  0  0  0
   -4.7766   -2.2929    0.8447 C   0  0  0  0  0  0  0  0  0  0  0  0
   -6.0980   -2.1995    0.4081 C   0  0  0  0  0  0  0  0  0  0  0  0
   -7.1119   -3.1847    0.8823 C   0  0  0  0  0  0  0  0  0  0  0  0
   -2.2225    3.6213   -0.5125 H   0  0  0  0  0  0  0  0  0  0  0  0
   -0.9684    1.8364   -1.5040 H   0  0  0  0  0  0  0  0  0  0  0  0
   -0.4441    5.1009    0.4946 H   0  0  0  0  0  0  0  0  0  0  0  0
    1.9316    4.0379    0.5252 H   0  0  0  0  0  0  0  0  0  0  0  0
    0.8629    3.7654    1.9093 H   0  0  0  0  0  0  0  0  0  0  0  0
    0.4103    0.1958    0.0259 H   0  0  0  0  0  0  0  0  0  0  0  0
   -2.1017    0.4254    0.8167 H   0  0  0  0  0  0  0  0  0  0  0  0
    4.8598    0.5954    1.2452 H   0  0  0  0  0  0  0  0  0  0  0  0
    5.0918   -1.8639    0.9242 H   0  0  0  0  0  0  0  0  0  0  0  0
    3.5521   -1.4562    1.6528 H   0  0  0  0  0  0  0  0  0  0  0  0
    2.7313    0.8087   -0.7759 H   0  0  0  0  0  0  0  0  0  0  0  0
   -2.1134    4.0337    1.7261 H   0  0  0  0  0  0  0  0  0  0  0  0
    0.9457    4.9962   -1.2810 H   0  0  0  0  0  0  0  0  0  0  0  0
    2.4077   -1.6733   -0.5692 H   0  0  0  0  0  0  0  0  0  0  0  0
    3.9685   -2.0840   -1.3229 H   0  0  0  0  0  0  0  0  0  0  0  0
    2.1469   -5.5175   -1.2585 H   0  0  0  0  0  0  0  0  0  0  0  0
    3.0049   -4.3312   -2.2871 H   0  0  0  0  0  0  0  0  0  0  0  0
    1.4036   -3.9220   -1.5807 H   0  0  0  0  0  0  0  0  0  0  0  0
   -5.8343    0.5217   -1.6020 H   0  0  0  0  0  0  0  0  0  0  0  0
   -2.8047   -1.4990    0.7391 H   0  0  0  0  0  0  0  0  0  0  0  0
    7.1485   -0.1570   -1.4426 H   0  0  0  0  0  0  0  0  0  0  0  0
    6.8029   -0.6247    0.1821 H   0  0  0  0  0  0  0  0  0  0  0  0
   -7.4976   -1.1026   -0.8216 H   0  0  0  0  0  0  0  0  0  0  0  0
   -4.4722   -3.0843    1.5245 H   0  0  0  0  0  0  0  0  0  0  0  0
   -8.1076   -2.7314    0.9372 H   0  0  0  0  0  0  0  0  0  0  0  0
   -6.8701   -3.5485    1.8868 H   0  0  0  0  0  0  0  0  0  0  0  0
   -7.1527   -4.0397    0.2003 H   0  0  0  0  0  0  0  0  0  0  0  0
  1  6  2  0  0  0  0
  1  7  2  0  0  0  0
  1 21  1  0  0  0  0
  1 25  1  0  0  0  0
  2 12  1  0  0  0  0
  2 43  1  0  0  0  0
  3 14  1  0  0  0  0
  3 44  1  0  0  0  0
  4 18  2  0  0  0  0
  5 22  2  0  0  0  0
  8 23  2  0  0  0  0
  9 13  1  0  0  0  0
  9 22  1  0  0  0  0
  9 38  1  0  0  0  0
 10 18  1  0  0  0  0
 10 19  1  0  0  0  0
 10 42  1  0  0  0  0
 11 23  1  0  0  0  0
 11 52  1  0  0  0  0
 11 53  1  0  0  0  0
 12 13  1  0  0  0  0
 12 14  1  0  0  0  0
 12 32  1  0  0  0  0
 13 17  1  0  0  0  0
 13 33  1  0  0  0  0
 14 15  1  0  0  0  0
 14 34  1  0  0  0  0
 15 16  1  0  0  0  0
 15 35  1  0  0  0  0
 15 36  1  0  0  0  0
 16 17  2  0  0  0  0
 16 18  1  0  0  0  0
 17 37  1  0  0  0  0
 19 20  1  0  0  0  0
 19 23  1  0  0  0  0
 19 39  1  0  0  0  0
 20 21  1  0  0  0  0
 20 40  1  0  0  0  0
 20 41  1  0  0  0  0
 21 45  1  0  0  0  0
 21 46  1  0  0  0  0
 22 24  1  0  0  0  0
 24 26  2  0  0  0  0
 24 27  1  0  0  0  0
 25 47  1  0  0  0  0
 25 48  1  0  0  0  0
 25 49  1  0  0  0  0
 26 28  1  0  0  0  0
 26 50  1  0  0  0  0
 27 29  2  0  0  0  0
 27 51  1  0  0  0  0
 28 30  2  0  0  0  0
 28 54  1  0  0  0  0
 29 30  1  0  0  0  0
 29 55  1  0  0  0  0
 30 31  1  0  0  0  0
 31 56  1  0  0  0  0
 31 57  1  0  0  0  0
 31 58  1  0  0  0  0
M  END
> <PUBCHEM_COMPOUND_CID>
11881998

> <PUBCHEM_CONFORMER_RMSD>
1

> <PUBCHEM_CONFORMER_DIVERSEORDER>
1
10
58
109
13
61
129
39
32
134
26
5
147
44
34
138
49
82
128
132
70
23
20
101
18
50
142
17
137
55
40
19
25
90
21
99
6
51
27
16
140
68
130
122
11
9
88
57
69
87
111
75
14
93
146
15
54
67
145
91
41
77
62
63
3
71
36
33
56
53
2
76
86
78
148
124
133
141
38
94
72
83
8
139
106
4
118
119
136
96
123
110
114
30
7
89
48
74
97
120
112
46
108
126
79
98
59
47
73
143
125
95
85
131
37
12
81
92
42
80
116
60
35
135
22
149
64
31
105
24
104
29
113
117
66
107
52
121
144
103
100
28
115
65
84
43
102
127
45

> <PUBCHEM_MMFF94_PARTIAL_CHARGES>
41
1 1.09
10 -0.73
11 -0.8
12 0.28
13 0.44
14 0.28
15 0.14
16 -0.12
17 -0.29
18 0.62
19 0.36
2 -0.68
21 0.11
22 0.54
23 0.57
24 0.09
25 0.11
26 -0.15
27 -0.15
28 -0.15
29 -0.15
3 -0.68
30 -0.14
31 0.14
37 0.15
38 0.37
4 -0.57
42 0.37
43 0.4
44 0.4
5 -0.57
50 0.15
51 0.15
52 0.37
53 0.37
54 0.15
55 0.15
6 -0.65
7 -0.65
8 -0.57
9 -0.73

> <PUBCHEM_EFFECTIVE_ROTOR_COUNT>
10.8

> <PUBCHEM_PHARMACOPHORE_FEATURES>
14
1 10 donor
1 11 donor
1 2 acceptor
1 2 donor
1 3 acceptor
1 3 donor
1 4 acceptor
1 5 acceptor
1 6 acceptor
1 7 acceptor
1 8 acceptor
1 9 donor
6 12 13 14 15 16 17 rings
6 24 26 27 28 29 30 rings

> <PUBCHEM_HEAVY_ATOM_COUNT>
31

> <PUBCHEM_ATOM_DEF_STEREO_COUNT>
4

> <PUBCHEM_ATOM_UDEF_STEREO_COUNT>
0

> <PUBCHEM_BOND_DEF_STEREO_COUNT>
0

> <PUBCHEM_BOND_UDEF_STEREO_COUNT>
0

> <PUBCHEM_ISOTOPIC_ATOM_COUNT>
0

> <PUBCHEM_COMPONENT_COUNT>
1

> <PUBCHEM_CACTVS_TAUTO_COUNT>
8

> <PUBCHEM_CONFORMER_ID>
00B54E0E00000001

> <PUBCHEM_MMFF94_ENERGY>
63.9665

> <PUBCHEM_FEATURE_SELFOVERLAP>
71.075

> <PUBCHEM_SHAPE_FINGERPRINT>
10928967 22 18130781265668906126
11315621 136 18265335011163672222
11374522 301 18264230126052482563
117089 54 18341053995342697855
11963148 33 18408877460465386434
12107183 9 9727631675395403164
12633257 1 15410613743979506409
13402501 40 18335983155147287843
1361 2 18195526115186792115
13631057 29 18341336600665362344
14068700 686 18339913853962384360
14866123 147 18053100615207241129
15320291 9 17549252636651235447
15927050 60 17547857816188430516
17492 89 18194962938164690694
17909252 39 18412539895010173938
1979834 28 18270669995577699507
21315759 227 18191574260249245918
23559900 14 18191019209052028645
24893989 43 17485086632766073759
25222932 49 18342172306036729598
345986 75 17489587840222422315
3737641 26 18342746169654672706
404807 78 17970077836160475442
439807 62 18260264131511852467
4435113 14 17823710835723383363
46194498 28 17823130292824359669
4756261 7 17973126628013366738
5309563 4 18412825806635275171
5912855 24 18199193888582818976
6422251 121 18335415747471572131
7970288 3 18411135848768491883
86090 222 18341329010867424290
9831232 110 18262797497361848463

> <PUBCHEM_SHAPE_MULTIPOLES>
585.79
15.36
6.49
1.43
14.71
1.78
-0.06
15.84
-1.04
-3.65
0.28
-0.4
-0.33
1.66

> <PUBCHEM_SHAPE_SELFOVERLAP>
1205.399

> <PUBCHEM_SHAPE_VOLUME>
337.3

> <PUBCHEM_COORDINATE_TYPE>
2
5
10

$$$$
