26744910
  -OEChem-12032416373D

 53 57  0     1  0  0  0  0  0999 V2000
   -0.1590   -2.8965    1.6961 O   0  0  0  0  0  0  0  0  0  0  0  0
    0.9780    5.6020   -0.3023 O   0  0  0  0  0  0  0  0  0  0  0  0
   -1.8386   -0.0380    0.4689 N   0  0  1  0  0  0  0  0  0  0  0  0
   -5.4142    0.2301   -0.6311 N   0  0  0  0  0  0  0  0  0  0  0  0
   -5.1253   -1.8534   -1.3886 N   0  0  0  0  0  0  0  0  0  0  0  0
    0.3772   -2.2149   -0.3690 N   0  0  0  0  0  0  0  0  0  0  0  0
    1.1164   -3.4129    1.4345 N   0  0  0  0  0  0  0  0  0  0  0  0
   -1.8898   -1.5336    0.6148 C   0  0  1  0  0  0  0  0  0  0  0  0
   -2.7837   -2.2132   -0.4825 C   0  0  0  0  0  0  0  0  0  0  0  0
   -3.1888    0.5871    0.5799 C   0  0  0  0  0  0  0  0  0  0  0  0
   -4.1738   -0.1604   -0.2274 C   0  0  0  0  0  0  0  0  0  0  0  0
   -4.0232   -1.4392   -0.6962 C   0  0  0  0  0  0  0  0  0  0  0  0
   -0.9609    0.5909    1.4651 C   0  0  0  0  0  0  0  0  0  0  0  0
   -0.5206   -2.2052    0.5837 C   0  0  0  0  0  0  0  0  0  0  0  0
   -0.4443    1.9247    0.9947 C   0  0  0  0  0  0  0  0  0  0  0  0
   -5.9486   -0.8250   -1.3287 C   0  0  0  0  0  0  0  0  0  0  0  0
    1.3635   -2.9680    0.1989 C   0  0  0  0  0  0  0  0  0  0  0  0
    0.5796    1.9825    0.0491 C   0  0  0  0  0  0  0  0  0  0  0  0
   -0.9901    3.1028    1.5044 C   0  0  0  0  0  0  0  0  0  0  0  0
    2.6173   -3.2707   -0.5001 C   0  0  0  0  0  0  0  0  0  0  0  0
    1.0577    3.2181   -0.3865 C   0  0  0  0  0  0  0  0  0  0  0  0
   -0.5120    4.3385    1.0689 C   0  0  0  0  0  0  0  0  0  0  0  0
    0.5119    4.3962    0.1234 C   0  0  0  0  0  0  0  0  0  0  0  0
    3.6307   -2.1305   -0.5175 C   0  0  0  0  0  0  0  0  0  0  0  0
    3.4923   -1.0877   -1.4334 C   0  0  0  0  0  0  0  0  0  0  0  0
    4.6960   -2.1311    0.3828 C   0  0  0  0  0  0  0  0  0  0  0  0
    4.4192   -0.0454   -1.4491 C   0  0  0  0  0  0  0  0  0  0  0  0
    5.6229   -1.0888    0.3674 C   0  0  0  0  0  0  0  0  0  0  0  0
    5.4845   -0.0461   -0.5487 C   0  0  0  0  0  0  0  0  0  0  0  0
    2.0255    5.5877   -1.2712 C   0  0  0  0  0  0  0  0  0  0  0  0
   -2.3421   -1.7526    1.5942 H   0  0  0  0  0  0  0  0  0  0  0  0
   -3.0237   -3.2399   -0.1817 H   0  0  0  0  0  0  0  0  0  0  0  0
   -2.2420   -2.2691   -1.4356 H   0  0  0  0  0  0  0  0  0  0  0  0
   -3.1508    1.6222    0.2226 H   0  0  0  0  0  0  0  0  0  0  0  0
   -3.5343    0.5944    1.6219 H   0  0  0  0  0  0  0  0  0  0  0  0
   -0.0662   -0.0119    1.6626 H   0  0  0  0  0  0  0  0  0  0  0  0
   -1.4492    0.6774    2.4455 H   0  0  0  0  0  0  0  0  0  0  0  0
   -5.8611    1.1197   -0.4514 H   0  0  0  0  0  0  0  0  0  0  0  0
   -6.9366   -0.7770   -1.7641 H   0  0  0  0  0  0  0  0  0  0  0  0
    1.0122    1.0708   -0.3548 H   0  0  0  0  0  0  0  0  0  0  0  0
   -1.7884    3.0721    2.2410 H   0  0  0  0  0  0  0  0  0  0  0  0
    2.3963   -3.5478   -1.5396 H   0  0  0  0  0  0  0  0  0  0  0  0
    3.0897   -4.1624   -0.0669 H   0  0  0  0  0  0  0  0  0  0  0  0
    1.8544    3.1899   -1.1222 H   0  0  0  0  0  0  0  0  0  0  0  0
   -0.9413    5.2529    1.4694 H   0  0  0  0  0  0  0  0  0  0  0  0
    2.6664   -1.0758   -2.1396 H   0  0  0  0  0  0  0  0  0  0  0  0
    4.8140   -2.9365    1.1027 H   0  0  0  0  0  0  0  0  0  0  0  0
    4.3106    0.7672   -2.1615 H   0  0  0  0  0  0  0  0  0  0  0  0
    6.4520   -1.0888    1.0689 H   0  0  0  0  0  0  0  0  0  0  0  0
    6.2059    0.7657   -0.5605 H   0  0  0  0  0  0  0  0  0  0  0  0
    2.2727    6.6305   -1.4954 H   0  0  0  0  0  0  0  0  0  0  0  0
    1.6990    5.1276   -2.2100 H   0  0  0  0  0  0  0  0  0  0  0  0
    2.9341    5.1219   -0.8746 H   0  0  0  0  0  0  0  0  0  0  0  0
  1  7  1  0  0  0  0
  1 14  1  0  0  0  0
  2 23  1  0  0  0  0
  2 30  1  0  0  0  0
  3  8  1  0  0  0  0
  3 10  1  0  0  0  0
  3 13  1  0  0  0  0
  4 11  1  0  0  0  0
  4 16  1  0  0  0  0
  4 38  1  0  0  0  0
  5 12  1  0  0  0  0
  5 16  2  0  0  0  0
  6 14  2  0  0  0  0
  6 17  1  0  0  0  0
  7 17  2  0  0  0  0
  8  9  1  0  0  0  0
  8 14  1  0  0  0  0
  8 31  1  0  0  0  0
  9 12  1  0  0  0  0
  9 32  1  0  0  0  0
  9 33  1  0  0  0  0
 10 11  1  0  0  0  0
 10 34  1  0  0  0  0
 10 35  1  0  0  0  0
 11 12  2  0  0  0  0
 13 15  1  0  0  0  0
 13 36  1  0  0  0  0
 13 37  1  0  0  0  0
 15 18  2  0  0  0  0
 15 19  1  0  0  0  0
 16 39  1  0  0  0  0
 17 20  1  0  0  0  0
 18 21  1  0  0  0  0
 18 40  1  0  0  0  0
 19 22  2  0  0  0  0
 19 41  1  0  0  0  0
 20 24  1  0  0  0  0
 20 42  1  0  0  0  0
 20 43  1  0  0  0  0
 21 23  2  0  0  0  0
 21 44  1  0  0  0  0
 22 23  1  0  0  0  0
 22 45  1  0  0  0  0
 24 25  2  0  0  0  0
 24 26  1  0  0  0  0
 25 27  1  0  0  0  0
 25 46  1  0  0  0  0
 26 28  2  0  0  0  0
 26 47  1  0  0  0  0
 27 29  2  0  0  0  0
 27 48  1  0  0  0  0
 28 29  1  0  0  0  0
 28 49  1  0  0  0  0
 29 50  1  0  0  0  0
 30 51  1  0  0  0  0
 30 52  1  0  0  0  0
 30 53  1  0  0  0  0
M  END
> <PUBCHEM_COMPOUND_CID>
26744910

> <PUBCHEM_CONFORMER_RMSD>
1

> <PUBCHEM_CONFORMER_DIVERSEORDER>
1
113
61
30
101
58
89
98
5
114
59
53
111
79
100
91
83
80
7
56
76
117
87
86
31
107
81
108
64
104
32
94
45
66
60
105
92
47
69
62
121
68
33
55
82
93
6
15
4
102
85
97
70
112
13
99
46
25
109
35
63
90
9
27
38
96
78
95
120
18
20
37
122
17
43
84
36
51
119
14
2
103
118
49
11
75
39
106
71
110
48
28
74
65
40
50
10
116
72
41
21
115
12
54
23
29
8
67
77
34
88
57
3
22
52
73
44
19
42
16
24
26

> <PUBCHEM_MMFF94_PARTIAL_CHARGES>
41
1 -0.02
10 0.45
11 -0.33
12 0.05
13 0.41
14 0.3
15 -0.14
16 0.04
17 0.34
18 -0.15
19 -0.15
2 -0.36
20 0.32
21 -0.15
22 -0.15
23 0.08
24 -0.14
25 -0.15
26 -0.15
27 -0.15
28 -0.15
29 -0.15
3 -0.81
30 0.28
38 0.27
39 0.15
4 0.03
40 0.15
41 0.15
44 0.15
45 0.15
46 0.15
47 0.15
48 0.15
49 0.15
5 -0.57
50 0.15
6 -0.57
7 -0.41
8 0.45
9 0.18

> <PUBCHEM_EFFECTIVE_ROTOR_COUNT>
6.8

> <PUBCHEM_PHARMACOPHORE_FEATURES>
10
1 2 acceptor
1 3 cation
1 4 donor
3 4 5 16 cation
3 6 7 17 cation
5 1 6 7 14 17 rings
5 4 5 11 12 16 rings
6 15 18 19 21 22 23 rings
6 24 25 26 27 28 29 rings
6 3 8 9 10 11 12 rings

> <PUBCHEM_HEAVY_ATOM_COUNT>
30

> <PUBCHEM_ATOM_DEF_STEREO_COUNT>
1

> <PUBCHEM_ATOM_UDEF_STEREO_COUNT>
0

> <PUBCHEM_BOND_DEF_STEREO_COUNT>
0

> <PUBCHEM_BOND_UDEF_STEREO_COUNT>
0

> <PUBCHEM_ISOTOPIC_ATOM_COUNT>
0

> <PUBCHEM_COMPONENT_COUNT>
1

> <PUBCHEM_CACTVS_TAUTO_COUNT>
2

> <PUBCHEM_CONFORMER_ID>
0198184E00000001

> <PUBCHEM_MMFF94_ENERGY>
76.8716

> <PUBCHEM_FEATURE_SELFOVERLAP>
50.848

> <PUBCHEM_SHAPE_FINGERPRINT>
10670039 82 18268166270964257086
10871710 139 18195262013289145811
10930396 42 18124000612748402864
10940486 97 17846205675570466855
12788726 201 18337686226213318436
13911987 19 18261970603813044150
14068700 675 18272650147284269304
14394314 77 18339366257915607617
14681490 219 18411696556854356493
14725015 67 18340469090322776090
14790565 3 17335065555705265449
15210252 30 18408320012464239264
15420108 30 17553788169734699873
15439362 3 18193271025797871301
15775530 1 17902234738926964923
15927050 60 17261326206639371870
15961568 22 18413393120882273966
167882 2 18122060064044146437
17627616 140 17472709499935323420
17852330 53 10666914630704984061
20642791 239 18409729565202452867
20771845 165 17899691551315211077
2132832 1 17755283596714579938
21344244 246 18055059115498174095
21641784 216 18268440044246648870
22113638 7 18341614884143710350
23559900 14 18198335363237948953
23576562 1 18339909443568496741
24771750 20 18121786286033751207
3298306 158 17693380348903681316
3388396 114 18337677412919776614
463206 1 18409737274141072279
5265222 85 16823347891598008317
532947 4 18198336458248627800
59444896 2 17556621787377170209
6004065 56 18268983353203914102
6036956 94 18190196748669415188
6371009 1 18262800658426116770
653340 110 18123464982802342976
6608658 132 18340500962847837542
6669772 16 17908141323822484533

> <PUBCHEM_SHAPE_MULTIPOLES>
580.74
10.61
7.23
1.41
1.01
12.89
-0.07
-8.55
5.06
-3.49
0.06
0.23
0.05
-1.81

> <PUBCHEM_SHAPE_SELFOVERLAP>
1271.604

> <PUBCHEM_SHAPE_VOLUME>
315.3

> <PUBCHEM_COORDINATE_TYPE>
2
5
10

$$$$
