40776834
  -OEChem-12032416173D

 67 70  0     1  0  0  0  0  0999 V2000
   -4.6667    1.9548   -1.0203 S   0  0  0  0  0  0  0  0  0  0  0  0
   -5.9082    2.1656   -1.7386 O   0  0  0  0  0  0  0  0  0  0  0  0
   -3.3976    1.9353   -1.7222 O   0  0  0  0  0  0  0  0  0  0  0  0
    4.5646    2.5317    1.4621 O   0  0  0  0  0  0  0  0  0  0  0  0
    6.9213    1.4517    0.4606 O   0  0  0  0  0  0  0  0  0  0  0  0
   -2.8003   -1.6251    2.2787 N   0  0  2  0  0  0  0  0  0  0  0  0
   -4.8165    0.5359   -0.0442 N   0  0  0  0  0  0  0  0  0  0  0  0
   -0.3718   -2.0079   -1.5655 N   0  0  0  0  0  0  0  0  0  0  0  0
    1.7071   -0.9263   -2.1275 N   0  0  0  0  0  0  0  0  0  0  0  0
   -2.3155   -3.1366    0.2138 C   0  0  2  0  0  0  0  0  0  0  0  0
   -0.9997   -2.5041    0.7457 C   0  0  2  0  0  0  0  0  0  0  0  0
   -3.7239   -1.2780    1.1666 C   0  0  2  0  0  0  0  0  0  0  0  0
   -3.3187   -2.0149   -0.1281 C   0  0  0  0  0  0  0  0  0  0  0  0
   -2.9220   -3.9480    1.3788 C   0  0  0  0  0  0  0  0  0  0  0  0
   -1.3918   -1.4680    1.8376 C   0  0  0  0  0  0  0  0  0  0  0  0
   -3.0207   -3.0499    2.6243 C   0  0  0  0  0  0  0  0  0  0  0  0
   -3.8354    0.2329    0.9516 C   0  0  0  0  0  0  0  0  0  0  0  0
   -0.0168   -1.9326   -0.2661 C   0  0  0  0  0  0  0  0  0  0  0  0
    1.1669   -1.3767    0.1744 C   0  0  0  0  0  0  0  0  0  0  0  0
    1.9985   -0.8843   -0.8108 C   0  0  0  0  0  0  0  0  0  0  0  0
    0.5236   -1.4932   -2.4298 C   0  0  0  0  0  0  0  0  0  0  0  0
   -4.5520    3.1945    0.2494 C   0  0  0  0  0  0  0  0  0  0  0  0
    3.2668   -0.2789   -0.4818 C   0  0  0  0  0  0  0  0  0  0  0  0
   -4.4079    4.5851   -0.3462 C   0  0  0  0  0  0  0  0  0  0  0  0
    0.1673   -1.5599   -3.8764 C   0  0  0  0  0  0  0  0  0  0  0  0
    3.3096    0.8483    0.3387 C   0  0  0  0  0  0  0  0  0  0  0  0
    4.4497   -0.8216   -0.9836 C   0  0  0  0  0  0  0  0  0  0  0  0
   -4.2898    5.6444    0.7368 C   0  0  0  0  0  0  0  0  0  0  0  0
    4.5355    1.4327    0.6576 C   0  0  0  0  0  0  0  0  0  0  0  0
    5.6755   -0.2370   -0.6649 C   0  0  0  0  0  0  0  0  0  0  0  0
    5.7183    0.8901    0.1558 C   0  0  0  0  0  0  0  0  0  0  0  0
    4.6677    2.3040    2.8664 C   0  0  0  0  0  0  0  0  0  0  0  0
    8.0828    0.8358   -0.0930 C   0  0  0  0  0  0  0  0  0  0  0  0
   -2.1400   -3.7837   -0.6520 H   0  0  0  0  0  0  0  0  0  0  0  0
   -0.4435   -3.3167    1.2387 H   0  0  0  0  0  0  0  0  0  0  0  0
   -4.7307   -1.6203    1.4496 H   0  0  0  0  0  0  0  0  0  0  0  0
   -2.8773   -1.3312   -0.8619 H   0  0  0  0  0  0  0  0  0  0  0  0
   -4.2115   -2.4504   -0.5940 H   0  0  0  0  0  0  0  0  0  0  0  0
   -2.3007   -4.8237    1.5997 H   0  0  0  0  0  0  0  0  0  0  0  0
   -3.9159   -4.3173    1.0981 H   0  0  0  0  0  0  0  0  0  0  0  0
   -0.7342   -1.5981    2.7078 H   0  0  0  0  0  0  0  0  0  0  0  0
   -1.2148   -0.4385    1.5067 H   0  0  0  0  0  0  0  0  0  0  0  0
   -4.0034   -3.1735    3.0958 H   0  0  0  0  0  0  0  0  0  0  0  0
   -2.2906   -3.3663    3.3802 H   0  0  0  0  0  0  0  0  0  0  0  0
   -2.8665    0.6458    0.6539 H   0  0  0  0  0  0  0  0  0  0  0  0
   -4.1245    0.7136    1.8936 H   0  0  0  0  0  0  0  0  0  0  0  0
   -5.7783    0.2787    0.2141 H   0  0  0  0  0  0  0  0  0  0  0  0
    1.4285   -1.3413    1.2254 H   0  0  0  0  0  0  0  0  0  0  0  0
   -3.6794    2.9667    0.8682 H   0  0  0  0  0  0  0  0  0  0  0  0
   -5.4581    3.1259    0.8597 H   0  0  0  0  0  0  0  0  0  0  0  0
   -3.5221    4.6306   -0.9904 H   0  0  0  0  0  0  0  0  0  0  0  0
   -5.2713    4.8139   -0.9817 H   0  0  0  0  0  0  0  0  0  0  0  0
    0.5315   -2.4989   -4.3033 H   0  0  0  0  0  0  0  0  0  0  0  0
   -0.9178   -1.5102   -4.0114 H   0  0  0  0  0  0  0  0  0  0  0  0
    0.6159   -0.7266   -4.4262 H   0  0  0  0  0  0  0  0  0  0  0  0
    2.3942    1.2853    0.7325 H   0  0  0  0  0  0  0  0  0  0  0  0
    4.4356   -1.7024   -1.6217 H   0  0  0  0  0  0  0  0  0  0  0  0
   -5.1772    5.6505    1.3779 H   0  0  0  0  0  0  0  0  0  0  0  0
   -3.4121    5.4661    1.3662 H   0  0  0  0  0  0  0  0  0  0  0  0
   -4.1891    6.6371    0.2871 H   0  0  0  0  0  0  0  0  0  0  0  0
    6.5528   -0.7126   -1.0895 H   0  0  0  0  0  0  0  0  0  0  0  0
    4.6868    3.2742    3.3703 H   0  0  0  0  0  0  0  0  0  0  0  0
    5.5923    1.7683    3.1033 H   0  0  0  0  0  0  0  0  0  0  0  0
    3.8025    1.7389    3.2275 H   0  0  0  0  0  0  0  0  0  0  0  0
    8.9481    1.4117    0.2517 H   0  0  0  0  0  0  0  0  0  0  0  0
    8.0834    0.8855   -1.1872 H   0  0  0  0  0  0  0  0  0  0  0  0
    8.2133   -0.1864    0.2783 H   0  0  0  0  0  0  0  0  0  0  0  0
  1  2  2  0  0  0  0
  1  3  2  0  0  0  0
  1  7  1  0  0  0  0
  1 22  1  0  0  0  0
  4 29  1  0  0  0  0
  4 32  1  0  0  0  0
  5 31  1  0  0  0  0
  5 33  1  0  0  0  0
  6 12  1  0  0  0  0
  6 15  1  0  0  0  0
  6 16  1  0  0  0  0
  7 17  1  0  0  0  0
  7 47  1  0  0  0  0
  8 18  2  0  0  0  0
  8 21  1  0  0  0  0
  9 20  1  0  0  0  0
  9 21  2  0  0  0  0
 10 11  1  0  0  0  0
 10 13  1  0  0  0  0
 10 14  1  0  0  0  0
 10 34  1  0  0  0  0
 11 15  1  0  0  0  0
 11 18  1  0  0  0  0
 11 35  1  0  0  0  0
 12 13  1  0  0  0  0
 12 17  1  0  0  0  0
 12 36  1  0  0  0  0
 13 37  1  0  0  0  0
 13 38  1  0  0  0  0
 14 16  1  0  0  0  0
 14 39  1  0  0  0  0
 14 40  1  0  0  0  0
 15 41  1  0  0  0  0
 15 42  1  0  0  0  0
 16 43  1  0  0  0  0
 16 44  1  0  0  0  0
 17 45  1  0  0  0  0
 17 46  1  0  0  0  0
 18 19  1  0  0  0  0
 19 20  2  0  0  0  0
 19 48  1  0  0  0  0
 20 23  1  0  0  0  0
 21 25  1  0  0  0  0
 22 24  1  0  0  0  0
 22 49  1  0  0  0  0
 22 50  1  0  0  0  0
 23 26  2  0  0  0  0
 23 27  1  0  0  0  0
 24 28  1  0  0  0  0
 24 51  1  0  0  0  0
 24 52  1  0  0  0  0
 25 53  1  0  0  0  0
 25 54  1  0  0  0  0
 25 55  1  0  0  0  0
 26 29  1  0  0  0  0
 26 56  1  0  0  0  0
 27 30  2  0  0  0  0
 27 57  1  0  0  0  0
 28 58  1  0  0  0  0
 28 59  1  0  0  0  0
 28 60  1  0  0  0  0
 29 31  2  0  0  0  0
 30 31  1  0  0  0  0
 30 61  1  0  0  0  0
 32 62  1  0  0  0  0
 32 63  1  0  0  0  0
 32 64  1  0  0  0  0
 33 65  1  0  0  0  0
 33 66  1  0  0  0  0
 33 67  1  0  0  0  0
M  END
> <PUBCHEM_COMPOUND_CID>
40776834

> <PUBCHEM_CONFORMER_RMSD>
1

> <PUBCHEM_CONFORMER_DIVERSEORDER>
1
79
54
109
76
73
90
53
42
92
7
105
31
83
55
40
11
33
84
103
108
19
113
50
114
110
104
99
18
58
64
30
91
86
68
45
61
46
63
51
102
38
56
43
9
17
16
13
20
74
24
32
62
77
112
52
3
98
8
94
71
88
23
93
107
59
57
37
78
96
29
81
47
49
97
25
89
6
111
66
14
67
75
4
36
27
95
70
101
60
12
80
15
34
26
48
35
65
106
72
44
21
87
82
39
2
100
41
69
85
5
28
22
10

> <PUBCHEM_MMFF94_PARTIAL_CHARGES>
32
1 1.33
11 0.14
12 0.27
15 0.27
16 0.27
17 0.36
18 0.17
19 -0.15
2 -0.65
20 0.31
21 0.48
22 0.11
25 0.14
26 -0.15
27 -0.15
29 0.08
3 -0.65
30 -0.15
31 0.08
32 0.28
33 0.28
4 -0.36
47 0.42
48 0.15
5 -0.36
56 0.15
57 0.15
6 -0.81
61 0.15
7 -0.91
8 -0.62
9 -0.62

> <PUBCHEM_EFFECTIVE_ROTOR_COUNT>
10.2

> <PUBCHEM_PHARMACOPHORE_FEATURES>
12
1 2 acceptor
1 28 hydrophobe
1 3 acceptor
1 4 acceptor
1 5 acceptor
1 6 cation
1 7 donor
1 8 acceptor
3 8 9 21 cation
6 23 26 27 29 30 31 rings
6 8 9 18 19 20 21 rings
8 6 10 11 12 13 14 15 16 rings

> <PUBCHEM_HEAVY_ATOM_COUNT>
33

> <PUBCHEM_ATOM_DEF_STEREO_COUNT>
3

> <PUBCHEM_ATOM_UDEF_STEREO_COUNT>
0

> <PUBCHEM_BOND_DEF_STEREO_COUNT>
0

> <PUBCHEM_BOND_UDEF_STEREO_COUNT>
0

> <PUBCHEM_ISOTOPIC_ATOM_COUNT>
0

> <PUBCHEM_COMPONENT_COUNT>
1

> <PUBCHEM_CACTVS_TAUTO_COUNT>
1

> <PUBCHEM_CONFORMER_ID>
026E348200000001

> <PUBCHEM_MMFF94_ENERGY>
100.5024

> <PUBCHEM_FEATURE_SELFOVERLAP>
60.919

> <PUBCHEM_SHAPE_FINGERPRINT>
10554248 39 16415494761766712604
10675989 125 17618228299823198241
11135609 201 18265341608365178305
11374522 101 17603867827966659772
11387372 6 12615527462118591248
11720765 8 17047402497541346015
12107183 9 17897152542864560578
12128747 34 18335986385405786370
13103583 49 15285366132206687947
13383661 66 8213857149668782212
13583140 156 18271814578824926734
13911987 19 16845019008177880587
13947947 63 18041827420865810456
14068700 675 17098338902722536019
14705955 166 18261961841789045115
14932701 244 18342740703010371269
14950920 106 14997154473960159321
15119646 57 17702111270815242641
15475509 35 9115437374255256053
15484559 13 15323700308592559377
16993438 75 18342738515980928713
18470217 77 18265895954966342491
19304671 126 17697605390259771549
19438510 23 18267586806471172473
20587220 17 17247490619132084461
20775530 9 12031203080648150623
21033648 144 18202572777787461979
21033648 29 18339635750354867048
2132832 1 17170406366600253711
21591340 35 17689441486152717057
21792965 25 17679847229973591080
21859007 373 18272082821355116632
23522609 53 16733565900486120150
23569914 2 17626903721655313608
2838139 119 18272363127414628253
3459 39 18113618954574962045
376196 1 18198899206792169237
4366758 6 17530952555029918759
437795 96 18127116692098290400
484985 159 8214153962447427839
4938544 92 18187365471445484558
508706 21 18336822104030495009
5951187 136 17479740412574401845
6086070 43 17703497879389059194
9849439 229 18045507413733749825

> <PUBCHEM_SHAPE_MULTIPOLES>
639.57
15.97
5.62
2.67
22.04
6.05
-1.02
16.33
2.19
-11.76
2.03
-0.31
-1.3
4.75

> <PUBCHEM_SHAPE_SELFOVERLAP>
1340.554

> <PUBCHEM_SHAPE_VOLUME>
365

> <PUBCHEM_COORDINATE_TYPE>
2
5
10

$$$$
