40777683
  -OEChem-12032416183D

 57 60  0     1  0  0  0  0  0999 V2000
   -8.5201    2.1242    0.1754 F   0  0  0  0  0  0  0  0  0  0  0  0
   -9.2048    0.0655    0.3193 F   0  0  0  0  0  0  0  0  0  0  0  0
   -8.8377    0.9614   -1.6276 F   0  0  0  0  0  0  0  0  0  0  0  0
    4.1577    2.4473   -0.4637 O   0  0  0  0  0  0  0  0  0  0  0  0
    9.6127   -0.7607   -0.4411 O   0  0  0  0  0  0  0  0  0  0  0  0
    3.5211    0.6197    0.8153 N   0  0  0  0  0  0  0  0  0  0  0  0
   -2.9759   -0.9555   -0.1278 N   0  0  0  0  0  0  0  0  0  0  0  0
   -2.6660   -2.1669   -0.6204 N   0  0  0  0  0  0  0  0  0  0  0  0
    0.6070   -0.8478    0.6281 C   0  0  2  0  0  0  0  0  0  0  0  0
    1.2015    0.4170   -0.0252 C   0  0  0  0  0  0  0  0  0  0  0  0
    2.1535    1.0185    1.0160 C   0  0  1  0  0  0  0  0  0  0  0  0
   -0.8261   -1.1106    0.2260 C   0  0  0  0  0  0  0  0  0  0  0  0
    0.8095   -0.5803    2.0913 C   0  0  0  0  0  0  0  0  0  0  0  0
    1.6555    0.4347    2.2971 C   0  0  0  0  0  0  0  0  0  0  0  0
   -1.9090   -0.2820    0.3907 C   0  0  0  0  0  0  0  0  0  0  0  0
   -1.3514   -2.2560   -0.4015 C   0  0  0  0  0  0  0  0  0  0  0  0
   -2.0124    1.0663    0.9850 C   0  0  0  0  0  0  0  0  0  0  0  0
   -0.6288   -3.4716   -0.8158 C   0  0  0  0  0  0  0  0  0  0  0  0
   -4.2948   -0.5034   -0.1813 C   0  0  0  0  0  0  0  0  0  0  0  0
    4.4242    1.3789    0.0805 C   0  0  0  0  0  0  0  0  0  0  0  0
    5.7923    0.8162   -0.0562 C   0  0  0  0  0  0  0  0  0  0  0  0
   -5.3052   -1.2201    0.4599 C   0  0  0  0  0  0  0  0  0  0  0  0
   -4.6032    0.6640   -0.8797 C   0  0  0  0  0  0  0  0  0  0  0  0
   -6.6239   -0.7693    0.4026 C   0  0  0  0  0  0  0  0  0  0  0  0
   -5.9219    1.1146   -0.9371 C   0  0  0  0  0  0  0  0  0  0  0  0
   -6.9324    0.3980   -0.2958 C   0  0  0  0  0  0  0  0  0  0  0  0
    6.5738    1.1444   -1.1640 C   0  0  0  0  0  0  0  0  0  0  0  0
    6.2946   -0.0417    0.9222 C   0  0  0  0  0  0  0  0  0  0  0  0
   -8.3426    0.8790   -0.3573 C   0  0  0  0  0  0  0  0  0  0  0  0
    7.8576    0.6145   -1.2937 C   0  0  0  0  0  0  0  0  0  0  0  0
    7.5784   -0.5718    0.7926 C   0  0  0  0  0  0  0  0  0  0  0  0
    8.3597   -0.2436   -0.3153 C   0  0  0  0  0  0  0  0  0  0  0  0
   10.3572   -0.3831   -1.5983 C   0  0  0  0  0  0  0  0  0  0  0  0
    1.2229   -1.7161    0.3600 H   0  0  0  0  0  0  0  0  0  0  0  0
    1.7063    0.1716   -0.9676 H   0  0  0  0  0  0  0  0  0  0  0  0
    0.4293    1.1541   -0.2745 H   0  0  0  0  0  0  0  0  0  0  0  0
    2.0798    2.1111    1.0168 H   0  0  0  0  0  0  0  0  0  0  0  0
    0.3564   -1.1595    2.8836 H   0  0  0  0  0  0  0  0  0  0  0  0
    1.9586    0.7807    3.2751 H   0  0  0  0  0  0  0  0  0  0  0  0
    3.7912   -0.2986    1.1535 H   0  0  0  0  0  0  0  0  0  0  0  0
   -2.0063    1.8337    0.2044 H   0  0  0  0  0  0  0  0  0  0  0  0
   -2.9271    1.1802    1.5763 H   0  0  0  0  0  0  0  0  0  0  0  0
   -1.1846    1.2839    1.6635 H   0  0  0  0  0  0  0  0  0  0  0  0
   -0.1627   -3.9547    0.0490 H   0  0  0  0  0  0  0  0  0  0  0  0
   -1.2949   -4.2022   -1.2869 H   0  0  0  0  0  0  0  0  0  0  0  0
    0.1574   -3.2242   -1.5365 H   0  0  0  0  0  0  0  0  0  0  0  0
   -5.0820   -2.1300    1.0119 H   0  0  0  0  0  0  0  0  0  0  0  0
   -3.8338    1.2293   -1.3998 H   0  0  0  0  0  0  0  0  0  0  0  0
   -7.3959   -1.3417    0.9094 H   0  0  0  0  0  0  0  0  0  0  0  0
   -6.1532    2.0232   -1.4866 H   0  0  0  0  0  0  0  0  0  0  0  0
    6.1975    1.8074   -1.9387 H   0  0  0  0  0  0  0  0  0  0  0  0
    5.7315   -0.2982    1.8146 H   0  0  0  0  0  0  0  0  0  0  0  0
    8.4100    0.9098   -2.1792 H   0  0  0  0  0  0  0  0  0  0  0  0
    7.9674   -1.2343    1.5611 H   0  0  0  0  0  0  0  0  0  0  0  0
   11.3284   -0.8848   -1.5355 H   0  0  0  0  0  0  0  0  0  0  0  0
   10.5546    0.6941   -1.6160 H   0  0  0  0  0  0  0  0  0  0  0  0
    9.8759   -0.7323   -2.5181 H   0  0  0  0  0  0  0  0  0  0  0  0
  1 29  1  0  0  0  0
  2 29  1  0  0  0  0
  3 29  1  0  0  0  0
  4 20  2  0  0  0  0
  5 32  1  0  0  0  0
  5 33  1  0  0  0  0
  6 11  1  0  0  0  0
  6 20  1  0  0  0  0
  6 40  1  0  0  0  0
  7  8  1  0  0  0  0
  7 15  1  0  0  0  0
  7 19  1  0  0  0  0
  8 16  2  0  0  0  0
  9 10  1  0  0  0  0
  9 12  1  0  0  0  0
  9 13  1  0  0  0  0
  9 34  1  0  0  0  0
 10 11  1  0  0  0  0
 10 35  1  0  0  0  0
 10 36  1  0  0  0  0
 11 14  1  0  0  0  0
 11 37  1  0  0  0  0
 12 15  2  0  0  0  0
 12 16  1  0  0  0  0
 13 14  2  0  0  0  0
 13 38  1  0  0  0  0
 14 39  1  0  0  0  0
 15 17  1  0  0  0  0
 16 18  1  0  0  0  0
 17 41  1  0  0  0  0
 17 42  1  0  0  0  0
 17 43  1  0  0  0  0
 18 44  1  0  0  0  0
 18 45  1  0  0  0  0
 18 46  1  0  0  0  0
 19 22  2  0  0  0  0
 19 23  1  0  0  0  0
 20 21  1  0  0  0  0
 21 27  2  0  0  0  0
 21 28  1  0  0  0  0
 22 24  1  0  0  0  0
 22 47  1  0  0  0  0
 23 25  2  0  0  0  0
 23 48  1  0  0  0  0
 24 26  2  0  0  0  0
 24 49  1  0  0  0  0
 25 26  1  0  0  0  0
 25 50  1  0  0  0  0
 26 29  1  0  0  0  0
 27 30  1  0  0  0  0
 27 51  1  0  0  0  0
 28 31  2  0  0  0  0
 28 52  1  0  0  0  0
 30 32  2  0  0  0  0
 30 53  1  0  0  0  0
 31 32  1  0  0  0  0
 31 54  1  0  0  0  0
 33 55  1  0  0  0  0
 33 56  1  0  0  0  0
 33 57  1  0  0  0  0
M  END
> <PUBCHEM_COMPOUND_CID>
40777683

> <PUBCHEM_CONFORMER_RMSD>
1

> <PUBCHEM_CONFORMER_DIVERSEORDER>
1
8
10
9
12
7
2
13
11
16
18
15
17
3
4
6
14
5

> <PUBCHEM_MMFF94_PARTIAL_CHARGES>
43
1 -0.34
11 0.44
12 -0.18
13 -0.29
14 -0.29
15 -0.33
16 0.11
17 0.18
18 0.18
19 -0.02
2 -0.34
20 0.54
21 0.09
22 -0.15
23 -0.15
24 -0.15
25 -0.15
26 -0.14
27 -0.15
28 -0.15
29 1.16
3 -0.34
30 -0.15
31 -0.15
32 0.08
33 0.28
38 0.15
39 0.15
4 -0.57
40 0.37
47 0.15
48 0.15
49 0.15
5 -0.36
50 0.15
51 0.15
52 0.15
53 0.15
54 0.15
6 -0.73
7 0.59
8 -0.71
9 0.32

> <PUBCHEM_EFFECTIVE_ROTOR_COUNT>
7.6

> <PUBCHEM_PHARMACOPHORE_FEATURES>
8
1 4 acceptor
1 5 acceptor
1 6 donor
1 8 acceptor
5 7 8 12 15 16 rings
5 9 10 11 13 14 rings
6 19 22 23 24 25 26 rings
6 21 27 28 30 31 32 rings

> <PUBCHEM_HEAVY_ATOM_COUNT>
33

> <PUBCHEM_ATOM_DEF_STEREO_COUNT>
2

> <PUBCHEM_ATOM_UDEF_STEREO_COUNT>
0

> <PUBCHEM_BOND_DEF_STEREO_COUNT>
0

> <PUBCHEM_BOND_UDEF_STEREO_COUNT>
0

> <PUBCHEM_ISOTOPIC_ATOM_COUNT>
0

> <PUBCHEM_COMPONENT_COUNT>
1

> <PUBCHEM_CACTVS_TAUTO_COUNT>
2

> <PUBCHEM_CONFORMER_ID>
026E37D300000001

> <PUBCHEM_MMFF94_ENERGY>
95.0659

> <PUBCHEM_FEATURE_SELFOVERLAP>
40.598

> <PUBCHEM_SHAPE_FINGERPRINT>
10 15 11169909503094389256
10162869 55 12967126121506429152
10165383 225 18413669098300721999
10369192 42 18335133190394412735
10483366 6 18272371962420890496
106641 1 12251904793568599553
10670039 82 18131633357717418465
10674148 151 16343704322725140347
10883706 17 13182439124135246829
11211813 128 11458420228841264184
11408170 108 15410627956431789524
12202916 173 15985108518015513300
12741549 16 15051733075837844626
12758862 11 17988921210728449912
13383668 1 15625949691029526772
14040221 8 18131360700519848632
14117953 113 18201727250058076870
14150022 121 13768193970654995215
14294032 229 18266744584369504545
14849402 71 16226335909840323109
14856354 85 16805605918959066779
14918687 75 13695881354686511793
15183329 4 18413673517711170024
15230672 131 18411978083672290182
15247644 1 16200433571905195487
15326923 82 10952045650105174811
15392192 104 14779266418851811985
15706992 2 17313392206210902853
15728490 51 8502370022977815160
15849732 13 18040434412309804134
16992610 120 16370735825037797754
19309040 13 16663203856425822110
19611394 137 17823709745101779403
20505436 4 17821720654714620131
21130935 74 8213605314324229608
21365058 27 16008746922374317010
21585482 111 18188485749990022429
21781055 127 17846217696645949555
21792961 116 18202286914161270827
22224240 67 14129057019310640473
23559900 14 17773590714856949320
23576562 1 18196359541655309949
249057 3 18412544340712729200
3004659 81 18411982499435662578
3092352 35 17530963596430961843
335352 9 18343016705117305589
3418910 222 10881675781095550550
4149490 64 13182158765532930247
45266715 3 16845303717797670902
474113 269 16773803550775299246
5028188 123 17603589676709066386
54076057 127 13334725822731287120
57303763 176 17202213914714241913
5758199 1 15791728607228734265
59682541 35 10953460739140245180
59755656 520 17240758527460639402
6081469 158 18130792240317636276
6126387 218 11743846854847941787
6201320 82 18117270351968455605
6438161 24 13470688157260511261
9663363 56 18131631189475877416
9689198 14 17603868922418045104
9953998 17 14923946756605567793
9962374 69 10809638034612121889

> <PUBCHEM_SHAPE_MULTIPOLES>
630.62
32.19
2.04
1.42
15.44
1.17
-0.38
-8.09
12.93
-1.46
0.52
1.3
-0.12
0.37

> <PUBCHEM_SHAPE_SELFOVERLAP>
1375.956

> <PUBCHEM_SHAPE_VOLUME>
346.5

> <PUBCHEM_COORDINATE_TYPE>
2
5
10

$$$$
