7663774
  -OEChem-12032416393D

 55 59  0     1  0  0  0  0  0999 V2000
   -2.6746    5.9554    0.0303 Cl  0  0  0  0  0  0  0  0  0  0  0  0
    1.8269   -1.4446    1.5333 S   0  0  0  0  0  0  0  0  0  0  0  0
    2.2683   -2.8015    1.7777 O   0  0  0  0  0  0  0  0  0  0  0  0
    1.2930   -0.6308    2.6051 O   0  0  0  0  0  0  0  0  0  0  0  0
   -3.4829   -4.0594    0.2812 O   0  0  0  0  0  0  0  0  0  0  0  0
    6.3176    1.4961   -0.9083 O   0  0  0  0  0  0  0  0  0  0  0  0
    0.7211   -1.4418    0.2278 N   0  0  2  0  0  0  0  0  0  0  0  0
   -2.2580   -2.2027   -0.4529 N   0  0  0  0  0  0  0  0  0  0  0  0
   -0.1391   -2.4673   -1.8724 C   0  0  1  0  0  0  0  0  0  0  0  0
   -0.9019   -0.2281   -1.2163 C   0  0  2  0  0  0  0  0  0  0  0  0
   -0.5033   -1.0931   -2.4095 C   0  0  0  0  0  0  0  0  0  0  0  0
    1.0374   -2.3759   -0.8886 C   0  0  0  0  0  0  0  0  0  0  0  0
    0.2970   -0.0959   -0.2567 C   0  0  0  0  0  0  0  0  0  0  0  0
   -1.3829   -3.0877   -1.2340 C   0  0  0  0  0  0  0  0  0  0  0  0
   -2.1203   -0.8007   -0.4866 C   0  0  0  0  0  0  0  0  0  0  0  0
   -3.0405   -0.0158    0.1323 C   0  0  0  0  0  0  0  0  0  0  0  0
   -3.3074   -2.8415    0.2316 C   0  0  0  0  0  0  0  0  0  0  0  0
   -4.1345   -0.6396    0.8524 C   0  0  0  0  0  0  0  0  0  0  0  0
   -4.2755   -1.9628    0.9261 C   0  0  0  0  0  0  0  0  0  0  0  0
    3.1715   -0.5642    0.8020 C   0  0  0  0  0  0  0  0  0  0  0  0
   -2.9496    1.4605    0.1070 C   0  0  0  0  0  0  0  0  0  0  0  0
    3.2215    0.8152    0.9182 C   0  0  0  0  0  0  0  0  0  0  0  0
    4.1537   -1.2675    0.1242 C   0  0  0  0  0  0  0  0  0  0  0  0
   -2.2336    2.1256    1.0974 C   0  0  0  0  0  0  0  0  0  0  0  0
   -3.5814    2.1742   -0.9071 C   0  0  0  0  0  0  0  0  0  0  0  0
    4.2836    1.5110    0.3405 C   0  0  0  0  0  0  0  0  0  0  0  0
    5.2159   -0.5718   -0.4535 C   0  0  0  0  0  0  0  0  0  0  0  0
   -2.1485    3.5177    1.0738 C   0  0  0  0  0  0  0  0  0  0  0  0
   -3.4962    3.5662   -0.9307 C   0  0  0  0  0  0  0  0  0  0  0  0
    5.2807    0.8174   -0.3453 C   0  0  0  0  0  0  0  0  0  0  0  0
   -2.7799    4.2381    0.0597 C   0  0  0  0  0  0  0  0  0  0  0  0
    6.3221    2.9150   -0.7590 C   0  0  0  0  0  0  0  0  0  0  0  0
    0.1776   -3.1111   -2.7027 H   0  0  0  0  0  0  0  0  0  0  0  0
   -1.1279    0.7673   -1.6151 H   0  0  0  0  0  0  0  0  0  0  0  0
   -1.3263   -1.1632   -3.1317 H   0  0  0  0  0  0  0  0  0  0  0  0
    0.3496   -0.6498   -2.9379 H   0  0  0  0  0  0  0  0  0  0  0  0
    1.2486   -3.3753   -0.4939 H   0  0  0  0  0  0  0  0  0  0  0  0
    1.9235   -2.0256   -1.4284 H   0  0  0  0  0  0  0  0  0  0  0  0
    1.1177    0.3852   -0.7992 H   0  0  0  0  0  0  0  0  0  0  0  0
    0.0334    0.5357    0.5952 H   0  0  0  0  0  0  0  0  0  0  0  0
   -2.0171   -3.4950   -2.0337 H   0  0  0  0  0  0  0  0  0  0  0  0
   -1.1042   -3.9455   -0.6087 H   0  0  0  0  0  0  0  0  0  0  0  0
   -4.8516    0.0028    1.3550 H   0  0  0  0  0  0  0  0  0  0  0  0
   -5.0930   -2.4202    1.4704 H   0  0  0  0  0  0  0  0  0  0  0  0
    2.4546    1.3738    1.4463 H   0  0  0  0  0  0  0  0  0  0  0  0
    4.1205   -2.3481    0.0258 H   0  0  0  0  0  0  0  0  0  0  0  0
   -1.7433    1.5793    1.8992 H   0  0  0  0  0  0  0  0  0  0  0  0
   -4.1425    1.6638   -1.6858 H   0  0  0  0  0  0  0  0  0  0  0  0
    4.2718    2.5888    0.4619 H   0  0  0  0  0  0  0  0  0  0  0  0
    5.9894   -1.1173   -0.9872 H   0  0  0  0  0  0  0  0  0  0  0  0
   -1.5881    4.0279    1.8531 H   0  0  0  0  0  0  0  0  0  0  0  0
   -3.9929    4.1144   -1.7272 H   0  0  0  0  0  0  0  0  0  0  0  0
    7.2164    3.2907   -1.2669 H   0  0  0  0  0  0  0  0  0  0  0  0
    6.4048    3.2088    0.2929 H   0  0  0  0  0  0  0  0  0  0  0  0
    5.4582    3.3742   -1.2515 H   0  0  0  0  0  0  0  0  0  0  0  0
  1 31  1  0  0  0  0
  2  3  2  0  0  0  0
  2  4  2  0  0  0  0
  2  7  1  0  0  0  0
  2 20  1  0  0  0  0
  5 17  2  0  0  0  0
  6 30  1  0  0  0  0
  6 32  1  0  0  0  0
  7 12  1  0  0  0  0
  7 13  1  0  0  0  0
  8 14  1  0  0  0  0
  8 15  1  0  0  0  0
  8 17  1  0  0  0  0
  9 11  1  0  0  0  0
  9 12  1  0  0  0  0
  9 14  1  0  0  0  0
  9 33  1  0  0  0  0
 10 11  1  0  0  0  0
 10 13  1  0  0  0  0
 10 15  1  0  0  0  0
 10 34  1  0  0  0  0
 11 35  1  0  0  0  0
 11 36  1  0  0  0  0
 12 37  1  0  0  0  0
 12 38  1  0  0  0  0
 13 39  1  0  0  0  0
 13 40  1  0  0  0  0
 14 41  1  0  0  0  0
 14 42  1  0  0  0  0
 15 16  2  0  0  0  0
 16 18  1  0  0  0  0
 16 21  1  0  0  0  0
 17 19  1  0  0  0  0
 18 19  2  0  0  0  0
 18 43  1  0  0  0  0
 19 44  1  0  0  0  0
 20 22  2  0  0  0  0
 20 23  1  0  0  0  0
 21 24  2  0  0  0  0
 21 25  1  0  0  0  0
 22 26  1  0  0  0  0
 22 45  1  0  0  0  0
 23 27  2  0  0  0  0
 23 46  1  0  0  0  0
 24 28  1  0  0  0  0
 24 47  1  0  0  0  0
 25 29  2  0  0  0  0
 25 48  1  0  0  0  0
 26 30  2  0  0  0  0
 26 49  1  0  0  0  0
 27 30  1  0  0  0  0
 27 50  1  0  0  0  0
 28 31  2  0  0  0  0
 28 51  1  0  0  0  0
 29 31  1  0  0  0  0
 29 52  1  0  0  0  0
 32 53  1  0  0  0  0
 32 54  1  0  0  0  0
 32 55  1  0  0  0  0
M  END
> <PUBCHEM_COMPOUND_CID>
7663774

> <PUBCHEM_CONFORMER_RMSD>
0.8

> <PUBCHEM_CONFORMER_DIVERSEORDER>
1
3
4
6
5
8
2
7

> <PUBCHEM_MMFF94_PARTIAL_CHARGES>
40
1 -0.18
10 0.14
12 0.36
13 0.36
14 0.3
15 -0.03
16 -0.03
17 0.62
18 -0.15
19 -0.14
2 1.45
20 -0.01
21 0.03
22 -0.15
23 -0.15
24 -0.15
25 -0.15
26 -0.15
27 -0.15
28 -0.15
29 -0.15
3 -0.65
30 0.08
31 0.18
32 0.28
4 -0.65
43 0.15
44 0.15
45 0.15
46 0.15
47 0.15
48 0.15
49 0.15
5 -0.57
50 0.15
51 0.15
52 0.15
6 -0.36
7 -0.85
8 -0.47

> <PUBCHEM_EFFECTIVE_ROTOR_COUNT>
5

> <PUBCHEM_PHARMACOPHORE_FEATURES>
9
1 3 acceptor
1 4 acceptor
1 5 acceptor
1 6 acceptor
6 20 22 23 26 27 30 rings
6 21 24 25 28 29 31 rings
6 7 9 10 11 12 13 rings
6 8 15 16 17 18 19 rings
6 8 9 10 11 14 15 rings

> <PUBCHEM_HEAVY_ATOM_COUNT>
32

> <PUBCHEM_ATOM_DEF_STEREO_COUNT>
2

> <PUBCHEM_ATOM_UDEF_STEREO_COUNT>
0

> <PUBCHEM_BOND_DEF_STEREO_COUNT>
0

> <PUBCHEM_BOND_UDEF_STEREO_COUNT>
0

> <PUBCHEM_ISOTOPIC_ATOM_COUNT>
0

> <PUBCHEM_COMPONENT_COUNT>
1

> <PUBCHEM_CACTVS_TAUTO_COUNT>
1

> <PUBCHEM_CONFORMER_ID>
0074F09E00000001

> <PUBCHEM_MMFF94_ENERGY>
89.6036

> <PUBCHEM_FEATURE_SELFOVERLAP>
47.275

> <PUBCHEM_SHAPE_FINGERPRINT>
10165383 225 17489040347872603587
10670039 82 18341895246860917812
10842077 115 17769897377500404040
10906281 52 18271247115340347093
11578080 2 17630069086955857395
11763715 3 18052813934187070294
12107183 9 17829600670162449034
12156800 1 15403642900404299683
12633257 1 17612582333162157107
12788726 201 18263073473994287578
13726171 33 18272100374417282392
13761468 95 18059594467950769288
13965767 371 17391646471203774213
13994607 96 18271233950859293109
14251751 93 18341894091176942626
14713325 29 18342466957962118874
14787075 74 17898570036369101338
14856354 85 18195532725658880086
14955137 171 17906459083949076559
15163728 17 17980761532964906337
15439362 3 17765717923586302908
15444296 121 17758952628525137434
15575132 122 18411419518336509765
20764821 26 16106140189352890328
21033650 10 18192175822570289620
21796203 349 17469922177397132395
21860390 5 16977854001642615013
22907989 373 18341314644317558013
22956985 138 16818567194071815723
27425 322 17680436546135254577
4058900 60 17836088870919068793
4098825 35 18340779234464753958
4144715 1 18337399227877952026
469060 322 16877935070878213068
474 4 17622151374696154417
5081480 168 16415196827905754760
5109719 28 17690568481709587953
550186 7 18201729478576677348
550186 72 18338238287718522868
57527585 21 18128518402557978349
6201320 215 18342452682615252640
7808743 9 18411980234885597744
9849439 229 17760656863137830565
9981440 41 18054775197075150603

> <PUBCHEM_SHAPE_MULTIPOLES>
630.82
11.2
6.13
1.66
17.13
6.51
0.05
7.59
-0.4
-7.74
-0.44
0.28
-0.82
-0.58

> <PUBCHEM_SHAPE_SELFOVERLAP>
1364.212

> <PUBCHEM_SHAPE_VOLUME>
347.1

> <PUBCHEM_COORDINATE_TYPE>
2
5
10

$$$$
