71693203
  -OEChem-12032416303D

 72 74  0     1  0  0  0  0  0999 V2000
    3.7735   -0.3560   -1.3373 O   0  0  0  0  0  0  0  0  0  0  0  0
    0.8024   -1.8400    0.0667 O   0  0  0  0  0  0  0  0  0  0  0  0
    0.9392   -3.9622    0.8580 O   0  0  0  0  0  0  0  0  0  0  0  0
    3.3002    1.2686    0.2539 N   0  0  0  0  0  0  0  0  0  0  0  0
   -3.3856    0.6905    1.4673 N   0  0  0  0  0  0  0  0  0  0  0  0
   -2.1037   -0.5857    0.1759 N   0  0  0  0  0  0  0  0  0  0  0  0
    0.6828    1.9871   -1.0410 C   0  0  1  0  0  0  0  0  0  0  0  0
    1.7629    2.9831   -0.5497 C   0  0  1  0  0  0  0  0  0  0  0  0
   -0.7084    2.4224   -0.5560 C   0  0  0  0  0  0  0  0  0  0  0  0
   -0.7886    2.5111    0.9797 C   0  0  2  0  0  0  0  0  0  0  0  0
    0.6824    1.8557   -2.5672 C   0  0  0  0  0  0  0  0  0  0  0  0
    0.3951    3.2556    1.5634 C   0  0  0  0  0  0  0  0  0  0  0  0
    1.5217    3.4686    0.8604 C   0  0  0  0  0  0  0  0  0  0  0  0
    3.1649    2.3707   -0.6461 C   0  0  0  0  0  0  0  0  0  0  0  0
   -0.9250    1.1193    1.6069 C   0  0  0  0  0  0  0  0  0  0  0  0
   -0.0928    3.0068   -3.2001 C   0  0  0  0  0  0  0  0  0  0  0  0
    0.0935    0.5122   -2.9856 C   0  0  0  0  0  0  0  0  0  0  0  0
    0.2371    3.7902    2.9596 C   0  0  0  0  0  0  0  0  0  0  0  0
   -2.1163    0.3857    1.0609 C   0  0  0  0  0  0  0  0  0  0  0  0
    3.5978   -0.0257   -0.1664 C   0  0  0  0  0  0  0  0  0  0  0  0
    3.9483   -2.4925    0.5296 C   0  0  0  0  0  0  0  0  0  0  0  0
    3.6964   -1.0286    0.9721 C   0  0  0  0  0  0  0  0  0  0  0  0
   -4.2495   -0.1394    0.8000 C   0  0  0  0  0  0  0  0  0  0  0  0
   -3.4252   -0.9264    0.0005 C   0  0  0  0  0  0  0  0  0  0  0  0
    2.8187   -3.0522   -0.3678 C   0  0  0  0  0  0  0  0  0  0  0  0
    5.2743   -2.5979   -0.2529 C   0  0  0  0  0  0  0  0  0  0  0  0
    4.0932   -3.3551    1.8014 C   0  0  0  0  0  0  0  0  0  0  0  0
   -4.0042   -1.9022   -0.8282 C   0  0  0  0  0  0  0  0  0  0  0  0
   -5.6388   -0.2656    0.8264 C   0  0  0  0  0  0  0  0  0  0  0  0
    1.4398   -3.0225    0.2540 C   0  0  0  0  0  0  0  0  0  0  0  0
   -5.3971   -2.0467   -0.8181 C   0  0  0  0  0  0  0  0  0  0  0  0
   -6.1981   -1.2418   -0.0047 C   0  0  0  0  0  0  0  0  0  0  0  0
   -3.1909   -2.7872   -1.7155 C   0  0  0  0  0  0  0  0  0  0  0  0
    0.8910    0.9998   -0.6121 H   0  0  0  0  0  0  0  0  0  0  0  0
    1.7539    3.8770   -1.1860 H   0  0  0  0  0  0  0  0  0  0  0  0
   -1.4990    1.7882   -0.9653 H   0  0  0  0  0  0  0  0  0  0  0  0
   -0.9296    3.4376   -0.9133 H   0  0  0  0  0  0  0  0  0  0  0  0
   -1.6957    3.0883    1.2103 H   0  0  0  0  0  0  0  0  0  0  0  0
    1.7065    1.8844   -2.9534 H   0  0  0  0  0  0  0  0  0  0  0  0
    2.3218    4.0506    1.3138 H   0  0  0  0  0  0  0  0  0  0  0  0
    3.4091    2.0669   -1.6676 H   0  0  0  0  0  0  0  0  0  0  0  0
    3.9203    3.1095   -0.3516 H   0  0  0  0  0  0  0  0  0  0  0  0
   -1.0379    1.1961    2.6956 H   0  0  0  0  0  0  0  0  0  0  0  0
   -0.0240    0.5184    1.4371 H   0  0  0  0  0  0  0  0  0  0  0  0
    0.2400    3.9865   -2.8447 H   0  0  0  0  0  0  0  0  0  0  0  0
    0.0733    2.9987   -4.2845 H   0  0  0  0  0  0  0  0  0  0  0  0
   -1.1763    2.9223   -3.0654 H   0  0  0  0  0  0  0  0  0  0  0  0
    0.6694   -0.3168   -2.5604 H   0  0  0  0  0  0  0  0  0  0  0  0
   -0.9482    0.3972   -2.6705 H   0  0  0  0  0  0  0  0  0  0  0  0
    0.1210    0.4052   -4.0756 H   0  0  0  0  0  0  0  0  0  0  0  0
   -0.6477    4.4318    3.0230 H   0  0  0  0  0  0  0  0  0  0  0  0
    1.0998    4.3884    3.2719 H   0  0  0  0  0  0  0  0  0  0  0  0
    0.1274    2.9725    3.6780 H   0  0  0  0  0  0  0  0  0  0  0  0
    3.2313    1.4483    1.2515 H   0  0  0  0  0  0  0  0  0  0  0  0
    4.5195   -0.6940    1.6181 H   0  0  0  0  0  0  0  0  0  0  0  0
    2.7820   -0.9561    1.5731 H   0  0  0  0  0  0  0  0  0  0  0  0
   -3.6438    1.4012    2.1391 H   0  0  0  0  0  0  0  0  0  0  0  0
    3.0270   -4.1012   -0.6196 H   0  0  0  0  0  0  0  0  0  0  0  0
    2.7592   -2.5444   -1.3365 H   0  0  0  0  0  0  0  0  0  0  0  0
    5.2225   -2.1727   -1.2581 H   0  0  0  0  0  0  0  0  0  0  0  0
    5.5642   -3.6481   -0.3807 H   0  0  0  0  0  0  0  0  0  0  0  0
    6.0898   -2.0995    0.2833 H   0  0  0  0  0  0  0  0  0  0  0  0
    4.2391   -4.4120    1.5510 H   0  0  0  0  0  0  0  0  0  0  0  0
    4.9534   -3.0340    2.4001 H   0  0  0  0  0  0  0  0  0  0  0  0
    3.2054   -3.2829    2.4391 H   0  0  0  0  0  0  0  0  0  0  0  0
   -6.2583    0.3603    1.4586 H   0  0  0  0  0  0  0  0  0  0  0  0
   -5.8721   -2.7943   -1.4496 H   0  0  0  0  0  0  0  0  0  0  0  0
   -7.2769   -1.3758   -0.0170 H   0  0  0  0  0  0  0  0  0  0  0  0
   -3.4795   -2.6431   -2.7618 H   0  0  0  0  0  0  0  0  0  0  0  0
   -2.1210   -2.5710   -1.6307 H   0  0  0  0  0  0  0  0  0  0  0  0
   -3.3430   -3.8373   -1.4456 H   0  0  0  0  0  0  0  0  0  0  0  0
   -0.0926   -1.8401    0.4677 H   0  0  0  0  0  0  0  0  0  0  0  0
  1 20  2  0  0  0  0
  2 30  1  0  0  0  0
  2 72  1  0  0  0  0
  3 30  2  0  0  0  0
  4 14  1  0  0  0  0
  4 20  1  0  0  0  0
  4 54  1  0  0  0  0
  5 19  1  0  0  0  0
  5 23  1  0  0  0  0
  5 57  1  0  0  0  0
  6 19  2  0  0  0  0
  6 24  1  0  0  0  0
  7  8  1  0  0  0  0
  7  9  1  0  0  0  0
  7 11  1  0  0  0  0
  7 34  1  0  0  0  0
  8 13  1  0  0  0  0
  8 14  1  0  0  0  0
  8 35  1  0  0  0  0
  9 10  1  0  0  0  0
  9 36  1  0  0  0  0
  9 37  1  0  0  0  0
 10 12  1  0  0  0  0
 10 15  1  0  0  0  0
 10 38  1  0  0  0  0
 11 16  1  0  0  0  0
 11 17  1  0  0  0  0
 11 39  1  0  0  0  0
 12 13  2  0  0  0  0
 12 18  1  0  0  0  0
 13 40  1  0  0  0  0
 14 41  1  0  0  0  0
 14 42  1  0  0  0  0
 15 19  1  0  0  0  0
 15 43  1  0  0  0  0
 15 44  1  0  0  0  0
 16 45  1  0  0  0  0
 16 46  1  0  0  0  0
 16 47  1  0  0  0  0
 17 48  1  0  0  0  0
 17 49  1  0  0  0  0
 17 50  1  0  0  0  0
 18 51  1  0  0  0  0
 18 52  1  0  0  0  0
 18 53  1  0  0  0  0
 20 22  1  0  0  0  0
 21 22  1  0  0  0  0
 21 25  1  0  0  0  0
 21 26  1  0  0  0  0
 21 27  1  0  0  0  0
 22 55  1  0  0  0  0
 22 56  1  0  0  0  0
 23 24  1  0  0  0  0
 23 29  2  0  0  0  0
 24 28  2  0  0  0  0
 25 30  1  0  0  0  0
 25 58  1  0  0  0  0
 25 59  1  0  0  0  0
 26 60  1  0  0  0  0
 26 61  1  0  0  0  0
 26 62  1  0  0  0  0
 27 63  1  0  0  0  0
 27 64  1  0  0  0  0
 27 65  1  0  0  0  0
 28 31  1  0  0  0  0
 28 33  1  0  0  0  0
 29 32  1  0  0  0  0
 29 66  1  0  0  0  0
 31 32  2  0  0  0  0
 31 67  1  0  0  0  0
 32 68  1  0  0  0  0
 33 69  1  0  0  0  0
 33 70  1  0  0  0  0
 33 71  1  0  0  0  0
M  END
> <PUBCHEM_COMPOUND_CID>
71693203

> <PUBCHEM_CONFORMER_RMSD>
1

> <PUBCHEM_CONFORMER_DIVERSEORDER>
3
43
174
90
158
149
170
168
37
141
150
38
26
118
35
175
146
109
139
167
185
16
122
100
88
75
138
126
103
65
154
101
77
133
32
102
177
25
183
123
182
94
180
108
19
142
130
85
172
70
148
117
178
127
76
1
106
80
93
145
18
120
155
161
8
22
95
72
166
137
54
52
111
186
10
97
56
98
131
179
79
114
44
81
107
5
83
36
92
184
64
125
53
89
24
71
163
87
104
4
14
143
13
169
68
115
61
113
58
181
156
59
110
7
74
6
160
84
135
82
30
105
162
67
2
132
96
91
66
55
12
50
119
136
48
173
157
164
159
73
144
147
45
128
165
176
124
15
29
153
20
57
69
62
33
86
23
121
31
40
42
171
41
60
47
51
99
49
129
11
39
116
9
21
112
27
151
28
152
78
46
134
17
63
34
140

> <PUBCHEM_MMFF94_PARTIAL_CHARGES>
32
1 -0.57
10 0.14
12 -0.28
13 -0.29
14 0.3
15 0.18
18 0.14
19 0.01
2 -0.65
20 0.57
22 0.06
23 -0.15
24 0.23
25 0.06
28 -0.14
29 -0.15
3 -0.57
30 0.66
31 -0.15
32 -0.15
33 0.14
4 -0.73
40 0.15
5 0.03
54 0.37
57 0.27
6 -0.57
66 0.15
67 0.15
68 0.15
72 0.5
8 0.14

> <PUBCHEM_EFFECTIVE_ROTOR_COUNT>
10.8

> <PUBCHEM_PHARMACOPHORE_FEATURES>
12
1 1 acceptor
1 2 acceptor
1 3 acceptor
1 4 donor
1 5 donor
3 11 16 17 hydrophobe
3 2 3 30 anion
3 21 26 27 hydrophobe
3 5 6 19 cation
5 5 6 19 23 24 rings
6 23 24 28 29 31 32 rings
6 7 8 9 10 12 13 rings

> <PUBCHEM_HEAVY_ATOM_COUNT>
33

> <PUBCHEM_ATOM_DEF_STEREO_COUNT>
3

> <PUBCHEM_ATOM_UDEF_STEREO_COUNT>
0

> <PUBCHEM_BOND_DEF_STEREO_COUNT>
0

> <PUBCHEM_BOND_UDEF_STEREO_COUNT>
0

> <PUBCHEM_ISOTOPIC_ATOM_COUNT>
0

> <PUBCHEM_COMPONENT_COUNT>
1

> <PUBCHEM_CACTVS_TAUTO_COUNT>
6

> <PUBCHEM_CONFORMER_ID>
0445F39300000003

> <PUBCHEM_MMFF94_ENERGY>
65.6461

> <PUBCHEM_FEATURE_SELFOVERLAP>
61.06

> <PUBCHEM_SHAPE_FINGERPRINT>
10622 236 18117274749259923042
11513181 2 18129679499273464222
11552529 35 17910112413474770442
12156800 1 16737163368502116060
12166972 35 18187652396656780471
14068700 675 18342746178587290928
14117953 113 18128256675671751599
14705955 166 15840157580310954163
17138139 8 17626385979993911982
17980427 26 17699547445220895005
18336668 15 18408886217839431551
18681886 176 15768105724455600833
20511986 3 17987794245585671893
20764821 26 14376484063663203327
20775530 9 18261396577249171034
21285901 2 17676477380445614620
21421861 104 18269860669241739833
23559900 14 18187925145056381331
25222932 49 17124795424560852215
345986 75 18342458106082085952
35225 105 17323515185606513871
46194498 28 17531806995433147917
463206 1 18341336673015252947
469060 322 17315651594894118926
484985 159 17687742745066633494
5081480 168 17676196962658158045
57527573 199 15751187779588113940
6669772 16 17625530568843612857

> <PUBCHEM_SHAPE_MULTIPOLES>
646.57
10.36
5.66
2.46
9.76
0.17
1.22
-11.24
-1.1
-4.87
-1.21
-0.12
2.37
-1.99

> <PUBCHEM_SHAPE_SELFOVERLAP>
1351.974

> <PUBCHEM_SHAPE_VOLUME>
366.3

> <PUBCHEM_COORDINATE_TYPE>
2
5
10

$$$$
