75536717
  -OEChem-12032416313D

 50 52  0     1  0  0  0  0  0999 V2000
    4.0543   -1.7998    0.1491 S   0  0  0  0  0  0  0  0  0  0  0  0
   -0.3256   -1.3546    1.3680 O   0  0  0  0  0  0  0  0  0  0  0  0
   -1.0494   -1.3631   -2.1507 O   0  0  0  0  0  0  0  0  0  0  0  0
    4.0888   -2.3857   -1.1774 O   0  0  0  0  0  0  0  0  0  0  0  0
    4.8276   -2.3874    1.2262 O   0  0  0  0  0  0  0  0  0  0  0  0
   -3.3515   -0.2518   -0.3228 N   0  0  0  0  0  0  0  0  0  0  0  0
    2.4372   -1.6393    0.6524 N   0  0  0  0  0  0  0  0  0  0  0  0
   -5.9716    1.2819    0.6386 N   0  0  0  0  0  0  0  0  0  0  0  0
   -6.6890   -0.0632   -0.9762 N   0  0  0  0  0  0  0  0  0  0  0  0
   -2.2343   -1.1343   -0.0285 C   0  0  1  0  0  0  0  0  0  0  0  0
   -0.9890   -0.8320   -0.8412 C   0  0  1  0  0  0  0  0  0  0  0  0
    0.0823   -1.5140   -0.0010 C   0  0  1  0  0  0  0  0  0  0  0  0
   -1.7131   -0.9760    1.3905 C   0  0  0  0  0  0  0  0  0  0  0  0
    1.4664   -0.9212   -0.1965 C   0  0  0  0  0  0  0  0  0  0  0  0
   -4.5969   -0.7827    0.2185 C   0  0  0  0  0  0  0  0  0  0  0  0
   -5.7632    0.1269   -0.0625 C   0  0  0  0  0  0  0  0  0  0  0  0
    4.5599   -0.1115    0.0122 C   0  0  0  0  0  0  0  0  0  0  0  0
   -7.1022    1.8654    0.1403 C   0  0  0  0  0  0  0  0  0  0  0  0
    5.1170    0.5406    1.1122 C   0  0  0  0  0  0  0  0  0  0  0  0
    4.3991    0.5693   -1.1946 C   0  0  0  0  0  0  0  0  0  0  0  0
   -5.1579    1.8047    1.7107 C   0  0  0  0  0  0  0  0  0  0  0  0
   -7.5269    1.0170   -0.8549 C   0  0  0  0  0  0  0  0  0  0  0  0
    5.5134    1.8736    1.0054 C   0  0  0  0  0  0  0  0  0  0  0  0
    4.7954    1.9024   -1.3013 C   0  0  0  0  0  0  0  0  0  0  0  0
    5.3528    2.5546   -0.2013 C   0  0  0  0  0  0  0  0  0  0  0  0
    5.7766    3.9799   -0.3154 C   0  0  0  0  0  0  0  0  0  0  0  0
   -2.5172   -2.1798   -0.2162 H   0  0  0  0  0  0  0  0  0  0  0  0
   -0.8125    0.2489   -0.9059 H   0  0  0  0  0  0  0  0  0  0  0  0
    0.1153   -2.5916   -0.2094 H   0  0  0  0  0  0  0  0  0  0  0  0
   -1.7587    0.0628    1.7376 H   0  0  0  0  0  0  0  0  0  0  0  0
   -2.2480   -1.6034    2.1098 H   0  0  0  0  0  0  0  0  0  0  0  0
    1.4747    0.1318    0.1064 H   0  0  0  0  0  0  0  0  0  0  0  0
    1.7495   -0.9933   -1.2509 H   0  0  0  0  0  0  0  0  0  0  0  0
   -3.4448   -0.1564   -1.3344 H   0  0  0  0  0  0  0  0  0  0  0  0
   -4.5232   -0.9419    1.3006 H   0  0  0  0  0  0  0  0  0  0  0  0
   -4.8167   -1.7587   -0.2331 H   0  0  0  0  0  0  0  0  0  0  0  0
   -1.2066   -2.3203   -2.0855 H   0  0  0  0  0  0  0  0  0  0  0  0
    2.2367   -1.6358    1.6604 H   0  0  0  0  0  0  0  0  0  0  0  0
   -7.4955    2.7985    0.5193 H   0  0  0  0  0  0  0  0  0  0  0  0
    5.2445    0.0321    2.0636 H   0  0  0  0  0  0  0  0  0  0  0  0
    3.9654    0.0819   -2.0630 H   0  0  0  0  0  0  0  0  0  0  0  0
   -5.1066    1.0595    2.5081 H   0  0  0  0  0  0  0  0  0  0  0  0
   -4.1627    2.0269    1.3187 H   0  0  0  0  0  0  0  0  0  0  0  0
   -5.6121    2.7210    2.0971 H   0  0  0  0  0  0  0  0  0  0  0  0
   -8.3932    1.1291   -1.4904 H   0  0  0  0  0  0  0  0  0  0  0  0
    5.9462    2.3710    1.8694 H   0  0  0  0  0  0  0  0  0  0  0  0
    4.6660    2.4220   -2.2471 H   0  0  0  0  0  0  0  0  0  0  0  0
    5.1551    4.5204   -1.0375 H   0  0  0  0  0  0  0  0  0  0  0  0
    5.6780    4.4996    0.6437 H   0  0  0  0  0  0  0  0  0  0  0  0
    6.8205    4.0366   -0.6394 H   0  0  0  0  0  0  0  0  0  0  0  0
  1  4  2  0  0  0  0
  1  5  2  0  0  0  0
  1  7  1  0  0  0  0
  1 17  1  0  0  0  0
  2 12  1  0  0  0  0
  2 13  1  0  0  0  0
  3 11  1  0  0  0  0
  3 37  1  0  0  0  0
  6 10  1  0  0  0  0
  6 15  1  0  0  0  0
  6 34  1  0  0  0  0
  7 14  1  0  0  0  0
  7 38  1  0  0  0  0
  8 16  1  0  0  0  0
  8 18  1  0  0  0  0
  8 21  1  0  0  0  0
  9 16  2  0  0  0  0
  9 22  1  0  0  0  0
 10 11  1  0  0  0  0
 10 13  1  0  0  0  0
 10 27  1  0  0  0  0
 11 12  1  0  0  0  0
 11 28  1  0  0  0  0
 12 14  1  0  0  0  0
 12 29  1  0  0  0  0
 13 30  1  0  0  0  0
 13 31  1  0  0  0  0
 14 32  1  0  0  0  0
 14 33  1  0  0  0  0
 15 16  1  0  0  0  0
 15 35  1  0  0  0  0
 15 36  1  0  0  0  0
 17 19  2  0  0  0  0
 17 20  1  0  0  0  0
 18 22  2  0  0  0  0
 18 39  1  0  0  0  0
 19 23  1  0  0  0  0
 19 40  1  0  0  0  0
 20 24  2  0  0  0  0
 20 41  1  0  0  0  0
 21 42  1  0  0  0  0
 21 43  1  0  0  0  0
 21 44  1  0  0  0  0
 22 45  1  0  0  0  0
 23 25  2  0  0  0  0
 23 46  1  0  0  0  0
 24 25  1  0  0  0  0
 24 47  1  0  0  0  0
 25 26  1  0  0  0  0
 26 48  1  0  0  0  0
 26 49  1  0  0  0  0
 26 50  1  0  0  0  0
M  END
> <PUBCHEM_COMPOUND_CID>
75536717

> <PUBCHEM_CONFORMER_RMSD>
1.4

> <PUBCHEM_CONFORMER_DIVERSEORDER>
1
73
9
26
11
67
37
13
20
68
25
6
8
18
74
21
56
42
59
65
54
2
52
44
53
27
66
50
7
39
60
17
33
32
51
63
4
3
29
12
76
47
36
16
34
46
41
62
15
69
49
28
55
23
14
40
45
64
75
31
24
38
71
5
57
43
70
22
48
58
30
19
72
77
35
10
61

> <PUBCHEM_MMFF94_PARTIAL_CHARGES>
35
1 1.45
10 0.27
11 0.28
12 0.28
13 0.28
14 0.36
15 0.45
16 0.01
17 -0.01
18 -0.3
19 -0.15
2 -0.56
20 -0.15
21 0.26
22 0.08
23 -0.15
24 -0.15
25 -0.14
26 0.14
3 -0.68
34 0.36
37 0.4
38 0.42
39 0.15
4 -0.65
40 0.15
41 0.15
45 0.15
46 0.15
47 0.15
5 -0.65
6 -0.9
7 -0.91
8 0.05
9 -0.57

> <PUBCHEM_EFFECTIVE_ROTOR_COUNT>
8

> <PUBCHEM_PHARMACOPHORE_FEATURES>
12
1 2 acceptor
1 3 acceptor
1 3 donor
1 4 acceptor
1 5 acceptor
1 6 cation
1 6 donor
1 7 donor
3 8 9 16 cation
5 2 10 11 12 13 rings
5 8 9 16 18 22 rings
6 17 19 20 23 24 25 rings

> <PUBCHEM_HEAVY_ATOM_COUNT>
26

> <PUBCHEM_ATOM_DEF_STEREO_COUNT>
3

> <PUBCHEM_ATOM_UDEF_STEREO_COUNT>
0

> <PUBCHEM_BOND_DEF_STEREO_COUNT>
0

> <PUBCHEM_BOND_UDEF_STEREO_COUNT>
0

> <PUBCHEM_ISOTOPIC_ATOM_COUNT>
0

> <PUBCHEM_COMPONENT_COUNT>
1

> <PUBCHEM_CACTVS_TAUTO_COUNT>
1

> <PUBCHEM_CONFORMER_ID>
0480994D00000001

> <PUBCHEM_MMFF94_ENERGY>
36.4325

> <PUBCHEM_FEATURE_SELFOVERLAP>
60.917

> <PUBCHEM_SHAPE_FINGERPRINT>
10 15 16226052197391015119
10280341 67 17769930496832097264
10554248 39 18059566932846636167
10638233 991 18410858729147043241
10906281 52 17846232025131335763
11408170 132 14116967816845266953
11991303 11 16415189114212706077
125118 31 18334575703355048421
12539765 74 18059582331011436239
13533116 47 17749949943117441954
13668630 136 12751226014118652925
13782708 43 9511463308117401275
13878862 14 18335410258344514508
13955234 65 17822846468917445138
14347332 77 10375882861200518275
15183329 4 17775287157897742801
15348495 7 15647066992392337801
15475509 35 10809342269640966092
155225 6 18044099183978235948
15840311 113 18335141952011775221
1979834 28 14923937934331168690
20058555 10 18411420622491680129
20157964 124 18411700971859482762
20281389 69 18261391110051202045
20715895 44 18335702784477935960
20771845 171 17632298930585924999
21298829 104 18337954601155479468
21344244 181 11959728287417826685
21521239 73 12103841250826742501
21585482 111 18333731325300961188
21641784 216 16415206637389090699
21792934 111 15864337014249192263
220451 1 7853560332093750339
22122407 14 18411147943111730305
2303208 19 11383834840259263275
23081809 10 17203332170091110491
23559900 14 17313111852231628258
249057 25 17845376557165078939
2748736 6 18409164437289239945
2838139 119 18339645547133421737
328310 630 18272939306563809441
33382 64 9151173147067309095
3472631 163 18201159948712025228
34797466 226 18272093773226348343
393628 194 17903073675132018548
394071 54 18040436611623612860
397830 11 18041572428905256867
44555599 121 18271530784649896153
465052 167 8358268042400667544
5104073 3 17821727277617279658
5372103 7 16270502253516755720
5718773 13 10447666677228388292
6328613 192 18413388735609816713
6898599 12 18200592643535639591
7970288 3 8862130228235182984

> <PUBCHEM_SHAPE_MULTIPOLES>
495.52
21.51
3.18
1.43
24.24
1.97
0.04
16.45
0.55
-5.9
-0.06
-0.01
-0.09
-1.17

> <PUBCHEM_SHAPE_SELFOVERLAP>
1026.914

> <PUBCHEM_SHAPE_VOLUME>
286

> <PUBCHEM_COORDINATE_TYPE>
2
5
10

$$$$
