38027120
  -OEChem-12032416413D

 75 77  0     1  0  0  0  0  0999 V2000
    1.7533    3.7693    0.6557 O   0  0  0  0  0  0  0  0  0  0  0  0
    1.0449   -3.2954   -1.6734 O   0  0  0  0  0  0  0  0  0  0  0  0
   -4.8808    1.6000   -1.3677 O   0  0  0  0  0  0  0  0  0  0  0  0
   -1.2199   -3.5944   -0.2489 O   0  0  0  0  0  0  0  0  0  0  0  0
    2.2910   -2.7385    0.2120 N   0  0  0  0  0  0  0  0  0  0  0  0
   -0.2637    2.8786    1.3897 N   0  0  0  0  0  0  0  0  0  0  0  0
   -2.5210    2.8815   -0.4239 N   0  0  0  0  0  0  0  0  0  0  0  0
    3.1561   -0.0980   -0.9381 C   0  0  1  0  0  0  0  0  0  0  0  0
    4.0699   -1.1298   -0.2307 C   0  0  1  0  0  0  0  0  0  0  0  0
    3.4182    1.3137   -0.3917 C   0  0  0  0  0  0  0  0  0  0  0  0
    3.1742    1.4054    1.1264 C   0  0  2  0  0  0  0  0  0  0  0  0
    3.3531   -0.1111   -2.4572 C   0  0  0  0  0  0  0  0  0  0  0  0
    3.8271    0.2593    1.8720 C   0  0  0  0  0  0  0  0  0  0  0  0
    4.2331   -0.8600    1.2467 C   0  0  0  0  0  0  0  0  0  0  0  0
    3.5527   -2.5584   -0.4349 C   0  0  0  0  0  0  0  0  0  0  0  0
    1.6761    1.4823    1.4414 C   0  0  0  0  0  0  0  0  0  0  0  0
    2.1056    0.4147   -3.1601 C   0  0  0  0  0  0  0  0  0  0  0  0
    4.5782    0.7119   -2.8418 C   0  0  0  0  0  0  0  0  0  0  0  0
    4.0447    0.4481    3.3475 C   0  0  0  0  0  0  0  0  0  0  0  0
    1.0943    2.8380    1.1101 C   0  0  0  0  0  0  0  0  0  0  0  0
    1.1251   -3.0963   -0.4643 C   0  0  0  0  0  0  0  0  0  0  0  0
   -1.0794    4.0514    1.1728 C   0  0  0  0  0  0  0  0  0  0  0  0
   -1.6748    4.0568   -0.2275 C   0  0  0  0  0  0  0  0  0  0  0  0
   -0.0624   -3.2188    0.4667 C   0  0  0  0  0  0  0  0  0  0  0  0
   -2.7378    2.6281   -1.8552 C   0  0  0  0  0  0  0  0  0  0  0  0
   -3.8114    3.0476    0.2591 C   0  0  0  0  0  0  0  0  0  0  0  0
   -3.6332    1.4055   -2.0350 C   0  0  0  0  0  0  0  0  0  0  0  0
   -4.6807    1.8145    0.0300 C   0  0  0  0  0  0  0  0  0  0  0  0
   -2.4289   -3.1592    0.2404 C   0  0  0  0  0  0  0  0  0  0  0  0
   -2.5947   -2.9563    1.6104 C   0  0  0  0  0  0  0  0  0  0  0  0
   -3.4896   -2.9205   -0.6334 C   0  0  0  0  0  0  0  0  0  0  0  0
   -3.8213   -2.5148    2.1068 C   0  0  0  0  0  0  0  0  0  0  0  0
   -4.7162   -2.4790   -0.1371 C   0  0  0  0  0  0  0  0  0  0  0  0
   -4.8820   -2.2762    1.2331 C   0  0  0  0  0  0  0  0  0  0  0  0
    2.1107   -0.3524   -0.7287 H   0  0  0  0  0  0  0  0  0  0  0  0
    5.0775   -1.0838   -0.6626 H   0  0  0  0  0  0  0  0  0  0  0  0
    2.8143    2.0583   -0.9194 H   0  0  0  0  0  0  0  0  0  0  0  0
    4.4681    1.5979   -0.5400 H   0  0  0  0  0  0  0  0  0  0  0  0
    3.6588    2.3313    1.4672 H   0  0  0  0  0  0  0  0  0  0  0  0
    3.5074   -1.1348   -2.8134 H   0  0  0  0  0  0  0  0  0  0  0  0
    4.7388   -1.6310    1.8250 H   0  0  0  0  0  0  0  0  0  0  0  0
    4.2436   -3.2787    0.0200 H   0  0  0  0  0  0  0  0  0  0  0  0
    3.4819   -2.8208   -1.4940 H   0  0  0  0  0  0  0  0  0  0  0  0
    1.4960    1.3247    2.5118 H   0  0  0  0  0  0  0  0  0  0  0  0
    1.1070    0.7121    0.9090 H   0  0  0  0  0  0  0  0  0  0  0  0
    1.8849    1.4535   -2.8956 H   0  0  0  0  0  0  0  0  0  0  0  0
    1.2292   -0.1925   -2.9086 H   0  0  0  0  0  0  0  0  0  0  0  0
    2.2329    0.3724   -4.2474 H   0  0  0  0  0  0  0  0  0  0  0  0
    4.4192    1.7911   -2.7460 H   0  0  0  0  0  0  0  0  0  0  0  0
    4.8098    0.5385   -3.9001 H   0  0  0  0  0  0  0  0  0  0  0  0
    5.4726    0.4270   -2.2799 H   0  0  0  0  0  0  0  0  0  0  0  0
    4.6080    1.3682    3.5340 H   0  0  0  0  0  0  0  0  0  0  0  0
    4.6136   -0.3780    3.7878 H   0  0  0  0  0  0  0  0  0  0  0  0
    3.0917    0.5087    3.8806 H   0  0  0  0  0  0  0  0  0  0  0  0
    2.2551   -2.6550    1.2241 H   0  0  0  0  0  0  0  0  0  0  0  0
   -0.7217    2.0485    1.7548 H   0  0  0  0  0  0  0  0  0  0  0  0
   -0.4520    4.9413    1.2989 H   0  0  0  0  0  0  0  0  0  0  0  0
   -1.8377    4.0810    1.9600 H   0  0  0  0  0  0  0  0  0  0  0  0
   -0.8430    4.0405   -0.9443 H   0  0  0  0  0  0  0  0  0  0  0  0
   -2.2253    4.9890   -0.4061 H   0  0  0  0  0  0  0  0  0  0  0  0
    0.1645   -3.9801    1.2216 H   0  0  0  0  0  0  0  0  0  0  0  0
   -0.1745   -2.2370    0.9460 H   0  0  0  0  0  0  0  0  0  0  0  0
   -1.7826    2.4412   -2.3593 H   0  0  0  0  0  0  0  0  0  0  0  0
   -3.2085    3.5000   -2.3278 H   0  0  0  0  0  0  0  0  0  0  0  0
   -4.3343    3.9340   -0.1233 H   0  0  0  0  0  0  0  0  0  0  0  0
   -3.6834    3.1697    1.3388 H   0  0  0  0  0  0  0  0  0  0  0  0
   -3.8449    1.2512   -3.0978 H   0  0  0  0  0  0  0  0  0  0  0  0
   -3.1541    0.4942   -1.6567 H   0  0  0  0  0  0  0  0  0  0  0  0
   -4.2356    0.9180    0.4784 H   0  0  0  0  0  0  0  0  0  0  0  0
   -5.6643    1.9603    0.4879 H   0  0  0  0  0  0  0  0  0  0  0  0
   -1.8020   -3.1556    2.3255 H   0  0  0  0  0  0  0  0  0  0  0  0
   -3.3657   -3.0755   -1.7016 H   0  0  0  0  0  0  0  0  0  0  0  0
   -3.9526   -2.3618    3.1741 H   0  0  0  0  0  0  0  0  0  0  0  0
   -5.5416   -2.2914   -0.8175 H   0  0  0  0  0  0  0  0  0  0  0  0
   -5.8370   -1.9323    1.6194 H   0  0  0  0  0  0  0  0  0  0  0  0
  1 20  2  0  0  0  0
  2 21  2  0  0  0  0
  3 27  1  0  0  0  0
  3 28  1  0  0  0  0
  4 24  1  0  0  0  0
  4 29  1  0  0  0  0
  5 15  1  0  0  0  0
  5 21  1  0  0  0  0
  5 55  1  0  0  0  0
  6 20  1  0  0  0  0
  6 22  1  0  0  0  0
  6 56  1  0  0  0  0
  7 23  1  0  0  0  0
  7 25  1  0  0  0  0
  7 26  1  0  0  0  0
  8  9  1  0  0  0  0
  8 10  1  0  0  0  0
  8 12  1  0  0  0  0
  8 35  1  0  0  0  0
  9 14  1  0  0  0  0
  9 15  1  0  0  0  0
  9 36  1  0  0  0  0
 10 11  1  0  0  0  0
 10 37  1  0  0  0  0
 10 38  1  0  0  0  0
 11 13  1  0  0  0  0
 11 16  1  0  0  0  0
 11 39  1  0  0  0  0
 12 17  1  0  0  0  0
 12 18  1  0  0  0  0
 12 40  1  0  0  0  0
 13 14  2  0  0  0  0
 13 19  1  0  0  0  0
 14 41  1  0  0  0  0
 15 42  1  0  0  0  0
 15 43  1  0  0  0  0
 16 20  1  0  0  0  0
 16 44  1  0  0  0  0
 16 45  1  0  0  0  0
 17 46  1  0  0  0  0
 17 47  1  0  0  0  0
 17 48  1  0  0  0  0
 18 49  1  0  0  0  0
 18 50  1  0  0  0  0
 18 51  1  0  0  0  0
 19 52  1  0  0  0  0
 19 53  1  0  0  0  0
 19 54  1  0  0  0  0
 21 24  1  0  0  0  0
 22 23  1  0  0  0  0
 22 57  1  0  0  0  0
 22 58  1  0  0  0  0
 23 59  1  0  0  0  0
 23 60  1  0  0  0  0
 24 61  1  0  0  0  0
 24 62  1  0  0  0  0
 25 27  1  0  0  0  0
 25 63  1  0  0  0  0
 25 64  1  0  0  0  0
 26 28  1  0  0  0  0
 26 65  1  0  0  0  0
 26 66  1  0  0  0  0
 27 67  1  0  0  0  0
 27 68  1  0  0  0  0
 28 69  1  0  0  0  0
 28 70  1  0  0  0  0
 29 30  2  0  0  0  0
 29 31  1  0  0  0  0
 30 32  1  0  0  0  0
 30 71  1  0  0  0  0
 31 33  2  0  0  0  0
 31 72  1  0  0  0  0
 32 34  2  0  0  0  0
 32 73  1  0  0  0  0
 33 34  1  0  0  0  0
 33 74  1  0  0  0  0
 34 75  1  0  0  0  0
M  END
> <PUBCHEM_COMPOUND_CID>
38027120

> <PUBCHEM_CONFORMER_RMSD>
1.2

> <PUBCHEM_CONFORMER_DIVERSEORDER>
1
50
123
60
120
89
72
9
80
61
102
84
27
66
112
116
23
36
74
92
106
30
51
78
105
18
81
65
8
32
59
57
128
113
45
87
63
55
31
119
83
126
52
15
100
76
38
107
108
97
118
98
86
85
22
111
4
103
5
110
48
124
12
117
95
79
58
115
37
104
114
77
17
88
68
125
127
24
26
20
19
91
99
56
101
10
121
14
70
129
109
54
64
49
53
75
6
82
39
47
28
46
41
2
73
44
122
96
13
94
42
40
7
33
3
93
71
69
62
90
29
67
11
21
35
34
16
43
25

> <PUBCHEM_MMFF94_PARTIAL_CHARGES>
37
1 -0.57
11 0.14
13 -0.28
14 -0.29
15 0.3
16 0.06
19 0.14
2 -0.57
20 0.57
21 0.57
22 0.3
23 0.27
24 0.34
25 0.27
26 0.27
27 0.28
28 0.28
29 0.08
3 -0.56
30 -0.15
31 -0.15
32 -0.15
33 -0.15
34 -0.15
4 -0.36
41 0.15
5 -0.73
55 0.37
56 0.37
6 -0.73
7 -0.81
71 0.15
72 0.15
73 0.15
74 0.15
75 0.15
9 0.14

> <PUBCHEM_EFFECTIVE_ROTOR_COUNT>
15

> <PUBCHEM_PHARMACOPHORE_FEATURES>
11
1 1 acceptor
1 2 acceptor
1 3 acceptor
1 4 acceptor
1 5 donor
1 6 donor
1 7 cation
3 12 17 18 hydrophobe
6 29 30 31 32 33 34 rings
6 3 7 25 26 27 28 rings
6 8 9 10 11 13 14 rings

> <PUBCHEM_HEAVY_ATOM_COUNT>
34

> <PUBCHEM_ATOM_DEF_STEREO_COUNT>
3

> <PUBCHEM_ATOM_UDEF_STEREO_COUNT>
0

> <PUBCHEM_BOND_DEF_STEREO_COUNT>
0

> <PUBCHEM_BOND_UDEF_STEREO_COUNT>
0

> <PUBCHEM_ISOTOPIC_ATOM_COUNT>
0

> <PUBCHEM_COMPONENT_COUNT>
1

> <PUBCHEM_CACTVS_TAUTO_COUNT>
4

> <PUBCHEM_CONFORMER_ID>
02443F7000000001

> <PUBCHEM_MMFF94_ENERGY>
70.0948

> <PUBCHEM_FEATURE_SELFOVERLAP>
55.828

> <PUBCHEM_SHAPE_FINGERPRINT>
11421498 54 17679883766753631542
11513181 2 17268933659146277711
12788726 201 18114753753306012274
13561361 72 18334856108794861459
15210252 30 17976840992432981348
15406563 228 17972901167551061254
15968369 153 18272081709037558503
15975801 100 17242166842994492046
16067690 210 17095248038118008991
20764821 26 18411419527174078153
21860390 5 17626959908316505230
24941158 1 16487258777003180962
463206 1 17119450204342544192
508706 21 18334288760790082835
66674814 147 17686904908416133442

> <PUBCHEM_SHAPE_MULTIPOLES>
661.28
10.82
6.51
2.78
4.3
1.11
0.58
-1.96
0.2
6.58
-0.91
-2.96
0.62
2.35

> <PUBCHEM_SHAPE_SELFOVERLAP>
1353.356

> <PUBCHEM_SHAPE_VOLUME>
379

> <PUBCHEM_COORDINATE_TYPE>
2
5
10

$$$$
