7050205
  -OEChem-12032416203D

 67 69  0     1  0  0  0  0  0999 V2000
    2.1810   -2.1726   -1.3233 O   0  0  0  0  0  0  0  0  0  0  0  0
   -1.3168   -4.5808    0.2495 O   0  0  0  0  0  0  0  0  0  0  0  0
    1.1504   -5.2501    1.5033 O   0  0  0  0  0  0  0  0  0  0  0  0
    3.7481   -1.0349    1.3364 O   0  0  0  0  0  0  0  0  0  0  0  0
   -2.1704   -0.8232   -1.9818 O   0  0  0  0  0  0  0  0  0  0  0  0
    5.0276    0.5432   -2.0888 O   0  0  0  0  0  0  0  0  0  0  0  0
   -1.8796   -1.7271    0.1348 N   0  0  0  0  0  0  0  0  0  0  0  0
   -3.8016   -0.5689   -0.3492 N   0  0  0  0  0  0  0  0  0  0  0  0
    2.8917    0.2880   -0.3770 N   0  0  0  0  0  0  0  0  0  0  0  0
    6.1585    1.6883   -0.4497 N   0  0  0  0  0  0  0  0  0  0  0  0
    1.9200   -1.8622    0.0405 C   0  0  1  0  0  0  0  0  0  0  0  0
   -0.5773   -2.3091   -0.1062 C   0  0  1  0  0  0  0  0  0  0  0  0
    0.5149   -1.2777    0.1972 C   0  0  0  0  0  0  0  0  0  0  0  0
   -0.3974   -3.5906    0.7185 C   0  0  2  0  0  0  0  0  0  0  0  0
    2.0922   -3.1252    0.8818 C   0  0  0  0  0  0  0  0  0  0  0  0
    1.0137   -4.1676    0.5824 C   0  0  1  0  0  0  0  0  0  0  0  0
    2.9598   -0.8464    0.4136 C   0  0  0  0  0  0  0  0  0  0  0  0
   -4.7381    0.1945   -1.1437 C   0  0  0  0  0  0  0  0  0  0  0  0
   -4.4393    1.6950   -1.0571 C   0  0  0  0  0  0  0  0  0  0  0  0
   -6.1833   -0.1086   -0.7336 C   0  0  0  0  0  0  0  0  0  0  0  0
   -4.8004    2.2857    0.3058 C   0  0  0  0  0  0  0  0  0  0  0  0
   -6.5415    0.4851    0.6287 C   0  0  0  0  0  0  0  0  0  0  0  0
   -6.2458    1.9807    0.6866 C   0  0  0  0  0  0  0  0  0  0  0  0
   -2.5792   -1.0216   -0.8384 C   0  0  0  0  0  0  0  0  0  0  0  0
    3.7682    1.4242   -0.2064 C   0  0  2  0  0  0  0  0  0  0  0  0
    3.1157    2.7335   -0.6642 C   0  0  0  0  0  0  0  0  0  0  0  0
    5.0248    1.1462   -1.0182 C   0  0  0  0  0  0  0  0  0  0  0  0
    1.8456    3.0473    0.0883 C   0  0  0  0  0  0  0  0  0  0  0  0
    0.6344    2.5808   -0.3986 C   0  0  0  0  0  0  0  0  0  0  0  0
    1.9126    3.7958    1.2530 C   0  0  0  0  0  0  0  0  0  0  0  0
   -0.5395    2.8705    0.2969 C   0  0  0  0  0  0  0  0  0  0  0  0
    0.7386    4.0852    1.9484 C   0  0  0  0  0  0  0  0  0  0  0  0
   -0.4874    3.6225    1.4703 C   0  0  0  0  0  0  0  0  0  0  0  0
   -0.5339   -2.5711   -1.1718 H   0  0  0  0  0  0  0  0  0  0  0  0
    0.3842   -0.8841    1.2148 H   0  0  0  0  0  0  0  0  0  0  0  0
    0.3664   -0.4307   -0.4825 H   0  0  0  0  0  0  0  0  0  0  0  0
   -0.6359   -3.4057    1.7739 H   0  0  0  0  0  0  0  0  0  0  0  0
    2.0635   -2.8842    1.9537 H   0  0  0  0  0  0  0  0  0  0  0  0
    3.0745   -3.5856    0.7092 H   0  0  0  0  0  0  0  0  0  0  0  0
    1.1632   -4.5816   -0.4225 H   0  0  0  0  0  0  0  0  0  0  0  0
   -2.2671   -1.7725    1.0724 H   0  0  0  0  0  0  0  0  0  0  0  0
   -4.6074   -0.1182   -2.1872 H   0  0  0  0  0  0  0  0  0  0  0  0
   -5.0207    2.2162   -1.8287 H   0  0  0  0  0  0  0  0  0  0  0  0
   -3.3843    1.8899   -1.2767 H   0  0  0  0  0  0  0  0  0  0  0  0
   -6.3543   -1.1917   -0.7141 H   0  0  0  0  0  0  0  0  0  0  0  0
   -6.8627    0.3072   -1.4886 H   0  0  0  0  0  0  0  0  0  0  0  0
    3.0383   -2.6286   -1.3764 H   0  0  0  0  0  0  0  0  0  0  0  0
   -4.1267    1.8846    1.0728 H   0  0  0  0  0  0  0  0  0  0  0  0
   -4.6467    3.3706    0.2867 H   0  0  0  0  0  0  0  0  0  0  0  0
   -7.6054    0.3156    0.8311 H   0  0  0  0  0  0  0  0  0  0  0  0
   -5.9866   -0.0298    1.4216 H   0  0  0  0  0  0  0  0  0  0  0  0
   -6.4494    2.3583    1.6950 H   0  0  0  0  0  0  0  0  0  0  0  0
   -6.9215    2.5119    0.0048 H   0  0  0  0  0  0  0  0  0  0  0  0
   -1.3099   -5.3149    0.8864 H   0  0  0  0  0  0  0  0  0  0  0  0
    0.5733   -5.9708    1.1999 H   0  0  0  0  0  0  0  0  0  0  0  0
   -4.0082   -0.7256    0.6322 H   0  0  0  0  0  0  0  0  0  0  0  0
    2.2891    0.2790   -1.1946 H   0  0  0  0  0  0  0  0  0  0  0  0
    4.0335    1.4879    0.8566 H   0  0  0  0  0  0  0  0  0  0  0  0
    2.8961    2.6928   -1.7403 H   0  0  0  0  0  0  0  0  0  0  0  0
    3.8236    3.5655   -0.5509 H   0  0  0  0  0  0  0  0  0  0  0  0
    7.0638    1.5879   -0.8966 H   0  0  0  0  0  0  0  0  0  0  0  0
    6.1373    2.2036    0.4245 H   0  0  0  0  0  0  0  0  0  0  0  0
    0.5795    2.0005   -1.3150 H   0  0  0  0  0  0  0  0  0  0  0  0
    2.8630    4.1582    1.6342 H   0  0  0  0  0  0  0  0  0  0  0  0
   -1.4924    2.5086   -0.0728 H   0  0  0  0  0  0  0  0  0  0  0  0
    0.7790    4.6700    2.8627 H   0  0  0  0  0  0  0  0  0  0  0  0
   -1.4017    3.8468    2.0121 H   0  0  0  0  0  0  0  0  0  0  0  0
  1 11  1  0  0  0  0
  1 47  1  0  0  0  0
  2 14  1  0  0  0  0
  2 54  1  0  0  0  0
  3 16  1  0  0  0  0
  3 55  1  0  0  0  0
  4 17  2  0  0  0  0
  5 24  2  0  0  0  0
  6 27  2  0  0  0  0
  7 12  1  0  0  0  0
  7 24  1  0  0  0  0
  7 41  1  0  0  0  0
  8 18  1  0  0  0  0
  8 24  1  0  0  0  0
  8 56  1  0  0  0  0
  9 17  1  0  0  0  0
  9 25  1  0  0  0  0
  9 57  1  0  0  0  0
 10 27  1  0  0  0  0
 10 61  1  0  0  0  0
 10 62  1  0  0  0  0
 11 13  1  0  0  0  0
 11 15  1  0  0  0  0
 11 17  1  0  0  0  0
 12 13  1  0  0  0  0
 12 14  1  0  0  0  0
 12 34  1  0  0  0  0
 13 35  1  0  0  0  0
 13 36  1  0  0  0  0
 14 16  1  0  0  0  0
 14 37  1  0  0  0  0
 15 16  1  0  0  0  0
 15 38  1  0  0  0  0
 15 39  1  0  0  0  0
 16 40  1  0  0  0  0
 18 19  1  0  0  0  0
 18 20  1  0  0  0  0
 18 42  1  0  0  0  0
 19 21  1  0  0  0  0
 19 43  1  0  0  0  0
 19 44  1  0  0  0  0
 20 22  1  0  0  0  0
 20 45  1  0  0  0  0
 20 46  1  0  0  0  0
 21 23  1  0  0  0  0
 21 48  1  0  0  0  0
 21 49  1  0  0  0  0
 22 23  1  0  0  0  0
 22 50  1  0  0  0  0
 22 51  1  0  0  0  0
 23 52  1  0  0  0  0
 23 53  1  0  0  0  0
 25 26  1  0  0  0  0
 25 27  1  0  0  0  0
 25 58  1  0  0  0  0
 26 28  1  0  0  0  0
 26 59  1  0  0  0  0
 26 60  1  0  0  0  0
 28 29  2  0  0  0  0
 28 30  1  0  0  0  0
 29 31  1  0  0  0  0
 29 63  1  0  0  0  0
 30 32  2  0  0  0  0
 30 64  1  0  0  0  0
 31 33  2  0  0  0  0
 31 65  1  0  0  0  0
 32 33  1  0  0  0  0
 32 66  1  0  0  0  0
 33 67  1  0  0  0  0
M  END
> <PUBCHEM_COMPOUND_CID>
7050205

> <PUBCHEM_CONFORMER_RMSD>
1.2

> <PUBCHEM_CONFORMER_DIVERSEORDER>
1
109
118
56
100
42
25
52
101
18
64
69
10
80
88
37
90
31
26
35
66
107
73
61
75
46
28
47
19
78
77
70
103
43
51
22
85
65
16
60
116
63
57
99
81
67
20
8
97
86
12
17
53
40
23
84
50
62
113
58
91
111
87
15
98
32
79
96
36
76
24
115
74
112
39
9
117
7
106
30
5
34
4
38
72
110
59
3
104
41
94
45
13
92
82
6
89
93
108
55
14
49
33
102
71
11
21
95
68
29
54
27
2
114
105
44
48
83

> <PUBCHEM_MMFF94_PARTIAL_CHARGES>
39
1 -0.68
10 -0.8
11 0.34
12 0.3
14 0.28
16 0.28
17 0.57
18 0.3
2 -0.68
24 0.69
25 0.36
26 0.14
27 0.57
28 -0.14
29 -0.15
3 -0.68
30 -0.15
31 -0.15
32 -0.15
33 -0.15
4 -0.57
41 0.37
47 0.4
5 -0.57
54 0.4
55 0.4
56 0.37
57 0.37
6 -0.57
61 0.37
62 0.37
63 0.15
64 0.15
65 0.15
66 0.15
67 0.15
7 -0.73
8 -0.73
9 -0.73

> <PUBCHEM_EFFECTIVE_ROTOR_COUNT>
12.4

> <PUBCHEM_PHARMACOPHORE_FEATURES>
16
1 1 acceptor
1 1 donor
1 10 donor
1 2 acceptor
1 2 donor
1 3 acceptor
1 3 donor
1 4 acceptor
1 5 acceptor
1 6 acceptor
1 7 donor
1 8 donor
1 9 donor
6 11 12 13 14 15 16 rings
6 18 19 20 21 22 23 rings
6 28 29 30 31 32 33 rings

> <PUBCHEM_HEAVY_ATOM_COUNT>
33

> <PUBCHEM_ATOM_DEF_STEREO_COUNT>
5

> <PUBCHEM_ATOM_UDEF_STEREO_COUNT>
0

> <PUBCHEM_BOND_DEF_STEREO_COUNT>
0

> <PUBCHEM_BOND_UDEF_STEREO_COUNT>
0

> <PUBCHEM_ISOTOPIC_ATOM_COUNT>
0

> <PUBCHEM_COMPONENT_COUNT>
1

> <PUBCHEM_CACTVS_TAUTO_COUNT>
12

> <PUBCHEM_CONFORMER_ID>
006B93DD00000001

> <PUBCHEM_MMFF94_ENERGY>
64.4237

> <PUBCHEM_FEATURE_SELFOVERLAP>
81.27

> <PUBCHEM_SHAPE_FINGERPRINT>
10006869 2 17766544769193868493
10165383 225 18186800322162632247
10439779 11 18123452024575041344
10483366 6 18338249163572514838
1100329 8 18411693318100810146
11014199 57 17473822823185951547
11136131 41 18115581531359786546
12769317 202 18337096930424088461
12788726 201 18272092652066011864
14114211 68 18042992924576055534
14114211 80 18262812868062792430
14790565 3 18408042909416420828
14931854 50 18412263926060626765
15082195 135 18268686434348318375
15326921 28 16331575914438936528
15351339 4 18411979139616417280
15790856 291 18270694171806216758
15890870 6 18335703861886895340
17627616 140 18266183825033130049
19319366 153 18409165497918906462
21133410 58 16606040886432357009
21133410 62 18336842948039643585
437795 70 17773340983609373308
508706 21 17760077815334883238
5252454 2 18042112305724606246
5265222 85 18262809582424412988
79837 15 17905314475380269259
9777508 108 17903915900584486043

> <PUBCHEM_SHAPE_MULTIPOLES>
623.98
12.25
6.77
1.45
14.42
4.04
-0.08
-6.96
-3.37
-3.62
3.79
-0.48
-0.38
-1.24

> <PUBCHEM_SHAPE_SELFOVERLAP>
1300.582

> <PUBCHEM_SHAPE_VOLUME>
348.6

> <PUBCHEM_COORDINATE_TYPE>
2
5
10

$$$$
