11911829
  -OEChem-12032416143D

 63 67  0     1  0  0  0  0  0999 V2000
    2.8580   -2.7583    1.4434 O   0  0  0  0  0  0  0  0  0  0  0  0
    2.2822   -3.3848   -1.5844 O   0  0  0  0  0  0  0  0  0  0  0  0
   -1.0700   -2.4048    1.9202 O   0  0  0  0  0  0  0  0  0  0  0  0
   -3.5405   -1.9192    0.9676 O   0  0  0  0  0  0  0  0  0  0  0  0
    3.9722   -0.3431   -0.4750 N   0  0  0  0  0  0  0  0  0  0  0  0
   -0.4045   -3.4426   -0.0528 N   0  0  0  0  0  0  0  0  0  0  0  0
    4.8090    0.3006   -1.2814 N   0  0  0  0  0  0  0  0  0  0  0  0
    4.7479    1.6034   -0.9616 N   0  0  0  0  0  0  0  0  0  0  0  0
    2.1584    3.4111    0.8246 N   0  0  2  0  0  0  0  0  0  0  0  0
    2.3325   -2.1743   -0.8075 C   0  0  1  0  0  0  0  0  0  0  0  0
    1.7578   -2.4945    0.5586 C   0  0  1  0  0  0  0  0  0  0  0  0
    3.7761   -1.7937   -0.5388 C   0  0  2  0  0  0  0  0  0  0  0  0
    0.9492   -3.7532    0.3383 C   0  0  2  0  0  0  0  0  0  0  0  0
    4.0946   -2.5455    0.7489 C   0  0  0  0  0  0  0  0  0  0  0  0
    1.7054   -4.4304   -0.7895 C   0  0  0  0  0  0  0  0  0  0  0  0
    3.3907    0.5793    0.3500 C   0  0  0  0  0  0  0  0  0  0  0  0
   -1.3045   -2.7902    0.7780 C   0  0  0  0  0  0  0  0  0  0  0  0
    3.8727    1.8299    0.0557 C   0  0  0  0  0  0  0  0  0  0  0  0
    3.5960    3.1496    0.6185 C   0  0  0  0  0  0  0  0  0  0  0  0
   -2.6481   -2.5960    0.1082 C   0  0  0  0  0  0  0  0  0  0  0  0
    1.5247    3.7390   -0.4467 C   0  0  0  0  0  0  0  0  0  0  0  0
    1.9820    4.4900    1.7892 C   0  0  0  0  0  0  0  0  0  0  0  0
    0.0387    3.4990   -0.4112 C   0  0  0  0  0  0  0  0  0  0  0  0
   -4.4980   -1.1264    0.3801 C   0  0  0  0  0  0  0  0  0  0  0  0
   -0.4754    2.2539   -0.7733 C   0  0  0  0  0  0  0  0  0  0  0  0
   -0.8238    4.5215   -0.0156 C   0  0  0  0  0  0  0  0  0  0  0  0
   -4.9919   -1.4495   -0.8838 C   0  0  0  0  0  0  0  0  0  0  0  0
   -4.9754    0.0013    1.0481 C   0  0  0  0  0  0  0  0  0  0  0  0
   -1.8521    2.0314   -0.7402 C   0  0  0  0  0  0  0  0  0  0  0  0
   -2.2003    4.2988    0.0176 C   0  0  0  0  0  0  0  0  0  0  0  0
   -2.7144    3.0536   -0.3448 C   0  0  0  0  0  0  0  0  0  0  0  0
   -5.9628   -0.6448   -1.4800 C   0  0  0  0  0  0  0  0  0  0  0  0
   -5.9464    0.8060    0.4518 C   0  0  0  0  0  0  0  0  0  0  0  0
   -6.4401    0.4828   -0.8122 C   0  0  0  0  0  0  0  0  0  0  0  0
    1.7548   -1.4184   -1.3495 H   0  0  0  0  0  0  0  0  0  0  0  0
    1.2027   -1.6535    0.9824 H   0  0  0  0  0  0  0  0  0  0  0  0
    4.4450   -2.1428   -1.3356 H   0  0  0  0  0  0  0  0  0  0  0  0
    0.8997   -4.3932    1.2256 H   0  0  0  0  0  0  0  0  0  0  0  0
    4.7922   -2.0168    1.4056 H   0  0  0  0  0  0  0  0  0  0  0  0
    4.5133   -3.5331    0.5265 H   0  0  0  0  0  0  0  0  0  0  0  0
    1.0845   -5.0698   -1.4242 H   0  0  0  0  0  0  0  0  0  0  0  0
    2.5316   -5.0342   -0.3979 H   0  0  0  0  0  0  0  0  0  0  0  0
   -0.7198   -3.7373   -0.9730 H   0  0  0  0  0  0  0  0  0  0  0  0
    2.6730    0.2720    1.0975 H   0  0  0  0  0  0  0  0  0  0  0  0
    4.1152    3.1808    1.5863 H   0  0  0  0  0  0  0  0  0  0  0  0
    4.0522    3.9392    0.0069 H   0  0  0  0  0  0  0  0  0  0  0  0
   -3.0579   -3.5811   -0.1424 H   0  0  0  0  0  0  0  0  0  0  0  0
   -2.4513   -2.0270   -0.8105 H   0  0  0  0  0  0  0  0  0  0  0  0
    1.7361    4.7720   -0.7578 H   0  0  0  0  0  0  0  0  0  0  0  0
    1.9222    3.1198   -1.2629 H   0  0  0  0  0  0  0  0  0  0  0  0
    2.3784    5.4458    1.4270 H   0  0  0  0  0  0  0  0  0  0  0  0
    0.9314    4.6260    2.0608 H   0  0  0  0  0  0  0  0  0  0  0  0
    2.4914    4.2513    2.7306 H   0  0  0  0  0  0  0  0  0  0  0  0
    0.1853    1.4474   -1.0805 H   0  0  0  0  0  0  0  0  0  0  0  0
   -0.4403    5.5009    0.2575 H   0  0  0  0  0  0  0  0  0  0  0  0
   -4.6656   -2.3329   -1.4246 H   0  0  0  0  0  0  0  0  0  0  0  0
   -4.5933    0.2587    2.0321 H   0  0  0  0  0  0  0  0  0  0  0  0
   -2.2520    1.0620   -1.0230 H   0  0  0  0  0  0  0  0  0  0  0  0
   -2.8725    5.0958    0.3218 H   0  0  0  0  0  0  0  0  0  0  0  0
   -3.7863    2.8843   -0.3234 H   0  0  0  0  0  0  0  0  0  0  0  0
   -6.3517   -0.8991   -2.4616 H   0  0  0  0  0  0  0  0  0  0  0  0
   -6.3172    1.6848    0.9713 H   0  0  0  0  0  0  0  0  0  0  0  0
   -7.1966    1.1090   -1.2760 H   0  0  0  0  0  0  0  0  0  0  0  0
  1 11  1  0  0  0  0
  1 14  1  0  0  0  0
  2 10  1  0  0  0  0
  2 15  1  0  0  0  0
  3 17  2  0  0  0  0
  4 20  1  0  0  0  0
  4 24  1  0  0  0  0
  5  7  1  0  0  0  0
  5 12  1  0  0  0  0
  5 16  1  0  0  0  0
  6 13  1  0  0  0  0
  6 17  1  0  0  0  0
  6 43  1  0  0  0  0
  7  8  2  0  0  0  0
  8 18  1  0  0  0  0
  9 19  1  0  0  0  0
  9 21  1  0  0  0  0
  9 22  1  0  0  0  0
 10 11  1  0  0  0  0
 10 12  1  0  0  0  0
 10 35  1  0  0  0  0
 11 13  1  0  0  0  0
 11 36  1  0  0  0  0
 12 14  1  0  0  0  0
 12 37  1  0  0  0  0
 13 15  1  0  0  0  0
 13 38  1  0  0  0  0
 14 39  1  0  0  0  0
 14 40  1  0  0  0  0
 15 41  1  0  0  0  0
 15 42  1  0  0  0  0
 16 18  2  0  0  0  0
 16 44  1  0  0  0  0
 17 20  1  0  0  0  0
 18 19  1  0  0  0  0
 19 45  1  0  0  0  0
 19 46  1  0  0  0  0
 20 47  1  0  0  0  0
 20 48  1  0  0  0  0
 21 23  1  0  0  0  0
 21 49  1  0  0  0  0
 21 50  1  0  0  0  0
 22 51  1  0  0  0  0
 22 52  1  0  0  0  0
 22 53  1  0  0  0  0
 23 25  2  0  0  0  0
 23 26  1  0  0  0  0
 24 27  2  0  0  0  0
 24 28  1  0  0  0  0
 25 29  1  0  0  0  0
 25 54  1  0  0  0  0
 26 30  2  0  0  0  0
 26 55  1  0  0  0  0
 27 32  1  0  0  0  0
 27 56  1  0  0  0  0
 28 33  2  0  0  0  0
 28 57  1  0  0  0  0
 29 31  2  0  0  0  0
 29 58  1  0  0  0  0
 30 31  1  0  0  0  0
 30 59  1  0  0  0  0
 31 60  1  0  0  0  0
 32 34  2  0  0  0  0
 32 61  1  0  0  0  0
 33 34  1  0  0  0  0
 33 62  1  0  0  0  0
 34 63  1  0  0  0  0
M  END
> <PUBCHEM_COMPOUND_CID>
11911829

> <PUBCHEM_CONFORMER_RMSD>
1.4

> <PUBCHEM_CONFORMER_DIVERSEORDER>
1
23
79
7
68
36
24
52
67
14
70
71
39
44
77
19
48
41
73
10
78
49
61
38
2
47
64
15
55
81
26
58
27
72
54
62
37
11
28
17
74
50
53
65
5
22
34
8
42
16
66
80
63
82
3
21
29
20
25
40
46
13
33
9
69
6
45
12
60
43
18
56
31
75
57
51
4
59
76
30
35
32

> <PUBCHEM_MMFF94_PARTIAL_CHARGES>
46
1 -0.56
10 0.28
11 0.28
12 0.26
13 0.3
14 0.28
15 0.28
16 -0.3
17 0.57
18 0.05
19 0.45
2 -0.56
20 0.34
21 0.41
22 0.27
23 -0.14
24 0.08
25 -0.15
26 -0.15
27 -0.15
28 -0.15
29 -0.15
3 -0.57
30 -0.15
31 -0.15
32 -0.15
33 -0.15
34 -0.15
4 -0.36
43 0.37
44 0.15
5 0.31
54 0.15
55 0.15
56 0.15
57 0.15
58 0.15
59 0.15
6 -0.73
60 0.15
61 0.15
62 0.15
63 0.15
7 -0.42
8 -0.23
9 -0.81

> <PUBCHEM_EFFECTIVE_ROTOR_COUNT>
11.2

> <PUBCHEM_PHARMACOPHORE_FEATURES>
11
1 1 acceptor
1 2 acceptor
1 3 acceptor
1 4 acceptor
1 6 donor
1 9 cation
5 1 10 11 12 14 rings
5 2 10 11 13 15 rings
5 5 7 8 16 18 rings
6 23 25 26 29 30 31 rings
6 24 27 28 32 33 34 rings

> <PUBCHEM_HEAVY_ATOM_COUNT>
34

> <PUBCHEM_ATOM_DEF_STEREO_COUNT>
4

> <PUBCHEM_ATOM_UDEF_STEREO_COUNT>
0

> <PUBCHEM_BOND_DEF_STEREO_COUNT>
0

> <PUBCHEM_BOND_UDEF_STEREO_COUNT>
0

> <PUBCHEM_ISOTOPIC_ATOM_COUNT>
0

> <PUBCHEM_COMPONENT_COUNT>
1

> <PUBCHEM_CACTVS_TAUTO_COUNT>
2

> <PUBCHEM_CONFORMER_ID>
00B5C29500000001

> <PUBCHEM_MMFF94_ENERGY>
91.2773

> <PUBCHEM_FEATURE_SELFOVERLAP>
56.522

> <PUBCHEM_SHAPE_FINGERPRINT>
10006869 2 18409440376031961910
10439779 11 18122614222326230498
10581848 197 17911196733882615800
10864689 126 18267311005236333812
11059048 146 16395500889253438419
11828042 226 18335410242167309981
12788726 201 18263092023852582655
12925494 130 18337112392981931667
13402501 40 18335703887635424596
1361 2 18267861873140100929
15320467 1 18410293605655203573
15351339 4 18261380106471915233
15968369 26 18049127069904550540
16112460 7 18197227962430886481
20764821 26 18264766743264882188
21133410 38 18201453454113847153
21344244 246 18194668480045189447
21585483 110 18335698373525229229
25265897 201 17627549164828999463
325973 47 18122067769342212265
437795 96 18191864737582429843
45266715 3 17624104481341672565
5047190 48 17544473514808334381
5309563 4 18341047419768535444
532947 4 18337951311563295807
550186 83 17460014383102245992
6422251 121 18410570652869025709
6433294 58 18410576141267595544
6609424 69 17035321570401966834

> <PUBCHEM_SHAPE_MULTIPOLES>
651.32
12.15
7.89
1.31
13.99
3.43
-0.17
-1.66
1.98
-4.58
-0.9
-0.04
-0.25
0.91

> <PUBCHEM_SHAPE_SELFOVERLAP>
1401.076

> <PUBCHEM_SHAPE_VOLUME>
359

> <PUBCHEM_COORDINATE_TYPE>
2
5
10

$$$$
