11911750
  -OEChem-12032416363D

 55 59  0     1  0  0  0  0  0999 V2000
    8.9279    0.5104   -0.8507 Cl  0  0  0  0  0  0  0  0  0  0  0  0
    0.6128   -2.9093   -1.2176 O   0  0  0  0  0  0  0  0  0  0  0  0
   -3.3406    0.0873   -2.6710 O   0  0  0  0  0  0  0  0  0  0  0  0
   -3.8339   -0.7610   -0.5469 N   0  0  0  0  0  0  0  0  0  0  0  0
   -1.1969   -2.3796    0.1527 N   0  0  0  0  0  0  0  0  0  0  0  0
   -1.1822    6.1698    1.0852 N   0  0  0  0  0  0  0  0  0  0  0  0
   -3.5698   -3.2251   -0.3180 C   0  0  1  0  0  0  0  0  0  0  0  0
   -3.1509   -1.7652    1.6189 C   0  0  2  0  0  0  0  0  0  0  0  0
   -3.7615   -3.0983    1.1893 C   0  0  0  0  0  0  0  0  0  0  0  0
   -4.2694   -2.0642   -1.0483 C   0  0  0  0  0  0  0  0  0  0  0  0
   -2.0672   -3.2765   -0.6219 C   0  0  0  0  0  0  0  0  0  0  0  0
   -3.8893   -0.6084    0.9159 C   0  0  0  0  0  0  0  0  0  0  0  0
   -1.6731   -1.7080    1.2812 C   0  0  0  0  0  0  0  0  0  0  0  0
   -0.8329   -0.9867    2.0397 C   0  0  0  0  0  0  0  0  0  0  0  0
    0.1555   -2.3145   -0.2397 C   0  0  0  0  0  0  0  0  0  0  0  0
   -3.3891    0.2090   -1.4483 C   0  0  0  0  0  0  0  0  0  0  0  0
    1.0672   -1.4729    0.6128 C   0  0  0  0  0  0  0  0  0  0  0  0
    0.5552   -0.8702    1.6950 C   0  0  0  0  0  0  0  0  0  0  0  0
   -2.9160    1.4865   -0.9049 C   0  0  0  0  0  0  0  0  0  0  0  0
    2.4591   -1.3395    0.2635 C   0  0  0  0  0  0  0  0  0  0  0  0
   -1.5724    1.6442   -0.5752 C   0  0  0  0  0  0  0  0  0  0  0  0
   -3.8128    2.5361   -0.7228 C   0  0  0  0  0  0  0  0  0  0  0  0
    3.1772   -0.2447    0.5429 C   0  0  0  0  0  0  0  0  0  0  0  0
   -1.1224    2.8599   -0.0597 C   0  0  0  0  0  0  0  0  0  0  0  0
   -3.3629    3.7517   -0.2074 C   0  0  0  0  0  0  0  0  0  0  0  0
   -2.0175    3.9135    0.1241 C   0  0  0  0  0  0  0  0  0  0  0  0
    4.5974   -0.0583    0.1982 C   0  0  0  0  0  0  0  0  0  0  0  0
    5.3817   -1.1681   -0.0716 C   0  0  0  0  0  0  0  0  0  0  0  0
    5.1217    1.2234    0.1511 C   0  0  0  0  0  0  0  0  0  0  0  0
   -1.5569    5.1579    0.6542 C   0  0  0  0  0  0  0  0  0  0  0  0
    6.7266   -0.9916   -0.3972 C   0  0  0  0  0  0  0  0  0  0  0  0
    6.4665    1.4000   -0.1746 C   0  0  0  0  0  0  0  0  0  0  0  0
    7.2689    0.2925   -0.4487 C   0  0  0  0  0  0  0  0  0  0  0  0
   -4.0248   -4.1594   -0.6693 H   0  0  0  0  0  0  0  0  0  0  0  0
   -3.2893   -1.6580    2.7026 H   0  0  0  0  0  0  0  0  0  0  0  0
   -3.2797   -3.9339    1.7122 H   0  0  0  0  0  0  0  0  0  0  0  0
   -4.8278   -3.1315    1.4439 H   0  0  0  0  0  0  0  0  0  0  0  0
   -4.1016   -2.1403   -2.1279 H   0  0  0  0  0  0  0  0  0  0  0  0
   -5.3527   -2.1206   -0.8858 H   0  0  0  0  0  0  0  0  0  0  0  0
   -1.8860   -3.1036   -1.6902 H   0  0  0  0  0  0  0  0  0  0  0  0
   -1.7022   -4.2919   -0.4146 H   0  0  0  0  0  0  0  0  0  0  0  0
   -3.4847    0.3534    1.2403 H   0  0  0  0  0  0  0  0  0  0  0  0
   -4.9503   -0.6159    1.1946 H   0  0  0  0  0  0  0  0  0  0  0  0
   -1.1791   -0.4457    2.9142 H   0  0  0  0  0  0  0  0  0  0  0  0
    1.1519   -0.2693    2.3743 H   0  0  0  0  0  0  0  0  0  0  0  0
    2.8877   -2.1847   -0.2653 H   0  0  0  0  0  0  0  0  0  0  0  0
   -0.8653    0.8336   -0.7250 H   0  0  0  0  0  0  0  0  0  0  0  0
   -4.8629    2.4196   -0.9776 H   0  0  0  0  0  0  0  0  0  0  0  0
    2.7190    0.6130    1.0303 H   0  0  0  0  0  0  0  0  0  0  0  0
   -0.0703    2.9704    0.1925 H   0  0  0  0  0  0  0  0  0  0  0  0
   -4.0730    4.5635   -0.0693 H   0  0  0  0  0  0  0  0  0  0  0  0
    5.0096   -2.1864   -0.0214 H   0  0  0  0  0  0  0  0  0  0  0  0
    4.5094    2.0966    0.3605 H   0  0  0  0  0  0  0  0  0  0  0  0
    7.3417   -1.8637   -0.6037 H   0  0  0  0  0  0  0  0  0  0  0  0
    6.8756    2.4064   -0.2115 H   0  0  0  0  0  0  0  0  0  0  0  0
  1 33  1  0  0  0  0
  2 15  2  0  0  0  0
  3 16  2  0  0  0  0
  4 10  1  0  0  0  0
  4 12  1  0  0  0  0
  4 16  1  0  0  0  0
  5 11  1  0  0  0  0
  5 13  1  0  0  0  0
  5 15  1  0  0  0  0
  6 30  3  0  0  0  0
  7  9  1  0  0  0  0
  7 10  1  0  0  0  0
  7 11  1  0  0  0  0
  7 34  1  0  0  0  0
  8  9  1  0  0  0  0
  8 12  1  0  0  0  0
  8 13  1  0  0  0  0
  8 35  1  0  0  0  0
  9 36  1  0  0  0  0
  9 37  1  0  0  0  0
 10 38  1  0  0  0  0
 10 39  1  0  0  0  0
 11 40  1  0  0  0  0
 11 41  1  0  0  0  0
 12 42  1  0  0  0  0
 12 43  1  0  0  0  0
 13 14  2  0  0  0  0
 14 18  1  0  0  0  0
 14 44  1  0  0  0  0
 15 17  1  0  0  0  0
 16 19  1  0  0  0  0
 17 18  2  0  0  0  0
 17 20  1  0  0  0  0
 18 45  1  0  0  0  0
 19 21  2  0  0  0  0
 19 22  1  0  0  0  0
 20 23  2  0  0  0  0
 20 46  1  0  0  0  0
 21 24  1  0  0  0  0
 21 47  1  0  0  0  0
 22 25  2  0  0  0  0
 22 48  1  0  0  0  0
 23 27  1  0  0  0  0
 23 49  1  0  0  0  0
 24 26  2  0  0  0  0
 24 50  1  0  0  0  0
 25 26  1  0  0  0  0
 25 51  1  0  0  0  0
 26 30  1  0  0  0  0
 27 28  2  0  0  0  0
 27 29  1  0  0  0  0
 28 31  1  0  0  0  0
 28 52  1  0  0  0  0
 29 32  2  0  0  0  0
 29 53  1  0  0  0  0
 31 33  2  0  0  0  0
 31 54  1  0  0  0  0
 32 33  1  0  0  0  0
 32 55  1  0  0  0  0
M  END
> <PUBCHEM_COMPOUND_CID>
11911750

> <PUBCHEM_CONFORMER_RMSD>
0.8

> <PUBCHEM_CONFORMER_DIVERSEORDER>
1
8
6
5
3
7
4
2

> <PUBCHEM_MMFF94_PARTIAL_CHARGES>
43
1 -0.18
10 0.3
11 0.3
12 0.3
13 -0.03
14 -0.15
15 0.62
16 0.54
17 0.01
18 -0.15
19 0.09
2 -0.57
20 -0.15
21 -0.15
22 -0.15
23 -0.18
24 -0.15
25 -0.15
26 0.07
27 0.03
28 -0.15
29 -0.15
3 -0.57
30 0.48
31 -0.15
32 -0.15
33 0.18
4 -0.66
44 0.15
45 0.15
46 0.15
47 0.15
48 0.15
49 0.15
5 -0.47
50 0.15
51 0.15
52 0.15
53 0.15
54 0.15
55 0.15
6 -0.56
8 0.14

> <PUBCHEM_EFFECTIVE_ROTOR_COUNT>
5

> <PUBCHEM_PHARMACOPHORE_FEATURES>
8
1 2 acceptor
1 3 acceptor
1 6 acceptor
6 19 21 22 24 25 26 rings
6 27 28 29 31 32 33 rings
6 4 7 8 9 10 12 rings
6 5 13 14 15 17 18 rings
6 5 7 8 9 11 13 rings

> <PUBCHEM_HEAVY_ATOM_COUNT>
33

> <PUBCHEM_ATOM_DEF_STEREO_COUNT>
2

> <PUBCHEM_ATOM_UDEF_STEREO_COUNT>
0

> <PUBCHEM_BOND_DEF_STEREO_COUNT>
1

> <PUBCHEM_BOND_UDEF_STEREO_COUNT>
0

> <PUBCHEM_ISOTOPIC_ATOM_COUNT>
0

> <PUBCHEM_COMPONENT_COUNT>
1

> <PUBCHEM_CACTVS_TAUTO_COUNT>
1

> <PUBCHEM_CONFORMER_ID>
00B5C24600000001

> <PUBCHEM_MMFF94_ENERGY>
92.9023

> <PUBCHEM_FEATURE_SELFOVERLAP>
42.18

> <PUBCHEM_SHAPE_FINGERPRINT>
100830 39 18410013226607439836
10165383 225 18130796638090360851
10291535 26 18335704927038810731
10454371 7 18335426768636884268
10670039 82 18335415777646372012
10816530 145 18265348350867695435
10937287 8 17834108646145332601
11434127 23 18410572886120502214
11477941 20 18271232932682921108
11524674 6 9871481897615474531
12107698 1 18260832657013000606
12788726 201 18261383473035374210
13761468 95 17988092084123718000
13974486 27 18126012796348511276
14347329 18 18339353068582140784
14363568 33 17760094303651107353
14713325 29 18409733941362787683
14950920 106 11819572384826068278
15183329 4 18412543241507517758
15297060 5 18342739576684707856
15439362 3 17763466119704243796
15876981 60 18187650274816427159
16067689 134 17544198182510362042
19611394 137 17827086400603020171
21033650 10 18189358830677526710
21236236 1 18333452041136242162
21859007 373 18201141206128672016
21927370 108 18192445267122759835
22956985 138 16453785506811231715
354706 132 18261959536231156772
3610482 184 18189067421272265868
397830 11 8430017730829666654
437795 83 18408610284230804900
4616759 239 17241605203818473088
469060 322 15864367809085349227
5171179 24 18128526257404413521
531348 171 18411135806088552378
550186 7 18271804592940795244
57527358 35 15577218162896476241
57527585 21 18125698129341265541
57676310 82 17627811716776598289
6201320 215 18411694367170511920
7288768 16 17824833239273242657
9980921 221 18265636333511150020

> <PUBCHEM_SHAPE_MULTIPOLES>
654.31
15.58
6.08
1.51
47.55
9.82
-0.04
0.18
-4.58
-9.48
1.27
-1.58
-0.4
0.3

> <PUBCHEM_SHAPE_SELFOVERLAP>
1434.273

> <PUBCHEM_SHAPE_VOLUME>
350.3

> <PUBCHEM_COORDINATE_TYPE>
2
5
10

$$$$
