11867054
  -OEChem-12032416133D

 75 78  0     1  0  0  0  0  0999 V2000
   -0.4999    3.1408   -0.4837 S   0  0  0  0  0  0  0  0  0  0  0  0
   -7.2329   -0.8924   -0.3276 O   0  0  0  0  0  0  0  0  0  0  0  0
   -7.2523    1.1875    0.8633 O   0  0  0  0  0  0  0  0  0  0  0  0
    0.4460   -2.4604   -1.2734 O   0  0  0  0  0  0  0  0  0  0  0  0
    3.5000    0.7536   -0.6167 O   0  0  0  0  0  0  0  0  0  0  0  0
    0.5467    0.7783   -0.3577 N   0  0  0  0  0  0  0  0  0  0  0  0
    1.6598   -2.5014    0.7372 N   0  0  0  0  0  0  0  0  0  0  0  0
    2.0651    2.6256   -0.6606 N   0  0  0  0  0  0  0  0  0  0  0  0
   -2.9597   -0.5885    0.4819 C   0  0  2  0  0  0  0  0  0  0  0  0
   -3.6901    0.5398   -0.3718 C   0  0  1  0  0  0  0  0  0  0  0  0
   -5.2660    0.5738   -0.3138 C   0  0  1  0  0  0  0  0  0  0  0  0
   -1.4602   -0.7197   -0.0548 C   0  0  1  0  0  0  0  0  0  0  0  0
   -3.6773   -1.9459    0.2637 C   0  0  0  0  0  0  0  0  0  0  0  0
   -5.8168   -0.8679   -0.5036 C   0  0  1  0  0  0  0  0  0  0  0  0
   -3.0248    1.9313   -0.1627 C   0  0  0  0  0  0  0  0  0  0  0  0
   -5.1871   -1.8816    0.4454 C   0  0  0  0  0  0  0  0  0  0  0  0
   -2.9383   -0.2758    1.9984 C   0  0  0  0  0  0  0  0  0  0  0  0
   -0.8210    0.6360   -0.2137 C   0  0  0  0  0  0  0  0  0  0  0  0
   -5.8462    1.2214    0.9630 C   0  0  0  0  0  0  0  0  0  0  0  0
   -5.7985    1.4316   -1.4964 C   0  0  0  0  0  0  0  0  0  0  0  0
   -1.5428    1.8104   -0.2780 C   0  0  0  0  0  0  0  0  0  0  0  0
   -0.5713   -1.6677    0.7613 C   0  0  0  0  0  0  0  0  0  0  0  0
    0.5523   -2.2542   -0.0689 C   0  0  0  0  0  0  0  0  0  0  0  0
    0.8305    2.0549   -0.4993 C   0  0  0  0  0  0  0  0  0  0  0  0
    2.9070   -3.0443    0.3470 C   0  0  0  0  0  0  0  0  0  0  0  0
    3.3023    1.9618   -0.7095 C   0  0  0  0  0  0  0  0  0  0  0  0
    4.4758    2.9169   -0.8935 C   0  0  0  0  0  0  0  0  0  0  0  0
    5.1569    3.3675    0.4210 C   0  0  0  0  0  0  0  0  0  0  0  0
    3.9152   -3.2265    1.2937 C   0  0  0  0  0  0  0  0  0  0  0  0
    3.1283   -3.3978   -0.9842 C   0  0  0  0  0  0  0  0  0  0  0  0
    4.1947    4.1740    1.3082 C   0  0  0  0  0  0  0  0  0  0  0  0
    6.3514    4.2699    0.0536 C   0  0  0  0  0  0  0  0  0  0  0  0
    5.6854    2.1599    1.2130 C   0  0  0  0  0  0  0  0  0  0  0  0
    5.1445   -3.7619    0.9093 C   0  0  0  0  0  0  0  0  0  0  0  0
    4.3576   -3.9334   -1.3685 C   0  0  0  0  0  0  0  0  0  0  0  0
    5.3657   -4.1154   -0.4217 C   0  0  0  0  0  0  0  0  0  0  0  0
   -3.4678    0.2655   -1.4178 H   0  0  0  0  0  0  0  0  0  0  0  0
   -1.5438   -1.1111   -1.0793 H   0  0  0  0  0  0  0  0  0  0  0  0
   -3.2858   -2.7077    0.9475 H   0  0  0  0  0  0  0  0  0  0  0  0
   -3.4711   -2.3113   -0.7511 H   0  0  0  0  0  0  0  0  0  0  0  0
   -5.6224   -1.1903   -1.5352 H   0  0  0  0  0  0  0  0  0  0  0  0
   -3.3877    2.6394   -0.9153 H   0  0  0  0  0  0  0  0  0  0  0  0
   -3.2741    2.3404    0.8222 H   0  0  0  0  0  0  0  0  0  0  0  0
   -5.4544   -1.6587    1.4842 H   0  0  0  0  0  0  0  0  0  0  0  0
   -5.6146   -2.8736    0.2504 H   0  0  0  0  0  0  0  0  0  0  0  0
   -2.4088   -1.0563    2.5562 H   0  0  0  0  0  0  0  0  0  0  0  0
   -3.9321   -0.2381    2.4394 H   0  0  0  0  0  0  0  0  0  0  0  0
   -2.4376    0.6694    2.2256 H   0  0  0  0  0  0  0  0  0  0  0  0
   -5.5772    0.6883    1.8712 H   0  0  0  0  0  0  0  0  0  0  0  0
   -5.5353    2.2653    1.0674 H   0  0  0  0  0  0  0  0  0  0  0  0
   -5.3575    1.1069   -2.4460 H   0  0  0  0  0  0  0  0  0  0  0  0
   -5.5637    2.4933   -1.3679 H   0  0  0  0  0  0  0  0  0  0  0  0
   -6.8855    1.3551   -1.6118 H   0  0  0  0  0  0  0  0  0  0  0  0
   -0.1707   -1.1476    1.6403 H   0  0  0  0  0  0  0  0  0  0  0  0
   -1.1351   -2.5324    1.1255 H   0  0  0  0  0  0  0  0  0  0  0  0
   -7.5359   -1.7999   -0.5011 H   0  0  0  0  0  0  0  0  0  0  0  0
   -7.6098    1.6054    1.6651 H   0  0  0  0  0  0  0  0  0  0  0  0
    1.5857   -2.2806    1.7279 H   0  0  0  0  0  0  0  0  0  0  0  0
    2.0589    3.6383   -0.7496 H   0  0  0  0  0  0  0  0  0  0  0  0
    5.2021    2.4056   -1.5394 H   0  0  0  0  0  0  0  0  0  0  0  0
    4.1365    3.7933   -1.4609 H   0  0  0  0  0  0  0  0  0  0  0  0
    3.7562   -2.9550    2.3341 H   0  0  0  0  0  0  0  0  0  0  0  0
    2.3984   -3.2864   -1.7735 H   0  0  0  0  0  0  0  0  0  0  0  0
    4.7103    4.5699    2.1907 H   0  0  0  0  0  0  0  0  0  0  0  0
    3.7717    5.0243    0.7618 H   0  0  0  0  0  0  0  0  0  0  0  0
    3.3647    3.5574    1.6688 H   0  0  0  0  0  0  0  0  0  0  0  0
    6.8761    4.6203    0.9497 H   0  0  0  0  0  0  0  0  0  0  0  0
    6.0224    5.1534   -0.5053 H   0  0  0  0  0  0  0  0  0  0  0  0
    7.0774    3.7327   -0.5671 H   0  0  0  0  0  0  0  0  0  0  0  0
    6.2581    2.4840    2.0896 H   0  0  0  0  0  0  0  0  0  0  0  0
    4.8702    1.5255    1.5768 H   0  0  0  0  0  0  0  0  0  0  0  0
    6.3457    1.5404    0.5959 H   0  0  0  0  0  0  0  0  0  0  0  0
    5.9296   -3.9034    1.6463 H   0  0  0  0  0  0  0  0  0  0  0  0
    4.5314   -4.2088   -2.4047 H   0  0  0  0  0  0  0  0  0  0  0  0
    6.3230   -4.5322   -0.7210 H   0  0  0  0  0  0  0  0  0  0  0  0
  1 21  1  0  0  0  0
  1 24  1  0  0  0  0
  2 14  1  0  0  0  0
  2 56  1  0  0  0  0
  3 19  1  0  0  0  0
  3 57  1  0  0  0  0
  4 23  2  0  0  0  0
  5 26  2  0  0  0  0
  6 18  1  0  0  0  0
  6 24  2  0  0  0  0
  7 23  1  0  0  0  0
  7 25  1  0  0  0  0
  7 58  1  0  0  0  0
  8 24  1  0  0  0  0
  8 26  1  0  0  0  0
  8 59  1  0  0  0  0
  9 10  1  0  0  0  0
  9 12  1  0  0  0  0
  9 13  1  0  0  0  0
  9 17  1  0  0  0  0
 10 11  1  0  0  0  0
 10 15  1  0  0  0  0
 10 37  1  0  0  0  0
 11 14  1  0  0  0  0
 11 19  1  0  0  0  0
 11 20  1  0  0  0  0
 12 18  1  0  0  0  0
 12 22  1  0  0  0  0
 12 38  1  0  0  0  0
 13 16  1  0  0  0  0
 13 39  1  0  0  0  0
 13 40  1  0  0  0  0
 14 16  1  0  0  0  0
 14 41  1  0  0  0  0
 15 21  1  0  0  0  0
 15 42  1  0  0  0  0
 15 43  1  0  0  0  0
 16 44  1  0  0  0  0
 16 45  1  0  0  0  0
 17 46  1  0  0  0  0
 17 47  1  0  0  0  0
 17 48  1  0  0  0  0
 18 21  2  0  0  0  0
 19 49  1  0  0  0  0
 19 50  1  0  0  0  0
 20 51  1  0  0  0  0
 20 52  1  0  0  0  0
 20 53  1  0  0  0  0
 22 23  1  0  0  0  0
 22 54  1  0  0  0  0
 22 55  1  0  0  0  0
 25 29  2  0  0  0  0
 25 30  1  0  0  0  0
 26 27  1  0  0  0  0
 27 28  1  0  0  0  0
 27 60  1  0  0  0  0
 27 61  1  0  0  0  0
 28 31  1  0  0  0  0
 28 32  1  0  0  0  0
 28 33  1  0  0  0  0
 29 34  1  0  0  0  0
 29 62  1  0  0  0  0
 30 35  2  0  0  0  0
 30 63  1  0  0  0  0
 31 64  1  0  0  0  0
 31 65  1  0  0  0  0
 31 66  1  0  0  0  0
 32 67  1  0  0  0  0
 32 68  1  0  0  0  0
 32 69  1  0  0  0  0
 33 70  1  0  0  0  0
 33 71  1  0  0  0  0
 33 72  1  0  0  0  0
 34 36  2  0  0  0  0
 34 73  1  0  0  0  0
 35 36  1  0  0  0  0
 35 74  1  0  0  0  0
 36 75  1  0  0  0  0
M  END
> <PUBCHEM_COMPOUND_CID>
11867054

> <PUBCHEM_CONFORMER_RMSD>
1

> <PUBCHEM_CONFORMER_DIVERSEORDER>
1
23
31
10
26
25
6
30
32
36
20
12
8
14
34
27
18
15
16
33
24
29
3
13
28
19
17
11
9
22
5
21
7
35
4
2

> <PUBCHEM_MMFF94_PARTIAL_CHARGES>
34
1 -0.08
12 0.18
14 0.28
15 0.18
18 0.05
19 0.28
2 -0.68
21 -0.14
22 0.06
23 0.57
24 0.44
25 0.12
26 0.57
27 0.06
29 -0.15
3 -0.68
30 -0.15
34 -0.15
35 -0.15
36 -0.15
4 -0.57
5 -0.57
56 0.4
57 0.4
58 0.37
59 0.37
6 -0.57
62 0.15
63 0.15
7 -0.55
73 0.15
74 0.15
75 0.15
8 -0.49

> <PUBCHEM_EFFECTIVE_ROTOR_COUNT>
10.2

> <PUBCHEM_PHARMACOPHORE_FEATURES>
13
1 2 acceptor
1 2 donor
1 3 acceptor
1 3 donor
1 4 acceptor
1 5 acceptor
1 7 donor
1 8 donor
4 28 31 32 33 hydrophobe
5 1 6 18 21 24 rings
6 25 29 30 34 35 36 rings
6 9 10 11 13 14 16 rings
6 9 10 12 15 18 21 rings

> <PUBCHEM_HEAVY_ATOM_COUNT>
36

> <PUBCHEM_ATOM_DEF_STEREO_COUNT>
5

> <PUBCHEM_ATOM_UDEF_STEREO_COUNT>
0

> <PUBCHEM_BOND_DEF_STEREO_COUNT>
0

> <PUBCHEM_BOND_UDEF_STEREO_COUNT>
0

> <PUBCHEM_ISOTOPIC_ATOM_COUNT>
0

> <PUBCHEM_COMPONENT_COUNT>
1

> <PUBCHEM_CACTVS_TAUTO_COUNT>
6

> <PUBCHEM_CONFORMER_ID>
00B513AE00000001

> <PUBCHEM_MMFF94_ENERGY>
118.2495

> <PUBCHEM_FEATURE_SELFOVERLAP>
66.117

> <PUBCHEM_SHAPE_FINGERPRINT>
10032420 55 17315638383448180538
10050765 1 18337952299395692205
10290309 65 18338223973420998900
1100329 8 17905329528972317545
11135926 11 18337944696622947348
11719270 70 18336541733140356932
12156800 1 15983673728260978966
12166972 35 18199748038190474842
12677640 9 17836927802728778776
12788726 201 17681836202851664179
12977781 61 17750252428778564755
13533116 47 18410015411965253636
13540713 4 18186805777483260603
14068700 675 18265332798458715143
14466204 15 18263360455404304061
15200665 1 17691967480946743898
15351339 4 18189912937836702118
15400415 2 18050003591384021204
15815584 197 18191046653386414119
15927050 60 18268429221219739630
15968369 26 18041853933867545582
16067689 302 18337112384624637895
20028762 73 17836088140531756086
20554085 129 17987226906291712680
20642791 35 18116147775684543883
20721686 56 18334018250943941882
21033648 29 17984131840994588144
21133665 82 18120941866253693740
21344244 246 18337382842687870711
21703447 108 18335979775302788190
21792965 2 18042679683747755139
22311459 1 18048882085375557911
23559900 14 18337666408865378315
244849 19 17750255706218250619
249999 5 18410572899168303468
3298306 158 18336272356743225348
3411729 13 18408602591189600714
4017518 198 18197506336656850764
4403749 210 17905039610549079400
5104073 3 18409459068351801819
5171179 24 18264768757757661012
5265222 85 17903646520673907828
5385378 56 18410017662549358801
5776283 40 18265630930674198556
6669772 16 18340208600186897910
6700243 42 17268087748611616846
9961470 85 18339076112164505642

> <PUBCHEM_SHAPE_MULTIPOLES>
706.29
16.97
6.51
1.26
11.38
1.12
0.19
-3.25
1.3
-16.91
-0.07
-0.22
0.16
1.21

> <PUBCHEM_SHAPE_SELFOVERLAP>
1480.909

> <PUBCHEM_SHAPE_VOLUME>
402.4

> <PUBCHEM_COORDINATE_TYPE>
2
5
10

$$$$
