7143793
  -OEChem-12032416413D

 48 52  0     1  0  0  0  0  0999 V2000
    2.4231   -1.4357   -0.6891 S   0  0  0  0  0  0  0  0  0  0  0  0
   -4.9155   -2.1427   -0.2635 S   0  0  0  0  0  0  0  0  0  0  0  0
    2.4698   -1.6348   -2.1222 O   0  0  0  0  0  0  0  0  0  0  0  0
    1.9467   -2.4805    0.1927 O   0  0  0  0  0  0  0  0  0  0  0  0
   -3.1417    0.8231   -1.7579 O   0  0  0  0  0  0  0  0  0  0  0  0
    1.5709    0.0092   -0.3519 N   0  0  2  0  0  0  0  0  0  0  0  0
   -1.3595    1.1890   -0.2988 N   0  0  0  0  0  0  0  0  0  0  0  0
    0.8295    2.2907   -1.0438 C   0  0  1  0  0  0  0  0  0  0  0  0
    0.5564    1.5767    1.2900 C   0  0  2  0  0  0  0  0  0  0  0  0
    0.9192    2.7631    0.4012 C   0  0  0  0  0  0  0  0  0  0  0  0
    1.8129    1.1363   -1.2972 C   0  0  0  0  0  0  0  0  0  0  0  0
    1.5761    0.4432    1.0773 C   0  0  0  0  0  0  0  0  0  0  0  0
   -0.6219    1.9018   -1.3511 C   0  0  0  0  0  0  0  0  0  0  0  0
   -0.8486    1.0843    0.9970 C   0  0  0  0  0  0  0  0  0  0  0  0
   -1.5900    0.5318    1.9704 C   0  0  0  0  0  0  0  0  0  0  0  0
   -2.6434    0.7167   -0.6358 C   0  0  0  0  0  0  0  0  0  0  0  0
   -3.4363    0.0696    0.4678 C   0  0  0  0  0  0  0  0  0  0  0  0
   -2.8999    0.0127    1.6960 C   0  0  0  0  0  0  0  0  0  0  0  0
    4.0414   -0.9721   -0.1564 C   0  0  0  0  0  0  0  0  0  0  0  0
   -4.7710   -0.5008    0.2158 C   0  0  0  0  0  0  0  0  0  0  0  0
    4.4136   -1.2001    1.1582 C   0  0  0  0  0  0  0  0  0  0  0  0
    4.9117   -0.3878   -1.0621 C   0  0  0  0  0  0  0  0  0  0  0  0
   -6.0074    0.1115    0.3081 C   0  0  0  0  0  0  0  0  0  0  0  0
    5.6919   -0.8334    1.5791 C   0  0  0  0  0  0  0  0  0  0  0  0
    6.1900   -0.0213   -0.6410 C   0  0  0  0  0  0  0  0  0  0  0  0
    6.5800   -0.2441    0.6796 C   0  0  0  0  0  0  0  0  0  0  0  0
   -7.0755   -0.7740   -0.0164 C   0  0  0  0  0  0  0  0  0  0  0  0
   -6.6223   -2.0324   -0.3459 C   0  0  0  0  0  0  0  0  0  0  0  0
    1.1106    3.1131   -1.7136 H   0  0  0  0  0  0  0  0  0  0  0  0
    0.6199    1.9048    2.3359 H   0  0  0  0  0  0  0  0  0  0  0  0
    0.2372    3.6047    0.5763 H   0  0  0  0  0  0  0  0  0  0  0  0
    1.9320    3.1184    0.6270 H   0  0  0  0  0  0  0  0  0  0  0  0
    1.6954    0.7912   -2.3299 H   0  0  0  0  0  0  0  0  0  0  0  0
    2.8345    1.5110   -1.1746 H   0  0  0  0  0  0  0  0  0  0  0  0
    2.5671    0.8146    1.3577 H   0  0  0  0  0  0  0  0  0  0  0  0
    1.3248   -0.4036    1.7257 H   0  0  0  0  0  0  0  0  0  0  0  0
   -1.1961    2.8186   -1.5440 H   0  0  0  0  0  0  0  0  0  0  0  0
   -0.6760    1.3133   -2.2757 H   0  0  0  0  0  0  0  0  0  0  0  0
   -1.2146    0.4318    2.9834 H   0  0  0  0  0  0  0  0  0  0  0  0
   -3.4293   -0.4438    2.5273 H   0  0  0  0  0  0  0  0  0  0  0  0
    3.7377   -1.6560    1.8751 H   0  0  0  0  0  0  0  0  0  0  0  0
    4.6271   -0.2028   -2.0933 H   0  0  0  0  0  0  0  0  0  0  0  0
   -6.1417    1.1471    0.5948 H   0  0  0  0  0  0  0  0  0  0  0  0
    5.9954   -1.0061    2.6075 H   0  0  0  0  0  0  0  0  0  0  0  0
    6.8814    0.4386   -1.3410 H   0  0  0  0  0  0  0  0  0  0  0  0
    7.5751    0.0419    1.0075 H   0  0  0  0  0  0  0  0  0  0  0  0
   -8.1228   -0.5019   -0.0087 H   0  0  0  0  0  0  0  0  0  0  0  0
   -7.2119   -2.8923   -0.6311 H   0  0  0  0  0  0  0  0  0  0  0  0
  1  3  2  0  0  0  0
  1  4  2  0  0  0  0
  1  6  1  0  0  0  0
  1 19  1  0  0  0  0
  2 20  1  0  0  0  0
  2 28  1  0  0  0  0
  5 16  2  0  0  0  0
  6 11  1  0  0  0  0
  6 12  1  0  0  0  0
  7 13  1  0  0  0  0
  7 14  1  0  0  0  0
  7 16  1  0  0  0  0
  8 10  1  0  0  0  0
  8 11  1  0  0  0  0
  8 13  1  0  0  0  0
  8 29  1  0  0  0  0
  9 10  1  0  0  0  0
  9 12  1  0  0  0  0
  9 14  1  0  0  0  0
  9 30  1  0  0  0  0
 10 31  1  0  0  0  0
 10 32  1  0  0  0  0
 11 33  1  0  0  0  0
 11 34  1  0  0  0  0
 12 35  1  0  0  0  0
 12 36  1  0  0  0  0
 13 37  1  0  0  0  0
 13 38  1  0  0  0  0
 14 15  2  0  0  0  0
 15 18  1  0  0  0  0
 15 39  1  0  0  0  0
 16 17  1  0  0  0  0
 17 18  2  0  0  0  0
 17 20  1  0  0  0  0
 18 40  1  0  0  0  0
 19 21  2  0  0  0  0
 19 22  1  0  0  0  0
 20 23  2  0  0  0  0
 21 24  1  0  0  0  0
 21 41  1  0  0  0  0
 22 25  2  0  0  0  0
 22 42  1  0  0  0  0
 23 27  1  0  0  0  0
 23 43  1  0  0  0  0
 24 26  2  0  0  0  0
 24 44  1  0  0  0  0
 25 26  1  0  0  0  0
 25 45  1  0  0  0  0
 26 46  1  0  0  0  0
 27 28  2  0  0  0  0
 27 47  1  0  0  0  0
 28 48  1  0  0  0  0
M  END
> <PUBCHEM_COMPOUND_CID>
7143793

> <PUBCHEM_CONFORMER_RMSD>
0.8

> <PUBCHEM_CONFORMER_DIVERSEORDER>
1
7
10
6
4
3
9
11
2
8
5

> <PUBCHEM_MMFF94_PARTIAL_CHARGES>
36
1 1.45
11 0.36
12 0.36
13 0.3
14 -0.03
15 -0.15
16 0.62
17 0.06
18 -0.15
19 -0.01
2 -0.08
20 -0.01
21 -0.15
22 -0.15
23 -0.15
24 -0.15
25 -0.15
26 -0.15
27 -0.15
28 -0.11
3 -0.65
39 0.15
4 -0.65
40 0.15
41 0.15
42 0.15
43 0.15
44 0.15
45 0.15
46 0.15
47 0.15
48 0.15
5 -0.57
6 -0.85
7 -0.47
9 0.14

> <PUBCHEM_EFFECTIVE_ROTOR_COUNT>
4

> <PUBCHEM_PHARMACOPHORE_FEATURES>
8
1 3 acceptor
1 4 acceptor
1 5 acceptor
5 2 20 23 27 28 rings
6 19 21 22 24 25 26 rings
6 6 8 9 10 11 12 rings
6 7 14 15 16 17 18 rings
6 7 8 9 10 13 14 rings

> <PUBCHEM_HEAVY_ATOM_COUNT>
28

> <PUBCHEM_ATOM_DEF_STEREO_COUNT>
2

> <PUBCHEM_ATOM_UDEF_STEREO_COUNT>
0

> <PUBCHEM_BOND_DEF_STEREO_COUNT>
0

> <PUBCHEM_BOND_UDEF_STEREO_COUNT>
0

> <PUBCHEM_ISOTOPIC_ATOM_COUNT>
0

> <PUBCHEM_COMPONENT_COUNT>
1

> <PUBCHEM_CACTVS_TAUTO_COUNT>
1

> <PUBCHEM_CONFORMER_ID>
006D017100000001

> <PUBCHEM_MMFF94_ENERGY>
61.7255

> <PUBCHEM_FEATURE_SELFOVERLAP>
42.2

> <PUBCHEM_SHAPE_FINGERPRINT>
10 15 14908181971090753353
10165383 225 11743839170455103952
10447042 23 17748829605414423010
10930396 42 17751616940996571928
11135609 99 17916583292681182911
11796584 16 18130796659607089591
11828532 37 14490775497742100259
11963148 33 18409158909814835050
1200032 147 11964212014690012383
12107698 1 17894628162761166581
12516196 113 18273496762478553520
12596602 18 16559038159828554707
12892183 10 16773524256597527929
13540713 4 16445333423805750057
13911987 19 18042992976505929556
14068700 675 18412543232279117737
14251751 18 18412261753313238671
14341114 176 15267344011546201786
14341114 328 15482664663432125034
1454969 45 18336553789455889668
14840074 17 17775562035667478156
14955137 171 17489593376461600820
15183329 4 14562525163508884666
15510800 12 18270691986370183599
15728490 51 17489582415657718870
15927050 60 17553477390369960628
17349148 13 16951421931611640884
17492 89 17899970544154154842
1813 80 18342749481053573516
18222031 100 18410864248227406960
18335252 114 12468627361772318419
18393751 57 17773857827816579746
19784866 240 18343589555540134473
19958102 18 15502652650943301250
20028762 73 18272936050493861174
20465049 17 11963395145737197151
20567600 247 18334009514969834259
20567600 70 18342458187749891163
21637258 2 18411414034000583885
21756936 100 7925622263980049401
22079108 93 17203603783975532954
22956985 138 17908425758660468622
23522609 53 18043841756096134661
23559900 14 16805609234657799805
24893992 56 9223227452062180135
2747138 104 17846500348627886514
2838139 119 7925631081563784099
3004659 81 18412265068948733555
3009799 131 16660363692783205992
329604 57 17894915118137135100
339767 52 18131071537044749351
3737641 26 17417537887047605294
392239 28 16773216471052322378
4058900 60 9943538443950713229
4066623 53 16226044517720595581
4098825 35 17603581920346179693
4325135 7 18411140234267633230
437795 51 17632010974872543752
439807 62 17821729464262021639
46194498 28 17822014250262502621
463206 1 18338236097833587475
5104073 3 17273980130076915354
5283173 99 16950557728051650044
59682541 35 18060131072985864162
59755656 520 10087635984000804761
613672 6 18115042838954417226
6669772 16 17678176203858281944
9862260 156 14418124124153896320

> <PUBCHEM_SHAPE_MULTIPOLES>
556.36
16.08
2.32
1.65
6.31
0.29
-0.07
-10.35
-0.66
0.33
0.43
-0.78
0.2
-0.38

> <PUBCHEM_SHAPE_SELFOVERLAP>
1200.413

> <PUBCHEM_SHAPE_VOLUME>
304.9

> <PUBCHEM_COORDINATE_TYPE>
2
5
10

$$$$
