75536405
  -OEChem-12032416303D

 63 66  0     1  0  0  0  0  0999 V2000
    2.9690   -1.2480    0.8735 O   0  0  0  0  0  0  0  0  0  0  0  0
    5.7231   -1.4272    1.9085 O   0  0  0  0  0  0  0  0  0  0  0  0
   -1.0036   -1.6467   -1.9706 O   0  0  0  0  0  0  0  0  0  0  0  0
   -6.5621   -0.5522    0.7706 O   0  0  0  0  0  0  0  0  0  0  0  0
    1.8424    1.3616    1.0720 N   0  0  0  0  0  0  0  0  0  0  0  0
   -0.7477    4.1766   -0.7805 N   0  0  0  0  0  0  0  0  0  0  0  0
    0.3277   -1.9889   -2.1749 N   0  0  0  0  0  0  0  0  0  0  0  0
    3.7638   -0.1463    1.3316 C   0  0  1  0  0  0  0  0  0  0  0  0
    1.3553    2.6361    0.5492 C   0  0  0  0  0  0  0  0  0  0  0  0
    5.2546   -0.3800    1.0547 C   0  0  2  0  0  0  0  0  0  0  0  0
    3.2517    1.1755    0.7633 C   0  0  0  0  0  0  0  0  0  0  0  0
    3.1355   -1.5860   -0.5056 C   0  0  1  0  0  0  0  0  0  0  0  0
    5.5185   -0.8026   -0.3880 C   0  0  0  0  0  0  0  0  0  0  0  0
    4.5915   -1.9421   -0.8012 C   0  0  0  0  0  0  0  0  0  0  0  0
    1.1111    2.5520   -0.9604 C   0  0  0  0  0  0  0  0  0  0  0  0
    0.0650    3.0440    1.2649 C   0  0  0  0  0  0  0  0  0  0  0  0
    0.4973    3.8507   -1.4899 C   0  0  0  0  0  0  0  0  0  0  0  0
   -0.5145    4.3268    0.6627 C   0  0  0  0  0  0  0  0  0  0  0  0
    2.2174   -2.7656   -0.8024 C   0  0  0  0  0  0  0  0  0  0  0  0
   -1.3474    5.3917   -1.3311 C   0  0  0  0  0  0  0  0  0  0  0  0
    0.7860   -2.3303   -0.9672 C   0  0  0  0  0  0  0  0  0  0  0  0
   -0.2010   -2.2242    0.0278 C   0  0  0  0  0  0  0  0  0  0  0  0
   -1.3065   -1.7908   -0.6551 C   0  0  0  0  0  0  0  0  0  0  0  0
   -2.6563   -1.4739   -0.2892 C   0  0  0  0  0  0  0  0  0  0  0  0
   -3.0653   -1.5933    1.0391 C   0  0  0  0  0  0  0  0  0  0  0  0
   -3.5603   -1.0455   -1.2613 C   0  0  0  0  0  0  0  0  0  0  0  0
   -4.3781   -1.2846    1.3952 C   0  0  0  0  0  0  0  0  0  0  0  0
   -4.8731   -0.7368   -0.9053 C   0  0  0  0  0  0  0  0  0  0  0  0
   -5.2820   -0.8563    0.4229 C   0  0  0  0  0  0  0  0  0  0  0  0
   -6.9121   -0.6936    2.1468 C   0  0  0  0  0  0  0  0  0  0  0  0
    3.6249   -0.1281    2.4207 H   0  0  0  0  0  0  0  0  0  0  0  0
    2.0933    3.4258    0.7491 H   0  0  0  0  0  0  0  0  0  0  0  0
    5.8339    0.5163    1.3024 H   0  0  0  0  0  0  0  0  0  0  0  0
    3.8425    1.9927    1.1963 H   0  0  0  0  0  0  0  0  0  0  0  0
    3.4135    1.2014   -0.3172 H   0  0  0  0  0  0  0  0  0  0  0  0
    2.8396   -0.7337   -1.1290 H   0  0  0  0  0  0  0  0  0  0  0  0
    6.5582   -1.1284   -0.5097 H   0  0  0  0  0  0  0  0  0  0  0  0
    5.3653    0.0506   -1.0591 H   0  0  0  0  0  0  0  0  0  0  0  0
    4.7265   -2.1620   -1.8663 H   0  0  0  0  0  0  0  0  0  0  0  0
    4.8723   -2.8449   -0.2438 H   0  0  0  0  0  0  0  0  0  0  0  0
    0.4388    1.7135   -1.1887 H   0  0  0  0  0  0  0  0  0  0  0  0
    2.0430    2.3684   -1.5060 H   0  0  0  0  0  0  0  0  0  0  0  0
    0.2561    3.2018    2.3336 H   0  0  0  0  0  0  0  0  0  0  0  0
   -0.6807    2.2406    1.1902 H   0  0  0  0  0  0  0  0  0  0  0  0
    1.7197    1.3355    2.0842 H   0  0  0  0  0  0  0  0  0  0  0  0
    0.2902    3.7184   -2.5589 H   0  0  0  0  0  0  0  0  0  0  0  0
    1.2259    4.6671   -1.3976 H   0  0  0  0  0  0  0  0  0  0  0  0
    0.1626    5.1674    0.8645 H   0  0  0  0  0  0  0  0  0  0  0  0
   -1.4623    4.5432    1.1705 H   0  0  0  0  0  0  0  0  0  0  0  0
    2.2702   -3.5083    0.0039 H   0  0  0  0  0  0  0  0  0  0  0  0
    2.5294   -3.2692   -1.7264 H   0  0  0  0  0  0  0  0  0  0  0  0
    6.6777   -1.5282    1.7530 H   0  0  0  0  0  0  0  0  0  0  0  0
   -1.5686    5.2629   -2.3965 H   0  0  0  0  0  0  0  0  0  0  0  0
   -0.6943    6.2645   -1.2172 H   0  0  0  0  0  0  0  0  0  0  0  0
   -2.3014    5.6077   -0.8374 H   0  0  0  0  0  0  0  0  0  0  0  0
   -0.1101   -2.4341    1.0835 H   0  0  0  0  0  0  0  0  0  0  0  0
   -2.3831   -1.9241    1.8181 H   0  0  0  0  0  0  0  0  0  0  0  0
   -3.2797   -0.9393   -2.3061 H   0  0  0  0  0  0  0  0  0  0  0  0
   -4.6289   -1.3990    2.4442 H   0  0  0  0  0  0  0  0  0  0  0  0
   -5.5730   -0.4030   -1.6666 H   0  0  0  0  0  0  0  0  0  0  0  0
   -7.9652   -0.4097    2.2432 H   0  0  0  0  0  0  0  0  0  0  0  0
   -6.3373   -0.0097    2.7805 H   0  0  0  0  0  0  0  0  0  0  0  0
   -6.8301   -1.7344    2.4779 H   0  0  0  0  0  0  0  0  0  0  0  0
  1  8  1  0  0  0  0
  1 12  1  0  0  0  0
  2 10  1  0  0  0  0
  2 52  1  0  0  0  0
  3  7  1  0  0  0  0
  3 23  1  0  0  0  0
  4 29  1  0  0  0  0
  4 30  1  0  0  0  0
  5  9  1  0  0  0  0
  5 11  1  0  0  0  0
  5 45  1  0  0  0  0
  6 17  1  0  0  0  0
  6 18  1  0  0  0  0
  6 20  1  0  0  0  0
  7 21  2  0  0  0  0
  8 10  1  0  0  0  0
  8 11  1  0  0  0  0
  8 31  1  0  0  0  0
  9 15  1  0  0  0  0
  9 16  1  0  0  0  0
  9 32  1  0  0  0  0
 10 13  1  0  0  0  0
 10 33  1  0  0  0  0
 11 34  1  0  0  0  0
 11 35  1  0  0  0  0
 12 14  1  0  0  0  0
 12 19  1  0  0  0  0
 12 36  1  0  0  0  0
 13 14  1  0  0  0  0
 13 37  1  0  0  0  0
 13 38  1  0  0  0  0
 14 39  1  0  0  0  0
 14 40  1  0  0  0  0
 15 17  1  0  0  0  0
 15 41  1  0  0  0  0
 15 42  1  0  0  0  0
 16 18  1  0  0  0  0
 16 43  1  0  0  0  0
 16 44  1  0  0  0  0
 17 46  1  0  0  0  0
 17 47  1  0  0  0  0
 18 48  1  0  0  0  0
 18 49  1  0  0  0  0
 19 21  1  0  0  0  0
 19 50  1  0  0  0  0
 19 51  1  0  0  0  0
 20 53  1  0  0  0  0
 20 54  1  0  0  0  0
 20 55  1  0  0  0  0
 21 22  1  0  0  0  0
 22 23  2  0  0  0  0
 22 56  1  0  0  0  0
 23 24  1  0  0  0  0
 24 25  2  0  0  0  0
 24 26  1  0  0  0  0
 25 27  1  0  0  0  0
 25 57  1  0  0  0  0
 26 28  2  0  0  0  0
 26 58  1  0  0  0  0
 27 29  2  0  0  0  0
 27 59  1  0  0  0  0
 28 29  1  0  0  0  0
 28 60  1  0  0  0  0
 30 61  1  0  0  0  0
 30 62  1  0  0  0  0
 30 63  1  0  0  0  0
M  END
> <PUBCHEM_COMPOUND_CID>
75536405

> <PUBCHEM_CONFORMER_RMSD>
1

> <PUBCHEM_CONFORMER_DIVERSEORDER>
1
75
47
63
136
10
45
22
43
26
107
76
133
105
100
116
39
16
90
114
59
77
62
113
65
99
29
126
128
121
109
123
54
44
66
81
115
78
60
122
89
143
38
24
91
95
127
55
97
110
13
104
137
36
93
131
28
138
96
112
15
88
103
52
139
141
106
58
3
84
25
102
12
129
132
33
51
92
85
48
130
50
6
101
70
118
120
82
74
32
125
53
5
11
80
21
111
108
2
86
87
19
67
46
145
23
71
119
79
94
37
61
69
64
117
30
98
35
56
42
83
40
9
27
134
140
144
68
142
57
14
8
34
20
124
17
73
31
135
41
72
49
4
7
18

> <PUBCHEM_MMFF94_PARTIAL_CHARGES>
33
1 -0.56
10 0.28
11 0.27
12 0.28
17 0.27
18 0.27
19 0.18
2 -0.68
20 0.27
21 0.11
22 -0.15
23 0.09
24 0.05
25 -0.15
26 -0.15
27 -0.15
28 -0.15
29 0.08
3 -0.02
30 0.28
4 -0.36
45 0.36
5 -0.9
52 0.4
56 0.15
57 0.15
58 0.15
59 0.15
6 -0.81
60 0.15
7 -0.41
8 0.28
9 0.27

> <PUBCHEM_EFFECTIVE_ROTOR_COUNT>
9.4

> <PUBCHEM_PHARMACOPHORE_FEATURES>
12
1 1 acceptor
1 2 acceptor
1 2 donor
1 4 acceptor
1 5 cation
1 5 donor
1 6 cation
1 7 acceptor
5 3 7 21 22 23 rings
6 1 8 10 12 13 14 rings
6 24 25 26 27 28 29 rings
6 6 9 15 16 17 18 rings

> <PUBCHEM_HEAVY_ATOM_COUNT>
30

> <PUBCHEM_ATOM_DEF_STEREO_COUNT>
3

> <PUBCHEM_ATOM_UDEF_STEREO_COUNT>
0

> <PUBCHEM_BOND_DEF_STEREO_COUNT>
0

> <PUBCHEM_BOND_UDEF_STEREO_COUNT>
0

> <PUBCHEM_ISOTOPIC_ATOM_COUNT>
0

> <PUBCHEM_COMPONENT_COUNT>
1

> <PUBCHEM_CACTVS_TAUTO_COUNT>
1

> <PUBCHEM_CONFORMER_ID>
0480981500000001

> <PUBCHEM_MMFF94_ENERGY>
56.4381

> <PUBCHEM_FEATURE_SELFOVERLAP>
60.899

> <PUBCHEM_SHAPE_FINGERPRINT>
10688039 33 18336266756253479494
11421498 54 18040991787844568762
11646440 116 18409732854493312659
12156800 1 17983046390983692276
12422481 6 18129671794127794193
12633257 1 18335418019092501083
12788726 201 18334574621233909642
13075007 39 18189063156021964587
13561361 72 18195247715448928184
14363568 33 18192436487571017020
150020 26 18194683894070794129
151778 21 17903363950379893869
15276724 80 18342735235633054612
15475509 84 18047464526465708866
15840311 113 17346329163658234723
18785283 64 18192723460654089755
20739085 24 18339642373099621720
21298829 104 17561082531261587698
21304253 335 17489872656414981507
21360442 67 17325765877815509429
21641784 216 18263664904424280364
21860390 5 18339365287268413615
474 4 18130786802003731887
513202 73 18266179422929379530
5283268 108 18411138022148414214
550186 83 18188750830152683832
59520757 100 17828199891868691869
6086070 43 17972285608438411311

> <PUBCHEM_SHAPE_MULTIPOLES>
578.97
12.63
5.81
1.85
9.58
11.46
-0.04
-9.8
-7.01
-0.26
2.38
0.54
-0.06
0.8

> <PUBCHEM_SHAPE_SELFOVERLAP>
1217.22

> <PUBCHEM_SHAPE_VOLUME>
327

> <PUBCHEM_COORDINATE_TYPE>
2
5
10

$$$$
