11941431
  -OEChem-12032416153D

 55 59  0     1  0  0  0  0  0999 V2000
   -2.1947   -3.8602    1.6315 O   0  0  0  0  0  0  0  0  0  0  0  0
    0.7798   -2.2525   -2.4092 O   0  0  0  0  0  0  0  0  0  0  0  0
   -4.7853   -0.2197    1.2165 O   0  0  0  0  0  0  0  0  0  0  0  0
   -5.6858    2.0703    0.1249 O   0  0  0  0  0  0  0  0  0  0  0  0
    7.5760    1.3836    0.9069 O   0  0  0  0  0  0  0  0  0  0  0  0
    7.2514    3.0178   -0.8341 O   0  0  0  0  0  0  0  0  0  0  0  0
   -7.2261    5.2874   -0.2416 O   0  0  0  0  0  0  0  0  0  0  0  0
   -7.0445    3.9301    1.5785 O   0  0  0  0  0  0  0  0  0  0  0  0
   -1.1117   -2.3828   -1.1075 N   0  0  0  0  0  0  0  0  0  0  0  0
   -3.8765   -0.9376   -0.8007 N   0  0  0  0  0  0  0  0  0  0  0  0
   -0.1413   -2.8747    1.6260 N   0  0  0  0  0  0  0  0  0  0  0  0
   -3.3384   -2.1946   -0.3330 C   0  0  2  0  0  0  0  0  0  0  0  0
   -1.8687   -2.0415    0.0825 C   0  0  1  0  0  0  0  0  0  0  0  0
   -3.2842   -3.2271   -1.4608 C   0  0  0  0  0  0  0  0  0  0  0  0
   -1.9672   -2.9193   -2.1560 C   0  0  0  0  0  0  0  0  0  0  0  0
   -1.4250   -3.0292    1.1457 C   0  0  0  0  0  0  0  0  0  0  0  0
    0.2182   -2.0931   -1.3255 C   0  0  0  0  0  0  0  0  0  0  0  0
    1.0201   -1.5842   -0.1825 C   0  0  0  0  0  0  0  0  0  0  0  0
    0.8835   -2.0325    1.1423 C   0  0  0  0  0  0  0  0  0  0  0  0
   -4.5579   -0.0537    0.0211 C   0  0  0  0  0  0  0  0  0  0  0  0
    2.0833   -0.7252   -0.5155 C   0  0  0  0  0  0  0  0  0  0  0  0
    1.8560   -1.6609    2.0872 C   0  0  0  0  0  0  0  0  0  0  0  0
    3.0112   -0.3292    0.4465 C   0  0  0  0  0  0  0  0  0  0  0  0
   -5.0065    1.1792   -0.7340 C   0  0  0  0  0  0  0  0  0  0  0  0
    2.9050   -0.8075    1.7461 C   0  0  0  0  0  0  0  0  0  0  0  0
    4.0956    0.5586    0.0871 C   0  0  0  0  0  0  0  0  0  0  0  0
    5.3209    0.4616    0.7515 C   0  0  0  0  0  0  0  0  0  0  0  0
    3.9067    1.5125   -0.9288 C   0  0  0  0  0  0  0  0  0  0  0  0
    6.3247    1.3300    0.3744 C   0  0  0  0  0  0  0  0  0  0  0  0
    6.1393    2.2632   -0.6197 C   0  0  0  0  0  0  0  0  0  0  0  0
    4.9400    2.3798   -1.2915 C   0  0  0  0  0  0  0  0  0  0  0  0
   -6.1201    3.2415   -0.5604 C   0  0  0  0  0  0  0  0  0  0  0  0
    8.1577    2.4548    0.1361 C   0  0  0  0  0  0  0  0  0  0  0  0
   -6.8355    4.1550    0.3958 C   0  0  0  0  0  0  0  0  0  0  0  0
   -3.9755   -2.5445    0.4861 H   0  0  0  0  0  0  0  0  0  0  0  0
   -1.6345   -1.0233    0.4153 H   0  0  0  0  0  0  0  0  0  0  0  0
   -3.2425   -4.2366   -1.0339 H   0  0  0  0  0  0  0  0  0  0  0  0
   -4.1361   -3.1828   -2.1460 H   0  0  0  0  0  0  0  0  0  0  0  0
   -2.0846   -2.1467   -2.9241 H   0  0  0  0  0  0  0  0  0  0  0  0
   -1.5064   -3.7998   -2.6137 H   0  0  0  0  0  0  0  0  0  0  0  0
   -3.7018   -0.6717   -1.7659 H   0  0  0  0  0  0  0  0  0  0  0  0
    0.0641   -3.3730    2.4889 H   0  0  0  0  0  0  0  0  0  0  0  0
    2.1923   -0.4119   -1.5518 H   0  0  0  0  0  0  0  0  0  0  0  0
    1.7853   -2.0094    3.1161 H   0  0  0  0  0  0  0  0  0  0  0  0
    3.5924   -0.5196    2.5365 H   0  0  0  0  0  0  0  0  0  0  0  0
   -5.6708    0.8644   -1.5472 H   0  0  0  0  0  0  0  0  0  0  0  0
   -4.1209    1.6692   -1.1553 H   0  0  0  0  0  0  0  0  0  0  0  0
    5.5257   -0.2741    1.5217 H   0  0  0  0  0  0  0  0  0  0  0  0
    2.9552    1.6327   -1.4405 H   0  0  0  0  0  0  0  0  0  0  0  0
    4.7962    3.1215   -2.0690 H   0  0  0  0  0  0  0  0  0  0  0  0
   -6.8129    2.9614   -1.3609 H   0  0  0  0  0  0  0  0  0  0  0  0
   -5.2507    3.7700   -0.9655 H   0  0  0  0  0  0  0  0  0  0  0  0
    9.0396    2.0705   -0.3891 H   0  0  0  0  0  0  0  0  0  0  0  0
    8.4748    3.2486    0.8221 H   0  0  0  0  0  0  0  0  0  0  0  0
   -7.6960    5.9029    0.3607 H   0  0  0  0  0  0  0  0  0  0  0  0
  1 16  2  0  0  0  0
  2 17  2  0  0  0  0
  3 20  2  0  0  0  0
  4 24  1  0  0  0  0
  4 32  1  0  0  0  0
  5 29  1  0  0  0  0
  5 33  1  0  0  0  0
  6 30  1  0  0  0  0
  6 33  1  0  0  0  0
  7 34  1  0  0  0  0
  7 55  1  0  0  0  0
  8 34  2  0  0  0  0
  9 13  1  0  0  0  0
  9 15  1  0  0  0  0
  9 17  1  0  0  0  0
 10 12  1  0  0  0  0
 10 20  1  0  0  0  0
 10 41  1  0  0  0  0
 11 16  1  0  0  0  0
 11 19  1  0  0  0  0
 11 42  1  0  0  0  0
 12 13  1  0  0  0  0
 12 14  1  0  0  0  0
 12 35  1  0  0  0  0
 13 16  1  0  0  0  0
 13 36  1  0  0  0  0
 14 15  1  0  0  0  0
 14 37  1  0  0  0  0
 14 38  1  0  0  0  0
 15 39  1  0  0  0  0
 15 40  1  0  0  0  0
 17 18  1  0  0  0  0
 18 19  2  0  0  0  0
 18 21  1  0  0  0  0
 19 22  1  0  0  0  0
 20 24  1  0  0  0  0
 21 23  2  0  0  0  0
 21 43  1  0  0  0  0
 22 25  2  0  0  0  0
 22 44  1  0  0  0  0
 23 25  1  0  0  0  0
 23 26  1  0  0  0  0
 24 46  1  0  0  0  0
 24 47  1  0  0  0  0
 25 45  1  0  0  0  0
 26 27  2  0  0  0  0
 26 28  1  0  0  0  0
 27 29  1  0  0  0  0
 27 48  1  0  0  0  0
 28 31  2  0  0  0  0
 28 49  1  0  0  0  0
 29 30  2  0  0  0  0
 30 31  1  0  0  0  0
 31 50  1  0  0  0  0
 32 34  1  0  0  0  0
 32 51  1  0  0  0  0
 32 52  1  0  0  0  0
 33 53  1  0  0  0  0
 33 54  1  0  0  0  0
M  END
> <PUBCHEM_COMPOUND_CID>
11941431

> <PUBCHEM_CONFORMER_RMSD>
1

> <PUBCHEM_CONFORMER_DIVERSEORDER>
1
18
19
23
30
2
27
36
8
32
34
17
6
13
3
21
4
33
16
29
5
26
7
15
12
11
14
10
25
31
9
20
22
35
37
38
28
24

> <PUBCHEM_MMFF94_PARTIAL_CHARGES>
40
1 -0.57
10 -0.73
11 -0.55
12 0.3
13 0.36
15 0.3
16 0.57
17 0.54
18 0.09
19 0.12
2 -0.57
20 0.57
21 -0.15
22 -0.15
24 0.34
25 -0.15
27 -0.15
28 -0.15
29 0.08
3 -0.57
30 0.08
31 -0.15
32 0.34
33 0.56
34 0.66
4 -0.56
41 0.37
42 0.37
43 0.15
44 0.15
45 0.15
48 0.15
49 0.15
5 -0.36
50 0.15
55 0.5
6 -0.36
7 -0.65
8 -0.57
9 -0.66

> <PUBCHEM_EFFECTIVE_ROTOR_COUNT>
8.4

> <PUBCHEM_PHARMACOPHORE_FEATURES>
16
1 1 acceptor
1 10 donor
1 11 donor
1 2 acceptor
1 3 acceptor
1 4 acceptor
1 5 acceptor
1 6 acceptor
1 7 acceptor
1 8 acceptor
3 7 8 34 anion
5 5 6 29 30 33 rings
5 9 12 13 14 15 rings
6 18 19 21 22 23 25 rings
6 26 27 28 29 30 31 rings
7 9 11 13 16 17 18 19 rings

> <PUBCHEM_HEAVY_ATOM_COUNT>
34

> <PUBCHEM_ATOM_DEF_STEREO_COUNT>
2

> <PUBCHEM_ATOM_UDEF_STEREO_COUNT>
0

> <PUBCHEM_BOND_DEF_STEREO_COUNT>
0

> <PUBCHEM_BOND_UDEF_STEREO_COUNT>
0

> <PUBCHEM_ISOTOPIC_ATOM_COUNT>
0

> <PUBCHEM_COMPONENT_COUNT>
1

> <PUBCHEM_CACTVS_TAUTO_COUNT>
6

> <PUBCHEM_CONFORMER_ID>
00B6363700000001

> <PUBCHEM_MMFF94_ENERGY>
106.51

> <PUBCHEM_FEATURE_SELFOVERLAP>
81.486

> <PUBCHEM_SHAPE_FINGERPRINT>
10165383 225 17202779227565086759
105312 117 17703515505349650254
10533779 1 18339068294982025193
10917259 128 18340188783641064800
10917259 69 18408324355388734700
11135609 201 18409452458581554625
11505856 67 18338507634730813471
11578080 2 17988939876398660823
11963148 33 10951234206942078612
12013929 29 18188495808682012988
12104220 4 18187660058757111389
12975358 362 18121237393847315601
131258 38 8788018716205901825
13726171 33 18341901753900103569
14026016 13 18339928109243936697
14251764 75 18337392618017754609
14765038 42 18260547818301775365
15064981 113 17418097564219693844
15183329 4 16772969145846086854
15198563 99 17771603906289375783
15439362 3 18341333306125357462
155225 6 18267022744364386409
15803439 3 16271920498350404037
16067689 134 18261121781058558276
16992727 255 18411982464285517208
18603816 31 9655308064005259439
19053607 189 18128243507423620617
19304671 126 17986681376441001909
19309040 13 18201433632702340637
19438510 23 18408324376119240337
21223535 225 18267861856298264132
21756936 100 18263077876256891218
21774942 28 18410290350803586456
21796203 349 16591092110849915538
22033318 11 18040990709945225960
22122407 14 18044099171002928696
23522609 53 17241622791820326508
2748736 6 18340478955731194797
2838139 119 18266739267636607128
392239 28 16806434985296995526
393628 194 18410571778204036733
397830 11 8286208202485565374
4112364 45 18116148858227422713
42767 28 14117500031638866861
44802255 64 17702950382606767350
57527358 35 18335698296375152091
57724786 102 18265044731218960183
5951187 136 18050854317156783207
6058803 2 18192966311006823339
6201320 215 18272366495291961496
636775 72 18266174127340406320
6376802 137 16955362843015813675
7970288 3 10015282643099816145
9849439 229 18263368006362200063
9896288 288 18262523722544562179

> <PUBCHEM_SHAPE_MULTIPOLES>
637.81
20.73
6.07
1.79
7.94
5.21
-0.05
37.64
1.13
-13.16
0.07
-0.21
-1.46
-2.84

> <PUBCHEM_SHAPE_SELFOVERLAP>
1408.599

> <PUBCHEM_SHAPE_VOLUME>
338.9

> <PUBCHEM_COORDINATE_TYPE>
2
5
10

$$$$
