11885096
  -OEChem-12032416313D

 81 84  0     1  0  0  0  0  0999 V2000
   -0.3596    3.1540    0.6519 S   0  0  0  0  0  0  0  0  0  0  0  0
   -7.3914   -0.0367   -0.7623 O   0  0  0  0  0  0  0  0  0  0  0  0
   -7.2871    1.4219    1.1367 O   0  0  0  0  0  0  0  0  0  0  0  0
    0.5818   -1.2176   -1.8596 O   0  0  0  0  0  0  0  0  0  0  0  0
    3.4425    0.6656   -0.3841 O   0  0  0  0  0  0  0  0  0  0  0  0
    0.4923    0.8428   -0.1389 N   0  0  0  0  0  0  0  0  0  0  0  0
    1.5322   -2.3826   -0.0884 N   0  0  0  0  0  0  0  0  0  0  0  0
    2.1612    2.5274    0.2935 N   0  0  0  0  0  0  0  0  0  0  0  0
   -3.1376   -0.4346    0.1068 C   0  0  2  0  0  0  0  0  0  0  0  0
   -3.7471    0.9930   -0.2484 C   0  0  1  0  0  0  0  0  0  0  0  0
   -5.3165    1.1375   -0.1835 C   0  0  1  0  0  0  0  0  0  0  0  0
   -1.6357   -0.4785   -0.4374 C   0  0  1  0  0  0  0  0  0  0  0  0
   -3.9521   -1.5378   -0.6172 C   0  0  0  0  0  0  0  0  0  0  0  0
   -5.9726   -0.0687   -0.9136 C   0  0  1  0  0  0  0  0  0  0  0  0
   -2.9817    2.1356    0.4805 C   0  0  0  0  0  0  0  0  0  0  0  0
   -5.4575   -1.4184   -0.4266 C   0  0  0  0  0  0  0  0  0  0  0  0
   -3.1432   -0.7294    1.6270 C   0  0  0  0  0  0  0  0  0  0  0  0
   -0.8865    0.7743   -0.0623 C   0  0  0  0  0  0  0  0  0  0  0  0
   -5.8870    1.2941    1.2434 C   0  0  0  0  0  0  0  0  0  0  0  0
   -5.7390    2.4251   -0.9461 C   0  0  0  0  0  0  0  0  0  0  0  0
   -1.5108    1.9412    0.3291 C   0  0  0  0  0  0  0  0  0  0  0  0
   -0.8526   -1.7393   -0.0475 C   0  0  0  0  0  0  0  0  0  0  0  0
    0.4806   -1.7515   -0.7519 C   0  0  0  0  0  0  0  0  0  0  0  0
    0.8806    2.0469    0.2216 C   0  0  0  0  0  0  0  0  0  0  0  0
    2.8666   -2.4023   -0.6897 C   0  0  0  0  0  0  0  0  0  0  0  0
    1.4427   -3.0255    1.2278 C   0  0  0  0  0  0  0  0  0  0  0  0
    3.3947   -3.8309   -0.7974 C   0  0  0  0  0  0  0  0  0  0  0  0
    1.9430   -4.4676    1.1614 C   0  0  0  0  0  0  0  0  0  0  0  0
    3.3566   -4.5413    0.5641 C   0  0  0  0  0  0  0  0  0  0  0  0
    3.8165   -5.9912    0.4336 C   0  0  0  0  0  0  0  0  0  0  0  0
    3.3461    1.8281   -0.0061 C   0  0  0  0  0  0  0  0  0  0  0  0
    4.5709    2.7110    0.1958 C   0  0  0  0  0  0  0  0  0  0  0  0
    5.8776    1.9863   -0.1197 C   0  0  0  0  0  0  0  0  0  0  0  0
    7.0830    2.9106    0.0559 C   0  0  0  0  0  0  0  0  0  0  0  0
    8.3930    2.1759   -0.2271 C   0  0  0  0  0  0  0  0  0  0  0  0
    9.5959    3.0825   -0.0211 C   0  0  0  0  0  0  0  0  0  0  0  0
   -3.5113    1.1220   -1.3192 H   0  0  0  0  0  0  0  0  0  0  0  0
   -1.7097   -0.4497   -1.5354 H   0  0  0  0  0  0  0  0  0  0  0  0
   -3.7413   -1.5022   -1.6942 H   0  0  0  0  0  0  0  0  0  0  0  0
   -3.6393   -2.5324   -0.2784 H   0  0  0  0  0  0  0  0  0  0  0  0
   -5.7664   -0.0010   -1.9904 H   0  0  0  0  0  0  0  0  0  0  0  0
   -3.2616    3.1068    0.0592 H   0  0  0  0  0  0  0  0  0  0  0  0
   -3.2301    2.1533    1.5469 H   0  0  0  0  0  0  0  0  0  0  0  0
   -5.7397   -1.5877    0.6185 H   0  0  0  0  0  0  0  0  0  0  0  0
   -5.9587   -2.2175   -0.9879 H   0  0  0  0  0  0  0  0  0  0  0  0
   -2.5309   -0.0228    2.1943 H   0  0  0  0  0  0  0  0  0  0  0  0
   -4.1407   -0.7208    2.0591 H   0  0  0  0  0  0  0  0  0  0  0  0
   -2.7559   -1.7326    1.8373 H   0  0  0  0  0  0  0  0  0  0  0  0
   -5.4915    2.1718    1.7641 H   0  0  0  0  0  0  0  0  0  0  0  0
   -5.7083    0.4248    1.8696 H   0  0  0  0  0  0  0  0  0  0  0  0
   -6.8207    2.5133   -1.0855 H   0  0  0  0  0  0  0  0  0  0  0  0
   -5.2932    2.4480   -1.9475 H   0  0  0  0  0  0  0  0  0  0  0  0
   -5.4145    3.3300   -0.4215 H   0  0  0  0  0  0  0  0  0  0  0  0
   -1.3820   -2.6592   -0.3092 H   0  0  0  0  0  0  0  0  0  0  0  0
   -0.7123   -1.6919    1.0318 H   0  0  0  0  0  0  0  0  0  0  0  0
   -7.7413    0.6510   -1.3523 H   0  0  0  0  0  0  0  0  0  0  0  0
   -7.4951    2.3629    1.0088 H   0  0  0  0  0  0  0  0  0  0  0  0
    3.5259   -1.8169   -0.0401 H   0  0  0  0  0  0  0  0  0  0  0  0
    2.8612   -1.9301   -1.6768 H   0  0  0  0  0  0  0  0  0  0  0  0
    2.0538   -2.4359    1.9212 H   0  0  0  0  0  0  0  0  0  0  0  0
    0.4312   -3.0577    1.6277 H   0  0  0  0  0  0  0  0  0  0  0  0
    2.2402    3.4946    0.5972 H   0  0  0  0  0  0  0  0  0  0  0  0
    4.4198   -3.8138   -1.1853 H   0  0  0  0  0  0  0  0  0  0  0  0
    2.7843   -4.3869   -1.5208 H   0  0  0  0  0  0  0  0  0  0  0  0
    1.9366   -4.9040    2.1671 H   0  0  0  0  0  0  0  0  0  0  0  0
    1.2526   -5.0603    0.5473 H   0  0  0  0  0  0  0  0  0  0  0  0
    4.0480   -4.0259    1.2442 H   0  0  0  0  0  0  0  0  0  0  0  0
    3.8149   -6.4878    1.4096 H   0  0  0  0  0  0  0  0  0  0  0  0
    3.1617   -6.5589   -0.2362 H   0  0  0  0  0  0  0  0  0  0  0  0
    4.8347   -6.0406    0.0337 H   0  0  0  0  0  0  0  0  0  0  0  0
    4.4652    3.5903   -0.4510 H   0  0  0  0  0  0  0  0  0  0  0  0
    4.5759    3.0560    1.2366 H   0  0  0  0  0  0  0  0  0  0  0  0
    5.9805    1.1130    0.5364 H   0  0  0  0  0  0  0  0  0  0  0  0
    5.8523    1.6070   -1.1489 H   0  0  0  0  0  0  0  0  0  0  0  0
    6.9897    3.7706   -0.6184 H   0  0  0  0  0  0  0  0  0  0  0  0
    7.0971    3.3031    1.0800 H   0  0  0  0  0  0  0  0  0  0  0  0
    8.4830    1.3059    0.4338 H   0  0  0  0  0  0  0  0  0  0  0  0
    8.3950    1.8021   -1.2577 H   0  0  0  0  0  0  0  0  0  0  0  0
    9.5533    3.9486   -0.6892 H   0  0  0  0  0  0  0  0  0  0  0  0
   10.5217    2.5374   -0.2301 H   0  0  0  0  0  0  0  0  0  0  0  0
    9.6413    3.4460    1.0106 H   0  0  0  0  0  0  0  0  0  0  0  0
  1 21  1  0  0  0  0
  1 24  1  0  0  0  0
  2 14  1  0  0  0  0
  2 56  1  0  0  0  0
  3 19  1  0  0  0  0
  3 57  1  0  0  0  0
  4 23  2  0  0  0  0
  5 31  2  0  0  0  0
  6 18  1  0  0  0  0
  6 24  2  0  0  0  0
  7 23  1  0  0  0  0
  7 25  1  0  0  0  0
  7 26  1  0  0  0  0
  8 24  1  0  0  0  0
  8 31  1  0  0  0  0
  8 62  1  0  0  0  0
  9 10  1  0  0  0  0
  9 12  1  0  0  0  0
  9 13  1  0  0  0  0
  9 17  1  0  0  0  0
 10 11  1  0  0  0  0
 10 15  1  0  0  0  0
 10 37  1  0  0  0  0
 11 14  1  0  0  0  0
 11 19  1  0  0  0  0
 11 20  1  0  0  0  0
 12 18  1  0  0  0  0
 12 22  1  0  0  0  0
 12 38  1  0  0  0  0
 13 16  1  0  0  0  0
 13 39  1  0  0  0  0
 13 40  1  0  0  0  0
 14 16  1  0  0  0  0
 14 41  1  0  0  0  0
 15 21  1  0  0  0  0
 15 42  1  0  0  0  0
 15 43  1  0  0  0  0
 16 44  1  0  0  0  0
 16 45  1  0  0  0  0
 17 46  1  0  0  0  0
 17 47  1  0  0  0  0
 17 48  1  0  0  0  0
 18 21  2  0  0  0  0
 19 49  1  0  0  0  0
 19 50  1  0  0  0  0
 20 51  1  0  0  0  0
 20 52  1  0  0  0  0
 20 53  1  0  0  0  0
 22 23  1  0  0  0  0
 22 54  1  0  0  0  0
 22 55  1  0  0  0  0
 25 27  1  0  0  0  0
 25 58  1  0  0  0  0
 25 59  1  0  0  0  0
 26 28  1  0  0  0  0
 26 60  1  0  0  0  0
 26 61  1  0  0  0  0
 27 29  1  0  0  0  0
 27 63  1  0  0  0  0
 27 64  1  0  0  0  0
 28 29  1  0  0  0  0
 28 65  1  0  0  0  0
 28 66  1  0  0  0  0
 29 30  1  0  0  0  0
 29 67  1  0  0  0  0
 30 68  1  0  0  0  0
 30 69  1  0  0  0  0
 30 70  1  0  0  0  0
 31 32  1  0  0  0  0
 32 33  1  0  0  0  0
 32 71  1  0  0  0  0
 32 72  1  0  0  0  0
 33 34  1  0  0  0  0
 33 73  1  0  0  0  0
 33 74  1  0  0  0  0
 34 35  1  0  0  0  0
 34 75  1  0  0  0  0
 34 76  1  0  0  0  0
 35 36  1  0  0  0  0
 35 77  1  0  0  0  0
 35 78  1  0  0  0  0
 36 79  1  0  0  0  0
 36 80  1  0  0  0  0
 36 81  1  0  0  0  0
M  END
> <PUBCHEM_COMPOUND_CID>
11885096

> <PUBCHEM_CONFORMER_RMSD>
1.2

> <PUBCHEM_CONFORMER_DIVERSEORDER>
1
12
24
11
10
20
13
17
19
16
22
5
18
23
26
8
21
14
2
9
15
4
7
25
3
27
6

> <PUBCHEM_MMFF94_PARTIAL_CHARGES>
24
1 -0.08
12 0.18
14 0.28
15 0.18
18 0.05
19 0.28
2 -0.68
21 -0.14
22 0.06
23 0.57
24 0.44
25 0.3
26 0.3
3 -0.68
31 0.57
32 0.06
4 -0.57
5 -0.57
56 0.4
57 0.4
6 -0.57
62 0.37
7 -0.66
8 -0.49

> <PUBCHEM_EFFECTIVE_ROTOR_COUNT>
12.4

> <PUBCHEM_PHARMACOPHORE_FEATURES>
13
1 2 acceptor
1 2 donor
1 3 acceptor
1 3 donor
1 36 hydrophobe
1 4 acceptor
1 5 acceptor
1 8 donor
4 32 33 34 35 hydrophobe
5 1 6 18 21 24 rings
6 7 25 26 27 28 29 rings
6 9 10 11 13 14 16 rings
6 9 10 12 15 18 21 rings

> <PUBCHEM_HEAVY_ATOM_COUNT>
36

> <PUBCHEM_ATOM_DEF_STEREO_COUNT>
5

> <PUBCHEM_ATOM_UDEF_STEREO_COUNT>
0

> <PUBCHEM_BOND_DEF_STEREO_COUNT>
0

> <PUBCHEM_BOND_UDEF_STEREO_COUNT>
0

> <PUBCHEM_ISOTOPIC_ATOM_COUNT>
0

> <PUBCHEM_COMPONENT_COUNT>
1

> <PUBCHEM_CACTVS_TAUTO_COUNT>
3

> <PUBCHEM_CONFORMER_ID>
00B55A2800000001

> <PUBCHEM_MMFF94_ENERGY>
97.1544

> <PUBCHEM_FEATURE_SELFOVERLAP>
66.116

> <PUBCHEM_SHAPE_FINGERPRINT>
10050765 1 18195245516674059957
1100329 8 17835804093296909449
11007060 377 17983014745722677064
11135926 11 18410007749685796413
11136131 41 18335415743434950810
11578080 2 17751060450087927213
11719270 70 18410287030656677816
11963148 33 18197766912270854415
12166972 35 17752499659142717815
12660671 118 18199752445386090054
12838862 33 18269540776099414964
13140716 1 17548982612953205563
13540713 5 18129383688112540193
14068700 675 18122904222760620151
14394314 77 18342179989707224720
14790565 3 18266741470581173629
15320294 125 18115286987783660624
15347591 1 18337669703827688429
15351339 4 18272093782391107744
15400415 2 18266176330611260144
15439362 3 18336262349432722881
15890870 6 18338234972915938460
15927050 60 18340766047744627814
16719943 64 18266458884035205456
20609170 92 18261383412842808165
20642791 35 18341339894367286518
20721686 56 18411143541271086402
21133410 230 17900565645758182650
21133665 82 18340207510098699740
21360443 120 18409167731924509044
22311459 1 18411418444932867425
23559900 14 18266730282528445139
24180151 40 18130793300399904480
244849 19 17896341180771560147
3383291 50 18122623023247048090
3411729 13 18412263921918126446
4017518 198 18341336703987171166
4058900 60 18334581291059618354
4073 2 18335707165360415075
5104073 3 18342747274342015555
5265222 85 18192997251760923260
5385378 56 18410580569494974449
59521270 166 18333728053469330748
59521660 218 18336261250733212021
59755656 215 18412546530513288165
6371380 46 18198339753428086296
6669772 16 18408044000390699002
9981440 41 18262806292943038114

> <PUBCHEM_SHAPE_MULTIPOLES>
706.29
19.51
6.49
1.09
16.76
9.83
-0.09
-19.79
1.19
13.88
-1.31
-0.85
0.42
-0.85

> <PUBCHEM_SHAPE_SELFOVERLAP>
1453.319

> <PUBCHEM_SHAPE_VOLUME>
408.5

> <PUBCHEM_COORDINATE_TYPE>
2
5
10

$$$$
