11912463
  -OEChem-12032416363D

 57 58  0     1  0  0  0  0  0999 V2000
    2.7434    1.8561    1.0419 S   0  0  0  0  0  0  0  0  0  0  0  0
   -7.2493   -0.5286    1.3081 S   0  0  0  0  0  0  0  0  0  0  0  0
    2.7714    1.9764    2.4834 O   0  0  0  0  0  0  0  0  0  0  0  0
    3.3172    2.8798    0.1957 O   0  0  0  0  0  0  0  0  0  0  0  0
   -2.9164   -1.7899   -0.2868 O   0  0  0  0  0  0  0  0  0  0  0  0
    5.2462   -3.3087   -0.3933 O   0  0  0  0  0  0  0  0  0  0  0  0
    1.1327    1.5578    0.5378 N   0  0  1  0  0  0  0  0  0  0  0  0
   -4.8979   -0.6861   -0.7933 N   0  0  0  0  0  0  0  0  0  0  0  0
   -0.5812    1.6570   -1.2593 C   0  0  2  0  0  0  0  0  0  0  0  0
   -1.3544    0.5160   -0.5544 C   0  0  1  0  0  0  0  0  0  0  0  0
   -1.0450    0.4744    0.9497 C   0  0  0  0  0  0  0  0  0  0  0  0
    0.9185    1.5472   -0.9402 C   0  0  0  0  0  0  0  0  0  0  0  0
    0.4567    0.4112    1.2092 C   0  0  0  0  0  0  0  0  0  0  0  0
   -1.1005    3.0623   -0.9286 C   0  0  0  0  0  0  0  0  0  0  0  0
   -2.8631    0.5751   -0.7932 C   0  0  0  0  0  0  0  0  0  0  0  0
   -0.3708    4.1172   -1.7327 C   0  0  0  0  0  0  0  0  0  0  0  0
   -3.5281   -0.7691   -0.5899 C   0  0  0  0  0  0  0  0  0  0  0  0
    3.4894    0.3146    0.6136 C   0  0  0  0  0  0  0  0  0  0  0  0
    4.0472    0.1381   -0.6526 C   0  0  0  0  0  0  0  0  0  0  0  0
    3.5220   -0.7263    1.5416 C   0  0  0  0  0  0  0  0  0  0  0  0
   -5.7849   -1.8201   -0.6687 C   0  0  0  0  0  0  0  0  0  0  0  0
    4.6379   -1.0793   -0.9909 C   0  0  0  0  0  0  0  0  0  0  0  0
    4.1127   -1.9437    1.2032 C   0  0  0  0  0  0  0  0  0  0  0  0
    4.6708   -2.1203   -0.0629 C   0  0  0  0  0  0  0  0  0  0  0  0
   -6.3343   -1.9943    0.7406 C   0  0  0  0  0  0  0  0  0  0  0  0
    5.7963   -3.4214   -1.7049 C   0  0  0  0  0  0  0  0  0  0  0  0
   -8.8367   -0.8953    0.5267 C   0  0  0  0  0  0  0  0  0  0  0  0
   -0.6980    1.5084   -2.3421 H   0  0  0  0  0  0  0  0  0  0  0  0
   -0.9723   -0.4192   -0.9896 H   0  0  0  0  0  0  0  0  0  0  0  0
   -1.4603    1.3623    1.4427 H   0  0  0  0  0  0  0  0  0  0  0  0
   -1.5195   -0.3935    1.4211 H   0  0  0  0  0  0  0  0  0  0  0  0
    1.4901    2.3368   -1.4315 H   0  0  0  0  0  0  0  0  0  0  0  0
    1.2884    0.5976   -1.3468 H   0  0  0  0  0  0  0  0  0  0  0  0
    0.6243    0.4524    2.2902 H   0  0  0  0  0  0  0  0  0  0  0  0
    0.8412   -0.5402    0.8278 H   0  0  0  0  0  0  0  0  0  0  0  0
   -1.0090    3.2893    0.1390 H   0  0  0  0  0  0  0  0  0  0  0  0
   -2.1655    3.1310   -1.1762 H   0  0  0  0  0  0  0  0  0  0  0  0
   -3.0638    0.8737   -1.8300 H   0  0  0  0  0  0  0  0  0  0  0  0
   -3.3413    1.3088   -0.1335 H   0  0  0  0  0  0  0  0  0  0  0  0
    0.6427    4.2929   -1.3609 H   0  0  0  0  0  0  0  0  0  0  0  0
   -0.9010    5.0726   -1.6525 H   0  0  0  0  0  0  0  0  0  0  0  0
   -0.3193    3.8572   -2.7948 H   0  0  0  0  0  0  0  0  0  0  0  0
   -5.3111    0.2106   -1.0327 H   0  0  0  0  0  0  0  0  0  0  0  0
    4.0296    0.9344   -1.3914 H   0  0  0  0  0  0  0  0  0  0  0  0
    3.0931   -0.6125    2.5330 H   0  0  0  0  0  0  0  0  0  0  0  0
   -5.2376   -2.7251   -0.9557 H   0  0  0  0  0  0  0  0  0  0  0  0
   -6.5922   -1.6843   -1.3961 H   0  0  0  0  0  0  0  0  0  0  0  0
    5.0511   -1.1488   -1.9913 H   0  0  0  0  0  0  0  0  0  0  0  0
    4.1348   -2.7513    1.9299 H   0  0  0  0  0  0  0  0  0  0  0  0
   -6.9722   -2.8818    0.8027 H   0  0  0  0  0  0  0  0  0  0  0  0
   -5.5047   -2.1438    1.4405 H   0  0  0  0  0  0  0  0  0  0  0  0
    5.0238   -3.3231   -2.4751 H   0  0  0  0  0  0  0  0  0  0  0  0
    6.6243   -2.7203   -1.8555 H   0  0  0  0  0  0  0  0  0  0  0  0
    6.2116   -4.4304   -1.7956 H   0  0  0  0  0  0  0  0  0  0  0  0
   -8.7369   -0.9237   -0.5610 H   0  0  0  0  0  0  0  0  0  0  0  0
   -9.2310   -1.8491    0.8869 H   0  0  0  0  0  0  0  0  0  0  0  0
   -9.5513   -0.1088    0.7845 H   0  0  0  0  0  0  0  0  0  0  0  0
  1  3  2  0  0  0  0
  1  4  2  0  0  0  0
  1  7  1  0  0  0  0
  1 18  1  0  0  0  0
  2 25  1  0  0  0  0
  2 27  1  0  0  0  0
  5 17  2  0  0  0  0
  6 24  1  0  0  0  0
  6 26  1  0  0  0  0
  7 12  1  0  0  0  0
  7 13  1  0  0  0  0
  8 17  1  0  0  0  0
  8 21  1  0  0  0  0
  8 43  1  0  0  0  0
  9 10  1  0  0  0  0
  9 12  1  0  0  0  0
  9 14  1  0  0  0  0
  9 28  1  0  0  0  0
 10 11  1  0  0  0  0
 10 15  1  0  0  0  0
 10 29  1  0  0  0  0
 11 13  1  0  0  0  0
 11 30  1  0  0  0  0
 11 31  1  0  0  0  0
 12 32  1  0  0  0  0
 12 33  1  0  0  0  0
 13 34  1  0  0  0  0
 13 35  1  0  0  0  0
 14 16  1  0  0  0  0
 14 36  1  0  0  0  0
 14 37  1  0  0  0  0
 15 17  1  0  0  0  0
 15 38  1  0  0  0  0
 15 39  1  0  0  0  0
 16 40  1  0  0  0  0
 16 41  1  0  0  0  0
 16 42  1  0  0  0  0
 18 19  2  0  0  0  0
 18 20  1  0  0  0  0
 19 22  1  0  0  0  0
 19 44  1  0  0  0  0
 20 23  2  0  0  0  0
 20 45  1  0  0  0  0
 21 25  1  0  0  0  0
 21 46  1  0  0  0  0
 21 47  1  0  0  0  0
 22 24  2  0  0  0  0
 22 48  1  0  0  0  0
 23 24  1  0  0  0  0
 23 49  1  0  0  0  0
 25 50  1  0  0  0  0
 25 51  1  0  0  0  0
 26 52  1  0  0  0  0
 26 53  1  0  0  0  0
 26 54  1  0  0  0  0
 27 55  1  0  0  0  0
 27 56  1  0  0  0  0
 27 57  1  0  0  0  0
M  END
> <PUBCHEM_COMPOUND_CID>
11912463

> <PUBCHEM_CONFORMER_RMSD>
1

> <PUBCHEM_CONFORMER_DIVERSEORDER>
2
54
33
117
32
44
105
65
83
108
87
93
35
119
55
95
100
23
73
86
53
97
8
106
42
25
52
92
22
114
71
60
99
16
36
43
70
88
102
10
103
111
72
26
89
20
57
41
91
48
30
120
49
64
5
104
78
59
76
51
77
18
85
80
79
69
24
98
40
12
75
37
113
4
46
28
58
81
118
45
109
68
31
116
61
101
47
1
13
67
63
94
90
29
39
19
115
50
66
62
11
34
110
84
7
21
14
112
3
74
107
9
82
17
38
56
27
96
6
15

> <PUBCHEM_MMFF94_PARTIAL_CHARGES>
27
1 1.45
12 0.36
13 0.36
15 0.06
17 0.57
18 -0.01
19 -0.15
2 -0.46
20 -0.15
21 0.3
22 -0.15
23 -0.15
24 0.08
25 0.23
26 0.28
27 0.23
3 -0.65
4 -0.65
43 0.37
44 0.15
45 0.15
48 0.15
49 0.15
5 -0.57
6 -0.36
7 -0.85
8 -0.73

> <PUBCHEM_EFFECTIVE_ROTOR_COUNT>
11.2

> <PUBCHEM_PHARMACOPHORE_FEATURES>
9
1 16 hydrophobe
1 27 hydrophobe
1 3 acceptor
1 4 acceptor
1 5 acceptor
1 6 acceptor
1 8 donor
6 18 19 20 22 23 24 rings
6 7 9 10 11 12 13 rings

> <PUBCHEM_HEAVY_ATOM_COUNT>
27

> <PUBCHEM_ATOM_DEF_STEREO_COUNT>
2

> <PUBCHEM_ATOM_UDEF_STEREO_COUNT>
0

> <PUBCHEM_BOND_DEF_STEREO_COUNT>
0

> <PUBCHEM_BOND_UDEF_STEREO_COUNT>
0

> <PUBCHEM_ISOTOPIC_ATOM_COUNT>
0

> <PUBCHEM_COMPONENT_COUNT>
1

> <PUBCHEM_CACTVS_TAUTO_COUNT>
2

> <PUBCHEM_CONFORMER_ID>
00B5C50F00000002

> <PUBCHEM_MMFF94_ENERGY>
53.1956

> <PUBCHEM_FEATURE_SELFOVERLAP>
45.689

> <PUBCHEM_SHAPE_FINGERPRINT>
10498660 4 13046242528502343958
10692045 39 18060145328019735947
117089 54 18056490443694737726
11961588 58 11458431249526579893
11991303 11 17388810878388324205
12422481 6 18131912650781781055
12623949 98 18272371996706919014
13533116 47 18201155546175400419
13673619 4 18341614776579487206
13690498 29 18336548192818364078
13785724 45 18408328787225006045
13955234 65 18057878237784776456
14251740 57 18410852200274734703
14251764 30 18409452453427185387
14347424 109 17846497049876634465
14955137 171 18260551152071960017
15081414 286 18189608509547225317
15183329 4 17131560535260281723
15664445 248 18116150163602698676
16120349 189 8069438419696474346
1813 80 18187076291329281925
20715895 44 9871746897282604902
20775438 99 18192978542788618074
20775530 9 18199739255299060438
21049683 118 10807645645615765740
21130935 74 18271526520201291563
2303208 19 18040430023628934227
23559900 14 18337938005586314676
23569943 247 18337951182789208915
2838139 119 8070038769786979863
34797466 226 16950565531864340695
4072396 5 15195573415939657345
44062 13 18122618358521895084
46194498 28 18334289877781955196
465052 167 18343022194307387614
5372103 7 15503521416075339358
57527585 21 14275159995976910030
621550 34 18197195148622359840
70251023 43 18335987493422589136
7399639 24 18124851673087385072
7918774 8 17967818275567031659
9980921 177 16772415954105952211

> <PUBCHEM_SHAPE_MULTIPOLES>
529.91
17.78
4.04
1.7
33.51
1.59
-0.38
-19.58
-1.72
-4.43
1.83
-1.21
0.38
2.4

> <PUBCHEM_SHAPE_SELFOVERLAP>
1048.004

> <PUBCHEM_SHAPE_VOLUME>
317.7

> <PUBCHEM_COORDINATE_TYPE>
2
5
10

$$$$
