40776854
  -OEChem-12032416193D

 68 72  0     1  0  0  0  0  0999 V2000
   -7.7038    3.7975    0.8053 F   0  0  0  0  0  0  0  0  0  0  0  0
   -8.0973    3.1816   -1.2425 F   0  0  0  0  0  0  0  0  0  0  0  0
   -6.3302    4.3594   -0.7763 F   0  0  0  0  0  0  0  0  0  0  0  0
   -4.6855   -2.6325    0.2939 O   0  0  0  0  0  0  0  0  0  0  0  0
   -0.3757   -4.1283    0.0377 N   0  0  2  0  0  0  0  0  0  0  0  0
    3.1866   -0.8513    0.4719 N   0  0  0  0  0  0  0  0  0  0  0  0
   -2.8172   -1.4118    0.9299 N   0  0  0  0  0  0  0  0  0  0  0  0
    5.4653    0.8544    0.2324 N   0  0  0  0  0  0  0  0  0  0  0  0
    1.0542   -2.2539   -1.0616 C   0  0  2  0  0  0  0  0  0  0  0  0
    1.7767   -2.8494    0.1684 C   0  0  2  0  0  0  0  0  0  0  0  0
   -1.1903   -2.8935   -0.1219 C   0  0  2  0  0  0  0  0  0  0  0  0
   -0.3253   -1.7202   -0.6337 C   0  0  0  0  0  0  0  0  0  0  0  0
    0.8248   -3.8497    0.8623 C   0  0  0  0  0  0  0  0  0  0  0  0
    0.8096   -3.4162   -2.0428 C   0  0  0  0  0  0  0  0  0  0  0  0
    0.0772   -4.5537   -1.3091 C   0  0  0  0  0  0  0  0  0  0  0  0
    2.2844   -1.7877    1.1412 C   0  0  0  0  0  0  0  0  0  0  0  0
   -1.9487   -2.5255    1.1555 C   0  0  0  0  0  0  0  0  0  0  0  0
    4.5345   -1.4224    0.3642 C   0  0  0  0  0  0  0  0  0  0  0  0
    3.2405    0.4220    1.2008 C   0  0  0  0  0  0  0  0  0  0  0  0
    5.4754   -0.4755   -0.3848 C   0  0  0  0  0  0  0  0  0  0  0  0
    4.1373    1.4303    0.4788 C   0  0  0  0  0  0  0  0  0  0  0  0
   -4.1387   -1.5541    0.5101 C   0  0  0  0  0  0  0  0  0  0  0  0
    6.5311    1.7324    0.0066 C   0  0  0  0  0  0  0  0  0  0  0  0
   -4.9018   -0.2976    0.2955 C   0  0  0  0  0  0  0  0  0  0  0  0
    7.2404    1.6747   -1.1931 C   0  0  0  0  0  0  0  0  0  0  0  0
    6.8823    2.6678    0.9799 C   0  0  0  0  0  0  0  0  0  0  0  0
   -5.9597   -0.2700   -0.6132 C   0  0  0  0  0  0  0  0  0  0  0  0
   -4.5596    0.8549    1.0027 C   0  0  0  0  0  0  0  0  0  0  0  0
    8.3007    2.5524   -1.4197 C   0  0  0  0  0  0  0  0  0  0  0  0
    7.9424    3.5456    0.7535 C   0  0  0  0  0  0  0  0  0  0  0  0
    8.6517    3.4877   -0.4463 C   0  0  0  0  0  0  0  0  0  0  0  0
   -6.6752    0.9102   -0.8149 C   0  0  0  0  0  0  0  0  0  0  0  0
   -5.2750    2.0352    0.8010 C   0  0  0  0  0  0  0  0  0  0  0  0
   -6.3328    2.0628   -0.1078 C   0  0  0  0  0  0  0  0  0  0  0  0
   -7.0982    3.3246   -0.3239 C   0  0  0  0  0  0  0  0  0  0  0  0
    1.6381   -1.4708   -1.5550 H   0  0  0  0  0  0  0  0  0  0  0  0
    2.6350   -3.4294   -0.1963 H   0  0  0  0  0  0  0  0  0  0  0  0
   -1.9556   -3.1024   -0.8842 H   0  0  0  0  0  0  0  0  0  0  0  0
   -0.2077   -0.9322    0.1171 H   0  0  0  0  0  0  0  0  0  0  0  0
   -0.8202   -1.2569   -1.4969 H   0  0  0  0  0  0  0  0  0  0  0  0
    1.3601   -4.7917    1.0412 H   0  0  0  0  0  0  0  0  0  0  0  0
    0.5297   -3.5065    1.8601 H   0  0  0  0  0  0  0  0  0  0  0  0
    1.7611   -3.7839   -2.4444 H   0  0  0  0  0  0  0  0  0  0  0  0
    0.2103   -3.0689   -2.8932 H   0  0  0  0  0  0  0  0  0  0  0  0
   -0.7815   -4.8892   -1.9037 H   0  0  0  0  0  0  0  0  0  0  0  0
    0.7319   -5.4301   -1.2206 H   0  0  0  0  0  0  0  0  0  0  0  0
    2.7713   -2.2615    2.0045 H   0  0  0  0  0  0  0  0  0  0  0  0
    1.4207   -1.2513    1.5536 H   0  0  0  0  0  0  0  0  0  0  0  0
   -1.2709   -2.2354    1.9645 H   0  0  0  0  0  0  0  0  0  0  0  0
   -2.5418   -3.3786    1.5047 H   0  0  0  0  0  0  0  0  0  0  0  0
    4.5201   -2.3701   -0.1844 H   0  0  0  0  0  0  0  0  0  0  0  0
    4.9485   -1.6304    1.3604 H   0  0  0  0  0  0  0  0  0  0  0  0
    3.6077    0.2673    2.2244 H   0  0  0  0  0  0  0  0  0  0  0  0
    2.2363    0.8573    1.2747 H   0  0  0  0  0  0  0  0  0  0  0  0
   -2.4100   -0.4884    1.0315 H   0  0  0  0  0  0  0  0  0  0  0  0
    6.4835   -0.9078   -0.3584 H   0  0  0  0  0  0  0  0  0  0  0  0
    5.1633   -0.4028   -1.4346 H   0  0  0  0  0  0  0  0  0  0  0  0
    3.6862    1.7176   -0.4798 H   0  0  0  0  0  0  0  0  0  0  0  0
    4.1935    2.3363    1.0930 H   0  0  0  0  0  0  0  0  0  0  0  0
    6.9858    0.9695   -1.9792 H   0  0  0  0  0  0  0  0  0  0  0  0
    6.3514    2.7197    1.9270 H   0  0  0  0  0  0  0  0  0  0  0  0
   -6.2385   -1.1563   -1.1769 H   0  0  0  0  0  0  0  0  0  0  0  0
   -3.7636    0.8685    1.7412 H   0  0  0  0  0  0  0  0  0  0  0  0
    8.8511    2.5099   -2.3550 H   0  0  0  0  0  0  0  0  0  0  0  0
    8.2179    4.2720    1.5124 H   0  0  0  0  0  0  0  0  0  0  0  0
    9.4772    4.1712   -0.6226 H   0  0  0  0  0  0  0  0  0  0  0  0
   -7.4950    0.9110   -1.5279 H   0  0  0  0  0  0  0  0  0  0  0  0
   -5.0057    2.9267    1.3612 H   0  0  0  0  0  0  0  0  0  0  0  0
  1 35  1  0  0  0  0
  2 35  1  0  0  0  0
  3 35  1  0  0  0  0
  4 22  2  0  0  0  0
  5 11  1  0  0  0  0
  5 13  1  0  0  0  0
  5 15  1  0  0  0  0
  6 16  1  0  0  0  0
  6 18  1  0  0  0  0
  6 19  1  0  0  0  0
  7 17  1  0  0  0  0
  7 22  1  0  0  0  0
  7 55  1  0  0  0  0
  8 20  1  0  0  0  0
  8 21  1  0  0  0  0
  8 23  1  0  0  0  0
  9 10  1  0  0  0  0
  9 12  1  0  0  0  0
  9 14  1  0  0  0  0
  9 36  1  0  0  0  0
 10 13  1  0  0  0  0
 10 16  1  0  0  0  0
 10 37  1  0  0  0  0
 11 12  1  0  0  0  0
 11 17  1  0  0  0  0
 11 38  1  0  0  0  0
 12 39  1  0  0  0  0
 12 40  1  0  0  0  0
 13 41  1  0  0  0  0
 13 42  1  0  0  0  0
 14 15  1  0  0  0  0
 14 43  1  0  0  0  0
 14 44  1  0  0  0  0
 15 45  1  0  0  0  0
 15 46  1  0  0  0  0
 16 47  1  0  0  0  0
 16 48  1  0  0  0  0
 17 49  1  0  0  0  0
 17 50  1  0  0  0  0
 18 20  1  0  0  0  0
 18 51  1  0  0  0  0
 18 52  1  0  0  0  0
 19 21  1  0  0  0  0
 19 53  1  0  0  0  0
 19 54  1  0  0  0  0
 20 56  1  0  0  0  0
 20 57  1  0  0  0  0
 21 58  1  0  0  0  0
 21 59  1  0  0  0  0
 22 24  1  0  0  0  0
 23 25  2  0  0  0  0
 23 26  1  0  0  0  0
 24 27  2  0  0  0  0
 24 28  1  0  0  0  0
 25 29  1  0  0  0  0
 25 60  1  0  0  0  0
 26 30  2  0  0  0  0
 26 61  1  0  0  0  0
 27 32  1  0  0  0  0
 27 62  1  0  0  0  0
 28 33  2  0  0  0  0
 28 63  1  0  0  0  0
 29 31  2  0  0  0  0
 29 64  1  0  0  0  0
 30 31  1  0  0  0  0
 30 65  1  0  0  0  0
 31 66  1  0  0  0  0
 32 34  2  0  0  0  0
 32 67  1  0  0  0  0
 33 34  1  0  0  0  0
 33 68  1  0  0  0  0
 34 35  1  0  0  0  0
M  END
> <PUBCHEM_COMPOUND_CID>
40776854

> <PUBCHEM_CONFORMER_RMSD>
1.2

> <PUBCHEM_CONFORMER_DIVERSEORDER>
1
77
18
46
58
108
80
64
2
105
83
101
34
88
12
76
86
95
99
42
93
23
31
82
67
85
11
56
27
63
109
35
38
65
89
70
81
19
98
68
33
37
102
41
40
44
72
57
54
91
50
96
22
79
53
84
39
107
94
75
3
20
92
52
26
73
61
51
48
6
97
16
32
69
78
25
15
21
87
8
103
17
14
60
59
100
13
90
104
29
43
30
45
28
71
47
24
9
74
62
66
49
4
55
10
36
7
106
5

> <PUBCHEM_MMFF94_PARTIAL_CHARGES>
41
1 -0.34
11 0.27
13 0.27
15 0.27
16 0.27
17 0.3
18 0.27
19 0.27
2 -0.34
20 0.37
21 0.37
22 0.54
23 0.1
24 0.09
25 -0.15
26 -0.15
27 -0.15
28 -0.15
29 -0.15
3 -0.34
30 -0.15
31 -0.15
32 -0.15
33 -0.15
34 -0.14
35 1.16
4 -0.57
5 -0.81
55 0.37
6 -0.81
60 0.15
61 0.15
62 0.15
63 0.15
64 0.15
65 0.15
66 0.15
67 0.15
68 0.15
7 -0.73
8 -0.84

> <PUBCHEM_EFFECTIVE_ROTOR_COUNT>
10.4

> <PUBCHEM_PHARMACOPHORE_FEATURES>
9
1 4 acceptor
1 5 cation
1 6 cation
1 7 donor
1 8 cation
6 23 25 26 29 30 31 rings
6 24 27 28 32 33 34 rings
6 6 8 18 19 20 21 rings
8 5 9 10 11 12 13 14 15 rings

> <PUBCHEM_HEAVY_ATOM_COUNT>
35

> <PUBCHEM_ATOM_DEF_STEREO_COUNT>
3

> <PUBCHEM_ATOM_UDEF_STEREO_COUNT>
0

> <PUBCHEM_BOND_DEF_STEREO_COUNT>
0

> <PUBCHEM_BOND_UDEF_STEREO_COUNT>
0

> <PUBCHEM_ISOTOPIC_ATOM_COUNT>
0

> <PUBCHEM_COMPONENT_COUNT>
1

> <PUBCHEM_CACTVS_TAUTO_COUNT>
2

> <PUBCHEM_CONFORMER_ID>
026E349600000001

> <PUBCHEM_MMFF94_ENERGY>
99.0508

> <PUBCHEM_FEATURE_SELFOVERLAP>
45.675

> <PUBCHEM_SHAPE_FINGERPRINT>
10280341 67 18270388499712130488
10533779 1 18409156714722290053
10864689 126 18342176691910585872
11421887 103 18262224560929930885
11621639 254 18056190517606400095
12013929 29 18268993094242690197
12124843 1 17988640774939074189
12133447 93 18336559304321064108
12522641 68 18201437021311237654
12717326 120 8574445253095778008
12975358 362 18191047645988745961
13248334 5 18122342380978106146
13782708 43 10807931552824852971
13944108 23 18125440817354598680
14294032 229 18260543476944615436
14904525 67 17907862057303853056
14931854 50 17846784013858732560
15064981 113 17203338801684061590
15198563 99 17769643532422757463
15347591 1 18408885131129336387
15350500 55 18334009506052774052
15803439 3 16988846102911966798
15950262 2 18260831487990995779
15980000 95 17618225001663224930
16120349 189 18411416224165159087
16728433 281 18271253806308914752
16990366 60 9079111150872382908
16994733 274 18187080698208353664
17899979 129 18128543661207638015
19053607 189 18340754962707928257
19303781 99 9511181803028707272
19304152 47 18263371437709663571
20691028 202 18336264630603435796
20766409 102 18411420627646029197
20982279 24 12462989084238057021
21223535 225 18198901608122116244
21585482 111 18335422361689507332
21867126 195 8718820977465669560
23191077 185 18340195380030790370
23516275 100 18261951835022960029
23522609 53 17242461753678547972
23569914 152 17914918456827005766
23569914 2 16301735826992522189
23569943 247 9367334956537340453
25025965 108 13540257497125660604
2748736 6 18410003334348230531
3525247 18 18191019011162676781
3918712 181 18412544288662023040
393628 194 18334575780569729173
406291 66 10159701291768380012
437795 171 18044084666614177149
44802255 64 17915469496129694342
5718773 13 9583522010119702488
5776283 40 18341890835661025793
6036956 94 18269278967704158785
6201320 82 18340220621363437961
6327066 14 18412543236479048158
636775 72 18123187072770301168
6673363 416 18196654223229187535
9896288 288 18044099192399567138

> <PUBCHEM_SHAPE_MULTIPOLES>
672.67
26.96
6.75
1.32
10.63
0.3
0.28
-48.75
4.02
-4.4
1.26
0.47
0.35
0.85

> <PUBCHEM_SHAPE_SELFOVERLAP>
1444.911

> <PUBCHEM_SHAPE_VOLUME>
370.8

> <PUBCHEM_COORDINATE_TYPE>
2
5
10

$$$$
