51137732
  -OEChem-12032416223D

 38 41  0     1  0  0  0  0  0999 V2000
    3.4157   -1.4427    1.5683 O   0  0  0  0  0  0  0  0  0  0  0  0
   -0.4998    0.8512   -0.2008 O   0  0  0  0  0  0  0  0  0  0  0  0
    2.6415    0.3695    0.3535 N   0  0  0  0  0  0  0  0  0  0  0  0
   -0.9715    3.0075   -0.5643 N   0  0  0  0  0  0  0  0  0  0  0  0
   -2.1664    2.3264   -0.4250 N   0  0  0  0  0  0  0  0  0  0  0  0
    3.3734   -1.6829   -0.7656 C   0  0  0  0  0  0  0  0  0  0  0  0
    3.3453   -3.1822   -0.7139 C   0  0  0  0  0  0  0  0  0  0  0  0
    2.2241   -2.4331   -1.3723 C   0  0  0  0  0  0  0  0  0  0  0  0
    1.4827    2.2723   -0.4821 C   0  0  2  0  0  0  0  0  0  0  0  0
    3.1546   -0.9093    0.4939 C   0  0  0  0  0  0  0  0  0  0  0  0
    2.2926    1.0366   -0.8990 C   0  0  0  0  0  0  0  0  0  0  0  0
    2.3585    1.2182    1.5000 C   0  0  0  0  0  0  0  0  0  0  0  0
    2.0683    2.5886    0.9030 C   0  0  0  0  0  0  0  0  0  0  0  0
   -0.0264    2.1072   -0.4259 C   0  0  0  0  0  0  0  0  0  0  0  0
   -1.8428    1.0720   -0.2146 C   0  0  0  0  0  0  0  0  0  0  0  0
   -2.6702   -0.0798   -0.0006 C   0  0  0  0  0  0  0  0  0  0  0  0
   -4.0590    0.0502    0.0027 C   0  0  0  0  0  0  0  0  0  0  0  0
   -2.0863   -1.3298    0.2041 C   0  0  0  0  0  0  0  0  0  0  0  0
   -4.8638   -1.0700    0.2109 C   0  0  0  0  0  0  0  0  0  0  0  0
   -2.8909   -2.4499    0.4122 C   0  0  0  0  0  0  0  0  0  0  0  0
   -4.2798   -2.3200    0.4157 C   0  0  0  0  0  0  0  0  0  0  0  0
    4.0918   -1.2425   -1.4507 H   0  0  0  0  0  0  0  0  0  0  0  0
    4.0341   -3.7212   -1.3536 H   0  0  0  0  0  0  0  0  0  0  0  0
    3.1272   -3.6820    0.2217 H   0  0  0  0  0  0  0  0  0  0  0  0
    1.2665   -2.4140   -0.8665 H   0  0  0  0  0  0  0  0  0  0  0  0
    2.1590   -2.4675   -2.4529 H   0  0  0  0  0  0  0  0  0  0  0  0
    1.6789    3.0964   -1.1786 H   0  0  0  0  0  0  0  0  0  0  0  0
    3.2348    1.3289   -1.3767 H   0  0  0  0  0  0  0  0  0  0  0  0
    1.7533    0.3624   -1.5699 H   0  0  0  0  0  0  0  0  0  0  0  0
    3.2034    1.2236    2.1952 H   0  0  0  0  0  0  0  0  0  0  0  0
    1.4834    0.8063    2.0146 H   0  0  0  0  0  0  0  0  0  0  0  0
    1.4130    3.1887    1.5419 H   0  0  0  0  0  0  0  0  0  0  0  0
    3.0122    3.1347    0.7785 H   0  0  0  0  0  0  0  0  0  0  0  0
   -4.5360    1.0145   -0.1548 H   0  0  0  0  0  0  0  0  0  0  0  0
   -1.0084   -1.4706    0.2093 H   0  0  0  0  0  0  0  0  0  0  0  0
   -5.9452   -0.9691    0.2136 H   0  0  0  0  0  0  0  0  0  0  0  0
   -2.4365   -3.4234    0.5718 H   0  0  0  0  0  0  0  0  0  0  0  0
   -4.9064   -3.1921    0.5778 H   0  0  0  0  0  0  0  0  0  0  0  0
  1 10  2  0  0  0  0
  2 14  1  0  0  0  0
  2 15  1  0  0  0  0
  3 10  1  0  0  0  0
  3 11  1  0  0  0  0
  3 12  1  0  0  0  0
  4  5  1  0  0  0  0
  4 14  2  0  0  0  0
  5 15  2  0  0  0  0
  6  7  1  0  0  0  0
  6  8  1  0  0  0  0
  6 10  1  0  0  0  0
  6 22  1  0  0  0  0
  7  8  1  0  0  0  0
  7 23  1  0  0  0  0
  7 24  1  0  0  0  0
  8 25  1  0  0  0  0
  8 26  1  0  0  0  0
  9 11  1  0  0  0  0
  9 13  1  0  0  0  0
  9 14  1  0  0  0  0
  9 27  1  0  0  0  0
 11 28  1  0  0  0  0
 11 29  1  0  0  0  0
 12 13  1  0  0  0  0
 12 30  1  0  0  0  0
 12 31  1  0  0  0  0
 13 32  1  0  0  0  0
 13 33  1  0  0  0  0
 15 16  1  0  0  0  0
 16 17  2  0  0  0  0
 16 18  1  0  0  0  0
 17 19  1  0  0  0  0
 17 34  1  0  0  0  0
 18 20  2  0  0  0  0
 18 35  1  0  0  0  0
 19 21  2  0  0  0  0
 19 36  1  0  0  0  0
 20 21  1  0  0  0  0
 20 37  1  0  0  0  0
 21 38  1  0  0  0  0
M  END
> <PUBCHEM_COMPOUND_CID>
51137732

> <PUBCHEM_CONFORMER_RMSD>
0.8

> <PUBCHEM_CONFORMER_DIVERSEORDER>
1
7
25
19
11
21
13
3
28
26
12
4
20
17
24
27
22
16
23
14
6
10
18
9
5
8
2
15

> <PUBCHEM_MMFF94_PARTIAL_CHARGES>
30
1 -0.57
10 0.63
11 0.3
12 0.3
14 0.3
15 0.43
16 0.05
17 -0.15
18 -0.15
19 -0.15
2 -0.28
20 -0.15
21 -0.15
22 0.1
23 0.1
24 0.1
25 0.1
26 0.1
3 -0.66
34 0.15
35 0.15
36 0.15
37 0.15
38 0.15
4 -0.34
5 -0.34
6 -0.1
7 -0.2
8 -0.2
9 0.18

> <PUBCHEM_EFFECTIVE_ROTOR_COUNT>
5.6

> <PUBCHEM_PHARMACOPHORE_FEATURES>
4
1 1 acceptor
5 2 4 5 14 15 rings
5 3 9 11 12 13 rings
6 16 17 18 19 20 21 rings

> <PUBCHEM_HEAVY_ATOM_COUNT>
21

> <PUBCHEM_ATOM_DEF_STEREO_COUNT>
1

> <PUBCHEM_ATOM_UDEF_STEREO_COUNT>
0

> <PUBCHEM_BOND_DEF_STEREO_COUNT>
0

> <PUBCHEM_BOND_UDEF_STEREO_COUNT>
0

> <PUBCHEM_ISOTOPIC_ATOM_COUNT>
0

> <PUBCHEM_COMPONENT_COUNT>
1

> <PUBCHEM_CACTVS_TAUTO_COUNT>
1

> <PUBCHEM_CONFORMER_ID>
030C4CC400000001

> <PUBCHEM_MMFF94_ENERGY>
41.8362

> <PUBCHEM_FEATURE_SELFOVERLAP>
20.298

> <PUBCHEM_SHAPE_FINGERPRINT>
10616163 171 17832147499653320163
114674 6 18409448124068808210
116883 192 18409168783711331717
117890 22 18412548725420833199
12403259 327 16486974050525627035
12506688 2 18343023259585669328
12553582 1 18338514273826534919
12596599 1 18411143515322208083
12633257 1 18341056203028961675
12712778 12 16968855568670618366
12990986 174 18120369857312437786
13402501 40 18412266120868055054
13533116 47 18202286939899269931
13911882 115 18201439147730939782
14223421 5 18412822503726439652
14251705 54 18412829070842244126
14251740 57 18201448037912692935
14790565 3 17688880051969791013
14863182 85 18119535585552670124
14866123 147 17908148677107032769
14916288 52 18339365149776797150
15352361 1 18410578344691456526
15422964 175 18410007779803113613
15635459 17 18337113470174742819
15664445 248 17605850324108130533
17818456 19 18059030414622971161
17974551 9 16771545045647168794
1813 80 17168142386369632117
18681886 176 17685777221903973572
19591789 44 17329997897974983169
1979834 28 18197781213746357395
19930381 70 18409731794069355255
20397935 3 18263383424762393918
20403669 9 18408601440149135699
20645477 70 18264205988298075447
20775530 9 18269278963013467590
21279426 13 18335130957243793581
21285901 2 17896867937035480453
21315764 371 16912845823348667019
2255824 54 17539976499777084165
23184049 29 18335698325642226652
23466295 7 17407421147432620270
23559900 14 18410292540403490373
238078 22 18054244128764135878
3117164 225 18269859557409316817
314173 41 18188214307243459539
3421961 26 18413110588552070466
6823239 73 18342743966716348950
7987 15 18263384588603656811
8988823 20 17632004369086169849
9709674 26 18411694366289069221

> <PUBCHEM_SHAPE_MULTIPOLES>
405.49
8.44
3.99
1.11
6.48
0.26
0.2
6.17
1.08
-1.89
-0.67
-1.07
0.11
1.36

> <PUBCHEM_SHAPE_SELFOVERLAP>
878.809

> <PUBCHEM_SHAPE_VOLUME>
223.7

> <PUBCHEM_COORDINATE_TYPE>
2
5
10

$$$$
