28961242
  -OEChem-12032416353D

 66 69  0     1  0  0  0  0  0999 V2000
   -3.6674   -3.9604    0.5273 Cl  0  0  0  0  0  0  0  0  0  0  0  0
   -6.6247    3.3643    1.0097 Cl  0  0  0  0  0  0  0  0  0  0  0  0
    0.3424   -0.6636    1.6924 O   0  0  0  0  0  0  0  0  0  0  0  0
    2.5672   -2.1958    0.3994 O   0  0  0  0  0  0  0  0  0  0  0  0
   -0.5320   -2.9355    3.0990 O   0  0  0  0  0  0  0  0  0  0  0  0
    3.5213    0.5096    0.2567 N   0  0  0  0  0  0  0  0  0  0  0  0
    5.8016    2.0400   -0.6471 N   0  0  0  0  0  0  0  0  0  0  0  0
   -0.7581    0.5731   -0.6298 N   0  0  2  0  0  0  0  0  0  0  0  0
    2.5665    0.0744    1.2742 C   0  0  1  0  0  0  0  0  0  0  0  0
    1.0865    0.3467    0.9759 C   0  0  1  0  0  0  0  0  0  0  0  0
    2.5850   -1.4139    1.5867 C   0  0  1  0  0  0  0  0  0  0  0  0
    1.2672   -1.5596    2.3384 C   0  0  2  0  0  0  0  0  0  0  0  0
    0.6586    0.2718   -0.4855 C   0  0  0  0  0  0  0  0  0  0  0  0
    3.4299    1.9590    0.0418 C   0  0  0  0  0  0  0  0  0  0  0  0
    4.8898    0.1319    0.6303 C   0  0  0  0  0  0  0  0  0  0  0  0
    4.4334    2.4178   -1.0218 C   0  0  0  0  0  0  0  0  0  0  0  0
    5.8924    0.5904   -0.4343 C   0  0  0  0  0  0  0  0  0  0  0  0
    0.6779   -2.9582    2.3587 C   0  0  0  0  0  0  0  0  0  0  0  0
   -1.2846    0.0050   -1.8731 C   0  0  0  0  0  0  0  0  0  0  0  0
   -0.9857    2.0199   -0.5991 C   0  0  0  0  0  0  0  0  0  0  0  0
    6.7572    2.4765   -1.6631 C   0  0  0  0  0  0  0  0  0  0  0  0
   -1.5180   -1.4779   -1.7572 C   0  0  0  0  0  0  0  0  0  0  0  0
   -2.3966    2.3571   -0.1960 C   0  0  0  0  0  0  0  0  0  0  0  0
   -2.3839   -1.9738   -0.7826 C   0  0  0  0  0  0  0  0  0  0  0  0
   -0.8677   -2.3558   -2.6245 C   0  0  0  0  0  0  0  0  0  0  0  0
   -3.3879    2.4845   -1.1690 C   0  0  0  0  0  0  0  0  0  0  0  0
   -2.7127    2.5419    1.1500 C   0  0  0  0  0  0  0  0  0  0  0  0
   -2.5995   -3.3476   -0.6752 C   0  0  0  0  0  0  0  0  0  0  0  0
   -1.0834   -3.7296   -2.5170 C   0  0  0  0  0  0  0  0  0  0  0  0
   -4.6951    2.7971   -0.7962 C   0  0  0  0  0  0  0  0  0  0  0  0
   -4.0198    2.8544    1.5230 C   0  0  0  0  0  0  0  0  0  0  0  0
   -1.9491   -4.2257   -1.5423 C   0  0  0  0  0  0  0  0  0  0  0  0
   -5.0110    2.9820    0.5499 C   0  0  0  0  0  0  0  0  0  0  0  0
    2.7959    0.5913    2.2202 H   0  0  0  0  0  0  0  0  0  0  0  0
    0.8199    1.3155    1.4117 H   0  0  0  0  0  0  0  0  0  0  0  0
    3.4379   -1.7239    2.1990 H   0  0  0  0  0  0  0  0  0  0  0  0
    1.3736   -1.1871    3.3655 H   0  0  0  0  0  0  0  0  0  0  0  0
    0.8487   -0.7560   -0.8154 H   0  0  0  0  0  0  0  0  0  0  0  0
    1.2451    0.9034   -1.1575 H   0  0  0  0  0  0  0  0  0  0  0  0
    3.6379    2.4940    0.9797 H   0  0  0  0  0  0  0  0  0  0  0  0
    2.4390    2.2885   -0.2771 H   0  0  0  0  0  0  0  0  0  0  0  0
    4.9906   -0.9558    0.7094 H   0  0  0  0  0  0  0  0  0  0  0  0
    5.1646    0.5594    1.6043 H   0  0  0  0  0  0  0  0  0  0  0  0
    4.1595    1.9905   -1.9960 H   0  0  0  0  0  0  0  0  0  0  0  0
    4.3646    3.5088   -1.1125 H   0  0  0  0  0  0  0  0  0  0  0  0
    6.9015    0.3290   -0.0932 H   0  0  0  0  0  0  0  0  0  0  0  0
    5.7123    0.0448   -1.3706 H   0  0  0  0  0  0  0  0  0  0  0  0
    1.3661   -3.6688    2.8263 H   0  0  0  0  0  0  0  0  0  0  0  0
    0.4279   -3.3001    1.3492 H   0  0  0  0  0  0  0  0  0  0  0  0
    2.6855   -3.1256    0.6575 H   0  0  0  0  0  0  0  0  0  0  0  0
   -0.6255    0.2387   -2.7207 H   0  0  0  0  0  0  0  0  0  0  0  0
   -2.2618    0.4084   -2.1465 H   0  0  0  0  0  0  0  0  0  0  0  0
   -0.7457    2.4846   -1.5663 H   0  0  0  0  0  0  0  0  0  0  0  0
   -0.3231    2.5257    0.1139 H   0  0  0  0  0  0  0  0  0  0  0  0
    7.7808    2.2323   -1.3580 H   0  0  0  0  0  0  0  0  0  0  0  0
    6.7172    3.5645   -1.7861 H   0  0  0  0  0  0  0  0  0  0  0  0
    6.5679    2.0121   -2.6378 H   0  0  0  0  0  0  0  0  0  0  0  0
   -0.8892   -3.8399    3.0917 H   0  0  0  0  0  0  0  0  0  0  0  0
   -2.8950   -1.2894   -0.1091 H   0  0  0  0  0  0  0  0  0  0  0  0
   -0.1893   -1.9840   -3.3877 H   0  0  0  0  0  0  0  0  0  0  0  0
   -3.1581    2.3795   -2.2254 H   0  0  0  0  0  0  0  0  0  0  0  0
   -1.9499    2.4422    1.9178 H   0  0  0  0  0  0  0  0  0  0  0  0
   -0.5765   -4.4133   -3.1917 H   0  0  0  0  0  0  0  0  0  0  0  0
   -5.4558    2.9003   -1.5657 H   0  0  0  0  0  0  0  0  0  0  0  0
   -4.2518    2.9945    2.5756 H   0  0  0  0  0  0  0  0  0  0  0  0
   -2.1071   -5.2987   -1.4699 H   0  0  0  0  0  0  0  0  0  0  0  0
  1 28  1  0  0  0  0
  2 33  1  0  0  0  0
  3 10  1  0  0  0  0
  3 12  1  0  0  0  0
  4 11  1  0  0  0  0
  4 50  1  0  0  0  0
  5 18  1  0  0  0  0
  5 58  1  0  0  0  0
  6  9  1  0  0  0  0
  6 14  1  0  0  0  0
  6 15  1  0  0  0  0
  7 16  1  0  0  0  0
  7 17  1  0  0  0  0
  7 21  1  0  0  0  0
  8 13  1  0  0  0  0
  8 19  1  0  0  0  0
  8 20  1  0  0  0  0
  9 10  1  0  0  0  0
  9 11  1  0  0  0  0
  9 34  1  0  0  0  0
 10 13  1  0  0  0  0
 10 35  1  0  0  0  0
 11 12  1  0  0  0  0
 11 36  1  0  0  0  0
 12 18  1  0  0  0  0
 12 37  1  0  0  0  0
 13 38  1  0  0  0  0
 13 39  1  0  0  0  0
 14 16  1  0  0  0  0
 14 40  1  0  0  0  0
 14 41  1  0  0  0  0
 15 17  1  0  0  0  0
 15 42  1  0  0  0  0
 15 43  1  0  0  0  0
 16 44  1  0  0  0  0
 16 45  1  0  0  0  0
 17 46  1  0  0  0  0
 17 47  1  0  0  0  0
 18 48  1  0  0  0  0
 18 49  1  0  0  0  0
 19 22  1  0  0  0  0
 19 51  1  0  0  0  0
 19 52  1  0  0  0  0
 20 23  1  0  0  0  0
 20 53  1  0  0  0  0
 20 54  1  0  0  0  0
 21 55  1  0  0  0  0
 21 56  1  0  0  0  0
 21 57  1  0  0  0  0
 22 24  2  0  0  0  0
 22 25  1  0  0  0  0
 23 26  2  0  0  0  0
 23 27  1  0  0  0  0
 24 28  1  0  0  0  0
 24 59  1  0  0  0  0
 25 29  2  0  0  0  0
 25 60  1  0  0  0  0
 26 30  1  0  0  0  0
 26 61  1  0  0  0  0
 27 31  2  0  0  0  0
 27 62  1  0  0  0  0
 28 32  2  0  0  0  0
 29 32  1  0  0  0  0
 29 63  1  0  0  0  0
 30 33  2  0  0  0  0
 30 64  1  0  0  0  0
 31 33  1  0  0  0  0
 31 65  1  0  0  0  0
 32 66  1  0  0  0  0
M  END
> <PUBCHEM_COMPOUND_CID>
28961242

> <PUBCHEM_CONFORMER_RMSD>
1

> <PUBCHEM_CONFORMER_DIVERSEORDER>
1
23
81
120
118
90
70
109
21
100
93
32
115
48
40
28
79
116
26
3
86
67
104
64
42
45
114
61
36
57
59
55
34
18
80
73
41
119
107
98
16
117
56
13
46
69
83
99
94
29
27
51
71
6
101
102
65
75
19
68
96
77
49
84
22
50
54
103
78
37
20
38
105
58
44
91
25
10
39
53
52
112
8
47
9
92
108
97
33
111
43
17
82
72
35
14
110
30
60
31
7
11
63
4
87
76
5
85
2
89
106
15
95
62
66
88
24
74
113
12

> <PUBCHEM_MMFF94_PARTIAL_CHARGES>
43
1 -0.18
10 0.28
11 0.28
12 0.28
13 0.27
14 0.27
15 0.27
16 0.27
17 0.27
18 0.28
19 0.41
2 -0.18
20 0.41
21 0.27
22 -0.14
23 -0.14
24 -0.15
25 -0.15
26 -0.15
27 -0.15
28 0.18
29 -0.15
3 -0.56
30 -0.15
31 -0.15
32 -0.15
33 0.18
4 -0.68
5 -0.68
50 0.4
58 0.4
59 0.15
6 -0.81
60 0.15
61 0.15
62 0.15
63 0.15
64 0.15
65 0.15
66 0.15
7 -0.81
8 -0.81
9 0.27

> <PUBCHEM_EFFECTIVE_ROTOR_COUNT>
10.2

> <PUBCHEM_PHARMACOPHORE_FEATURES>
12
1 3 acceptor
1 4 acceptor
1 4 donor
1 5 acceptor
1 5 donor
1 6 cation
1 7 cation
1 8 cation
5 3 9 10 11 12 rings
6 22 24 25 28 29 32 rings
6 23 26 27 30 31 33 rings
6 6 7 14 15 16 17 rings

> <PUBCHEM_HEAVY_ATOM_COUNT>
33

> <PUBCHEM_ATOM_DEF_STEREO_COUNT>
4

> <PUBCHEM_ATOM_UDEF_STEREO_COUNT>
0

> <PUBCHEM_BOND_DEF_STEREO_COUNT>
0

> <PUBCHEM_BOND_UDEF_STEREO_COUNT>
0

> <PUBCHEM_ISOTOPIC_ATOM_COUNT>
0

> <PUBCHEM_COMPONENT_COUNT>
1

> <PUBCHEM_CACTVS_TAUTO_COUNT>
1

> <PUBCHEM_CONFORMER_ID>
01B9E9DA00000001

> <PUBCHEM_MMFF94_ENERGY>
88.8317

> <PUBCHEM_FEATURE_SELFOVERLAP>
60.903

> <PUBCHEM_SHAPE_FINGERPRINT>
10794284 68 18119552056836366965
11049842 53 17915159244792770854
11112662 9 18122058711699335987
11445158 3 17830159217526433078
11607047 403 18340784645960496859
11621639 254 17759260870017832308
11991303 11 18410576184549559085
12156800 1 17681315176148073059
12160290 23 17911759657802150469
12788726 201 18266169724317932523
13583140 156 17317593289347288085
13782708 43 12678019460247661845
14114206 34 17976230728782744055
14251757 5 18200587120217694029
14932701 244 17980749756217549116
14955137 171 17691127458342895847
15264996 19 18411696604689697401
16114785 44 18263091070453836786
19319366 153 18188485766398998272
20505436 4 18334579023290824168
21120745 212 18195807603327836685
21756936 100 18187089498749524552
21772528 278 18334304145231029349
23558518 356 18120652684871608748
249057 3 18198622134653160142
27425 322 18260274044760413964
340366 18 18196646299109420014
35225 105 17845351346266506019
3552219 110 15796267576454924240
3610482 184 18042140872512460956
4058900 60 17984993591996663729
469060 322 14707211075413462219
50150288 127 18412829096786011419
563151 248 18336833004900020300
563151 40 18335147496339715834
56638632 10 16031848009693062313
5912855 24 18335978748642405578

> <PUBCHEM_SHAPE_MULTIPOLES>
650.31
12.19
6.12
2.54
9.7
4.16
-0.58
-16.79
1.28
-8.3
0.92
0.08
2.42
-3.71

> <PUBCHEM_SHAPE_SELFOVERLAP>
1352.192

> <PUBCHEM_SHAPE_VOLUME>
372.2

> <PUBCHEM_COORDINATE_TYPE>
2
5
10

$$$$
