45361212
  -OEChem-12032416383D

 70 73  0     1  0  0  0  0  0999 V2000
    7.2725   -2.1903   -0.4192 S   0  0  0  0  0  0  0  0  0  0  0  0
    0.0965   -0.2552    1.1740 O   0  0  0  0  0  0  0  0  0  0  0  0
   -6.2204    0.9611   -0.2130 O   0  0  0  0  0  0  0  0  0  0  0  0
   -5.6213   -5.0005    0.8231 O   0  0  0  0  0  0  0  0  0  0  0  0
    8.5398   -1.4728   -0.3899 O   0  0  0  0  0  0  0  0  0  0  0  0
    7.1131   -3.4076    0.3634 O   0  0  0  0  0  0  0  0  0  0  0  0
   -1.6482    2.6160   -0.7501 N   0  0  1  0  0  0  0  0  0  0  0  0
    1.7554    1.6069    0.1379 N   0  0  1  0  0  0  0  0  0  0  0  0
   -1.5280    1.2376    1.7815 N   0  0  0  0  0  0  0  0  0  0  0  0
   -5.2588   -1.1105   -0.6392 N   0  0  0  0  0  0  0  0  0  0  0  0
   -0.2177    2.8794   -0.4782 C   0  0  1  0  0  0  0  0  0  0  0  0
    0.4733    2.0978    0.6775 C   0  0  1  0  0  0  0  0  0  0  0  0
    0.7107    2.5774   -1.6694 C   0  0  0  0  0  0  0  0  0  0  0  0
    2.0728    2.4276   -1.0254 C   0  0  0  0  0  0  0  0  0  0  0  0
   -2.5653    2.9843    0.3645 C   0  0  2  0  0  0  0  0  0  0  0  0
   -0.3142    0.9039    1.2112 C   0  0  0  0  0  0  0  0  0  0  0  0
   -2.0755    2.5796    1.7686 C   0  0  0  0  0  0  0  0  0  0  0  0
   -3.9536    2.3441    0.1549 C   0  0  0  0  0  0  0  0  0  0  0  0
    2.8327    1.6068    1.1194 C   0  0  0  0  0  0  0  0  0  0  0  0
   -2.0733    3.2718   -1.9983 C   0  0  0  0  0  0  0  0  0  0  0  0
   -3.8537    0.8652   -0.1652 C   0  0  0  0  0  0  0  0  0  0  0  0
    3.9396    0.6607    0.7367 C   0  0  0  0  0  0  0  0  0  0  0  0
   -5.2196    0.2511   -0.3406 C   0  0  0  0  0  0  0  0  0  0  0  0
   -6.5472   -1.7689   -0.8697 C   0  0  0  0  0  0  0  0  0  0  0  0
   -4.0852   -1.9796   -0.7968 C   0  0  0  0  0  0  0  0  0  0  0  0
   -6.7027   -2.9908    0.0294 C   0  0  0  0  0  0  0  0  0  0  0  0
   -4.1972   -3.2072    0.1026 C   0  0  0  0  0  0  0  0  0  0  0  0
   -5.5169   -3.9446   -0.1244 C   0  0  0  0  0  0  0  0  0  0  0  0
    3.7740   -0.7134    0.9108 C   0  0  0  0  0  0  0  0  0  0  0  0
    5.1306    1.1581    0.2078 C   0  0  0  0  0  0  0  0  0  0  0  0
    4.7994   -1.5899    0.5563 C   0  0  0  0  0  0  0  0  0  0  0  0
    6.1561    0.2816   -0.1466 C   0  0  0  0  0  0  0  0  0  0  0  0
    5.9905   -1.0924    0.0276 C   0  0  0  0  0  0  0  0  0  0  0  0
    6.9418   -2.5872   -2.1211 C   0  0  0  0  0  0  0  0  0  0  0  0
   -0.1017    3.9518   -0.2569 H   0  0  0  0  0  0  0  0  0  0  0  0
    0.6583    2.7909    1.5090 H   0  0  0  0  0  0  0  0  0  0  0  0
    0.4239    1.6406   -2.1656 H   0  0  0  0  0  0  0  0  0  0  0  0
    0.7107    3.3796   -2.4146 H   0  0  0  0  0  0  0  0  0  0  0  0
    2.4687    3.4126   -0.7476 H   0  0  0  0  0  0  0  0  0  0  0  0
    2.7781    1.9378   -1.7036 H   0  0  0  0  0  0  0  0  0  0  0  0
   -2.6998    4.0748    0.3858 H   0  0  0  0  0  0  0  0  0  0  0  0
   -2.8881    2.6054    2.5033 H   0  0  0  0  0  0  0  0  0  0  0  0
   -1.3175    3.2822    2.1291 H   0  0  0  0  0  0  0  0  0  0  0  0
   -4.5741    2.4990    1.0478 H   0  0  0  0  0  0  0  0  0  0  0  0
   -4.4896    2.8639   -0.6488 H   0  0  0  0  0  0  0  0  0  0  0  0
    3.2222    2.6173    1.3027 H   0  0  0  0  0  0  0  0  0  0  0  0
    2.4568    1.2674    2.0951 H   0  0  0  0  0  0  0  0  0  0  0  0
   -2.0649    0.4990    2.2255 H   0  0  0  0  0  0  0  0  0  0  0  0
   -3.1165    3.0565   -2.2456 H   0  0  0  0  0  0  0  0  0  0  0  0
   -1.5098    2.9002   -2.8599 H   0  0  0  0  0  0  0  0  0  0  0  0
   -1.9523    4.3597   -1.9452 H   0  0  0  0  0  0  0  0  0  0  0  0
   -3.3896    0.3108    0.6481 H   0  0  0  0  0  0  0  0  0  0  0  0
   -3.2954    0.6973   -1.0915 H   0  0  0  0  0  0  0  0  0  0  0  0
   -6.5795   -2.0627   -1.9256 H   0  0  0  0  0  0  0  0  0  0  0  0
   -7.3764   -1.0755   -0.6978 H   0  0  0  0  0  0  0  0  0  0  0  0
   -3.1504   -1.4601   -0.5808 H   0  0  0  0  0  0  0  0  0  0  0  0
   -4.0487   -2.2822   -1.8502 H   0  0  0  0  0  0  0  0  0  0  0  0
   -6.7829   -2.6752    1.0780 H   0  0  0  0  0  0  0  0  0  0  0  0
   -7.6378   -3.5147   -0.2006 H   0  0  0  0  0  0  0  0  0  0  0  0
   -4.1241   -2.9044    1.1556 H   0  0  0  0  0  0  0  0  0  0  0  0
   -3.3549   -3.8863   -0.0747 H   0  0  0  0  0  0  0  0  0  0  0  0
   -5.5209   -4.3897   -1.1265 H   0  0  0  0  0  0  0  0  0  0  0  0
    2.8515   -1.1142    1.3217 H   0  0  0  0  0  0  0  0  0  0  0  0
    5.2710    2.2261    0.0642 H   0  0  0  0  0  0  0  0  0  0  0  0
    4.6456   -2.6565    0.6939 H   0  0  0  0  0  0  0  0  0  0  0  0
    7.0725    0.6898   -0.5634 H   0  0  0  0  0  0  0  0  0  0  0  0
   -6.4679   -5.4523    0.6658 H   0  0  0  0  0  0  0  0  0  0  0  0
    7.7129   -3.2809   -2.4633 H   0  0  0  0  0  0  0  0  0  0  0  0
    5.9597   -3.0585   -2.1914 H   0  0  0  0  0  0  0  0  0  0  0  0
    6.9763   -1.6706   -2.7131 H   0  0  0  0  0  0  0  0  0  0  0  0
  1  5  2  0  0  0  0
  1  6  2  0  0  0  0
  1 33  1  0  0  0  0
  1 34  1  0  0  0  0
  2 16  2  0  0  0  0
  3 23  2  0  0  0  0
  4 28  1  0  0  0  0
  4 67  1  0  0  0  0
  7 11  1  0  0  0  0
  7 15  1  0  0  0  0
  7 20  1  0  0  0  0
  8 12  1  0  0  0  0
  8 14  1  0  0  0  0
  8 19  1  0  0  0  0
  9 16  1  0  0  0  0
  9 17  1  0  0  0  0
  9 48  1  0  0  0  0
 10 23  1  0  0  0  0
 10 24  1  0  0  0  0
 10 25  1  0  0  0  0
 11 12  1  0  0  0  0
 11 13  1  0  0  0  0
 11 35  1  0  0  0  0
 12 16  1  0  0  0  0
 12 36  1  0  0  0  0
 13 14  1  0  0  0  0
 13 37  1  0  0  0  0
 13 38  1  0  0  0  0
 14 39  1  0  0  0  0
 14 40  1  0  0  0  0
 15 17  1  0  0  0  0
 15 18  1  0  0  0  0
 15 41  1  0  0  0  0
 17 42  1  0  0  0  0
 17 43  1  0  0  0  0
 18 21  1  0  0  0  0
 18 44  1  0  0  0  0
 18 45  1  0  0  0  0
 19 22  1  0  0  0  0
 19 46  1  0  0  0  0
 19 47  1  0  0  0  0
 20 49  1  0  0  0  0
 20 50  1  0  0  0  0
 20 51  1  0  0  0  0
 21 23  1  0  0  0  0
 21 52  1  0  0  0  0
 21 53  1  0  0  0  0
 22 29  2  0  0  0  0
 22 30  1  0  0  0  0
 24 26  1  0  0  0  0
 24 54  1  0  0  0  0
 24 55  1  0  0  0  0
 25 27  1  0  0  0  0
 25 56  1  0  0  0  0
 25 57  1  0  0  0  0
 26 28  1  0  0  0  0
 26 58  1  0  0  0  0
 26 59  1  0  0  0  0
 27 28  1  0  0  0  0
 27 60  1  0  0  0  0
 27 61  1  0  0  0  0
 28 62  1  0  0  0  0
 29 31  1  0  0  0  0
 29 63  1  0  0  0  0
 30 32  2  0  0  0  0
 30 64  1  0  0  0  0
 31 33  2  0  0  0  0
 31 65  1  0  0  0  0
 32 33  1  0  0  0  0
 32 66  1  0  0  0  0
 34 68  1  0  0  0  0
 34 69  1  0  0  0  0
 34 70  1  0  0  0  0
M  END
> <PUBCHEM_COMPOUND_CID>
45361212

> <PUBCHEM_CONFORMER_RMSD>
1.2

> <PUBCHEM_CONFORMER_DIVERSEORDER>
1
222
7
107
133
58
171
232
21
166
178
227
208
235
229
190
64
214
67
248
210
92
187
148
226
53
205
38
54
221
183
157
66
17
120
146
167
62
230
130
220
84
52
132
204
86
49
43
246
153
76
244
143
175
110
60
165
90
45
242
140
135
87
149
20
137
32
73
93
61
206
161
223
104
71
243
144
238
35
117
216
160
96
24
3
55
225
70
5
193
109
195
145
2
125
231
217
170
102
99
134
111
78
39
40
184
69
219
201
126
13
164
63
101
128
162
11
196
182
213
186
169
202
245
15
103
100
18
6
106
239
108
23
30
26
156
124
179
116
72
79
83
151
224
199
174
121
138
136
37
118
22
234
154
180
88
188
36
89
57
105
142
228
25
177
74
215
14
19
91
159
173
48
123
115
44
75
197
141
155
10
152
129
29
247
198
46
31
218
150
98
185
82
189
207
112
97
56
94
85
191
209
237
68
147
139
34
240
77
41
50
181
33
211
212
4
47
12
233
158
131
42
127
236
119
27
168
192
122
176
59
113
9
8
80
65
51
95
241
28
172
203
200
114
194
163
81
16

> <PUBCHEM_MMFF94_PARTIAL_CHARGES>
36
1 1.2
10 -0.66
11 0.27
12 0.33
14 0.27
15 0.27
16 0.57
17 0.3
19 0.41
2 -0.57
20 0.27
21 0.06
22 -0.14
23 0.57
24 0.3
25 0.3
28 0.28
29 -0.15
3 -0.57
30 -0.15
31 -0.15
32 -0.15
33 -0.01
34 0.11
4 -0.68
48 0.37
5 -0.65
6 -0.65
63 0.15
64 0.15
65 0.15
66 0.15
67 0.4
7 -0.81
8 -0.81
9 -0.73

> <PUBCHEM_EFFECTIVE_ROTOR_COUNT>
9.6

> <PUBCHEM_PHARMACOPHORE_FEATURES>
13
1 2 acceptor
1 3 acceptor
1 4 acceptor
1 4 donor
1 5 acceptor
1 6 acceptor
1 7 cation
1 8 cation
1 9 donor
5 8 11 12 13 14 rings
6 10 24 25 26 27 28 rings
6 22 29 30 31 32 33 rings
7 7 9 11 12 15 16 17 rings

> <PUBCHEM_HEAVY_ATOM_COUNT>
34

> <PUBCHEM_ATOM_DEF_STEREO_COUNT>
3

> <PUBCHEM_ATOM_UDEF_STEREO_COUNT>
0

> <PUBCHEM_BOND_DEF_STEREO_COUNT>
0

> <PUBCHEM_BOND_UDEF_STEREO_COUNT>
0

> <PUBCHEM_ISOTOPIC_ATOM_COUNT>
0

> <PUBCHEM_COMPONENT_COUNT>
1

> <PUBCHEM_CACTVS_TAUTO_COUNT>
3

> <PUBCHEM_CONFORMER_ID>
02B4283C00000001

> <PUBCHEM_MMFF94_ENERGY>
79.5919

> <PUBCHEM_FEATURE_SELFOVERLAP>
66.027

> <PUBCHEM_SHAPE_FINGERPRINT>
10042902 136 18408322189664843156
10391435 84 18339065073344200416
10677394 325 17532109348657471646
11315621 246 18335979787876512359
11387372 6 18342738468862441383
11497681 19 18410293640527067300
117089 54 18118969333186785827
11761917 116 18410859893368413878
12422481 6 17775280599187146575
12522641 68 17176287305856757893
12633257 1 15983979422864446725
13347071 3 18342458149116921270
1361 4 18340486763553944662
13690498 29 17968093058383958389
13782708 43 18341049623729849488
13911987 19 15213301894092016089
13947930 73 17917993914164107214
13947947 140 18272653437334836583
14040221 137 12319189343422517643
14117953 113 18262507118954779149
14211702 104 18130512968021098326
14420673 8 18411417350258915175
15082195 135 18042131028342150348
15230672 131 18336538301761908083
15352257 5 18272651204257167710
15510800 12 18130792248016495511
15705408 1 17385452037642444260
15950262 2 8214147369145464592
16067689 391 18263086668614486187
16112460 7 12247093361003723354
16994733 274 8214133041640779356
17909252 39 18049723220265848361
18603816 31 18341060631541008939
208703 8 18410006680191252431
21424621 283 9727630614069294260
21756936 100 8718822081250678473
2838139 119 8646497318830164041
437795 70 18260829327670003067
4435113 14 17844256120789433614
44802255 64 12757161155382579624
54039377 194 18335146406035370291
54583773 228 18411141373193713108
7970288 3 18192989555532319919

> <PUBCHEM_SHAPE_MULTIPOLES>
654.28
21.61
5.6
1.46
19.42
3.93
0.27
28.78
4
-6.82
0.65
0.47
-0.67
1.19

> <PUBCHEM_SHAPE_SELFOVERLAP>
1357.473

> <PUBCHEM_SHAPE_VOLUME>
374.2

> <PUBCHEM_COORDINATE_TYPE>
2
5
10

$$$$
