45784178
  -OEChem-12032416283D

 38 41  0     1  0  0  0  0  0999 V2000
    7.1837    1.8111   -0.3982 Cl  0  0  0  0  0  0  0  0  0  0  0  0
    2.4892   -1.5514    0.1886 O   0  0  0  0  0  0  0  0  0  0  0  0
   -2.0410   -0.2577   -0.1407 N   0  0  1  0  0  0  0  0  0  0  0  0
    2.1054    0.6818    0.1411 N   0  0  0  0  0  0  0  0  0  0  0  0
   -4.9393    1.3597    0.1501 N   0  0  0  0  0  0  0  0  0  0  0  0
    0.1438   -0.9224    0.3920 C   0  0  1  0  0  0  0  0  0  0  0  0
   -0.5469   -0.3684    1.6503 C   0  0  0  0  0  0  0  0  0  0  0  0
   -0.7343   -0.4483   -0.7738 C   0  0  0  0  0  0  0  0  0  0  0  0
   -1.7510    0.4059    1.1303 C   0  0  0  0  0  0  0  0  0  0  0  0
    1.5938   -0.5257    0.2368 C   0  0  0  0  0  0  0  0  0  0  0  0
   -2.9539    0.5126   -0.9724 C   0  0  0  0  0  0  0  0  0  0  0  0
   -4.3863    0.3388   -0.5424 C   0  0  0  0  0  0  0  0  0  0  0  0
    3.4533    0.4454    0.0186 C   0  0  0  0  0  0  0  0  0  0  0  0
    3.6921   -0.9206    0.0473 C   0  0  0  0  0  0  0  0  0  0  0  0
   -5.0556   -0.8297   -0.8688 C   0  0  0  0  0  0  0  0  0  0  0  0
    4.5400    1.3206   -0.1207 C   0  0  0  0  0  0  0  0  0  0  0  0
    4.9475   -1.5071   -0.0529 C   0  0  0  0  0  0  0  0  0  0  0  0
    5.8237    0.7656   -0.2248 C   0  0  0  0  0  0  0  0  0  0  0  0
    6.0208   -0.6204   -0.1913 C   0  0  0  0  0  0  0  0  0  0  0  0
   -6.3777   -0.9586   -0.4580 C   0  0  0  0  0  0  0  0  0  0  0  0
   -6.2259    1.1984    0.5325 C   0  0  0  0  0  0  0  0  0  0  0  0
   -6.9815    0.0703    0.2563 C   0  0  0  0  0  0  0  0  0  0  0  0
    0.0940   -2.0195    0.4431 H   0  0  0  0  0  0  0  0  0  0  0  0
   -0.8793   -1.2032    2.2801 H   0  0  0  0  0  0  0  0  0  0  0  0
    0.1041    0.2682    2.2588 H   0  0  0  0  0  0  0  0  0  0  0  0
   -0.3565    0.4895   -1.2028 H   0  0  0  0  0  0  0  0  0  0  0  0
   -0.7749   -1.1984   -1.5711 H   0  0  0  0  0  0  0  0  0  0  0  0
   -2.5882    0.3521    1.8334 H   0  0  0  0  0  0  0  0  0  0  0  0
   -1.4775    1.4597    0.9903 H   0  0  0  0  0  0  0  0  0  0  0  0
   -2.6904    1.5786   -0.9927 H   0  0  0  0  0  0  0  0  0  0  0  0
   -2.8887    0.1742   -2.0159 H   0  0  0  0  0  0  0  0  0  0  0  0
   -4.5762   -1.6269   -1.4268 H   0  0  0  0  0  0  0  0  0  0  0  0
    4.3833    2.3944   -0.1464 H   0  0  0  0  0  0  0  0  0  0  0  0
    5.0891   -2.5803   -0.0259 H   0  0  0  0  0  0  0  0  0  0  0  0
    7.0250   -1.0319   -0.2738 H   0  0  0  0  0  0  0  0  0  0  0  0
   -6.9366   -1.8591   -0.6941 H   0  0  0  0  0  0  0  0  0  0  0  0
   -6.6502    2.0290    1.0869 H   0  0  0  0  0  0  0  0  0  0  0  0
   -8.0109   -0.0085    0.5866 H   0  0  0  0  0  0  0  0  0  0  0  0
  1 18  1  0  0  0  0
  2 10  1  0  0  0  0
  2 14  1  0  0  0  0
  3  8  1  0  0  0  0
  3  9  1  0  0  0  0
  3 11  1  0  0  0  0
  4 10  2  0  0  0  0
  4 13  1  0  0  0  0
  5 12  1  0  0  0  0
  5 21  2  0  0  0  0
  6  7  1  0  0  0  0
  6  8  1  0  0  0  0
  6 10  1  0  0  0  0
  6 23  1  0  0  0  0
  7  9  1  0  0  0  0
  7 24  1  0  0  0  0
  7 25  1  0  0  0  0
  8 26  1  0  0  0  0
  8 27  1  0  0  0  0
  9 28  1  0  0  0  0
  9 29  1  0  0  0  0
 11 12  1  0  0  0  0
 11 30  1  0  0  0  0
 11 31  1  0  0  0  0
 12 15  2  0  0  0  0
 13 14  2  0  0  0  0
 13 16  1  0  0  0  0
 14 17  1  0  0  0  0
 15 20  1  0  0  0  0
 15 32  1  0  0  0  0
 16 18  2  0  0  0  0
 16 33  1  0  0  0  0
 17 19  2  0  0  0  0
 17 34  1  0  0  0  0
 18 19  1  0  0  0  0
 19 35  1  0  0  0  0
 20 22  2  0  0  0  0
 20 36  1  0  0  0  0
 21 22  1  0  0  0  0
 21 37  1  0  0  0  0
 22 38  1  0  0  0  0
M  END
> <PUBCHEM_COMPOUND_CID>
45784178

> <PUBCHEM_CONFORMER_RMSD>
0.6

> <PUBCHEM_CONFORMER_DIVERSEORDER>
1
100
137
176
49
168
155
180
156
38
111
177
178
131
135
48
99
47
96
128
127
132
167
42
159
36
179
163
23
110
138
44
139
120
106
74
140
76
171
61
30
114
147
50
142
124
165
64
33
161
125
105
94
154
29
122
126
16
160
107
91
113
112
146
40
55
103
89
123
88
54
20
145
46
166
157
104
121
164
175
162
143
70
130
129
41
134
152
53
170
4
116
172
101
3
67
119
133
81
75
97
83
9
15
60
79
109
141
34
108
32
10
149
144
148
95
85
151
58
57
118
27
6
5
68
153
2
87
7
43
35
39
11
12
136
115
77
71
174
62
117
22
150
25
69
14
13
158
86
63
8
52
17
31
56
92
98
78
45
51
169
173
93
65
21
26
72
37
19
66
59
90
18
73
102
84
28
24
82
80

> <PUBCHEM_MMFF94_PARTIAL_CHARGES>
28
1 -0.18
10 0.3
11 0.41
12 0.17
13 0.23
14 0.14
15 -0.15
16 -0.15
17 -0.15
18 0.18
19 -0.15
2 -0.28
20 -0.15
21 0.16
22 -0.15
3 -0.81
32 0.15
33 0.15
34 0.15
35 0.15
36 0.15
37 0.15
38 0.15
4 -0.57
5 -0.62
6 0.18
8 0.27
9 0.27

> <PUBCHEM_EFFECTIVE_ROTOR_COUNT>
4

> <PUBCHEM_PHARMACOPHORE_FEATURES>
6
1 3 cation
1 5 acceptor
5 2 4 10 13 14 rings
5 3 6 7 8 9 rings
6 13 14 16 17 18 19 rings
6 5 12 15 20 21 22 rings

> <PUBCHEM_HEAVY_ATOM_COUNT>
22

> <PUBCHEM_ATOM_DEF_STEREO_COUNT>
1

> <PUBCHEM_ATOM_UDEF_STEREO_COUNT>
0

> <PUBCHEM_BOND_DEF_STEREO_COUNT>
0

> <PUBCHEM_BOND_UDEF_STEREO_COUNT>
0

> <PUBCHEM_ISOTOPIC_ATOM_COUNT>
0

> <PUBCHEM_COMPONENT_COUNT>
1

> <PUBCHEM_CACTVS_TAUTO_COUNT>
1

> <PUBCHEM_CONFORMER_ID>
02BA9C7200000001

> <PUBCHEM_MMFF94_ENERGY>
44.1536

> <PUBCHEM_FEATURE_SELFOVERLAP>
30.566

> <PUBCHEM_SHAPE_FINGERPRINT>
10 15 15140963989298000564
10299344 5 18202563986717368487
10411042 1 17976256834696911402
10595046 47 18412543185092103147
106641 1 14779271937937274172
11315181 36 18411418424195567245
11646440 116 17167587076561936045
12166972 35 18409168813787308364
12236239 1 18202282489542946318
12730499 353 17968097495438264962
12788726 201 16845578569549805427
12916748 109 17095521769047217052
13167372 99 18340487759738755912
13533116 47 18131349670774429870
14170010 4 18187365445939464028
1420 363 17385726881178325707
14251752 14 17418093196100816321
14251764 18 18260827112025611628
14617045 38 14189581840401365460
14849402 71 18336551628392118325
14856354 85 17489590095765762277
14933364 13 18413389834746872069
15183329 4 17632580439668866817
15537594 2 15841547462103726023
18006028 8 10952053355139574371
18335252 98 18336833082173047691
19489759 90 11386365933628070935
200 152 18131067125664722666
20157964 124 18407478865058332274
20281389 69 17676202468463593228
20645477 70 18338515240901636214
21150785 3 18060140963979009172
220451 1 17418091018542198887
221357 26 18409445873716785556
22224240 67 16805322218851173418
23035841 295 17846497028681606087
23081809 10 18130779049624075471
23198884 109 18410857655447242019
23424782 7 18335423525514621379
23536379 177 18342738494632302955
23559900 14 18338512053402354465
23569943 247 17388810890545349538
23622692 88 14562533989624726658
28498 318 10807944751285311553
2916195 48 17676202459562396293
29717793 49 17775290439669247838
3004659 81 16558749040047173912
335352 9 18408327679972776118
34797466 226 15339119074647000520
3545911 37 18260266352078230430
4073 2 18186805819911292114
4325135 7 18410292523798114447
4340502 62 16370442246420955370
445580 37 16988853752380290305
5283156 175 16988848250832982862
542803 24 18272929414631465375
5758199 1 18187367631692448851
59682541 35 17240490234450475881
59755656 520 17822006531958988131
9996256 80 18408882923646767503

> <PUBCHEM_SHAPE_MULTIPOLES>
433.81
20.28
1.46
0.97
4.63
0.13
-0.18
5.05
2.66
-1.46
0.04
0.66
-0.02
-0.76

> <PUBCHEM_SHAPE_SELFOVERLAP>
942.991

> <PUBCHEM_SHAPE_VOLUME>
239.6

> <PUBCHEM_COORDINATE_TYPE>
2
5
10

$$$$
