38029875
  -OEChem-12032416223D

 59 61  0     1  0  0  0  0  0999 V2000
   -0.6323    0.3649    2.6398 O   0  0  0  0  0  0  0  0  0  0  0  0
    1.0545    0.5474    1.0519 N   0  0  0  0  0  0  0  0  0  0  0  0
    3.7911    0.1479    0.1969 N   0  0  0  0  0  0  0  0  0  0  0  0
   -2.9659    0.0639   -3.5255 N   0  0  0  0  0  0  0  0  0  0  0  0
    5.8167    0.9402   -0.7449 N   0  0  0  0  0  0  0  0  0  0  0  0
    6.8710   -1.6468   -0.4962 N   0  0  0  0  0  0  0  0  0  0  0  0
   -3.7527   -0.9482   -0.0344 C   0  0  2  0  0  0  0  0  0  0  0  0
   -3.2310   -0.3494    1.2806 C   0  0  0  0  0  0  0  0  0  0  0  0
   -4.8804   -0.0632   -0.6217 C   0  0  1  0  0  0  0  0  0  0  0  0
   -2.6840    1.0784    1.0941 C   0  0  2  0  0  0  0  0  0  0  0  0
   -4.2231   -2.3869    0.2014 C   0  0  0  0  0  0  0  0  0  0  0  0
   -3.6299    1.9427    0.2853 C   0  0  0  0  0  0  0  0  0  0  0  0
   -4.6138    1.4155   -0.4649 C   0  0  0  0  0  0  0  0  0  0  0  0
   -1.2867    1.0567    0.4646 C   0  0  0  0  0  0  0  0  0  0  0  0
   -5.1220   -0.3845   -2.1010 C   0  0  0  0  0  0  0  0  0  0  0  0
   -3.0352   -3.3438    0.1899 C   0  0  0  0  0  0  0  0  0  0  0  0
   -4.9865   -2.4879    1.5180 C   0  0  0  0  0  0  0  0  0  0  0  0
   -0.2681    0.6231    1.4902 C   0  0  0  0  0  0  0  0  0  0  0  0
   -3.4479    3.4311    0.3944 C   0  0  0  0  0  0  0  0  0  0  0  0
    2.1003    0.1400    1.9865 C   0  0  0  0  0  0  0  0  0  0  0  0
    1.4836    0.8441   -0.3167 C   0  0  0  0  0  0  0  0  0  0  0  0
    3.2157   -0.6382    1.2919 C   0  0  0  0  0  0  0  0  0  0  0  0
    2.9680    1.1980   -0.4080 C   0  0  0  0  0  0  0  0  0  0  0  0
   -3.9165   -0.1320   -2.8897 C   0  0  0  0  0  0  0  0  0  0  0  0
    5.0979   -0.0768   -0.2294 C   0  0  0  0  0  0  0  0  0  0  0  0
    5.6158   -1.3474   -0.1072 C   0  0  0  0  0  0  0  0  0  0  0  0
    7.0719    0.6409   -1.1339 C   0  0  0  0  0  0  0  0  0  0  0  0
    7.5898   -0.6297   -1.0119 C   0  0  0  0  0  0  0  0  0  0  0  0
   -2.9132   -0.9803   -0.7376 H   0  0  0  0  0  0  0  0  0  0  0  0
   -2.4743   -0.9986    1.7309 H   0  0  0  0  0  0  0  0  0  0  0  0
   -4.0433   -0.2605    2.0138 H   0  0  0  0  0  0  0  0  0  0  0  0
   -2.6323    1.5306    2.0947 H   0  0  0  0  0  0  0  0  0  0  0  0
   -5.8189   -0.2597   -0.0877 H   0  0  0  0  0  0  0  0  0  0  0  0
   -4.8923   -2.7068   -0.6038 H   0  0  0  0  0  0  0  0  0  0  0  0
   -5.2932    2.0868   -0.9867 H   0  0  0  0  0  0  0  0  0  0  0  0
   -1.0080    2.0661    0.1445 H   0  0  0  0  0  0  0  0  0  0  0  0
   -1.2375    0.3985   -0.4079 H   0  0  0  0  0  0  0  0  0  0  0  0
   -5.9446    0.2302   -2.4886 H   0  0  0  0  0  0  0  0  0  0  0  0
   -5.4393   -1.4236   -2.2333 H   0  0  0  0  0  0  0  0  0  0  0  0
   -2.3188   -3.1285    0.9886 H   0  0  0  0  0  0  0  0  0  0  0  0
   -2.5024   -3.2955   -0.7659 H   0  0  0  0  0  0  0  0  0  0  0  0
   -3.3754   -4.3767    0.3237 H   0  0  0  0  0  0  0  0  0  0  0  0
   -4.3379   -2.4229    2.3980 H   0  0  0  0  0  0  0  0  0  0  0  0
   -5.4711   -3.4704    1.5779 H   0  0  0  0  0  0  0  0  0  0  0  0
   -5.7850   -1.7447    1.6019 H   0  0  0  0  0  0  0  0  0  0  0  0
   -3.4785    3.7421    1.4437 H   0  0  0  0  0  0  0  0  0  0  0  0
   -4.2360    3.9805   -0.1319 H   0  0  0  0  0  0  0  0  0  0  0  0
   -2.4912    3.7429   -0.0339 H   0  0  0  0  0  0  0  0  0  0  0  0
    1.6698   -0.4611    2.7945 H   0  0  0  0  0  0  0  0  0  0  0  0
    2.4971    1.0577    2.4379 H   0  0  0  0  0  0  0  0  0  0  0  0
    0.8939    1.6638   -0.7346 H   0  0  0  0  0  0  0  0  0  0  0  0
    1.2713   -0.0524   -0.9122 H   0  0  0  0  0  0  0  0  0  0  0  0
    3.9760   -0.8780    2.0453 H   0  0  0  0  0  0  0  0  0  0  0  0
    2.8164   -1.5790    0.8935 H   0  0  0  0  0  0  0  0  0  0  0  0
    3.2269    1.3331   -1.4651 H   0  0  0  0  0  0  0  0  0  0  0  0
    3.1633    2.1463    0.1073 H   0  0  0  0  0  0  0  0  0  0  0  0
    5.0613   -2.1912    0.2857 H   0  0  0  0  0  0  0  0  0  0  0  0
    7.6499    1.4576   -1.5482 H   0  0  0  0  0  0  0  0  0  0  0  0
    8.5985   -0.8694   -1.3248 H   0  0  0  0  0  0  0  0  0  0  0  0
  1 18  2  0  0  0  0
  2 18  1  0  0  0  0
  2 20  1  0  0  0  0
  2 21  1  0  0  0  0
  3 22  1  0  0  0  0
  3 23  1  0  0  0  0
  3 25  1  0  0  0  0
  4 24  3  0  0  0  0
  5 25  2  0  0  0  0
  5 27  1  0  0  0  0
  6 26  2  0  0  0  0
  6 28  1  0  0  0  0
  7  8  1  0  0  0  0
  7  9  1  0  0  0  0
  7 11  1  0  0  0  0
  7 29  1  0  0  0  0
  8 10  1  0  0  0  0
  8 30  1  0  0  0  0
  8 31  1  0  0  0  0
  9 13  1  0  0  0  0
  9 15  1  0  0  0  0
  9 33  1  0  0  0  0
 10 12  1  0  0  0  0
 10 14  1  0  0  0  0
 10 32  1  0  0  0  0
 11 16  1  0  0  0  0
 11 17  1  0  0  0  0
 11 34  1  0  0  0  0
 12 13  2  0  0  0  0
 12 19  1  0  0  0  0
 13 35  1  0  0  0  0
 14 18  1  0  0  0  0
 14 36  1  0  0  0  0
 14 37  1  0  0  0  0
 15 24  1  0  0  0  0
 15 38  1  0  0  0  0
 15 39  1  0  0  0  0
 16 40  1  0  0  0  0
 16 41  1  0  0  0  0
 16 42  1  0  0  0  0
 17 43  1  0  0  0  0
 17 44  1  0  0  0  0
 17 45  1  0  0  0  0
 19 46  1  0  0  0  0
 19 47  1  0  0  0  0
 19 48  1  0  0  0  0
 20 22  1  0  0  0  0
 20 49  1  0  0  0  0
 20 50  1  0  0  0  0
 21 23  1  0  0  0  0
 21 51  1  0  0  0  0
 21 52  1  0  0  0  0
 22 53  1  0  0  0  0
 22 54  1  0  0  0  0
 23 55  1  0  0  0  0
 23 56  1  0  0  0  0
 25 26  1  0  0  0  0
 26 57  1  0  0  0  0
 27 28  2  0  0  0  0
 27 58  1  0  0  0  0
 28 59  1  0  0  0  0
M  END
> <PUBCHEM_COMPOUND_CID>
38029875

> <PUBCHEM_CONFORMER_RMSD>
1.2

> <PUBCHEM_CONFORMER_DIVERSEORDER>
1
67
44
47
61
57
80
10
49
54
28
19
39
65
14
42
72
75
21
82
64
20
40
46
59
52
55
27
35
69
60
26
50
48
8
11
29
66
73
4
41
71
76
86
15
9
31
16
6
78
77
37
68
22
30
84
5
53
74
3
58
2
18
51
85
36
79
81
33
13
83
43
25
7
12
34
63
24
23
45
32
87
56
70
62
17
38

> <PUBCHEM_MMFF94_PARTIAL_CHARGES>
27
1 -0.57
10 0.14
12 -0.28
13 -0.29
14 0.06
15 0.2
18 0.57
19 0.14
2 -0.66
20 0.3
21 0.3
22 0.37
23 0.37
24 0.36
25 0.41
26 0.16
27 0.16
28 0.16
3 -0.84
35 0.15
4 -0.56
5 -0.62
57 0.15
58 0.15
59 0.15
6 -0.62
9 0.14

> <PUBCHEM_EFFECTIVE_ROTOR_COUNT>
8

> <PUBCHEM_PHARMACOPHORE_FEATURES>
8
1 1 acceptor
1 4 acceptor
1 6 acceptor
3 11 16 17 hydrophobe
3 3 5 25 cation
6 2 3 20 21 22 23 rings
6 5 6 25 26 27 28 rings
6 7 8 9 10 12 13 rings

> <PUBCHEM_HEAVY_ATOM_COUNT>
28

> <PUBCHEM_ATOM_DEF_STEREO_COUNT>
3

> <PUBCHEM_ATOM_UDEF_STEREO_COUNT>
0

> <PUBCHEM_BOND_DEF_STEREO_COUNT>
0

> <PUBCHEM_BOND_UDEF_STEREO_COUNT>
0

> <PUBCHEM_ISOTOPIC_ATOM_COUNT>
0

> <PUBCHEM_COMPONENT_COUNT>
1

> <PUBCHEM_CACTVS_TAUTO_COUNT>
1

> <PUBCHEM_CONFORMER_ID>
02444A3300000001

> <PUBCHEM_MMFF94_ENERGY>
80.1336

> <PUBCHEM_FEATURE_SELFOVERLAP>
40.597

> <PUBCHEM_SHAPE_FINGERPRINT>
10 15 10015864292781506226
10291535 26 14418132903193844893
10554248 39 16081089273772753474
11135926 11 18188208698280532562
117089 54 17758129472157705851
12082328 90 18410017620021178868
12633257 1 15769502044398249729
12895837 130 16153700999768534895
12988421 55 11530753783070577433
13690498 29 18409169952137810227
13761468 95 17605547761115932525
13782708 43 17561081406618147062
14950920 106 14045455695748080891
15064981 113 18121197814967990645
15064986 266 18342181081308867185
15183329 4 18186518774720181130
15250474 111 18262227820951701890
15348495 7 13973962117153047802
15361156 5 17988643016933231601
15461852 350 11530770348389790697
15876981 60 18336839614433820061
18927931 339 18343868831414455279
19377110 9 11887663009793636298
19958102 18 18410289203535797558
20505436 4 17677051214595237753
21033648 144 16588604118041748476
21307412 95 18198893894614749263
21709351 56 17603872229869949708
22393880 68 17967525813441323200
23198884 109 18333731291051199565
23522609 53 16270260355956756744
23559900 14 18341888653469323673
2748736 6 14562529596432326318
2838139 119 15791728616382982372
4015057 19 18114758139053645464
484985 159 16487252171675847613
497634 4 18186802478684782685
531348 171 18262806151002940802

> <PUBCHEM_SHAPE_MULTIPOLES>
545.45
18.24
2.59
2.31
35.09
0.68
1.37
4.67
8.35
-4.35
-0.6
-2.65
-0.06
0.27

> <PUBCHEM_SHAPE_SELFOVERLAP>
1132.311

> <PUBCHEM_SHAPE_VOLUME>
306.6

> <PUBCHEM_COORDINATE_TYPE>
2
5
10

$$$$
