7673717
  -OEChem-12032416233D

 64 66  0     1  0  0  0  0  0999 V2000
   -2.9066    1.1361   -1.3780 O   0  0  0  0  0  0  0  0  0  0  0  0
   -0.1832    0.6687    1.0433 O   0  0  0  0  0  0  0  0  0  0  0  0
    1.5063    3.6187   -1.0595 O   0  0  0  0  0  0  0  0  0  0  0  0
   -1.8277   -0.6940   -0.4299 N   0  0  0  0  0  0  0  0  0  0  0  0
    1.4442    0.8705   -0.6089 N   0  0  0  0  0  0  0  0  0  0  0  0
    0.2704   -2.6614   -0.5014 N   0  0  0  0  0  0  0  0  0  0  0  0
    2.2361    3.9017    1.0995 N   0  0  0  0  0  0  0  0  0  0  0  0
    4.2543   -0.0418   -0.1596 C   0  0  0  0  0  0  0  0  0  0  0  0
    5.7043   -0.2242   -0.6279 C   0  0  0  0  0  0  0  0  0  0  0  0
    4.0772   -0.5458    1.2790 C   0  0  0  0  0  0  0  0  0  0  0  0
   -4.1258   -0.0893    0.2328 C   0  0  0  0  0  0  0  0  0  0  0  0
    3.8303    1.4212   -0.2746 C   0  0  0  0  0  0  0  0  0  0  0  0
    6.1691   -1.6704   -0.4724 C   0  0  0  0  0  0  0  0  0  0  0  0
    4.5449   -1.9914    1.4315 C   0  0  0  0  0  0  0  0  0  0  0  0
    5.9835   -2.1706    0.9568 C   0  0  0  0  0  0  0  0  0  0  0  0
   -5.0532   -1.0604   -0.5010 C   0  0  0  0  0  0  0  0  0  0  0  0
   -4.8366    1.2266    0.5576 C   0  0  0  0  0  0  0  0  0  0  0  0
   -0.5481   -0.3791   -1.0732 C   0  0  2  0  0  0  0  0  0  0  0  0
    2.3775    1.6881    0.1318 C   0  0  1  0  0  0  0  0  0  0  0  0
   -6.3520   -1.2898    0.2674 C   0  0  0  0  0  0  0  0  0  0  0  0
   -6.1357    0.9917    1.3236 C   0  0  0  0  0  0  0  0  0  0  0  0
   -7.0574    0.0250    0.5861 C   0  0  0  0  0  0  0  0  0  0  0  0
   -2.9065    0.1800   -0.5982 C   0  0  0  0  0  0  0  0  0  0  0  0
   -1.8224   -1.8343    0.4974 C   0  0  0  0  0  0  0  0  0  0  0  0
    0.2150   -1.6224   -1.5316 C   0  0  0  0  0  0  0  0  0  0  0  0
    0.2406    0.4312   -0.0848 C   0  0  0  0  0  0  0  0  0  0  0  0
   -1.0777   -3.0339   -0.0789 C   0  0  0  0  0  0  0  0  0  0  0  0
    1.9794    3.1496   -0.0270 C   0  0  0  0  0  0  0  0  0  0  0  0
    3.6186   -0.6499   -0.8169 H   0  0  0  0  0  0  0  0  0  0  0  0
    6.3689    0.4313   -0.0506 H   0  0  0  0  0  0  0  0  0  0  0  0
    5.7988    0.0738   -1.6790 H   0  0  0  0  0  0  0  0  0  0  0  0
    3.0264   -0.5100    1.5837 H   0  0  0  0  0  0  0  0  0  0  0  0
    4.6377    0.0927    1.9734 H   0  0  0  0  0  0  0  0  0  0  0  0
   -3.8415   -0.5060    1.2044 H   0  0  0  0  0  0  0  0  0  0  0  0
    4.4933    2.0527    0.3317 H   0  0  0  0  0  0  0  0  0  0  0  0
    3.9734    1.7507   -1.3130 H   0  0  0  0  0  0  0  0  0  0  0  0
    5.6034   -2.3112   -1.1599 H   0  0  0  0  0  0  0  0  0  0  0  0
    7.2244   -1.7506   -0.7568 H   0  0  0  0  0  0  0  0  0  0  0  0
    4.4627   -2.2968    2.4808 H   0  0  0  0  0  0  0  0  0  0  0  0
    3.8850   -2.6509    0.8543 H   0  0  0  0  0  0  0  0  0  0  0  0
    6.6591   -1.6231    1.6255 H   0  0  0  0  0  0  0  0  0  0  0  0
    6.2627   -3.2285    1.0166 H   0  0  0  0  0  0  0  0  0  0  0  0
   -5.2918   -0.6623   -1.4965 H   0  0  0  0  0  0  0  0  0  0  0  0
   -4.5600   -2.0232   -0.6749 H   0  0  0  0  0  0  0  0  0  0  0  0
   -4.1765    1.8770    1.1448 H   0  0  0  0  0  0  0  0  0  0  0  0
   -5.0741    1.7760   -0.3629 H   0  0  0  0  0  0  0  0  0  0  0  0
   -0.7319    0.2628   -1.9438 H   0  0  0  0  0  0  0  0  0  0  0  0
    2.2474    1.4469    1.1935 H   0  0  0  0  0  0  0  0  0  0  0  0
   -7.0185   -1.9321   -0.3190 H   0  0  0  0  0  0  0  0  0  0  0  0
   -6.1334   -1.8231    1.2007 H   0  0  0  0  0  0  0  0  0  0  0  0
   -5.9052    0.5895    2.3179 H   0  0  0  0  0  0  0  0  0  0  0  0
   -6.6506    1.9467    1.4778 H   0  0  0  0  0  0  0  0  0  0  0  0
   -7.9477   -0.1719    1.1938 H   0  0  0  0  0  0  0  0  0  0  0  0
   -7.4025    0.4893   -0.3459 H   0  0  0  0  0  0  0  0  0  0  0  0
   -2.8309   -2.1686    0.7416 H   0  0  0  0  0  0  0  0  0  0  0  0
   -1.3603   -1.5076    1.4356 H   0  0  0  0  0  0  0  0  0  0  0  0
    1.2371   -1.3913   -1.8474 H   0  0  0  0  0  0  0  0  0  0  0  0
   -0.2820   -2.0407   -2.4166 H   0  0  0  0  0  0  0  0  0  0  0  0
    1.6400    0.7166   -1.5937 H   0  0  0  0  0  0  0  0  0  0  0  0
   -1.6296   -3.4539   -0.9288 H   0  0  0  0  0  0  0  0  0  0  0  0
   -1.0116   -3.8239    0.6770 H   0  0  0  0  0  0  0  0  0  0  0  0
    0.7869   -2.3058    0.3032 H   0  0  0  0  0  0  0  0  0  0  0  0
    2.0244    4.8937    1.1218 H   0  0  0  0  0  0  0  0  0  0  0  0
    2.6458    3.5059    1.9395 H   0  0  0  0  0  0  0  0  0  0  0  0
  1 23  2  0  0  0  0
  2 26  2  0  0  0  0
  3 28  2  0  0  0  0
  4 18  1  0  0  0  0
  4 23  1  0  0  0  0
  4 24  1  0  0  0  0
  5 19  1  0  0  0  0
  5 26  1  0  0  0  0
  5 59  1  0  0  0  0
  6 25  1  0  0  0  0
  6 27  1  0  0  0  0
  6 62  1  0  0  0  0
  7 28  1  0  0  0  0
  7 63  1  0  0  0  0
  7 64  1  0  0  0  0
  8  9  1  0  0  0  0
  8 10  1  0  0  0  0
  8 12  1  0  0  0  0
  8 29  1  0  0  0  0
  9 13  1  0  0  0  0
  9 30  1  0  0  0  0
  9 31  1  0  0  0  0
 10 14  1  0  0  0  0
 10 32  1  0  0  0  0
 10 33  1  0  0  0  0
 11 16  1  0  0  0  0
 11 17  1  0  0  0  0
 11 23  1  0  0  0  0
 11 34  1  0  0  0  0
 12 19  1  0  0  0  0
 12 35  1  0  0  0  0
 12 36  1  0  0  0  0
 13 15  1  0  0  0  0
 13 37  1  0  0  0  0
 13 38  1  0  0  0  0
 14 15  1  0  0  0  0
 14 39  1  0  0  0  0
 14 40  1  0  0  0  0
 15 41  1  0  0  0  0
 15 42  1  0  0  0  0
 16 20  1  0  0  0  0
 16 43  1  0  0  0  0
 16 44  1  0  0  0  0
 17 21  1  0  0  0  0
 17 45  1  0  0  0  0
 17 46  1  0  0  0  0
 18 25  1  0  0  0  0
 18 26  1  0  0  0  0
 18 47  1  0  0  0  0
 19 28  1  0  0  0  0
 19 48  1  0  0  0  0
 20 22  1  0  0  0  0
 20 49  1  0  0  0  0
 20 50  1  0  0  0  0
 21 22  1  0  0  0  0
 21 51  1  0  0  0  0
 21 52  1  0  0  0  0
 22 53  1  0  0  0  0
 22 54  1  0  0  0  0
 24 27  1  0  0  0  0
 24 55  1  0  0  0  0
 24 56  1  0  0  0  0
 25 57  1  0  0  0  0
 25 58  1  0  0  0  0
 27 60  1  0  0  0  0
 27 61  1  0  0  0  0
M  END
> <PUBCHEM_COMPOUND_CID>
7673717

> <PUBCHEM_CONFORMER_RMSD>
1

> <PUBCHEM_CONFORMER_DIVERSEORDER>
1
103
78
199
68
135
53
89
168
174
80
151
119
33
180
11
187
23
75
124
62
116
19
83
144
170
176
64
123
87
193
42
122
52
162
60
98
197
166
156
140
120
21
70
154
69
177
2
111
59
179
171
100
127
125
74
146
10
40
108
175
32
44
104
96
25
178
118
115
117
134
43
58
131
48
90
82
121
85
158
159
63
35
76
109
141
142
114
148
200
71
29
186
66
152
45
93
161
49
55
95
153
155
56
65
101
37
22
102
67
3
51
46
107
192
149
129
77
182
57
137
81
163
28
94
12
133
34
14
97
173
195
26
36
128
50
91
15
126
196
8
27
88
38
185
31
9
167
84
172
160
139
106
198
105
79
61
143
169
16
181
132
39
5
112
73
184
92
18
110
136
188
165
6
190
183
189
30
191
147
130
20
72
17
194
164
4
54
47
145
41
99
113
24
7
13
150
86
138
157

> <PUBCHEM_MMFF94_PARTIAL_CHARGES>
20
1 -0.57
11 0.06
18 0.36
19 0.36
2 -0.57
23 0.57
24 0.3
25 0.27
26 0.57
27 0.27
28 0.57
3 -0.57
4 -0.66
5 -0.73
59 0.37
6 -0.9
62 0.36
63 0.37
64 0.37
7 -0.8

> <PUBCHEM_EFFECTIVE_ROTOR_COUNT>
11.6

> <PUBCHEM_PHARMACOPHORE_FEATURES>
10
1 1 acceptor
1 2 acceptor
1 3 acceptor
1 5 donor
1 6 cation
1 6 donor
1 7 donor
6 11 16 17 20 21 22 rings
6 4 6 18 24 25 27 rings
6 8 9 10 13 14 15 rings

> <PUBCHEM_HEAVY_ATOM_COUNT>
28

> <PUBCHEM_ATOM_DEF_STEREO_COUNT>
2

> <PUBCHEM_ATOM_UDEF_STEREO_COUNT>
0

> <PUBCHEM_BOND_DEF_STEREO_COUNT>
0

> <PUBCHEM_BOND_UDEF_STEREO_COUNT>
0

> <PUBCHEM_ISOTOPIC_ATOM_COUNT>
0

> <PUBCHEM_COMPONENT_COUNT>
1

> <PUBCHEM_CACTVS_TAUTO_COUNT>
4

> <PUBCHEM_CONFORMER_ID>
0075177500000001

> <PUBCHEM_MMFF94_ENERGY>
49.6775

> <PUBCHEM_FEATURE_SELFOVERLAP>
50.747

> <PUBCHEM_SHAPE_FINGERPRINT>
10076449 9 18334020463205144028
10692045 39 17988925552460753186
11405975 8 18267021833033974649
11578080 2 17415547981480718856
12107183 9 18412262826453773595
12166972 35 18202001048899743745
12403260 363 18342454893899930103
12516196 113 18411415099437238552
12553582 1 18337655452989160694
12592029 89 18409449159018574979
12633257 1 18410857667815315639
12788726 201 17917443016284849344
13533116 47 18336825402454673385
13673619 4 17749105565452444900
13782708 43 17676482830912028923
13785724 45 18126011468622673246
14020679 6 18113339734118992178
14251764 18 18412544323216336062
14466204 15 18270122296947904057
14767858 380 8718536203605006618
14849402 71 18337679701625706929
14955137 171 18412826863218452530
15183329 4 18410012121993710227
17349148 13 17989209260893901502
18785283 64 18408608092879040341
20567600 75 16732696126110756863
21033648 29 17314209199026673405
21365058 113 17168152234160209644
23522609 53 18118152253574910357
23559900 14 18264203776062928840
3117164 225 18335707203640873379
3178227 256 18336274483000054131
335352 9 18412830200587286054
345986 75 18189601753858711200
34797466 226 15357987767077493758
350125 39 18408886235377860589
3680242 22 18411987940009408651
392239 28 18270414870974111051
4073 2 18117843432930867536
46194498 28 17022622005285186812
465052 167 18408044009233847598
5104073 3 18341056332452896347
54039377 194 17896033236408146658
6138700 20 18341335492036370446
8509985 295 18412545422780704924

> <PUBCHEM_SHAPE_MULTIPOLES>
538.69
16.21
3.49
1.23
9.02
2.3
-0.06
-4.82
-4.39
-3.41
-0.17
-0.28
-0.06
-1.05

> <PUBCHEM_SHAPE_SELFOVERLAP>
1100.118

> <PUBCHEM_SHAPE_VOLUME>
305.6

> <PUBCHEM_COORDINATE_TYPE>
2
5
10

$$$$
