26744678
  -OEChem-12032416183D

 60 63  0     1  0  0  0  0  0999 V2000
    2.3373    3.7902   -0.9096 F   0  0  0  0  0  0  0  0  0  0  0  0
   -3.7655   -0.7315   -0.9697 O   0  0  0  0  0  0  0  0  0  0  0  0
   -5.5495   -2.6105    0.6244 O   0  0  0  0  0  0  0  0  0  0  0  0
   -6.0404   -0.1477    1.7476 O   0  0  0  0  0  0  0  0  0  0  0  0
   -1.4440   -2.4255   -1.8041 O   0  0  0  0  0  0  0  0  0  0  0  0
   -2.0804    1.5300   -1.9850 O   0  0  0  0  0  0  0  0  0  0  0  0
    0.3412   -1.8072   -0.4512 N   0  0  0  0  0  0  0  0  0  0  0  0
    3.1575   -1.2696   -0.0516 N   0  0  0  0  0  0  0  0  0  0  0  0
   -3.3057    1.9150   -0.0527 N   0  0  0  0  0  0  0  0  0  0  0  0
    5.1672   -1.5698    1.1517 N   0  0  0  0  0  0  0  0  0  0  0  0
   -3.4102   -1.8374   -0.1084 C   0  0  2  0  0  0  0  0  0  0  0  0
   -4.4223   -1.8360    1.0320 C   0  0  1  0  0  0  0  0  0  0  0  0
   -4.7956   -0.3707    1.1204 C   0  0  1  0  0  0  0  0  0  0  0  0
   -4.8163    0.0274   -0.3459 C   0  0  1  0  0  0  0  0  0  0  0  0
   -1.9793   -1.6188    0.3641 C   0  0  0  0  0  0  0  0  0  0  0  0
   -4.5789    1.5100   -0.5707 C   0  0  0  0  0  0  0  0  0  0  0  0
   -1.0130   -1.9882   -0.7345 C   0  0  0  0  0  0  0  0  0  0  0  0
    1.3397   -2.1464   -1.4617 C   0  0  0  0  0  0  0  0  0  0  0  0
    0.8508   -1.2775    0.8158 C   0  0  0  0  0  0  0  0  0  0  0  0
    2.5598   -1.2308   -1.3892 C   0  0  0  0  0  0  0  0  0  0  0  0
    2.3074   -1.6624    1.0751 C   0  0  0  0  0  0  0  0  0  0  0  0
    4.5062   -0.9751    0.1335 C   0  0  0  0  0  0  0  0  0  0  0  0
   -2.1394    1.8925   -0.8129 C   0  0  0  0  0  0  0  0  0  0  0  0
    5.0867   -0.0800   -0.7506 C   0  0  0  0  0  0  0  0  0  0  0  0
   -0.8956    2.3187   -0.1215 C   0  0  0  0  0  0  0  0  0  0  0  0
    6.4325    0.2242   -0.5786 C   0  0  0  0  0  0  0  0  0  0  0  0
    6.4737   -1.2497    1.2876 C   0  0  0  0  0  0  0  0  0  0  0  0
    7.1464   -0.3677    0.4575 C   0  0  0  0  0  0  0  0  0  0  0  0
    0.1578    2.8650   -0.8547 C   0  0  0  0  0  0  0  0  0  0  0  0
   -0.7810    2.1725    1.2611 C   0  0  0  0  0  0  0  0  0  0  0  0
    1.3257    3.2654   -0.2055 C   0  0  0  0  0  0  0  0  0  0  0  0
    0.3869    2.5726    1.9102 C   0  0  0  0  0  0  0  0  0  0  0  0
    1.4403    3.1193    1.1771 C   0  0  0  0  0  0  0  0  0  0  0  0
   -3.5075   -2.7573   -0.6964 H   0  0  0  0  0  0  0  0  0  0  0  0
   -4.0566   -2.2493    1.9761 H   0  0  0  0  0  0  0  0  0  0  0  0
   -4.0219    0.1648    1.6814 H   0  0  0  0  0  0  0  0  0  0  0  0
   -5.7663   -0.2546   -0.8169 H   0  0  0  0  0  0  0  0  0  0  0  0
   -1.7807   -2.2803    1.2144 H   0  0  0  0  0  0  0  0  0  0  0  0
   -1.8091   -0.5827    0.6621 H   0  0  0  0  0  0  0  0  0  0  0  0
   -5.3497    2.1090   -0.0753 H   0  0  0  0  0  0  0  0  0  0  0  0
   -4.6047    1.7326   -1.6431 H   0  0  0  0  0  0  0  0  0  0  0  0
    0.8944   -2.1001   -2.4612 H   0  0  0  0  0  0  0  0  0  0  0  0
    1.6313   -3.1886   -1.2819 H   0  0  0  0  0  0  0  0  0  0  0  0
    0.2311   -1.6125    1.6512 H   0  0  0  0  0  0  0  0  0  0  0  0
    0.7648   -0.1900    0.7505 H   0  0  0  0  0  0  0  0  0  0  0  0
    3.2745   -1.5669   -2.1504 H   0  0  0  0  0  0  0  0  0  0  0  0
    2.2607   -0.2019   -1.6249 H   0  0  0  0  0  0  0  0  0  0  0  0
    2.6348   -1.1692    1.9984 H   0  0  0  0  0  0  0  0  0  0  0  0
    2.3916   -2.7454    1.2264 H   0  0  0  0  0  0  0  0  0  0  0  0
   -5.2577   -3.5358    0.5574 H   0  0  0  0  0  0  0  0  0  0  0  0
   -5.9935   -0.5390    2.6365 H   0  0  0  0  0  0  0  0  0  0  0  0
   -3.2921    2.2782    0.8945 H   0  0  0  0  0  0  0  0  0  0  0  0
    4.5439    0.4083   -1.5524 H   0  0  0  0  0  0  0  0  0  0  0  0
    6.9234    0.9248   -1.2475 H   0  0  0  0  0  0  0  0  0  0  0  0
    6.9852   -1.7377    2.1108 H   0  0  0  0  0  0  0  0  0  0  0  0
    8.1959   -0.1445    0.6112 H   0  0  0  0  0  0  0  0  0  0  0  0
    0.0862    2.9900   -1.9318 H   0  0  0  0  0  0  0  0  0  0  0  0
   -1.5649    1.7250    1.8647 H   0  0  0  0  0  0  0  0  0  0  0  0
    0.4799    2.4514    2.9855 H   0  0  0  0  0  0  0  0  0  0  0  0
    2.3507    3.4286    1.6819 H   0  0  0  0  0  0  0  0  0  0  0  0
  1 31  1  0  0  0  0
  2 11  1  0  0  0  0
  2 14  1  0  0  0  0
  3 12  1  0  0  0  0
  3 50  1  0  0  0  0
  4 13  1  0  0  0  0
  4 51  1  0  0  0  0
  5 17  2  0  0  0  0
  6 23  2  0  0  0  0
  7 17  1  0  0  0  0
  7 18  1  0  0  0  0
  7 19  1  0  0  0  0
  8 20  1  0  0  0  0
  8 21  1  0  0  0  0
  8 22  1  0  0  0  0
  9 16  1  0  0  0  0
  9 23  1  0  0  0  0
  9 52  1  0  0  0  0
 10 22  1  0  0  0  0
 10 27  2  0  0  0  0
 11 12  1  0  0  0  0
 11 15  1  0  0  0  0
 11 34  1  0  0  0  0
 12 13  1  0  0  0  0
 12 35  1  0  0  0  0
 13 14  1  0  0  0  0
 13 36  1  0  0  0  0
 14 16  1  0  0  0  0
 14 37  1  0  0  0  0
 15 17  1  0  0  0  0
 15 38  1  0  0  0  0
 15 39  1  0  0  0  0
 16 40  1  0  0  0  0
 16 41  1  0  0  0  0
 18 20  1  0  0  0  0
 18 42  1  0  0  0  0
 18 43  1  0  0  0  0
 19 21  1  0  0  0  0
 19 44  1  0  0  0  0
 19 45  1  0  0  0  0
 20 46  1  0  0  0  0
 20 47  1  0  0  0  0
 21 48  1  0  0  0  0
 21 49  1  0  0  0  0
 22 24  2  0  0  0  0
 23 25  1  0  0  0  0
 24 26  1  0  0  0  0
 24 53  1  0  0  0  0
 25 29  2  0  0  0  0
 25 30  1  0  0  0  0
 26 28  2  0  0  0  0
 26 54  1  0  0  0  0
 27 28  1  0  0  0  0
 27 55  1  0  0  0  0
 28 56  1  0  0  0  0
 29 31  1  0  0  0  0
 29 57  1  0  0  0  0
 30 32  2  0  0  0  0
 30 58  1  0  0  0  0
 31 33  2  0  0  0  0
 32 33  1  0  0  0  0
 32 59  1  0  0  0  0
 33 60  1  0  0  0  0
M  END
> <PUBCHEM_COMPOUND_CID>
26744678

> <PUBCHEM_CONFORMER_RMSD>
1.2

> <PUBCHEM_CONFORMER_DIVERSEORDER>
1
182
101
122
127
120
94
25
147
103
95
30
145
188
151
170
116
132
15
66
89
191
181
60
138
55
173
179
129
146
20
178
139
114
172
165
133
7
57
77
128
19
17
102
144
13
112
93
2
27
72
125
32
80
142
38
171
115
88
110
104
109
113
58
152
46
175
137
176
53
84
106
37
63
160
74
42
148
33
49
86
134
153
5
190
189
187
136
67
108
34
126
75
186
99
141
54
76
28
100
164
111
143
78
124
43
177
18
169
62
22
118
121
87
73
98
157
36
130
81
68
158
21
40
16
149
71
131
123
107
163
184
11
155
56
52
82
156
96
185
31
23
50
154
168
24
174
167
105
44
61
161
12
92
65
180
140
119
79
117
39
10
48
26
8
90
83
97
51
6
69
183
59
159
35
45
150
85
41
3
14
70
166
9
29
47
4
162
135
91
64

> <PUBCHEM_MMFF94_PARTIAL_CHARGES>
44
1 -0.19
10 -0.62
11 0.28
12 0.28
13 0.28
14 0.28
15 0.06
16 0.3
17 0.57
18 0.3
19 0.3
2 -0.56
20 0.37
21 0.37
22 0.41
23 0.54
24 -0.15
25 0.09
26 -0.15
27 0.16
28 -0.15
29 -0.15
3 -0.68
30 -0.15
31 0.19
32 -0.15
33 -0.15
4 -0.68
5 -0.57
50 0.4
51 0.4
52 0.37
53 0.15
54 0.15
55 0.15
56 0.15
57 0.15
58 0.15
59 0.15
6 -0.57
60 0.15
7 -0.66
8 -0.84
9 -0.73

> <PUBCHEM_EFFECTIVE_ROTOR_COUNT>
10.2

> <PUBCHEM_PHARMACOPHORE_FEATURES>
14
1 10 acceptor
1 2 acceptor
1 3 acceptor
1 3 donor
1 4 acceptor
1 4 donor
1 5 acceptor
1 6 acceptor
1 8 cation
1 9 donor
5 2 11 12 13 14 rings
6 10 22 24 26 27 28 rings
6 25 29 30 31 32 33 rings
6 7 8 18 19 20 21 rings

> <PUBCHEM_HEAVY_ATOM_COUNT>
33

> <PUBCHEM_ATOM_DEF_STEREO_COUNT>
4

> <PUBCHEM_ATOM_UDEF_STEREO_COUNT>
0

> <PUBCHEM_BOND_DEF_STEREO_COUNT>
0

> <PUBCHEM_BOND_UDEF_STEREO_COUNT>
0

> <PUBCHEM_ISOTOPIC_ATOM_COUNT>
0

> <PUBCHEM_COMPONENT_COUNT>
1

> <PUBCHEM_CACTVS_TAUTO_COUNT>
2

> <PUBCHEM_CONFORMER_ID>
0198176600000001

> <PUBCHEM_MMFF94_ENERGY>
96.8951

> <PUBCHEM_FEATURE_SELFOVERLAP>
71.062

> <PUBCHEM_SHAPE_FINGERPRINT>
10290309 65 18265333898250431303
10675989 125 16749577748518780789
11578080 2 13110139508558034417
11963148 33 17257375670573699875
12107698 1 18336546109754132267
12156800 1 15623454902385950776
12166972 35 17676492744234222134
12422481 6 18125411302735155504
12596602 18 17530963575393968282
13402501 40 18412823577362528240
13726171 33 18266462005496079872
14040221 299 18411147926085264078
15064986 96 18129682897198989803
15183329 4 12247679353261384822
15927050 60 17692534824994736612
17492 54 18192973959635831973
18336668 15 18261112976079383468
20642791 178 18336559243564033709
20721686 56 18263923413804546819
20771845 171 17462850110222187271
21033648 29 17632002083747266291
23559900 14 18335411409607421869
329604 57 18334576841526208280
338550 245 18263363753949633324
392239 28 18343021064757160880
4112364 45 16271653394492273899
439807 62 17967258615474000465
469060 322 18262533506510697672
5265222 85 17329711436863943912
77296 10 17751073614257770866

> <PUBCHEM_SHAPE_MULTIPOLES>
622.58
14.15
4.11
1.58
11.92
3.22
0.04
-6.69
3.56
-0.83
-0.17
-0.23
0.08
0.24

> <PUBCHEM_SHAPE_SELFOVERLAP>
1331.606

> <PUBCHEM_SHAPE_VOLUME>
343.4

> <PUBCHEM_COORDINATE_TYPE>
2
5
10

$$$$
