51137095
  -OEChem-12032416203D

 49 52  0     1  0  0  0  0  0999 V2000
   -2.1014    1.0936   -0.0540 N   0  0  1  0  0  0  0  0  0  0  0  0
    2.3784    0.0777    1.3092 N   0  0  0  0  0  0  0  0  0  0  0  0
    2.0220    0.5671   -0.8293 N   0  0  0  0  0  0  0  0  0  0  0  0
   -4.0537   -0.3680   -0.3520 C   0  0  0  0  0  0  0  0  0  0  0  0
   -3.1229    0.6584   -0.9950 C   0  0  0  0  0  0  0  0  0  0  0  0
    0.0949    0.9615    0.7573 C   0  0  2  0  0  0  0  0  0  0  0  0
   -0.9899    0.1450    0.0421 C   0  0  0  0  0  0  0  0  0  0  0  0
   -1.4837    2.3596   -0.4485 C   0  0  0  0  0  0  0  0  0  0  0  0
   -4.7763    0.2389    0.8583 C   0  0  0  0  0  0  0  0  0  0  0  0
   -5.0615   -0.9034   -1.3780 C   0  0  0  0  0  0  0  0  0  0  0  0
   -0.2504    2.4276    0.4429 C   0  0  0  0  0  0  0  0  0  0  0  0
   -5.7533   -0.7523    1.4867 C   0  0  0  0  0  0  0  0  0  0  0  0
   -6.0382   -1.8925   -0.7459 C   0  0  0  0  0  0  0  0  0  0  0  0
   -6.7478   -1.2888    0.4620 C   0  0  0  0  0  0  0  0  0  0  0  0
    1.4957    0.5430    0.3747 C   0  0  0  0  0  0  0  0  0  0  0  0
    3.5524   -0.2184    0.6654 C   0  0  0  0  0  0  0  0  0  0  0  0
    3.3045    0.0957   -0.6680 C   0  0  0  0  0  0  0  0  0  0  0  0
    4.7726   -0.7188    1.1209 C   0  0  0  0  0  0  0  0  0  0  0  0
    4.3231   -0.0942   -1.6171 C   0  0  0  0  0  0  0  0  0  0  0  0
    5.7751   -0.9016    0.1627 C   0  0  0  0  0  0  0  0  0  0  0  0
    5.5565   -0.5954   -1.1824 C   0  0  0  0  0  0  0  0  0  0  0  0
    7.1040   -1.4347    0.5881 C   0  0  0  0  0  0  0  0  0  0  0  0
   -3.4613   -1.2252   -0.0040 H   0  0  0  0  0  0  0  0  0  0  0  0
   -2.6784    0.2599   -1.9164 H   0  0  0  0  0  0  0  0  0  0  0  0
   -3.7309    1.5214   -1.3002 H   0  0  0  0  0  0  0  0  0  0  0  0
   -0.0262    0.8222    1.8415 H   0  0  0  0  0  0  0  0  0  0  0  0
   -0.6487   -0.1840   -0.9484 H   0  0  0  0  0  0  0  0  0  0  0  0
   -1.2536   -0.7439    0.6250 H   0  0  0  0  0  0  0  0  0  0  0  0
   -2.1468    3.2142   -0.2809 H   0  0  0  0  0  0  0  0  0  0  0  0
   -1.1809    2.3504   -1.5036 H   0  0  0  0  0  0  0  0  0  0  0  0
   -5.3251    1.1396    0.5545 H   0  0  0  0  0  0  0  0  0  0  0  0
   -4.0586    0.5478    1.6270 H   0  0  0  0  0  0  0  0  0  0  0  0
   -5.6260   -0.0708   -1.8170 H   0  0  0  0  0  0  0  0  0  0  0  0
   -4.5315   -1.3968   -2.2015 H   0  0  0  0  0  0  0  0  0  0  0  0
    0.5648    2.9717   -0.0457 H   0  0  0  0  0  0  0  0  0  0  0  0
   -0.4888    2.9535    1.3760 H   0  0  0  0  0  0  0  0  0  0  0  0
   -5.1938   -1.5879    1.9250 H   0  0  0  0  0  0  0  0  0  0  0  0
   -6.2951   -0.2663    2.3060 H   0  0  0  0  0  0  0  0  0  0  0  0
   -5.4953   -2.7945   -0.4374 H   0  0  0  0  0  0  0  0  0  0  0  0
   -6.7791   -2.2051   -1.4903 H   0  0  0  0  0  0  0  0  0  0  0  0
   -7.3879   -2.0452    0.9300 H   0  0  0  0  0  0  0  0  0  0  0  0
   -7.4044   -0.4751    0.1302 H   0  0  0  0  0  0  0  0  0  0  0  0
    2.2011   -0.0306    2.2991 H   0  0  0  0  0  0  0  0  0  0  0  0
    4.9294   -0.9507    2.1688 H   0  0  0  0  0  0  0  0  0  0  0  0
    4.1630    0.1410   -2.6645 H   0  0  0  0  0  0  0  0  0  0  0  0
    6.3482   -0.7420   -1.9138 H   0  0  0  0  0  0  0  0  0  0  0  0
    7.5363   -2.0760   -0.1876 H   0  0  0  0  0  0  0  0  0  0  0  0
    7.0171   -2.0434    1.4946 H   0  0  0  0  0  0  0  0  0  0  0  0
    7.7933   -0.6082    0.7875 H   0  0  0  0  0  0  0  0  0  0  0  0
  1  5  1  0  0  0  0
  1  7  1  0  0  0  0
  1  8  1  0  0  0  0
  2 15  1  0  0  0  0
  2 16  1  0  0  0  0
  2 43  1  0  0  0  0
  3 15  2  0  0  0  0
  3 17  1  0  0  0  0
  4  5  1  0  0  0  0
  4  9  1  0  0  0  0
  4 10  1  0  0  0  0
  4 23  1  0  0  0  0
  5 24  1  0  0  0  0
  5 25  1  0  0  0  0
  6  7  1  0  0  0  0
  6 11  1  0  0  0  0
  6 15  1  0  0  0  0
  6 26  1  0  0  0  0
  7 27  1  0  0  0  0
  7 28  1  0  0  0  0
  8 11  1  0  0  0  0
  8 29  1  0  0  0  0
  8 30  1  0  0  0  0
  9 12  1  0  0  0  0
  9 31  1  0  0  0  0
  9 32  1  0  0  0  0
 10 13  1  0  0  0  0
 10 33  1  0  0  0  0
 10 34  1  0  0  0  0
 11 35  1  0  0  0  0
 11 36  1  0  0  0  0
 12 14  1  0  0  0  0
 12 37  1  0  0  0  0
 12 38  1  0  0  0  0
 13 14  1  0  0  0  0
 13 39  1  0  0  0  0
 13 40  1  0  0  0  0
 14 41  1  0  0  0  0
 14 42  1  0  0  0  0
 16 17  2  0  0  0  0
 16 18  1  0  0  0  0
 17 19  1  0  0  0  0
 18 20  2  0  0  0  0
 18 44  1  0  0  0  0
 19 21  2  0  0  0  0
 19 45  1  0  0  0  0
 20 21  1  0  0  0  0
 20 22  1  0  0  0  0
 21 46  1  0  0  0  0
 22 47  1  0  0  0  0
 22 48  1  0  0  0  0
 22 49  1  0  0  0  0
M  END
> <PUBCHEM_COMPOUND_CID>
51137095

> <PUBCHEM_CONFORMER_RMSD>
0.8

> <PUBCHEM_CONFORMER_DIVERSEORDER>
1
30
11
33
38
18
24
32
37
35
34
2
28
14
4
36
9
27
29
17
25
39
23
7
31
41
40
5
6
20
3
19
21
12
8
10
15
13
26
22
16

> <PUBCHEM_MMFF94_PARTIAL_CHARGES>
19
1 -0.81
15 0.01
16 -0.15
17 0.23
18 -0.15
19 -0.15
2 0.03
20 -0.14
21 -0.15
22 0.14
3 -0.57
43 0.27
44 0.15
45 0.15
46 0.15
5 0.27
6 0.18
7 0.27
8 0.27

> <PUBCHEM_EFFECTIVE_ROTOR_COUNT>
5.2

> <PUBCHEM_PHARMACOPHORE_FEATURES>
7
1 1 cation
1 2 donor
3 2 3 15 cation
5 1 6 7 8 11 rings
5 2 3 15 16 17 rings
6 16 17 18 19 20 21 rings
6 4 9 10 12 13 14 rings

> <PUBCHEM_HEAVY_ATOM_COUNT>
22

> <PUBCHEM_ATOM_DEF_STEREO_COUNT>
1

> <PUBCHEM_ATOM_UDEF_STEREO_COUNT>
0

> <PUBCHEM_BOND_DEF_STEREO_COUNT>
0

> <PUBCHEM_BOND_UDEF_STEREO_COUNT>
0

> <PUBCHEM_ISOTOPIC_ATOM_COUNT>
0

> <PUBCHEM_COMPONENT_COUNT>
1

> <PUBCHEM_CACTVS_TAUTO_COUNT>
2

> <PUBCHEM_CONFORMER_ID>
030C4A4700000001

> <PUBCHEM_MMFF94_ENERGY>
31.8475

> <PUBCHEM_FEATURE_SELFOVERLAP>
35.63

> <PUBCHEM_SHAPE_FINGERPRINT>
10 15 12751238129831043735
10554248 39 8358263627264107864
10693767 8 16951678083778446698
10763959 59 12179850494024146350
11089746 13 11891336469562585532
12166972 35 17603872204168952124
12236239 1 17895196567570940700
12596602 18 14117517653557132423
12760667 363 18408604760332630195
13288520 33 18408884036570967117
13403585 85 14979962458635124259
13668630 136 17821729420658234114
13673619 4 18272368680776096169
13685833 64 18201439198489533203
13690498 29 17967525784247035997
13862211 1 18410854378128998423
14123256 34 18411141355016824515
14211702 104 18264209111035465370
14251757 5 17168434886379978475
14251764 18 13470683755040118273
14251764 30 18412545422801842715
14341114 176 14979961363170225088
14528608 73 14129055932826078923
14556957 393 17095534950075106733
14849402 71 16199290153454447920
15003188 100 14273746186847556358
15142383 8 15195290789589912922
15183329 4 15719386218151465443
15238133 3 11671773910364822026
15348495 7 15985096461800128835
15537594 2 18411980256666908991
15716309 27 18272651259828043771
17093844 174 18131345281370386849
17780758 139 17346597478754553203
17844677 252 18343019990952579161
1813 80 18341619239230310789
18222031 100 18411979195878194753
190975 80 17917139598251144458
19141452 34 17060614533902082679
200 152 17749109963224928432
20281389 69 11887954345757016227
21054139 6 17967248664056134770
21150785 3 17967820453363240654
21267235 1 18408605859343071938
21298829 104 8574448530018972879
21403212 168 17489594433835880503
21521239 73 16877661253986271194
21623969 137 16845855680960789734
21637258 2 18410571799287495237
221357 26 15719388438749921398
22288116 15 13334747851179983987
22950370 63 18413112779481516957
23035841 295 18335143094262215435
23402539 116 18113620040822120293
23522609 53 18123221028017449737
23559900 14 17386574690168543317
23576562 1 14274327816379203538
2767999 5 9007061249252951975
2838139 119 12035442857013276567
29717793 49 17749109955156993134
3004659 81 17603300462169211274
312425 54 16774085068116581271
314173 85 18060699481405192985
3472631 163 8934706812993073602
34797466 226 15574719118758033111
351380 3 18409448098498963959
3737641 26 17917158173758327431
4340502 62 15123514709141125398
465052 167 18340492256759146207
5104073 3 17417253285751200571
5207 217 12612756843741727161
5385378 56 9871486325869590781
543368 44 11314299560941019623
559249 180 18272651251981855663
56616090 284 17822013111996065433
59682541 35 17703780445577626642
59682541 52 13912592828498685344
7226269 152 10735880569189915015
7495541 125 18201996625774706904
7970288 3 18411415124717198495
8863177 126 18117003393473984171

> <PUBCHEM_SHAPE_MULTIPOLES>
437.81
18.73
1.78
1.37
1.07
0.78
0.11
-13.65
-0.7
1.34
0.03
-0.05
-0.2
-0.44

> <PUBCHEM_SHAPE_SELFOVERLAP>
935.898

> <PUBCHEM_SHAPE_VOLUME>
242

> <PUBCHEM_COORDINATE_TYPE>
2
5
10

$$$$
