71694021
  -OEChem-12032416273D

 48 50  0     1  0  0  0  0  0999 V2000
   -1.0706    2.8885    0.0156 S   0  0  0  0  0  0  0  0  0  0  0  0
    4.3928   -0.7224    1.3973 F   0  0  0  0  0  0  0  0  0  0  0  0
    4.2889   -1.0829   -0.7444 F   0  0  0  0  0  0  0  0  0  0  0  0
    5.2754    0.6968    0.0063 F   0  0  0  0  0  0  0  0  0  0  0  0
   -3.8843   -0.3460    1.8380 O   0  0  0  0  0  0  0  0  0  0  0  0
   -5.5769   -1.2512   -0.1433 O   0  0  0  0  0  0  0  0  0  0  0  0
   -1.4355    3.2338    1.3763 O   0  0  0  0  0  0  0  0  0  0  0  0
   -0.9330    3.9261   -0.9884 O   0  0  0  0  0  0  0  0  0  0  0  0
   -2.1310    1.6975   -0.5692 N   0  0  0  0  0  0  0  0  0  0  0  0
   -1.9862   -0.7732   -0.7177 C   0  0  2  0  0  0  0  0  0  0  0  0
   -2.3243    0.4374    0.1955 C   0  0  2  0  0  0  0  0  0  0  0  0
   -3.8065    0.2858    0.5612 C   0  0  1  0  0  0  0  0  0  0  0  0
   -3.2564   -1.6406   -0.7336 C   0  0  0  0  0  0  0  0  0  0  0  0
   -4.3694   -0.6255   -0.5260 C   0  0  1  0  0  0  0  0  0  0  0  0
   -0.7512   -1.5373   -0.2948 C   0  0  0  0  0  0  0  0  0  0  0  0
    0.3317   -1.6873   -1.1610 C   0  0  0  0  0  0  0  0  0  0  0  0
   -0.7052   -2.0960    0.9825 C   0  0  0  0  0  0  0  0  0  0  0  0
    0.4650    2.0145    0.0685 C   0  0  0  0  0  0  0  0  0  0  0  0
    1.4606   -2.3959   -0.7500 C   0  0  0  0  0  0  0  0  0  0  0  0
    0.3056   -1.0982   -2.5331 C   0  0  0  0  0  0  0  0  0  0  0  0
    0.4237   -2.8048    1.3935 C   0  0  0  0  0  0  0  0  0  0  0  0
    1.5067   -2.9547    0.5273 C   0  0  0  0  0  0  0  0  0  0  0  0
    0.8339    1.3238    1.2229 C   0  0  0  0  0  0  0  0  0  0  0  0
    1.3079    2.0160   -1.0429 C   0  0  0  0  0  0  0  0  0  0  0  0
    2.0458    0.6345    1.2657 C   0  0  0  0  0  0  0  0  0  0  0  0
    2.5197    1.3268   -1.0001 C   0  0  0  0  0  0  0  0  0  0  0  0
    2.8887    0.6361    0.1541 C   0  0  0  0  0  0  0  0  0  0  0  0
    4.1841   -0.1016    0.1998 C   0  0  0  0  0  0  0  0  0  0  0  0
   -1.8781   -0.4039   -1.7423 H   0  0  0  0  0  0  0  0  0  0  0  0
   -1.7260    0.4542    1.1085 H   0  0  0  0  0  0  0  0  0  0  0  0
   -4.3563    1.2305    0.6234 H   0  0  0  0  0  0  0  0  0  0  0  0
   -3.3709   -2.1810   -1.6801 H   0  0  0  0  0  0  0  0  0  0  0  0
   -3.2768   -2.4003    0.0570 H   0  0  0  0  0  0  0  0  0  0  0  0
   -4.5418   -0.0549   -1.4467 H   0  0  0  0  0  0  0  0  0  0  0  0
   -2.4790    1.7313   -1.5347 H   0  0  0  0  0  0  0  0  0  0  0  0
   -3.5123    0.2705    2.4915 H   0  0  0  0  0  0  0  0  0  0  0  0
   -5.8190   -1.8756   -0.8483 H   0  0  0  0  0  0  0  0  0  0  0  0
   -1.5347   -1.9904    1.6759 H   0  0  0  0  0  0  0  0  0  0  0  0
    2.3083   -2.5300   -1.4162 H   0  0  0  0  0  0  0  0  0  0  0  0
   -0.4425   -1.6072   -3.1502 H   0  0  0  0  0  0  0  0  0  0  0  0
    0.0943   -0.0266   -2.5157 H   0  0  0  0  0  0  0  0  0  0  0  0
    1.2716   -1.2166   -3.0372 H   0  0  0  0  0  0  0  0  0  0  0  0
    0.4603   -3.2387    2.3884 H   0  0  0  0  0  0  0  0  0  0  0  0
    2.3858   -3.5064    0.8472 H   0  0  0  0  0  0  0  0  0  0  0  0
    0.1992    1.3144    2.1041 H   0  0  0  0  0  0  0  0  0  0  0  0
    1.0370    2.5406   -1.9547 H   0  0  0  0  0  0  0  0  0  0  0  0
    2.3156    0.1043    2.1747 H   0  0  0  0  0  0  0  0  0  0  0  0
    3.1682    1.3306   -1.8720 H   0  0  0  0  0  0  0  0  0  0  0  0
  1  7  2  0  0  0  0
  1  8  2  0  0  0  0
  1  9  1  0  0  0  0
  1 18  1  0  0  0  0
  2 28  1  0  0  0  0
  3 28  1  0  0  0  0
  4 28  1  0  0  0  0
  5 12  1  0  0  0  0
  5 36  1  0  0  0  0
  6 14  1  0  0  0  0
  6 37  1  0  0  0  0
  9 11  1  0  0  0  0
  9 35  1  0  0  0  0
 10 11  1  0  0  0  0
 10 13  1  0  0  0  0
 10 15  1  0  0  0  0
 10 29  1  0  0  0  0
 11 12  1  0  0  0  0
 11 30  1  0  0  0  0
 12 14  1  0  0  0  0
 12 31  1  0  0  0  0
 13 14  1  0  0  0  0
 13 32  1  0  0  0  0
 13 33  1  0  0  0  0
 14 34  1  0  0  0  0
 15 16  1  0  0  0  0
 15 17  2  0  0  0  0
 16 19  2  0  0  0  0
 16 20  1  0  0  0  0
 17 21  1  0  0  0  0
 17 38  1  0  0  0  0
 18 23  2  0  0  0  0
 18 24  1  0  0  0  0
 19 22  1  0  0  0  0
 19 39  1  0  0  0  0
 20 40  1  0  0  0  0
 20 41  1  0  0  0  0
 20 42  1  0  0  0  0
 21 22  2  0  0  0  0
 21 43  1  0  0  0  0
 22 44  1  0  0  0  0
 23 25  1  0  0  0  0
 23 45  1  0  0  0  0
 24 26  2  0  0  0  0
 24 46  1  0  0  0  0
 25 27  2  0  0  0  0
 25 47  1  0  0  0  0
 26 27  1  0  0  0  0
 26 48  1  0  0  0  0
 27 28  1  0  0  0  0
M  END
> <PUBCHEM_COMPOUND_CID>
71694021

> <PUBCHEM_CONFORMER_RMSD>
0.8

> <PUBCHEM_CONFORMER_DIVERSEORDER>
1
7
26
33
23
20
3
34
19
8
27
12
30
16
11
14
6
25
9
22
10
4
24
21
2
15
18
31
17
32
5
13
28
29

> <PUBCHEM_MMFF94_PARTIAL_CHARGES>
38
1 1.45
10 0.14
11 0.36
12 0.28
14 0.28
15 -0.14
16 -0.14
17 -0.15
18 -0.01
19 -0.15
2 -0.34
20 0.14
21 -0.15
22 -0.15
23 -0.15
24 -0.15
25 -0.15
26 -0.15
27 -0.14
28 1.16
3 -0.34
35 0.42
36 0.4
37 0.4
38 0.15
39 0.15
4 -0.34
43 0.15
44 0.15
45 0.15
46 0.15
47 0.15
48 0.15
5 -0.68
6 -0.68
7 -0.65
8 -0.65
9 -0.91

> <PUBCHEM_EFFECTIVE_ROTOR_COUNT>
6

> <PUBCHEM_PHARMACOPHORE_FEATURES>
10
1 5 acceptor
1 5 donor
1 6 acceptor
1 6 donor
1 7 acceptor
1 8 acceptor
1 9 donor
5 10 11 12 13 14 rings
6 15 16 17 19 21 22 rings
6 18 23 24 25 26 27 rings

> <PUBCHEM_HEAVY_ATOM_COUNT>
28

> <PUBCHEM_ATOM_DEF_STEREO_COUNT>
4

> <PUBCHEM_ATOM_UDEF_STEREO_COUNT>
0

> <PUBCHEM_BOND_DEF_STEREO_COUNT>
0

> <PUBCHEM_BOND_UDEF_STEREO_COUNT>
0

> <PUBCHEM_ISOTOPIC_ATOM_COUNT>
0

> <PUBCHEM_COMPONENT_COUNT>
1

> <PUBCHEM_CACTVS_TAUTO_COUNT>
1

> <PUBCHEM_CONFORMER_ID>
0445F6C500000001

> <PUBCHEM_MMFF94_ENERGY>
60.7288

> <PUBCHEM_FEATURE_SELFOVERLAP>
50.775

> <PUBCHEM_SHAPE_FINGERPRINT>
104564 63 18340764841185092032
10863032 1 18050283670215603548
1100329 8 18265330801583863079
11578080 2 17389091261851822343
12011746 2 18334853935156560623
12422481 6 18129112116744403475
12553582 1 18336817675871869977
12633257 1 18261111919427731691
12788726 201 18410299120794554016
13140716 1 18267869565015032633
13965767 371 17699315199538490265
14178342 30 18197220239562671152
14223421 5 18194399983325042711
14251751 93 18269267981018818828
14787075 74 18334575754488551903
15209289 33 18342738545887041520
16945 1 18342726399735294070
20600515 1 18041295343110458887
20691752 17 18189356605361766541
20905425 154 18270398265665258343
21421861 104 18117562821147560161
21857420 4 15401274672332766391
22113638 7 18267298922769896535
229495 10 13182192712680559776
23559900 14 18198901612285754112
3052486 1 18190193299361536556
392239 28 18261970634268205739
463206 1 18339918337791852367
465052 167 18117566330568500235
474 4 18336265734051828303
484985 159 14933733281132509251
59755656 215 18341610387180900799
70251023 43 18268155249830599419

> <PUBCHEM_SHAPE_MULTIPOLES>
529.8
7.61
3.8
1.56
0.61
1.68
0.2
-1.46
-0.8
0.26
-0.13
-0.09
-0.3
-0.35

> <PUBCHEM_SHAPE_SELFOVERLAP>
1128.694

> <PUBCHEM_SHAPE_VOLUME>
299.1

> <PUBCHEM_COORDINATE_TYPE>
2
5
10

$$$$
