40777419
  -OEChem-12032416393D

 63 66  0     1  0  0  0  0  0999 V2000
   -4.6492   -2.4251   -0.3546 O   0  0  0  0  0  0  0  0  0  0  0  0
    3.5151   -1.9281    0.3870 O   0  0  0  0  0  0  0  0  0  0  0  0
    9.0099    1.1005   -0.0962 O   0  0  0  0  0  0  0  0  0  0  0  0
   -1.1993    1.5671    1.7341 N   0  0  0  0  0  0  0  0  0  0  0  0
   -5.1999   -0.2165   -0.8233 N   0  0  0  0  0  0  0  0  0  0  0  0
    2.1646   -2.2438    0.3007 N   0  0  0  0  0  0  0  0  0  0  0  0
   -2.1305   -1.0122    0.6449 C   0  0  1  0  0  0  0  0  0  0  0  0
   -0.6477   -0.5721    0.6004 C   0  0  2  0  0  0  0  0  0  0  0  0
   -2.8365   -0.2815    1.7993 C   0  0  0  0  0  0  0  0  0  0  0  0
   -0.5097    0.9596    0.5953 C   0  0  0  0  0  0  0  0  0  0  0  0
   -2.8831   -0.8030   -0.6745 C   0  0  0  0  0  0  0  0  0  0  0  0
   -2.6213    1.2306    1.7508 C   0  0  0  0  0  0  0  0  0  0  0  0
    0.1244   -1.1850   -0.5687 C   0  0  0  0  0  0  0  0  0  0  0  0
   -6.6376   -0.3718   -0.8083 C   0  0  0  0  0  0  0  0  0  0  0  0
   -7.1962   -0.1916    0.6072 C   0  0  0  0  0  0  0  0  0  0  0  0
   -7.3059    0.5905   -1.7960 C   0  0  0  0  0  0  0  0  0  0  0  0
   -4.3221   -1.2658   -0.5931 C   0  0  0  0  0  0  0  0  0  0  0  0
   -7.1441    1.2626    1.0758 C   0  0  0  0  0  0  0  0  0  0  0  0
   -7.2536    2.0433   -1.3234 C   0  0  0  0  0  0  0  0  0  0  0  0
   -7.8252    2.1991    0.0824 C   0  0  0  0  0  0  0  0  0  0  0  0
    1.6022   -1.1934   -0.3038 C   0  0  0  0  0  0  0  0  0  0  0  0
    2.5392   -0.1943   -0.6192 C   0  0  0  0  0  0  0  0  0  0  0  0
    3.7257   -0.7054   -0.1640 C   0  0  0  0  0  0  0  0  0  0  0  0
    5.0828   -0.2421   -0.1475 C   0  0  0  0  0  0  0  0  0  0  0  0
    5.4015    1.0028   -0.6904 C   0  0  0  0  0  0  0  0  0  0  0  0
    6.0841   -1.0360    0.4117 C   0  0  0  0  0  0  0  0  0  0  0  0
    6.7212    1.4536   -0.6740 C   0  0  0  0  0  0  0  0  0  0  0  0
    7.4040   -0.5852    0.4281 C   0  0  0  0  0  0  0  0  0  0  0  0
    7.7225    0.6595   -0.1149 C   0  0  0  0  0  0  0  0  0  0  0  0
    9.2648    2.3839   -0.6656 C   0  0  0  0  0  0  0  0  0  0  0  0
   -2.1585   -2.0869    0.8731 H   0  0  0  0  0  0  0  0  0  0  0  0
   -0.1952   -0.9343    1.5369 H   0  0  0  0  0  0  0  0  0  0  0  0
   -2.4296   -0.6600    2.7475 H   0  0  0  0  0  0  0  0  0  0  0  0
   -3.9083   -0.5030    1.8324 H   0  0  0  0  0  0  0  0  0  0  0  0
    0.5431    1.2466    0.6726 H   0  0  0  0  0  0  0  0  0  0  0  0
   -0.8843    1.3885   -0.3420 H   0  0  0  0  0  0  0  0  0  0  0  0
   -2.4231   -1.3968   -1.4736 H   0  0  0  0  0  0  0  0  0  0  0  0
   -2.8226    0.2398   -1.0023 H   0  0  0  0  0  0  0  0  0  0  0  0
   -3.1266    1.6689    0.8825 H   0  0  0  0  0  0  0  0  0  0  0  0
   -3.0764    1.6815    2.6397 H   0  0  0  0  0  0  0  0  0  0  0  0
   -0.0767   -0.6455   -1.5025 H   0  0  0  0  0  0  0  0  0  0  0  0
   -0.1998   -2.2216   -0.7297 H   0  0  0  0  0  0  0  0  0  0  0  0
   -6.8553   -1.3976   -1.1311 H   0  0  0  0  0  0  0  0  0  0  0  0
   -1.0931    2.5802    1.6913 H   0  0  0  0  0  0  0  0  0  0  0  0
   -6.6508   -0.8217    1.3199 H   0  0  0  0  0  0  0  0  0  0  0  0
   -8.2408   -0.5283    0.6225 H   0  0  0  0  0  0  0  0  0  0  0  0
   -8.3564    0.2988   -1.9223 H   0  0  0  0  0  0  0  0  0  0  0  0
   -6.8335    0.5123   -2.7827 H   0  0  0  0  0  0  0  0  0  0  0  0
   -6.1000    1.5698    1.2124 H   0  0  0  0  0  0  0  0  0  0  0  0
   -7.6298    1.3495    2.0544 H   0  0  0  0  0  0  0  0  0  0  0  0
   -7.8205    2.6727   -2.0191 H   0  0  0  0  0  0  0  0  0  0  0  0
   -6.2204    2.4092   -1.3423 H   0  0  0  0  0  0  0  0  0  0  0  0
   -8.9016    1.9884    0.0631 H   0  0  0  0  0  0  0  0  0  0  0  0
   -7.7096    3.2368    0.4149 H   0  0  0  0  0  0  0  0  0  0  0  0
   -4.8284    0.7205   -0.9441 H   0  0  0  0  0  0  0  0  0  0  0  0
    2.3675    0.7533   -1.1085 H   0  0  0  0  0  0  0  0  0  0  0  0
    4.6424    1.6430   -1.1325 H   0  0  0  0  0  0  0  0  0  0  0  0
    5.8759   -2.0111    0.8446 H   0  0  0  0  0  0  0  0  0  0  0  0
    6.8989    2.4298   -1.1121 H   0  0  0  0  0  0  0  0  0  0  0  0
    8.1800   -1.2075    0.8655 H   0  0  0  0  0  0  0  0  0  0  0  0
   10.3383    2.5747   -0.5648 H   0  0  0  0  0  0  0  0  0  0  0  0
    8.7463    3.1776   -0.1172 H   0  0  0  0  0  0  0  0  0  0  0  0
    9.0362    2.4014   -1.7366 H   0  0  0  0  0  0  0  0  0  0  0  0
  1 17  2  0  0  0  0
  2  6  1  0  0  0  0
  2 23  1  0  0  0  0
  3 29  1  0  0  0  0
  3 30  1  0  0  0  0
  4 10  1  0  0  0  0
  4 12  1  0  0  0  0
  4 44  1  0  0  0  0
  5 14  1  0  0  0  0
  5 17  1  0  0  0  0
  5 55  1  0  0  0  0
  6 21  2  0  0  0  0
  7  8  1  0  0  0  0
  7  9  1  0  0  0  0
  7 11  1  0  0  0  0
  7 31  1  0  0  0  0
  8 10  1  0  0  0  0
  8 13  1  0  0  0  0
  8 32  1  0  0  0  0
  9 12  1  0  0  0  0
  9 33  1  0  0  0  0
  9 34  1  0  0  0  0
 10 35  1  0  0  0  0
 10 36  1  0  0  0  0
 11 17  1  0  0  0  0
 11 37  1  0  0  0  0
 11 38  1  0  0  0  0
 12 39  1  0  0  0  0
 12 40  1  0  0  0  0
 13 21  1  0  0  0  0
 13 41  1  0  0  0  0
 13 42  1  0  0  0  0
 14 15  1  0  0  0  0
 14 16  1  0  0  0  0
 14 43  1  0  0  0  0
 15 18  1  0  0  0  0
 15 45  1  0  0  0  0
 15 46  1  0  0  0  0
 16 19  1  0  0  0  0
 16 47  1  0  0  0  0
 16 48  1  0  0  0  0
 18 20  1  0  0  0  0
 18 49  1  0  0  0  0
 18 50  1  0  0  0  0
 19 20  1  0  0  0  0
 19 51  1  0  0  0  0
 19 52  1  0  0  0  0
 20 53  1  0  0  0  0
 20 54  1  0  0  0  0
 21 22  1  0  0  0  0
 22 23  2  0  0  0  0
 22 56  1  0  0  0  0
 23 24  1  0  0  0  0
 24 25  2  0  0  0  0
 24 26  1  0  0  0  0
 25 27  1  0  0  0  0
 25 57  1  0  0  0  0
 26 28  2  0  0  0  0
 26 58  1  0  0  0  0
 27 29  2  0  0  0  0
 27 59  1  0  0  0  0
 28 29  1  0  0  0  0
 28 60  1  0  0  0  0
 30 61  1  0  0  0  0
 30 62  1  0  0  0  0
 30 63  1  0  0  0  0
M  END
> <PUBCHEM_COMPOUND_CID>
40777419

> <PUBCHEM_CONFORMER_RMSD>
1

> <PUBCHEM_CONFORMER_DIVERSEORDER>
1
98
171
70
151
40
133
145
156
150
124
87
164
138
37
3
86
104
129
100
42
117
88
149
170
81
58
118
113
44
24
101
75
147
21
114
15
173
53
68
7
172
64
103
122
26
177
130
97
128
92
179
168
176
141
123
126
13
76
61
115
38
158
93
119
50
143
51
73
162
29
146
69
99
161
163
153
22
80
14
134
9
89
136
36
71
142
33
94
106
160
57
167
35
120
165
78
30
83
79
102
32
77
72
107
132
96
175
59
140
12
16
62
65
159
116
63
2
67
125
111
10
17
43
110
60
49
127
105
178
39
144
154
148
20
19
174
152
4
31
54
25
157
6
66
41
27
135
155
166
90
139
55
18
74
109
5
28
82
48
84
47
11
137
108
8
131
121
85
169
56
34
112
91
95
45
46
23
52

> <PUBCHEM_MMFF94_PARTIAL_CHARGES>
29
1 -0.57
10 0.27
11 0.06
12 0.27
13 0.18
14 0.3
17 0.57
2 -0.02
21 0.11
22 -0.15
23 0.09
24 0.05
25 -0.15
26 -0.15
27 -0.15
28 -0.15
29 0.08
3 -0.36
30 0.28
4 -0.9
44 0.36
5 -0.73
55 0.37
56 0.15
57 0.15
58 0.15
59 0.15
6 -0.41
60 0.15

> <PUBCHEM_EFFECTIVE_ROTOR_COUNT>
10.4

> <PUBCHEM_PHARMACOPHORE_FEATURES>
10
1 1 acceptor
1 3 acceptor
1 4 cation
1 4 donor
1 5 donor
1 6 acceptor
5 2 6 21 22 23 rings
6 14 15 16 18 19 20 rings
6 24 25 26 27 28 29 rings
6 4 7 8 9 10 12 rings

> <PUBCHEM_HEAVY_ATOM_COUNT>
30

> <PUBCHEM_ATOM_DEF_STEREO_COUNT>
2

> <PUBCHEM_ATOM_UDEF_STEREO_COUNT>
0

> <PUBCHEM_BOND_DEF_STEREO_COUNT>
0

> <PUBCHEM_BOND_UDEF_STEREO_COUNT>
0

> <PUBCHEM_ISOTOPIC_ATOM_COUNT>
0

> <PUBCHEM_COMPONENT_COUNT>
1

> <PUBCHEM_CACTVS_TAUTO_COUNT>
2

> <PUBCHEM_CONFORMER_ID>
026E36CB00000001

> <PUBCHEM_MMFF94_ENERGY>
53.0046

> <PUBCHEM_FEATURE_SELFOVERLAP>
50.747

> <PUBCHEM_SHAPE_FINGERPRINT>
10076449 9 17346880066328279627
10429389 143 18335138717785720108
10835480 77 18261108569569557503
10906281 52 17917159308373439551
11135609 187 18335138670345933923
11181472 205 18270686351118883202
11315181 36 18272655675091555307
11386260 185 15123499346634042874
11456790 92 17676200265456886096
11646440 116 14707209902903156183
12539765 74 18411425012254290390
13726171 33 17972875866384997421
13914758 101 18040151799293431664
14118638 360 16702031846513447286
1454969 45 17489587861596849366
150020 25 15339116844915193840
15183329 4 18271800199737818345
15276724 80 18336259034155976653
15439362 3 18050564342493535224
1577012 14 18410289229379454430
16087824 20 17845659132751209129
16993089 31 12031796859223604008
16994733 274 17894627020595563217
1754908 1 14418134028190407340
1754911 235 17988926691344440068
17899979 19 18335986449751376084
195137 175 18343021086321700473
2026 5 10951787269769742172
21033648 29 16009315430727574592
21095086 128 11527950058410380996
21424621 283 17458341889120295833
21781055 127 14780115134586166742
23559900 14 17917421069138532235
23576562 1 16915922145477583773
335352 9 17918269849730004049
3383291 50 13984666945054482025
3633792 109 18335981969947193638
3711267 37 18335430079550728668
4017518 198 14620793812594192437
4073 2 18113621204853677602
4093350 32 16588296151695980122
4098825 35 18259701207765760061
4169191 19 18412823556694735621
4325135 7 17847064393834754652
44389302 135 8430055139873976260
444769 64 11169917204034171969
4516262 110 18411139165490520844
4625314 4 18342740741412174806
504579 68 18343311340438450470
5385378 56 14635140184061684568
54039377 194 16486684871353105271
57527295 17 18338221735885378419
6328613 192 18412825764381973357
636775 72 18113897139907924765

> <PUBCHEM_SHAPE_MULTIPOLES>
584.83
29.77
2.17
1.34
21.07
0.32
0.26
17.7
-6.49
0.01
-0.15
-2.33
0.4
-1.03

> <PUBCHEM_SHAPE_SELFOVERLAP>
1231.794

> <PUBCHEM_SHAPE_VOLUME>
326.4

> <PUBCHEM_COORDINATE_TYPE>
2
5
10

$$$$
