45783584
  -OEChem-12032416313D

 57 60  0     1  0  0  0  0  0999 V2000
   -4.2414   -0.7237    1.0915 O   0  0  0  0  0  0  0  0  0  0  0  0
    2.6197    0.0227   -2.0492 O   0  0  0  0  0  0  0  0  0  0  0  0
    5.0366   -0.0451    0.5008 N   0  0  1  0  0  0  0  0  0  0  0  0
    2.0345   -0.7934   -0.0470 N   0  0  0  0  0  0  0  0  0  0  0  0
    1.2240    0.1190   -1.9821 N   0  0  0  0  0  0  0  0  0  0  0  0
   -2.7494   -0.1300   -0.5829 N   0  0  0  0  0  0  0  0  0  0  0  0
    4.5050   -0.7356   -0.6912 C   0  0  1  0  0  0  0  0  0  0  0  0
    4.8749   -2.2158   -0.4832 C   0  0  0  0  0  0  0  0  0  0  0  0
    6.1816   -0.8325    0.9584 C   0  0  0  0  0  0  0  0  0  0  0  0
    5.6636   -2.2497    0.8181 C   0  0  0  0  0  0  0  0  0  0  0  0
    5.3931    1.3450    0.2480 C   0  0  0  0  0  0  0  0  0  0  0  0
    4.1778    2.2856    0.3197 C   0  0  0  0  0  0  0  0  0  0  0  0
    3.0162   -0.5248   -0.8704 C   0  0  0  0  0  0  0  0  0  0  0  0
   -5.2484   -0.2469    0.2054 C   0  0  0  0  0  0  0  0  0  0  0  0
   -5.4697    1.2471    0.4367 C   0  0  0  0  0  0  0  0  0  0  0  0
   -6.5348   -1.0453    0.4139 C   0  0  0  0  0  0  0  0  0  0  0  0
   -6.6094    1.7851   -0.4224 C   0  0  0  0  0  0  0  0  0  0  0  0
   -7.6745   -0.5074   -0.4450 C   0  0  0  0  0  0  0  0  0  0  0  0
   -7.8942    0.9861   -0.2158 C   0  0  0  0  0  0  0  0  0  0  0  0
    4.5393    3.7379   -0.0025 C   0  0  0  0  0  0  0  0  0  0  0  0
    3.5469    2.2093    1.7126 C   0  0  0  0  0  0  0  0  0  0  0  0
    0.9548   -0.3813   -0.7725 C   0  0  0  0  0  0  0  0  0  0  0  0
   -2.9470   -0.6486    0.6499 C   0  0  0  0  0  0  0  0  0  0  0  0
   -0.3798   -0.4846   -0.2605 C   0  0  0  0  0  0  0  0  0  0  0  0
   -1.9285   -1.0994    1.4740 C   0  0  0  0  0  0  0  0  0  0  0  0
   -0.6232   -1.0124    1.0028 C   0  0  0  0  0  0  0  0  0  0  0  0
   -1.4676   -0.0614   -1.0071 C   0  0  0  0  0  0  0  0  0  0  0  0
    5.0200   -0.3960   -1.6008 H   0  0  0  0  0  0  0  0  0  0  0  0
    4.0118   -2.8882   -0.4329 H   0  0  0  0  0  0  0  0  0  0  0  0
    5.5151   -2.5543   -1.3072 H   0  0  0  0  0  0  0  0  0  0  0  0
    7.0602   -0.6835    0.3179 H   0  0  0  0  0  0  0  0  0  0  0  0
    6.4520   -0.6044    1.9940 H   0  0  0  0  0  0  0  0  0  0  0  0
    6.4683   -2.9904    0.7952 H   0  0  0  0  0  0  0  0  0  0  0  0
    4.9954   -2.4972    1.6523 H   0  0  0  0  0  0  0  0  0  0  0  0
    6.1092    1.6816    1.0111 H   0  0  0  0  0  0  0  0  0  0  0  0
    5.9099    1.4600   -0.7137 H   0  0  0  0  0  0  0  0  0  0  0  0
    3.4260    1.9929   -0.4177 H   0  0  0  0  0  0  0  0  0  0  0  0
   -4.9759   -0.4167   -0.8454 H   0  0  0  0  0  0  0  0  0  0  0  0
   -4.5534    1.8102    0.2250 H   0  0  0  0  0  0  0  0  0  0  0  0
   -5.6875    1.4259    1.4978 H   0  0  0  0  0  0  0  0  0  0  0  0
   -6.8194   -1.0151    1.4737 H   0  0  0  0  0  0  0  0  0  0  0  0
   -6.3569   -2.1030    0.1848 H   0  0  0  0  0  0  0  0  0  0  0  0
   -6.3202    1.7442   -1.4797 H   0  0  0  0  0  0  0  0  0  0  0  0
   -6.7882    2.8389   -0.1806 H   0  0  0  0  0  0  0  0  0  0  0  0
   -7.4494   -0.6847   -1.5039 H   0  0  0  0  0  0  0  0  0  0  0  0
   -8.5966   -1.0545   -0.2189 H   0  0  0  0  0  0  0  0  0  0  0  0
   -8.6701    1.3533   -0.8969 H   0  0  0  0  0  0  0  0  0  0  0  0
   -8.2624    1.1471    0.8049 H   0  0  0  0  0  0  0  0  0  0  0  0
    5.2744    4.1302    0.7083 H   0  0  0  0  0  0  0  0  0  0  0  0
    3.6528    4.3798    0.0355 H   0  0  0  0  0  0  0  0  0  0  0  0
    4.9664    3.8140   -1.0079 H   0  0  0  0  0  0  0  0  0  0  0  0
    4.2654    2.4863    2.4919 H   0  0  0  0  0  0  0  0  0  0  0  0
    2.6948    2.8941    1.7864 H   0  0  0  0  0  0  0  0  0  0  0  0
    3.1714    1.2059    1.9364 H   0  0  0  0  0  0  0  0  0  0  0  0
   -2.1354   -1.5083    2.4570 H   0  0  0  0  0  0  0  0  0  0  0  0
    0.1837   -1.3627    1.6412 H   0  0  0  0  0  0  0  0  0  0  0  0
   -1.3637    0.3624   -2.0015 H   0  0  0  0  0  0  0  0  0  0  0  0
  1 14  1  0  0  0  0
  1 23  1  0  0  0  0
  2  5  1  0  0  0  0
  2 13  1  0  0  0  0
  3  7  1  0  0  0  0
  3  9  1  0  0  0  0
  3 11  1  0  0  0  0
  4 13  2  0  0  0  0
  4 22  1  0  0  0  0
  5 22  2  0  0  0  0
  6 23  2  0  0  0  0
  6 27  1  0  0  0  0
  7  8  1  0  0  0  0
  7 13  1  0  0  0  0
  7 28  1  0  0  0  0
  8 10  1  0  0  0  0
  8 29  1  0  0  0  0
  8 30  1  0  0  0  0
  9 10  1  0  0  0  0
  9 31  1  0  0  0  0
  9 32  1  0  0  0  0
 10 33  1  0  0  0  0
 10 34  1  0  0  0  0
 11 12  1  0  0  0  0
 11 35  1  0  0  0  0
 11 36  1  0  0  0  0
 12 20  1  0  0  0  0
 12 21  1  0  0  0  0
 12 37  1  0  0  0  0
 14 15  1  0  0  0  0
 14 16  1  0  0  0  0
 14 38  1  0  0  0  0
 15 17  1  0  0  0  0
 15 39  1  0  0  0  0
 15 40  1  0  0  0  0
 16 18  1  0  0  0  0
 16 41  1  0  0  0  0
 16 42  1  0  0  0  0
 17 19  1  0  0  0  0
 17 43  1  0  0  0  0
 17 44  1  0  0  0  0
 18 19  1  0  0  0  0
 18 45  1  0  0  0  0
 18 46  1  0  0  0  0
 19 47  1  0  0  0  0
 19 48  1  0  0  0  0
 20 49  1  0  0  0  0
 20 50  1  0  0  0  0
 20 51  1  0  0  0  0
 21 52  1  0  0  0  0
 21 53  1  0  0  0  0
 21 54  1  0  0  0  0
 22 24  1  0  0  0  0
 23 25  1  0  0  0  0
 24 26  1  0  0  0  0
 24 27  2  0  0  0  0
 25 26  2  0  0  0  0
 25 55  1  0  0  0  0
 26 56  1  0  0  0  0
 27 57  1  0  0  0  0
M  END
> <PUBCHEM_COMPOUND_CID>
45783584

> <PUBCHEM_CONFORMER_RMSD>
1

> <PUBCHEM_CONFORMER_DIVERSEORDER>
1
129
44
95
106
119
97
121
50
68
57
130
96
11
123
87
113
120
10
92
33
132
67
91
23
78
7
99
131
70
103
18
102
2
108
109
75
110
15
90
73
26
61
6
65
127
60
88
63
76
107
31
82
59
117
79
122
46
89
135
100
98
30
74
69
114
101
134
52
56
133
12
71
85
34
136
80
9
55
35
137
41
84
111
81
124
5
118
39
16
105
112
45
116
115
48
62
20
47
77
24
8
13
54
138
32
125
3
38
51
36
14
28
104
58
86
93
72
21
17
37
43
19
22
53
64
42
29
94
83
66
126
4
25
27
128
49
40

> <PUBCHEM_MMFF94_PARTIAL_CHARGES>
20
1 -0.36
11 0.27
13 0.3
14 0.28
2 -0.02
22 0.46
23 0.39
24 0.05
25 -0.15
26 -0.15
27 0.16
3 -0.81
4 -0.57
5 -0.41
55 0.15
56 0.15
57 0.15
6 -0.62
7 0.45
9 0.27

> <PUBCHEM_EFFECTIVE_ROTOR_COUNT>
8.2

> <PUBCHEM_PHARMACOPHORE_FEATURES>
7
1 3 cation
3 12 20 21 hydrophobe
3 4 5 22 cation
5 2 4 5 13 22 rings
5 3 7 8 9 10 rings
6 14 15 16 17 18 19 rings
6 6 23 24 25 26 27 rings

> <PUBCHEM_HEAVY_ATOM_COUNT>
27

> <PUBCHEM_ATOM_DEF_STEREO_COUNT>
1

> <PUBCHEM_ATOM_UDEF_STEREO_COUNT>
0

> <PUBCHEM_BOND_DEF_STEREO_COUNT>
0

> <PUBCHEM_BOND_UDEF_STEREO_COUNT>
0

> <PUBCHEM_ISOTOPIC_ATOM_COUNT>
0

> <PUBCHEM_COMPONENT_COUNT>
1

> <PUBCHEM_CACTVS_TAUTO_COUNT>
1

> <PUBCHEM_CONFORMER_ID>
02BA9A2000000001

> <PUBCHEM_MMFF94_ENERGY>
45.2836

> <PUBCHEM_FEATURE_SELFOVERLAP>
35.523

> <PUBCHEM_SHAPE_FINGERPRINT>
10162869 55 18059842995958675679
10165383 225 18115311202719851772
10299344 5 10953742196947707465
10319926 262 17167870789801670161
11089746 13 18410294688229568339
11186622 174 18410008831938056697
11505856 67 16973646720985044836
11719270 70 17346598556148299479
11796584 16 14418145036207060706
11991303 11 17274535533798886359
125118 31 18342460327018339305
12616971 3 17917983988610463916
13533116 47 18333733490311942506
13878862 14 18271228491782266988
13914758 101 18334576794318446089
14347424 109 18040150717563014304
14767858 380 15554450708463300873
15131766 46 17984693682941288132
15183329 4 17060342941898593921
15348495 7 18334297603700113907
19301679 30 18053660271327571098
20157964 124 18202004330550156454
20281389 69 18334014974036602781
21033648 29 18262227924162356640
21130935 74 18040156223200035155
21150785 3 11383826082599283287
21315764 268 18408038498611907221
21344244 78 17988635243638298010
21641784 216 15841287990329018545
21859007 373 17895747405590019909
23522609 53 11963954698409151823
23559900 14 17749401398721220790
249057 25 17775293742013873721
2838139 119 18411135793514451653
3004659 81 15574719101172196678
3044373 193 18273217503683732100
33382 64 10881395439451310428
335352 9 17022911142114807391
34797466 226 17988934375103820445
394071 54 16443348736450230356
397830 11 18263089975580288323
4073 2 18115310110558656698
4325135 7 14333404532698558203
4340502 62 17704073966888284431
44555599 121 18130798819770372937
44880568 143 18059583434760261869
5104073 3 16009607909072971945
54039377 194 11963931690902349864
59755656 215 16081368514538431435
68570916 9 18271803588245638199
8988823 20 18411138043839690998

> <PUBCHEM_SHAPE_MULTIPOLES>
523.98
21.46
2.5
1.36
28.79
2.23
0.16
2.76
-1.79
-4.83
-0.5
-0.83
-0.05
0.89

> <PUBCHEM_SHAPE_SELFOVERLAP>
1104.273

> <PUBCHEM_SHAPE_VOLUME>
294.7

> <PUBCHEM_COORDINATE_TYPE>
2
5
10

$$$$
