11867236
  -OEChem-12032416413D

 56 59  0     1  0  0  0  0  0999 V2000
   -3.3129   -0.7584   -0.5222 S   0  0  0  0  0  0  0  0  0  0  0  0
   -1.8541    5.7229   -0.2379 F   0  0  0  0  0  0  0  0  0  0  0  0
   -1.1822   -2.5993    0.8906 O   0  0  0  0  0  0  0  0  0  0  0  0
    2.1039    1.2609    2.2672 O   0  0  0  0  0  0  0  0  0  0  0  0
   -2.4033   -0.2173    0.4697 O   0  0  0  0  0  0  0  0  0  0  0  0
   -4.1053    0.1131   -1.3680 O   0  0  0  0  0  0  0  0  0  0  0  0
    0.9381   -2.2504   -0.0437 N   0  0  0  0  0  0  0  0  0  0  0  0
    3.1609   -0.0862    0.7108 N   0  0  0  0  0  0  0  0  0  0  0  0
    2.2182    1.9786    0.0653 N   0  0  0  0  0  0  0  0  0  0  0  0
   -2.4945   -1.8964   -1.4930 N   0  0  0  0  0  0  0  0  0  0  0  0
    3.1095   -2.5208    1.2807 C   0  0  2  0  0  0  0  0  0  0  0  0
    3.1989   -1.8235   -1.0743 C   0  0  2  0  0  0  0  0  0  0  0  0
    3.7341   -2.8417   -0.0711 C   0  0  0  0  0  0  0  0  0  0  0  0
    1.5915   -2.7116    1.1874 C   0  0  0  0  0  0  0  0  0  0  0  0
    3.4881   -1.0968    1.7208 C   0  0  0  0  0  0  0  0  0  0  0  0
    3.6231   -0.4006   -0.6534 C   0  0  0  0  0  0  0  0  0  0  0  0
    1.6857   -1.8961   -1.1747 C   0  0  0  0  0  0  0  0  0  0  0  0
    1.0687   -1.5891   -2.3305 C   0  0  0  0  0  0  0  0  0  0  0  0
   -0.4722   -2.2822   -0.0629 C   0  0  0  0  0  0  0  0  0  0  0  0
    2.4555    1.0740    1.0994 C   0  0  0  0  0  0  0  0  0  0  0  0
   -1.0949   -1.9097   -1.3579 C   0  0  0  0  0  0  0  0  0  0  0  0
   -0.3657   -1.5944   -2.4290 C   0  0  0  0  0  0  0  0  0  0  0  0
    1.1762    2.9351   -0.0130 C   0  0  0  0  0  0  0  0  0  0  0  0
   -4.4328   -1.8432    0.3276 C   0  0  0  0  0  0  0  0  0  0  0  0
   -5.3192   -1.0763    1.2948 C   0  0  0  0  0  0  0  0  0  0  0  0
    0.1966    2.9739    0.9756 C   0  0  0  0  0  0  0  0  0  0  0  0
    1.1385    3.8319   -1.0772 C   0  0  0  0  0  0  0  0  0  0  0  0
   -6.2650   -2.0050    2.0379 C   0  0  0  0  0  0  0  0  0  0  0  0
   -0.8286    3.9166    0.8993 C   0  0  0  0  0  0  0  0  0  0  0  0
    0.1133    4.7748   -1.1533 C   0  0  0  0  0  0  0  0  0  0  0  0
   -0.8702    4.8172   -0.1650 C   0  0  0  0  0  0  0  0  0  0  0  0
    3.4966   -3.2144    2.0374 H   0  0  0  0  0  0  0  0  0  0  0  0
    3.6451   -2.0417   -2.0534 H   0  0  0  0  0  0  0  0  0  0  0  0
    4.8278   -2.7838   -0.0119 H   0  0  0  0  0  0  0  0  0  0  0  0
    3.4823   -3.8637   -0.3807 H   0  0  0  0  0  0  0  0  0  0  0  0
    1.0909   -2.2449    2.0452 H   0  0  0  0  0  0  0  0  0  0  0  0
    1.3677   -3.7850    1.2556 H   0  0  0  0  0  0  0  0  0  0  0  0
    4.5717   -1.0360    1.8815 H   0  0  0  0  0  0  0  0  0  0  0  0
    3.0124   -0.8629    2.6788 H   0  0  0  0  0  0  0  0  0  0  0  0
    3.2571    0.3116   -1.3945 H   0  0  0  0  0  0  0  0  0  0  0  0
    4.7170   -0.3210   -0.6422 H   0  0  0  0  0  0  0  0  0  0  0  0
    1.6285   -1.3005   -3.2141 H   0  0  0  0  0  0  0  0  0  0  0  0
   -0.8073   -1.3243   -3.3822 H   0  0  0  0  0  0  0  0  0  0  0  0
    2.8685    2.0004   -0.7125 H   0  0  0  0  0  0  0  0  0  0  0  0
   -2.8315   -1.9438   -2.4643 H   0  0  0  0  0  0  0  0  0  0  0  0
   -5.0394   -2.3475   -0.4318 H   0  0  0  0  0  0  0  0  0  0  0  0
   -3.8380   -2.5891    0.8625 H   0  0  0  0  0  0  0  0  0  0  0  0
   -5.9041   -0.3231    0.7544 H   0  0  0  0  0  0  0  0  0  0  0  0
   -4.7039   -0.5344    2.0225 H   0  0  0  0  0  0  0  0  0  0  0  0
    0.1527    2.2799    1.8055 H   0  0  0  0  0  0  0  0  0  0  0  0
    1.8989    3.8091   -1.8534 H   0  0  0  0  0  0  0  0  0  0  0  0
   -6.8939   -1.4333    2.7275 H   0  0  0  0  0  0  0  0  0  0  0  0
   -6.9209   -2.5363    1.3409 H   0  0  0  0  0  0  0  0  0  0  0  0
   -5.7093   -2.7467    2.6206 H   0  0  0  0  0  0  0  0  0  0  0  0
   -1.5996    3.9452    1.6636 H   0  0  0  0  0  0  0  0  0  0  0  0
    0.0805    5.4761   -1.9818 H   0  0  0  0  0  0  0  0  0  0  0  0
  1  5  2  0  0  0  0
  1  6  2  0  0  0  0
  1 10  1  0  0  0  0
  1 24  1  0  0  0  0
  2 31  1  0  0  0  0
  3 19  2  0  0  0  0
  4 20  2  0  0  0  0
  7 14  1  0  0  0  0
  7 17  1  0  0  0  0
  7 19  1  0  0  0  0
  8 15  1  0  0  0  0
  8 16  1  0  0  0  0
  8 20  1  0  0  0  0
  9 20  1  0  0  0  0
  9 23  1  0  0  0  0
  9 44  1  0  0  0  0
 10 21  1  0  0  0  0
 10 45  1  0  0  0  0
 11 13  1  0  0  0  0
 11 14  1  0  0  0  0
 11 15  1  0  0  0  0
 11 32  1  0  0  0  0
 12 13  1  0  0  0  0
 12 16  1  0  0  0  0
 12 17  1  0  0  0  0
 12 33  1  0  0  0  0
 13 34  1  0  0  0  0
 13 35  1  0  0  0  0
 14 36  1  0  0  0  0
 14 37  1  0  0  0  0
 15 38  1  0  0  0  0
 15 39  1  0  0  0  0
 16 40  1  0  0  0  0
 16 41  1  0  0  0  0
 17 18  2  0  0  0  0
 18 22  1  0  0  0  0
 18 42  1  0  0  0  0
 19 21  1  0  0  0  0
 21 22  2  0  0  0  0
 22 43  1  0  0  0  0
 23 26  2  0  0  0  0
 23 27  1  0  0  0  0
 24 25  1  0  0  0  0
 24 46  1  0  0  0  0
 24 47  1  0  0  0  0
 25 28  1  0  0  0  0
 25 48  1  0  0  0  0
 25 49  1  0  0  0  0
 26 29  1  0  0  0  0
 26 50  1  0  0  0  0
 27 30  2  0  0  0  0
 27 51  1  0  0  0  0
 28 52  1  0  0  0  0
 28 53  1  0  0  0  0
 28 54  1  0  0  0  0
 29 31  2  0  0  0  0
 29 55  1  0  0  0  0
 30 31  1  0  0  0  0
 30 56  1  0  0  0  0
M  END
> <PUBCHEM_COMPOUND_CID>
11867236

> <PUBCHEM_CONFORMER_RMSD>
1

> <PUBCHEM_CONFORMER_DIVERSEORDER>
1
78
47
88
50
62
37
109
92
95
84
63
41
102
75
49
25
52
110
91
85
107
38
108
51
89
101
76
97
87
60
40
32
80
93
56
112
71
113
9
68
61
59
111
98
67
11
77
83
43
55
15
103
46
19
94
33
7
74
44
81
35
104
79
54
23
16
86
34
53
70
27
13
24
18
64
57
22
106
3
105
82
31
20
72
99
48
100
66
73
17
65
5
69
10
96
90
42
36
29
6
2
58
30
39
45
28
12
4
14
21
26
8

> <PUBCHEM_MMFF94_PARTIAL_CHARGES>
35
1 1.33
10 -0.75
12 0.14
14 0.3
15 0.3
16 0.3
17 -0.03
18 -0.15
19 0.62
2 -0.19
20 0.69
21 0.21
22 -0.15
23 0.12
24 0.11
26 -0.15
27 -0.15
29 -0.15
3 -0.57
30 -0.15
31 0.19
4 -0.57
42 0.15
43 0.15
44 0.37
45 0.42
5 -0.65
50 0.15
51 0.15
55 0.15
56 0.15
6 -0.65
7 -0.47
8 -0.66
9 -0.55

> <PUBCHEM_EFFECTIVE_ROTOR_COUNT>
8

> <PUBCHEM_PHARMACOPHORE_FEATURES>
11
1 10 donor
1 28 hydrophobe
1 3 acceptor
1 4 acceptor
1 5 acceptor
1 6 acceptor
1 9 donor
6 23 26 27 29 30 31 rings
6 7 11 12 13 14 17 rings
6 7 17 18 19 21 22 rings
6 8 11 12 13 15 16 rings

> <PUBCHEM_HEAVY_ATOM_COUNT>
31

> <PUBCHEM_ATOM_DEF_STEREO_COUNT>
2

> <PUBCHEM_ATOM_UDEF_STEREO_COUNT>
0

> <PUBCHEM_BOND_DEF_STEREO_COUNT>
0

> <PUBCHEM_BOND_UDEF_STEREO_COUNT>
0

> <PUBCHEM_ISOTOPIC_ATOM_COUNT>
0

> <PUBCHEM_COMPONENT_COUNT>
1

> <PUBCHEM_CACTVS_TAUTO_COUNT>
2

> <PUBCHEM_CONFORMER_ID>
00B5146400000001

> <PUBCHEM_MMFF94_ENERGY>
76.0082

> <PUBCHEM_FEATURE_SELFOVERLAP>
57.413

> <PUBCHEM_SHAPE_FINGERPRINT>
10074138 170 17542199295201437587
10190206 1 18263103093048863628
10316853 100 17619626883056434713
10483366 6 18050595094564525940
10688039 33 18338803320746335162
11421498 54 18262533498253708862
12156800 1 17983317940564976724
12422481 6 17916875603986637787
12633257 1 17899393553403841298
12788726 201 18337388245561342006
13583140 156 18188195590124890543
13965767 371 17631712968329599946
150020 26 18265326382468931281
151778 21 17832711545050177465
15276724 80 18272081709427571838
15475509 84 17902504892237858259
18785283 64 18120098535637862779
20465049 17 17834420164138522421
20764821 26 18193835938551275765
21860390 5 18268993253040409767
3052486 1 17905044747023055294
35225 105 17398975781080327718
373842 8 18340495487419137049
474 4 18051962907633649759
5951187 136 14404919015047686627

> <PUBCHEM_SHAPE_MULTIPOLES>
591.14
8.15
7.02
2.04
13.13
13.86
0.25
-7.73
-4.12
-0.46
0.65
0.15
-0.96
0.5

> <PUBCHEM_SHAPE_SELFOVERLAP>
1255.882

> <PUBCHEM_SHAPE_VOLUME>
331.3

> <PUBCHEM_COORDINATE_TYPE>
2
5
10

$$$$
