11885876
  -OEChem-12032416403D

 55 59  0     1  0  0  0  0  0999 V2000
   -2.2499   -5.2698   -0.7600 F   0  0  0  0  0  0  0  0  0  0  0  0
    0.4132    2.5502    1.1812 O   0  0  0  0  0  0  0  0  0  0  0  0
   -3.6449   -0.2769    2.7002 O   0  0  0  0  0  0  0  0  0  0  0  0
    2.3081   -1.1223   -1.3541 O   0  0  0  0  0  0  0  0  0  0  0  0
   -4.1629    0.6449    0.6129 N   0  0  0  0  0  0  0  0  0  0  0  0
   -1.4738    2.1506   -0.1373 N   0  0  0  0  0  0  0  0  0  0  0  0
    2.0285    0.9747   -0.3872 N   0  0  0  0  0  0  0  0  0  0  0  0
    9.3269   -0.1643    1.1303 N   0  0  0  0  0  0  0  0  0  0  0  0
   -3.7853    3.0980    0.4305 C   0  0  1  0  0  0  0  0  0  0  0  0
   -3.5015    1.6661   -1.5520 C   0  0  2  0  0  0  0  0  0  0  0  0
   -4.0311    3.0166   -1.0723 C   0  0  0  0  0  0  0  0  0  0  0  0
   -4.5176    1.9553    1.1571 C   0  0  0  0  0  0  0  0  0  0  0  0
   -2.2731    3.0693    0.6859 C   0  0  0  0  0  0  0  0  0  0  0  0
   -4.2725    0.5300   -0.8504 C   0  0  0  0  0  0  0  0  0  0  0  0
   -2.0180    1.5292   -1.2661 C   0  0  0  0  0  0  0  0  0  0  0  0
   -1.2395    0.7857   -2.0701 C   0  0  0  0  0  0  0  0  0  0  0  0
   -0.1146    2.0100    0.2081 C   0  0  0  0  0  0  0  0  0  0  0  0
   -3.7387   -0.3670    1.4774 C   0  0  0  0  0  0  0  0  0  0  0  0
    0.7123    1.1510   -0.6977 C   0  0  0  0  0  0  0  0  0  0  0  0
    0.1526    0.5938   -1.7767 C   0  0  0  0  0  0  0  0  0  0  0  0
   -3.3481   -1.6530    0.8905 C   0  0  0  0  0  0  0  0  0  0  0  0
   -2.0253   -1.8691    0.5129 C   0  0  0  0  0  0  0  0  0  0  0  0
   -4.3020   -2.6520    0.7138 C   0  0  0  0  0  0  0  0  0  0  0  0
    2.7518   -0.1577   -0.7358 C   0  0  0  0  0  0  0  0  0  0  0  0
   -1.6540   -3.0923   -0.0452 C   0  0  0  0  0  0  0  0  0  0  0  0
   -3.9307   -3.8753    0.1558 C   0  0  0  0  0  0  0  0  0  0  0  0
   -2.6066   -4.0955   -0.2237 C   0  0  0  0  0  0  0  0  0  0  0  0
    4.1814   -0.1593   -0.3302 C   0  0  0  0  0  0  0  0  0  0  0  0
    5.0815   -0.9005   -1.0672 C   0  0  0  0  0  0  0  0  0  0  0  0
    4.5622    0.5802    0.7701 C   0  0  0  0  0  0  0  0  0  0  0  0
    6.4234   -0.9024   -0.6865 C   0  0  0  0  0  0  0  0  0  0  0  0
    5.9041    0.5783    1.1506 C   0  0  0  0  0  0  0  0  0  0  0  0
    6.8346   -0.1630    0.4223 C   0  0  0  0  0  0  0  0  0  0  0  0
    8.2093   -0.1636    0.8128 C   0  0  0  0  0  0  0  0  0  0  0  0
   -4.1824    4.0446    0.8172 H   0  0  0  0  0  0  0  0  0  0  0  0
   -3.6805    1.5918   -2.6325 H   0  0  0  0  0  0  0  0  0  0  0  0
   -3.5257    3.8402   -1.5920 H   0  0  0  0  0  0  0  0  0  0  0  0
   -5.1021    3.1079   -1.2905 H   0  0  0  0  0  0  0  0  0  0  0  0
   -4.3121    1.9973    2.2320 H   0  0  0  0  0  0  0  0  0  0  0  0
   -5.6014    2.0680    1.0317 H   0  0  0  0  0  0  0  0  0  0  0  0
   -1.8655    4.0705    0.4900 H   0  0  0  0  0  0  0  0  0  0  0  0
   -2.0661    2.8616    1.7434 H   0  0  0  0  0  0  0  0  0  0  0  0
   -5.3404    0.5952   -1.0934 H   0  0  0  0  0  0  0  0  0  0  0  0
   -3.9262   -0.4422   -1.2094 H   0  0  0  0  0  0  0  0  0  0  0  0
   -1.6411    0.2854   -2.9451 H   0  0  0  0  0  0  0  0  0  0  0  0
    0.6937    0.0102   -2.5113 H   0  0  0  0  0  0  0  0  0  0  0  0
    2.4166    1.6620    0.2496 H   0  0  0  0  0  0  0  0  0  0  0  0
   -1.2737   -1.0985    0.6574 H   0  0  0  0  0  0  0  0  0  0  0  0
   -5.3362   -2.4900    1.0058 H   0  0  0  0  0  0  0  0  0  0  0  0
   -0.6227   -3.2638   -0.3394 H   0  0  0  0  0  0  0  0  0  0  0  0
   -4.6723   -4.6563    0.0163 H   0  0  0  0  0  0  0  0  0  0  0  0
    4.7785   -1.4769   -1.9361 H   0  0  0  0  0  0  0  0  0  0  0  0
    3.8720    1.1363    1.3944 H   0  0  0  0  0  0  0  0  0  0  0  0
    7.1373   -1.4840   -1.2649 H   0  0  0  0  0  0  0  0  0  0  0  0
    6.2087    1.1518    2.0230 H   0  0  0  0  0  0  0  0  0  0  0  0
  1 27  1  0  0  0  0
  2 17  2  0  0  0  0
  3 18  2  0  0  0  0
  4 24  2  0  0  0  0
  5 12  1  0  0  0  0
  5 14  1  0  0  0  0
  5 18  1  0  0  0  0
  6 13  1  0  0  0  0
  6 15  1  0  0  0  0
  6 17  1  0  0  0  0
  7 19  1  0  0  0  0
  7 24  1  0  0  0  0
  7 47  1  0  0  0  0
  8 34  3  0  0  0  0
  9 11  1  0  0  0  0
  9 12  1  0  0  0  0
  9 13  1  0  0  0  0
  9 35  1  0  0  0  0
 10 11  1  0  0  0  0
 10 14  1  0  0  0  0
 10 15  1  0  0  0  0
 10 36  1  0  0  0  0
 11 37  1  0  0  0  0
 11 38  1  0  0  0  0
 12 39  1  0  0  0  0
 12 40  1  0  0  0  0
 13 41  1  0  0  0  0
 13 42  1  0  0  0  0
 14 43  1  0  0  0  0
 14 44  1  0  0  0  0
 15 16  2  0  0  0  0
 16 20  1  0  0  0  0
 16 45  1  0  0  0  0
 17 19  1  0  0  0  0
 18 21  1  0  0  0  0
 19 20  2  0  0  0  0
 20 46  1  0  0  0  0
 21 22  2  0  0  0  0
 21 23  1  0  0  0  0
 22 25  1  0  0  0  0
 22 48  1  0  0  0  0
 23 26  2  0  0  0  0
 23 49  1  0  0  0  0
 24 28  1  0  0  0  0
 25 27  2  0  0  0  0
 25 50  1  0  0  0  0
 26 27  1  0  0  0  0
 26 51  1  0  0  0  0
 28 29  2  0  0  0  0
 28 30  1  0  0  0  0
 29 31  1  0  0  0  0
 29 52  1  0  0  0  0
 30 32  2  0  0  0  0
 30 53  1  0  0  0  0
 31 33  2  0  0  0  0
 31 54  1  0  0  0  0
 32 33  1  0  0  0  0
 32 55  1  0  0  0  0
 33 34  1  0  0  0  0
M  END
> <PUBCHEM_COMPOUND_CID>
11885876

> <PUBCHEM_CONFORMER_RMSD>
0.8

> <PUBCHEM_CONFORMER_DIVERSEORDER>
1
9
6
5
15
11
13
3
12
7
8
4
10
14
2

> <PUBCHEM_MMFF94_PARTIAL_CHARGES>
43
1 -0.19
10 0.14
12 0.3
13 0.3
14 0.3
15 -0.03
16 -0.15
17 0.62
18 0.54
19 0.12
2 -0.57
20 -0.15
21 0.09
22 -0.15
23 -0.15
24 0.54
25 -0.15
26 -0.15
27 0.19
28 0.09
29 -0.15
3 -0.57
30 -0.15
31 -0.15
32 -0.15
33 0.07
34 0.48
4 -0.57
45 0.15
46 0.15
47 0.37
48 0.15
49 0.15
5 -0.66
50 0.15
51 0.15
52 0.15
53 0.15
54 0.15
55 0.15
6 -0.47
7 -0.54
8 -0.56

> <PUBCHEM_EFFECTIVE_ROTOR_COUNT>
6

> <PUBCHEM_PHARMACOPHORE_FEATURES>
10
1 2 acceptor
1 3 acceptor
1 4 acceptor
1 7 donor
1 8 acceptor
6 21 22 23 25 26 27 rings
6 28 29 30 31 32 33 rings
6 5 9 10 11 12 14 rings
6 6 15 16 17 19 20 rings
6 6 9 10 11 13 15 rings

> <PUBCHEM_HEAVY_ATOM_COUNT>
34

> <PUBCHEM_ATOM_DEF_STEREO_COUNT>
2

> <PUBCHEM_ATOM_UDEF_STEREO_COUNT>
0

> <PUBCHEM_BOND_DEF_STEREO_COUNT>
0

> <PUBCHEM_BOND_UDEF_STEREO_COUNT>
0

> <PUBCHEM_ISOTOPIC_ATOM_COUNT>
0

> <PUBCHEM_COMPONENT_COUNT>
1

> <PUBCHEM_CACTVS_TAUTO_COUNT>
2

> <PUBCHEM_CONFORMER_ID>
00B55D3400000001

> <PUBCHEM_MMFF94_ENERGY>
99.1242

> <PUBCHEM_FEATURE_SELFOVERLAP>
52.33

> <PUBCHEM_SHAPE_FINGERPRINT>
10483366 6 18337094758242048303
11112241 14 17987241023727550685
11135609 187 18119522142880410525
11524674 6 18336264540314190149
12013929 27 14129358316104417018
12633257 1 18056788574680208977
12712778 12 18408327695828461591
14068700 675 18187927360763445687
14114206 34 16226313915634436085
14659021 117 18342449353323559533
14674994 50 18335409219300221543
14705955 166 17560536031676215923
14844126 61 18335986445408397155
14856354 85 18413389843532174572
15021287 119 16732989717342814116
15183329 4 14634869756463571424
15320294 125 18040721359233676887
19611394 137 18272368703142190592
20775530 9 17690580984163317519
23523787 8 17610292227189670999
3383291 50 18411420627097656299
397830 11 18269546295522397688
4073 2 18341328917184991982
4403749 210 18341602738218653756
4409770 3 18335135389291080293
44802255 64 16878772808818318335
4616759 239 18059565863779243490
484985 159 18334284401445743951
5080951 261 18040981939452383878
5364581 5 18269269226813289760
68570916 9 18187086196299203116
9953998 17 18334294241310822928

> <PUBCHEM_SHAPE_MULTIPOLES>
654.9
17.19
4.65
1.66
50.21
5.16
-0.05
1.88
-5.92
-10.1
0.24
-0.78
-0.39
0.96

> <PUBCHEM_SHAPE_SELFOVERLAP>
1451.71

> <PUBCHEM_SHAPE_VOLUME>
346.6

> <PUBCHEM_COORDINATE_TYPE>
2
5
10

$$$$
