7134325
  -OEChem-12032416123D

 63 65  0     1  0  0  0  0  0999 V2000
    5.0424    3.8455    0.1823 S   0  0  0  0  0  0  0  0  0  0  0  0
   -6.0641    1.6474    0.7373 S   0  0  0  0  0  0  0  0  0  0  0  0
    0.1451   -1.1377   -1.1123 O   0  0  0  0  0  0  0  0  0  0  0  0
    2.3197    1.1589    2.6225 O   0  0  0  0  0  0  0  0  0  0  0  0
   -3.8037   -0.9272   -1.0982 O   0  0  0  0  0  0  0  0  0  0  0  0
    4.0980   -0.7561   -1.1492 O   0  0  0  0  0  0  0  0  0  0  0  0
    0.9059    1.2372    0.7828 N   0  0  0  0  0  0  0  0  0  0  0  0
   -3.2937    0.9757    0.0834 N   0  0  0  0  0  0  0  0  0  0  0  0
    1.9308   -1.6203    0.3010 N   0  0  0  0  0  0  0  0  0  0  0  0
    3.2272    2.1908   -0.6236 N   0  0  0  0  0  0  0  0  0  0  0  0
    3.6528   -2.3734   -2.7179 N   0  0  0  0  0  0  0  0  0  0  0  0
   -7.8980    0.1592   -0.0990 N   0  0  0  0  0  0  0  0  0  0  0  0
   -7.6881    1.2583    0.6077 N   0  0  0  0  0  0  0  0  0  0  0  0
   -1.8644    0.8467   -0.0749 C   0  0  2  0  0  0  0  0  0  0  0  0
    0.2588   -0.0600    1.0165 C   0  0  1  0  0  0  0  0  0  0  0  0
   -1.2669    0.0094    1.0586 C   0  0  0  0  0  0  0  0  0  0  0  0
   -1.1976    2.2194   -0.1144 C   0  0  0  0  0  0  0  0  0  0  0  0
    0.3150    2.0962   -0.2582 C   0  0  0  0  0  0  0  0  0  0  0  0
    0.7558   -0.9825   -0.0580 C   0  0  0  0  0  0  0  0  0  0  0  0
    2.1099    1.5276    1.4653 C   0  0  0  0  0  0  0  0  0  0  0  0
    2.6028   -2.5765   -0.5490 C   0  0  2  0  0  0  0  0  0  0  0  0
    3.4207   -3.5951    0.2548 C   0  0  0  0  0  0  0  0  0  0  0  0
    2.6096   -4.4079    1.2847 C   0  0  0  0  0  0  0  0  0  0  0  0
   -4.1878    0.0518   -0.4557 C   0  0  0  0  0  0  0  0  0  0  0  0
    3.1249    2.2919    0.7481 C   0  0  0  0  0  0  0  0  0  0  0  0
    3.5128   -1.7851   -1.4786 C   0  0  0  0  0  0  0  0  0  0  0  0
    1.5977   -5.2984    0.5583 C   0  0  0  0  0  0  0  0  0  0  0  0
    1.8809   -3.5142    2.2891 C   0  0  0  0  0  0  0  0  0  0  0  0
   -5.6098    0.3019   -0.1812 C   0  0  0  0  0  0  0  0  0  0  0  0
    4.0202    3.1380    1.3636 C   0  0  0  0  0  0  0  0  0  0  0  0
   -6.7083   -0.3889   -0.5512 C   0  0  0  0  0  0  0  0  0  0  0  0
    4.2061    2.9675   -1.0320 C   0  0  0  0  0  0  0  0  0  0  0  0
   -6.7719   -1.6240   -1.3581 C   0  0  0  0  0  0  0  0  0  0  0  0
    4.6172    3.1233   -2.4443 C   0  0  0  0  0  0  0  0  0  0  0  0
   -1.6924    0.3559   -1.0379 H   0  0  0  0  0  0  0  0  0  0  0  0
    0.5928   -0.4557    1.9841 H   0  0  0  0  0  0  0  0  0  0  0  0
   -1.6944   -1.0014    1.0461 H   0  0  0  0  0  0  0  0  0  0  0  0
   -1.5662    0.4549    2.0177 H   0  0  0  0  0  0  0  0  0  0  0  0
   -1.4308    2.7718    0.8057 H   0  0  0  0  0  0  0  0  0  0  0  0
   -1.5993    2.8126   -0.9448 H   0  0  0  0  0  0  0  0  0  0  0  0
    0.5730    1.6650   -1.2321 H   0  0  0  0  0  0  0  0  0  0  0  0
    0.7604    3.0949   -0.2055 H   0  0  0  0  0  0  0  0  0  0  0  0
   -3.6510    1.7377    0.6529 H   0  0  0  0  0  0  0  0  0  0  0  0
    1.8458   -3.0856   -1.1564 H   0  0  0  0  0  0  0  0  0  0  0  0
    2.4350   -1.2784    1.1136 H   0  0  0  0  0  0  0  0  0  0  0  0
    4.2230   -3.0689    0.7908 H   0  0  0  0  0  0  0  0  0  0  0  0
    3.9267   -4.2836   -0.4346 H   0  0  0  0  0  0  0  0  0  0  0  0
    3.3117   -5.0499    1.8309 H   0  0  0  0  0  0  0  0  0  0  0  0
    1.1021   -5.9665    1.2715 H   0  0  0  0  0  0  0  0  0  0  0  0
    2.0935   -5.9245   -0.1909 H   0  0  0  0  0  0  0  0  0  0  0  0
    0.8161   -4.7182    0.0576 H   0  0  0  0  0  0  0  0  0  0  0  0
    2.5279   -2.7240    2.6819 H   0  0  0  0  0  0  0  0  0  0  0  0
    0.9440   -3.1001    1.9092 H   0  0  0  0  0  0  0  0  0  0  0  0
    1.5902   -4.1256    3.1531 H   0  0  0  0  0  0  0  0  0  0  0  0
    4.1259    3.3739    2.4132 H   0  0  0  0  0  0  0  0  0  0  0  0
    3.1810   -3.2363   -2.9688 H   0  0  0  0  0  0  0  0  0  0  0  0
    4.2435   -1.9548   -3.4288 H   0  0  0  0  0  0  0  0  0  0  0  0
   -6.3332   -1.4637   -2.3481 H   0  0  0  0  0  0  0  0  0  0  0  0
   -6.2321   -2.4381   -0.8640 H   0  0  0  0  0  0  0  0  0  0  0  0
   -7.8078   -1.9487   -1.5009 H   0  0  0  0  0  0  0  0  0  0  0  0
    3.9969    2.4984   -3.0952 H   0  0  0  0  0  0  0  0  0  0  0  0
    5.6594    2.8198   -2.5863 H   0  0  0  0  0  0  0  0  0  0  0  0
    4.5057    4.1613   -2.7740 H   0  0  0  0  0  0  0  0  0  0  0  0
  1 30  1  0  0  0  0
  1 32  1  0  0  0  0
  2 13  1  0  0  0  0
  2 29  1  0  0  0  0
  3 19  2  0  0  0  0
  4 20  2  0  0  0  0
  5 24  2  0  0  0  0
  6 26  2  0  0  0  0
  7 15  1  0  0  0  0
  7 18  1  0  0  0  0
  7 20  1  0  0  0  0
  8 14  1  0  0  0  0
  8 24  1  0  0  0  0
  8 43  1  0  0  0  0
  9 19  1  0  0  0  0
  9 21  1  0  0  0  0
  9 45  1  0  0  0  0
 10 25  1  0  0  0  0
 10 32  2  0  0  0  0
 11 26  1  0  0  0  0
 11 56  1  0  0  0  0
 11 57  1  0  0  0  0
 12 13  2  0  0  0  0
 12 31  1  0  0  0  0
 14 16  1  0  0  0  0
 14 17  1  0  0  0  0
 14 35  1  0  0  0  0
 15 16  1  0  0  0  0
 15 19  1  0  0  0  0
 15 36  1  0  0  0  0
 16 37  1  0  0  0  0
 16 38  1  0  0  0  0
 17 18  1  0  0  0  0
 17 39  1  0  0  0  0
 17 40  1  0  0  0  0
 18 41  1  0  0  0  0
 18 42  1  0  0  0  0
 20 25  1  0  0  0  0
 21 22  1  0  0  0  0
 21 26  1  0  0  0  0
 21 44  1  0  0  0  0
 22 23  1  0  0  0  0
 22 46  1  0  0  0  0
 22 47  1  0  0  0  0
 23 27  1  0  0  0  0
 23 28  1  0  0  0  0
 23 48  1  0  0  0  0
 24 29  1  0  0  0  0
 25 30  2  0  0  0  0
 27 49  1  0  0  0  0
 27 50  1  0  0  0  0
 27 51  1  0  0  0  0
 28 52  1  0  0  0  0
 28 53  1  0  0  0  0
 28 54  1  0  0  0  0
 29 31  2  0  0  0  0
 30 55  1  0  0  0  0
 31 33  1  0  0  0  0
 32 34  1  0  0  0  0
 33 58  1  0  0  0  0
 33 59  1  0  0  0  0
 33 60  1  0  0  0  0
 34 61  1  0  0  0  0
 34 62  1  0  0  0  0
 34 63  1  0  0  0  0
M  END
> <PUBCHEM_COMPOUND_CID>
7134325

> <PUBCHEM_CONFORMER_RMSD>
1.2

> <PUBCHEM_CONFORMER_DIVERSEORDER>
1
64
85
23
61
86
66
14
52
26
80
87
79
39
83
82
19
46
68
60
34
53
81
36
33
73
11
32
40
59
44
74
72
6
89
49
90
77
58
92
28
35
88
31
24
69
21
43
12
55
37
17
7
78
50
42
38
75
48
62
51
25
71
91
29
65
8
67
30
84
57
15
5
45
70
56
63
16
18
4
9
22
76
27
3
20
10
54
13
41
2
47

> <PUBCHEM_MMFF94_PARTIAL_CHARGES>
33
1 -0.08
10 -0.57
11 -0.8
12 -0.23
13 -0.22
14 0.3
15 0.36
18 0.3
19 0.57
2 0.18
20 0.72
21 0.36
24 0.71
25 0.14
26 0.57
29 -0.05
3 -0.57
30 -0.11
31 0.05
32 0.2
33 0.18
34 0.18
4 -0.57
43 0.37
45 0.37
5 -0.57
55 0.15
56 0.37
57 0.37
6 -0.57
7 -0.66
8 -0.73
9 -0.73

> <PUBCHEM_EFFECTIVE_ROTOR_COUNT>
12.2

> <PUBCHEM_PHARMACOPHORE_FEATURES>
12
1 10 acceptor
1 11 donor
1 3 acceptor
1 4 acceptor
1 5 acceptor
1 6 acceptor
1 8 donor
1 9 donor
3 23 27 28 hydrophobe
5 1 10 25 30 32 rings
5 2 12 13 29 31 rings
6 7 14 15 16 17 18 rings

> <PUBCHEM_HEAVY_ATOM_COUNT>
34

> <PUBCHEM_ATOM_DEF_STEREO_COUNT>
3

> <PUBCHEM_ATOM_UDEF_STEREO_COUNT>
0

> <PUBCHEM_BOND_DEF_STEREO_COUNT>
0

> <PUBCHEM_BOND_UDEF_STEREO_COUNT>
0

> <PUBCHEM_ISOTOPIC_ATOM_COUNT>
0

> <PUBCHEM_COMPONENT_COUNT>
1

> <PUBCHEM_CACTVS_TAUTO_COUNT>
8

> <PUBCHEM_CONFORMER_ID>
006CDC7500000001

> <PUBCHEM_MMFF94_ENERGY>
70.187

> <PUBCHEM_FEATURE_SELFOVERLAP>
60.898

> <PUBCHEM_SHAPE_FINGERPRINT>
10050765 1 18339921490419667209
10554248 39 18267000814392774661
10675989 125 18409452496550840744
10721379 63 18341899554459921184
10906281 52 18041564758057015385
11135609 187 18128539464682224960
11763715 3 17616548259093643978
12522641 126 18335416868336236270
12597179 24 18187927351793748587
14118638 360 18271800277311052023
15183329 4 16845024472025277009
15439362 3 18337673135501724900
15484559 13 18270123534468093916
1577012 14 18060699499608370561
15927050 60 18269269234960170951
20554085 129 17631722907184655744
20578428 11 18409731772388023915
20775438 99 18337942489405999671
21344244 246 18130517366637062228
23522609 53 18057067773525245625
23559900 14 18337665317627141715
27425 322 17771618237646169564
3004659 81 17988642948445531903
3411729 13 18272082824826930081
4073 2 18337110176842025875
4112364 45 14346364583444980716
5104073 3 18060135428430855523
513532 50 16845573149401304080
6669772 16 18335699480983498962
70251023 43 18199759041706334442

> <PUBCHEM_SHAPE_MULTIPOLES>
649.06
15.88
5.96
1.89
40.61
6.2
-0.23
-7.66
-3.92
-12.25
1.06
-2.46
0.33
-1.33

> <PUBCHEM_SHAPE_SELFOVERLAP>
1331.141

> <PUBCHEM_SHAPE_VOLUME>
376.6

> <PUBCHEM_COORDINATE_TYPE>
2
5
10

$$$$
