7128114
  -OEChem-12032416363D

 74 78  0     1  0  0  0  0  0999 V2000
    2.1238   -2.0018   -1.3140 O   0  0  0  0  0  0  0  0  0  0  0  0
   -2.5867    1.3712   -1.4433 O   0  0  0  0  0  0  0  0  0  0  0  0
    3.5692   -0.2547    1.5150 O   0  0  0  0  0  0  0  0  0  0  0  0
    2.1917   -4.0122    2.1237 O   0  0  0  0  0  0  0  0  0  0  0  0
    2.3631    0.4667   -0.3427 N   0  0  0  0  0  0  0  0  0  0  0  0
   -0.5950    1.4833   -0.2583 N   0  0  0  0  0  0  0  0  0  0  0  0
   -2.2888    2.9615    0.2219 N   0  0  0  0  0  0  0  0  0  0  0  0
    0.6364   -2.5527    0.3898 N   0  0  0  0  0  0  0  0  0  0  0  0
    4.2353    2.7031    0.2103 N   0  0  0  0  0  0  0  0  0  0  0  0
   -3.4243   -3.9875   -1.6229 N   0  0  0  0  0  0  0  0  0  0  0  0
    2.4412   -5.6135    0.4960 N   0  0  0  0  0  0  0  0  0  0  0  0
    6.8392    1.7870   -0.2866 N   0  0  0  0  0  0  0  0  0  0  0  0
    0.0675    0.3914   -0.9317 C   0  0  2  0  0  0  0  0  0  0  0  0
    1.1286   -0.2478   -0.0361 C   0  0  1  0  0  0  0  0  0  0  0  0
    0.8716    0.8955   -2.1320 C   0  0  0  0  0  0  0  0  0  0  0  0
    2.2067    1.3103   -1.5271 C   0  0  0  0  0  0  0  0  0  0  0  0
   -3.5875    3.5879    0.1110 C   0  0  0  0  0  0  0  0  0  0  0  0
   -3.5713    4.7083   -0.9344 C   0  0  0  0  0  0  0  0  0  0  0  0
   -4.0678    4.1044    1.4715 C   0  0  0  0  0  0  0  0  0  0  0  0
    1.3689   -1.6826   -0.3992 C   0  0  0  0  0  0  0  0  0  0  0  0
   -2.7928    5.9367   -0.4631 C   0  0  0  0  0  0  0  0  0  0  0  0
   -3.2885    5.3339    1.9386 C   0  0  0  0  0  0  0  0  0  0  0  0
   -3.2962    6.4387    0.8866 C   0  0  0  0  0  0  0  0  0  0  0  0
   -1.8889    1.8910   -0.5735 C   0  0  0  0  0  0  0  0  0  0  0  0
    3.4495    0.4597    0.5223 C   0  0  0  0  0  0  0  0  0  0  0  0
    0.6724   -3.9883    0.2272 C   0  0  2  0  0  0  0  0  0  0  0  0
   -0.6339   -4.6566    0.6746 C   0  0  0  0  0  0  0  0  0  0  0  0
    4.5461    1.3917    0.2287 C   0  0  0  0  0  0  0  0  0  0  0  0
   -1.8350   -4.1685   -0.0839 C   0  0  0  0  0  0  0  0  0  0  0  0
    1.8429   -4.5027    1.0525 C   0  0  0  0  0  0  0  0  0  0  0  0
   -2.6684   -3.0689    0.2643 C   0  0  0  0  0  0  0  0  0  0  0  0
    5.8250    0.9418   -0.0154 C   0  0  0  0  0  0  0  0  0  0  0  0
   -2.3253   -4.7129   -1.2486 C   0  0  0  0  0  0  0  0  0  0  0  0
   -3.6573   -2.9771   -0.7174 C   0  0  0  0  0  0  0  0  0  0  0  0
   -2.6760   -2.1400    1.3238 C   0  0  0  0  0  0  0  0  0  0  0  0
    5.2495    3.5483   -0.0606 C   0  0  0  0  0  0  0  0  0  0  0  0
   -4.6578   -1.9988   -0.6923 C   0  0  0  0  0  0  0  0  0  0  0  0
    6.5284    3.0985   -0.3047 C   0  0  0  0  0  0  0  0  0  0  0  0
   -3.6707   -1.1559    1.3618 C   0  0  0  0  0  0  0  0  0  0  0  0
   -4.6453   -1.0883    0.3682 C   0  0  0  0  0  0  0  0  0  0  0  0
   -0.6953   -0.3270   -1.2534 H   0  0  0  0  0  0  0  0  0  0  0  0
    0.9108   -0.1549    1.0345 H   0  0  0  0  0  0  0  0  0  0  0  0
    1.0338    0.0719   -2.8380 H   0  0  0  0  0  0  0  0  0  0  0  0
    0.3932    1.7146   -2.6779 H   0  0  0  0  0  0  0  0  0  0  0  0
    3.0486    1.1754   -2.2119 H   0  0  0  0  0  0  0  0  0  0  0  0
    2.1635    2.3563   -1.2076 H   0  0  0  0  0  0  0  0  0  0  0  0
   -4.2905    2.8167   -0.2281 H   0  0  0  0  0  0  0  0  0  0  0  0
   -0.0734    2.0203    0.4281 H   0  0  0  0  0  0  0  0  0  0  0  0
   -3.1440    4.3486   -1.8781 H   0  0  0  0  0  0  0  0  0  0  0  0
   -4.6048    5.0087   -1.1494 H   0  0  0  0  0  0  0  0  0  0  0  0
   -5.1306    4.3680    1.3977 H   0  0  0  0  0  0  0  0  0  0  0  0
   -3.9880    3.3145    2.2280 H   0  0  0  0  0  0  0  0  0  0  0  0
   -1.7261    5.6924   -0.3884 H   0  0  0  0  0  0  0  0  0  0  0  0
   -2.8829    6.7353   -1.2083 H   0  0  0  0  0  0  0  0  0  0  0  0
   -3.7293    5.7123    2.8681 H   0  0  0  0  0  0  0  0  0  0  0  0
   -2.2539    5.0573    2.1731 H   0  0  0  0  0  0  0  0  0  0  0  0
   -4.3163    6.8261    0.7732 H   0  0  0  0  0  0  0  0  0  0  0  0
   -2.6738    7.2747    1.2250 H   0  0  0  0  0  0  0  0  0  0  0  0
   -1.6072    3.3599    0.8600 H   0  0  0  0  0  0  0  0  0  0  0  0
    0.1222   -2.1795    1.1813 H   0  0  0  0  0  0  0  0  0  0  0  0
    0.8574   -4.2019   -0.8333 H   0  0  0  0  0  0  0  0  0  0  0  0
   -0.5498   -5.7447    0.5540 H   0  0  0  0  0  0  0  0  0  0  0  0
   -0.7934   -4.4897    1.7483 H   0  0  0  0  0  0  0  0  0  0  0  0
    6.0832   -0.1107   -0.0046 H   0  0  0  0  0  0  0  0  0  0  0  0
   -1.9913   -5.5500   -1.8457 H   0  0  0  0  0  0  0  0  0  0  0  0
   -3.9840   -4.1669   -2.4450 H   0  0  0  0  0  0  0  0  0  0  0  0
    3.2264   -6.0655    0.9527 H   0  0  0  0  0  0  0  0  0  0  0  0
    2.1274   -6.0216   -0.3787 H   0  0  0  0  0  0  0  0  0  0  0  0
   -1.9318   -2.1806    2.1136 H   0  0  0  0  0  0  0  0  0  0  0  0
    5.0003    4.6021   -0.0759 H   0  0  0  0  0  0  0  0  0  0  0  0
   -5.4165   -1.9447   -1.4659 H   0  0  0  0  0  0  0  0  0  0  0  0
    7.3427    3.7783   -0.5227 H   0  0  0  0  0  0  0  0  0  0  0  0
   -3.6816   -0.4364    2.1763 H   0  0  0  0  0  0  0  0  0  0  0  0
   -5.4071   -0.3144    0.4166 H   0  0  0  0  0  0  0  0  0  0  0  0
  1 20  2  0  0  0  0
  2 24  2  0  0  0  0
  3 25  2  0  0  0  0
  4 30  2  0  0  0  0
  5 14  1  0  0  0  0
  5 16  1  0  0  0  0
  5 25  1  0  0  0  0
  6 13  1  0  0  0  0
  6 24  1  0  0  0  0
  6 48  1  0  0  0  0
  7 17  1  0  0  0  0
  7 24  1  0  0  0  0
  7 59  1  0  0  0  0
  8 20  1  0  0  0  0
  8 26  1  0  0  0  0
  8 60  1  0  0  0  0
  9 28  2  0  0  0  0
  9 36  1  0  0  0  0
 10 33  1  0  0  0  0
 10 34  1  0  0  0  0
 10 66  1  0  0  0  0
 11 30  1  0  0  0  0
 11 67  1  0  0  0  0
 11 68  1  0  0  0  0
 12 32  2  0  0  0  0
 12 38  1  0  0  0  0
 13 14  1  0  0  0  0
 13 15  1  0  0  0  0
 13 41  1  0  0  0  0
 14 20  1  0  0  0  0
 14 42  1  0  0  0  0
 15 16  1  0  0  0  0
 15 43  1  0  0  0  0
 15 44  1  0  0  0  0
 16 45  1  0  0  0  0
 16 46  1  0  0  0  0
 17 18  1  0  0  0  0
 17 19  1  0  0  0  0
 17 47  1  0  0  0  0
 18 21  1  0  0  0  0
 18 49  1  0  0  0  0
 18 50  1  0  0  0  0
 19 22  1  0  0  0  0
 19 51  1  0  0  0  0
 19 52  1  0  0  0  0
 21 23  1  0  0  0  0
 21 53  1  0  0  0  0
 21 54  1  0  0  0  0
 22 23  1  0  0  0  0
 22 55  1  0  0  0  0
 22 56  1  0  0  0  0
 23 57  1  0  0  0  0
 23 58  1  0  0  0  0
 25 28  1  0  0  0  0
 26 27  1  0  0  0  0
 26 30  1  0  0  0  0
 26 61  1  0  0  0  0
 27 29  1  0  0  0  0
 27 62  1  0  0  0  0
 27 63  1  0  0  0  0
 28 32  1  0  0  0  0
 29 31  1  0  0  0  0
 29 33  2  0  0  0  0
 31 34  1  0  0  0  0
 31 35  2  0  0  0  0
 32 64  1  0  0  0  0
 33 65  1  0  0  0  0
 34 37  2  0  0  0  0
 35 39  1  0  0  0  0
 35 69  1  0  0  0  0
 36 38  2  0  0  0  0
 36 70  1  0  0  0  0
 37 40  1  0  0  0  0
 37 71  1  0  0  0  0
 38 72  1  0  0  0  0
 39 40  2  0  0  0  0
 39 73  1  0  0  0  0
 40 74  1  0  0  0  0
M  END
> <PUBCHEM_COMPOUND_CID>
7128114

> <PUBCHEM_CONFORMER_RMSD>
1.2

> <PUBCHEM_CONFORMER_DIVERSEORDER>
1
74
43
30
68
20
16
81
52
70
47
38
25
65
45
72
76
61
58
36
69
73
21
14
64
13
7
19
29
75
79
50
8
66
67
77
18
35
6
80
82
83
78
51
9
42
41
39
34
59
17
23
48
46
54
12
4
22
11
32
53
3
71
37
27
40
10
55
57
63
26
31
49
33
56
44
60
5
62
15
28
2
24

> <PUBCHEM_MMFF94_PARTIAL_CHARGES>
47
1 -0.57
10 0.03
11 -0.8
12 -0.62
13 0.3
14 0.36
16 0.3
17 0.3
2 -0.57
20 0.57
24 0.69
25 0.54
26 0.36
27 0.18
28 0.4
29 -0.18
3 -0.57
30 0.57
32 0.16
33 -0.3
34 -0.15
35 -0.15
36 0.16
37 -0.15
38 0.16
39 -0.15
4 -0.57
40 -0.15
48 0.37
5 -0.66
59 0.37
6 -0.73
60 0.37
64 0.15
65 0.15
66 0.27
67 0.37
68 0.37
69 0.15
7 -0.73
70 0.15
71 0.15
72 0.15
73 0.15
74 0.15
8 -0.73
9 -0.62

> <PUBCHEM_EFFECTIVE_ROTOR_COUNT>
14.2

> <PUBCHEM_PHARMACOPHORE_FEATURES>
17
1 1 acceptor
1 10 cation
1 10 donor
1 11 donor
1 12 acceptor
1 2 acceptor
1 3 acceptor
1 4 acceptor
1 6 donor
1 7 donor
1 8 donor
1 9 acceptor
5 10 29 31 33 34 rings
5 5 13 14 15 16 rings
6 17 18 19 21 22 23 rings
6 31 34 35 37 39 40 rings
6 9 12 28 32 36 38 rings

> <PUBCHEM_HEAVY_ATOM_COUNT>
40

> <PUBCHEM_ATOM_DEF_STEREO_COUNT>
3

> <PUBCHEM_ATOM_UDEF_STEREO_COUNT>
0

> <PUBCHEM_BOND_DEF_STEREO_COUNT>
0

> <PUBCHEM_BOND_UDEF_STEREO_COUNT>
0

> <PUBCHEM_ISOTOPIC_ATOM_COUNT>
0

> <PUBCHEM_COMPONENT_COUNT>
1

> <PUBCHEM_CACTVS_TAUTO_COUNT>
12

> <PUBCHEM_CONFORMER_ID>
006CC43200000001

> <PUBCHEM_MMFF94_ENERGY>
82.0296

> <PUBCHEM_FEATURE_SELFOVERLAP>
86.424

> <PUBCHEM_SHAPE_FINGERPRINT>
10032420 55 17988645237167106272
10290309 65 18193849132659510905
10439779 11 17833544596991597987
10816530 23 18265617576376267849
10985338 15 17983604947291349653
12104220 1 18195242450288417900
12788726 201 18336818809590119011
14394314 77 18266743661673247571
15927050 60 18339080368218704494
19311894 1 18049729816972312450
21796203 349 17540851659640165387
283562 15 18337950211344701927
3388396 114 18269537464789984503
50677037 204 17836369624193373392
57527573 199 18265063594193461599
653340 110 18411422782780426529
9896288 288 18409733967438130776

> <PUBCHEM_SHAPE_MULTIPOLES>
759.86
11.68
11.18
1.53
18.93
7.06
0.04
9.01
0.34
-12.47
2.9
-0.69
-0.03
-2.7

> <PUBCHEM_SHAPE_SELFOVERLAP>
1634.82

> <PUBCHEM_SHAPE_VOLUME>
414.6

> <PUBCHEM_COORDINATE_TYPE>
2
5
10

$$$$
