45360647
  -OEChem-12032416333D

 69 73  0     1  0  0  0  0  0999 V2000
    1.7320    5.3361    0.4498 O   0  0  0  0  0  0  0  0  0  0  0  0
   -4.3247    0.2534   -1.8917 O   0  0  0  0  0  0  0  0  0  0  0  0
   -0.4641    2.4256    0.2792 N   0  0  1  0  0  0  0  0  0  0  0  0
    0.0446    4.8698   -1.0018 N   0  0  0  0  0  0  0  0  0  0  0  0
    2.5802    0.4629    0.1564 N   0  0  0  0  0  0  0  0  0  0  0  0
   -4.7812   -0.6398    0.2156 N   0  0  0  0  0  0  0  0  0  0  0  0
    8.0253   -2.7834   -0.6715 N   0  0  0  0  0  0  0  0  0  0  0  0
    0.4541    3.3635    0.9376 C   0  0  1  0  0  0  0  0  0  0  0  0
    1.4003    1.1438    0.6648 C   0  0  1  0  0  0  0  0  0  0  0  0
   -1.5328    3.0648   -0.4804 C   0  0  1  0  0  0  0  0  0  0  0  0
    1.7072    2.5270    1.2401 C   0  0  0  0  0  0  0  0  0  0  0  0
    0.3554    1.4285   -0.4053 C   0  0  0  0  0  0  0  0  0  0  0  0
   -0.9619    3.9876   -1.5457 C   0  0  0  0  0  0  0  0  0  0  0  0
   -2.5097    2.0593   -1.0914 C   0  0  0  0  0  0  0  0  0  0  0  0
    0.8136    4.5883    0.1014 C   0  0  0  0  0  0  0  0  0  0  0  0
   -3.1541    1.1643   -0.0430 C   0  0  0  0  0  0  0  0  0  0  0  0
    3.3474   -0.1353    1.2417 C   0  0  0  0  0  0  0  0  0  0  0  0
   -4.1456    0.2153   -0.6741 C   0  0  0  0  0  0  0  0  0  0  0  0
    4.5819   -0.8341    0.7368 C   0  0  0  0  0  0  0  0  0  0  0  0
   -4.5642   -0.6832    1.6771 C   0  0  0  0  0  0  0  0  0  0  0  0
   -5.7445   -1.6142   -0.1191 C   0  0  0  0  0  0  0  0  0  0  0  0
   -5.4686   -1.7789    2.2515 C   0  0  0  0  0  0  0  0  0  0  0  0
   -6.1622   -2.2878    1.0306 C   0  0  0  0  0  0  0  0  0  0  0  0
    4.4746   -2.0802    0.1191 C   0  0  0  0  0  0  0  0  0  0  0  0
    5.8327   -0.2354    0.8865 C   0  0  0  0  0  0  0  0  0  0  0  0
   -6.2711   -1.9418   -1.3600 C   0  0  0  0  0  0  0  0  0  0  0  0
   -7.1095   -3.2987    0.9699 C   0  0  0  0  0  0  0  0  0  0  0  0
    5.6181   -2.7276   -0.3486 C   0  0  0  0  0  0  0  0  0  0  0  0
    6.9764   -0.8827    0.4189 C   0  0  0  0  0  0  0  0  0  0  0  0
    6.8690   -2.1287   -0.1987 C   0  0  0  0  0  0  0  0  0  0  0  0
   -7.2275   -2.9598   -1.4301 C   0  0  0  0  0  0  0  0  0  0  0  0
   -7.6441   -3.6339   -0.2738 C   0  0  0  0  0  0  0  0  0  0  0  0
    9.3289   -2.1662   -0.5274 C   0  0  0  0  0  0  0  0  0  0  0  0
    7.9244   -4.0784   -1.3146 C   0  0  0  0  0  0  0  0  0  0  0  0
    0.0009    3.7289    1.8666 H   0  0  0  0  0  0  0  0  0  0  0  0
    0.9159    0.5306    1.4399 H   0  0  0  0  0  0  0  0  0  0  0  0
   -2.1053    3.6822    0.2269 H   0  0  0  0  0  0  0  0  0  0  0  0
    1.8901    2.4585    2.3187 H   0  0  0  0  0  0  0  0  0  0  0  0
    2.6056    2.9538    0.7775 H   0  0  0  0  0  0  0  0  0  0  0  0
   -0.1979    0.5189   -0.6591 H   0  0  0  0  0  0  0  0  0  0  0  0
    0.8194    1.8253   -1.3164 H   0  0  0  0  0  0  0  0  0  0  0  0
   -1.7467    4.6187   -1.9767 H   0  0  0  0  0  0  0  0  0  0  0  0
   -0.4957    3.4334   -2.3676 H   0  0  0  0  0  0  0  0  0  0  0  0
   -3.2953    2.6154   -1.6213 H   0  0  0  0  0  0  0  0  0  0  0  0
   -2.0102    1.4494   -1.8554 H   0  0  0  0  0  0  0  0  0  0  0  0
    0.2804    5.6992   -1.5379 H   0  0  0  0  0  0  0  0  0  0  0  0
    2.2878   -0.2725   -0.4876 H   0  0  0  0  0  0  0  0  0  0  0  0
   -2.3950    0.5704    0.4755 H   0  0  0  0  0  0  0  0  0  0  0  0
   -3.6786    1.7826    0.6940 H   0  0  0  0  0  0  0  0  0  0  0  0
    3.6426    0.6302    1.9702 H   0  0  0  0  0  0  0  0  0  0  0  0
    2.7396   -0.8660    1.7919 H   0  0  0  0  0  0  0  0  0  0  0  0
   -3.5079   -0.8930    1.8779 H   0  0  0  0  0  0  0  0  0  0  0  0
   -4.8047    0.2968    2.1038 H   0  0  0  0  0  0  0  0  0  0  0  0
   -4.8782   -2.5664    2.7300 H   0  0  0  0  0  0  0  0  0  0  0  0
   -6.1813   -1.3649    2.9713 H   0  0  0  0  0  0  0  0  0  0  0  0
    3.5053   -2.5568   -0.0022 H   0  0  0  0  0  0  0  0  0  0  0  0
    5.9305    0.7362    1.3638 H   0  0  0  0  0  0  0  0  0  0  0  0
   -5.9727   -1.4425   -2.2735 H   0  0  0  0  0  0  0  0  0  0  0  0
   -7.4308   -3.8198    1.8656 H   0  0  0  0  0  0  0  0  0  0  0  0
    5.4820   -3.6951   -0.8216 H   0  0  0  0  0  0  0  0  0  0  0  0
    7.9257   -0.3755    0.5590 H   0  0  0  0  0  0  0  0  0  0  0  0
   -7.6533   -3.2325   -2.3922 H   0  0  0  0  0  0  0  0  0  0  0  0
   -8.3879   -4.4222   -0.3484 H   0  0  0  0  0  0  0  0  0  0  0  0
   10.1231   -2.7955   -0.9445 H   0  0  0  0  0  0  0  0  0  0  0  0
    9.5784   -2.0097    0.5280 H   0  0  0  0  0  0  0  0  0  0  0  0
    9.3760   -1.2108   -1.0618 H   0  0  0  0  0  0  0  0  0  0  0  0
    8.9063   -4.4551   -1.6225 H   0  0  0  0  0  0  0  0  0  0  0  0
    7.3136   -4.0230   -2.2226 H   0  0  0  0  0  0  0  0  0  0  0  0
    7.5040   -4.8269   -0.6338 H   0  0  0  0  0  0  0  0  0  0  0  0
  1 15  2  0  0  0  0
  2 18  2  0  0  0  0
  3  8  1  0  0  0  0
  3 10  1  0  0  0  0
  3 12  1  0  0  0  0
  4 13  1  0  0  0  0
  4 15  1  0  0  0  0
  4 46  1  0  0  0  0
  5  9  1  0  0  0  0
  5 17  1  0  0  0  0
  5 47  1  0  0  0  0
  6 18  1  0  0  0  0
  6 20  1  0  0  0  0
  6 21  1  0  0  0  0
  7 30  1  0  0  0  0
  7 33  1  0  0  0  0
  7 34  1  0  0  0  0
  8 11  1  0  0  0  0
  8 15  1  0  0  0  0
  8 35  1  0  0  0  0
  9 11  1  0  0  0  0
  9 12  1  0  0  0  0
  9 36  1  0  0  0  0
 10 13  1  0  0  0  0
 10 14  1  0  0  0  0
 10 37  1  0  0  0  0
 11 38  1  0  0  0  0
 11 39  1  0  0  0  0
 12 40  1  0  0  0  0
 12 41  1  0  0  0  0
 13 42  1  0  0  0  0
 13 43  1  0  0  0  0
 14 16  1  0  0  0  0
 14 44  1  0  0  0  0
 14 45  1  0  0  0  0
 16 18  1  0  0  0  0
 16 48  1  0  0  0  0
 16 49  1  0  0  0  0
 17 19  1  0  0  0  0
 17 50  1  0  0  0  0
 17 51  1  0  0  0  0
 19 24  2  0  0  0  0
 19 25  1  0  0  0  0
 20 22  1  0  0  0  0
 20 52  1  0  0  0  0
 20 53  1  0  0  0  0
 21 23  1  0  0  0  0
 21 26  2  0  0  0  0
 22 23  1  0  0  0  0
 22 54  1  0  0  0  0
 22 55  1  0  0  0  0
 23 27  2  0  0  0  0
 24 28  1  0  0  0  0
 24 56  1  0  0  0  0
 25 29  2  0  0  0  0
 25 57  1  0  0  0  0
 26 31  1  0  0  0  0
 26 58  1  0  0  0  0
 27 32  1  0  0  0  0
 27 59  1  0  0  0  0
 28 30  2  0  0  0  0
 28 60  1  0  0  0  0
 29 30  1  0  0  0  0
 29 61  1  0  0  0  0
 31 32  2  0  0  0  0
 31 62  1  0  0  0  0
 32 63  1  0  0  0  0
 33 64  1  0  0  0  0
 33 65  1  0  0  0  0
 33 66  1  0  0  0  0
 34 67  1  0  0  0  0
 34 68  1  0  0  0  0
 34 69  1  0  0  0  0
M  END
> <PUBCHEM_COMPOUND_CID>
45360647

> <PUBCHEM_CONFORMER_RMSD>
1

> <PUBCHEM_CONFORMER_DIVERSEORDER>
1
141
230
253
94
155
266
121
175
37
167
92
181
227
218
100
245
146
204
131
193
252
126
38
171
272
137
50
240
254
31
132
265
43
19
109
160
151
149
23
46
112
220
72
101
271
17
122
3
32
157
81
209
22
223
264
242
208
25
64
113
231
45
8
20
174
170
125
210
67
274
96
201
233
182
98
71
80
70
226
152
139
36
159
237
127
135
78
249
153
123
229
158
263
214
129
164
119
186
35
30
236
66
4
97
18
14
212
104
260
87
238
108
58
68
143
268
219
150
192
10
221
172
224
161
49
6
183
178
56
213
117
239
205
114
246
189
216
206
89
267
84
75
180
198
176
145
191
42
248
73
53
273
15
261
251
82
34
179
197
247
116
194
110
203
21
26
5
156
142
52
243
57
165
185
83
215
255
217
62
74
269
40
27
99
207
166
195
39
234
222
7
29
24
187
91
47
76
48
130
190
106
102
162
244
270
259
169
184
128
41
65
258
85
250
111
103
105
241
107
2
55
200
168
79
124
148
177
77
133
44
61
262
163
228
88
136
256
51
12
120
199
93
154
13
54
59
95
90
140
16
257
225
235
196
115
211
28
147
138
118
11
63
173
144
232
60
9
202
33
86
69
134
188

> <PUBCHEM_MMFF94_PARTIAL_CHARGES>
42
1 -0.57
10 0.27
12 0.27
13 0.3
15 0.57
16 0.06
17 0.41
18 0.57
19 -0.14
2 -0.57
20 0.3
21 0.12
22 0.14
23 -0.14
24 -0.15
25 -0.15
26 -0.15
27 -0.15
28 -0.15
29 -0.15
3 -0.81
30 0.1
31 -0.15
32 -0.15
33 0.37
34 0.37
4 -0.73
46 0.37
47 0.36
5 -0.9
56 0.15
57 0.15
58 0.15
59 0.15
6 -0.48
60 0.15
61 0.15
62 0.15
63 0.15
7 -0.84
8 0.33
9 0.27

> <PUBCHEM_EFFECTIVE_ROTOR_COUNT>
9.8

> <PUBCHEM_PHARMACOPHORE_FEATURES>
12
1 1 acceptor
1 2 acceptor
1 3 cation
1 4 donor
1 5 cation
1 5 donor
1 7 cation
5 3 8 9 11 12 rings
5 6 20 21 22 23 rings
6 19 24 25 28 29 30 rings
6 21 23 26 27 31 32 rings
6 3 4 8 10 13 15 rings

> <PUBCHEM_HEAVY_ATOM_COUNT>
34

> <PUBCHEM_ATOM_DEF_STEREO_COUNT>
3

> <PUBCHEM_ATOM_UDEF_STEREO_COUNT>
0

> <PUBCHEM_BOND_DEF_STEREO_COUNT>
0

> <PUBCHEM_BOND_UDEF_STEREO_COUNT>
0

> <PUBCHEM_ISOTOPIC_ATOM_COUNT>
0

> <PUBCHEM_COMPONENT_COUNT>
1

> <PUBCHEM_CACTVS_TAUTO_COUNT>
3

> <PUBCHEM_CONFORMER_ID>
02B4260700000001

> <PUBCHEM_MMFF94_ENERGY>
105.2223

> <PUBCHEM_FEATURE_SELFOVERLAP>
61.171

> <PUBCHEM_SHAPE_FINGERPRINT>
10319688 140 18192995043667594236
10533779 1 10159705655598097699
11059845 2 17773615840664025417
11227688 84 18265880402726272151
11497681 19 18412830171034210944
11621639 307 12396561993844060183
117089 54 18410012147594578983
11756154 67 18410855486157208239
11828042 74 18335974265239550415
12106331 60 18266449928606972038
12342043 65 18272923904631894032
12522641 126 18188496903602754796
12645989 146 18411420648071690195
131258 43 18187653535050162708
1361 87 17531249525995536427
13782708 43 18129657488277897114
15152005 1 18342173384121643095
15152005 77 18131063844933065655
15320294 125 17131832097268175495
15351339 4 17822844291184345074
15392192 29 18339927000714683693
15467298 65 17828195494287113314
15510800 12 18261666082305242587
15773216 30 18192436483946326684
16990366 60 18260817241816369346
16992779 147 16126945608509663522
21130935 74 18050852415098688243
21133410 32 15503527947850586881
21307412 95 18336533916627088829
21344244 246 18261397793369312636
21682296 61 18337105778821959739
21716022 299 18042137590313895876
22899556 105 18338251431320729956
23559900 14 17096643400410630309
23569914 2 13336735871557207350
255183 451 18336262435374507261
2747138 104 18341888555533758498
2748736 6 9007061244826375731
32027 91 18262521536948793411
3627633 1 18337106757220785989
393628 194 9295278452667004435
397638 26 10807932674238468150
4017518 198 17687191202980238036
42767 24 18410299077286023778
4330586 98 17458921434479761018
437795 150 18265618680594423254
437815 12 18334856143154664883
44280117 145 18337676287991727268
636775 8 18342463587441790798
6673363 416 18339090299006181908
9980921 52 17842256341494160583
999808 66 18343301435890613086

> <PUBCHEM_SHAPE_MULTIPOLES>
663.06
25.9
7.09
1.54
19.82
7.43
0.11
-48.84
-3.32
1
-1.67
-1.93
-0.27
3.05

> <PUBCHEM_SHAPE_SELFOVERLAP>
1422.495

> <PUBCHEM_SHAPE_VOLUME>
367.9

> <PUBCHEM_COORDINATE_TYPE>
2
5
10

$$$$
