7687194
  -OEChem-12032416153D

 50 54  0     1  0  0  0  0  0999 V2000
    0.7906   -2.3652    3.0526 O   0  0  0  0  0  0  0  0  0  0  0  0
    2.6919   -1.8077   -1.4375 O   0  0  0  0  0  0  0  0  0  0  0  0
   -0.5038   -1.8427    1.1716 N   0  0  0  0  0  0  0  0  0  0  0  0
    0.4168   -1.6500   -1.8305 N   0  0  0  0  0  0  0  0  0  0  0  0
    1.7032    0.2884   -1.4412 N   0  0  0  0  0  0  0  0  0  0  0  0
   -2.4886    3.2072   -1.1468 N   0  0  0  0  0  0  0  0  0  0  0  0
   -4.4513    2.4006   -0.0049 N   0  0  0  0  0  0  0  0  0  0  0  0
   -0.8156   -3.5157   -0.7435 C   0  0  2  0  0  0  0  0  0  0  0  0
   -1.8436   -1.2842   -0.8855 C   0  0  2  0  0  0  0  0  0  0  0  0
   -2.1295   -2.7834   -0.9756 C   0  0  0  0  0  0  0  0  0  0  0  0
   -0.3502   -3.2202    0.6826 C   0  0  0  0  0  0  0  0  0  0  0  0
    0.2330   -3.1024   -1.7926 C   0  0  0  0  0  0  0  0  0  0  0  0
   -0.8362   -0.8946   -1.9907 C   0  0  0  0  0  0  0  0  0  0  0  0
   -1.2945   -0.8933    0.4917 C   0  0  0  0  0  0  0  0  0  0  0  0
   -1.5089    0.3285    1.0461 C   0  0  0  0  0  0  0  0  0  0  0  0
    0.1033   -1.5705    2.4106 C   0  0  0  0  0  0  0  0  0  0  0  0
    1.6881   -1.1004   -1.5572 C   0  0  0  0  0  0  0  0  0  0  0  0
   -0.8967    0.6450    2.3225 C   0  0  0  0  0  0  0  0  0  0  0  0
   -0.1252   -0.2224    2.9772 C   0  0  0  0  0  0  0  0  0  0  0  0
   -2.3260    1.3599    0.3702 C   0  0  0  0  0  0  0  0  0  0  0  0
   -1.7736    2.2545   -0.5131 C   0  0  0  0  0  0  0  0  0  0  0  0
   -3.6763    1.4726    0.5937 C   0  0  0  0  0  0  0  0  0  0  0  0
    2.6261    1.0739   -0.7095 C   0  0  0  0  0  0  0  0  0  0  0  0
    2.5482    2.4627   -0.7640 C   0  0  0  0  0  0  0  0  0  0  0  0
    3.6062    0.4530    0.0597 C   0  0  0  0  0  0  0  0  0  0  0  0
   -3.8022    3.2232   -0.8507 C   0  0  0  0  0  0  0  0  0  0  0  0
    3.4577    3.2368   -0.0436 C   0  0  0  0  0  0  0  0  0  0  0  0
    4.5157    1.2272    0.7801 C   0  0  0  0  0  0  0  0  0  0  0  0
    4.4415    2.6192    0.7286 C   0  0  0  0  0  0  0  0  0  0  0  0
   -0.9742   -4.5968   -0.8402 H   0  0  0  0  0  0  0  0  0  0  0  0
   -2.7904   -0.7696   -1.0847 H   0  0  0  0  0  0  0  0  0  0  0  0
   -2.8784   -3.0818   -0.2312 H   0  0  0  0  0  0  0  0  0  0  0  0
   -2.5388   -3.0369   -1.9613 H   0  0  0  0  0  0  0  0  0  0  0  0
   -0.9296   -3.8447    1.3768 H   0  0  0  0  0  0  0  0  0  0  0  0
    0.6969   -3.5235    0.8099 H   0  0  0  0  0  0  0  0  0  0  0  0
    1.1812   -3.6138   -1.5978 H   0  0  0  0  0  0  0  0  0  0  0  0
   -0.0990   -3.4084   -2.7922 H   0  0  0  0  0  0  0  0  0  0  0  0
   -1.2422   -1.1640   -2.9741 H   0  0  0  0  0  0  0  0  0  0  0  0
   -0.6882    0.1812   -2.0109 H   0  0  0  0  0  0  0  0  0  0  0  0
   -1.0686    1.6308    2.7446 H   0  0  0  0  0  0  0  0  0  0  0  0
    0.3331    0.0254    3.9271 H   0  0  0  0  0  0  0  0  0  0  0  0
    1.0107    0.8263   -1.9484 H   0  0  0  0  0  0  0  0  0  0  0  0
   -0.7146    2.2545   -0.7468 H   0  0  0  0  0  0  0  0  0  0  0  0
   -4.2034    0.8109    1.2739 H   0  0  0  0  0  0  0  0  0  0  0  0
    1.7873    2.9564   -1.3625 H   0  0  0  0  0  0  0  0  0  0  0  0
    3.6944   -0.6201    0.1716 H   0  0  0  0  0  0  0  0  0  0  0  0
   -4.4004    3.9784   -1.3456 H   0  0  0  0  0  0  0  0  0  0  0  0
    3.3997    4.3206   -0.0834 H   0  0  0  0  0  0  0  0  0  0  0  0
    5.2768    0.7471    1.3885 H   0  0  0  0  0  0  0  0  0  0  0  0
    5.1483    3.2219    1.2913 H   0  0  0  0  0  0  0  0  0  0  0  0
  1 16  2  0  0  0  0
  2 17  2  0  0  0  0
  3 11  1  0  0  0  0
  3 14  1  0  0  0  0
  3 16  1  0  0  0  0
  4 12  1  0  0  0  0
  4 13  1  0  0  0  0
  4 17  1  0  0  0  0
  5 17  1  0  0  0  0
  5 23  1  0  0  0  0
  5 42  1  0  0  0  0
  6 21  2  0  0  0  0
  6 26  1  0  0  0  0
  7 22  1  0  0  0  0
  7 26  2  0  0  0  0
  8 10  1  0  0  0  0
  8 11  1  0  0  0  0
  8 12  1  0  0  0  0
  8 30  1  0  0  0  0
  9 10  1  0  0  0  0
  9 13  1  0  0  0  0
  9 14  1  0  0  0  0
  9 31  1  0  0  0  0
 10 32  1  0  0  0  0
 10 33  1  0  0  0  0
 11 34  1  0  0  0  0
 11 35  1  0  0  0  0
 12 36  1  0  0  0  0
 12 37  1  0  0  0  0
 13 38  1  0  0  0  0
 13 39  1  0  0  0  0
 14 15  2  0  0  0  0
 15 18  1  0  0  0  0
 15 20  1  0  0  0  0
 16 19  1  0  0  0  0
 18 19  2  0  0  0  0
 18 40  1  0  0  0  0
 19 41  1  0  0  0  0
 20 21  1  0  0  0  0
 20 22  2  0  0  0  0
 21 43  1  0  0  0  0
 22 44  1  0  0  0  0
 23 24  2  0  0  0  0
 23 25  1  0  0  0  0
 24 27  1  0  0  0  0
 24 45  1  0  0  0  0
 25 28  2  0  0  0  0
 25 46  1  0  0  0  0
 26 47  1  0  0  0  0
 27 29  2  0  0  0  0
 27 48  1  0  0  0  0
 28 29  1  0  0  0  0
 28 49  1  0  0  0  0
 29 50  1  0  0  0  0
M  END
> <PUBCHEM_COMPOUND_CID>
7687194

> <PUBCHEM_CONFORMER_RMSD>
0.8

> <PUBCHEM_CONFORMER_DIVERSEORDER>
1
9
4
8
2
5
3
7
6

> <PUBCHEM_MMFF94_PARTIAL_CHARGES>
38
1 -0.57
11 0.3
12 0.3
13 0.3
14 -0.03
15 -0.03
16 0.62
17 0.69
18 -0.15
19 -0.14
2 -0.57
20 0.03
21 0.16
22 0.16
23 0.12
24 -0.15
25 -0.15
26 0.47
27 -0.15
28 -0.15
29 -0.15
3 -0.47
4 -0.66
40 0.15
41 0.15
42 0.37
43 0.15
44 0.15
45 0.15
46 0.15
47 0.15
48 0.15
49 0.15
5 -0.55
50 0.15
6 -0.62
7 -0.62
9 0.14

> <PUBCHEM_EFFECTIVE_ROTOR_COUNT>
5

> <PUBCHEM_PHARMACOPHORE_FEATURES>
10
1 1 acceptor
1 2 acceptor
1 5 donor
1 6 acceptor
3 6 7 26 cation
6 23 24 25 27 28 29 rings
6 3 14 15 16 18 19 rings
6 3 8 9 10 11 14 rings
6 4 8 9 10 12 13 rings
6 6 7 20 21 22 26 rings

> <PUBCHEM_HEAVY_ATOM_COUNT>
29

> <PUBCHEM_ATOM_DEF_STEREO_COUNT>
2

> <PUBCHEM_ATOM_UDEF_STEREO_COUNT>
0

> <PUBCHEM_BOND_DEF_STEREO_COUNT>
0

> <PUBCHEM_BOND_UDEF_STEREO_COUNT>
0

> <PUBCHEM_ISOTOPIC_ATOM_COUNT>
0

> <PUBCHEM_COMPONENT_COUNT>
1

> <PUBCHEM_CACTVS_TAUTO_COUNT>
2

> <PUBCHEM_CONFORMER_ID>
00754C1A00000001

> <PUBCHEM_MMFF94_ENERGY>
91.2479

> <PUBCHEM_FEATURE_SELFOVERLAP>
52.334

> <PUBCHEM_SHAPE_FINGERPRINT>
10871710 139 17545901767569956188
11370993 70 18272087184255970756
11582403 64 18261670381134800617
11725454 13 18043261149568003919
12156800 1 17126433511711839092
12422481 6 18051727548406124883
12788726 201 18047184438747149104
128993 33 16481402812475556520
13004483 165 17836077149614993292
14142880 1 16842509982841325722
14251764 3 18190482483604167521
14468879 13 18339091474423714208
14840074 17 17189559983335408656
14955137 171 17685205084767060274
17980427 23 17686022069493438267
19930381 70 18198350550390357805
20905425 154 17174899717960694333
21860390 5 17541641834395691349
23419403 2 17617713891715776329
238 59 18125743195979330285
35225 105 17313969513395638140
460360 51 18199767984851651268
469060 322 17405442481810951786
57527306 92 14680263987047766722
5895379 119 16757179776023424993

> <PUBCHEM_SHAPE_MULTIPOLES>
560.16
6.5
4.85
2.49
6.96
0.48
1.78
7.38
-0.47
-3.39
-1.53
-0.14
-1.51
0.4

> <PUBCHEM_SHAPE_SELFOVERLAP>
1237.85

> <PUBCHEM_SHAPE_VOLUME>
290.6

> <PUBCHEM_COORDINATE_TYPE>
2
5
10

$$$$
