45783567
  -OEChem-12032416263D

 59 62  0     1  0  0  0  0  0999 V2000
   -2.8032   -1.6597    1.9174 O   0  0  0  0  0  0  0  0  0  0  0  0
    4.5581   -1.5589    0.0016 O   0  0  0  0  0  0  0  0  0  0  0  0
    1.9421    2.9691   -1.0903 O   0  0  0  0  0  0  0  0  0  0  0  0
    6.9962   -0.3020   -0.5550 O   0  0  0  0  0  0  0  0  0  0  0  0
   -4.3633   -0.2317   -1.0879 N   0  0  1  0  0  0  0  0  0  0  0  0
   -1.7660   -1.2490   -0.0249 N   0  0  0  0  0  0  0  0  0  0  0  0
   -1.4319   -1.7845    2.1742 N   0  0  0  0  0  0  0  0  0  0  0  0
    0.6035    3.2843    0.8246 N   0  0  0  0  0  0  0  0  0  0  0  0
    2.3865   -1.2742   -0.7646 N   0  0  0  0  0  0  0  0  0  0  0  0
   -4.3162   -1.1510    0.0666 C   0  0  1  0  0  0  0  0  0  0  0  0
   -4.9405   -2.4603   -0.4502 C   0  0  0  0  0  0  0  0  0  0  0  0
   -5.3627   -2.1617   -1.8817 C   0  0  0  0  0  0  0  0  0  0  0  0
   -5.5012   -0.6529   -1.9054 C   0  0  0  0  0  0  0  0  0  0  0  0
   -4.4547    1.1706   -0.7022 C   0  0  0  0  0  0  0  0  0  0  0  0
   -2.9122   -1.3437    0.6004 C   0  0  0  0  0  0  0  0  0  0  0  0
   -3.1161    1.7293   -0.2982 C   0  0  0  0  0  0  0  0  0  0  0  0
   -2.9409    2.2658    0.9774 C   0  0  0  0  0  0  0  0  0  0  0  0
   -2.0515    1.7110   -1.1993 C   0  0  0  0  0  0  0  0  0  0  0  0
   -0.8872   -1.5277    0.9811 C   0  0  0  0  0  0  0  0  0  0  0  0
   -1.7013    2.7839    1.3519 C   0  0  0  0  0  0  0  0  0  0  0  0
   -0.8118    2.2293   -0.8250 C   0  0  0  0  0  0  0  0  0  0  0  0
   -0.6368    2.7658    0.4507 C   0  0  0  0  0  0  0  0  0  0  0  0
    0.5301   -1.5430    0.7606 C   0  0  0  0  0  0  0  0  0  0  0  0
    1.4128   -1.8289    1.7963 C   0  0  0  0  0  0  0  0  0  0  0  0
    1.0626   -1.2749   -0.4900 C   0  0  0  0  0  0  0  0  0  0  0  0
    2.7818   -1.8376    1.5529 C   0  0  0  0  0  0  0  0  0  0  0  0
    1.7778    3.3524    0.0633 C   0  0  0  0  0  0  0  0  0  0  0  0
    3.2137   -1.5563    0.2668 C   0  0  0  0  0  0  0  0  0  0  0  0
    2.9077    3.9879    0.8341 C   0  0  0  0  0  0  0  0  0  0  0  0
    4.9473   -1.2638   -1.3347 C   0  0  0  0  0  0  0  0  0  0  0  0
    6.4608   -1.2905   -1.4266 C   0  0  0  0  0  0  0  0  0  0  0  0
    8.4167   -0.2969   -0.5840 C   0  0  0  0  0  0  0  0  0  0  0  0
   -4.9503   -0.7813    0.8847 H   0  0  0  0  0  0  0  0  0  0  0  0
   -4.2606   -3.3185   -0.4161 H   0  0  0  0  0  0  0  0  0  0  0  0
   -5.8253   -2.7082    0.1488 H   0  0  0  0  0  0  0  0  0  0  0  0
   -6.2907   -2.6728   -2.1546 H   0  0  0  0  0  0  0  0  0  0  0  0
   -4.5780   -2.4849   -2.5769 H   0  0  0  0  0  0  0  0  0  0  0  0
   -6.4573   -0.3515   -1.4588 H   0  0  0  0  0  0  0  0  0  0  0  0
   -5.4444   -0.2599   -2.9252 H   0  0  0  0  0  0  0  0  0  0  0  0
   -5.2101    1.3293    0.0786 H   0  0  0  0  0  0  0  0  0  0  0  0
   -4.7877    1.7722   -1.5597 H   0  0  0  0  0  0  0  0  0  0  0  0
   -3.7608    2.2847    1.6903 H   0  0  0  0  0  0  0  0  0  0  0  0
   -2.1749    1.3000   -2.1980 H   0  0  0  0  0  0  0  0  0  0  0  0
   -1.5787    3.1980    2.3495 H   0  0  0  0  0  0  0  0  0  0  0  0
   -0.0360    2.1791   -1.5761 H   0  0  0  0  0  0  0  0  0  0  0  0
    0.6509    3.6565    1.7709 H   0  0  0  0  0  0  0  0  0  0  0  0
    1.0684   -2.0488    2.8035 H   0  0  0  0  0  0  0  0  0  0  0  0
    0.4382   -1.0429   -1.3477 H   0  0  0  0  0  0  0  0  0  0  0  0
    3.4839   -2.0584    2.3496 H   0  0  0  0  0  0  0  0  0  0  0  0
    3.8125    4.0033    0.2202 H   0  0  0  0  0  0  0  0  0  0  0  0
    2.6414    5.0143    1.1014 H   0  0  0  0  0  0  0  0  0  0  0  0
    3.1061    3.4127    1.7428 H   0  0  0  0  0  0  0  0  0  0  0  0
    4.5911   -0.2616   -1.6043 H   0  0  0  0  0  0  0  0  0  0  0  0
    4.5300   -2.0068   -2.0245 H   0  0  0  0  0  0  0  0  0  0  0  0
    6.8329   -2.2745   -1.1184 H   0  0  0  0  0  0  0  0  0  0  0  0
    6.7770   -1.0887   -2.4559 H   0  0  0  0  0  0  0  0  0  0  0  0
    8.8110   -1.2611   -0.2486 H   0  0  0  0  0  0  0  0  0  0  0  0
    8.7793   -0.0707   -1.5914 H   0  0  0  0  0  0  0  0  0  0  0  0
    8.7720    0.4808    0.0974 H   0  0  0  0  0  0  0  0  0  0  0  0
  1  7  1  0  0  0  0
  1 15  1  0  0  0  0
  2 28  1  0  0  0  0
  2 30  1  0  0  0  0
  3 27  2  0  0  0  0
  4 31  1  0  0  0  0
  4 32  1  0  0  0  0
  5 10  1  0  0  0  0
  5 13  1  0  0  0  0
  5 14  1  0  0  0  0
  6 15  2  0  0  0  0
  6 19  1  0  0  0  0
  7 19  2  0  0  0  0
  8 22  1  0  0  0  0
  8 27  1  0  0  0  0
  8 46  1  0  0  0  0
  9 25  1  0  0  0  0
  9 28  2  0  0  0  0
 10 11  1  0  0  0  0
 10 15  1  0  0  0  0
 10 33  1  0  0  0  0
 11 12  1  0  0  0  0
 11 34  1  0  0  0  0
 11 35  1  0  0  0  0
 12 13  1  0  0  0  0
 12 36  1  0  0  0  0
 12 37  1  0  0  0  0
 13 38  1  0  0  0  0
 13 39  1  0  0  0  0
 14 16  1  0  0  0  0
 14 40  1  0  0  0  0
 14 41  1  0  0  0  0
 16 17  2  0  0  0  0
 16 18  1  0  0  0  0
 17 20  1  0  0  0  0
 17 42  1  0  0  0  0
 18 21  2  0  0  0  0
 18 43  1  0  0  0  0
 19 23  1  0  0  0  0
 20 22  2  0  0  0  0
 20 44  1  0  0  0  0
 21 22  1  0  0  0  0
 21 45  1  0  0  0  0
 23 24  1  0  0  0  0
 23 25  2  0  0  0  0
 24 26  2  0  0  0  0
 24 47  1  0  0  0  0
 25 48  1  0  0  0  0
 26 28  1  0  0  0  0
 26 49  1  0  0  0  0
 27 29  1  0  0  0  0
 29 50  1  0  0  0  0
 29 51  1  0  0  0  0
 29 52  1  0  0  0  0
 30 31  1  0  0  0  0
 30 53  1  0  0  0  0
 30 54  1  0  0  0  0
 31 55  1  0  0  0  0
 31 56  1  0  0  0  0
 32 57  1  0  0  0  0
 32 58  1  0  0  0  0
 32 59  1  0  0  0  0
M  END
> <PUBCHEM_COMPOUND_CID>
45783567

> <PUBCHEM_CONFORMER_RMSD>
1

> <PUBCHEM_CONFORMER_DIVERSEORDER>
1
97
29
129
73
113
35
41
84
133
115
135
67
78
100
25
104
14
131
130
126
26
82
132
112
105
45
117
87
28
122
121
30
38
141
91
103
51
11
47
107
96
138
81
128
23
86
39
120
95
16
57
24
74
31
4
71
137
77
127
110
69
108
48
21
42
99
109
40
92
60
62
70
140
118
102
66
80
55
88
106
32
93
50
15
5
19
52
142
20
85
27
43
134
64
98
2
17
53
33
18
114
3
139
13
90
22
125
59
68
37
36
46
12
54
61
101
72
136
8
76
65
34
63
9
75
119
83
56
7
49
124
116
89
111
6
94
123
58
10
79
44

> <PUBCHEM_MMFF94_PARTIAL_CHARGES>
38
1 -0.02
10 0.45
13 0.27
14 0.41
15 0.3
16 -0.14
17 -0.15
18 -0.15
19 0.46
2 -0.36
20 -0.15
21 -0.15
22 0.12
23 0.05
24 -0.15
25 0.16
26 -0.15
27 0.57
28 0.39
29 0.06
3 -0.57
30 0.28
31 0.28
32 0.28
4 -0.56
42 0.15
43 0.15
44 0.15
45 0.15
46 0.37
47 0.15
48 0.15
49 0.15
5 -0.81
6 -0.57
7 -0.41
8 -0.55
9 -0.62

> <PUBCHEM_EFFECTIVE_ROTOR_COUNT>
11

> <PUBCHEM_PHARMACOPHORE_FEATURES>
9
1 3 acceptor
1 4 acceptor
1 5 cation
1 8 donor
3 6 7 19 cation
5 1 6 7 15 19 rings
5 5 10 11 12 13 rings
6 16 17 18 20 21 22 rings
6 9 23 24 25 26 28 rings

> <PUBCHEM_HEAVY_ATOM_COUNT>
32

> <PUBCHEM_ATOM_DEF_STEREO_COUNT>
1

> <PUBCHEM_ATOM_UDEF_STEREO_COUNT>
0

> <PUBCHEM_BOND_DEF_STEREO_COUNT>
0

> <PUBCHEM_BOND_UDEF_STEREO_COUNT>
0

> <PUBCHEM_ISOTOPIC_ATOM_COUNT>
0

> <PUBCHEM_COMPONENT_COUNT>
1

> <PUBCHEM_CACTVS_TAUTO_COUNT>
2

> <PUBCHEM_CONFORMER_ID>
02BA9A0F00000001

> <PUBCHEM_MMFF94_ENERGY>
75.2921

> <PUBCHEM_FEATURE_SELFOVERLAP>
45.672

> <PUBCHEM_SHAPE_FINGERPRINT>
1100329 8 18339357445360063001
11477941 20 18271800220516544004
12107698 1 18342738528912874910
12156800 1 14061729403983390717
12788726 201 18191866721498689601
13761468 95 17614008386826611710
14068700 675 18343578542721702516
14400156 147 16194224861751311287
14931854 50 18187641362616492742
16067689 302 18122914384690224455
17492 54 18115021879809216689
20028762 73 16392113973198868275
20609170 92 18188205533153691652
20642791 35 18335405852219810469
20691752 17 17603849110620222809
20721686 56 18338799035107601400
20775438 99 17622414548844247479
21344244 246 17982162624247930903
23559900 14 18340759390871911589
238918 7 17832980920798138448
3298306 158 17976248359913364417
4017518 198 16976720924756750584
508706 21 18113899376984238712
5171179 24 18342453776818582296

> <PUBCHEM_SHAPE_MULTIPOLES>
610.16
14.38
4.51
1.77
23.25
5.02
0.24
-8.55
-8.65
0.09
0.93
-0.69
-0.77
-0.2

> <PUBCHEM_SHAPE_SELFOVERLAP>
1302.118

> <PUBCHEM_SHAPE_VOLUME>
340.1

> <PUBCHEM_COORDINATE_TYPE>
2
5
10

$$$$
