11879855
  -OEChem-12032416153D

 64 67  0     1  0  0  0  0  0999 V2000
   -1.7616   -2.6494   -0.7009 S   0  0  0  0  0  0  0  0  0  0  0  0
    1.1166   -2.8878    0.5555 O   0  0  0  0  0  0  0  0  0  0  0  0
    1.1774    1.8295    2.4478 O   0  0  0  0  0  0  0  0  0  0  0  0
   -1.3503   -1.7820    0.3863 O   0  0  0  0  0  0  0  0  0  0  0  0
   -2.9655   -2.3785   -1.4624 O   0  0  0  0  0  0  0  0  0  0  0  0
   -3.4875    0.9765    2.0091 O   0  0  0  0  0  0  0  0  0  0  0  0
   -3.4263    3.6868   -1.9193 O   0  0  0  0  0  0  0  0  0  0  0  0
    2.8376    1.7662    0.8414 N   0  0  0  0  0  0  0  0  0  0  0  0
    2.4937   -1.1677   -0.2412 N   0  0  0  0  0  0  0  0  0  0  0  0
    0.7117    2.6457    0.3262 N   0  0  0  0  0  0  0  0  0  0  0  0
   -0.4569   -2.8868   -1.7726 N   0  0  0  0  0  0  0  0  0  0  0  0
    4.3934   -0.1482    1.1408 C   0  0  1  0  0  0  0  0  0  0  0  0
    3.9234    0.7135   -1.1205 C   0  0  2  0  0  0  0  0  0  0  0  0
    5.0230    0.1555   -0.2156 C   0  0  0  0  0  0  0  0  0  0  0  0
    3.7871    1.1289    1.7566 C   0  0  0  0  0  0  0  0  0  0  0  0
    3.3445   -1.2522    0.9545 C   0  0  0  0  0  0  0  0  0  0  0  0
    3.3777    2.0169   -0.5059 C   0  0  0  0  0  0  0  0  0  0  0  0
    2.7959   -0.2875   -1.2904 C   0  0  0  0  0  0  0  0  0  0  0  0
    2.0693   -0.3012   -2.4227 C   0  0  0  0  0  0  0  0  0  0  0  0
    1.4212   -2.0807   -0.3218 C   0  0  0  0  0  0  0  0  0  0  0  0
    1.5391    2.0797    1.2952 C   0  0  0  0  0  0  0  0  0  0  0  0
    0.6422   -2.0306   -1.5845 C   0  0  0  0  0  0  0  0  0  0  0  0
    0.9567   -1.1987   -2.5780 C   0  0  0  0  0  0  0  0  0  0  0  0
   -0.6977    2.5397    0.2311 C   0  0  0  0  0  0  0  0  0  0  0  0
   -1.9046   -4.2908   -0.0385 C   0  0  0  0  0  0  0  0  0  0  0  0
   -3.0284   -4.3803    0.9806 C   0  0  0  0  0  0  0  0  0  0  0  0
   -1.3762    3.1733   -0.8100 C   0  0  0  0  0  0  0  0  0  0  0  0
   -1.4070    1.8012    1.1784 C   0  0  0  0  0  0  0  0  0  0  0  0
   -2.7947    1.6965    1.0846 C   0  0  0  0  0  0  0  0  0  0  0  0
   -2.7639    3.0686   -0.9036 C   0  0  0  0  0  0  0  0  0  0  0  0
   -3.1401   -5.7791    1.5635 C   0  0  0  0  0  0  0  0  0  0  0  0
   -3.4732    2.3302    0.0437 C   0  0  0  0  0  0  0  0  0  0  0  0
   -2.7316    0.3549    3.0473 C   0  0  0  0  0  0  0  0  0  0  0  0
   -4.8449    3.5381   -1.9546 C   0  0  0  0  0  0  0  0  0  0  0  0
    5.1637   -0.5156    1.8300 H   0  0  0  0  0  0  0  0  0  0  0  0
    4.3679    0.9459   -2.0969 H   0  0  0  0  0  0  0  0  0  0  0  0
    5.8347    0.8848   -0.1048 H   0  0  0  0  0  0  0  0  0  0  0  0
    5.4625   -0.7510   -0.6502 H   0  0  0  0  0  0  0  0  0  0  0  0
    4.5793    1.8607    1.9567 H   0  0  0  0  0  0  0  0  0  0  0  0
    3.3152    0.8948    2.7162 H   0  0  0  0  0  0  0  0  0  0  0  0
    3.8606   -2.2192    0.8812 H   0  0  0  0  0  0  0  0  0  0  0  0
    2.6987   -1.3217    1.8389 H   0  0  0  0  0  0  0  0  0  0  0  0
    4.1820    2.7548   -0.3979 H   0  0  0  0  0  0  0  0  0  0  0  0
    2.6409    2.4495   -1.1835 H   0  0  0  0  0  0  0  0  0  0  0  0
    2.2780    0.3813   -3.2400 H   0  0  0  0  0  0  0  0  0  0  0  0
    0.3983   -1.1543   -3.5069 H   0  0  0  0  0  0  0  0  0  0  0  0
    1.1396    3.1944   -0.4109 H   0  0  0  0  0  0  0  0  0  0  0  0
   -0.7349   -3.0176   -2.7548 H   0  0  0  0  0  0  0  0  0  0  0  0
   -2.0932   -4.9673   -0.8785 H   0  0  0  0  0  0  0  0  0  0  0  0
   -0.9479   -4.5522    0.4226 H   0  0  0  0  0  0  0  0  0  0  0  0
   -3.9824   -4.1062    0.5153 H   0  0  0  0  0  0  0  0  0  0  0  0
   -2.8583   -3.6653    1.7940 H   0  0  0  0  0  0  0  0  0  0  0  0
   -0.8297    3.7501   -1.5526 H   0  0  0  0  0  0  0  0  0  0  0  0
   -0.8752    1.2801    1.9572 H   0  0  0  0  0  0  0  0  0  0  0  0
   -3.9547   -5.8220    2.2933 H   0  0  0  0  0  0  0  0  0  0  0  0
   -2.2140   -6.0678    2.0710 H   0  0  0  0  0  0  0  0  0  0  0  0
   -3.3469   -6.5152    0.7800 H   0  0  0  0  0  0  0  0  0  0  0  0
   -4.5515    2.2113    0.0252 H   0  0  0  0  0  0  0  0  0  0  0  0
   -3.4446   -0.1674    3.6940 H   0  0  0  0  0  0  0  0  0  0  0  0
   -2.2205    1.0946    3.6731 H   0  0  0  0  0  0  0  0  0  0  0  0
   -2.0476   -0.4042    2.6554 H   0  0  0  0  0  0  0  0  0  0  0  0
   -5.2063    4.0938   -2.8262 H   0  0  0  0  0  0  0  0  0  0  0  0
   -5.3185    3.9836   -1.0731 H   0  0  0  0  0  0  0  0  0  0  0  0
   -5.1366    2.4923   -2.0994 H   0  0  0  0  0  0  0  0  0  0  0  0
  1  4  2  0  0  0  0
  1  5  2  0  0  0  0
  1 11  1  0  0  0  0
  1 25  1  0  0  0  0
  2 20  2  0  0  0  0
  3 21  2  0  0  0  0
  6 29  1  0  0  0  0
  6 33  1  0  0  0  0
  7 30  1  0  0  0  0
  7 34  1  0  0  0  0
  8 15  1  0  0  0  0
  8 17  1  0  0  0  0
  8 21  1  0  0  0  0
  9 16  1  0  0  0  0
  9 18  1  0  0  0  0
  9 20  1  0  0  0  0
 10 21  1  0  0  0  0
 10 24  1  0  0  0  0
 10 47  1  0  0  0  0
 11 22  1  0  0  0  0
 11 48  1  0  0  0  0
 12 14  1  0  0  0  0
 12 15  1  0  0  0  0
 12 16  1  0  0  0  0
 12 35  1  0  0  0  0
 13 14  1  0  0  0  0
 13 17  1  0  0  0  0
 13 18  1  0  0  0  0
 13 36  1  0  0  0  0
 14 37  1  0  0  0  0
 14 38  1  0  0  0  0
 15 39  1  0  0  0  0
 15 40  1  0  0  0  0
 16 41  1  0  0  0  0
 16 42  1  0  0  0  0
 17 43  1  0  0  0  0
 17 44  1  0  0  0  0
 18 19  2  0  0  0  0
 19 23  1  0  0  0  0
 19 45  1  0  0  0  0
 20 22  1  0  0  0  0
 22 23  2  0  0  0  0
 23 46  1  0  0  0  0
 24 27  2  0  0  0  0
 24 28  1  0  0  0  0
 25 26  1  0  0  0  0
 25 49  1  0  0  0  0
 25 50  1  0  0  0  0
 26 31  1  0  0  0  0
 26 51  1  0  0  0  0
 26 52  1  0  0  0  0
 27 30  1  0  0  0  0
 27 53  1  0  0  0  0
 28 29  2  0  0  0  0
 28 54  1  0  0  0  0
 29 32  1  0  0  0  0
 30 32  2  0  0  0  0
 31 55  1  0  0  0  0
 31 56  1  0  0  0  0
 31 57  1  0  0  0  0
 32 58  1  0  0  0  0
 33 59  1  0  0  0  0
 33 60  1  0  0  0  0
 33 61  1  0  0  0  0
 34 62  1  0  0  0  0
 34 63  1  0  0  0  0
 34 64  1  0  0  0  0
M  END
> <PUBCHEM_COMPOUND_CID>
11879855

> <PUBCHEM_CONFORMER_RMSD>
1

> <PUBCHEM_CONFORMER_DIVERSEORDER>
1
140
125
113
85
38
91
49
58
149
79
78
24
70
115
94
139
147
16
95
124
101
121
134
132
73
126
116
65
13
40
20
83
119
44
62
142
8
80
145
146
154
135
67
66
53
127
35
123
96
129
133
99
109
118
122
92
14
117
82
46
39
30
68
136
33
23
112
59
105
81
77
97
106
144
75
114
37
32
41
64
153
143
89
107
50
111
130
100
104
25
72
141
3
110
27
76
12
86
152
11
150
87
102
148
45
18
84
90
120
61
29
103
108
5
128
36
138
17
60
9
88
151
55
42
54
6
131
57
93
21
63
19
7
43
31
52
71
4
22
26
74
51
15
28
48
10
2
98
56
34
47
69
137

> <PUBCHEM_MMFF94_PARTIAL_CHARGES>
37
1 1.33
10 -0.55
11 -0.75
13 0.14
15 0.3
16 0.3
17 0.3
18 -0.03
19 -0.15
2 -0.57
20 0.62
21 0.69
22 0.21
23 -0.15
24 0.12
25 0.11
27 -0.15
28 -0.15
29 0.08
3 -0.57
30 0.08
32 -0.15
33 0.28
34 0.28
4 -0.65
45 0.15
46 0.15
47 0.37
48 0.42
5 -0.65
53 0.15
54 0.15
58 0.15
6 -0.36
7 -0.36
8 -0.66
9 -0.47

> <PUBCHEM_EFFECTIVE_ROTOR_COUNT>
10

> <PUBCHEM_PHARMACOPHORE_FEATURES>
13
1 10 donor
1 11 donor
1 2 acceptor
1 3 acceptor
1 31 hydrophobe
1 4 acceptor
1 5 acceptor
1 6 acceptor
1 7 acceptor
6 24 27 28 29 30 32 rings
6 8 12 13 14 15 17 rings
6 9 12 13 14 16 18 rings
6 9 18 19 20 22 23 rings

> <PUBCHEM_HEAVY_ATOM_COUNT>
34

> <PUBCHEM_ATOM_DEF_STEREO_COUNT>
2

> <PUBCHEM_ATOM_UDEF_STEREO_COUNT>
0

> <PUBCHEM_BOND_DEF_STEREO_COUNT>
0

> <PUBCHEM_BOND_UDEF_STEREO_COUNT>
0

> <PUBCHEM_ISOTOPIC_ATOM_COUNT>
0

> <PUBCHEM_COMPONENT_COUNT>
1

> <PUBCHEM_CACTVS_TAUTO_COUNT>
2

> <PUBCHEM_CONFORMER_ID>
00B545AF00000001

> <PUBCHEM_MMFF94_ENERGY>
105.0203

> <PUBCHEM_FEATURE_SELFOVERLAP>
67.597

> <PUBCHEM_SHAPE_FINGERPRINT>
10190206 1 17542242589253425700
10688039 33 18049441744708771278
11421498 54 17973451198332461622
12156800 1 16836217383174141011
12422481 6 17700439119160123531
1361 2 18122049919769756645
13615921 28 9031396782790971833
13965767 371 16769014331132164210
17138139 8 17270272679535976149
17921350 177 18336835195360013920
20764821 26 18196645199275850209
238 59 18053658079886200957
3052486 1 18339086011684009128
3187 122 18124885800469789771
35225 105 18189636993511479638
469060 322 18118984712762474915
508706 21 18413393145908090783

> <PUBCHEM_SHAPE_MULTIPOLES>
648.41
8.27
6.67
2.53
2.7
5.77
-0.15
-2.25
-0.71
-11.36
0.15
-0.84
-0.37
2.72

> <PUBCHEM_SHAPE_SELFOVERLAP>
1370.051

> <PUBCHEM_SHAPE_VOLUME>
364.1

> <PUBCHEM_COORDINATE_TYPE>
2
5
10

$$$$
