51137794
  -OEChem-12032416403D

 47 50  0     1  0  0  0  0  0999 V2000
    3.9739    0.0893   -2.4636 F   0  0  0  0  0  0  0  0  0  0  0  0
    6.7389    2.7924    0.2623 F   0  0  0  0  0  0  0  0  0  0  0  0
   -2.1629   -1.4267    0.1938 O   0  0  0  0  0  0  0  0  0  0  0  0
    1.9758   -1.2058    1.9881 O   0  0  0  0  0  0  0  0  0  0  0  0
   -4.1223    4.5569   -0.0276 O   0  0  0  0  0  0  0  0  0  0  0  0
    0.8952   -2.3664    0.3285 N   0  0  0  0  0  0  0  0  0  0  0  0
   -3.5648   -3.1267   -0.1922 N   0  0  0  0  0  0  0  0  0  0  0  0
    2.6300   -0.8996   -0.2305 N   0  0  0  0  0  0  0  0  0  0  0  0
   -4.2785   -1.9488   -0.3119 N   0  0  0  0  0  0  0  0  0  0  0  0
   -1.1133   -3.6407    0.3519 C   0  0  1  0  0  0  0  0  0  0  0  0
   -0.3466   -3.9213   -0.9489 C   0  0  0  0  0  0  0  0  0  0  0  0
   -0.0168   -3.0450    1.2431 C   0  0  0  0  0  0  0  0  0  0  0  0
    0.6407   -2.7649   -1.0540 C   0  0  0  0  0  0  0  0  0  0  0  0
   -2.3356   -2.7737    0.1034 C   0  0  0  0  0  0  0  0  0  0  0  0
    1.8587   -1.4604    0.7881 C   0  0  0  0  0  0  0  0  0  0  0  0
   -3.4206   -0.9834   -0.0783 C   0  0  0  0  0  0  0  0  0  0  0  0
    3.6802    0.0431   -0.1068 C   0  0  0  0  0  0  0  0  0  0  0  0
   -3.6006    0.4394   -0.0665 C   0  0  0  0  0  0  0  0  0  0  0  0
    4.3316    0.5186   -1.2449 C   0  0  0  0  0  0  0  0  0  0  0  0
    4.0618    0.4963    1.1560 C   0  0  0  0  0  0  0  0  0  0  0  0
   -4.8556    0.9860   -0.3349 C   0  0  0  0  0  0  0  0  0  0  0  0
   -2.5209    1.2767    0.2141 C   0  0  0  0  0  0  0  0  0  0  0  0
   -5.0308    2.3696   -0.3228 C   0  0  0  0  0  0  0  0  0  0  0  0
   -2.6960    2.6604    0.2262 C   0  0  0  0  0  0  0  0  0  0  0  0
    5.3646    1.4477   -1.1201 C   0  0  0  0  0  0  0  0  0  0  0  0
    5.0947    1.4254    1.2807 C   0  0  0  0  0  0  0  0  0  0  0  0
   -3.9509    3.2069   -0.0423 C   0  0  0  0  0  0  0  0  0  0  0  0
    5.7461    1.9011    0.1427 C   0  0  0  0  0  0  0  0  0  0  0  0
   -2.9757    5.3538    0.2665 C   0  0  0  0  0  0  0  0  0  0  0  0
   -1.4804   -4.5766    0.7905 H   0  0  0  0  0  0  0  0  0  0  0  0
    0.2102   -4.8612   -0.8426 H   0  0  0  0  0  0  0  0  0  0  0  0
   -0.9815   -4.0051   -1.8364 H   0  0  0  0  0  0  0  0  0  0  0  0
    0.5590   -3.8361    1.7376 H   0  0  0  0  0  0  0  0  0  0  0  0
   -0.3875   -2.3543    2.0072 H   0  0  0  0  0  0  0  0  0  0  0  0
    1.5682   -3.0623   -1.5517 H   0  0  0  0  0  0  0  0  0  0  0  0
    0.2074   -1.9071   -1.5792 H   0  0  0  0  0  0  0  0  0  0  0  0
    2.4222   -1.1669   -1.1875 H   0  0  0  0  0  0  0  0  0  0  0  0
    3.6144    0.1760    2.0855 H   0  0  0  0  0  0  0  0  0  0  0  0
   -5.7114    0.3526   -0.5558 H   0  0  0  0  0  0  0  0  0  0  0  0
   -1.5285    0.8872    0.4279 H   0  0  0  0  0  0  0  0  0  0  0  0
   -6.0108    2.7898   -0.5320 H   0  0  0  0  0  0  0  0  0  0  0  0
   -1.8154    3.2523    0.4518 H   0  0  0  0  0  0  0  0  0  0  0  0
    5.8720    1.8178   -2.0059 H   0  0  0  0  0  0  0  0  0  0  0  0
    5.3941    1.7786    2.2632 H   0  0  0  0  0  0  0  0  0  0  0  0
   -2.6027    5.1639    1.2787 H   0  0  0  0  0  0  0  0  0  0  0  0
   -2.1959    5.2327   -0.4930 H   0  0  0  0  0  0  0  0  0  0  0  0
   -3.2932    6.4012    0.2343 H   0  0  0  0  0  0  0  0  0  0  0  0
  1 19  1  0  0  0  0
  2 28  1  0  0  0  0
  3 14  1  0  0  0  0
  3 16  1  0  0  0  0
  4 15  2  0  0  0  0
  5 27  1  0  0  0  0
  5 29  1  0  0  0  0
  6 12  1  0  0  0  0
  6 13  1  0  0  0  0
  6 15  1  0  0  0  0
  7  9  1  0  0  0  0
  7 14  2  0  0  0  0
  8 15  1  0  0  0  0
  8 17  1  0  0  0  0
  8 37  1  0  0  0  0
  9 16  2  0  0  0  0
 10 11  1  0  0  0  0
 10 12  1  0  0  0  0
 10 14  1  0  0  0  0
 10 30  1  0  0  0  0
 11 13  1  0  0  0  0
 11 31  1  0  0  0  0
 11 32  1  0  0  0  0
 12 33  1  0  0  0  0
 12 34  1  0  0  0  0
 13 35  1  0  0  0  0
 13 36  1  0  0  0  0
 16 18  1  0  0  0  0
 17 19  2  0  0  0  0
 17 20  1  0  0  0  0
 18 21  2  0  0  0  0
 18 22  1  0  0  0  0
 19 25  1  0  0  0  0
 20 26  2  0  0  0  0
 20 38  1  0  0  0  0
 21 23  1  0  0  0  0
 21 39  1  0  0  0  0
 22 24  2  0  0  0  0
 22 40  1  0  0  0  0
 23 27  2  0  0  0  0
 23 41  1  0  0  0  0
 24 27  1  0  0  0  0
 24 42  1  0  0  0  0
 25 28  2  0  0  0  0
 25 43  1  0  0  0  0
 26 28  1  0  0  0  0
 26 44  1  0  0  0  0
 29 45  1  0  0  0  0
 29 46  1  0  0  0  0
 29 47  1  0  0  0  0
M  END
> <PUBCHEM_COMPOUND_CID>
51137794

> <PUBCHEM_CONFORMER_RMSD>
1

> <PUBCHEM_CONFORMER_DIVERSEORDER>
1
84
55
116
59
108
42
149
120
164
75
128
39
86
13
92
165
139
99
79
114
7
61
167
105
101
5
129
43
136
115
119
65
89
137
106
50
83
150
100
62
52
72
90
166
154
3
125
91
24
148
21
117
168
96
18
107
151
110
22
111
71
17
162
28
12
44
51
127
103
88
82
85
41
58
153
97
98
121
30
144
95
57
133
67
68
130
143
104
66
23
94
63
135
80
6
109
70
161
10
64
69
93
158
87
142
132
152
73
35
60
118
20
8
32
155
27
156
159
31
113
25
122
81
141
33
14
163
147
146
36
131
74
40
134
49
9
138
45
76
157
34
145
4
123
46
102
2
140
54
126
37
29
15
112
19
16
11
53
124
77
26
160
48
47
78
38
56

> <PUBCHEM_MMFF94_PARTIAL_CHARGES>
36
1 -0.19
10 0.18
12 0.3
13 0.3
14 0.3
15 0.69
16 0.43
17 0.12
18 0.05
19 0.19
2 -0.19
20 -0.15
21 -0.15
22 -0.15
23 -0.15
24 -0.15
25 -0.15
26 -0.15
27 0.08
28 0.19
29 0.28
3 -0.28
37 0.37
38 0.15
39 0.15
4 -0.57
40 0.15
41 0.15
42 0.15
43 0.15
44 0.15
5 -0.36
6 -0.66
7 -0.34
8 -0.55
9 -0.34

> <PUBCHEM_EFFECTIVE_ROTOR_COUNT>
7

> <PUBCHEM_PHARMACOPHORE_FEATURES>
7
1 4 acceptor
1 5 acceptor
1 8 donor
5 3 7 9 14 16 rings
5 6 10 11 12 13 rings
6 17 19 20 25 26 28 rings
6 18 21 22 23 24 27 rings

> <PUBCHEM_HEAVY_ATOM_COUNT>
29

> <PUBCHEM_ATOM_DEF_STEREO_COUNT>
1

> <PUBCHEM_ATOM_UDEF_STEREO_COUNT>
0

> <PUBCHEM_BOND_DEF_STEREO_COUNT>
0

> <PUBCHEM_BOND_UDEF_STEREO_COUNT>
0

> <PUBCHEM_ISOTOPIC_ATOM_COUNT>
0

> <PUBCHEM_COMPONENT_COUNT>
1

> <PUBCHEM_CACTVS_TAUTO_COUNT>
2

> <PUBCHEM_CONFORMER_ID>
030C4D0200000001

> <PUBCHEM_MMFF94_ENERGY>
75.156

> <PUBCHEM_FEATURE_SELFOVERLAP>
35.523

> <PUBCHEM_SHAPE_FINGERPRINT>
10615611 76 17531820159159925838
10670039 82 18408608088863894894
10838868 217 17539945305524188336
10864689 126 18339362968493132132
10871710 139 18411975897580915815
10937287 8 18265051340967666531
10951579 204 18337689581042479916
11059048 146 17912093754423448097
11059845 2 18193528144420540626
11135609 187 18262504898499144733
11211813 163 18337123285140001974
11476731 118 17402613442968194240
11477941 20 17912353535456731438
11513181 2 18272369754470805446
11720765 8 17412470135171558102
11761917 142 18340476864098440216
12107183 9 18117824531139137634
12788726 201 17974022930992960340
13617811 41 18336252484700550173
13965767 371 17824540764410604727
14251764 75 18268436724511762081
14468879 13 18262527970656666475
14739800 52 18265034998960029762
14790565 3 18051696534474322681
14849402 71 17903355909937755267
14932702 115 18201993296494727208
15163728 17 18410581651874504423
15198563 99 17983848158699846559
15322535 138 18264481793591570493
155225 5 18411136965513392528
15575132 122 18409731785478751667
16067690 210 17902490912245482328
16728433 281 18340223959566078308
16988056 13 17331114992803003230
16992787 43 18340200801349779493
20771845 165 18128552620641637846
21033650 10 18117016557659496334
21302155 148 18407758135936131001
21792965 68 18267848627989150204
21859007 373 18200871881609192392
23559900 14 17623282776445398007
245318 6 17971489402942237165
24771293 8 18271816765791410507
38570 142 17241632614215528806
4173938 77 16760307903947704865
44249763 50 17486199304853073232
44802255 64 17843694507066395222
4487111 67 18338513045598692361
4756261 7 9435406687421827150
50150288 127 16304348544927892670
508180 173 17691147949637074918
508706 21 18270113651193996360
5283173 99 18341617074829972400
53794403 172 17907297655128564221
550186 7 18200042857667036582
550186 72 18409448077705025237
57527585 21 18199163184262319543
5895379 119 18190476024648445324
6034566 193 18268441148554813505
6036956 94 18261111932708792525
6176135 31 17905318529545534569
6201320 215 18269829986760788248
6299153 45 18261100847835499418
6475588 51 18119527893726172980
6608658 132 18197763591696365783
6700243 42 17478087142049444182
7064713 232 18261110755570443188
7288768 16 18040156197630483315
7808743 9 18410852170373416299
9849439 229 18336545993774034853
9981440 41 18333453157554349195

> <PUBCHEM_SHAPE_MULTIPOLES>
544.73
13.66
6.5
1.25
13.08
2.47
-0.16
15.8
-1.3
-7.68
0.18
1.87
-0.31
-0.15

> <PUBCHEM_SHAPE_SELFOVERLAP>
1189.057

> <PUBCHEM_SHAPE_VOLUME>
298.7

> <PUBCHEM_COORDINATE_TYPE>
2
5
10

$$$$
