11941649
  -OEChem-12032416343D

 54 58  0     1  0  0  0  0  0999 V2000
   -0.2434    2.9820   -1.7658 O   0  0  0  0  0  0  0  0  0  0  0  0
    0.9024    2.4256    1.0827 O   0  0  0  0  0  0  0  0  0  0  0  0
   -4.1185    2.0205   -0.0516 O   0  0  0  0  0  0  0  0  0  0  0  0
    4.7530   -0.2091    1.6486 O   0  0  0  0  0  0  0  0  0  0  0  0
    1.9512    0.8148   -2.0212 N   0  0  0  0  0  0  0  0  0  0  0  0
   -2.1289    1.7395    1.1123 N   0  0  0  0  0  0  0  0  0  0  0  0
   -3.9812    0.5089    1.7033 N   0  0  0  0  0  0  0  0  0  0  0  0
    3.4673   -0.2635   -0.5908 N   0  0  0  0  0  0  0  0  0  0  0  0
    2.8415   -1.2472   -2.6999 N   0  0  0  0  0  0  0  0  0  0  0  0
    0.7282    1.6059   -0.0853 C   0  0  1  0  0  0  0  0  0  0  0  0
   -0.5717    2.0285   -0.7416 C   0  0  1  0  0  0  0  0  0  0  0  0
    1.7846    1.9300   -1.1151 C   0  0  2  0  0  0  0  0  0  0  0  0
   -1.3451    2.6979    0.3714 C   0  0  2  0  0  0  0  0  0  0  0  0
    1.1832    3.1158   -1.8470 C   0  0  0  0  0  0  0  0  0  0  0  0
   -0.2381    3.2845    1.2292 C   0  0  0  0  0  0  0  0  0  0  0  0
    2.7780   -0.2641   -1.7629 C   0  0  0  0  0  0  0  0  0  0  0  0
   -3.4695    1.4737    0.8392 C   0  0  0  0  0  0  0  0  0  0  0  0
   -5.3476    0.0468    1.6394 C   0  0  0  0  0  0  0  0  0  0  0  0
    4.2629   -1.3307   -0.3715 C   0  0  0  0  0  0  0  0  0  0  0  0
    3.6566   -2.2843   -2.4159 C   0  0  0  0  0  0  0  0  0  0  0  0
    4.3985   -2.3809   -1.2565 C   0  0  0  0  0  0  0  0  0  0  0  0
   -5.4995   -1.1328    0.7231 C   0  0  0  0  0  0  0  0  0  0  0  0
    4.9795   -1.3016    0.8756 C   0  0  0  0  0  0  0  0  0  0  0  0
   -5.7778   -0.9263   -0.6230 C   0  0  0  0  0  0  0  0  0  0  0  0
   -5.3600   -2.4197    1.2298 C   0  0  0  0  0  0  0  0  0  0  0  0
    5.8697   -2.1525    1.4835 C   0  0  0  0  0  0  0  0  0  0  0  0
   -5.9186   -2.0222   -1.4745 C   0  0  0  0  0  0  0  0  0  0  0  0
   -5.5008   -3.5155    0.3782 C   0  0  0  0  0  0  0  0  0  0  0  0
    6.2150   -1.5435    2.7135 C   0  0  0  0  0  0  0  0  0  0  0  0
   -5.7802   -3.3166   -0.9740 C   0  0  0  0  0  0  0  0  0  0  0  0
    5.5094   -0.3639    2.7669 C   0  0  0  0  0  0  0  0  0  0  0  0
    0.7147    0.5637    0.2493 H   0  0  0  0  0  0  0  0  0  0  0  0
   -1.0985    1.1982   -1.2229 H   0  0  0  0  0  0  0  0  0  0  0  0
    2.7473    2.2256   -0.6823 H   0  0  0  0  0  0  0  0  0  0  0  0
   -2.0106    3.4886    0.0086 H   0  0  0  0  0  0  0  0  0  0  0  0
    1.4808    3.1878   -2.8977 H   0  0  0  0  0  0  0  0  0  0  0  0
    1.4482    4.0561   -1.3510 H   0  0  0  0  0  0  0  0  0  0  0  0
   -0.4965    3.3673    2.2893 H   0  0  0  0  0  0  0  0  0  0  0  0
    0.0540    4.2763    0.8669 H   0  0  0  0  0  0  0  0  0  0  0  0
    1.4027    0.7786   -2.8729 H   0  0  0  0  0  0  0  0  0  0  0  0
   -1.6665    1.1847    1.8264 H   0  0  0  0  0  0  0  0  0  0  0  0
   -3.3634    0.0959    2.3953 H   0  0  0  0  0  0  0  0  0  0  0  0
   -5.6537   -0.2154    2.6586 H   0  0  0  0  0  0  0  0  0  0  0  0
   -5.9974    0.8688    1.3158 H   0  0  0  0  0  0  0  0  0  0  0  0
    3.6979   -3.0614   -3.1716 H   0  0  0  0  0  0  0  0  0  0  0  0
    5.0378   -3.2361   -1.0783 H   0  0  0  0  0  0  0  0  0  0  0  0
   -5.8919    0.0761   -1.0253 H   0  0  0  0  0  0  0  0  0  0  0  0
   -5.1406   -2.5861    2.2808 H   0  0  0  0  0  0  0  0  0  0  0  0
    6.2341   -3.0959    1.1021 H   0  0  0  0  0  0  0  0  0  0  0  0
   -6.1369   -1.8675   -2.5271 H   0  0  0  0  0  0  0  0  0  0  0  0
   -5.3926   -4.5235    0.7676 H   0  0  0  0  0  0  0  0  0  0  0  0
    6.8932   -1.9173    3.4669 H   0  0  0  0  0  0  0  0  0  0  0  0
   -5.8898   -4.1698   -1.6370 H   0  0  0  0  0  0  0  0  0  0  0  0
    5.4394    0.4332    3.4924 H   0  0  0  0  0  0  0  0  0  0  0  0
  1 11  1  0  0  0  0
  1 14  1  0  0  0  0
  2 10  1  0  0  0  0
  2 15  1  0  0  0  0
  3 17  2  0  0  0  0
  4 23  1  0  0  0  0
  4 31  1  0  0  0  0
  5 12  1  0  0  0  0
  5 16  1  0  0  0  0
  5 40  1  0  0  0  0
  6 13  1  0  0  0  0
  6 17  1  0  0  0  0
  6 41  1  0  0  0  0
  7 17  1  0  0  0  0
  7 18  1  0  0  0  0
  7 42  1  0  0  0  0
  8 16  1  0  0  0  0
  8 19  2  0  0  0  0
  9 16  2  0  0  0  0
  9 20  1  0  0  0  0
 10 11  1  0  0  0  0
 10 12  1  0  0  0  0
 10 32  1  0  0  0  0
 11 13  1  0  0  0  0
 11 33  1  0  0  0  0
 12 14  1  0  0  0  0
 12 34  1  0  0  0  0
 13 15  1  0  0  0  0
 13 35  1  0  0  0  0
 14 36  1  0  0  0  0
 14 37  1  0  0  0  0
 15 38  1  0  0  0  0
 15 39  1  0  0  0  0
 18 22  1  0  0  0  0
 18 43  1  0  0  0  0
 18 44  1  0  0  0  0
 19 21  1  0  0  0  0
 19 23  1  0  0  0  0
 20 21  2  0  0  0  0
 20 45  1  0  0  0  0
 21 46  1  0  0  0  0
 22 24  2  0  0  0  0
 22 25  1  0  0  0  0
 23 26  2  0  0  0  0
 24 27  1  0  0  0  0
 24 47  1  0  0  0  0
 25 28  2  0  0  0  0
 25 48  1  0  0  0  0
 26 29  1  0  0  0  0
 26 49  1  0  0  0  0
 27 30  2  0  0  0  0
 27 50  1  0  0  0  0
 28 30  1  0  0  0  0
 28 51  1  0  0  0  0
 29 31  2  0  0  0  0
 29 52  1  0  0  0  0
 30 53  1  0  0  0  0
 31 54  1  0  0  0  0
M  END
> <PUBCHEM_COMPOUND_CID>
11941649

> <PUBCHEM_CONFORMER_RMSD>
1

> <PUBCHEM_CONFORMER_DIVERSEORDER>
1
41
251
38
268
108
184
296
71
114
272
155
263
280
252
260
169
152
262
188
132
218
255
47
281
72
150
250
63
42
264
121
247
205
288
283
44
28
291
248
53
49
82
83
46
168
85
303
96
98
127
265
300
238
271
163
90
122
69
48
149
135
172
124
171
165
233
301
113
254
160
267
257
118
215
107
277
131
246
242
77
259
148
80
94
173
193
187
110
81
269
234
84
235
200
270
253
45
119
134
174
295
62
139
66
146
290
180
299
39
279
239
92
274
170
297
112
199
167
111
198
56
182
256
209
273
67
104
156
61
21
302
86
128
95
102
287
236
153
216
55
145
123
76
241
249
178
64
34
17
289
140
89
78
58
226
275
197
106
35
298
195
185
207
240
143
293
147
191
237
220
181
31
294
159
261
138
27
93
214
65
276
29
116
245
57
100
204
210
217
224
206
177
120
130
213
162
91
74
221
14
243
175
36
51
10
232
284
142
9
201
87
225
304
228
16
52
208
136
115
230
189
23
105
266
286
75
5
133
203
176
292
179
18
97
22
244
141
282
26
54
192
43
229
258
11
103
40
202
37
60
227
50
186
6
212
19
70
278
211
154
24
222
88
196
30
117
151
126
166
161
25
231
219
129
125
4
190
59
33
194
164
285
2
183
3
68
101
13
20
144
158
73
137
32
223
99
12
157
79
7
109
15
8

> <PUBCHEM_MMFF94_PARTIAL_CHARGES>
44
1 -0.56
10 0.28
11 0.28
12 0.37
13 0.3
14 0.28
15 0.28
16 0.72
17 0.69
18 0.44
19 0.36
2 -0.56
20 0.16
21 -0.15
22 -0.14
23 0.09
24 -0.15
25 -0.15
26 -0.15
27 -0.15
28 -0.15
29 -0.15
3 -0.57
30 -0.15
31 -0.01
4 -0.28
40 0.4
41 0.37
42 0.37
45 0.15
46 0.15
47 0.15
48 0.15
49 0.15
5 -0.87
50 0.15
51 0.15
52 0.15
53 0.15
54 0.15
6 -0.73
7 -0.73
8 -0.62
9 -0.62

> <PUBCHEM_EFFECTIVE_ROTOR_COUNT>
9.2

> <PUBCHEM_PHARMACOPHORE_FEATURES>
14
1 1 acceptor
1 2 acceptor
1 3 acceptor
1 4 acceptor
1 5 donor
1 6 donor
1 7 donor
1 8 acceptor
4 5 8 9 16 cation
5 1 10 11 12 14 rings
5 2 10 11 13 15 rings
5 4 23 26 29 31 rings
6 22 24 25 27 28 30 rings
6 8 9 16 19 20 21 rings

> <PUBCHEM_HEAVY_ATOM_COUNT>
31

> <PUBCHEM_ATOM_DEF_STEREO_COUNT>
4

> <PUBCHEM_ATOM_UDEF_STEREO_COUNT>
0

> <PUBCHEM_BOND_DEF_STEREO_COUNT>
0

> <PUBCHEM_BOND_UDEF_STEREO_COUNT>
0

> <PUBCHEM_ISOTOPIC_ATOM_COUNT>
0

> <PUBCHEM_COMPONENT_COUNT>
1

> <PUBCHEM_CACTVS_TAUTO_COUNT>
9

> <PUBCHEM_CONFORMER_ID>
00B6371100000001

> <PUBCHEM_MMFF94_ENERGY>
69.7115

> <PUBCHEM_FEATURE_SELFOVERLAP>
71.818

> <PUBCHEM_SHAPE_FINGERPRINT>
10622 236 18187088355818173377
11135609 149 17023184963164196733
11135609 201 11239713132591804829
11211813 140 18114168714621008131
12120059 20 18265633128863938894
12373685 5 18259697904414319829
12390115 104 10879698901826699721
12422481 6 17274838921719826823
12559416 39 18409724088819613171
14848178 5 18412832369587994245
14950920 106 16915670159419111138
15163728 17 10807932673811466516
15419009 47 16662030445084160247
15721738 15 12468629475170672024
16120349 67 10735868504594800608
16989378 47 18041284360594304443
20156587 161 17750770234352623155
20156587 76 18265870584583481445
21315763 87 17489592259823215163
21458453 9 17560798827381453046
21585480 29 17417801872696122431
21792965 131 17121950978878664457
23572383 38 18130225956841975855
2838139 119 8069742940855278485
312425 54 17631462176456437603
312425 83 13696737894901603738
4258327 124 11743840228056224657
437795 139 18040425620876025103
4394409 98 18114167611315643899
4408954 87 16988269992894336302
44426701 196 15936964271311401710
444735 79 17988350542734887490
4756261 7 17841693408408520560
50009960 94 18194383697168609883
50742298 180 18338237188439685795

> <PUBCHEM_SHAPE_MULTIPOLES>
589.58
17.64
4.6
2.74
8.67
0.99
0.02
-20.93
-7.56
3.18
0.86
-4.11
-0.7
-1.62

> <PUBCHEM_SHAPE_SELFOVERLAP>
1290.19

> <PUBCHEM_SHAPE_VOLUME>
318

> <PUBCHEM_COORDINATE_TYPE>
2
5
10

$$$$
