38028932
  -OEChem-12032416253D

 72 75  0     1  0  0  0  0  0999 V2000
    0.0281    3.6607   -0.2182 O   0  0  0  0  0  0  0  0  0  0  0  0
   -3.5827   -2.5090    1.8256 O   0  0  0  0  0  0  0  0  0  0  0  0
    1.5509    1.9224   -0.4615 N   0  0  0  0  0  0  0  0  0  0  0  0
   -3.8730   -1.5102   -0.2490 N   0  0  0  0  0  0  0  0  0  0  0  0
    4.1746    0.7691   -0.0535 N   0  0  0  0  0  0  0  0  0  0  0  0
    6.1020   -0.3212   -0.8742 N   0  0  0  0  0  0  0  0  0  0  0  0
   -0.0668   -4.7756   -0.9073 N   0  0  0  0  0  0  0  0  0  0  0  0
   -3.3832    1.2455    0.8509 C   0  0  1  0  0  0  0  0  0  0  0  0
   -4.5378    0.8314   -0.0953 C   0  0  1  0  0  0  0  0  0  0  0  0
   -2.7143    2.5341    0.3485 C   0  0  0  0  0  0  0  0  0  0  0  0
   -2.1470    2.3792   -1.0752 C   0  0  2  0  0  0  0  0  0  0  0  0
   -3.8696    1.4408    2.2903 C   0  0  0  0  0  0  0  0  0  0  0  0
   -3.1438    1.7252   -2.0104 C   0  0  0  0  0  0  0  0  0  0  0  0
   -4.2133    1.0492   -1.5546 C   0  0  0  0  0  0  0  0  0  0  0  0
   -0.8215    1.6097   -1.0609 C   0  0  0  0  0  0  0  0  0  0  0  0
   -4.9366   -0.6321    0.1262 C   0  0  0  0  0  0  0  0  0  0  0  0
   -4.4991    2.8202    2.4565 C   0  0  0  0  0  0  0  0  0  0  0  0
   -2.7176    1.2499    3.2718 C   0  0  0  0  0  0  0  0  0  0  0  0
   -2.9080    1.9049   -3.4844 C   0  0  0  0  0  0  0  0  0  0  0  0
    0.2820    2.4976   -0.5399 C   0  0  0  0  0  0  0  0  0  0  0  0
    1.8485    0.5375   -0.8340 C   0  0  0  0  0  0  0  0  0  0  0  0
    2.6731    2.7187    0.0282 C   0  0  0  0  0  0  0  0  0  0  0  0
    3.3259    0.3163   -1.1586 C   0  0  0  0  0  0  0  0  0  0  0  0
    3.6894    1.8677    0.7866 C   0  0  0  0  0  0  0  0  0  0  0  0
   -3.2688   -2.3948    0.6438 C   0  0  0  0  0  0  0  0  0  0  0  0
    5.4246    0.1985    0.1740 C   0  0  0  0  0  0  0  0  0  0  0  0
   -2.1588   -3.2218    0.1044 C   0  0  0  0  0  0  0  0  0  0  0  0
    5.8955    0.2019    1.4770 C   0  0  0  0  0  0  0  0  0  0  0  0
   -1.8721   -4.4595    0.6696 C   0  0  0  0  0  0  0  0  0  0  0  0
   -1.4007   -2.7601   -0.9660 C   0  0  0  0  0  0  0  0  0  0  0  0
    7.1419   -0.3646    1.7201 C   0  0  0  0  0  0  0  0  0  0  0  0
    7.3097   -0.8632   -0.5994 C   0  0  0  0  0  0  0  0  0  0  0  0
    7.8688   -0.9095    0.6675 C   0  0  0  0  0  0  0  0  0  0  0  0
   -0.8254   -5.1911    0.1319 C   0  0  0  0  0  0  0  0  0  0  0  0
   -0.3752   -3.5678   -1.4305 C   0  0  0  0  0  0  0  0  0  0  0  0
   -2.6276    0.4515    0.8520 H   0  0  0  0  0  0  0  0  0  0  0  0
   -5.4227    1.4451    0.1155 H   0  0  0  0  0  0  0  0  0  0  0  0
   -1.9353    2.8639    1.0421 H   0  0  0  0  0  0  0  0  0  0  0  0
   -3.4454    3.3507    0.2875 H   0  0  0  0  0  0  0  0  0  0  0  0
   -1.9814    3.3948   -1.4619 H   0  0  0  0  0  0  0  0  0  0  0  0
   -4.6260    0.6907    2.5428 H   0  0  0  0  0  0  0  0  0  0  0  0
   -4.9215    0.6402   -2.2726 H   0  0  0  0  0  0  0  0  0  0  0  0
   -0.5470    1.3230   -2.0813 H   0  0  0  0  0  0  0  0  0  0  0  0
   -0.8802    0.6997   -0.4566 H   0  0  0  0  0  0  0  0  0  0  0  0
   -5.2470   -0.8192    1.1577 H   0  0  0  0  0  0  0  0  0  0  0  0
   -5.7936   -0.8897   -0.5080 H   0  0  0  0  0  0  0  0  0  0  0  0
   -5.2628    3.0302    1.7019 H   0  0  0  0  0  0  0  0  0  0  0  0
   -5.0039    2.8699    3.4294 H   0  0  0  0  0  0  0  0  0  0  0  0
   -3.7635    3.6314    2.4624 H   0  0  0  0  0  0  0  0  0  0  0  0
   -1.9188    1.9833    3.1247 H   0  0  0  0  0  0  0  0  0  0  0  0
   -2.2820    0.2497    3.1743 H   0  0  0  0  0  0  0  0  0  0  0  0
   -3.0731    1.3537    4.3030 H   0  0  0  0  0  0  0  0  0  0  0  0
   -2.8229    2.9686   -3.7292 H   0  0  0  0  0  0  0  0  0  0  0  0
   -3.7287    1.4967   -4.0840 H   0  0  0  0  0  0  0  0  0  0  0  0
   -1.9908    1.3998   -3.8003 H   0  0  0  0  0  0  0  0  0  0  0  0
   -3.6192   -1.5373   -1.2311 H   0  0  0  0  0  0  0  0  0  0  0  0
    1.2439    0.2321   -1.6916 H   0  0  0  0  0  0  0  0  0  0  0  0
    1.5508   -0.0865    0.0177 H   0  0  0  0  0  0  0  0  0  0  0  0
    2.3087    3.5287    0.6691 H   0  0  0  0  0  0  0  0  0  0  0  0
    3.1401    3.1817   -0.8498 H   0  0  0  0  0  0  0  0  0  0  0  0
    3.4799   -0.7519   -1.3540 H   0  0  0  0  0  0  0  0  0  0  0  0
    3.5998    0.8651   -2.0678 H   0  0  0  0  0  0  0  0  0  0  0  0
    4.5135    2.5249    1.0905 H   0  0  0  0  0  0  0  0  0  0  0  0
    3.2226    1.4570    1.6904 H   0  0  0  0  0  0  0  0  0  0  0  0
    5.3370    0.6033    2.3154 H   0  0  0  0  0  0  0  0  0  0  0  0
   -2.4415   -4.8571    1.5028 H   0  0  0  0  0  0  0  0  0  0  0  0
   -1.5575   -1.7931   -1.4303 H   0  0  0  0  0  0  0  0  0  0  0  0
    7.5443   -0.3858    2.7284 H   0  0  0  0  0  0  0  0  0  0  0  0
    7.8361   -1.2747   -1.4543 H   0  0  0  0  0  0  0  0  0  0  0  0
    8.8418   -1.3573    0.8337 H   0  0  0  0  0  0  0  0  0  0  0  0
   -0.5618   -6.1630    0.5360 H   0  0  0  0  0  0  0  0  0  0  0  0
    0.2506   -3.2500   -2.2581 H   0  0  0  0  0  0  0  0  0  0  0  0
  1 20  2  0  0  0  0
  2 25  2  0  0  0  0
  3 20  1  0  0  0  0
  3 21  1  0  0  0  0
  3 22  1  0  0  0  0
  4 16  1  0  0  0  0
  4 25  1  0  0  0  0
  4 56  1  0  0  0  0
  5 23  1  0  0  0  0
  5 24  1  0  0  0  0
  5 26  1  0  0  0  0
  6 26  1  0  0  0  0
  6 32  2  0  0  0  0
  7 34  2  0  0  0  0
  7 35  1  0  0  0  0
  8  9  1  0  0  0  0
  8 10  1  0  0  0  0
  8 12  1  0  0  0  0
  8 36  1  0  0  0  0
  9 14  1  0  0  0  0
  9 16  1  0  0  0  0
  9 37  1  0  0  0  0
 10 11  1  0  0  0  0
 10 38  1  0  0  0  0
 10 39  1  0  0  0  0
 11 13  1  0  0  0  0
 11 15  1  0  0  0  0
 11 40  1  0  0  0  0
 12 17  1  0  0  0  0
 12 18  1  0  0  0  0
 12 41  1  0  0  0  0
 13 14  2  0  0  0  0
 13 19  1  0  0  0  0
 14 42  1  0  0  0  0
 15 20  1  0  0  0  0
 15 43  1  0  0  0  0
 15 44  1  0  0  0  0
 16 45  1  0  0  0  0
 16 46  1  0  0  0  0
 17 47  1  0  0  0  0
 17 48  1  0  0  0  0
 17 49  1  0  0  0  0
 18 50  1  0  0  0  0
 18 51  1  0  0  0  0
 18 52  1  0  0  0  0
 19 53  1  0  0  0  0
 19 54  1  0  0  0  0
 19 55  1  0  0  0  0
 21 23  1  0  0  0  0
 21 57  1  0  0  0  0
 21 58  1  0  0  0  0
 22 24  1  0  0  0  0
 22 59  1  0  0  0  0
 22 60  1  0  0  0  0
 23 61  1  0  0  0  0
 23 62  1  0  0  0  0
 24 63  1  0  0  0  0
 24 64  1  0  0  0  0
 25 27  1  0  0  0  0
 26 28  2  0  0  0  0
 27 29  2  0  0  0  0
 27 30  1  0  0  0  0
 28 31  1  0  0  0  0
 28 65  1  0  0  0  0
 29 34  1  0  0  0  0
 29 66  1  0  0  0  0
 30 35  2  0  0  0  0
 30 67  1  0  0  0  0
 31 33  2  0  0  0  0
 31 68  1  0  0  0  0
 32 33  1  0  0  0  0
 32 69  1  0  0  0  0
 33 70  1  0  0  0  0
 34 71  1  0  0  0  0
 35 72  1  0  0  0  0
M  END
> <PUBCHEM_COMPOUND_CID>
38028932

> <PUBCHEM_CONFORMER_RMSD>
1.2

> <PUBCHEM_CONFORMER_DIVERSEORDER>
1
39
67
77
111
101
10
60
94
118
81
7
110
88
85
18
14
112
16
58
53
90
47
20
63
28
30
108
43
19
92
107
40
100
55
31
8
117
22
65
83
73
66
115
76
5
44
91
15
11
42
98
32
68
21
62
75
97
17
12
56
23
33
50
45
113
82
72
24
106
52
54
89
26
4
34
95
78
59
109
27
64
102
116
35
105
84
61
41
71
79
99
80
57
46
96
3
37
9
114
49
13
86
87
103
74
104
6
70
93
29
69
25
38
48
2
36
51

> <PUBCHEM_MMFF94_PARTIAL_CHARGES>
40
1 -0.57
11 0.14
13 -0.28
14 -0.29
15 0.06
16 0.3
19 0.14
2 -0.57
20 0.57
21 0.3
22 0.3
23 0.37
24 0.37
25 0.54
26 0.41
27 0.09
28 -0.15
29 -0.15
3 -0.66
30 -0.15
31 -0.15
32 0.16
33 -0.15
34 0.16
35 0.16
4 -0.73
42 0.15
5 -0.84
56 0.37
6 -0.62
65 0.15
66 0.15
67 0.15
68 0.15
69 0.15
7 -0.62
70 0.15
71 0.15
72 0.15
9 0.14

> <PUBCHEM_EFFECTIVE_ROTOR_COUNT>
11

> <PUBCHEM_PHARMACOPHORE_FEATURES>
11
1 1 acceptor
1 2 acceptor
1 4 donor
1 5 cation
1 6 acceptor
1 7 acceptor
3 12 17 18 hydrophobe
6 3 5 21 22 23 24 rings
6 6 26 28 31 32 33 rings
6 7 27 29 30 34 35 rings
6 8 9 10 11 13 14 rings

> <PUBCHEM_HEAVY_ATOM_COUNT>
35

> <PUBCHEM_ATOM_DEF_STEREO_COUNT>
3

> <PUBCHEM_ATOM_UDEF_STEREO_COUNT>
0

> <PUBCHEM_BOND_DEF_STEREO_COUNT>
0

> <PUBCHEM_BOND_UDEF_STEREO_COUNT>
0

> <PUBCHEM_ISOTOPIC_ATOM_COUNT>
0

> <PUBCHEM_COMPONENT_COUNT>
1

> <PUBCHEM_CACTVS_TAUTO_COUNT>
2

> <PUBCHEM_CONFORMER_ID>
0244468400000001

> <PUBCHEM_MMFF94_ENERGY>
100.3382

> <PUBCHEM_FEATURE_SELFOVERLAP>
55.822

> <PUBCHEM_SHAPE_FINGERPRINT>
10305334 12 17987528022238419297
11524674 6 18343013389666492671
11763389 116 18339638950285870622
12522641 33 17897990358425606381
12655364 131 17912639112095346506
13383668 90 16589427476325982070
13947930 73 18263092170018491003
14725015 67 18339357591415084431
14950920 106 18201443613917056368
15320294 125 18040707053119678686
15326923 133 17985555451186803542
15444296 8 16154003391415623709
16112460 7 18199753540180659426
17627616 140 18117824530311026791
19311894 1 18337387235964842538
20764821 26 18338246942182931223
20771845 38 18335692789846529779
20775530 9 17404596953068995663
229767 44 18411986887837814890
238918 7 18272942625962093670
3383291 50 18340479058346355223
484985 159 18334289894708558175
5080951 261 18335406998517091024
5085150 59 18263064561926202287
6376802 137 17488733635862714287

> <PUBCHEM_SHAPE_MULTIPOLES>
683.64
15.62
5.88
2.42
38.43
8.99
-0.39
-1.35
-5.12
-5.69
0.28
-3.13
-1.61
0.11

> <PUBCHEM_SHAPE_SELFOVERLAP>
1441.255

> <PUBCHEM_SHAPE_VOLUME>
378.6

> <PUBCHEM_COORDINATE_TYPE>
2
5
10

$$$$
