51136883
  -OEChem-12032416213D

 58 61  0     1  0  0  0  0  0999 V2000
   -4.3402   -1.1250   -1.6010 O   0  0  0  0  0  0  0  0  0  0  0  0
    3.9225   -1.8634   -1.1064 O   0  0  0  0  0  0  0  0  0  0  0  0
    9.2921    0.7599    0.8969 O   0  0  0  0  0  0  0  0  0  0  0  0
   -6.1851    0.8235    0.6681 N   0  0  1  0  0  0  0  0  0  0  0  0
   -3.2893    0.5282   -0.5150 N   0  0  0  0  0  0  0  0  0  0  0  0
   -2.9765   -1.4430   -1.6333 N   0  0  0  0  0  0  0  0  0  0  0  0
    0.8539    0.9119    0.1719 N   0  0  0  0  0  0  0  0  0  0  0  0
    3.0462    0.0612   -0.0807 N   0  0  0  0  0  0  0  0  0  0  0  0
   -5.8307    0.6151   -0.7500 C   0  0  1  0  0  0  0  0  0  0  0  0
   -5.9963    2.0003   -1.4022 C   0  0  0  0  0  0  0  0  0  0  0  0
   -7.1289    1.9409    0.6985 C   0  0  0  0  0  0  0  0  0  0  0  0
   -6.5043    2.9057   -0.2891 C   0  0  0  0  0  0  0  0  0  0  0  0
   -6.7271   -0.3695    1.3060 C   0  0  0  0  0  0  0  0  0  0  0  0
   -5.6262   -1.3313    1.7849 C   0  0  0  0  0  0  0  0  0  0  0  0
   -4.4368    0.0496   -0.9248 C   0  0  0  0  0  0  0  0  0  0  0  0
   -6.1932   -2.6119    2.4031 C   0  0  0  0  0  0  0  0  0  0  0  0
   -4.7280   -0.6227    2.8024 C   0  0  0  0  0  0  0  0  0  0  0  0
   -2.4231   -0.4215   -0.9729 C   0  0  0  0  0  0  0  0  0  0  0  0
   -1.0091   -0.3191   -0.7549 C   0  0  0  0  0  0  0  0  0  0  0  0
   -0.1385   -1.2950   -1.2277 C   0  0  0  0  0  0  0  0  0  0  0  0
   -0.4675    0.7549   -0.0673 C   0  0  0  0  0  0  0  0  0  0  0  0
    1.2277   -1.1686   -1.0013 C   0  0  0  0  0  0  0  0  0  0  0  0
    1.6691   -0.0565   -0.3026 C   0  0  0  0  0  0  0  0  0  0  0  0
    4.0581   -0.8173   -0.4807 C   0  0  0  0  0  0  0  0  0  0  0  0
    5.4384   -0.4012   -0.1186 C   0  0  0  0  0  0  0  0  0  0  0  0
    6.4314   -1.3635    0.0649 C   0  0  0  0  0  0  0  0  0  0  0  0
    5.7404    0.9514    0.0391 C   0  0  0  0  0  0  0  0  0  0  0  0
    7.7263   -0.9733    0.4062 C   0  0  0  0  0  0  0  0  0  0  0  0
    7.0353    1.3417    0.3804 C   0  0  0  0  0  0  0  0  0  0  0  0
    8.0282    0.3794    0.5640 C   0  0  0  0  0  0  0  0  0  0  0  0
    9.5313    2.1590    1.0422 C   0  0  0  0  0  0  0  0  0  0  0  0
   -6.5477   -0.0614   -1.2361 H   0  0  0  0  0  0  0  0  0  0  0  0
   -6.7480    1.9442   -2.1991 H   0  0  0  0  0  0  0  0  0  0  0  0
   -5.0751    2.4001   -1.8394 H   0  0  0  0  0  0  0  0  0  0  0  0
   -8.1274    1.6399    0.3566 H   0  0  0  0  0  0  0  0  0  0  0  0
   -7.2117    2.3843    1.6956 H   0  0  0  0  0  0  0  0  0  0  0  0
   -7.2160    3.6516   -0.6548 H   0  0  0  0  0  0  0  0  0  0  0  0
   -5.6623    3.4354    0.1737 H   0  0  0  0  0  0  0  0  0  0  0  0
   -7.4329   -0.8928    0.6478 H   0  0  0  0  0  0  0  0  0  0  0  0
   -7.3093   -0.0761    2.1911 H   0  0  0  0  0  0  0  0  0  0  0  0
   -5.0087   -1.6528    0.9424 H   0  0  0  0  0  0  0  0  0  0  0  0
   -6.8161   -3.1459    1.6779 H   0  0  0  0  0  0  0  0  0  0  0  0
   -5.3884   -3.2857    2.7153 H   0  0  0  0  0  0  0  0  0  0  0  0
   -6.8101   -2.3889    3.2801 H   0  0  0  0  0  0  0  0  0  0  0  0
   -4.2135    0.2378    2.3634 H   0  0  0  0  0  0  0  0  0  0  0  0
   -3.9540   -1.3045    3.1720 H   0  0  0  0  0  0  0  0  0  0  0  0
   -5.3031   -0.2719    3.6663 H   0  0  0  0  0  0  0  0  0  0  0  0
   -0.4923   -2.1649   -1.7752 H   0  0  0  0  0  0  0  0  0  0  0  0
   -1.0824    1.5561    0.3322 H   0  0  0  0  0  0  0  0  0  0  0  0
    1.8367   -1.9639   -1.3978 H   0  0  0  0  0  0  0  0  0  0  0  0
    3.2897    0.8802    0.4682 H   0  0  0  0  0  0  0  0  0  0  0  0
    6.2152   -2.4226   -0.0480 H   0  0  0  0  0  0  0  0  0  0  0  0
    5.0086    1.7357   -0.1294 H   0  0  0  0  0  0  0  0  0  0  0  0
    8.4955   -1.7274    0.5490 H   0  0  0  0  0  0  0  0  0  0  0  0
    7.2035    2.4087    0.4793 H   0  0  0  0  0  0  0  0  0  0  0  0
    9.3776    2.6936    0.0987 H   0  0  0  0  0  0  0  0  0  0  0  0
    8.9425    2.5852    1.8616 H   0  0  0  0  0  0  0  0  0  0  0  0
   10.5861    2.2804    1.3100 H   0  0  0  0  0  0  0  0  0  0  0  0
  1  6  1  0  0  0  0
  1 15  1  0  0  0  0
  2 24  2  0  0  0  0
  3 30  1  0  0  0  0
  3 31  1  0  0  0  0
  4  9  1  0  0  0  0
  4 11  1  0  0  0  0
  4 13  1  0  0  0  0
  5 15  2  0  0  0  0
  5 18  1  0  0  0  0
  6 18  2  0  0  0  0
  7 21  1  0  0  0  0
  7 23  2  0  0  0  0
  8 23  1  0  0  0  0
  8 24  1  0  0  0  0
  8 51  1  0  0  0  0
  9 10  1  0  0  0  0
  9 15  1  0  0  0  0
  9 32  1  0  0  0  0
 10 12  1  0  0  0  0
 10 33  1  0  0  0  0
 10 34  1  0  0  0  0
 11 12  1  0  0  0  0
 11 35  1  0  0  0  0
 11 36  1  0  0  0  0
 12 37  1  0  0  0  0
 12 38  1  0  0  0  0
 13 14  1  0  0  0  0
 13 39  1  0  0  0  0
 13 40  1  0  0  0  0
 14 16  1  0  0  0  0
 14 17  1  0  0  0  0
 14 41  1  0  0  0  0
 16 42  1  0  0  0  0
 16 43  1  0  0  0  0
 16 44  1  0  0  0  0
 17 45  1  0  0  0  0
 17 46  1  0  0  0  0
 17 47  1  0  0  0  0
 18 19  1  0  0  0  0
 19 20  1  0  0  0  0
 19 21  2  0  0  0  0
 20 22  2  0  0  0  0
 20 48  1  0  0  0  0
 21 49  1  0  0  0  0
 22 23  1  0  0  0  0
 22 50  1  0  0  0  0
 24 25  1  0  0  0  0
 25 26  2  0  0  0  0
 25 27  1  0  0  0  0
 26 28  1  0  0  0  0
 26 52  1  0  0  0  0
 27 29  2  0  0  0  0
 27 53  1  0  0  0  0
 28 30  2  0  0  0  0
 28 54  1  0  0  0  0
 29 30  1  0  0  0  0
 29 55  1  0  0  0  0
 31 56  1  0  0  0  0
 31 57  1  0  0  0  0
 31 58  1  0  0  0  0
M  END
> <PUBCHEM_COMPOUND_CID>
51136883

> <PUBCHEM_CONFORMER_RMSD>
1

> <PUBCHEM_CONFORMER_DIVERSEORDER>
2
9
6
13
10
4
16
14
1
7
8
15
12
11
3
5

> <PUBCHEM_MMFF94_PARTIAL_CHARGES>
34
1 -0.02
11 0.27
13 0.27
15 0.3
18 0.46
19 0.05
2 -0.57
20 -0.15
21 0.16
22 -0.15
23 0.43
24 0.54
25 0.09
26 -0.15
27 -0.15
28 -0.15
29 -0.15
3 -0.36
30 0.08
31 0.28
4 -0.81
48 0.15
49 0.15
5 -0.57
50 0.15
51 0.37
52 0.15
53 0.15
54 0.15
55 0.15
6 -0.41
7 -0.62
8 -0.55
9 0.45

> <PUBCHEM_EFFECTIVE_ROTOR_COUNT>
9

> <PUBCHEM_PHARMACOPHORE_FEATURES>
10
1 2 acceptor
1 3 acceptor
1 4 cation
1 8 donor
3 14 16 17 hydrophobe
3 5 6 18 cation
5 1 5 6 15 18 rings
5 4 9 10 11 12 rings
6 25 26 27 28 29 30 rings
6 7 19 20 21 22 23 rings

> <PUBCHEM_HEAVY_ATOM_COUNT>
31

> <PUBCHEM_ATOM_DEF_STEREO_COUNT>
1

> <PUBCHEM_ATOM_UDEF_STEREO_COUNT>
0

> <PUBCHEM_BOND_DEF_STEREO_COUNT>
0

> <PUBCHEM_BOND_UDEF_STEREO_COUNT>
0

> <PUBCHEM_ISOTOPIC_ATOM_COUNT>
0

> <PUBCHEM_COMPONENT_COUNT>
1

> <PUBCHEM_CACTVS_TAUTO_COUNT>
14

> <PUBCHEM_CONFORMER_ID>
030C497300000002

> <PUBCHEM_MMFF94_ENERGY>
81.6254

> <PUBCHEM_FEATURE_SELFOVERLAP>
50.746

> <PUBCHEM_SHAPE_FINGERPRINT>
10 15 18412826876060915925
10100884 174 17387984324669788523
10454371 7 13038915408283963427
11007060 377 18200586012354034447
11181472 205 14979693074244487634
11315181 36 16702299070677607559
11386260 185 12607109752290976490
11456790 92 18410284814733070128
12089408 11 18201711878523046414
12498461 61 15140949678968345216
12522641 68 13625458674315702943
12539765 74 17918277559064621086
13782708 43 14418132941357621934
14344974 204 17751092503282119307
15183329 4 16630524020699263178
15352257 5 17022904536286093818
15461852 350 15554436423344338597
1577012 14 18130779071615870422
17093844 174 18334011684218001269
1754908 1 17240760697131111184
1818759 1 13190340128919212016
195137 175 17132115758161329440
19841028 212 17677044622152929826
21095123 145 18041285464839099958
23523787 8 16736037624576152127
23576562 1 14476090424082753376
24204213 200 17917711254563575646
24771293 8 18341324574662040788
3711267 37 17988648532183228792
397830 11 18041002907092559844
4073 2 18411417328373083590
4169191 19 17203610371774811541
4339292 15 16950840431510612283
4340502 62 17676488320276066754
4403749 210 18408884040866428287
4616759 239 18187083936597929225
504843 32 17274814783782545631
5080951 261 17458617948254665727
563151 97 14045472103055408183
5758199 1 17704072911096143974
5937810 71 16630529578761425968
6009941 240 18186803548274070577
6328613 192 17989202633738479165
6691757 9 16630246991473003967
68570916 9 17458638872675306142
9953998 17 17749111076380795001

> <PUBCHEM_SHAPE_MULTIPOLES>
595.45
30.12
2.24
1.77
44.61
0.36
0.54
9.62
14.16
-3.6
0.68
-2.89
-0.85
3.65

> <PUBCHEM_SHAPE_SELFOVERLAP>
1276.77

> <PUBCHEM_SHAPE_VOLUME>
330.6

> <PUBCHEM_COORDINATE_TYPE>
2
5
10

$$$$
