7144226
  -OEChem-12032416113D

 53 56  0     1  0  0  0  0  0999 V2000
    6.1223   -1.0953   -0.3697 S   0  0  0  0  0  0  0  0  0  0  0  0
   -2.7913    2.9081    2.2306 O   0  0  0  0  0  0  0  0  0  0  0  0
   -3.8333   -1.1477   -0.9646 O   0  0  0  0  0  0  0  0  0  0  0  0
   -2.6862   -5.2897    1.4089 O   0  0  0  0  0  0  0  0  0  0  0  0
   -0.6743   -4.3988    0.8405 O   0  0  0  0  0  0  0  0  0  0  0  0
   -1.9015   -0.0688   -1.6724 N   0  0  0  0  0  0  0  0  0  0  0  0
   -1.3837    2.2013    0.4970 N   0  0  0  0  0  0  0  0  0  0  0  0
   -2.0822    2.3984   -1.9618 C   0  0  1  0  0  0  0  0  0  0  0  0
    0.0868    1.4001   -1.3784 C   0  0  2  0  0  0  0  0  0  0  0  0
   -0.5874    2.4742   -2.2302 C   0  0  0  0  0  0  0  0  0  0  0  0
   -2.6340    1.0119   -2.3322 C   0  0  0  0  0  0  0  0  0  0  0  0
   -2.3295    2.7378   -0.4914 C   0  0  0  0  0  0  0  0  0  0  0  0
   -0.4399    0.0103   -1.7934 C   0  0  0  0  0  0  0  0  0  0  0  0
   -0.1522    1.6321    0.1162 C   0  0  0  0  0  0  0  0  0  0  0  0
    0.7562    1.2878    1.0659 C   0  0  0  0  0  0  0  0  0  0  0  0
   -1.7371    2.4037    1.8431 C   0  0  0  0  0  0  0  0  0  0  0  0
   -2.6036   -1.1031   -1.0541 C   0  0  0  0  0  0  0  0  0  0  0  0
    0.4251    1.4786    2.4653 C   0  0  0  0  0  0  0  0  0  0  0  0
   -0.7430    1.9864    2.8576 C   0  0  0  0  0  0  0  0  0  0  0  0
    2.0694    0.7047    0.7136 C   0  0  0  0  0  0  0  0  0  0  0  0
   -1.7805   -2.2176   -0.4593 C   0  0  0  0  0  0  0  0  0  0  0  0
   -2.6927   -3.2522    0.1685 C   0  0  0  0  0  0  0  0  0  0  0  0
    2.2005   -0.6746    0.5861 C   0  0  0  0  0  0  0  0  0  0  0  0
    3.1646    1.5394    0.5135 C   0  0  0  0  0  0  0  0  0  0  0  0
    3.4389   -1.2248    0.2554 C   0  0  0  0  0  0  0  0  0  0  0  0
    4.4032    0.9893    0.1826 C   0  0  0  0  0  0  0  0  0  0  0  0
   -1.8975   -4.3480    0.8344 C   0  0  0  0  0  0  0  0  0  0  0  0
    4.5403   -0.3928    0.0535 C   0  0  0  0  0  0  0  0  0  0  0  0
    5.7426   -1.9505   -1.9251 C   0  0  0  0  0  0  0  0  0  0  0  0
   -2.6052    3.1383   -2.5801 H   0  0  0  0  0  0  0  0  0  0  0  0
    1.1572    1.4421   -1.6089 H   0  0  0  0  0  0  0  0  0  0  0  0
   -0.1974    3.4693   -1.9819 H   0  0  0  0  0  0  0  0  0  0  0  0
   -0.3810    2.3051   -3.2941 H   0  0  0  0  0  0  0  0  0  0  0  0
   -3.7027    0.9553   -2.0999 H   0  0  0  0  0  0  0  0  0  0  0  0
   -2.5328    0.8477   -3.4122 H   0  0  0  0  0  0  0  0  0  0  0  0
   -2.2875    3.8297   -0.3744 H   0  0  0  0  0  0  0  0  0  0  0  0
   -3.3460    2.4452   -0.1988 H   0  0  0  0  0  0  0  0  0  0  0  0
   -0.2037   -0.1756   -2.8489 H   0  0  0  0  0  0  0  0  0  0  0  0
    0.0540   -0.7768   -1.2257 H   0  0  0  0  0  0  0  0  0  0  0  0
    1.1565    1.1825    3.2116 H   0  0  0  0  0  0  0  0  0  0  0  0
   -0.9841    2.1202    3.9053 H   0  0  0  0  0  0  0  0  0  0  0  0
   -1.1196   -1.7976    0.3071 H   0  0  0  0  0  0  0  0  0  0  0  0
   -1.1702   -2.6778   -1.2443 H   0  0  0  0  0  0  0  0  0  0  0  0
   -3.3283   -2.7923    0.9344 H   0  0  0  0  0  0  0  0  0  0  0  0
   -3.3325   -3.7119   -0.5936 H   0  0  0  0  0  0  0  0  0  0  0  0
    1.3558   -1.3377    0.7528 H   0  0  0  0  0  0  0  0  0  0  0  0
    3.0721    2.6183    0.6102 H   0  0  0  0  0  0  0  0  0  0  0  0
    3.5239   -2.3051    0.1694 H   0  0  0  0  0  0  0  0  0  0  0  0
    5.2499    1.6538    0.0286 H   0  0  0  0  0  0  0  0  0  0  0  0
   -2.1589   -6.0022    1.8292 H   0  0  0  0  0  0  0  0  0  0  0  0
    5.3058   -1.2534   -2.6454 H   0  0  0  0  0  0  0  0  0  0  0  0
    5.0495   -2.7779   -1.7532 H   0  0  0  0  0  0  0  0  0  0  0  0
    6.6670   -2.3546   -2.3460 H   0  0  0  0  0  0  0  0  0  0  0  0
  1 28  1  0  0  0  0
  1 29  1  0  0  0  0
  2 16  2  0  0  0  0
  3 17  2  0  0  0  0
  4 27  1  0  0  0  0
  4 50  1  0  0  0  0
  5 27  2  0  0  0  0
  6 11  1  0  0  0  0
  6 13  1  0  0  0  0
  6 17  1  0  0  0  0
  7 12  1  0  0  0  0
  7 14  1  0  0  0  0
  7 16  1  0  0  0  0
  8 10  1  0  0  0  0
  8 11  1  0  0  0  0
  8 12  1  0  0  0  0
  8 30  1  0  0  0  0
  9 10  1  0  0  0  0
  9 13  1  0  0  0  0
  9 14  1  0  0  0  0
  9 31  1  0  0  0  0
 10 32  1  0  0  0  0
 10 33  1  0  0  0  0
 11 34  1  0  0  0  0
 11 35  1  0  0  0  0
 12 36  1  0  0  0  0
 12 37  1  0  0  0  0
 13 38  1  0  0  0  0
 13 39  1  0  0  0  0
 14 15  2  0  0  0  0
 15 18  1  0  0  0  0
 15 20  1  0  0  0  0
 16 19  1  0  0  0  0
 17 21  1  0  0  0  0
 18 19  2  0  0  0  0
 18 40  1  0  0  0  0
 19 41  1  0  0  0  0
 20 23  2  0  0  0  0
 20 24  1  0  0  0  0
 21 22  1  0  0  0  0
 21 42  1  0  0  0  0
 21 43  1  0  0  0  0
 22 27  1  0  0  0  0
 22 44  1  0  0  0  0
 22 45  1  0  0  0  0
 23 25  1  0  0  0  0
 23 46  1  0  0  0  0
 24 26  2  0  0  0  0
 24 47  1  0  0  0  0
 25 28  2  0  0  0  0
 25 48  1  0  0  0  0
 26 28  1  0  0  0  0
 26 49  1  0  0  0  0
 29 51  1  0  0  0  0
 29 52  1  0  0  0  0
 29 53  1  0  0  0  0
M  END
> <PUBCHEM_COMPOUND_CID>
7144226

> <PUBCHEM_CONFORMER_RMSD>
0.8

> <PUBCHEM_CONFORMER_DIVERSEORDER>
1
20
4
23
16
2
19
3
12
13
17
8
18
21
22
14
15
6
11
24
10
9
5
7

> <PUBCHEM_MMFF94_PARTIAL_CHARGES>
34
1 -0.33
11 0.3
12 0.3
13 0.3
14 -0.03
15 -0.03
16 0.62
17 0.57
18 -0.15
19 -0.14
2 -0.57
20 0.03
21 0.06
22 0.06
23 -0.15
24 -0.15
25 -0.15
26 -0.15
27 0.66
28 0.1
29 0.23
3 -0.57
4 -0.65
40 0.15
41 0.15
46 0.15
47 0.15
48 0.15
49 0.15
5 -0.57
50 0.5
6 -0.66
7 -0.47
9 0.14

> <PUBCHEM_EFFECTIVE_ROTOR_COUNT>
7

> <PUBCHEM_PHARMACOPHORE_FEATURES>
10
1 2 acceptor
1 29 hydrophobe
1 3 acceptor
1 4 acceptor
1 5 acceptor
3 4 5 27 anion
6 20 23 24 25 26 28 rings
6 6 8 9 10 11 13 rings
6 7 14 15 16 18 19 rings
6 7 8 9 10 12 14 rings

> <PUBCHEM_HEAVY_ATOM_COUNT>
29

> <PUBCHEM_ATOM_DEF_STEREO_COUNT>
2

> <PUBCHEM_ATOM_UDEF_STEREO_COUNT>
0

> <PUBCHEM_BOND_DEF_STEREO_COUNT>
0

> <PUBCHEM_BOND_UDEF_STEREO_COUNT>
0

> <PUBCHEM_ISOTOPIC_ATOM_COUNT>
0

> <PUBCHEM_COMPONENT_COUNT>
1

> <PUBCHEM_CACTVS_TAUTO_COUNT>
1

> <PUBCHEM_CONFORMER_ID>
006D032200000001

> <PUBCHEM_MMFF94_ENERGY>
76.2718

> <PUBCHEM_FEATURE_SELFOVERLAP>
52.369

> <PUBCHEM_SHAPE_FINGERPRINT>
107951 10 18267297625679380046
12156800 1 17623059807085912527
12788726 201 18059848433308027683
13135754 10 17772784690780952170
14251740 79 18341888546305851454
150020 26 17691695901253657243
15219462 58 17987521588325019872
17492 54 11097850848188788699
17909252 39 17683528703465570100
17974551 9 17701262671002338603
1979834 28 16389578498989442131
20775530 9 17975408328350180826
22907989 373 14273460283759835788
23428019 142 18338795590459992678
23466295 7 18336271214466949818
3737641 26 18124321768421934614
394222 165 16550596981750865073
4058900 60 17693107266193353400
437815 12 18271240650919000015
469060 322 17823436949188668035
484985 159 18201158745894737974
4921388 177 18339925922687870460
5080951 261 18186801370904954882
57527585 103 18269855154472057454
5895379 119 11924569706765563026
59755656 520 18126296237891430272
6287921 2 16750713062661334227
6823239 73 16668221026245871603
70251023 43 17201043089423109309
70634741 139 18409440398413990754
9862522 239 10737283520109005528

> <PUBCHEM_SHAPE_MULTIPOLES>
567.22
8.44
5.3
2.56
17.1
8.7
-0.29
3.63
2.93
-6.58
-2.58
-1.67
-1.7
1.33

> <PUBCHEM_SHAPE_SELFOVERLAP>
1209.401

> <PUBCHEM_SHAPE_VOLUME>
316.2

> <PUBCHEM_COORDINATE_TYPE>
2
5
10

$$$$
