45783804
  -OEChem-12032416263D

 49 52  0     1  0  0  0  0  0999 V2000
   -4.5909    4.6259   -0.1748 F   0  0  0  0  0  0  0  0  0  0  0  0
    0.2585   -3.1110    1.1327 O   0  0  0  0  0  0  0  0  0  0  0  0
   -2.6890   -1.4044   -0.2474 N   0  0  1  0  0  0  0  0  0  0  0  0
    0.2917   -1.2740   -0.1484 N   0  0  0  0  0  0  0  0  0  0  0  0
    1.5630   -2.6066    1.2087 N   0  0  0  0  0  0  0  0  0  0  0  0
    4.9637   -0.1770    0.6214 N   0  0  0  0  0  0  0  0  0  0  0  0
    5.9574    1.7331   -0.3980 N   0  0  0  0  0  0  0  0  0  0  0  0
   -1.8805   -2.5994    0.0669 C   0  0  1  0  0  0  0  0  0  0  0  0
   -2.0809   -3.5355   -1.1391 C   0  0  0  0  0  0  0  0  0  0  0  0
   -3.0630   -2.8094   -2.0475 C   0  0  0  0  0  0  0  0  0  0  0  0
   -3.7798   -1.8586   -1.1102 C   0  0  0  0  0  0  0  0  0  0  0  0
   -3.1792   -0.7142    0.9387 C   0  0  0  0  0  0  0  0  0  0  0  0
   -0.4237   -2.2680    0.3140 C   0  0  0  0  0  0  0  0  0  0  0  0
   -3.5566    0.7127    0.6413 C   0  0  0  0  0  0  0  0  0  0  0  0
   -2.6053    1.7255    0.7638 C   0  0  0  0  0  0  0  0  0  0  0  0
   -4.8571    1.0219    0.2431 C   0  0  0  0  0  0  0  0  0  0  0  0
    1.5031   -1.5239    0.4277 C   0  0  0  0  0  0  0  0  0  0  0  0
    2.6351   -0.6724    0.2011 C   0  0  0  0  0  0  0  0  0  0  0  0
   -2.9546    3.0474    0.4885 C   0  0  0  0  0  0  0  0  0  0  0  0
   -5.2066    2.3439   -0.0322 C   0  0  0  0  0  0  0  0  0  0  0  0
   -4.2553    3.3567    0.0905 C   0  0  0  0  0  0  0  0  0  0  0  0
    2.5375    0.4459   -0.6194 C   0  0  0  0  0  0  0  0  0  0  0  0
    3.8594   -0.9379    0.7929 C   0  0  0  0  0  0  0  0  0  0  0  0
    3.6519    1.2532   -0.8203 C   0  0  0  0  0  0  0  0  0  0  0  0
    4.8308    0.9016   -0.1827 C   0  0  0  0  0  0  0  0  0  0  0  0
    7.2185    1.4301    0.2421 C   0  0  0  0  0  0  0  0  0  0  0  0
    5.8517    2.8946   -1.2531 C   0  0  0  0  0  0  0  0  0  0  0  0
   -2.2795   -3.1063    0.9570 H   0  0  0  0  0  0  0  0  0  0  0  0
   -1.1553   -3.7705   -1.6758 H   0  0  0  0  0  0  0  0  0  0  0  0
   -2.5233   -4.4809   -0.8019 H   0  0  0  0  0  0  0  0  0  0  0  0
   -3.7474   -3.4983   -2.5511 H   0  0  0  0  0  0  0  0  0  0  0  0
   -2.5155   -2.2496   -2.8160 H   0  0  0  0  0  0  0  0  0  0  0  0
   -4.5551   -2.3965   -0.5500 H   0  0  0  0  0  0  0  0  0  0  0  0
   -4.2443   -1.0432   -1.6721 H   0  0  0  0  0  0  0  0  0  0  0  0
   -4.0192   -1.2440    1.4085 H   0  0  0  0  0  0  0  0  0  0  0  0
   -2.3975   -0.6874    1.7107 H   0  0  0  0  0  0  0  0  0  0  0  0
   -1.5876    1.4978    1.0700 H   0  0  0  0  0  0  0  0  0  0  0  0
   -5.6102    0.2441    0.1490 H   0  0  0  0  0  0  0  0  0  0  0  0
   -2.2140    3.8361    0.5829 H   0  0  0  0  0  0  0  0  0  0  0  0
   -6.2194    2.5852   -0.3411 H   0  0  0  0  0  0  0  0  0  0  0  0
    1.6066    0.7117   -1.1138 H   0  0  0  0  0  0  0  0  0  0  0  0
    4.0191   -1.7902    1.4466 H   0  0  0  0  0  0  0  0  0  0  0  0
    3.5325    2.1143   -1.4664 H   0  0  0  0  0  0  0  0  0  0  0  0
    7.1127    1.4444    1.3325 H   0  0  0  0  0  0  0  0  0  0  0  0
    7.5805    0.4421   -0.0630 H   0  0  0  0  0  0  0  0  0  0  0  0
    7.9977    2.1545   -0.0174 H   0  0  0  0  0  0  0  0  0  0  0  0
    5.5881    2.6149   -2.2794 H   0  0  0  0  0  0  0  0  0  0  0  0
    5.1238    3.6150   -0.8632 H   0  0  0  0  0  0  0  0  0  0  0  0
    6.8055    3.4308   -1.3194 H   0  0  0  0  0  0  0  0  0  0  0  0
  1 21  1  0  0  0  0
  2  5  1  0  0  0  0
  2 13  1  0  0  0  0
  3  8  1  0  0  0  0
  3 11  1  0  0  0  0
  3 12  1  0  0  0  0
  4 13  2  0  0  0  0
  4 17  1  0  0  0  0
  5 17  2  0  0  0  0
  6 23  1  0  0  0  0
  6 25  2  0  0  0  0
  7 25  1  0  0  0  0
  7 26  1  0  0  0  0
  7 27  1  0  0  0  0
  8  9  1  0  0  0  0
  8 13  1  0  0  0  0
  8 28  1  0  0  0  0
  9 10  1  0  0  0  0
  9 29  1  0  0  0  0
  9 30  1  0  0  0  0
 10 11  1  0  0  0  0
 10 31  1  0  0  0  0
 10 32  1  0  0  0  0
 11 33  1  0  0  0  0
 11 34  1  0  0  0  0
 12 14  1  0  0  0  0
 12 35  1  0  0  0  0
 12 36  1  0  0  0  0
 14 15  2  0  0  0  0
 14 16  1  0  0  0  0
 15 19  1  0  0  0  0
 15 37  1  0  0  0  0
 16 20  2  0  0  0  0
 16 38  1  0  0  0  0
 17 18  1  0  0  0  0
 18 22  1  0  0  0  0
 18 23  2  0  0  0  0
 19 21  2  0  0  0  0
 19 39  1  0  0  0  0
 20 21  1  0  0  0  0
 20 40  1  0  0  0  0
 22 24  2  0  0  0  0
 22 41  1  0  0  0  0
 23 42  1  0  0  0  0
 24 25  1  0  0  0  0
 24 43  1  0  0  0  0
 26 44  1  0  0  0  0
 26 45  1  0  0  0  0
 26 46  1  0  0  0  0
 27 47  1  0  0  0  0
 27 48  1  0  0  0  0
 27 49  1  0  0  0  0
M  END
> <PUBCHEM_COMPOUND_CID>
45783804

> <PUBCHEM_CONFORMER_RMSD>
0.8

> <PUBCHEM_CONFORMER_DIVERSEORDER>
1
30
27
53
38
54
48
33
45
6
26
11
31
50
23
41
9
46
57
43
29
37
8
25
2
28
5
52
47
22
51
40
19
12
56
10
59
49
58
7
14
32
18
3
15
42
20
36
44
17
24
13
39
4
21
34
55
16
35

> <PUBCHEM_MMFF94_PARTIAL_CHARGES>
32
1 -0.19
11 0.27
12 0.41
13 0.3
14 -0.14
15 -0.15
16 -0.15
17 0.46
18 0.05
19 -0.15
2 -0.02
20 -0.15
21 0.19
22 -0.15
23 0.16
24 -0.15
25 0.41
26 0.37
27 0.37
3 -0.81
37 0.15
38 0.15
39 0.15
4 -0.57
40 0.15
41 0.15
42 0.15
43 0.15
5 -0.41
6 -0.62
7 -0.84
8 0.45

> <PUBCHEM_EFFECTIVE_ROTOR_COUNT>
6

> <PUBCHEM_PHARMACOPHORE_FEATURES>
7
1 3 cation
3 4 5 17 cation
3 6 7 25 cation
5 2 4 5 13 17 rings
5 3 8 9 10 11 rings
6 14 15 16 19 20 21 rings
6 6 18 22 23 24 25 rings

> <PUBCHEM_HEAVY_ATOM_COUNT>
27

> <PUBCHEM_ATOM_DEF_STEREO_COUNT>
1

> <PUBCHEM_ATOM_UDEF_STEREO_COUNT>
0

> <PUBCHEM_BOND_DEF_STEREO_COUNT>
0

> <PUBCHEM_BOND_UDEF_STEREO_COUNT>
0

> <PUBCHEM_ISOTOPIC_ATOM_COUNT>
0

> <PUBCHEM_COMPONENT_COUNT>
1

> <PUBCHEM_CACTVS_TAUTO_COUNT>
1

> <PUBCHEM_CONFORMER_ID>
02BA9AFC00000001

> <PUBCHEM_MMFF94_ENERGY>
68.8056

> <PUBCHEM_FEATURE_SELFOVERLAP>
35.524

> <PUBCHEM_SHAPE_FINGERPRINT>
10087517 78 18339640174182166412
10411042 1 17763463211827664387
10670039 82 18339920523697681770
10864689 126 18268714918318464260
10871710 139 18411979196068072951
10917259 69 18267028255128771340
10937287 8 18339361842957830251
11477941 20 17769929400696181156
11828042 200 18268414885573285591
12107183 9 18191859038425202746
12633257 1 15502676895996477459
12788726 201 18271225193764387511
13761468 95 17915206579088880424
14114211 80 17915751886144941857
14251764 75 18197508316051867705
14294032 229 18201722860512062971
14556957 393 18196086870659520965
14767858 380 18199166453238697453
14790565 3 18334582369228427872
15064981 113 18060412517697662526
15183329 4 18041271189005962134
15289351 153 17977944911647996596
15575132 122 18411983546932941951
16988056 13 16828124660167076397
16992828 155 18333724698261181045
20511986 3 18114453483536928025
21033650 10 18196677240079914990
21864079 5 18335704914291357715
23516275 100 17406540885006077984
245318 6 18042988500739154677
2838139 119 18265051345162328971
312425 83 18201732742762637982
3388396 114 17547850110759119717
397830 11 11458703976403917684
44249763 50 17774428508172900936
445580 204 18411134779637944820
44802255 64 17488189378065687710
5048184 11 18410577240963729305
508706 21 18127959996036040120
5171179 24 17700405064216617032
5283173 99 18270964665200338744
531348 171 18202290234023804366
5372103 7 17606098617080207117
550186 7 18059863912560203358
6036956 94 17900268799120042589
6299153 45 18335135355205824274
6327066 14 18339358561761234221
633830 44 18334013882899307346
636775 72 18195244658450961776
6608658 132 18198052771538145207
6700243 42 17409687618685667734
7288768 16 17821734931259492051
7808743 9 18412262839322513417
7970288 3 9727340321097664561
9981440 41 18259994768516912835

> <PUBCHEM_SHAPE_MULTIPOLES>
517.6
14.87
5.14
1.19
20.84
1.83
-0.31
14.92
-1.78
-7.01
-0.79
-0.18
-0.71
-2.84

> <PUBCHEM_SHAPE_SELFOVERLAP>
1119.423

> <PUBCHEM_SHAPE_VOLUME>
288.2

> <PUBCHEM_COORDINATE_TYPE>
2
5
10

$$$$
