51136907
  -OEChem-12032416223D

 55 59  0     1  0  0  0  0  0999 V2000
   -1.6230   -2.8997    1.2859 O   0  0  0  0  0  0  0  0  0  0  0  0
   -4.0311   -0.7231   -0.4370 N   0  0  1  0  0  0  0  0  0  0  0  0
   -1.1075   -1.2434   -0.1312 N   0  0  0  0  0  0  0  0  0  0  0  0
   -0.2445   -2.6899    1.4171 N   0  0  0  0  0  0  0  0  0  0  0  0
    3.6435   -1.1335    0.8890 N   0  0  0  0  0  0  0  0  0  0  0  0
    6.6765    2.1553   -0.6264 N   0  0  0  0  0  0  0  0  0  0  0  0
    7.5260   -0.0288   -0.0655 N   0  0  0  0  0  0  0  0  0  0  0  0
   -4.4157    1.6221    0.1920 C   0  0  0  0  0  0  0  0  0  0  0  0
   -4.4159    0.1655    0.6519 C   0  0  0  0  0  0  0  0  0  0  0  0
   -3.5310   -2.0320    0.0289 C   0  0  1  0  0  0  0  0  0  0  0  0
   -3.0495    2.0057   -0.3923 C   0  0  0  0  0  0  0  0  0  0  0  0
   -4.7969    2.5558    1.3488 C   0  0  0  0  0  0  0  0  0  0  0  0
   -5.1483   -1.0045   -1.3388 C   0  0  0  0  0  0  0  0  0  0  0  0
   -3.8724   -3.0094   -1.1110 C   0  0  0  0  0  0  0  0  0  0  0  0
   -4.6152   -2.1729   -2.1432 C   0  0  0  0  0  0  0  0  0  0  0  0
   -3.0072    3.4737   -0.8106 C   0  0  0  0  0  0  0  0  0  0  0  0
   -4.7519    4.0228    0.9273 C   0  0  0  0  0  0  0  0  0  0  0  0
   -3.3953    4.3981    0.3392 C   0  0  0  0  0  0  0  0  0  0  0  0
   -2.0525   -2.0077    0.3550 C   0  0  0  0  0  0  0  0  0  0  0  0
   -0.0164   -1.6986    0.5503 C   0  0  0  0  0  0  0  0  0  0  0  0
    1.2889   -1.1422    0.3403 C   0  0  0  0  0  0  0  0  0  0  0  0
    1.4900   -0.1118   -0.5715 C   0  0  0  0  0  0  0  0  0  0  0  0
    2.3885   -1.6135    1.0392 C   0  0  0  0  0  0  0  0  0  0  0  0
    2.7667    0.4083   -0.7539 C   0  0  0  0  0  0  0  0  0  0  0  0
    3.8003   -0.1324   -0.0060 C   0  0  0  0  0  0  0  0  0  0  0  0
    5.1515    0.3569   -0.1433 C   0  0  0  0  0  0  0  0  0  0  0  0
    5.4274    1.6645   -0.4867 C   0  0  0  0  0  0  0  0  0  0  0  0
    6.2510   -0.4525    0.0569 C   0  0  0  0  0  0  0  0  0  0  0  0
    7.6640    1.2671   -0.4044 C   0  0  0  0  0  0  0  0  0  0  0  0
   -5.1721    1.7491   -0.5946 H   0  0  0  0  0  0  0  0  0  0  0  0
   -5.3899   -0.1112    1.0762 H   0  0  0  0  0  0  0  0  0  0  0  0
   -3.6924    0.0764    1.4738 H   0  0  0  0  0  0  0  0  0  0  0  0
   -4.0814   -2.3535    0.9246 H   0  0  0  0  0  0  0  0  0  0  0  0
   -2.8115    1.3966   -1.2718 H   0  0  0  0  0  0  0  0  0  0  0  0
   -2.2597    1.8201    0.3473 H   0  0  0  0  0  0  0  0  0  0  0  0
   -4.1131    2.4037    2.1937 H   0  0  0  0  0  0  0  0  0  0  0  0
   -5.8043    2.3141    1.7081 H   0  0  0  0  0  0  0  0  0  0  0  0
   -5.3881   -0.1569   -1.9877 H   0  0  0  0  0  0  0  0  0  0  0  0
   -6.0530   -1.3049   -0.7952 H   0  0  0  0  0  0  0  0  0  0  0  0
   -2.9961   -3.4911   -1.5583 H   0  0  0  0  0  0  0  0  0  0  0  0
   -4.5340   -3.7987   -0.7335 H   0  0  0  0  0  0  0  0  0  0  0  0
   -3.9152   -1.8211   -2.9112 H   0  0  0  0  0  0  0  0  0  0  0  0
   -5.4093   -2.7382   -2.6398 H   0  0  0  0  0  0  0  0  0  0  0  0
   -3.6908    3.6327   -1.6538 H   0  0  0  0  0  0  0  0  0  0  0  0
   -2.0011    3.7274   -1.1631 H   0  0  0  0  0  0  0  0  0  0  0  0
   -4.9680    4.6610    1.7915 H   0  0  0  0  0  0  0  0  0  0  0  0
   -5.5370    4.2134    0.1852 H   0  0  0  0  0  0  0  0  0  0  0  0
   -3.4200    5.4353   -0.0134 H   0  0  0  0  0  0  0  0  0  0  0  0
   -2.6304    4.3451    1.1237 H   0  0  0  0  0  0  0  0  0  0  0  0
    0.6719    0.3020   -1.1554 H   0  0  0  0  0  0  0  0  0  0  0  0
    2.3168   -2.4149    1.7685 H   0  0  0  0  0  0  0  0  0  0  0  0
    2.9113    1.1982   -1.4830 H   0  0  0  0  0  0  0  0  0  0  0  0
    4.6520    2.4061   -0.6509 H   0  0  0  0  0  0  0  0  0  0  0  0
    6.1598   -1.5018    0.3213 H   0  0  0  0  0  0  0  0  0  0  0  0
    8.6775    1.6343   -0.5097 H   0  0  0  0  0  0  0  0  0  0  0  0
  1  4  1  0  0  0  0
  1 19  1  0  0  0  0
  2  9  1  0  0  0  0
  2 10  1  0  0  0  0
  2 13  1  0  0  0  0
  3 19  2  0  0  0  0
  3 20  1  0  0  0  0
  4 20  2  0  0  0  0
  5 23  1  0  0  0  0
  5 25  2  0  0  0  0
  6 27  2  0  0  0  0
  6 29  1  0  0  0  0
  7 28  1  0  0  0  0
  7 29  2  0  0  0  0
  8  9  1  0  0  0  0
  8 11  1  0  0  0  0
  8 12  1  0  0  0  0
  8 30  1  0  0  0  0
  9 31  1  0  0  0  0
  9 32  1  0  0  0  0
 10 14  1  0  0  0  0
 10 19  1  0  0  0  0
 10 33  1  0  0  0  0
 11 16  1  0  0  0  0
 11 34  1  0  0  0  0
 11 35  1  0  0  0  0
 12 17  1  0  0  0  0
 12 36  1  0  0  0  0
 12 37  1  0  0  0  0
 13 15  1  0  0  0  0
 13 38  1  0  0  0  0
 13 39  1  0  0  0  0
 14 15  1  0  0  0  0
 14 40  1  0  0  0  0
 14 41  1  0  0  0  0
 15 42  1  0  0  0  0
 15 43  1  0  0  0  0
 16 18  1  0  0  0  0
 16 44  1  0  0  0  0
 16 45  1  0  0  0  0
 17 18  1  0  0  0  0
 17 46  1  0  0  0  0
 17 47  1  0  0  0  0
 18 48  1  0  0  0  0
 18 49  1  0  0  0  0
 20 21  1  0  0  0  0
 21 22  1  0  0  0  0
 21 23  2  0  0  0  0
 22 24  2  0  0  0  0
 22 50  1  0  0  0  0
 23 51  1  0  0  0  0
 24 25  1  0  0  0  0
 24 52  1  0  0  0  0
 25 26  1  0  0  0  0
 26 27  1  0  0  0  0
 26 28  2  0  0  0  0
 27 53  1  0  0  0  0
 28 54  1  0  0  0  0
 29 55  1  0  0  0  0
M  END
> <PUBCHEM_COMPOUND_CID>
51136907

> <PUBCHEM_CONFORMER_RMSD>
0.8

> <PUBCHEM_CONFORMER_DIVERSEORDER>
1
42
64
77
75
70
28
10
56
25
59
48
62
34
72
6
8
78
49
40
7
67
16
74
31
11
47
68
79
36
39
22
13
35
2
82
5
14
73
29
32
23
45
58
12
54
55
81
83
38
9
33
43
80
41
57
15
63
76
19
30
60
53
52
61
20
17
21
27
65
66
46
37
69
71
4
44
51
3
26
50
24
18

> <PUBCHEM_MMFF94_PARTIAL_CHARGES>
26
1 -0.02
10 0.45
13 0.27
19 0.3
2 -0.81
20 0.46
21 0.05
22 -0.15
23 0.16
24 -0.15
25 0.31
27 0.16
28 0.16
29 0.47
3 -0.57
4 -0.41
5 -0.62
50 0.15
51 0.15
52 0.15
53 0.15
54 0.15
55 0.15
6 -0.62
7 -0.62
9 0.27

> <PUBCHEM_EFFECTIVE_ROTOR_COUNT>
7.2

> <PUBCHEM_PHARMACOPHORE_FEATURES>
10
1 2 cation
1 5 acceptor
1 6 acceptor
3 3 4 20 cation
3 6 7 29 cation
5 1 3 4 19 20 rings
5 2 10 13 14 15 rings
6 5 21 22 23 24 25 rings
6 6 7 26 27 28 29 rings
6 8 11 12 16 17 18 rings

> <PUBCHEM_HEAVY_ATOM_COUNT>
29

> <PUBCHEM_ATOM_DEF_STEREO_COUNT>
1

> <PUBCHEM_ATOM_UDEF_STEREO_COUNT>
0

> <PUBCHEM_BOND_DEF_STEREO_COUNT>
0

> <PUBCHEM_BOND_UDEF_STEREO_COUNT>
0

> <PUBCHEM_ISOTOPIC_ATOM_COUNT>
0

> <PUBCHEM_COMPONENT_COUNT>
1

> <PUBCHEM_CACTVS_TAUTO_COUNT>
1

> <PUBCHEM_CONFORMER_ID>
030C498B00000001

> <PUBCHEM_MMFF94_ENERGY>
54.0573

> <PUBCHEM_FEATURE_SELFOVERLAP>
50.749

> <PUBCHEM_SHAPE_FINGERPRINT>
100830 39 18408324384931220884
10087517 78 18410011052404649764
10291535 26 18334862761673128187
10454371 7 18343022198365159853
10670039 82 18410287025517392944
10815517 723 18186806859625603052
10816530 145 17530964739139805207
10871710 139 18410851033040188101
10906281 52 17822870753231780294
10917259 69 18123759647940422912
10951579 204 18267325157512218932
11101153 10 18267865171353685709
11476731 118 18052258698496721208
11477941 20 18058717147818443453
11578080 2 17417267437288626383
11761917 142 18341322319804892520
12107183 9 17975968770300976114
12788726 201 18410001157285348435
12895837 130 18412833464915807753
13167372 99 18408323285830543184
13540713 5 18192132829399666891
13690498 29 17916860339630818855
14114211 80 17771351864591805033
14202776 33 18202277035034649511
14251764 75 17909558259710187481
14294032 229 18130788920329028499
14347329 18 18410851053982483272
14394314 77 18335986385722635429
14765038 42 18199765647746552553
14790565 3 18261957345385826562
14950920 106 11458426833995005103
15064981 113 17988064596228042535
15183329 4 18187076278871550226
15289351 153 18265890441231082696
15448158 71 18050001096081226121
155225 5 18339645525284805624
15604295 49 18127971013957307568
15876981 60 18339080518505176133
16126227 98 18200319810486952025
16992828 155 18262514776433620709
21033650 10 18268731474894456062
21236236 1 18410575102038257044
21774942 28 18412825777509520632
2838139 119 18411421734987624632
3610482 184 18261976092859980420
397830 11 11314319399210227326
4169191 19 17823140197915320836
44802255 64 17632299016659019566
50677037 204 18260545671219554252
5104073 3 17748826324207239210
5171179 24 17916294124959297809
5252454 2 18197209244831171425
5283173 99 18342459248912586696
531348 171 18201721738745409854
550186 7 18131347505746598207
563151 97 18410009918713014746
6058803 2 18192972847925708627
6299153 45 18188204287559739546
6327066 14 18266739074606360733
6328613 192 18187367688149606876
636775 72 18339079415132039040
6371009 1 18261104231710727964
6608658 132 18339632434471608559
6700243 42 17552399795274696575
7288768 16 17822302223894114211
7808743 9 18340204090323680169
9982175 49 17822588190974756108

> <PUBCHEM_SHAPE_MULTIPOLES>
561.05
18.25
4.74
1.27
33.37
3.9
-0.15
9.86
-3.22
-9.44
0.45
-1.41
-0.56
-3.14

> <PUBCHEM_SHAPE_SELFOVERLAP>
1217.482

> <PUBCHEM_SHAPE_VOLUME>
304.4

> <PUBCHEM_COORDINATE_TYPE>
2
5
10

$$$$
