75536547
  -OEChem-12032416343D

 40 42  0     1  0  0  0  0  0999 V2000
    1.0722    1.0264   -0.3916 O   0  0  0  0  0  0  0  0  0  0  0  0
    0.0403   -2.3012    0.4844 O   0  0  0  0  0  0  0  0  0  0  0  0
    4.6654   -1.4956    0.5921 O   0  0  0  0  0  0  0  0  0  0  0  0
    3.6417   -0.1208   -0.9862 N   0  0  0  0  0  0  0  0  0  0  0  0
   -2.3054   -0.2866   -0.0769 N   0  0  0  0  0  0  0  0  0  0  0  0
   -5.4572    1.3280   -0.0574 N   0  0  0  0  0  0  0  0  0  0  0  0
   -6.7130   -0.5024   -0.1243 N   0  0  0  0  0  0  0  0  0  0  0  0
    5.8552    0.3936   -0.1492 C   0  0  0  0  0  0  0  0  0  0  0  0
    6.3252    0.9713    1.1441 C   0  0  0  0  0  0  0  0  0  0  0  0
    5.6505    1.8454    0.1297 C   0  0  0  0  0  0  0  0  0  0  0  0
    1.3659   -0.3583   -0.1424 C   0  0  1  0  0  0  0  0  0  0  0  0
    0.0394   -1.0970   -0.2575 C   0  0  2  0  0  0  0  0  0  0  0  0
   -0.9200   -0.0640    0.3038 C   0  0  1  0  0  0  0  0  0  0  0  0
   -0.3477    1.2215   -0.2708 C   0  0  0  0  0  0  0  0  0  0  0  0
    2.4125   -0.8465   -1.1282 C   0  0  0  0  0  0  0  0  0  0  0  0
    4.6665   -0.5092   -0.1352 C   0  0  0  0  0  0  0  0  0  0  0  0
   -3.2100    0.5100    0.7433 C   0  0  0  0  0  0  0  0  0  0  0  0
   -4.6492    0.3047    0.3519 C   0  0  0  0  0  0  0  0  0  0  0  0
   -5.4464   -0.8145    0.3024 C   0  0  0  0  0  0  0  0  0  0  0  0
   -6.6859    0.7953   -0.3322 C   0  0  0  0  0  0  0  0  0  0  0  0
    6.6222    0.1243   -0.8677 H   0  0  0  0  0  0  0  0  0  0  0  0
    7.3921    1.0947    1.2852 H   0  0  0  0  0  0  0  0  0  0  0  0
    5.7793    0.7427    2.0513 H   0  0  0  0  0  0  0  0  0  0  0  0
    4.6581    2.2082    0.3684 H   0  0  0  0  0  0  0  0  0  0  0  0
    6.2639    2.5549   -0.4124 H   0  0  0  0  0  0  0  0  0  0  0  0
    1.7629   -0.4293    0.8789 H   0  0  0  0  0  0  0  0  0  0  0  0
   -0.1960   -1.3268   -1.3042 H   0  0  0  0  0  0  0  0  0  0  0  0
   -0.8224   -0.0688    1.3988 H   0  0  0  0  0  0  0  0  0  0  0  0
   -0.7305    1.4357   -1.2753 H   0  0  0  0  0  0  0  0  0  0  0  0
   -0.5406    2.0913    0.3644 H   0  0  0  0  0  0  0  0  0  0  0  0
    2.0771   -0.6853   -2.1585 H   0  0  0  0  0  0  0  0  0  0  0  0
    2.6063   -1.9153   -0.9875 H   0  0  0  0  0  0  0  0  0  0  0  0
    3.7590    0.7204   -1.5437 H   0  0  0  0  0  0  0  0  0  0  0  0
   -2.5287   -1.2746    0.0466 H   0  0  0  0  0  0  0  0  0  0  0  0
   -2.9680    1.5760    0.6533 H   0  0  0  0  0  0  0  0  0  0  0  0
   -3.1078    0.2381    1.8016 H   0  0  0  0  0  0  0  0  0  0  0  0
    0.2483   -2.0898    1.4103 H   0  0  0  0  0  0  0  0  0  0  0  0
   -5.1974    2.3017   -0.1428 H   0  0  0  0  0  0  0  0  0  0  0  0
   -5.1753   -1.8301    0.5524 H   0  0  0  0  0  0  0  0  0  0  0  0
   -7.5107    1.4022   -0.6772 H   0  0  0  0  0  0  0  0  0  0  0  0
  1 11  1  0  0  0  0
  1 14  1  0  0  0  0
  2 12  1  0  0  0  0
  2 37  1  0  0  0  0
  3 16  2  0  0  0  0
  4 15  1  0  0  0  0
  4 16  1  0  0  0  0
  4 33  1  0  0  0  0
  5 13  1  0  0  0  0
  5 17  1  0  0  0  0
  5 34  1  0  0  0  0
  6 18  1  0  0  0  0
  6 20  1  0  0  0  0
  6 38  1  0  0  0  0
  7 19  1  0  0  0  0
  7 20  2  0  0  0  0
  8  9  1  0  0  0  0
  8 10  1  0  0  0  0
  8 16  1  0  0  0  0
  8 21  1  0  0  0  0
  9 10  1  0  0  0  0
  9 22  1  0  0  0  0
  9 23  1  0  0  0  0
 10 24  1  0  0  0  0
 10 25  1  0  0  0  0
 11 12  1  0  0  0  0
 11 15  1  0  0  0  0
 11 26  1  0  0  0  0
 12 13  1  0  0  0  0
 12 27  1  0  0  0  0
 13 14  1  0  0  0  0
 13 28  1  0  0  0  0
 14 29  1  0  0  0  0
 14 30  1  0  0  0  0
 15 31  1  0  0  0  0
 15 32  1  0  0  0  0
 17 18  1  0  0  0  0
 17 35  1  0  0  0  0
 17 36  1  0  0  0  0
 18 19  2  0  0  0  0
 19 39  1  0  0  0  0
 20 40  1  0  0  0  0
M  END
> <PUBCHEM_COMPOUND_CID>
75536547

> <PUBCHEM_CONFORMER_RMSD>
0.8

> <PUBCHEM_CONFORMER_DIVERSEORDER>
2
42
115
219
134
72
204
32
154
96
127
218
25
166
163
104
147
182
99
155
146
128
20
214
157
213
185
11
226
229
91
186
110
82
170
39
227
131
36
83
198
207
106
203
124
105
152
24
209
58
55
16
129
89
117
148
144
54
3
175
114
139
215
31
107
123
41
125
70
80
174
53
14
136
64
50
57
184
223
17
138
101
149
189
179
153
18
73
159
71
103
206
151
35
150
118
52
108
191
181
6
176
172
143
116
77
194
208
135
97
4
28
197
180
130
95
88
62
74
12
69
78
173
13
48
15
63
27
177
231
84
112
65
195
81
92
220
165
210
224
37
126
141
68
158
98
120
161
51
199
145
160
56
33
40
188
79
19
93
211
47
113
122
86
67
230
225
221
193
22
119
21
201
132
133
34
75
8
46
169
171
137
38
44
60
109
94
9
200
23
156
192
100
10
43
183
59
205
178
162
111
217
164
66
216
202
90
228
7
26
196
222
49
61
121
1
142
102
85
30
140
187
5
212
167
76
45
190
29
168
87

> <PUBCHEM_MMFF94_PARTIAL_CHARGES>
31
1 -0.56
10 -0.2
11 0.28
12 0.28
13 0.27
14 0.28
15 0.3
16 0.63
17 0.45
18 -0.33
19 0.08
2 -0.68
20 0.04
21 0.1
22 0.1
23 0.1
24 0.1
25 0.1
3 -0.57
33 0.37
34 0.36
37 0.4
38 0.27
39 0.15
4 -0.73
40 0.15
5 -0.9
6 0.03
7 -0.57
8 -0.1
9 -0.2

> <PUBCHEM_EFFECTIVE_ROTOR_COUNT>
8.6

> <PUBCHEM_PHARMACOPHORE_FEATURES>
11
1 1 acceptor
1 2 acceptor
1 2 donor
1 3 acceptor
1 4 donor
1 5 cation
1 5 donor
1 6 donor
3 6 7 20 cation
5 1 11 12 13 14 rings
5 6 7 18 19 20 rings

> <PUBCHEM_HEAVY_ATOM_COUNT>
20

> <PUBCHEM_ATOM_DEF_STEREO_COUNT>
3

> <PUBCHEM_ATOM_UDEF_STEREO_COUNT>
0

> <PUBCHEM_BOND_DEF_STEREO_COUNT>
0

> <PUBCHEM_BOND_UDEF_STEREO_COUNT>
0

> <PUBCHEM_ISOTOPIC_ATOM_COUNT>
0

> <PUBCHEM_COMPONENT_COUNT>
1

> <PUBCHEM_CACTVS_TAUTO_COUNT>
4

> <PUBCHEM_CONFORMER_ID>
048098A300000002

> <PUBCHEM_MMFF94_ENERGY>
28.2971

> <PUBCHEM_FEATURE_SELFOVERLAP>
55.822

> <PUBCHEM_SHAPE_FINGERPRINT>
10638233 991 15195284256738862842
10968037 39 17704354377529977053
11315181 36 17846500340644574097
11796584 16 15647064775925430808
12236239 1 18130790032055742311
125118 31 18408043991801303605
12516196 113 18342458144889934385
13533116 47 17968657108523896298
13899415 154 16630528457696028968
14123256 10 16487256573384349272
1420 363 10303813181097933741
14251718 22 18060421305073641789
14251732 16 18271806851893047651
14251752 14 9439413414708097107
14251764 18 16805327725205085454
14251764 46 17346319289253737630
14429380 56 18130494318767268469
15048467 5 17346598581970330356
15183329 4 14056720132054705765
20157964 124 18272936007775731262
21054139 6 18409445925678620191
21150785 3 16415476073556859813
21521721 280 17989210368979906299
22079108 93 18413385449785508534
22224240 67 18411696603708827267
22896161 15 17989487450663826927
2297311 6 10952054450815157859
23035841 295 10663821866828631869
23081809 10 16271934766025960083
23402539 116 16588027922567324863
23559900 14 17846210107570125201
28498 318 12685081584027892200
2916195 48 18413670214216810888
29717793 49 8502654822754643202
300161 21 18343863329355763686
3009799 131 18333450937235045873
3014965 18 10881672525187735488
34797466 226 16272215210316248572
4072396 5 17603304843252215290
4325135 7 17632859724138416508
4340502 62 16660362576012744258
4463277 17 18411418405992506605
5104073 3 18190186693770329433
5207 217 17489870453149142351
6438161 24 11095898038693392044

> <PUBCHEM_SHAPE_MULTIPOLES>
374.06
18.75
1.56
0.86
7.91
0.16
0
-5.31
1.71
-0.99
0.13
-0.61
0.03
0.48

> <PUBCHEM_SHAPE_SELFOVERLAP>
776.348

> <PUBCHEM_SHAPE_VOLUME>
215.7

> <PUBCHEM_COORDINATE_TYPE>
2
5
10

$$$$
