23786270
  -OEChem-12032416123D

 72 76  0     1  0  0  0  0  0999 V2000
   11.4254   -0.7573   -0.4907 Cl  0  0  0  0  0  0  0  0  0  0  0  0
    2.5954    1.8323    1.1562 S   0  0  0  0  0  0  0  0  0  0  0  0
    5.2786   -0.5944    0.6661 S   0  0  0  0  0  0  0  0  0  0  0  0
   -2.8203   -1.2930   -1.5000 O   0  0  0  0  0  0  0  0  0  0  0  0
   -6.9626    1.6344   -0.1874 O   0  0  0  0  0  0  0  0  0  0  0  0
   -8.5513   -2.8343    1.2150 O   0  0  0  0  0  0  0  0  0  0  0  0
    4.7078   -1.8064    0.1080 O   0  0  0  0  0  0  0  0  0  0  0  0
    5.0936   -0.2737    2.0696 O   0  0  0  0  0  0  0  0  0  0  0  0
    2.3642    0.2838   -0.9017 N   0  0  0  0  0  0  0  0  0  0  0  0
   -7.0204   -0.6044    0.4250 N   0  0  0  0  0  0  0  0  0  0  0  0
   -1.4268    1.7890    0.2964 C   0  0  1  0  0  0  0  0  0  0  0  0
   -1.4424    0.3416   -0.3359 C   0  0  1  0  0  0  0  0  0  0  0  0
   -2.7560    0.0829   -1.1269 C   0  0  2  0  0  0  0  0  0  0  0  0
   -4.0229    0.3924   -0.3000 C   0  0  1  0  0  0  0  0  0  0  0  0
   -2.7142    2.0095    1.1246 C   0  0  0  0  0  0  0  0  0  0  0  0
   -0.1324    0.0487   -1.1758 C   0  0  1  0  0  0  0  0  0  0  0  0
   -3.9882    1.7888    0.3208 C   0  0  0  0  0  0  0  0  0  0  0  0
   -0.2154    1.9266    1.2709 C   0  0  0  0  0  0  0  0  0  0  0  0
   -1.3284    2.8958   -0.7858 C   0  0  0  0  0  0  0  0  0  0  0  0
   -5.3004    0.2333   -1.1333 C   0  0  2  0  0  0  0  0  0  0  0  0
    1.0865    0.5773   -0.4585 C   0  0  0  0  0  0  0  0  0  0  0  0
    1.0290    1.4243    0.6289 C   0  0  0  0  0  0  0  0  0  0  0  0
    0.0576   -1.4395   -1.5042 C   0  0  0  0  0  0  0  0  0  0  0  0
   -5.3119    1.1952   -2.3073 C   0  0  0  0  0  0  0  0  0  0  0  0
   -6.5004    0.4928   -0.2580 C   0  0  0  0  0  0  0  0  0  0  0  0
    3.2376    0.8814   -0.1207 C   0  0  0  0  0  0  0  0  0  0  0  0
    4.7050    0.7868   -0.2794 C   0  0  0  0  0  0  0  0  0  0  0  0
   -8.1872   -0.4414    1.2921 C   0  0  0  0  0  0  0  0  0  0  0  0
   -6.4231   -1.9434    0.4647 C   0  0  0  0  0  0  0  0  0  0  0  0
   -9.1870   -1.5637    1.0527 C   0  0  0  0  0  0  0  0  0  0  0  0
   -7.4965   -3.0057    0.2647 C   0  0  0  0  0  0  0  0  0  0  0  0
    7.0145   -0.6404    0.3394 C   0  0  0  0  0  0  0  0  0  0  0  0
    7.8762    0.0698    1.1581 C   0  0  0  0  0  0  0  0  0  0  0  0
    7.4823   -1.3864   -0.7290 C   0  0  0  0  0  0  0  0  0  0  0  0
    9.2466    0.0334    0.9004 C   0  0  0  0  0  0  0  0  0  0  0  0
    8.8527   -1.4230   -0.9866 C   0  0  0  0  0  0  0  0  0  0  0  0
    9.7348   -0.7131   -0.1720 C   0  0  0  0  0  0  0  0  0  0  0  0
   -1.4317   -0.3724    0.5036 H   0  0  0  0  0  0  0  0  0  0  0  0
   -2.7165    0.6657   -2.0496 H   0  0  0  0  0  0  0  0  0  0  0  0
   -4.0652   -0.3322    0.5256 H   0  0  0  0  0  0  0  0  0  0  0  0
   -2.7224    1.3228    1.9820 H   0  0  0  0  0  0  0  0  0  0  0  0
   -2.7249    3.0233    1.5456 H   0  0  0  0  0  0  0  0  0  0  0  0
   -0.2016    0.5915   -2.1280 H   0  0  0  0  0  0  0  0  0  0  0  0
   -4.0655    2.5857   -0.4219 H   0  0  0  0  0  0  0  0  0  0  0  0
   -4.8209    1.9288    1.0186 H   0  0  0  0  0  0  0  0  0  0  0  0
   -0.3932    1.3331    2.1773 H   0  0  0  0  0  0  0  0  0  0  0  0
   -0.0998    2.9709    1.5866 H   0  0  0  0  0  0  0  0  0  0  0  0
   -1.4030    3.8898   -0.3293 H   0  0  0  0  0  0  0  0  0  0  0  0
   -2.1239    2.8204   -1.5324 H   0  0  0  0  0  0  0  0  0  0  0  0
   -0.3795    2.8673   -1.3299 H   0  0  0  0  0  0  0  0  0  0  0  0
   -5.3635   -0.7582   -1.5863 H   0  0  0  0  0  0  0  0  0  0  0  0
   -0.0322   -2.0595   -0.6057 H   0  0  0  0  0  0  0  0  0  0  0  0
    1.0447   -1.6343   -1.9391 H   0  0  0  0  0  0  0  0  0  0  0  0
   -0.6662   -1.7868   -2.2449 H   0  0  0  0  0  0  0  0  0  0  0  0
   -2.8202   -1.8260   -0.6866 H   0  0  0  0  0  0  0  0  0  0  0  0
   -5.2589    2.2521   -2.0350 H   0  0  0  0  0  0  0  0  0  0  0  0
   -6.2547    1.0831   -2.8593 H   0  0  0  0  0  0  0  0  0  0  0  0
   -4.5201    0.9853   -3.0314 H   0  0  0  0  0  0  0  0  0  0  0  0
    4.9643    0.6080   -1.3275 H   0  0  0  0  0  0  0  0  0  0  0  0
    5.2259    1.6851    0.0650 H   0  0  0  0  0  0  0  0  0  0  0  0
   -8.6614    0.5323    1.1367 H   0  0  0  0  0  0  0  0  0  0  0  0
   -7.8158   -0.4781    2.3231 H   0  0  0  0  0  0  0  0  0  0  0  0
   -5.9908   -2.0458    1.4679 H   0  0  0  0  0  0  0  0  0  0  0  0
   -5.6143   -2.0986   -0.2458 H   0  0  0  0  0  0  0  0  0  0  0  0
  -10.0041   -1.5009    1.7780 H   0  0  0  0  0  0  0  0  0  0  0  0
   -9.6234   -1.5036    0.0486 H   0  0  0  0  0  0  0  0  0  0  0  0
   -7.0705   -4.0027    0.4142 H   0  0  0  0  0  0  0  0  0  0  0  0
   -7.9126   -2.9667   -0.7491 H   0  0  0  0  0  0  0  0  0  0  0  0
    7.5142    0.6621    1.9928 H   0  0  0  0  0  0  0  0  0  0  0  0
    6.8114   -1.9391   -1.3794 H   0  0  0  0  0  0  0  0  0  0  0  0
    9.9220    0.5928    1.5425 H   0  0  0  0  0  0  0  0  0  0  0  0
    9.2190   -2.0074   -1.8268 H   0  0  0  0  0  0  0  0  0  0  0  0
  1 37  1  0  0  0  0
  2 22  1  0  0  0  0
  2 26  1  0  0  0  0
  3  7  2  0  0  0  0
  3  8  2  0  0  0  0
  3 27  1  0  0  0  0
  3 32  1  0  0  0  0
  4 13  1  0  0  0  0
  4 55  1  0  0  0  0
  5 25  2  0  0  0  0
  6 30  1  0  0  0  0
  6 31  1  0  0  0  0
  9 21  1  0  0  0  0
  9 26  2  0  0  0  0
 10 25  1  0  0  0  0
 10 28  1  0  0  0  0
 10 29  1  0  0  0  0
 11 12  1  0  0  0  0
 11 15  1  0  0  0  0
 11 18  1  0  0  0  0
 11 19  1  0  0  0  0
 12 13  1  0  0  0  0
 12 16  1  0  0  0  0
 12 38  1  0  0  0  0
 13 14  1  0  0  0  0
 13 39  1  0  0  0  0
 14 17  1  0  0  0  0
 14 20  1  0  0  0  0
 14 40  1  0  0  0  0
 15 17  1  0  0  0  0
 15 41  1  0  0  0  0
 15 42  1  0  0  0  0
 16 21  1  0  0  0  0
 16 23  1  0  0  0  0
 16 43  1  0  0  0  0
 17 44  1  0  0  0  0
 17 45  1  0  0  0  0
 18 22  1  0  0  0  0
 18 46  1  0  0  0  0
 18 47  1  0  0  0  0
 19 48  1  0  0  0  0
 19 49  1  0  0  0  0
 19 50  1  0  0  0  0
 20 24  1  0  0  0  0
 20 25  1  0  0  0  0
 20 51  1  0  0  0  0
 21 22  2  0  0  0  0
 23 52  1  0  0  0  0
 23 53  1  0  0  0  0
 23 54  1  0  0  0  0
 24 56  1  0  0  0  0
 24 57  1  0  0  0  0
 24 58  1  0  0  0  0
 26 27  1  0  0  0  0
 27 59  1  0  0  0  0
 27 60  1  0  0  0  0
 28 30  1  0  0  0  0
 28 61  1  0  0  0  0
 28 62  1  0  0  0  0
 29 31  1  0  0  0  0
 29 63  1  0  0  0  0
 29 64  1  0  0  0  0
 30 65  1  0  0  0  0
 30 66  1  0  0  0  0
 31 67  1  0  0  0  0
 31 68  1  0  0  0  0
 32 33  2  0  0  0  0
 32 34  1  0  0  0  0
 33 35  1  0  0  0  0
 33 69  1  0  0  0  0
 34 36  2  0  0  0  0
 34 70  1  0  0  0  0
 35 37  2  0  0  0  0
 35 71  1  0  0  0  0
 36 37  1  0  0  0  0
 36 72  1  0  0  0  0
M  END
> <PUBCHEM_COMPOUND_CID>
23786270

> <PUBCHEM_CONFORMER_RMSD>
1

> <PUBCHEM_CONFORMER_DIVERSEORDER>
10
79
67
54
73
33
15
28
83
70
17
69
57
78
49
23
86
4
75
72
71
29
40
34
27
62
1
63
66
60
64
3
82
52
84
43
19
68
7
9
14
56
5
6
85
12
48
77
24
41
18
38
47
59
61
8
31
81
13
44
58
74
30
37
76
2
51
39
53
36
80
55
32
11
42
50
65
20
45
16
46
26
35
25
21
22

> <PUBCHEM_MMFF94_PARTIAL_CHARGES>
34
1 -0.18
10 -0.66
13 0.28
16 0.18
18 0.18
2 -0.08
20 0.06
21 0.05
22 -0.14
25 0.57
26 0.2
27 0.29
28 0.3
29 0.3
3 1.2
30 0.28
31 0.28
32 -0.01
33 -0.15
34 -0.15
35 -0.15
36 -0.15
37 0.18
4 -0.68
5 -0.57
55 0.4
6 -0.56
69 0.15
7 -0.65
70 0.15
71 0.15
72 0.15
8 -0.65
9 -0.57

> <PUBCHEM_EFFECTIVE_ROTOR_COUNT>
8.4

> <PUBCHEM_PHARMACOPHORE_FEATURES>
13
1 24 hydrophobe
1 4 acceptor
1 4 donor
1 5 acceptor
1 6 acceptor
1 7 acceptor
1 8 acceptor
1 9 acceptor
5 2 9 21 22 26 rings
6 11 12 13 14 15 17 rings
6 11 12 16 18 21 22 rings
6 32 33 34 35 36 37 rings
6 6 10 28 29 30 31 rings

> <PUBCHEM_HEAVY_ATOM_COUNT>
37

> <PUBCHEM_ATOM_DEF_STEREO_COUNT>
5

> <PUBCHEM_ATOM_UDEF_STEREO_COUNT>
1

> <PUBCHEM_BOND_DEF_STEREO_COUNT>
0

> <PUBCHEM_BOND_UDEF_STEREO_COUNT>
0

> <PUBCHEM_ISOTOPIC_ATOM_COUNT>
0

> <PUBCHEM_COMPONENT_COUNT>
1

> <PUBCHEM_CACTVS_TAUTO_COUNT>
1

> <PUBCHEM_CONFORMER_ID>
016AF31E0000000A

> <PUBCHEM_MMFF94_ENERGY>
92.0364

> <PUBCHEM_FEATURE_SELFOVERLAP>
66.074

> <PUBCHEM_SHAPE_FINGERPRINT>
10076449 9 18040718069161731305
10162869 55 16298387972930816894
10533779 47 17203058421597308006
11135609 99 18337111267035816087
11135926 11 18060131021108679391
11181472 205 11887678390551642426
11411753 29 18113893897028482573
11456790 92 16917071074513453403
11578821 258 10663811992826302914
12013929 94 18410296921744652130
12089408 11 16588301658260848784
12106331 60 18271233937742483817
12539745 222 18273218569316313209
12758862 56 18343011199096281624
13782708 43 18041274457248954683
13811026 1 18412824690017605248
14202775 3 18341054009430360214
15065858 18 18261104155176295564
15461852 350 17748827397611218516
1754911 235 12179842809947604994
17686467 74 18342733014650504208
1818759 1 18342741810616145706
18608769 82 18342454855229887326
20105231 36 18341895186879588334
20982279 24 18340783575706648706
21150785 3 16588306064554481092
21267235 1 18272369763619408032
21585481 151 18341615949533320955
21781051 124 18341623641334133094
21781055 127 15769511905812369488
21792961 116 18411132529370793101
21927370 108 17988929959139826361
232437 2 18186239524821496306
23576562 1 13768509611737516846
23729398 52 18128535050110453776
24771293 8 12901543503488067502
3178227 256 17917997204282939961
3383291 50 18343300387755510586
4149490 64 18335701702225409152
4339292 15 18187359970336384975
4461854 278 17346599690489190494
4760202 170 12035736440178671422
5028188 123 17167860859895317061
54039377 194 18410857672073249100
54728670 133 16558478466204578361
57303763 39 18200595938250361014
5937810 71 11891597015707878631
6201320 215 12823028473207423794
636775 8 18334860523583541018
9953998 17 15626220226101840109
9962374 69 17967534601435229028
999808 66 18342455950493520179

> <PUBCHEM_SHAPE_MULTIPOLES>
731.7
34.7
2.5
1.5
41.28
0.29
0.16
23.81
-6.1
-4.59
-0.38
-0.98
-0.04
2.62

> <PUBCHEM_SHAPE_SELFOVERLAP>
1530.825

> <PUBCHEM_SHAPE_VOLUME>
418.5

> <PUBCHEM_COORDINATE_TYPE>
2
5
10

$$$$
