11887601
  -OEChem-12032416163D

 73 75  0     1  0  0  0  0  0999 V2000
   -0.3877    0.6403    1.6098 O   0  0  0  0  0  0  0  0  0  0  0  0
    1.1499   -2.7415    0.1340 O   0  0  0  0  0  0  0  0  0  0  0  0
   -2.0692    4.4713    0.3453 O   0  0  0  0  0  0  0  0  0  0  0  0
    4.3511    1.9516    1.1837 O   0  0  0  0  0  0  0  0  0  0  0  0
   -0.7648   -0.7494   -0.2193 N   0  0  0  0  0  0  0  0  0  0  0  0
   -0.4869    2.8069   -0.0103 N   0  0  0  0  0  0  0  0  0  0  0  0
    2.2991    1.9158    0.1176 N   0  0  0  0  0  0  0  0  0  0  0  0
    0.0876   -3.3425    2.0794 N   0  0  0  0  0  0  0  0  0  0  0  0
   -2.7651    2.4705   -0.5493 N   0  0  0  0  0  0  0  0  0  0  0  0
    4.1000    0.6550   -0.7332 N   0  0  0  0  0  0  0  0  0  0  0  0
   -3.5506   -2.2814   -0.2347 C   0  0  0  0  0  0  0  0  0  0  0  0
   -4.2323   -2.5985    1.1032 C   0  0  0  0  0  0  0  0  0  0  0  0
   -4.3571   -2.8543   -1.4081 C   0  0  0  0  0  0  0  0  0  0  0  0
   -2.1199   -2.8161   -0.2514 C   0  0  0  0  0  0  0  0  0  0  0  0
   -5.6823   -2.1205    1.1244 C   0  0  0  0  0  0  0  0  0  0  0  0
   -5.8069   -2.3757   -1.3826 C   0  0  0  0  0  0  0  0  0  0  0  0
   -6.4783   -2.6849   -0.0482 C   0  0  0  0  0  0  0  0  0  0  0  0
   -1.1153   -1.9462    0.5108 C   0  0  1  0  0  0  0  0  0  0  0  0
   -0.0849    1.5193   -0.5921 C   0  0  1  0  0  0  0  0  0  0  0  0
    1.4027    1.4447   -0.9497 C   0  0  0  0  0  0  0  0  0  0  0  0
   -0.4304    0.4437    0.3982 C   0  0  0  0  0  0  0  0  0  0  0  0
    0.5849    3.6562    0.5129 C   0  0  0  0  0  0  0  0  0  0  0  0
    1.7339    2.8474    1.0931 C   0  0  0  0  0  0  0  0  0  0  0  0
    0.1633   -2.6942    0.8649 C   0  0  0  0  0  0  0  0  0  0  0  0
   -1.7957    3.3319   -0.0455 C   0  0  0  0  0  0  0  0  0  0  0  0
    3.6515    1.5254    0.2620 C   0  0  0  0  0  0  0  0  0  0  0  0
   -4.1579    2.8443   -0.6521 C   0  0  0  0  0  0  0  0  0  0  0  0
   -4.8919    2.5128    0.6406 C   0  0  0  0  0  0  0  0  0  0  0  0
   -4.8084    2.1596   -1.8476 C   0  0  0  0  0  0  0  0  0  0  0  0
    5.0960   -0.3464   -0.6201 C   0  0  0  0  0  0  0  0  0  0  0  0
    5.4719   -1.0858   -1.7417 C   0  0  0  0  0  0  0  0  0  0  0  0
    5.7012   -0.5925    0.6124 C   0  0  0  0  0  0  0  0  0  0  0  0
    6.4527   -2.0714   -1.6307 C   0  0  0  0  0  0  0  0  0  0  0  0
    6.6821   -1.5781    0.7231 C   0  0  0  0  0  0  0  0  0  0  0  0
    7.0577   -2.3175   -0.3985 C   0  0  0  0  0  0  0  0  0  0  0  0
   -3.5248   -1.1901   -0.3590 H   0  0  0  0  0  0  0  0  0  0  0  0
   -4.2106   -3.6802    1.2879 H   0  0  0  0  0  0  0  0  0  0  0  0
   -3.6957   -2.1252    1.9326 H   0  0  0  0  0  0  0  0  0  0  0  0
   -3.8990   -2.5573   -2.3592 H   0  0  0  0  0  0  0  0  0  0  0  0
   -4.3375   -3.9512   -1.3735 H   0  0  0  0  0  0  0  0  0  0  0  0
   -2.1082   -3.8379    0.1506 H   0  0  0  0  0  0  0  0  0  0  0  0
   -1.7734   -2.9080   -1.2901 H   0  0  0  0  0  0  0  0  0  0  0  0
   -5.7058   -1.0245    1.0876 H   0  0  0  0  0  0  0  0  0  0  0  0
   -6.1546   -2.4183    2.0673 H   0  0  0  0  0  0  0  0  0  0  0  0
   -6.3663   -2.8524   -2.1955 H   0  0  0  0  0  0  0  0  0  0  0  0
   -5.8381   -1.2947   -1.5649 H   0  0  0  0  0  0  0  0  0  0  0  0
   -6.5774   -3.7713    0.0673 H   0  0  0  0  0  0  0  0  0  0  0  0
   -7.4921   -2.2690   -0.0401 H   0  0  0  0  0  0  0  0  0  0  0  0
   -1.5638   -1.6203    1.4571 H   0  0  0  0  0  0  0  0  0  0  0  0
   -0.6590    1.3649   -1.5134 H   0  0  0  0  0  0  0  0  0  0  0  0
   -0.6908   -0.8184   -1.2304 H   0  0  0  0  0  0  0  0  0  0  0  0
    1.6673    0.4203   -1.2315 H   0  0  0  0  0  0  0  0  0  0  0  0
    1.6047    2.0879   -1.8152 H   0  0  0  0  0  0  0  0  0  0  0  0
    0.9349    4.2733   -0.3237 H   0  0  0  0  0  0  0  0  0  0  0  0
    0.1838    4.3344    1.2736 H   0  0  0  0  0  0  0  0  0  0  0  0
    2.5181    3.5294    1.4403 H   0  0  0  0  0  0  0  0  0  0  0  0
    1.4176    2.2651    1.9640 H   0  0  0  0  0  0  0  0  0  0  0  0
   -0.7414   -3.3116    2.6641 H   0  0  0  0  0  0  0  0  0  0  0  0
    0.8705   -3.8848    2.4292 H   0  0  0  0  0  0  0  0  0  0  0  0
   -2.5346    1.5020   -0.7371 H   0  0  0  0  0  0  0  0  0  0  0  0
   -4.2125    3.9283   -0.8090 H   0  0  0  0  0  0  0  0  0  0  0  0
    3.6576    0.7164   -1.6457 H   0  0  0  0  0  0  0  0  0  0  0  0
   -5.9452    2.8054    0.5797 H   0  0  0  0  0  0  0  0  0  0  0  0
   -4.4447    3.0374    1.4918 H   0  0  0  0  0  0  0  0  0  0  0  0
   -4.8472    1.4395    0.8567 H   0  0  0  0  0  0  0  0  0  0  0  0
   -4.2875    2.4217   -2.7750 H   0  0  0  0  0  0  0  0  0  0  0  0
   -5.8563    2.4600   -1.9501 H   0  0  0  0  0  0  0  0  0  0  0  0
   -4.7735    1.0690   -1.7481 H   0  0  0  0  0  0  0  0  0  0  0  0
    5.0082   -0.9040   -2.7078 H   0  0  0  0  0  0  0  0  0  0  0  0
    5.4286   -0.0673    1.5202 H   0  0  0  0  0  0  0  0  0  0  0  0
    6.7450   -2.6475   -2.5037 H   0  0  0  0  0  0  0  0  0  0  0  0
    7.1494   -1.7749    1.6837 H   0  0  0  0  0  0  0  0  0  0  0  0
    7.8203   -3.0859   -0.3117 H   0  0  0  0  0  0  0  0  0  0  0  0
  1 21  2  0  0  0  0
  2 24  2  0  0  0  0
  3 25  2  0  0  0  0
  4 26  2  0  0  0  0
  5 18  1  0  0  0  0
  5 21  1  0  0  0  0
  5 51  1  0  0  0  0
  6 19  1  0  0  0  0
  6 22  1  0  0  0  0
  6 25  1  0  0  0  0
  7 20  1  0  0  0  0
  7 23  1  0  0  0  0
  7 26  1  0  0  0  0
  8 24  1  0  0  0  0
  8 58  1  0  0  0  0
  8 59  1  0  0  0  0
  9 25  1  0  0  0  0
  9 27  1  0  0  0  0
  9 60  1  0  0  0  0
 10 26  1  0  0  0  0
 10 30  1  0  0  0  0
 10 62  1  0  0  0  0
 11 12  1  0  0  0  0
 11 13  1  0  0  0  0
 11 14  1  0  0  0  0
 11 36  1  0  0  0  0
 12 15  1  0  0  0  0
 12 37  1  0  0  0  0
 12 38  1  0  0  0  0
 13 16  1  0  0  0  0
 13 39  1  0  0  0  0
 13 40  1  0  0  0  0
 14 18  1  0  0  0  0
 14 41  1  0  0  0  0
 14 42  1  0  0  0  0
 15 17  1  0  0  0  0
 15 43  1  0  0  0  0
 15 44  1  0  0  0  0
 16 17  1  0  0  0  0
 16 45  1  0  0  0  0
 16 46  1  0  0  0  0
 17 47  1  0  0  0  0
 17 48  1  0  0  0  0
 18 24  1  0  0  0  0
 18 49  1  0  0  0  0
 19 20  1  0  0  0  0
 19 21  1  0  0  0  0
 19 50  1  0  0  0  0
 20 52  1  0  0  0  0
 20 53  1  0  0  0  0
 22 23  1  0  0  0  0
 22 54  1  0  0  0  0
 22 55  1  0  0  0  0
 23 56  1  0  0  0  0
 23 57  1  0  0  0  0
 27 28  1  0  0  0  0
 27 29  1  0  0  0  0
 27 61  1  0  0  0  0
 28 63  1  0  0  0  0
 28 64  1  0  0  0  0
 28 65  1  0  0  0  0
 29 66  1  0  0  0  0
 29 67  1  0  0  0  0
 29 68  1  0  0  0  0
 30 31  2  0  0  0  0
 30 32  1  0  0  0  0
 31 33  1  0  0  0  0
 31 69  1  0  0  0  0
 32 34  2  0  0  0  0
 32 70  1  0  0  0  0
 33 35  2  0  0  0  0
 33 71  1  0  0  0  0
 34 35  1  0  0  0  0
 34 72  1  0  0  0  0
 35 73  1  0  0  0  0
M  END
> <PUBCHEM_COMPOUND_CID>
11887601

> <PUBCHEM_CONFORMER_RMSD>
1.2

> <PUBCHEM_CONFORMER_DIVERSEORDER>
1
31
22
45
47
48
51
19
21
20
25
55
23
29
18
52
46
36
50
9
34
7
54
10
41
32
30
38
26
5
49
13
15
24
11
14
27
28
17
42
39
6
40
33
43
16
37
4
44
12
2
3
35
53
8

> <PUBCHEM_MMFF94_PARTIAL_CHARGES>
36
1 -0.57
10 -0.55
18 0.36
19 0.36
2 -0.57
20 0.3
21 0.57
22 0.3
23 0.3
24 0.57
25 0.69
26 0.69
27 0.3
3 -0.57
30 0.12
31 -0.15
32 -0.15
33 -0.15
34 -0.15
35 -0.15
4 -0.57
5 -0.73
51 0.37
58 0.37
59 0.37
6 -0.66
60 0.37
62 0.37
69 0.15
7 -0.66
70 0.15
71 0.15
72 0.15
73 0.15
8 -0.8
9 -0.73

> <PUBCHEM_EFFECTIVE_ROTOR_COUNT>
14.4

> <PUBCHEM_PHARMACOPHORE_FEATURES>
12
1 1 acceptor
1 10 donor
1 2 acceptor
1 3 acceptor
1 4 acceptor
1 5 donor
1 8 donor
1 9 donor
3 27 28 29 hydrophobe
6 11 12 13 15 16 17 rings
6 30 31 32 33 34 35 rings
6 6 7 19 20 22 23 rings

> <PUBCHEM_HEAVY_ATOM_COUNT>
35

> <PUBCHEM_ATOM_DEF_STEREO_COUNT>
2

> <PUBCHEM_ATOM_UDEF_STEREO_COUNT>
0

> <PUBCHEM_BOND_DEF_STEREO_COUNT>
0

> <PUBCHEM_BOND_UDEF_STEREO_COUNT>
0

> <PUBCHEM_ISOTOPIC_ATOM_COUNT>
0

> <PUBCHEM_COMPONENT_COUNT>
1

> <PUBCHEM_CACTVS_TAUTO_COUNT>
16

> <PUBCHEM_CONFORMER_ID>
00B563F100000001

> <PUBCHEM_MMFF94_ENERGY>
78.1942

> <PUBCHEM_FEATURE_SELFOVERLAP>
60.898

> <PUBCHEM_SHAPE_FINGERPRINT>
10190108 129 18187657924949272507
11578080 2 16885260854439827157
12422481 6 17845947311142622431
12645989 146 18270119162175802759
12788726 201 18190743226837160784
14725015 67 18411696595989766146
14866123 147 18409731720605894939
15042514 8 18410576188813176013
15351339 4 18260817198967117874
15420108 30 17840612322122106873
15927050 60 18122627149855758506
15968369 153 18200293485877409619
16067689 391 18271518720092147303
17627616 140 18044083571597378763
19311894 1 18413668007247588701
21279426 13 18409441492559590774
21703447 108 18340759464434891328
23536364 44 18335689551419842943
244849 19 17560217220216627784
3383291 50 18268427937066079450
3459 83 18200598132540987419
513202 73 18412265060316659487
5171179 24 18271799181028917737

> <PUBCHEM_SHAPE_MULTIPOLES>
666.92
16.48
5.96
1.48
13.84
2.83
-0.14
-13.52
-4.15
-6.1
0.62
-0.07
-0.58
1.46

> <PUBCHEM_SHAPE_SELFOVERLAP>
1371.651

> <PUBCHEM_SHAPE_VOLUME>
376.8

> <PUBCHEM_COORDINATE_TYPE>
2
5
10

$$$$
