7155387
  -OEChem-12032416233D

 56 60  0     1  0  0  0  0  0999 V2000
   -6.4833   -1.3373    0.7304 F   0  0  0  0  0  0  0  0  0  0  0  0
   -4.7413   -0.4257    1.6843 F   0  0  0  0  0  0  0  0  0  0  0  0
   -6.3875    0.8372    0.9235 F   0  0  0  0  0  0  0  0  0  0  0  0
    3.9056    3.4859   -1.2772 O   0  0  0  0  0  0  0  0  0  0  0  0
    1.7038   -4.6072    1.3650 O   0  0  0  0  0  0  0  0  0  0  0  0
   -5.0213   -0.2191   -0.5761 O   0  0  0  0  0  0  0  0  0  0  0  0
    2.5930   -0.6352    1.2032 N   0  0  2  0  0  0  0  0  0  0  0  0
    2.3573    2.3130    0.0311 N   0  0  0  0  0  0  0  0  0  0  0  0
    2.9186    1.5317    2.4097 C   0  0  1  0  0  0  0  0  0  0  0  0
    0.7304    1.0181    1.4415 C   0  0  2  0  0  0  0  0  0  0  0  0
    1.4224    1.6603    2.6412 C   0  0  0  0  0  0  0  0  0  0  0  0
    3.3157    0.0471    2.2826 C   0  0  0  0  0  0  0  0  0  0  0  0
    1.1398   -0.4714    1.3493 C   0  0  0  0  0  0  0  0  0  0  0  0
    3.2894    2.3450    1.1673 C   0  0  0  0  0  0  0  0  0  0  0  0
    1.0676    1.7569    0.1432 C   0  0  0  0  0  0  0  0  0  0  0  0
    2.9565   -2.0488    1.1415 C   0  0  0  0  0  0  0  0  0  0  0  0
    0.1885    1.8739   -0.8858 C   0  0  0  0  0  0  0  0  0  0  0  0
    2.7969    2.9706   -1.1314 C   0  0  0  0  0  0  0  0  0  0  0  0
    0.6080    2.5417   -2.1032 C   0  0  0  0  0  0  0  0  0  0  0  0
    1.8300    3.0535   -2.2495 C   0  0  0  0  0  0  0  0  0  0  0  0
    2.3073   -2.7456   -0.0192 C   0  0  0  0  0  0  0  0  0  0  0  0
   -1.1823    1.3240   -0.8051 C   0  0  0  0  0  0  0  0  0  0  0  0
    1.7131   -3.9917    0.1495 C   0  0  0  0  0  0  0  0  0  0  0  0
    2.3110   -2.1262   -1.2645 C   0  0  0  0  0  0  0  0  0  0  0  0
   -1.4255    0.0148   -1.2084 C   0  0  0  0  0  0  0  0  0  0  0  0
   -2.2186    2.1191   -0.3255 C   0  0  0  0  0  0  0  0  0  0  0  0
    1.1157   -4.6258   -0.9397 C   0  0  0  0  0  0  0  0  0  0  0  0
    1.7134   -2.7603   -2.3537 C   0  0  0  0  0  0  0  0  0  0  0  0
   -2.7178   -0.5045   -1.1315 C   0  0  0  0  0  0  0  0  0  0  0  0
   -3.5108    1.5998   -0.2486 C   0  0  0  0  0  0  0  0  0  0  0  0
   -3.7605    0.2880   -0.6516 C   0  0  0  0  0  0  0  0  0  0  0  0
    1.1159   -4.0101   -2.1914 C   0  0  0  0  0  0  0  0  0  0  0  0
   -5.6512   -0.2717    0.6991 C   0  0  0  0  0  0  0  0  0  0  0  0
    3.4602    1.9459    3.2693 H   0  0  0  0  0  0  0  0  0  0  0  0
   -0.3460    1.0625    1.6423 H   0  0  0  0  0  0  0  0  0  0  0  0
    1.1302    2.7125    2.7469 H   0  0  0  0  0  0  0  0  0  0  0  0
    1.1330    1.1514    3.5689 H   0  0  0  0  0  0  0  0  0  0  0  0
    4.3953   -0.0133    2.0963 H   0  0  0  0  0  0  0  0  0  0  0  0
    3.1287   -0.4513    3.2436 H   0  0  0  0  0  0  0  0  0  0  0  0
    0.7919   -0.9859    2.2563 H   0  0  0  0  0  0  0  0  0  0  0  0
    0.5957   -0.9206    0.5151 H   0  0  0  0  0  0  0  0  0  0  0  0
    3.3643    3.4029    1.4552 H   0  0  0  0  0  0  0  0  0  0  0  0
    4.2874    2.0622    0.8087 H   0  0  0  0  0  0  0  0  0  0  0  0
    2.7085   -2.5371    2.0921 H   0  0  0  0  0  0  0  0  0  0  0  0
    4.0421   -2.1494    1.0113 H   0  0  0  0  0  0  0  0  0  0  0  0
   -0.1022    2.6119   -2.9220 H   0  0  0  0  0  0  0  0  0  0  0  0
    2.1364    3.5464   -3.1643 H   0  0  0  0  0  0  0  0  0  0  0  0
    2.7820   -1.1591   -1.4189 H   0  0  0  0  0  0  0  0  0  0  0  0
   -0.6261   -0.6124   -1.5932 H   0  0  0  0  0  0  0  0  0  0  0  0
   -2.0387    3.1434   -0.0085 H   0  0  0  0  0  0  0  0  0  0  0  0
    0.6462   -5.5995   -0.8278 H   0  0  0  0  0  0  0  0  0  0  0  0
    1.7151   -2.2817   -3.3287 H   0  0  0  0  0  0  0  0  0  0  0  0
   -2.9061   -1.5268   -1.4482 H   0  0  0  0  0  0  0  0  0  0  0  0
   -4.3148    2.2302    0.1210 H   0  0  0  0  0  0  0  0  0  0  0  0
    0.6508   -4.5037   -3.0397 H   0  0  0  0  0  0  0  0  0  0  0  0
    1.2462   -5.4616    1.2847 H   0  0  0  0  0  0  0  0  0  0  0  0
  1 33  1  0  0  0  0
  2 33  1  0  0  0  0
  3 33  1  0  0  0  0
  4 18  2  0  0  0  0
  5 23  1  0  0  0  0
  5 56  1  0  0  0  0
  6 31  1  0  0  0  0
  6 33  1  0  0  0  0
  7 12  1  0  0  0  0
  7 13  1  0  0  0  0
  7 16  1  0  0  0  0
  8 14  1  0  0  0  0
  8 15  1  0  0  0  0
  8 18  1  0  0  0  0
  9 11  1  0  0  0  0
  9 12  1  0  0  0  0
  9 14  1  0  0  0  0
  9 34  1  0  0  0  0
 10 11  1  0  0  0  0
 10 13  1  0  0  0  0
 10 15  1  0  0  0  0
 10 35  1  0  0  0  0
 11 36  1  0  0  0  0
 11 37  1  0  0  0  0
 12 38  1  0  0  0  0
 12 39  1  0  0  0  0
 13 40  1  0  0  0  0
 13 41  1  0  0  0  0
 14 42  1  0  0  0  0
 14 43  1  0  0  0  0
 15 17  2  0  0  0  0
 16 21  1  0  0  0  0
 16 44  1  0  0  0  0
 16 45  1  0  0  0  0
 17 19  1  0  0  0  0
 17 22  1  0  0  0  0
 18 20  1  0  0  0  0
 19 20  2  0  0  0  0
 19 46  1  0  0  0  0
 20 47  1  0  0  0  0
 21 23  1  0  0  0  0
 21 24  2  0  0  0  0
 22 25  2  0  0  0  0
 22 26  1  0  0  0  0
 23 27  2  0  0  0  0
 24 28  1  0  0  0  0
 24 48  1  0  0  0  0
 25 29  1  0  0  0  0
 25 49  1  0  0  0  0
 26 30  2  0  0  0  0
 26 50  1  0  0  0  0
 27 32  1  0  0  0  0
 27 51  1  0  0  0  0
 28 32  2  0  0  0  0
 28 52  1  0  0  0  0
 29 31  2  0  0  0  0
 29 53  1  0  0  0  0
 30 31  1  0  0  0  0
 30 54  1  0  0  0  0
 32 55  1  0  0  0  0
M  END
> <PUBCHEM_COMPOUND_CID>
7155387

> <PUBCHEM_CONFORMER_RMSD>
0.8

> <PUBCHEM_CONFORMER_DIVERSEORDER>
1
14
19
15
10
11
18
8
13
3
17
12
16
5
9
4
7
6
2

> <PUBCHEM_MMFF94_PARTIAL_CHARGES>
42
1 -0.34
10 0.14
12 0.27
13 0.27
14 0.3
15 -0.03
16 0.41
17 -0.03
18 0.62
19 -0.15
2 -0.34
20 -0.14
21 -0.14
22 0.03
23 0.08
24 -0.15
25 -0.15
26 -0.15
27 -0.15
28 -0.15
29 -0.15
3 -0.34
30 -0.15
31 0.08
32 -0.15
33 1.3
4 -0.57
46 0.15
47 0.15
48 0.15
49 0.15
5 -0.53
50 0.15
51 0.15
52 0.15
53 0.15
54 0.15
55 0.15
56 0.45
6 -0.36
7 -0.81
8 -0.47

> <PUBCHEM_EFFECTIVE_ROTOR_COUNT>
6

> <PUBCHEM_PHARMACOPHORE_FEATURES>
9
1 4 acceptor
1 5 donor
1 6 acceptor
1 7 cation
6 21 23 24 27 28 32 rings
6 22 25 26 29 30 31 rings
6 7 9 10 11 12 13 rings
6 8 15 17 18 19 20 rings
6 8 9 10 11 14 15 rings

> <PUBCHEM_HEAVY_ATOM_COUNT>
33

> <PUBCHEM_ATOM_DEF_STEREO_COUNT>
2

> <PUBCHEM_ATOM_UDEF_STEREO_COUNT>
0

> <PUBCHEM_BOND_DEF_STEREO_COUNT>
0

> <PUBCHEM_BOND_UDEF_STEREO_COUNT>
0

> <PUBCHEM_ISOTOPIC_ATOM_COUNT>
0

> <PUBCHEM_COMPONENT_COUNT>
1

> <PUBCHEM_CACTVS_TAUTO_COUNT>
3

> <PUBCHEM_CONFORMER_ID>
006D2EBB00000001

> <PUBCHEM_MMFF94_ENERGY>
101.3459

> <PUBCHEM_FEATURE_SELFOVERLAP>
47.222

> <PUBCHEM_SHAPE_FINGERPRINT>
10064457 181 17912616259107224960
11421498 54 18200891624530270168
12128747 34 17698989705347796745
12156800 1 16085063062575575174
12160290 23 17404557353032501822
12422481 6 18123153915274077752
12712778 12 16316088679112782306
14363568 33 18057872559943629050
14863182 85 18411414050927648384
15324884 4 17615357612945029184
15392192 104 18191599734586229395
15664445 248 18189060798037082460
16114785 44 16453499642446606332
17974551 9 16840202915225114529
1813 80 18046072557803302373
19301679 30 18335706053543874297
1979834 28 18410003360503065329
20600515 1 17336200264225535293
20764821 26 18263362667206921319
20771845 140 18341334512530521857
20775530 9 17981317894011390454
23559900 14 18264213526445747741
255183 313 18051653834135618466
3117164 225 17914060785811492185
3380486 145 17194276467554398654
35225 105 17267791292213606250
38695281 34 18191308375819177796
44317340 157 10665238030117073419
460360 51 17987521403751935985
508180 173 9366809411010507111
563151 248 18045767147691867032
57527585 103 16687658755442086582
6287921 2 18340759386291958463

> <PUBCHEM_SHAPE_MULTIPOLES>
629.73
8.99
5.8
2.54
21.65
5.88
0.15
0.34
4.02
-7.31
-2.65
-1.91
-0.59
0.45

> <PUBCHEM_SHAPE_SELFOVERLAP>
1391.001

> <PUBCHEM_SHAPE_VOLUME>
336.9

> <PUBCHEM_COORDINATE_TYPE>
2
5
10

$$$$
