9422045
  -OEChem-12032416253D

 41 43  0     1  0  0  0  0  0999 V2000
   -0.2652   -2.0046    0.6246 O   0  0  0  0  0  0  0  0  0  0  0  0
    2.2251    2.3210   -1.2106 O   0  0  0  0  0  0  0  0  0  0  0  0
   -4.0988    0.4759    1.2759 O   0  0  0  0  0  0  0  0  0  0  0  0
    0.9164    1.0890    0.2228 N   0  0  0  0  0  0  0  0  0  0  0  0
   -2.1247    0.3818    0.0565 N   0  0  0  0  0  0  0  0  0  0  0  0
    1.8953   -1.6864   -0.0085 N   0  0  0  0  0  0  0  0  0  0  0  0
   -3.9667   -0.7993   -0.6581 N   0  0  0  0  0  0  0  0  0  0  0  0
    0.7479    0.0882    1.2566 C   0  0  1  0  0  0  0  0  0  0  0  0
   -1.3449    1.2523    0.9004 C   0  0  1  0  0  0  0  0  0  0  0  0
   -0.5607    0.4717    1.9574 C   0  0  0  0  0  0  0  0  0  0  0  0
   -0.2484    1.9602    0.1172 C   0  0  0  0  0  0  0  0  0  0  0  0
    0.7181   -1.2632    0.5700 C   0  0  0  0  0  0  0  0  0  0  0  0
    2.0845    1.3558   -0.4593 C   0  0  0  0  0  0  0  0  0  0  0  0
    3.2262    0.4196   -0.2953 C   0  0  0  0  0  0  0  0  0  0  0  0
    3.1014   -0.9746   -0.1818 C   0  0  0  0  0  0  0  0  0  0  0  0
   -3.4561    0.0578    0.3136 C   0  0  0  0  0  0  0  0  0  0  0  0
    4.5058    0.9890   -0.4352 C   0  0  0  0  0  0  0  0  0  0  0  0
    4.2586   -1.7685   -0.2789 C   0  0  0  0  0  0  0  0  0  0  0  0
    5.6459    0.1881   -0.4821 C   0  0  0  0  0  0  0  0  0  0  0  0
    5.5212   -1.1929   -0.4171 C   0  0  0  0  0  0  0  0  0  0  0  0
   -5.3239   -1.2914   -0.6324 C   0  0  0  0  0  0  0  0  0  0  0  0
   -6.1998   -0.3458   -1.3849 C   0  0  0  0  0  0  0  0  0  0  0  0
   -7.2570    0.2765   -0.8511 C   0  0  0  0  0  0  0  0  0  0  0  0
    1.5859    0.1120    1.9628 H   0  0  0  0  0  0  0  0  0  0  0  0
   -2.0252    1.9738    1.3654 H   0  0  0  0  0  0  0  0  0  0  0  0
   -1.1100   -0.3804    2.3697 H   0  0  0  0  0  0  0  0  0  0  0  0
   -0.3259    1.1490    2.7889 H   0  0  0  0  0  0  0  0  0  0  0  0
   -0.4902    2.1477   -0.9341 H   0  0  0  0  0  0  0  0  0  0  0  0
    0.0198    2.9128    0.5891 H   0  0  0  0  0  0  0  0  0  0  0  0
   -1.6664   -0.0669   -0.7310 H   0  0  0  0  0  0  0  0  0  0  0  0
    1.9240   -2.6723   -0.2580 H   0  0  0  0  0  0  0  0  0  0  0  0
    4.6319    2.0658   -0.5265 H   0  0  0  0  0  0  0  0  0  0  0  0
    4.1892   -2.8533   -0.2197 H   0  0  0  0  0  0  0  0  0  0  0  0
   -3.3665   -1.0752   -1.4294 H   0  0  0  0  0  0  0  0  0  0  0  0
    6.6259    0.6428   -0.5912 H   0  0  0  0  0  0  0  0  0  0  0  0
    6.4035   -1.8237   -0.4707 H   0  0  0  0  0  0  0  0  0  0  0  0
   -5.3296   -2.2721   -1.1181 H   0  0  0  0  0  0  0  0  0  0  0  0
   -5.6470   -1.4170    0.4065 H   0  0  0  0  0  0  0  0  0  0  0  0
   -5.9685   -0.1687   -2.4324 H   0  0  0  0  0  0  0  0  0  0  0  0
   -7.8606    0.9477   -1.4523 H   0  0  0  0  0  0  0  0  0  0  0  0
   -7.5371    0.1306    0.1862 H   0  0  0  0  0  0  0  0  0  0  0  0
  1 12  2  0  0  0  0
  2 13  2  0  0  0  0
  3 16  2  0  0  0  0
  4  8  1  0  0  0  0
  4 11  1  0  0  0  0
  4 13  1  0  0  0  0
  5  9  1  0  0  0  0
  5 16  1  0  0  0  0
  5 30  1  0  0  0  0
  6 12  1  0  0  0  0
  6 15  1  0  0  0  0
  6 31  1  0  0  0  0
  7 16  1  0  0  0  0
  7 21  1  0  0  0  0
  7 34  1  0  0  0  0
  8 10  1  0  0  0  0
  8 12  1  0  0  0  0
  8 24  1  0  0  0  0
  9 10  1  0  0  0  0
  9 11  1  0  0  0  0
  9 25  1  0  0  0  0
 10 26  1  0  0  0  0
 10 27  1  0  0  0  0
 11 28  1  0  0  0  0
 11 29  1  0  0  0  0
 13 14  1  0  0  0  0
 14 15  1  0  0  0  0
 14 17  2  0  0  0  0
 15 18  2  0  0  0  0
 17 19  1  0  0  0  0
 17 32  1  0  0  0  0
 18 20  1  0  0  0  0
 18 33  1  0  0  0  0
 19 20  2  0  0  0  0
 19 35  1  0  0  0  0
 20 36  1  0  0  0  0
 21 22  1  0  0  0  0
 21 37  1  0  0  0  0
 21 38  1  0  0  0  0
 22 23  2  0  0  0  0
 22 39  1  0  0  0  0
 23 40  1  0  0  0  0
 23 41  1  0  0  0  0
M  END
> <PUBCHEM_COMPOUND_CID>
9422045

> <PUBCHEM_CONFORMER_RMSD>
0.8

> <PUBCHEM_CONFORMER_DIVERSEORDER>
1
5
26
16
6
12
14
10
23
2
4
27
19
3
24
25
11
7
8
20
9
15
17
13
21
18
22

> <PUBCHEM_MMFF94_PARTIAL_CHARGES>
32
1 -0.57
11 0.3
12 0.57
13 0.54
14 0.09
15 0.12
16 0.69
17 -0.15
18 -0.15
19 -0.15
2 -0.57
20 -0.15
21 0.44
22 -0.29
23 -0.3
3 -0.57
30 0.37
31 0.37
32 0.15
33 0.15
34 0.37
35 0.15
36 0.15
39 0.15
4 -0.66
40 0.15
41 0.15
5 -0.73
6 -0.55
7 -0.73
8 0.36
9 0.3

> <PUBCHEM_EFFECTIVE_ROTOR_COUNT>
5.8

> <PUBCHEM_PHARMACOPHORE_FEATURES>
10
1 1 acceptor
1 2 acceptor
1 23 hydrophobe
1 3 acceptor
1 5 donor
1 6 donor
1 7 donor
5 4 8 9 10 11 rings
6 14 15 17 18 19 20 rings
7 4 6 8 12 13 14 15 rings

> <PUBCHEM_HEAVY_ATOM_COUNT>
23

> <PUBCHEM_ATOM_DEF_STEREO_COUNT>
2

> <PUBCHEM_ATOM_UDEF_STEREO_COUNT>
0

> <PUBCHEM_BOND_DEF_STEREO_COUNT>
0

> <PUBCHEM_BOND_UDEF_STEREO_COUNT>
0

> <PUBCHEM_ISOTOPIC_ATOM_COUNT>
0

> <PUBCHEM_COMPONENT_COUNT>
1

> <PUBCHEM_CACTVS_TAUTO_COUNT>
9

> <PUBCHEM_CONFORMER_ID>
008FC4DD00000001

> <PUBCHEM_MMFF94_ENERGY>
66.0413

> <PUBCHEM_FEATURE_SELFOVERLAP>
50.851

> <PUBCHEM_SHAPE_FINGERPRINT>
10447042 23 18272646848664418614
106641 1 13398620675711794495
10693767 8 18339071605932026262
11578080 2 14202264784748356942
11796584 16 17775287201079342575
11806522 49 18342179947168098656
12011746 2 18040723558710009022
12236239 1 18059861648985824049
12403259 415 16298397897809194049
12403260 363 18337113363607493600
12596602 18 9295294954252004847
12892183 10 11599740466901450131
13862211 1 18408886205397719362
14251752 14 18342732980448371373
14251764 18 8430308039461854195
14576447 43 18342175553290058098
15183329 4 18410285888353489837
15475509 35 14548473379605921412
17349148 13 18411145714593071282
17492 54 18335709359692914982
17492 89 17772196302021755934
17857418 61 17989768904191931951
1813 80 15123797296403589489
200 152 18342465824296435808
20028762 73 18201718419136714270
20612939 158 18335143115489151597
21033648 29 15430324692761318900
21521239 73 18411416219748937255
21637258 2 16988556901330637885
221357 26 18187077343627879237
23402539 116 18413111632403424136
23559900 14 17987223599419991673
23622692 88 10447925088135325721
25147074 1 18264766550408066265
2838139 119 13406790056039392575
2871803 45 18335136475232081613
29717793 49 18201721751798460589
3004659 81 18411411822108263679
3009799 131 18040713671342053896
3411729 13 15840407371698888208
4325135 7 18272931618166011614
439807 62 18268709592917564367
46194498 28 17968092053661739541
465052 167 15626503904153991964
59755656 215 17967810527092393839
7495541 125 16702297962438837040

> <PUBCHEM_SHAPE_MULTIPOLES>
435.8
14.47
1.92
1.23
17.66
0.04
-0.3
-3.9
6.93
-1.28
0.17
0.84
0.23
-0.81

> <PUBCHEM_SHAPE_SELFOVERLAP>
932.675

> <PUBCHEM_SHAPE_VOLUME>
237.9

> <PUBCHEM_COORDINATE_TYPE>
2
5
10

$$$$
