11913301
  -OEChem-12032416383D

 61 65  0     1  0  0  0  0  0999 V2000
    0.7830   -1.9746   -1.7546 O   0  0  0  0  0  0  0  0  0  0  0  0
   -0.2263   -3.4879    0.7808 O   0  0  0  0  0  0  0  0  0  0  0  0
   -4.1456   -1.8534   -0.1972 O   0  0  0  0  0  0  0  0  0  0  0  0
   -6.3884   -0.4039    1.1113 O   0  0  0  0  0  0  0  0  0  0  0  0
   -6.8300    1.6653    0.2724 O   0  0  0  0  0  0  0  0  0  0  0  0
    4.7099    0.5560   -1.6214 O   0  0  0  0  0  0  0  0  0  0  0  0
   -2.2046   -1.2373   -1.3178 N   0  0  0  0  0  0  0  0  0  0  0  0
    2.0907   -1.6226    1.6359 N   0  0  0  0  0  0  0  0  0  0  0  0
    3.5583   -0.1659    0.5788 N   0  0  0  0  0  0  0  0  0  0  0  0
    3.1074    0.0076    2.9397 N   0  0  0  0  0  0  0  0  0  0  0  0
   -3.8285    1.3985   -0.3069 C   0  0  0  0  0  0  0  0  0  0  0  0
   -0.5616   -2.2201    0.1923 C   0  0  1  0  0  0  0  0  0  0  0  0
    0.7192   -1.6268   -0.3612 C   0  0  1  0  0  0  0  0  0  0  0  0
   -1.4315   -2.4205   -1.0276 C   0  0  2  0  0  0  0  0  0  0  0  0
   -4.2477    2.7684   -0.8580 C   0  0  0  0  0  0  0  0  0  0  0  0
   -2.3313    1.6137   -0.0462 C   0  0  0  0  0  0  0  0  0  0  0  0
    1.8140   -2.3306    0.4052 C   0  0  2  0  0  0  0  0  0  0  0  0
   -4.0682    0.2838   -1.3271 C   0  0  0  0  0  0  0  0  0  0  0  0
   -3.4525    3.7847   -0.0417 C   0  0  0  0  0  0  0  0  0  0  0  0
   -2.2212    3.0434    0.4788 C   0  0  0  0  0  0  0  0  0  0  0  0
   -0.4076   -2.6897   -2.1159 C   0  0  0  0  0  0  0  0  0  0  0  0
   -4.5793    1.0660    0.9928 C   0  0  0  0  0  0  0  0  0  0  0  0
    1.1937   -3.6829    0.7055 C   0  0  0  0  0  0  0  0  0  0  0  0
   -3.5077   -1.0519   -0.8743 C   0  0  0  0  0  0  0  0  0  0  0  0
   -6.0432    0.8554    0.7390 C   0  0  0  0  0  0  0  0  0  0  0  0
    2.9566   -0.5468    1.7218 C   0  0  0  0  0  0  0  0  0  0  0  0
    4.3948    0.8857    0.6991 C   0  0  0  0  0  0  0  0  0  0  0  0
    3.9579    1.0540    2.9875 C   0  0  0  0  0  0  0  0  0  0  0  0
    4.6358    1.5416    1.8890 C   0  0  0  0  0  0  0  0  0  0  0  0
    5.0359    1.2884   -0.5244 C   0  0  0  0  0  0  0  0  0  0  0  0
    5.9343    2.2769   -0.8529 C   0  0  0  0  0  0  0  0  0  0  0  0
    6.1759    2.1431   -2.2410 C   0  0  0  0  0  0  0  0  0  0  0  0
    5.4078    1.0825   -2.6619 C   0  0  0  0  0  0  0  0  0  0  0  0
   -1.0155   -1.6050    0.9760 H   0  0  0  0  0  0  0  0  0  0  0  0
    0.7406   -0.5340   -0.2988 H   0  0  0  0  0  0  0  0  0  0  0  0
   -2.1162   -3.2694   -0.9247 H   0  0  0  0  0  0  0  0  0  0  0  0
   -3.9355    2.8568   -1.9076 H   0  0  0  0  0  0  0  0  0  0  0  0
   -5.3142    2.9918   -0.8422 H   0  0  0  0  0  0  0  0  0  0  0  0
   -1.9019    0.8967    0.6610 H   0  0  0  0  0  0  0  0  0  0  0  0
   -1.7583    1.5499   -0.9796 H   0  0  0  0  0  0  0  0  0  0  0  0
    2.7330   -2.4794   -0.1734 H   0  0  0  0  0  0  0  0  0  0  0  0
   -5.1319    0.1457   -1.5535 H   0  0  0  0  0  0  0  0  0  0  0  0
   -3.6096    0.5477   -2.2898 H   0  0  0  0  0  0  0  0  0  0  0  0
   -3.1755    4.6522   -0.6494 H   0  0  0  0  0  0  0  0  0  0  0  0
   -4.0496    4.1534    0.8002 H   0  0  0  0  0  0  0  0  0  0  0  0
   -2.2171    3.0507    1.5749 H   0  0  0  0  0  0  0  0  0  0  0  0
   -1.2917    3.5175    0.1473 H   0  0  0  0  0  0  0  0  0  0  0  0
   -0.7299   -2.3775   -3.1141 H   0  0  0  0  0  0  0  0  0  0  0  0
   -0.1481   -3.7534   -2.1546 H   0  0  0  0  0  0  0  0  0  0  0  0
   -4.4989    1.8697    1.7344 H   0  0  0  0  0  0  0  0  0  0  0  0
   -4.1496    0.1826    1.4802 H   0  0  0  0  0  0  0  0  0  0  0  0
    1.5464   -4.1375    1.6364 H   0  0  0  0  0  0  0  0  0  0  0  0
    1.3799   -4.3881   -0.1120 H   0  0  0  0  0  0  0  0  0  0  0  0
   -1.7508   -0.4995   -1.8478 H   0  0  0  0  0  0  0  0  0  0  0  0
    1.5946   -1.8807    2.4815 H   0  0  0  0  0  0  0  0  0  0  0  0
   -7.3409   -0.5821    0.9587 H   0  0  0  0  0  0  0  0  0  0  0  0
    4.0833    1.5048    3.9662 H   0  0  0  0  0  0  0  0  0  0  0  0
    5.3078    2.3852    1.9829 H   0  0  0  0  0  0  0  0  0  0  0  0
    6.3690    3.0085   -0.1864 H   0  0  0  0  0  0  0  0  0  0  0  0
    6.8282    2.7444   -2.8576 H   0  0  0  0  0  0  0  0  0  0  0  0
    5.2544    0.6030   -3.6175 H   0  0  0  0  0  0  0  0  0  0  0  0
  1 13  1  0  0  0  0
  1 21  1  0  0  0  0
  2 12  1  0  0  0  0
  2 23  1  0  0  0  0
  3 24  2  0  0  0  0
  4 25  1  0  0  0  0
  4 56  1  0  0  0  0
  5 25  2  0  0  0  0
  6 30  1  0  0  0  0
  6 33  1  0  0  0  0
  7 14  1  0  0  0  0
  7 24  1  0  0  0  0
  7 54  1  0  0  0  0
  8 17  1  0  0  0  0
  8 26  1  0  0  0  0
  8 55  1  0  0  0  0
  9 26  1  0  0  0  0
  9 27  2  0  0  0  0
 10 26  2  0  0  0  0
 10 28  1  0  0  0  0
 11 15  1  0  0  0  0
 11 16  1  0  0  0  0
 11 18  1  0  0  0  0
 11 22  1  0  0  0  0
 12 13  1  0  0  0  0
 12 14  1  0  0  0  0
 12 34  1  0  0  0  0
 13 17  1  0  0  0  0
 13 35  1  0  0  0  0
 14 21  1  0  0  0  0
 14 36  1  0  0  0  0
 15 19  1  0  0  0  0
 15 37  1  0  0  0  0
 15 38  1  0  0  0  0
 16 20  1  0  0  0  0
 16 39  1  0  0  0  0
 16 40  1  0  0  0  0
 17 23  1  0  0  0  0
 17 41  1  0  0  0  0
 18 24  1  0  0  0  0
 18 42  1  0  0  0  0
 18 43  1  0  0  0  0
 19 20  1  0  0  0  0
 19 44  1  0  0  0  0
 19 45  1  0  0  0  0
 20 46  1  0  0  0  0
 20 47  1  0  0  0  0
 21 48  1  0  0  0  0
 21 49  1  0  0  0  0
 22 25  1  0  0  0  0
 22 50  1  0  0  0  0
 22 51  1  0  0  0  0
 23 52  1  0  0  0  0
 23 53  1  0  0  0  0
 27 29  1  0  0  0  0
 27 30  1  0  0  0  0
 28 29  2  0  0  0  0
 28 57  1  0  0  0  0
 29 58  1  0  0  0  0
 30 31  2  0  0  0  0
 31 32  1  0  0  0  0
 31 59  1  0  0  0  0
 32 33  2  0  0  0  0
 32 60  1  0  0  0  0
 33 61  1  0  0  0  0
M  END
> <PUBCHEM_COMPOUND_CID>
11913301

> <PUBCHEM_CONFORMER_RMSD>
1

> <PUBCHEM_CONFORMER_DIVERSEORDER>
1
157
19
216
203
263
177
116
198
58
223
259
212
190
133
30
74
205
112
83
158
246
174
102
260
159
201
196
127
26
194
79
20
117
146
222
106
169
243
91
121
184
229
232
185
170
63
233
240
73
140
153
165
217
211
47
32
43
38
187
84
136
251
264
88
210
252
180
36
253
137
119
81
219
242
125
54
51
144
154
97
236
65
167
168
14
147
98
96
130
122
128
197
238
82
143
195
237
94
113
114
183
135
67
182
173
109
206
23
241
69
191
188
150
208
90
92
239
55
247
160
115
34
166
25
254
9
76
224
145
64
148
45
68
57
134
42
118
257
178
22
60
108
50
59
15
72
193
214
44
52
213
258
192
37
101
107
179
151
181
235
123
131
172
261
21
70
18
204
142
48
256
100
227
120
248
66
207
156
111
220
89
164
12
186
62
49
225
171
77
40
138
175
41
244
139
155
33
53
93
163
262
4
85
161
27
209
7
202
189
17
29
162
78
221
80
11
110
234
39
230
2
228
250
152
56
71
124
8
13
10
231
249
28
218
75
104
31
215
3
129
24
226
149
105
132
95
176
200
35
87
16
199
245
5
61
255
141
6
126
99
46
86
103

> <PUBCHEM_MMFF94_PARTIAL_CHARGES>
36
1 -0.56
10 -0.62
12 0.28
13 0.28
14 0.3
17 0.37
18 0.06
2 -0.56
21 0.28
22 0.06
23 0.28
24 0.57
25 0.66
26 0.72
27 0.36
28 0.16
29 -0.15
3 -0.57
30 0.09
31 -0.15
32 -0.15
33 -0.01
4 -0.65
5 -0.57
54 0.37
55 0.4
56 0.5
57 0.15
58 0.15
59 0.15
6 -0.28
60 0.15
61 0.15
7 -0.73
8 -0.87
9 -0.62

> <PUBCHEM_EFFECTIVE_ROTOR_COUNT>
11.2

> <PUBCHEM_PHARMACOPHORE_FEATURES>
16
1 1 acceptor
1 2 acceptor
1 3 acceptor
1 4 acceptor
1 5 acceptor
1 6 acceptor
1 7 donor
1 8 donor
1 9 acceptor
3 4 5 25 anion
4 8 9 10 26 cation
5 1 12 13 14 21 rings
5 11 15 16 19 20 rings
5 2 12 13 17 23 rings
5 6 30 31 32 33 rings
6 9 10 26 27 28 29 rings

> <PUBCHEM_HEAVY_ATOM_COUNT>
33

> <PUBCHEM_ATOM_DEF_STEREO_COUNT>
4

> <PUBCHEM_ATOM_UDEF_STEREO_COUNT>
0

> <PUBCHEM_BOND_DEF_STEREO_COUNT>
0

> <PUBCHEM_BOND_UDEF_STEREO_COUNT>
0

> <PUBCHEM_ISOTOPIC_ATOM_COUNT>
0

> <PUBCHEM_COMPONENT_COUNT>
1

> <PUBCHEM_CACTVS_TAUTO_COUNT>
6

> <PUBCHEM_CONFORMER_ID>
00B5C85500000001

> <PUBCHEM_MMFF94_ENERGY>
81.8175

> <PUBCHEM_FEATURE_SELFOVERLAP>
81.978

> <PUBCHEM_SHAPE_FINGERPRINT>
10670039 82 18412823616502706348
10842051 180 18041836346282813043
11049842 53 18337658773110280698
11720765 8 16200436837003362554
12373685 5 15141540159482557875
12596602 18 17385161753428520521
12788726 201 18191018117734560118
13828863 39 17168715244643618164
14114211 68 18341907259214551162
14347329 18 18342462569117485148
14400156 266 17846492687286990981
14840074 17 18409169913636377317
14848178 5 11097849670898608363
14849402 71 18116714006877811986
14950920 106 15720215224423623224
15001296 14 18191021403121232852
15163728 17 18408889555256322206
15297060 5 18340493348050084832
15575132 122 18409730647339162565
15684389 69 17823143496318477915
15721738 15 17202784626428013054
15975801 100 18334860477072825916
16067690 210 18194407916684118252
16991981 162 17757009052912559510
19304671 126 17132109165075690800
21033650 10 18125998506706577890
21223535 225 16271659892529905504
21315763 87 14706928440932744505
245318 6 18264480698422012460
27425 322 17605839106212722009
38570 142 17531256084637151214
3918712 181 18410849996999242781
42767 46 18260555545269973812
437795 70 17987806340176628516
46939830 39 17474105402597076074
4756261 7 10956602142972071420
50150288 127 16452130617399139548
57035037 87 9836401701007940453
5776283 40 18198074771141928388
6608658 132 18197762487768165831
7808743 9 18411419539774338518

> <PUBCHEM_SHAPE_MULTIPOLES>
623.98
15.67
4.38
2.44
1.14
1.17
0.41
-14.38
-1.57
1.68
-0.55
-4.57
-0.27
-1.8

> <PUBCHEM_SHAPE_SELFOVERLAP>
1356.633

> <PUBCHEM_SHAPE_VOLUME>
340.1

> <PUBCHEM_COORDINATE_TYPE>
2
5
10

$$$$
