7143918
  -OEChem-12032416253D

 62 66  0     1  0  0  0  0  0999 V2000
   10.9314   -1.7578    0.6212 Cl  0  0  0  0  0  0  0  0  0  0  0  0
   -2.3212   -0.7733    1.6037 S   0  0  0  0  0  0  0  0  0  0  0  0
   -2.2606   -0.3967    3.0002 O   0  0  0  0  0  0  0  0  0  0  0  0
   -1.7526   -2.0229    1.1440 O   0  0  0  0  0  0  0  0  0  0  0  0
    2.9163    2.2983    1.1437 O   0  0  0  0  0  0  0  0  0  0  0  0
   -8.0908   -2.1082   -1.9025 O   0  0  0  0  0  0  0  0  0  0  0  0
   -1.6992    0.5053    0.6514 N   0  0  2  0  0  0  0  0  0  0  0  0
    1.0298    1.8792   -0.1600 N   0  0  0  0  0  0  0  0  0  0  0  0
   -8.0115   -0.6384   -0.0608 N   0  0  0  0  0  0  0  0  0  0  0  0
   -1.2486    2.9406    0.3350 C   0  0  1  0  0  0  0  0  0  0  0  0
   -1.0072    1.4009   -1.5627 C   0  0  2  0  0  0  0  0  0  0  0  0
   -1.4836    2.7944   -1.1624 C   0  0  0  0  0  0  0  0  0  0  0  0
   -2.0447    1.8802    1.1130 C   0  0  0  0  0  0  0  0  0  0  0  0
   -1.8438    0.3391   -0.8258 C   0  0  0  0  0  0  0  0  0  0  0  0
    0.2578    2.8624    0.6128 C   0  0  0  0  0  0  0  0  0  0  0  0
    0.4674    1.2191   -1.2547 C   0  0  0  0  0  0  0  0  0  0  0  0
    1.2243    0.4121   -2.0148 C   0  0  0  0  0  0  0  0  0  0  0  0
    2.3844    1.7170    0.1960 C   0  0  0  0  0  0  0  0  0  0  0  0
    3.2007    0.7848   -0.6588 C   0  0  0  0  0  0  0  0  0  0  0  0
    2.6090    0.1946   -1.7065 C   0  0  0  0  0  0  0  0  0  0  0  0
   -4.0151   -0.7328    1.1077 C   0  0  0  0  0  0  0  0  0  0  0  0
   -4.4235   -1.4976    0.0276 C   0  0  0  0  0  0  0  0  0  0  0  0
   -4.9069    0.0629    1.8074 C   0  0  0  0  0  0  0  0  0  0  0  0
    4.5891    0.5541   -0.3483 C   0  0  0  0  0  0  0  0  0  0  0  0
   -5.7620   -1.4657   -0.3640 C   0  0  0  0  0  0  0  0  0  0  0  0
   -6.2453    0.0948    1.4161 C   0  0  0  0  0  0  0  0  0  0  0  0
   -6.6728   -0.6696    0.3303 C   0  0  0  0  0  0  0  0  0  0  0  0
    5.2123   -0.5998   -0.6174 C   0  0  0  0  0  0  0  0  0  0  0  0
    6.6248   -0.8858   -0.3109 C   0  0  0  0  0  0  0  0  0  0  0  0
    7.4996    0.1673   -0.0977 C   0  0  0  0  0  0  0  0  0  0  0  0
    7.0514   -2.2023   -0.2425 C   0  0  0  0  0  0  0  0  0  0  0  0
   -8.6214   -1.3313   -1.1152 C   0  0  0  0  0  0  0  0  0  0  0  0
    8.8370   -0.1035    0.1916 C   0  0  0  0  0  0  0  0  0  0  0  0
    8.3887   -2.4730    0.0470 C   0  0  0  0  0  0  0  0  0  0  0  0
  -10.0951   -1.0244   -1.2079 C   0  0  0  0  0  0  0  0  0  0  0  0
    9.2816   -1.4237    0.2639 C   0  0  0  0  0  0  0  0  0  0  0  0
   -1.6048    3.9247    0.6649 H   0  0  0  0  0  0  0  0  0  0  0  0
   -1.1742    1.2824   -2.6414 H   0  0  0  0  0  0  0  0  0  0  0  0
   -0.9377    3.5677   -1.7172 H   0  0  0  0  0  0  0  0  0  0  0  0
   -2.5473    2.9206   -1.3986 H   0  0  0  0  0  0  0  0  0  0  0  0
   -1.8235    1.9837    2.1806 H   0  0  0  0  0  0  0  0  0  0  0  0
   -3.1140    2.0640    0.9647 H   0  0  0  0  0  0  0  0  0  0  0  0
   -2.8911    0.4606   -1.1210 H   0  0  0  0  0  0  0  0  0  0  0  0
   -1.5116   -0.6618   -1.1232 H   0  0  0  0  0  0  0  0  0  0  0  0
    0.7071    3.8378    0.3806 H   0  0  0  0  0  0  0  0  0  0  0  0
    0.4443    2.6922    1.6807 H   0  0  0  0  0  0  0  0  0  0  0  0
    0.8114   -0.1175   -2.8669 H   0  0  0  0  0  0  0  0  0  0  0  0
    3.1358   -0.4681   -2.3862 H   0  0  0  0  0  0  0  0  0  0  0  0
   -3.7298   -2.1225   -0.5266 H   0  0  0  0  0  0  0  0  0  0  0  0
   -4.5942    0.6675    2.6532 H   0  0  0  0  0  0  0  0  0  0  0  0
    5.0977    1.3776    0.1423 H   0  0  0  0  0  0  0  0  0  0  0  0
   -6.0174   -2.0833   -1.2137 H   0  0  0  0  0  0  0  0  0  0  0  0
   -6.9442    0.7203    1.9657 H   0  0  0  0  0  0  0  0  0  0  0  0
    4.6749   -1.4324   -1.0659 H   0  0  0  0  0  0  0  0  0  0  0  0
   -8.6124   -0.0338    0.4955 H   0  0  0  0  0  0  0  0  0  0  0  0
    7.2046    1.2095   -0.1664 H   0  0  0  0  0  0  0  0  0  0  0  0
    6.3680   -3.0311   -0.4077 H   0  0  0  0  0  0  0  0  0  0  0  0
    9.5231    0.7239    0.3537 H   0  0  0  0  0  0  0  0  0  0  0  0
    8.7210   -3.5066    0.1006 H   0  0  0  0  0  0  0  0  0  0  0  0
  -10.5972   -1.3439   -0.2904 H   0  0  0  0  0  0  0  0  0  0  0  0
  -10.5321   -1.5576   -2.0567 H   0  0  0  0  0  0  0  0  0  0  0  0
  -10.2424    0.0499   -1.3505 H   0  0  0  0  0  0  0  0  0  0  0  0
  1 36  1  0  0  0  0
  2  3  2  0  0  0  0
  2  4  2  0  0  0  0
  2  7  1  0  0  0  0
  2 21  1  0  0  0  0
  5 18  2  0  0  0  0
  6 32  2  0  0  0  0
  7 13  1  0  0  0  0
  7 14  1  0  0  0  0
  8 15  1  0  0  0  0
  8 16  1  0  0  0  0
  8 18  1  0  0  0  0
  9 27  1  0  0  0  0
  9 32  1  0  0  0  0
  9 55  1  0  0  0  0
 10 12  1  0  0  0  0
 10 13  1  0  0  0  0
 10 15  1  0  0  0  0
 10 37  1  0  0  0  0
 11 12  1  0  0  0  0
 11 14  1  0  0  0  0
 11 16  1  0  0  0  0
 11 38  1  0  0  0  0
 12 39  1  0  0  0  0
 12 40  1  0  0  0  0
 13 41  1  0  0  0  0
 13 42  1  0  0  0  0
 14 43  1  0  0  0  0
 14 44  1  0  0  0  0
 15 45  1  0  0  0  0
 15 46  1  0  0  0  0
 16 17  2  0  0  0  0
 17 20  1  0  0  0  0
 17 47  1  0  0  0  0
 18 19  1  0  0  0  0
 19 20  2  0  0  0  0
 19 24  1  0  0  0  0
 20 48  1  0  0  0  0
 21 22  2  0  0  0  0
 21 23  1  0  0  0  0
 22 25  1  0  0  0  0
 22 49  1  0  0  0  0
 23 26  2  0  0  0  0
 23 50  1  0  0  0  0
 24 28  2  0  0  0  0
 24 51  1  0  0  0  0
 25 27  2  0  0  0  0
 25 52  1  0  0  0  0
 26 27  1  0  0  0  0
 26 53  1  0  0  0  0
 28 29  1  0  0  0  0
 28 54  1  0  0  0  0
 29 30  2  0  0  0  0
 29 31  1  0  0  0  0
 30 33  1  0  0  0  0
 30 56  1  0  0  0  0
 31 34  2  0  0  0  0
 31 57  1  0  0  0  0
 32 35  1  0  0  0  0
 33 36  2  0  0  0  0
 33 58  1  0  0  0  0
 34 36  1  0  0  0  0
 34 59  1  0  0  0  0
 35 60  1  0  0  0  0
 35 61  1  0  0  0  0
 35 62  1  0  0  0  0
M  END
> <PUBCHEM_COMPOUND_CID>
7143918

> <PUBCHEM_CONFORMER_RMSD>
1

> <PUBCHEM_CONFORMER_DIVERSEORDER>
1
11
13
7
2
9
3
8
12
4
10
6
5

> <PUBCHEM_MMFF94_PARTIAL_CHARGES>
47
1 -0.18
11 0.14
13 0.36
14 0.36
15 0.3
16 -0.03
17 -0.15
18 0.62
19 0.01
2 1.45
20 -0.15
21 -0.01
22 -0.15
23 -0.15
24 -0.15
25 -0.15
26 -0.15
27 0.12
28 -0.18
29 0.03
3 -0.65
30 -0.15
31 -0.15
32 0.57
33 -0.15
34 -0.15
35 0.06
36 0.18
4 -0.65
47 0.15
48 0.15
49 0.15
5 -0.57
50 0.15
51 0.15
52 0.15
53 0.15
54 0.15
55 0.37
56 0.15
57 0.15
58 0.15
59 0.15
6 -0.57
7 -0.85
8 -0.47
9 -0.55

> <PUBCHEM_EFFECTIVE_ROTOR_COUNT>
7

> <PUBCHEM_PHARMACOPHORE_FEATURES>
10
1 3 acceptor
1 4 acceptor
1 5 acceptor
1 6 acceptor
1 9 donor
6 21 22 23 25 26 27 rings
6 29 30 31 33 34 36 rings
6 7 10 11 12 13 14 rings
6 8 10 11 12 15 16 rings
6 8 16 17 18 19 20 rings

> <PUBCHEM_HEAVY_ATOM_COUNT>
36

> <PUBCHEM_ATOM_DEF_STEREO_COUNT>
2

> <PUBCHEM_ATOM_UDEF_STEREO_COUNT>
0

> <PUBCHEM_BOND_DEF_STEREO_COUNT>
1

> <PUBCHEM_BOND_UDEF_STEREO_COUNT>
0

> <PUBCHEM_ISOTOPIC_ATOM_COUNT>
0

> <PUBCHEM_COMPONENT_COUNT>
1

> <PUBCHEM_CACTVS_TAUTO_COUNT>
2

> <PUBCHEM_CONFORMER_ID>
006D01EE00000001

> <PUBCHEM_MMFF94_ENERGY>
93.4574

> <PUBCHEM_FEATURE_SELFOVERLAP>
52.35

> <PUBCHEM_SHAPE_FINGERPRINT>
10 15 14620797076890233110
10165383 225 8430319034604486357
10190206 1 15574704760761380853
10369192 42 9727639384370920249
10391435 84 17458634475520260600
10483366 6 16588019113589303389
106641 1 15913329095749930838
10670039 82 17313096455121610317
10674148 151 14490189440189374070
10930396 42 15051728681812194339
11297750 10 18410567401041764625
11408170 108 18411986827845747471
11409948 8 11671776114152446255
12120059 9 18114738364448721466
12202916 173 18341618117806256478
12760667 363 18333739013212337904
12838863 1 18273212028370965927
13811026 1 18335422356908678190
14068700 675 18412548712467697640
14117953 113 17458063772159625494
14747281 78 11818995167085838190
15064981 194 8934130694553780646
15131766 46 16770681130683890968
15183329 4 15864068784550740957
15188451 53 18187088339244920380
15198563 99 17167855336156483941
15350500 16 18273493481498085671
15392192 104 16845857893559939990
15706992 2 10807933795171944446
16728433 281 14708026793357500391
16992610 120 11169914970065316530
18393751 57 11600009842723770469
18603816 31 18341610455753347079
19302320 297 13398621759209929914
212700 22 18333732403870398386
21307412 95 17749395905405418971
21781055 127 12107773130362700612
21792961 116 17312825974928471265
23528940 14 18341608171775107702
23559900 14 17750527358177824364
23569917 315 18189340246750364763
23576562 1 15720527645341490695
2747138 104 12319469830883354943
3383291 50 18333456434788358866
3986486 107 17458334235952896303
3991529 128 14620509065733051362
4098825 35 10737276970389959192
4112364 45 13542456605594281482
4339292 15 18114177515646605486
4440575 13 18272082820991938703
474113 269 18412543197676604279
57303763 176 18338233749204096349
59682541 35 13830133901553765743
6081469 158 18334294283874984373
6126387 218 18342177744113665285
6703917 75 7925912595459042133

> <PUBCHEM_SHAPE_MULTIPOLES>
708.16
31.66
2.79
1.77
27.58
1.26
0.29
-30.76
-3.29
0.72
0.01
-2.76
-0.03
-1.36

> <PUBCHEM_SHAPE_SELFOVERLAP>
1522.867

> <PUBCHEM_SHAPE_VOLUME>
390.3

> <PUBCHEM_COORDINATE_TYPE>
2
5
10

$$$$
