71694378
  -OEChem-12032416403D

 85 89  0     1  0  0  0  0  0999 V2000
   -0.1741    2.2773    2.2600 O   0  0  0  0  0  0  0  0  0  0  0  0
    4.8895   -0.0950   -1.8029 O   0  0  0  0  0  0  0  0  0  0  0  0
   -0.9719   -2.4934    0.0789 O   0  0  0  0  0  0  0  0  0  0  0  0
    1.3531    0.5404    2.1685 N   0  0  0  0  0  0  0  0  0  0  0  0
    6.6195   -0.8254   -0.4418 N   0  0  0  0  0  0  0  0  0  0  0  0
   -1.5606   -0.7227    2.3108 N   0  0  0  0  0  0  0  0  0  0  0  0
   -6.3912   -1.6372   -0.9630 N   0  0  3  0  0  0  0  0  0  0  0  0
   10.0545    2.2372   -0.3591 N   0  0  0  0  0  0  0  0  0  0  0  0
   -8.7529    2.2114   -1.3053 N   0  0  0  0  0  0  0  0  0  0  0  0
    2.8371   -0.6363   -0.0470 C   0  0  1  0  0  0  0  0  0  0  0  0
    1.7592   -1.4100    0.7691 C   0  0  2  0  0  0  0  0  0  0  0  0
    2.5523    0.8813    0.0482 C   0  0  0  0  0  0  0  0  0  0  0  0
    1.6897   -0.8868    2.2164 C   0  0  0  0  0  0  0  0  0  0  0  0
    2.3635    1.3572    1.4911 C   0  0  0  0  0  0  0  0  0  0  0  0
    4.2853   -0.9391    0.3577 C   0  0  0  0  0  0  0  0  0  0  0  0
    1.9183   -2.9067    0.7359 C   0  0  0  0  0  0  0  0  0  0  0  0
    0.1172    1.0983    2.4939 C   0  0  0  0  0  0  0  0  0  0  0  0
    5.2743   -0.5769   -0.7343 C   0  0  0  0  0  0  0  0  0  0  0  0
    1.0541   -3.8357    0.2922 C   0  0  0  0  0  0  0  0  0  0  0  0
   -0.9092    0.2331    3.2018 C   0  0  0  0  0  0  0  0  0  0  0  0
   -0.3453   -3.7257   -0.2576 C   0  0  0  0  0  0  0  0  0  0  0  0
    7.6939   -0.5324   -1.3875 C   0  0  0  0  0  0  0  0  0  0  0  0
    7.0505   -1.3958    0.8287 C   0  0  0  0  0  0  0  0  0  0  0  0
   -2.1589   -0.1426    1.1104 C   0  0  0  0  0  0  0  0  0  0  0  0
   -2.9247   -1.1781    0.3043 C   0  0  0  0  0  0  0  0  0  0  0  0
   -2.3045   -2.3394   -0.2117 C   0  0  0  0  0  0  0  0  0  0  0  0
    8.2604    0.8433   -1.1856 C   0  0  0  0  0  0  0  0  0  0  0  0
   -4.2873   -0.9594    0.0431 C   0  0  0  0  0  0  0  0  0  0  0  0
   -3.0530   -3.2445   -0.9737 C   0  0  0  0  0  0  0  0  0  0  0  0
   -5.0236   -1.8711   -0.7114 C   0  0  0  0  0  0  0  0  0  0  0  0
   -4.4068   -3.0099   -1.2193 C   0  0  0  0  0  0  0  0  0  0  0  0
    7.5677    1.9725   -1.6078 C   0  0  0  0  0  0  0  0  0  0  0  0
    9.4890    1.0279   -0.5720 C   0  0  0  0  0  0  0  0  0  0  0  0
   -7.0442   -0.4573   -0.4314 C   0  0  0  0  0  0  0  0  0  0  0  0
    8.1170    3.2340   -1.4066 C   0  0  0  0  0  0  0  0  0  0  0  0
   -7.1641   -2.5773   -1.7502 C   0  0  0  0  0  0  0  0  0  0  0  0
   -6.8013    0.7539   -1.3308 C   0  0  0  0  0  0  0  0  0  0  0  0
    9.3519    3.3116   -0.7831 C   0  0  0  0  0  0  0  0  0  0  0  0
   -7.4990    2.0012   -0.8457 C   0  0  0  0  0  0  0  0  0  0  0  0
   -6.8396    2.8524    0.0263 C   0  0  0  0  0  0  0  0  0  0  0  0
   -7.5104    3.9927    0.4543 C   0  0  0  0  0  0  0  0  0  0  0  0
   -9.3733    3.3300   -0.8674 C   0  0  0  0  0  0  0  0  0  0  0  0
   -8.8017    4.2433    0.0036 C   0  0  0  0  0  0  0  0  0  0  0  0
    2.7027   -0.9301   -1.0978 H   0  0  0  0  0  0  0  0  0  0  0  0
    0.8146   -1.1430    0.2878 H   0  0  0  0  0  0  0  0  0  0  0  0
    1.6296    1.0913   -0.5094 H   0  0  0  0  0  0  0  0  0  0  0  0
    3.3427    1.4695   -0.4296 H   0  0  0  0  0  0  0  0  0  0  0  0
    0.9523   -1.4499    2.7917 H   0  0  0  0  0  0  0  0  0  0  0  0
    2.6498   -0.9937    2.7349 H   0  0  0  0  0  0  0  0  0  0  0  0
    3.2943    1.2809    2.0628 H   0  0  0  0  0  0  0  0  0  0  0  0
    2.0730    2.4127    1.4920 H   0  0  0  0  0  0  0  0  0  0  0  0
    4.4069   -2.0121    0.5249 H   0  0  0  0  0  0  0  0  0  0  0  0
    4.5491   -0.4066    1.2759 H   0  0  0  0  0  0  0  0  0  0  0  0
    2.8529   -3.2953    1.1361 H   0  0  0  0  0  0  0  0  0  0  0  0
    1.4071   -4.8665    0.3458 H   0  0  0  0  0  0  0  0  0  0  0  0
   -0.4281   -0.2917    4.0336 H   0  0  0  0  0  0  0  0  0  0  0  0
   -1.6626    0.8920    3.6510 H   0  0  0  0  0  0  0  0  0  0  0  0
   -0.2973   -3.8413   -1.3466 H   0  0  0  0  0  0  0  0  0  0  0  0
   -0.9228   -4.5540    0.1720 H   0  0  0  0  0  0  0  0  0  0  0  0
   -2.2763   -1.2212    2.8401 H   0  0  0  0  0  0  0  0  0  0  0  0
    7.2972   -0.6009   -2.4080 H   0  0  0  0  0  0  0  0  0  0  0  0
    8.4693   -1.3036   -1.3072 H   0  0  0  0  0  0  0  0  0  0  0  0
    7.7009   -0.6741    1.3323 H   0  0  0  0  0  0  0  0  0  0  0  0
    6.2488   -1.6591    1.5159 H   0  0  0  0  0  0  0  0  0  0  0  0
    7.6231   -2.3060    0.6231 H   0  0  0  0  0  0  0  0  0  0  0  0
   -1.3921    0.2822    0.4518 H   0  0  0  0  0  0  0  0  0  0  0  0
   -2.8289    0.6773    1.3967 H   0  0  0  0  0  0  0  0  0  0  0  0
   -4.7249   -0.0540    0.4500 H   0  0  0  0  0  0  0  0  0  0  0  0
   -2.6106   -4.1421   -1.3950 H   0  0  0  0  0  0  0  0  0  0  0  0
   -4.9355   -3.7483   -1.8143 H   0  0  0  0  0  0  0  0  0  0  0  0
    6.6052    1.8888   -2.1027 H   0  0  0  0  0  0  0  0  0  0  0  0
   10.0767    0.1861   -0.2190 H   0  0  0  0  0  0  0  0  0  0  0  0
   -6.7736   -0.2613    0.6134 H   0  0  0  0  0  0  0  0  0  0  0  0
   -8.1279   -0.6336   -0.3796 H   0  0  0  0  0  0  0  0  0  0  0  0
    7.5960    4.1280   -1.7294 H   0  0  0  0  0  0  0  0  0  0  0  0
   -8.1991   -2.2398   -1.8776 H   0  0  0  0  0  0  0  0  0  0  0  0
   -7.2095   -3.5578   -1.2636 H   0  0  0  0  0  0  0  0  0  0  0  0
   -6.7499   -2.6853   -2.7589 H   0  0  0  0  0  0  0  0  0  0  0  0
   -5.7317    0.9630   -1.4506 H   0  0  0  0  0  0  0  0  0  0  0  0
   -7.1631    0.5301   -2.3437 H   0  0  0  0  0  0  0  0  0  0  0  0
    9.8236    4.2719   -0.6031 H   0  0  0  0  0  0  0  0  0  0  0  0
   -5.8328    2.6465    0.3736 H   0  0  0  0  0  0  0  0  0  0  0  0
   -7.0280    4.6845    1.1383 H   0  0  0  0  0  0  0  0  0  0  0  0
  -10.3783    3.4794   -1.2481 H   0  0  0  0  0  0  0  0  0  0  0  0
   -9.3436    5.1256    0.3242 H   0  0  0  0  0  0  0  0  0  0  0  0
  1 17  2  0  0  0  0
  2 18  2  0  0  0  0
  3 21  1  0  0  0  0
  3 26  1  0  0  0  0
  4 13  1  0  0  0  0
  4 14  1  0  0  0  0
  4 17  1  0  0  0  0
  5 18  1  0  0  0  0
  5 22  1  0  0  0  0
  5 23  1  0  0  0  0
  6 20  1  0  0  0  0
  6 24  1  0  0  0  0
  6 60  1  0  0  0  0
  7 30  1  0  0  0  0
  7 34  1  0  0  0  0
  7 36  1  0  0  0  0
  8 33  1  0  0  0  0
  8 38  2  0  0  0  0
  9 39  1  0  0  0  0
  9 42  2  0  0  0  0
 10 11  1  0  0  0  0
 10 12  1  0  0  0  0
 10 15  1  0  0  0  0
 10 44  1  0  0  0  0
 11 13  1  0  0  0  0
 11 16  1  0  0  0  0
 11 45  1  0  0  0  0
 12 14  1  0  0  0  0
 12 46  1  0  0  0  0
 12 47  1  0  0  0  0
 13 48  1  0  0  0  0
 13 49  1  0  0  0  0
 14 50  1  0  0  0  0
 14 51  1  0  0  0  0
 15 18  1  0  0  0  0
 15 52  1  0  0  0  0
 15 53  1  0  0  0  0
 16 19  2  0  0  0  0
 16 54  1  0  0  0  0
 17 20  1  0  0  0  0
 19 21  1  0  0  0  0
 19 55  1  0  0  0  0
 20 56  1  0  0  0  0
 20 57  1  0  0  0  0
 21 58  1  0  0  0  0
 21 59  1  0  0  0  0
 22 27  1  0  0  0  0
 22 61  1  0  0  0  0
 22 62  1  0  0  0  0
 23 63  1  0  0  0  0
 23 64  1  0  0  0  0
 23 65  1  0  0  0  0
 24 25  1  0  0  0  0
 24 66  1  0  0  0  0
 24 67  1  0  0  0  0
 25 26  2  0  0  0  0
 25 28  1  0  0  0  0
 26 29  1  0  0  0  0
 27 32  1  0  0  0  0
 27 33  2  0  0  0  0
 28 30  2  0  0  0  0
 28 68  1  0  0  0  0
 29 31  2  0  0  0  0
 29 69  1  0  0  0  0
 30 31  1  0  0  0  0
 31 70  1  0  0  0  0
 32 35  2  0  0  0  0
 32 71  1  0  0  0  0
 33 72  1  0  0  0  0
 34 37  1  0  0  0  0
 34 73  1  0  0  0  0
 34 74  1  0  0  0  0
 35 38  1  0  0  0  0
 35 75  1  0  0  0  0
 36 76  1  0  0  0  0
 36 77  1  0  0  0  0
 36 78  1  0  0  0  0
 37 39  1  0  0  0  0
 37 79  1  0  0  0  0
 37 80  1  0  0  0  0
 38 81  1  0  0  0  0
 39 40  2  0  0  0  0
 40 41  1  0  0  0  0
 40 82  1  0  0  0  0
 41 43  2  0  0  0  0
 41 83  1  0  0  0  0
 42 43  1  0  0  0  0
 42 84  1  0  0  0  0
 43 85  1  0  0  0  0
M  END
> <PUBCHEM_COMPOUND_CID>
71694378

> <PUBCHEM_CONFORMER_RMSD>
1.4

> <PUBCHEM_CONFORMER_DIVERSEORDER>
1
212
224
99
167
88
171
151
119
180
186
46
187
37
199
76
225
207
98
150
120
130
206
108
210
163
27
67
145
220
112
35
148
155
111
200
81
142
164
201
93
64
181
214
19
138
51
149
162
129
219
43
126
26
176
74
175
157
194
52
211
16
204
131
161
223
80
221
17
218
103
61
178
179
195
222
156
196
105
188
22
33
72
102
132
45
147
173
94
216
44
177
137
128
172
192
107
154
184
165
77
174
104
198
29
28
40
79
116
141
73
54
87
50
68
38
203
36
152
55
205
170
109
100
168
89
115
106
123
30
96
56
208
41
124
48
217
166
49
34
24
60
21
97
189
5
85
31
144
7
193
185
4
191
23
62
110
140
92
63
95
136
169
47
209
71
82
122
159
25
127
18
215
69
183
32
9
66
160
75
84
197
139
143
83
65
213
86
20
125
117
11
133
59
182
114
10
202
153
6
101
118
134
2
14
12
121
113
15
70
146
135
91
58
190
13
57
53
78
158
42
3
90
39
8

> <PUBCHEM_MMFF94_PARTIAL_CHARGES>
55
1 -0.57
11 0.14
13 0.3
14 0.3
15 0.06
16 -0.29
17 0.57
18 0.57
19 -0.29
2 -0.57
20 0.33
21 0.42
22 0.44
23 0.3
24 0.41
25 -0.14
26 0.08
27 -0.14
28 -0.15
29 -0.15
3 -0.36
30 0.1
31 -0.15
32 -0.15
33 0.16
34 0.37
35 -0.15
36 0.37
37 0.14
38 0.16
39 0.17
4 -0.66
40 -0.15
41 -0.15
42 0.16
43 -0.15
5 -0.66
54 0.15
55 0.15
6 -0.9
60 0.36
68 0.15
69 0.15
7 -0.84
70 0.15
71 0.15
72 0.15
75 0.15
8 -0.62
81 0.15
82 0.15
83 0.15
84 0.15
85 0.15
9 -0.62

> <PUBCHEM_EFFECTIVE_ROTOR_COUNT>
10.8

> <PUBCHEM_PHARMACOPHORE_FEATURES>
12
1 1 acceptor
1 2 acceptor
1 3 acceptor
1 6 cation
1 6 donor
1 7 cation
1 8 acceptor
1 9 acceptor
6 25 26 28 29 30 31 rings
6 4 10 11 12 13 14 rings
6 8 27 32 33 35 38 rings
6 9 39 40 41 42 43 rings

> <PUBCHEM_HEAVY_ATOM_COUNT>
43

> <PUBCHEM_ATOM_DEF_STEREO_COUNT>
2

> <PUBCHEM_ATOM_UDEF_STEREO_COUNT>
0

> <PUBCHEM_BOND_DEF_STEREO_COUNT>
1

> <PUBCHEM_BOND_UDEF_STEREO_COUNT>
0

> <PUBCHEM_ISOTOPIC_ATOM_COUNT>
0

> <PUBCHEM_COMPONENT_COUNT>
1

> <PUBCHEM_CACTVS_TAUTO_COUNT>
4

> <PUBCHEM_CONFORMER_ID>
0445F82A00000001

> <PUBCHEM_MMFF94_ENERGY>
139.2271

> <PUBCHEM_FEATURE_SELFOVERLAP>
60.899

> <PUBCHEM_SHAPE_FINGERPRINT>
10190206 1 17917717868727645961
10483366 6 18129657492424898617
11181472 205 18335137553955175438
11408170 132 18341890801564998472
11578821 258 18263365944567850380
1200032 147 18114181878906578323
12124843 1 18131353002988680959
12133447 93 18201712968326570240
14931854 50 18131636664277863190
15064981 113 17203896262030605111
15781502 145 18408888429932510740
16728433 281 18130795495291774705
16992727 255 18410296934492313046
17852330 162 18271526497908901376
3633792 109 18334860546213853526
3711267 37 18187370942890851005
4339292 15 15410616939893448028
4616759 239 12468630604946978775
5776283 40 18413105056935660097
5937810 71 18334574634045264293
6698420 124 17676211264440974290

> <PUBCHEM_SHAPE_MULTIPOLES>
837.43
33.49
5.24
2.12
17.82
1.6
1.52
40.6
-21.46
-8.13
-1.29
0.42
0.37
-3.31

> <PUBCHEM_SHAPE_SELFOVERLAP>
1770.479

> <PUBCHEM_SHAPE_VOLUME>
461.8

> <PUBCHEM_COORDINATE_TYPE>
2
5
10

$$$$
