51136926
  -OEChem-12032416233D

 31 33  0     1  0  0  0  0  0999 V2000
    5.7806   -0.9863   -0.2420 F   0  0  0  0  0  0  0  0  0  0  0  0
   -1.1406    1.9597    0.3638 O   0  0  0  0  0  0  0  0  0  0  0  0
   -3.4784   -0.3444   -0.8907 N   0  0  1  0  0  0  0  0  0  0  0  0
   -0.5130   -0.1781    0.1343 N   0  0  0  0  0  0  0  0  0  0  0  0
    0.2584    1.9696    0.2964 N   0  0  0  0  0  0  0  0  0  0  0  0
    2.8638    1.1442    0.0928 N   0  0  0  0  0  0  0  0  0  0  0  0
   -3.0001    0.3747    0.3069 C   0  0  1  0  0  0  0  0  0  0  0  0
   -3.3979   -0.5274    1.4897 C   0  0  0  0  0  0  0  0  0  0  0  0
   -4.1465   -1.6960    0.8645 C   0  0  0  0  0  0  0  0  0  0  0  0
   -4.6268   -1.1432   -0.4621 C   0  0  0  0  0  0  0  0  0  0  0  0
   -1.5130    0.6570    0.2612 C   0  0  0  0  0  0  0  0  0  0  0  0
   -3.8101    0.5420   -1.9988 C   0  0  0  0  0  0  0  0  0  0  0  0
    0.5531    0.6732    0.1611 C   0  0  0  0  0  0  0  0  0  0  0  0
    1.9013    0.1957    0.0520 C   0  0  0  0  0  0  0  0  0  0  0  0
    2.1535   -1.1598   -0.0850 C   0  0  0  0  0  0  0  0  0  0  0  0
    3.4787   -1.5683   -0.1866 C   0  0  0  0  0  0  0  0  0  0  0  0
    4.1399    0.7094   -0.0088 C   0  0  0  0  0  0  0  0  0  0  0  0
    4.4970   -0.6220   -0.1486 C   0  0  0  0  0  0  0  0  0  0  0  0
   -3.5370    1.3270    0.4219 H   0  0  0  0  0  0  0  0  0  0  0  0
   -4.0708    0.0211    2.1603 H   0  0  0  0  0  0  0  0  0  0  0  0
   -2.5495   -0.8822    2.0848 H   0  0  0  0  0  0  0  0  0  0  0  0
   -3.4588   -2.5355    0.7030 H   0  0  0  0  0  0  0  0  0  0  0  0
   -4.9684   -2.0462    1.4958 H   0  0  0  0  0  0  0  0  0  0  0  0
   -4.8599   -1.9431   -1.1716 H   0  0  0  0  0  0  0  0  0  0  0  0
   -5.5220   -0.5259   -0.3139 H   0  0  0  0  0  0  0  0  0  0  0  0
   -2.9286    1.1077   -2.3190 H   0  0  0  0  0  0  0  0  0  0  0  0
   -4.6007    1.2552   -1.7393 H   0  0  0  0  0  0  0  0  0  0  0  0
   -4.1446   -0.0400   -2.8646 H   0  0  0  0  0  0  0  0  0  0  0  0
    1.3642   -1.9038   -0.1153 H   0  0  0  0  0  0  0  0  0  0  0  0
    3.7184   -2.6217   -0.2947 H   0  0  0  0  0  0  0  0  0  0  0  0
    4.8965    1.4862    0.0265 H   0  0  0  0  0  0  0  0  0  0  0  0
  1 18  1  0  0  0  0
  2  5  1  0  0  0  0
  2 11  1  0  0  0  0
  3  7  1  0  0  0  0
  3 10  1  0  0  0  0
  3 12  1  0  0  0  0
  4 11  2  0  0  0  0
  4 13  1  0  0  0  0
  5 13  2  0  0  0  0
  6 14  2  0  0  0  0
  6 17  1  0  0  0  0
  7  8  1  0  0  0  0
  7 11  1  0  0  0  0
  7 19  1  0  0  0  0
  8  9  1  0  0  0  0
  8 20  1  0  0  0  0
  8 21  1  0  0  0  0
  9 10  1  0  0  0  0
  9 22  1  0  0  0  0
  9 23  1  0  0  0  0
 10 24  1  0  0  0  0
 10 25  1  0  0  0  0
 12 26  1  0  0  0  0
 12 27  1  0  0  0  0
 12 28  1  0  0  0  0
 13 14  1  0  0  0  0
 14 15  1  0  0  0  0
 15 16  2  0  0  0  0
 15 29  1  0  0  0  0
 16 18  1  0  0  0  0
 16 30  1  0  0  0  0
 17 18  2  0  0  0  0
 17 31  1  0  0  0  0
M  END
> <PUBCHEM_COMPOUND_CID>
51136926

> <PUBCHEM_CONFORMER_RMSD>
0.6

> <PUBCHEM_CONFORMER_DIVERSEORDER>
1
17
18
21
24
2
19
23
10
12
14
4
5
8
3
16
22
20
11
6
13
15
9
7

> <PUBCHEM_MMFF94_PARTIAL_CHARGES>
19
1 -0.19
10 0.27
11 0.3
12 0.27
13 0.46
14 0.36
15 -0.15
16 -0.15
17 0.16
18 0.19
2 -0.02
29 0.15
3 -0.81
30 0.15
31 0.15
4 -0.57
5 -0.41
6 -0.62
7 0.45

> <PUBCHEM_EFFECTIVE_ROTOR_COUNT>
3

> <PUBCHEM_PHARMACOPHORE_FEATURES>
6
1 3 cation
1 6 acceptor
3 4 5 13 cation
5 2 4 5 11 13 rings
5 3 7 8 9 10 rings
6 6 14 15 16 17 18 rings

> <PUBCHEM_HEAVY_ATOM_COUNT>
18

> <PUBCHEM_ATOM_DEF_STEREO_COUNT>
1

> <PUBCHEM_ATOM_UDEF_STEREO_COUNT>
0

> <PUBCHEM_BOND_DEF_STEREO_COUNT>
0

> <PUBCHEM_BOND_UDEF_STEREO_COUNT>
0

> <PUBCHEM_ISOTOPIC_ATOM_COUNT>
0

> <PUBCHEM_COMPONENT_COUNT>
1

> <PUBCHEM_CACTVS_TAUTO_COUNT>
1

> <PUBCHEM_CONFORMER_ID>
030C499E00000001

> <PUBCHEM_MMFF94_ENERGY>
27.8379

> <PUBCHEM_FEATURE_SELFOVERLAP>
30.446

> <PUBCHEM_SHAPE_FINGERPRINT>
10680689 15 17167866361426708433
10803635 8 17676199152559092419
11046707 91 17632291281069295669
11543360 7 16588032341476599742
11806522 49 18409451371490656448
12032990 46 18410578396177978744
12236239 1 17489871565972822947
12596602 18 16271926042720931730
12633257 1 14979959202928672235
12670546 177 17603590763161277622
13288520 33 18272373057373663591
13296908 3 18408040714940924209
13544653 18 18413110562803593049
13760787 5 18343866636216882892
13862211 1 18412261714843357082
14004511 7 7925909283500738386
14123260 362 13117999981334785095
14178342 30 14692579853245711597
14252887 29 17632587028538900622
14289901 80 14836126584681859141
14386348 63 18334297586847396099
15188451 53 15051435146830807813
15375462 189 17775005703999950208
15880784 105 17203324541633022354
15961568 22 16371571556426791476
17870717 6 17748547043811012371
1813 80 17916883381634652133
18186145 218 17676206870541346961
18927931 339 18341903952195254406
193927 3 18342470230795854702
19433438 38 17749105586901095635
19489759 90 16732698354860666466
200 152 18272647935159405176
20112054 13 10592047959728118097
20261772 1 17846215579079275086
20281475 54 18341337772510861361
20325693 3 16805321098555850711
20645477 56 16950840315683028205
20645477 70 18411696569496931558
20871999 31 17385439921470200013
21267235 1 18341622516147633694
22094290 60 17167860881254043653
221490 88 18190468348766478819
22646028 1 18060137643568258762
22646028 28 18343021099122232291
23402539 116 18341332206317466240
23403322 49 18407478864615376667
23557571 272 17603583028241851133
23559900 14 18334570257172908888
26918003 58 18408886226260392307
27216 239 10735879478563321983
2871803 45 18334856100062605842
3268164 11 16226039007710252375
4921388 177 16515693255857189771
5104073 3 18271525287233779624
5283173 99 18114451254733699389
57265010 4 14333129693646903551
602551 16 15051724335188915428
6430166 295 9367344821306286402
83771 10 18272934929163875097
9709674 26 18340215076823941598

> <PUBCHEM_SHAPE_MULTIPOLES>
337.36
11.08
1.68
1.09
4.85
0.12
-0.29
-4.7
-1.59
-0.02
0.17
-1.67
0.03
0.79

> <PUBCHEM_SHAPE_SELFOVERLAP>
728.119

> <PUBCHEM_SHAPE_VOLUME>
188.7

> <PUBCHEM_COORDINATE_TYPE>
2
5
10

$$$$
