86769373
  -OEChem-12032416393D

 47 48  0     1  0  0  0  0  0999 V2000
    1.6524   -0.5056    0.8207 O   0  0  0  0  0  0  0  0  0  0  0  0
    4.5386   -0.4683    1.4182 O   0  0  0  0  0  0  0  0  0  0  0  0
   -2.7342   -1.6683   -1.0357 O   0  0  0  0  0  0  0  0  0  0  0  0
   -4.2964    0.5633    0.2382 O   0  0  0  0  0  0  0  0  0  0  0  0
    0.5814    2.0610    0.2014 N   0  0  0  0  0  0  0  0  0  0  0  0
   -1.4546   -2.1436   -1.2955 N   0  0  0  0  0  0  0  0  0  0  0  0
    2.5149    0.6340    0.7096 C   0  0  1  0  0  0  0  0  0  0  0  0
    3.9392    0.2203    0.3173 C   0  0  2  0  0  0  0  0  0  0  0  0
    1.5890   -1.3359   -0.3414 C   0  0  1  0  0  0  0  0  0  0  0  0
    3.9612   -0.7179   -0.8863 C   0  0  0  0  0  0  0  0  0  0  0  0
    2.9756   -1.8679   -0.6999 C   0  0  0  0  0  0  0  0  0  0  0  0
    1.9203    1.6851   -0.2254 C   0  0  0  0  0  0  0  0  0  0  0  0
    0.6311   -2.4809   -0.0349 C   0  0  0  0  0  0  0  0  0  0  0  0
   -0.8066   -2.0460   -0.1312 C   0  0  0  0  0  0  0  0  0  0  0  0
    0.0153    3.0713   -0.6832 C   0  0  0  0  0  0  0  0  0  0  0  0
   -1.6186   -1.5212    0.8891 C   0  0  0  0  0  0  0  0  0  0  0  0
    0.5720    4.4494   -0.3372 C   0  0  0  0  0  0  0  0  0  0  0  0
   -1.5058    3.0506   -0.5700 C   0  0  0  0  0  0  0  0  0  0  0  0
   -2.8196   -1.3008    0.2684 C   0  0  0  0  0  0  0  0  0  0  0  0
   -4.1133   -0.7720    0.7169 C   0  0  0  0  0  0  0  0  0  0  0  0
   -5.5418    1.0933    0.6609 C   0  0  0  0  0  0  0  0  0  0  0  0
    2.5553    1.0604    1.7207 H   0  0  0  0  0  0  0  0  0  0  0  0
    4.5542    1.1059    0.1227 H   0  0  0  0  0  0  0  0  0  0  0  0
    1.1976   -0.7547   -1.1849 H   0  0  0  0  0  0  0  0  0  0  0  0
    4.9658   -1.1313   -1.0341 H   0  0  0  0  0  0  0  0  0  0  0  0
    3.7018   -0.1622   -1.7949 H   0  0  0  0  0  0  0  0  0  0  0  0
    2.9330   -2.4713   -1.6138 H   0  0  0  0  0  0  0  0  0  0  0  0
    3.3414   -2.5192    0.1041 H   0  0  0  0  0  0  0  0  0  0  0  0
    2.5878    2.5537   -0.2205 H   0  0  0  0  0  0  0  0  0  0  0  0
    1.8870    1.3110   -1.2544 H   0  0  0  0  0  0  0  0  0  0  0  0
    0.8134   -2.8776    0.9720 H   0  0  0  0  0  0  0  0  0  0  0  0
    0.7857   -3.3074   -0.7405 H   0  0  0  0  0  0  0  0  0  0  0  0
   -0.0069    1.2277    0.2010 H   0  0  0  0  0  0  0  0  0  0  0  0
    5.4543   -0.6802    1.1688 H   0  0  0  0  0  0  0  0  0  0  0  0
    0.2532    2.8446   -1.7307 H   0  0  0  0  0  0  0  0  0  0  0  0
   -1.3689   -1.3300    1.9223 H   0  0  0  0  0  0  0  0  0  0  0  0
    1.6484    4.5189   -0.5212 H   0  0  0  0  0  0  0  0  0  0  0  0
    0.0922    5.2207   -0.9502 H   0  0  0  0  0  0  0  0  0  0  0  0
    0.3897    4.7027    0.7135 H   0  0  0  0  0  0  0  0  0  0  0  0
   -1.9541    3.8009   -1.2303 H   0  0  0  0  0  0  0  0  0  0  0  0
   -1.9096    2.0738   -0.8595 H   0  0  0  0  0  0  0  0  0  0  0  0
   -1.8366    3.2641    0.4528 H   0  0  0  0  0  0  0  0  0  0  0  0
   -4.9244   -1.4072    0.3413 H   0  0  0  0  0  0  0  0  0  0  0  0
   -4.1580   -0.7714    1.8124 H   0  0  0  0  0  0  0  0  0  0  0  0
   -5.6333    2.1108    0.2712 H   0  0  0  0  0  0  0  0  0  0  0  0
   -5.5925    1.1339    1.7533 H   0  0  0  0  0  0  0  0  0  0  0  0
   -6.3690    0.4946    0.2673 H   0  0  0  0  0  0  0  0  0  0  0  0
  1  7  1  0  0  0  0
  1  9  1  0  0  0  0
  2  8  1  0  0  0  0
  2 34  1  0  0  0  0
  3  6  1  0  0  0  0
  3 19  1  0  0  0  0
  4 20  1  0  0  0  0
  4 21  1  0  0  0  0
  5 12  1  0  0  0  0
  5 15  1  0  0  0  0
  5 33  1  0  0  0  0
  6 14  2  0  0  0  0
  7  8  1  0  0  0  0
  7 12  1  0  0  0  0
  7 22  1  0  0  0  0
  8 10  1  0  0  0  0
  8 23  1  0  0  0  0
  9 11  1  0  0  0  0
  9 13  1  0  0  0  0
  9 24  1  0  0  0  0
 10 11  1  0  0  0  0
 10 25  1  0  0  0  0
 10 26  1  0  0  0  0
 11 27  1  0  0  0  0
 11 28  1  0  0  0  0
 12 29  1  0  0  0  0
 12 30  1  0  0  0  0
 13 14  1  0  0  0  0
 13 31  1  0  0  0  0
 13 32  1  0  0  0  0
 14 16  1  0  0  0  0
 15 17  1  0  0  0  0
 15 18  1  0  0  0  0
 15 35  1  0  0  0  0
 16 19  2  0  0  0  0
 16 36  1  0  0  0  0
 17 37  1  0  0  0  0
 17 38  1  0  0  0  0
 17 39  1  0  0  0  0
 18 40  1  0  0  0  0
 18 41  1  0  0  0  0
 18 42  1  0  0  0  0
 19 20  1  0  0  0  0
 20 43  1  0  0  0  0
 20 44  1  0  0  0  0
 21 45  1  0  0  0  0
 21 46  1  0  0  0  0
 21 47  1  0  0  0  0
M  END
> <PUBCHEM_COMPOUND_CID>
86769373

> <PUBCHEM_CONFORMER_RMSD>
0.8

> <PUBCHEM_CONFORMER_DIVERSEORDER>
1
54
111
70
64
26
89
53
8
115
83
24
37
87
117
10
112
107
120
61
105
47
66
34
52
77
65
119
92
81
114
55
94
40
50
27
11
60
12
108
100
116
95
78
13
109
57
96
93
45
20
97
88
75
33
86
71
59
118
6
17
80
30
48
79
36
29
5
113
99
19
103
7
49
39
28
18
22
43
110
51
69
72
63
90
84
62
15
67
44
31
21
2
25
3
38
32
98
76
82
68
56
102
42
35
14
16
106
46
4
23
73
101
74
85
91
41
104
58
9

> <PUBCHEM_MMFF94_PARTIAL_CHARGES>
20
1 -0.56
12 0.27
13 0.18
14 0.11
15 0.27
16 -0.15
19 -0.04
2 -0.68
20 0.46
21 0.28
3 -0.02
33 0.36
34 0.4
36 0.15
4 -0.56
5 -0.9
6 -0.41
7 0.28
8 0.28
9 0.28

> <PUBCHEM_EFFECTIVE_ROTOR_COUNT>
8.2

> <PUBCHEM_PHARMACOPHORE_FEATURES>
10
1 1 acceptor
1 2 acceptor
1 2 donor
1 4 acceptor
1 5 cation
1 5 donor
1 6 acceptor
3 15 17 18 hydrophobe
5 3 6 14 16 19 rings
6 1 7 8 9 10 11 rings

> <PUBCHEM_HEAVY_ATOM_COUNT>
21

> <PUBCHEM_ATOM_DEF_STEREO_COUNT>
3

> <PUBCHEM_ATOM_UDEF_STEREO_COUNT>
0

> <PUBCHEM_BOND_DEF_STEREO_COUNT>
0

> <PUBCHEM_BOND_UDEF_STEREO_COUNT>
0

> <PUBCHEM_ISOTOPIC_ATOM_COUNT>
0

> <PUBCHEM_COMPONENT_COUNT>
1

> <PUBCHEM_CACTVS_TAUTO_COUNT>
1

> <PUBCHEM_CONFORMER_ID>
052BFEDD00000001

> <PUBCHEM_MMFF94_ENERGY>
25.2037

> <PUBCHEM_FEATURE_SELFOVERLAP>
50.747

> <PUBCHEM_SHAPE_FINGERPRINT>
10006869 2 17975967675421314453
104564 63 18336827503020559894
10688039 33 17968099673028764997
10708813 3 18127426557346501281
116883 192 18411426072851975932
12293681 4 18114190751776002466
12553582 1 18337952389178289076
12596602 18 13840275775681389741
12633257 1 18187077386466600203
12788726 201 18261402109367767912
13075007 39 17897193358254960777
13140716 1 18337666533166014536
13402501 40 18264488395657683957
14790565 3 17688034527950141316
15081414 286 18340781355239574889
15210252 30 18115608031365901772
15238133 3 18040721354933064482
1601671 61 18411426111021287416
17093844 170 18266739069546365841
17357779 13 18341040856989415836
17859628 37 18412549829395941389
18785283 64 18045801232192826505
19930381 70 17185033315823611771
20567600 299 18127692844833588761
21033648 29 17989483035274313307
21285901 2 18057619671936587638
21421861 104 18189324689930042682
22113638 7 18412543241043066853
23559900 14 16630530661431443970
238 59 17111558996299651301
3014063 31 18266180535151510821
3052486 1 18188771618121170580
3524813 1 18201432541443147249
5283268 108 18408612452165389592
5939293 188 18338237184032778996
7832392 63 18341050821334953143
81228 2 18409173177800609448

> <PUBCHEM_SHAPE_MULTIPOLES>
398.73
8.41
4.36
1.04
5.62
5.31
-0.01
-1.23
-2.03
0.45
1.17
-0.26
-0.26
0.09

> <PUBCHEM_SHAPE_SELFOVERLAP>
801.118

> <PUBCHEM_SHAPE_VOLUME>
236.3

> <PUBCHEM_COORDINATE_TYPE>
2
5
10

$$$$
