26744270
  -OEChem-12032416223D

 41 44  0     1  0  0  0  0  0999 V2000
   -1.5790    3.7801    0.0109 O   0  0  0  0  0  0  0  0  0  0  0  0
   -3.2304   -3.5367   -0.5749 O   0  0  0  0  0  0  0  0  0  0  0  0
    1.5025   -1.2603    1.6387 O   0  0  0  0  0  0  0  0  0  0  0  0
   -1.5302   -0.4096   -0.2568 N   0  0  2  0  0  0  0  0  0  0  0  0
    1.4367   -0.6278   -0.5090 N   0  0  0  0  0  0  0  0  0  0  0  0
    2.8269   -0.9896    1.2716 N   0  0  0  0  0  0  0  0  0  0  0  0
   -0.7417   -1.2466    0.6701 C   0  0  1  0  0  0  0  0  0  0  0  0
   -1.8153    0.9226    0.2709 C   0  0  0  0  0  0  0  0  0  0  0  0
   -1.1589   -2.6933    0.3460 C   0  0  0  0  0  0  0  0  0  0  0  0
   -2.7509   -1.1570   -0.5531 C   0  0  0  0  0  0  0  0  0  0  0  0
   -2.2174   -2.5641   -0.7422 C   0  0  2  0  0  0  0  0  0  0  0  0
    3.9170   -0.2230   -0.8551 C   0  0  0  0  0  0  0  0  0  0  0  0
    4.8116    0.8756   -0.3607 C   0  0  0  0  0  0  0  0  0  0  0  0
    3.9099    1.1142   -1.5362 C   0  0  0  0  0  0  0  0  0  0  0  0
   -0.5112    1.6687    0.5666 C   0  0  0  0  0  0  0  0  0  0  0  0
   -2.6717    1.7316   -0.7082 C   0  0  0  0  0  0  0  0  0  0  0  0
    0.7494   -1.0225    0.5329 C   0  0  0  0  0  0  0  0  0  0  0  0
    2.7058   -0.6226   -0.0077 C   0  0  0  0  0  0  0  0  0  0  0  0
   -0.8060    3.1005    1.0002 C   0  0  0  0  0  0  0  0  0  0  0  0
   -2.8469    3.1598   -0.2039 C   0  0  0  0  0  0  0  0  0  0  0  0
   -1.0314   -1.0472    1.7117 H   0  0  0  0  0  0  0  0  0  0  0  0
   -2.3768    0.8347    1.2128 H   0  0  0  0  0  0  0  0  0  0  0  0
   -0.3282   -3.3165   -0.0045 H   0  0  0  0  0  0  0  0  0  0  0  0
   -1.5733   -3.1778    1.2390 H   0  0  0  0  0  0  0  0  0  0  0  0
   -3.2481   -0.8232   -1.4697 H   0  0  0  0  0  0  0  0  0  0  0  0
   -3.4811   -1.1244    0.2664 H   0  0  0  0  0  0  0  0  0  0  0  0
   -1.7677   -2.6802   -1.7361 H   0  0  0  0  0  0  0  0  0  0  0  0
    4.3889   -1.0424   -1.3860 H   0  0  0  0  0  0  0  0  0  0  0  0
    5.8741    0.7845   -0.5514 H   0  0  0  0  0  0  0  0  0  0  0  0
    4.5681    1.3802    0.5664 H   0  0  0  0  0  0  0  0  0  0  0  0
    3.0620    1.7731   -1.3926 H   0  0  0  0  0  0  0  0  0  0  0  0
    4.3669    1.1836   -2.5159 H   0  0  0  0  0  0  0  0  0  0  0  0
    0.1134    1.7054   -0.3345 H   0  0  0  0  0  0  0  0  0  0  0  0
    0.0564    1.2130    1.3816 H   0  0  0  0  0  0  0  0  0  0  0  0
   -3.6656    1.2925   -0.8437 H   0  0  0  0  0  0  0  0  0  0  0  0
   -2.1794    1.7599   -1.6893 H   0  0  0  0  0  0  0  0  0  0  0  0
   -1.3374    3.1268    1.9589 H   0  0  0  0  0  0  0  0  0  0  0  0
    0.1312    3.6519    1.1268 H   0  0  0  0  0  0  0  0  0  0  0  0
   -3.3860    3.7539   -0.9487 H   0  0  0  0  0  0  0  0  0  0  0  0
   -3.4283    3.1871    0.7252 H   0  0  0  0  0  0  0  0  0  0  0  0
   -2.8084   -4.4109   -0.6324 H   0  0  0  0  0  0  0  0  0  0  0  0
  1 19  1  0  0  0  0
  1 20  1  0  0  0  0
  2 11  1  0  0  0  0
  2 41  1  0  0  0  0
  3  6  1  0  0  0  0
  3 17  1  0  0  0  0
  4  7  1  0  0  0  0
  4  8  1  0  0  0  0
  4 10  1  0  0  0  0
  5 17  2  0  0  0  0
  5 18  1  0  0  0  0
  6 18  2  0  0  0  0
  7  9  1  0  0  0  0
  7 17  1  0  0  0  0
  7 21  1  0  0  0  0
  8 15  1  0  0  0  0
  8 16  1  0  0  0  0
  8 22  1  0  0  0  0
  9 11  1  0  0  0  0
  9 23  1  0  0  0  0
  9 24  1  0  0  0  0
 10 11  1  0  0  0  0
 10 25  1  0  0  0  0
 10 26  1  0  0  0  0
 11 27  1  0  0  0  0
 12 13  1  0  0  0  0
 12 14  1  0  0  0  0
 12 18  1  0  0  0  0
 12 28  1  0  0  0  0
 13 14  1  0  0  0  0
 13 29  1  0  0  0  0
 13 30  1  0  0  0  0
 14 31  1  0  0  0  0
 14 32  1  0  0  0  0
 15 19  1  0  0  0  0
 15 33  1  0  0  0  0
 15 34  1  0  0  0  0
 16 20  1  0  0  0  0
 16 35  1  0  0  0  0
 16 36  1  0  0  0  0
 19 37  1  0  0  0  0
 19 38  1  0  0  0  0
 20 39  1  0  0  0  0
 20 40  1  0  0  0  0
M  END
> <PUBCHEM_COMPOUND_CID>
26744270

> <PUBCHEM_CONFORMER_RMSD>
0.8

> <PUBCHEM_CONFORMER_DIVERSEORDER>
1
11
28
26
18
10
12
21
32
17
33
29
31
22
27
15
6
24
16
19
5
13
3
9
2
14
8
20
23
4
30
7
25

> <PUBCHEM_MMFF94_PARTIAL_CHARGES>
23
1 -0.56
10 0.27
11 0.28
12 -0.01
13 -0.2
14 -0.2
17 0.3
18 0.43
19 0.28
2 -0.68
20 0.28
28 0.1
29 0.1
3 -0.02
30 0.1
31 0.1
32 0.1
4 -0.81
41 0.4
5 -0.57
6 -0.41
7 0.45
8 0.27

> <PUBCHEM_EFFECTIVE_ROTOR_COUNT>
5.8

> <PUBCHEM_PHARMACOPHORE_FEATURES>
8
1 1 acceptor
1 2 acceptor
1 2 donor
1 4 cation
3 5 6 18 cation
5 3 5 6 17 18 rings
5 4 7 9 10 11 rings
6 1 8 15 16 19 20 rings

> <PUBCHEM_HEAVY_ATOM_COUNT>
20

> <PUBCHEM_ATOM_DEF_STEREO_COUNT>
2

> <PUBCHEM_ATOM_UDEF_STEREO_COUNT>
0

> <PUBCHEM_BOND_DEF_STEREO_COUNT>
0

> <PUBCHEM_BOND_UDEF_STEREO_COUNT>
0

> <PUBCHEM_ISOTOPIC_ATOM_COUNT>
0

> <PUBCHEM_COMPONENT_COUNT>
1

> <PUBCHEM_CACTVS_TAUTO_COUNT>
1

> <PUBCHEM_CONFORMER_ID>
019815CE00000001

> <PUBCHEM_MMFF94_ENERGY>
32.365

> <PUBCHEM_FEATURE_SELFOVERLAP>
40.596

> <PUBCHEM_SHAPE_FINGERPRINT>
10498660 4 18411979157007172356
10670039 82 18048054140652491556
10871710 139 18188506760099037620
11640471 11 18041286448196492404
12173636 292 18267298742423818917
12553582 1 18267295611746321555
12788726 201 18408317800551171035
13009979 54 18116130239212379274
13583140 156 16735802117541386777
14123250 116 18334021579321939644
14142880 1 17967818236300532869
14787075 74 18113627798186782291
14790565 3 18269281166811972337
15475509 8 18130241440537220695
15534591 1 18260840249903341250
15842332 3 18042111099187228490
17134986 127 17833555595774445972
1813 80 17841174429898369407
18785283 64 17331134797340141233
20510252 161 18411987931509047299
20642791 35 18268145534250143905
20645476 183 18192150386782074883
20871999 31 18342453759786022871
20905425 154 18197494249659192612
21421566 26 17915743273944073358
21524375 3 17973729069098381272
23227448 37 18411705391396901796
23352939 185 17984434202185385371
23419403 2 17273688952230694728
235170 7 17702967927685139524
23557571 272 18201429294817045466
23558518 356 18261951847780630866
23559900 14 18129656375934316050
23566358 27 17044014356644785055
23598288 3 18335421236028079339
266924 1 18186790366803447442
2748010 2 18055329565330363073
3060560 45 17616257974943057582
352729 6 18052246298635032475
394222 165 17754170878088067113
458136 41 17623581843634637505
474 4 17687749337583470273
7164475 11 18410292519345378606
7364860 26 17476917326027671571
7615 1 17968642857595359674
81228 2 18272077314974967091
9981440 41 18188492497219081440

> <PUBCHEM_SHAPE_MULTIPOLES>
379.04
6.88
4.27
1.16
8.61
1.5
0.11
0.83
-2.53
-5.78
0.01
0.64
-0.06
-1.05

> <PUBCHEM_SHAPE_SELFOVERLAP>
798.7

> <PUBCHEM_SHAPE_VOLUME>
213.1

> <PUBCHEM_COORDINATE_TYPE>
2
5
10

$$$$
