45783386
  -OEChem-12032416263D

 55 58  0     1  0  0  0  0  0999 V2000
   -0.7641    0.0994    2.6732 O   0  0  0  0  0  0  0  0  0  0  0  0
    2.1140    4.6393    0.1594 O   0  5  0  0  0  0  0  0  0  0  0  0
    2.4354    3.4734   -1.6727 O   0  0  0  0  0  0  0  0  0  0  0  0
   -0.7765   -2.3532   -2.8123 O   0  0  0  0  0  0  0  0  0  0  0  0
   -3.1964   -0.2105    0.1560 N   0  0  1  0  0  0  0  0  0  0  0  0
   -0.3417   -1.2603    0.9441 N   0  0  0  0  0  0  0  0  0  0  0  0
    0.6285   -0.0416    2.6198 N   0  0  0  0  0  0  0  0  0  0  0  0
    1.3388   -1.4682   -1.1460 N   0  0  0  0  0  0  0  0  0  0  0  0
    1.7362    3.7852   -0.6785 N   0  3  0  0  0  0  0  0  0  0  0  0
    3.5859   -1.9994   -0.6289 N   0  0  0  0  0  0  0  0  0  0  0  0
   -2.7634   -0.6640    1.4929 C   0  0  1  0  0  0  0  0  0  0  0  0
   -3.3639   -2.0742    1.6410 C   0  0  0  0  0  0  0  0  0  0  0  0
   -4.1659   -2.3008    0.3673 C   0  0  0  0  0  0  0  0  0  0  0  0
   -4.4570   -0.8977   -0.1253 C   0  0  0  0  0  0  0  0  0  0  0  0
   -3.3269    1.2374    0.0550 C   0  0  0  0  0  0  0  0  0  0  0  0
   -1.2576   -0.6501    1.6529 C   0  0  0  0  0  0  0  0  0  0  0  0
   -1.9930    1.9084   -0.1376 C   0  0  0  0  0  0  0  0  0  0  0  0
   -1.5515    2.8607    0.7812 C   0  0  0  0  0  0  0  0  0  0  0  0
   -1.1985    1.5776   -1.2354 C   0  0  0  0  0  0  0  0  0  0  0  0
    0.7992   -0.8570    1.5748 C   0  0  0  0  0  0  0  0  0  0  0  0
   -0.3159    3.4824    0.6019 C   0  0  0  0  0  0  0  0  0  0  0  0
    0.0372    2.1994   -1.4146 C   0  0  0  0  0  0  0  0  0  0  0  0
    2.0950   -1.2885    1.1364 C   0  0  0  0  0  0  0  0  0  0  0  0
    0.4785    3.1518   -0.4960 C   0  0  0  0  0  0  0  0  0  0  0  0
    2.3757   -1.5907   -0.1864 C   0  0  0  0  0  0  0  0  0  0  0  0
    3.1225   -1.4137    2.0648 C   0  0  0  0  0  0  0  0  0  0  0  0
    4.3815   -1.8314    1.6479 C   0  0  0  0  0  0  0  0  0  0  0  0
    1.5329   -1.7567   -2.5290 C   0  0  0  0  0  0  0  0  0  0  0  0
    4.5600   -2.1094    0.3022 C   0  0  0  0  0  0  0  0  0  0  0  0
    0.2493   -1.4971   -3.2992 C   0  0  0  0  0  0  0  0  0  0  0  0
   -1.9983   -2.1506   -3.5088 C   0  0  0  0  0  0  0  0  0  0  0  0
   -3.2067   -0.0366    2.2791 H   0  0  0  0  0  0  0  0  0  0  0  0
   -2.6176   -2.8643    1.7768 H   0  0  0  0  0  0  0  0  0  0  0  0
   -4.0378   -2.0981    2.5063 H   0  0  0  0  0  0  0  0  0  0  0  0
   -5.0762   -2.8797    0.5487 H   0  0  0  0  0  0  0  0  0  0  0  0
   -3.5558   -2.8444   -0.3649 H   0  0  0  0  0  0  0  0  0  0  0  0
   -5.2928   -0.4625    0.4372 H   0  0  0  0  0  0  0  0  0  0  0  0
   -4.7018   -0.8893   -1.1920 H   0  0  0  0  0  0  0  0  0  0  0  0
   -3.8695    1.6575    0.9120 H   0  0  0  0  0  0  0  0  0  0  0  0
   -3.9270    1.4968   -0.8287 H   0  0  0  0  0  0  0  0  0  0  0  0
   -2.1592    3.1261    1.6421 H   0  0  0  0  0  0  0  0  0  0  0  0
   -1.5396    0.8474   -1.9624 H   0  0  0  0  0  0  0  0  0  0  0  0
   -0.0039    4.2186    1.3383 H   0  0  0  0  0  0  0  0  0  0  0  0
    0.6287    1.9187   -2.2823 H   0  0  0  0  0  0  0  0  0  0  0  0
    2.9718   -1.2008    3.1202 H   0  0  0  0  0  0  0  0  0  0  0  0
    0.5782   -0.8419   -0.9048 H   0  0  0  0  0  0  0  0  0  0  0  0
    2.3327   -1.1339   -2.9455 H   0  0  0  0  0  0  0  0  0  0  0  0
    1.8165   -2.8091   -2.6479 H   0  0  0  0  0  0  0  0  0  0  0  0
    5.1971   -1.9379    2.3539 H   0  0  0  0  0  0  0  0  0  0  0  0
    5.5228   -2.4390   -0.0739 H   0  0  0  0  0  0  0  0  0  0  0  0
   -0.0569   -0.4518   -3.1984 H   0  0  0  0  0  0  0  0  0  0  0  0
    0.4193   -1.7052   -4.3621 H   0  0  0  0  0  0  0  0  0  0  0  0
   -2.3517   -1.1238   -3.3753 H   0  0  0  0  0  0  0  0  0  0  0  0
   -1.8750   -2.3720   -4.5733 H   0  0  0  0  0  0  0  0  0  0  0  0
   -2.7467   -2.8318   -3.0950 H   0  0  0  0  0  0  0  0  0  0  0  0
  1  7  1  0  0  0  0
  1 16  1  0  0  0  0
  2  9  1  0  0  0  0
  3  9  2  0  0  0  0
  4 30  1  0  0  0  0
  4 31  1  0  0  0  0
  5 11  1  0  0  0  0
  5 14  1  0  0  0  0
  5 15  1  0  0  0  0
  6 16  2  0  0  0  0
  6 20  1  0  0  0  0
  7 20  2  0  0  0  0
  8 25  1  0  0  0  0
  8 28  1  0  0  0  0
  8 46  1  0  0  0  0
  9 24  1  0  0  0  0
 10 25  1  0  0  0  0
 10 29  2  0  0  0  0
 11 12  1  0  0  0  0
 11 16  1  0  0  0  0
 11 32  1  0  0  0  0
 12 13  1  0  0  0  0
 12 33  1  0  0  0  0
 12 34  1  0  0  0  0
 13 14  1  0  0  0  0
 13 35  1  0  0  0  0
 13 36  1  0  0  0  0
 14 37  1  0  0  0  0
 14 38  1  0  0  0  0
 15 17  1  0  0  0  0
 15 39  1  0  0  0  0
 15 40  1  0  0  0  0
 17 18  2  0  0  0  0
 17 19  1  0  0  0  0
 18 21  1  0  0  0  0
 18 41  1  0  0  0  0
 19 22  2  0  0  0  0
 19 42  1  0  0  0  0
 20 23  1  0  0  0  0
 21 24  2  0  0  0  0
 21 43  1  0  0  0  0
 22 24  1  0  0  0  0
 22 44  1  0  0  0  0
 23 25  2  0  0  0  0
 23 26  1  0  0  0  0
 26 27  2  0  0  0  0
 26 45  1  0  0  0  0
 27 29  1  0  0  0  0
 27 49  1  0  0  0  0
 28 30  1  0  0  0  0
 28 47  1  0  0  0  0
 28 48  1  0  0  0  0
 29 50  1  0  0  0  0
 30 51  1  0  0  0  0
 30 52  1  0  0  0  0
 31 53  1  0  0  0  0
 31 54  1  0  0  0  0
 31 55  1  0  0  0  0
M  CHG  2   2  -1   9   1
M  END
> <PUBCHEM_COMPOUND_CID>
45783386

> <PUBCHEM_CONFORMER_RMSD>
1

> <PUBCHEM_CONFORMER_DIVERSEORDER>
1
71
59
124
79
147
128
111
23
56
75
82
126
90
115
36
68
142
2
53
99
80
106
35
93
40
108
138
7
150
26
33
47
19
132
127
103
120
55
58
122
46
131
118
87
21
136
22
129
141
17
100
98
6
91
97
102
57
143
44
96
94
50
70
88
110
76
77
117
151
24
107
14
133
51
109
38
89
73
72
130
62
18
95
134
78
43
149
104
20
116
54
49
135
64
28
137
85
37
63
105
84
119
30
9
112
92
8
101
13
145
69
34
4
86
29
140
16
48
31
3
114
123
83
144
52
15
121
65
113
146
45
125
139
60
61
12
81
11
148
39
41
27
32
66
5
74
42
25
67
10

> <PUBCHEM_MMFF94_PARTIAL_CHARGES>
37
1 -0.02
10 -0.62
11 0.45
14 0.27
15 0.41
16 0.3
17 -0.14
18 -0.15
19 -0.15
2 -0.52
20 0.46
21 -0.15
22 -0.15
23 0.05
24 0.13
25 0.41
26 -0.15
27 -0.15
28 0.37
29 0.16
3 -0.52
30 0.28
31 0.28
4 -0.56
41 0.15
42 0.15
43 0.15
44 0.15
45 0.15
46 0.4
49 0.15
5 -0.81
50 0.15
6 -0.57
7 -0.41
8 -0.87
9 0.91

> <PUBCHEM_EFFECTIVE_ROTOR_COUNT>
10

> <PUBCHEM_PHARMACOPHORE_FEATURES>
13
1 10 acceptor
1 2 acceptor
1 2 anion
1 3 acceptor
1 4 acceptor
1 5 cation
1 8 cation
1 8 donor
3 6 7 20 cation
5 1 6 7 16 20 rings
5 5 11 12 13 14 rings
6 10 23 25 26 27 29 rings
6 17 18 19 21 22 24 rings

> <PUBCHEM_HEAVY_ATOM_COUNT>
31

> <PUBCHEM_ATOM_DEF_STEREO_COUNT>
1

> <PUBCHEM_ATOM_UDEF_STEREO_COUNT>
0

> <PUBCHEM_BOND_DEF_STEREO_COUNT>
0

> <PUBCHEM_BOND_UDEF_STEREO_COUNT>
0

> <PUBCHEM_ISOTOPIC_ATOM_COUNT>
0

> <PUBCHEM_COMPONENT_COUNT>
1

> <PUBCHEM_CACTVS_TAUTO_COUNT>
8

> <PUBCHEM_CONFORMER_ID>
02BA995A00000001

> <PUBCHEM_MMFF94_ENERGY>
79.0144

> <PUBCHEM_FEATURE_SELFOVERLAP>
66.054

> <PUBCHEM_SHAPE_FINGERPRINT>
1100329 8 18189338979133209849
133893 2 18046938079507427721
13583140 156 17982143675153382610
13615921 28 18114461171696504822
13761468 95 16595919959286218430
15876981 60 18042702610889205686
17818456 19 17320402511539120650
20028762 73 16535132917673728787
20600515 1 17972603186725219453
20905425 154 18190757507835405085
23419403 2 17387950179204114526
23557571 272 18267590091488079979
3298306 158 18046632488189408365
35225 105 17613681887755417479
469060 322 18055319570783931070
550186 7 17833829370566242158
59755656 215 17684374236961384139

> <PUBCHEM_SHAPE_MULTIPOLES>
584.6
6.72
4.91
3.17
2.61
7.27
-2.23
-5.62
2.42
0.37
-1.69
0.22
-2.49
-0.57

> <PUBCHEM_SHAPE_SELFOVERLAP>
1255.237

> <PUBCHEM_SHAPE_VOLUME>
324.5

> <PUBCHEM_COORDINATE_TYPE>
2
5
10

$$$$
