38030827
  -OEChem-12032416253D

 65 67  0     1  0  0  0  0  0999 V2000
    2.1546   -1.2742    0.6639 O   0  0  0  0  0  0  0  0  0  0  0  0
    6.6483    3.1349    0.4215 O   0  0  0  0  0  0  0  0  0  0  0  0
   -3.4275    1.6726    1.0611 N   0  0  1  0  0  0  0  0  0  0  0  0
    2.1081   -2.9716   -0.7925 N   0  0  0  0  0  0  0  0  0  0  0  0
    3.1993   -2.1787   -1.0953 N   0  0  0  0  0  0  0  0  0  0  0  0
   -7.3624    3.7426   -0.8814 N   0  0  0  0  0  0  0  0  0  0  0  0
   -2.3196   -0.4602   -0.6089 C   0  0  1  0  0  0  0  0  0  0  0  0
   -3.3961   -0.7112    0.4726 C   0  0  1  0  0  0  0  0  0  0  0  0
   -0.9567   -0.9931   -0.1452 C   0  0  0  0  0  0  0  0  0  0  0  0
   -0.9784   -2.4930    0.2193 C   0  0  2  0  0  0  0  0  0  0  0  0
   -2.7261   -1.0735   -1.9558 C   0  0  0  0  0  0  0  0  0  0  0  0
   -2.2432   -2.9088    0.9552 C   0  0  0  0  0  0  0  0  0  0  0  0
   -3.3081   -2.0936    1.0672 C   0  0  0  0  0  0  0  0  0  0  0  0
   -3.3213    0.3267    1.5972 C   0  0  0  0  0  0  0  0  0  0  0  0
    0.3010   -2.8263    0.9971 C   0  0  0  0  0  0  0  0  0  0  0  0
   -3.8104   -0.2300   -2.6189 C   0  0  0  0  0  0  0  0  0  0  0  0
   -1.5110   -1.2068   -2.8679 C   0  0  0  0  0  0  0  0  0  0  0  0
   -2.2946   -4.3041    1.5145 C   0  0  0  0  0  0  0  0  0  0  0  0
    1.5283   -2.4060    0.2403 C   0  0  0  0  0  0  0  0  0  0  0  0
   -4.8191    1.9934    0.7304 C   0  0  0  0  0  0  0  0  0  0  0  0
   -2.8969    2.6550    2.0110 C   0  0  0  0  0  0  0  0  0  0  0  0
   -4.8749    3.1298   -0.2875 C   0  0  0  0  0  0  0  0  0  0  0  0
    3.1868   -1.2006   -0.2202 C   0  0  0  0  0  0  0  0  0  0  0  0
   -6.2652    3.4712   -0.6186 C   0  0  0  0  0  0  0  0  0  0  0  0
    4.0763   -0.0878   -0.0548 C   0  0  0  0  0  0  0  0  0  0  0  0
    5.1636    0.0699   -0.9144 C   0  0  0  0  0  0  0  0  0  0  0  0
    3.8539    0.8373    0.9653 C   0  0  0  0  0  0  0  0  0  0  0  0
    6.0285    1.1523   -0.7537 C   0  0  0  0  0  0  0  0  0  0  0  0
    4.7189    1.9197    1.1260 C   0  0  0  0  0  0  0  0  0  0  0  0
    5.8061    2.0772    0.2664 C   0  0  0  0  0  0  0  0  0  0  0  0
    7.7380    3.2368   -0.4940 C   0  0  0  0  0  0  0  0  0  0  0  0
   -2.1883    0.6157   -0.7798 H   0  0  0  0  0  0  0  0  0  0  0  0
   -4.3876   -0.6645    0.0139 H   0  0  0  0  0  0  0  0  0  0  0  0
   -0.6701   -0.4209    0.7492 H   0  0  0  0  0  0  0  0  0  0  0  0
   -0.1679   -0.7580   -0.8665 H   0  0  0  0  0  0  0  0  0  0  0  0
   -0.9627   -3.0792   -0.7084 H   0  0  0  0  0  0  0  0  0  0  0  0
   -3.1354   -2.0812   -1.8121 H   0  0  0  0  0  0  0  0  0  0  0  0
   -4.1900   -2.4380    1.6034 H   0  0  0  0  0  0  0  0  0  0  0  0
   -2.3640    0.2034    2.1217 H   0  0  0  0  0  0  0  0  0  0  0  0
   -4.0965    0.1402    2.3541 H   0  0  0  0  0  0  0  0  0  0  0  0
    0.3786   -3.9058    1.1724 H   0  0  0  0  0  0  0  0  0  0  0  0
    0.2929   -2.3442    1.9829 H   0  0  0  0  0  0  0  0  0  0  0  0
   -3.4676    0.7961   -2.7918 H   0  0  0  0  0  0  0  0  0  0  0  0
   -4.7270   -0.1842   -2.0253 H   0  0  0  0  0  0  0  0  0  0  0  0
   -4.0837   -0.6532   -3.5920 H   0  0  0  0  0  0  0  0  0  0  0  0
   -0.9708   -0.2583   -2.9654 H   0  0  0  0  0  0  0  0  0  0  0  0
   -1.8339   -1.4888   -3.8777 H   0  0  0  0  0  0  0  0  0  0  0  0
   -0.8119   -1.9874   -2.5607 H   0  0  0  0  0  0  0  0  0  0  0  0
   -2.0132   -5.0319    0.7466 H   0  0  0  0  0  0  0  0  0  0  0  0
   -3.2976   -4.5716    1.8643 H   0  0  0  0  0  0  0  0  0  0  0  0
   -1.6132   -4.4060    2.3647 H   0  0  0  0  0  0  0  0  0  0  0  0
   -5.3402    1.1398    0.2828 H   0  0  0  0  0  0  0  0  0  0  0  0
   -5.3944    2.2459    1.6321 H   0  0  0  0  0  0  0  0  0  0  0  0
   -2.8999    3.6680    1.5982 H   0  0  0  0  0  0  0  0  0  0  0  0
   -1.8483    2.4323    2.2407 H   0  0  0  0  0  0  0  0  0  0  0  0
   -3.4558    2.6619    2.9540 H   0  0  0  0  0  0  0  0  0  0  0  0
   -4.3860    4.0333    0.0909 H   0  0  0  0  0  0  0  0  0  0  0  0
   -4.3449    2.8388   -1.2025 H   0  0  0  0  0  0  0  0  0  0  0  0
    5.3551   -0.6394   -1.7162 H   0  0  0  0  0  0  0  0  0  0  0  0
    3.0176    0.7487    1.6542 H   0  0  0  0  0  0  0  0  0  0  0  0
    6.8527    1.2144   -1.4561 H   0  0  0  0  0  0  0  0  0  0  0  0
    4.5406    2.6376    1.9220 H   0  0  0  0  0  0  0  0  0  0  0  0
    8.3033    4.1351   -0.2248 H   0  0  0  0  0  0  0  0  0  0  0  0
    7.3879    3.3759   -1.5225 H   0  0  0  0  0  0  0  0  0  0  0  0
    8.4234    2.3877   -0.3999 H   0  0  0  0  0  0  0  0  0  0  0  0
  1 19  1  0  0  0  0
  1 23  1  0  0  0  0
  2 30  1  0  0  0  0
  2 31  1  0  0  0  0
  3 14  1  0  0  0  0
  3 20  1  0  0  0  0
  3 21  1  0  0  0  0
  4  5  1  0  0  0  0
  4 19  2  0  0  0  0
  5 23  2  0  0  0  0
  6 24  3  0  0  0  0
  7  8  1  0  0  0  0
  7  9  1  0  0  0  0
  7 11  1  0  0  0  0
  7 32  1  0  0  0  0
  8 13  1  0  0  0  0
  8 14  1  0  0  0  0
  8 33  1  0  0  0  0
  9 10  1  0  0  0  0
  9 34  1  0  0  0  0
  9 35  1  0  0  0  0
 10 12  1  0  0  0  0
 10 15  1  0  0  0  0
 10 36  1  0  0  0  0
 11 16  1  0  0  0  0
 11 17  1  0  0  0  0
 11 37  1  0  0  0  0
 12 13  2  0  0  0  0
 12 18  1  0  0  0  0
 13 38  1  0  0  0  0
 14 39  1  0  0  0  0
 14 40  1  0  0  0  0
 15 19  1  0  0  0  0
 15 41  1  0  0  0  0
 15 42  1  0  0  0  0
 16 43  1  0  0  0  0
 16 44  1  0  0  0  0
 16 45  1  0  0  0  0
 17 46  1  0  0  0  0
 17 47  1  0  0  0  0
 17 48  1  0  0  0  0
 18 49  1  0  0  0  0
 18 50  1  0  0  0  0
 18 51  1  0  0  0  0
 20 22  1  0  0  0  0
 20 52  1  0  0  0  0
 20 53  1  0  0  0  0
 21 54  1  0  0  0  0
 21 55  1  0  0  0  0
 21 56  1  0  0  0  0
 22 24  1  0  0  0  0
 22 57  1  0  0  0  0
 22 58  1  0  0  0  0
 23 25  1  0  0  0  0
 25 26  2  0  0  0  0
 25 27  1  0  0  0  0
 26 28  1  0  0  0  0
 26 59  1  0  0  0  0
 27 29  2  0  0  0  0
 27 60  1  0  0  0  0
 28 30  2  0  0  0  0
 28 61  1  0  0  0  0
 29 30  1  0  0  0  0
 29 62  1  0  0  0  0
 31 63  1  0  0  0  0
 31 64  1  0  0  0  0
 31 65  1  0  0  0  0
M  END
> <PUBCHEM_COMPOUND_CID>
38030827

> <PUBCHEM_CONFORMER_RMSD>
1

> <PUBCHEM_CONFORMER_DIVERSEORDER>
15
201
96
17
42
39
131
195
116
210
223
145
224
170
91
183
150
154
80
26
108
31
258
190
196
92
132
75
45
90
140
265
233
11
180
38
162
43
57
184
263
25
58
71
139
229
273
55
64
20
86
226
93
169
205
120
173
189
191
197
252
267
72
262
124
29
274
185
109
245
209
117
13
19
204
216
198
249
214
272
227
261
76
105
100
89
79
246
12
21
193
18
112
141
103
239
49
67
66
181
32
158
219
168
266
62
37
148
128
47
251
95
133
281
179
10
247
52
206
163
164
165
231
264
171
121
149
118
24
156
138
85
65
51
235
113
135
221
177
155
194
253
44
144
186
174
35
127
167
211
238
202
134
97
248
54
8
83
208
161
107
1
255
88
63
101
123
129
87
59
99
74
41
160
111
188
192
115
16
232
203
199
228
46
271
2
260
50
270
34
9
225
78
136
243
212
234
153
36
53
215
23
157
22
82
182
125
230
106
244
137
172
279
56
269
268
110
159
40
68
7
122
277
69
222
250
102
81
257
240
61
3
220
33
147
60
48
27
175
4
278
143
276
142
178
146
28
84
237
130
218
200
14
241
256
259
73
187
151
280
119
275
236
254
104
30
166
5
114
242
152
213
207
94
176
77
126
217
70
6
98

> <PUBCHEM_MMFF94_PARTIAL_CHARGES>
31
1 -0.28
10 0.14
12 -0.28
13 -0.29
14 0.27
15 0.18
18 0.14
19 0.3
2 -0.36
20 0.27
21 0.27
22 0.2
23 0.43
24 0.36
25 0.05
26 -0.15
27 -0.15
28 -0.15
29 -0.15
3 -0.81
30 0.08
31 0.28
38 0.15
4 -0.34
5 -0.34
59 0.15
6 -0.56
60 0.15
61 0.15
62 0.15
8 0.14

> <PUBCHEM_EFFECTIVE_ROTOR_COUNT>
9.8

> <PUBCHEM_PHARMACOPHORE_FEATURES>
7
1 2 acceptor
1 3 cation
1 6 acceptor
3 11 16 17 hydrophobe
5 1 4 5 19 23 rings
6 25 26 27 28 29 30 rings
6 7 8 9 10 12 13 rings

> <PUBCHEM_HEAVY_ATOM_COUNT>
31

> <PUBCHEM_ATOM_DEF_STEREO_COUNT>
3

> <PUBCHEM_ATOM_UDEF_STEREO_COUNT>
0

> <PUBCHEM_BOND_DEF_STEREO_COUNT>
0

> <PUBCHEM_BOND_UDEF_STEREO_COUNT>
0

> <PUBCHEM_ISOTOPIC_ATOM_COUNT>
0

> <PUBCHEM_COMPONENT_COUNT>
1

> <PUBCHEM_CACTVS_TAUTO_COUNT>
1

> <PUBCHEM_CONFORMER_ID>
02444DEB0000000F

> <PUBCHEM_MMFF94_ENERGY>
72.0358

> <PUBCHEM_FEATURE_SELFOVERLAP>
35.522

> <PUBCHEM_SHAPE_FINGERPRINT>
11479125 193 18046886226911238213
14347329 18 18270682099549803264
15082195 135 17631722773227889407
15119646 57 17631748135036172433
15183329 4 15481848895262121164
15575132 122 18060698399162702949
19309040 13 18342454824727072166
20691028 202 18333454231243113620
20775530 9 10267190080727040658
21033648 29 18040718030580813975
21049683 118 17822850862837365475
21792965 68 18338793537718566412
22122407 14 18050295760865521201
22956985 138 15807788422073504746
23522609 53 17485649253135881233
27425 322 18268425729632861535
2838139 119 18058167409896379240
312425 83 17489038080329929254
354706 132 18335425711790144636
44062 13 9511193923025625890
469060 322 16805889601306406699
508706 21 18340764957112513592
5104073 3 18114179770410088746
57527585 21 18201709687156425543
6036956 94 17978225285646256805
7288768 16 18187088355623319971
9849439 229 18261109630347092163

> <PUBCHEM_SHAPE_MULTIPOLES>
606.3
17.2
5.41
1.95
19.35
0.99
-1.05
26.17
-2.12
-4.63
1.26
-2.29
-0.4
1.3

> <PUBCHEM_SHAPE_SELFOVERLAP>
1262.508

> <PUBCHEM_SHAPE_VOLUME>
343.6

> <PUBCHEM_COORDINATE_TYPE>
2
5
10

$$$$
