25390136
  -OEChem-12032416173D

 51 53  0     1  0  0  0  0  0999 V2000
   -6.6455    0.0842   -0.4201 F   0  0  0  0  0  0  0  0  0  0  0  0
    2.4555    0.1394   -0.5753 O   0  0  0  0  0  0  0  0  0  0  0  0
    5.1195    2.1538    0.7455 O   0  0  0  0  0  0  0  0  0  0  0  0
    5.1827    0.8894   -1.6970 O   0  0  0  0  0  0  0  0  0  0  0  0
    0.3390    3.1044    0.0936 O   0  0  0  0  0  0  0  0  0  0  0  0
    0.8480   -1.7223    1.1027 O   0  0  0  0  0  0  0  0  0  0  0  0
    2.2751   -2.7066   -0.4440 N   0  0  0  0  0  0  0  0  0  0  0  0
   -0.4652    1.1365    0.7989 N   0  0  0  0  0  0  0  0  0  0  0  0
    0.0592   -3.3496   -0.3511 N   0  0  0  0  0  0  0  0  0  0  0  0
   -1.0133    3.0832   -0.2706 N   0  0  0  0  0  0  0  0  0  0  0  0
    4.3355    0.9944    0.5619 C   0  0  2  0  0  0  0  0  0  0  0  0
    4.8338    0.1041   -0.5576 C   0  0  1  0  0  0  0  0  0  0  0  0
    2.9312    1.3252    0.0857 C   0  0  2  0  0  0  0  0  0  0  0  0
    3.5858   -0.7012   -0.9021 C   0  0  1  0  0  0  0  0  0  0  0  0
    1.9848    1.6968    1.2131 C   0  0  0  0  0  0  0  0  0  0  0  0
    3.4617   -1.9842   -0.0918 C   0  0  0  0  0  0  0  0  0  0  0  0
    0.5793    1.9215    0.7174 C   0  0  0  0  0  0  0  0  0  0  0  0
    1.0406   -2.5206    0.1866 C   0  0  0  0  0  0  0  0  0  0  0  0
   -1.4180    1.8918    0.1794 C   0  0  0  0  0  0  0  0  0  0  0  0
   -1.3053   -3.3553    0.1214 C   0  0  0  0  0  0  0  0  0  0  0  0
   -2.7657    1.4258    0.0249 C   0  0  0  0  0  0  0  0  0  0  0  0
   -1.4625   -4.3389    1.2738 C   0  0  0  0  0  0  0  0  0  0  0  0
   -2.2640   -3.6810   -1.0170 C   0  0  0  0  0  0  0  0  0  0  0  0
   -3.5937    1.9944   -0.9432 C   0  0  0  0  0  0  0  0  0  0  0  0
   -3.2484    0.4037    0.8423 C   0  0  0  0  0  0  0  0  0  0  0  0
   -4.9043    1.5412   -1.0934 C   0  0  0  0  0  0  0  0  0  0  0  0
   -4.5589   -0.0495    0.6921 C   0  0  0  0  0  0  0  0  0  0  0  0
   -5.3868    0.5194   -0.2758 C   0  0  0  0  0  0  0  0  0  0  0  0
    4.3055    0.4345    1.5043 H   0  0  0  0  0  0  0  0  0  0  0  0
    5.7061   -0.4953   -0.2822 H   0  0  0  0  0  0  0  0  0  0  0  0
    2.9511    2.1335   -0.6574 H   0  0  0  0  0  0  0  0  0  0  0  0
    3.5238   -0.9242   -1.9737 H   0  0  0  0  0  0  0  0  0  0  0  0
    2.3352    2.5980    1.7288 H   0  0  0  0  0  0  0  0  0  0  0  0
    1.9444    0.8887    1.9540 H   0  0  0  0  0  0  0  0  0  0  0  0
    3.4247   -1.7706    0.9820 H   0  0  0  0  0  0  0  0  0  0  0  0
    4.3145   -2.6433   -0.2838 H   0  0  0  0  0  0  0  0  0  0  0  0
    6.0285    1.8641    0.9330 H   0  0  0  0  0  0  0  0  0  0  0  0
    5.4597    0.2759   -2.3989 H   0  0  0  0  0  0  0  0  0  0  0  0
    2.3315   -3.3810   -1.2009 H   0  0  0  0  0  0  0  0  0  0  0  0
    0.3334   -4.0284   -1.0550 H   0  0  0  0  0  0  0  0  0  0  0  0
   -1.5406   -2.3512    0.4933 H   0  0  0  0  0  0  0  0  0  0  0  0
   -1.2175   -5.3599    0.9605 H   0  0  0  0  0  0  0  0  0  0  0  0
   -0.7954   -4.0808    2.1036 H   0  0  0  0  0  0  0  0  0  0  0  0
   -2.4894   -4.3353    1.6538 H   0  0  0  0  0  0  0  0  0  0  0  0
   -2.0678   -4.6762   -1.4312 H   0  0  0  0  0  0  0  0  0  0  0  0
   -2.1566   -2.9573   -1.8326 H   0  0  0  0  0  0  0  0  0  0  0  0
   -3.3034   -3.6524   -0.6739 H   0  0  0  0  0  0  0  0  0  0  0  0
   -3.2467    2.7877   -1.6007 H   0  0  0  0  0  0  0  0  0  0  0  0
   -2.6263   -0.0549    1.6072 H   0  0  0  0  0  0  0  0  0  0  0  0
   -5.5491    1.9824   -1.8477 H   0  0  0  0  0  0  0  0  0  0  0  0
   -4.9351   -0.8451    1.3284 H   0  0  0  0  0  0  0  0  0  0  0  0
  1 28  1  0  0  0  0
  2 13  1  0  0  0  0
  2 14  1  0  0  0  0
  3 11  1  0  0  0  0
  3 37  1  0  0  0  0
  4 12  1  0  0  0  0
  4 38  1  0  0  0  0
  5 10  1  0  0  0  0
  5 17  1  0  0  0  0
  6 18  2  0  0  0  0
  7 16  1  0  0  0  0
  7 18  1  0  0  0  0
  7 39  1  0  0  0  0
  8 17  2  0  0  0  0
  8 19  1  0  0  0  0
  9 18  1  0  0  0  0
  9 20  1  0  0  0  0
  9 40  1  0  0  0  0
 10 19  2  0  0  0  0
 11 12  1  0  0  0  0
 11 13  1  0  0  0  0
 11 29  1  0  0  0  0
 12 14  1  0  0  0  0
 12 30  1  0  0  0  0
 13 15  1  0  0  0  0
 13 31  1  0  0  0  0
 14 16  1  0  0  0  0
 14 32  1  0  0  0  0
 15 17  1  0  0  0  0
 15 33  1  0  0  0  0
 15 34  1  0  0  0  0
 16 35  1  0  0  0  0
 16 36  1  0  0  0  0
 19 21  1  0  0  0  0
 20 22  1  0  0  0  0
 20 23  1  0  0  0  0
 20 41  1  0  0  0  0
 21 24  2  0  0  0  0
 21 25  1  0  0  0  0
 22 42  1  0  0  0  0
 22 43  1  0  0  0  0
 22 44  1  0  0  0  0
 23 45  1  0  0  0  0
 23 46  1  0  0  0  0
 23 47  1  0  0  0  0
 24 26  1  0  0  0  0
 24 48  1  0  0  0  0
 25 27  2  0  0  0  0
 25 49  1  0  0  0  0
 26 28  2  0  0  0  0
 26 50  1  0  0  0  0
 27 28  1  0  0  0  0
 27 51  1  0  0  0  0
M  END
> <PUBCHEM_COMPOUND_CID>
25390136

> <PUBCHEM_CONFORMER_RMSD>
1

> <PUBCHEM_CONFORMER_DIVERSEORDER>
1
38
124
121
167
73
27
191
107
98
221
40
204
83
62
176
95
110
105
68
20
168
139
33
152
154
126
69
129
190
7
53
51
94
222
186
143
142
48
65
147
122
80
82
210
184
141
123
19
170
31
225
120
43
188
89
6
44
148
64
101
169
183
181
219
206
28
50
116
119
216
81
52
54
215
61
112
86
150
46
114
13
136
39
55
103
42
67
177
201
208
199
166
60
224
99
159
66
156
3
92
130
35
91
213
118
137
41
90
74
192
185
197
145
25
140
214
47
100
4
205
220
178
57
88
79
72
171
30
200
146
117
45
203
161
8
160
134
189
180
71
133
115
182
29
32
151
218
153
77
76
2
104
195
106
16
162
22
125
96
49
172
85
163
165
78
131
24
56
70
58
211
193
26
174
135
97
14
63
21
108
138
198
84
128
11
179
18
109
111
175
17
93
10
207
87
36
158
187
194
223
196
149
34
113
12
9
132
209
23
217
59
164
202
155
127
102
157
212
144
5
173
75
37
15

> <PUBCHEM_MMFF94_PARTIAL_CHARGES>
34
1 -0.19
10 -0.41
11 0.28
12 0.28
13 0.28
14 0.28
15 0.18
16 0.3
17 0.3
18 0.69
19 0.46
2 -0.56
20 0.3
21 0.05
24 -0.15
25 -0.15
26 -0.15
27 -0.15
28 0.19
3 -0.68
37 0.4
38 0.4
39 0.37
4 -0.68
40 0.37
48 0.15
49 0.15
5 -0.02
50 0.15
51 0.15
6 -0.57
7 -0.73
8 -0.57
9 -0.73

> <PUBCHEM_EFFECTIVE_ROTOR_COUNT>
9

> <PUBCHEM_PHARMACOPHORE_FEATURES>
13
1 2 acceptor
1 3 acceptor
1 3 donor
1 4 acceptor
1 4 donor
1 6 acceptor
1 7 donor
1 9 donor
3 20 22 23 hydrophobe
3 8 10 19 cation
5 2 11 12 13 14 rings
5 5 8 10 17 19 rings
6 21 24 25 26 27 28 rings

> <PUBCHEM_HEAVY_ATOM_COUNT>
28

> <PUBCHEM_ATOM_DEF_STEREO_COUNT>
4

> <PUBCHEM_ATOM_UDEF_STEREO_COUNT>
0

> <PUBCHEM_BOND_DEF_STEREO_COUNT>
0

> <PUBCHEM_BOND_UDEF_STEREO_COUNT>
0

> <PUBCHEM_ISOTOPIC_ATOM_COUNT>
0

> <PUBCHEM_COMPONENT_COUNT>
1

> <PUBCHEM_CACTVS_TAUTO_COUNT>
9

> <PUBCHEM_CONFORMER_ID>
01836C3800000001

> <PUBCHEM_MMFF94_ENERGY>
48.794

> <PUBCHEM_FEATURE_SELFOVERLAP>
66.032

> <PUBCHEM_SHAPE_FINGERPRINT>
10316853 100 18409730707600261459
10688039 33 17757839200812886298
108634 29 18342187660950844854
11135609 187 18411416186069895473
11578080 2 16485826199299462738
12596602 18 16988844990557472001
12597179 24 17628896096917273544
13402501 40 18410579500332791915
1361 2 18410570678886619427
13617811 41 18261109686678156677
14617045 38 18411423908167398669
14765038 42 18129964337383140593
14790565 3 18269560442532903145
14931854 50 18341336586941379374
15110567 62 18338798897431043699
15537594 2 18131066026438152861
17093844 170 18412542132872731536
17492 54 18337119994224569754
17627616 140 18335412422977097611
19591789 44 18339642244076581443
19930381 70 18194681463134920603
20028762 73 18056473959430582478
20775438 99 18130488782797128198
21033650 10 16517379760043603892
21304304 249 18337380532106319730
21344244 181 17917723387101517774
21360443 126 18263361545839927789
22393880 68 18122346778960255252
23516275 137 17202789049833014007
23559900 14 17760915256605922537
238 59 18193280697815704554
2871803 45 18340488859519499900
3052486 1 18264485260109622122
3298306 158 18335976485516101491
338550 245 18263927820583313487
4340502 62 18341886399207455264
46194498 28 17822294608611721429
463206 1 18341327885770322661
484989 97 18338246993970691890
5047190 48 16972789101145369561
508706 21 18265894846664397635
5171179 24 17626102310705949696

> <PUBCHEM_SHAPE_MULTIPOLES>
519.68
11.4
4.99
1.14
3.85
5.62
-0.05
-5.03
-2.84
1.22
0.41
-0.18
0.09
0.97

> <PUBCHEM_SHAPE_SELFOVERLAP>
1097.621

> <PUBCHEM_SHAPE_VOLUME>
294

> <PUBCHEM_COORDINATE_TYPE>
2
5
10

$$$$
