56774285
  -OEChem-12032416323D

 53 55  0     1  0  0  0  0  0999 V2000
    6.0374    0.3103   -0.6040 O   0  0  0  0  0  0  0  0  0  0  0  0
   -2.7827   -1.4997   -1.0963 O   0  0  0  0  0  0  0  0  0  0  0  0
    4.5315    3.7201   -0.3627 O   0  0  0  0  0  0  0  0  0  0  0  0
   -1.1603   -0.8411    0.4240 N   0  0  0  0  0  0  0  0  0  0  0  0
    5.2613   -0.8377   -0.7089 N   0  0  0  0  0  0  0  0  0  0  0  0
   -3.3788   -0.7997    1.0361 N   0  0  0  0  0  0  0  0  0  0  0  0
    0.8094   -2.3448   -0.1903 C   0  0  0  0  0  0  0  0  0  0  0  0
    2.0786   -1.5071   -0.4517 C   0  0  1  0  0  0  0  0  0  0  0  0
   -0.0011   -1.0595   -0.4576 C   0  0  2  0  0  0  0  0  0  0  0  0
    1.2554   -0.2706   -0.0343 C   0  0  0  0  0  0  0  0  0  0  0  0
    3.2843   -1.7889    0.4140 C   0  0  0  0  0  0  0  0  0  0  0  0
    0.6395   -2.8609    1.2268 C   0  0  0  0  0  0  0  0  0  0  0  0
    0.6164   -3.4740   -1.1784 C   0  0  0  0  0  0  0  0  0  0  0  0
    4.3241   -0.7087    0.2344 C   0  0  0  0  0  0  0  0  0  0  0  0
   -2.4721   -1.0851    0.0197 C   0  0  0  0  0  0  0  0  0  0  0  0
    4.4573    0.4885    0.9588 C   0  0  0  0  0  0  0  0  0  0  0  0
    5.5487    1.0921    0.3925 C   0  0  0  0  0  0  0  0  0  0  0  0
   -4.8042   -0.9663    0.8780 C   0  0  0  0  0  0  0  0  0  0  0  0
    6.2552    2.3544    0.6413 C   0  0  0  0  0  0  0  0  0  0  0  0
   -5.4611    0.2792    0.3574 C   0  0  0  0  0  0  0  0  0  0  0  0
    5.9294    3.4607   -0.3810 C   0  0  0  0  0  0  0  0  0  0  0  0
   -5.9369    1.2417    1.2479 C   0  0  0  0  0  0  0  0  0  0  0  0
   -5.5958    0.4739   -1.0172 C   0  0  0  0  0  0  0  0  0  0  0  0
   -6.5475    2.3987    0.7639 C   0  0  0  0  0  0  0  0  0  0  0  0
   -6.2061    1.6309   -1.5014 C   0  0  0  0  0  0  0  0  0  0  0  0
   -6.6821    2.5933   -0.6108 C   0  0  0  0  0  0  0  0  0  0  0  0
    2.3485   -1.4743   -1.5189 H   0  0  0  0  0  0  0  0  0  0  0  0
   -0.2506   -0.8967   -1.5148 H   0  0  0  0  0  0  0  0  0  0  0  0
    1.3022   -0.0116    1.0305 H   0  0  0  0  0  0  0  0  0  0  0  0
    1.4497    0.6363   -0.6152 H   0  0  0  0  0  0  0  0  0  0  0  0
    3.7180   -2.7617    0.1520 H   0  0  0  0  0  0  0  0  0  0  0  0
    3.0337   -1.8328    1.4799 H   0  0  0  0  0  0  0  0  0  0  0  0
    1.3645   -3.6536    1.4461 H   0  0  0  0  0  0  0  0  0  0  0  0
    0.7662   -2.0871    1.9915 H   0  0  0  0  0  0  0  0  0  0  0  0
   -0.3557   -3.2980    1.3721 H   0  0  0  0  0  0  0  0  0  0  0  0
    0.7095   -3.1270   -2.2136 H   0  0  0  0  0  0  0  0  0  0  0  0
    1.3606   -4.2640   -1.0291 H   0  0  0  0  0  0  0  0  0  0  0  0
   -0.3776   -3.9236   -1.0763 H   0  0  0  0  0  0  0  0  0  0  0  0
   -1.0247   -0.4915    1.3689 H   0  0  0  0  0  0  0  0  0  0  0  0
    3.8509    0.8597    1.7718 H   0  0  0  0  0  0  0  0  0  0  0  0
   -3.0288   -0.4391    1.9184 H   0  0  0  0  0  0  0  0  0  0  0  0
   -5.2143   -1.2358    1.8580 H   0  0  0  0  0  0  0  0  0  0  0  0
   -5.0027   -1.8112    0.2080 H   0  0  0  0  0  0  0  0  0  0  0  0
    7.3374    2.1806    0.6460 H   0  0  0  0  0  0  0  0  0  0  0  0
    5.9855    2.7154    1.6419 H   0  0  0  0  0  0  0  0  0  0  0  0
    6.2124    3.1517   -1.3926 H   0  0  0  0  0  0  0  0  0  0  0  0
    6.4629    4.3811   -0.1243 H   0  0  0  0  0  0  0  0  0  0  0  0
   -5.8365    1.1025    2.3210 H   0  0  0  0  0  0  0  0  0  0  0  0
   -5.2335   -0.2684   -1.7230 H   0  0  0  0  0  0  0  0  0  0  0  0
    4.3636    4.4215   -1.0149 H   0  0  0  0  0  0  0  0  0  0  0  0
   -6.9176    3.1483    1.4572 H   0  0  0  0  0  0  0  0  0  0  0  0
   -6.3116    1.7822   -2.5717 H   0  0  0  0  0  0  0  0  0  0  0  0
   -7.1574    3.4942   -0.9878 H   0  0  0  0  0  0  0  0  0  0  0  0
  1  5  1  0  0  0  0
  1 17  1  0  0  0  0
  2 15  2  0  0  0  0
  3 21  1  0  0  0  0
  3 50  1  0  0  0  0
  4  9  1  0  0  0  0
  4 15  1  0  0  0  0
  4 39  1  0  0  0  0
  5 14  2  0  0  0  0
  6 15  1  0  0  0  0
  6 18  1  0  0  0  0
  6 41  1  0  0  0  0
  7  8  1  0  0  0  0
  7  9  1  0  0  0  0
  7 12  1  0  0  0  0
  7 13  1  0  0  0  0
  8 10  1  0  0  0  0
  8 11  1  0  0  0  0
  8 27  1  0  0  0  0
  9 10  1  0  0  0  0
  9 28  1  0  0  0  0
 10 29  1  0  0  0  0
 10 30  1  0  0  0  0
 11 14  1  0  0  0  0
 11 31  1  0  0  0  0
 11 32  1  0  0  0  0
 12 33  1  0  0  0  0
 12 34  1  0  0  0  0
 12 35  1  0  0  0  0
 13 36  1  0  0  0  0
 13 37  1  0  0  0  0
 13 38  1  0  0  0  0
 14 16  1  0  0  0  0
 16 17  2  0  0  0  0
 16 40  1  0  0  0  0
 17 19  1  0  0  0  0
 18 20  1  0  0  0  0
 18 42  1  0  0  0  0
 18 43  1  0  0  0  0
 19 21  1  0  0  0  0
 19 44  1  0  0  0  0
 19 45  1  0  0  0  0
 20 22  2  0  0  0  0
 20 23  1  0  0  0  0
 21 46  1  0  0  0  0
 21 47  1  0  0  0  0
 22 24  1  0  0  0  0
 22 48  1  0  0  0  0
 23 25  2  0  0  0  0
 23 49  1  0  0  0  0
 24 26  2  0  0  0  0
 24 51  1  0  0  0  0
 25 26  1  0  0  0  0
 25 52  1  0  0  0  0
 26 53  1  0  0  0  0
M  END
> <PUBCHEM_COMPOUND_CID>
56774285

> <PUBCHEM_CONFORMER_RMSD>
1

> <PUBCHEM_CONFORMER_DIVERSEORDER>
3
106
26
186
190
83
56
147
184
63
16
120
130
210
51
60
191
163
89
45
98
177
139
122
80
176
203
71
194
104
131
6
87
132
44
151
201
153
111
161
25
127
171
121
197
1
158
170
67
157
58
37
145
196
110
88
185
209
93
124
24
178
79
179
82
118
213
205
159
114
85
22
144
207
198
113
109
43
180
68
32
148
183
108
119
46
149
146
27
72
117
136
137
66
154
195
53
57
92
50
49
168
102
34
165
42
199
156
142
76
141
152
77
75
101
192
212
73
172
193
128
74
112
54
135
39
181
91
200
133
47
31
20
115
175
208
36
64
188
59
107
95
81
65
100
78
11
138
155
204
96
143
17
86
162
28
61
167
2
103
15
123
189
38
116
105
4
52
174
12
40
173
202
134
211
14
160
129
19
62
97
94
5
13
182
70
33
126
90
7
69
35
99
150
30
29
125
169
55
8
23
21
9
48
10
18
206
164
166
140
187
41
84

> <PUBCHEM_MMFF94_PARTIAL_CHARGES>
30
1 -0.02
11 0.18
14 0.11
15 0.69
16 -0.15
17 -0.04
18 0.44
19 0.18
2 -0.57
20 -0.14
21 0.28
22 -0.15
23 -0.15
24 -0.15
25 -0.15
26 -0.15
3 -0.68
39 0.37
4 -0.65
40 0.15
41 0.37
48 0.15
49 0.15
5 -0.41
50 0.4
51 0.15
52 0.15
53 0.15
6 -0.73
9 0.22

> <PUBCHEM_EFFECTIVE_ROTOR_COUNT>
9.8

> <PUBCHEM_PHARMACOPHORE_FEATURES>
10
1 2 acceptor
1 3 acceptor
1 3 donor
1 4 donor
1 5 acceptor
1 6 donor
3 7 12 13 hydrophobe
4 7 8 9 10 rings
5 1 5 14 16 17 rings
6 20 22 23 24 25 26 rings

> <PUBCHEM_HEAVY_ATOM_COUNT>
26

> <PUBCHEM_ATOM_DEF_STEREO_COUNT>
2

> <PUBCHEM_ATOM_UDEF_STEREO_COUNT>
0

> <PUBCHEM_BOND_DEF_STEREO_COUNT>
0

> <PUBCHEM_BOND_UDEF_STEREO_COUNT>
0

> <PUBCHEM_ISOTOPIC_ATOM_COUNT>
0

> <PUBCHEM_COMPONENT_COUNT>
1

> <PUBCHEM_CACTVS_TAUTO_COUNT>
3

> <PUBCHEM_CONFORMER_ID>
03624E8D00000003

> <PUBCHEM_MMFF94_ENERGY>
44.7437

> <PUBCHEM_FEATURE_SELFOVERLAP>
50.797

> <PUBCHEM_SHAPE_FINGERPRINT>
10 15 17313108523198580309
10280341 67 17913196840524863512
10554248 39 17775004531579724606
10763959 59 18408328774418965412
10835480 77 18408319969556757825
11497681 19 9295018985856104986
11963148 33 9943526284867272756
12166972 35 9799399044996867035
12422481 6 17530683225440240005
12857493 111 17979074877964987998
13685833 64 8646764499849621802
13690498 29 17130127923080897703
13782708 43 10807931557393581155
13878862 14 18341315713927821404
13911852 28 8935004762994787619
14202776 33 17843960575415276903
14251764 30 10159702386652159763
14556957 393 17203336572237631705
14790565 3 18340487893051215732
14931854 50 17774733043135420928
15183329 4 15267341812248749789
15475509 35 10809348858157727862
20058555 10 18410575089333346225
20281389 69 18261111851114053451
20398071 356 8935003689469455881
20567600 247 8862939472518026421
20715895 44 18412261766430158248
21033648 29 18040716991642008506
21298829 104 18339922718600861780
21585482 111 18334012783234842084
21585483 110 18412541028829318225
21585483 132 8357966703032518961
21682296 61 9511454533768266857
2303208 19 9727628402134516067
2748736 6 18412255147120832993
2838139 119 18409442562085575135
328310 630 18131077021976495145
3472631 163 18271809055528035430
4046055 25 11095896968407999562
4169191 19 18408040732147797429
465052 167 10737284637027525162
50009960 94 10807118962968318676
5104073 3 17894908533689098603
5364581 5 17969231199527492001
5718773 13 9727091832371626884
59682541 52 16702031829175056702
6328613 192 18343019991100005761
6898599 12 18059006297880853519
7970288 3 9439409046489058252
999808 66 9943518635851680817

> <PUBCHEM_SHAPE_MULTIPOLES>
502.52
20.67
4.04
1.19
10.1
1.67
0.03
22.81
0.01
-3.94
0.55
1.19
-0.11
0.38

> <PUBCHEM_SHAPE_SELFOVERLAP>
1052.413

> <PUBCHEM_SHAPE_VOLUME>
285.7

> <PUBCHEM_COORDINATE_TYPE>
2
5
10

$$$$
