11887294
  -OEChem-12032416123D

 64 69  0     1  0  0  0  0  0999 V2000
    2.1103    3.0296    0.9190 O   0  0  0  0  0  0  0  0  0  0  0  0
    2.8363    0.1783    2.0301 O   0  0  0  0  0  0  0  0  0  0  0  0
   -1.9587    1.6125    0.8760 O   0  0  0  0  0  0  0  0  0  0  0  0
    5.9050   -3.7386   -0.0871 O   0  0  0  0  0  0  0  0  0  0  0  0
   -7.3174   -1.3183   -1.3736 O   0  0  0  0  0  0  0  0  0  0  0  0
    4.5161    1.6720   -0.8486 N   0  0  0  0  0  0  0  0  0  0  0  0
   -0.1779    0.2117    1.3367 N   0  0  0  0  0  0  0  0  0  0  0  0
    4.0264    2.5438   -1.7410 N   0  0  0  0  0  0  0  0  0  0  0  0
    5.5727    1.2520   -2.6951 N   0  0  0  0  0  0  0  0  0  0  0  0
    4.6767    2.2826   -2.8683 N   0  0  0  0  0  0  0  0  0  0  0  0
   -2.1263   -0.7042    0.5360 N   0  0  0  0  0  0  0  0  0  0  0  0
    2.8186    0.7624    0.7148 C   0  0  1  0  0  0  0  0  0  0  0  0
    1.6297    1.7017    0.6576 C   0  0  1  0  0  0  0  0  0  0  0  0
    4.0279    1.6599    0.5329 C   0  0  2  0  0  0  0  0  0  0  0  0
    0.7327    1.2380    1.7833 C   0  0  2  0  0  0  0  0  0  0  0  0
    3.5377    3.0056    1.0562 C   0  0  0  0  0  0  0  0  0  0  0  0
    1.7299    0.6892    2.7867 C   0  0  0  0  0  0  0  0  0  0  0  0
    5.4571    0.8896   -1.4382 C   0  0  0  0  0  0  0  0  0  0  0  0
   -1.4832    0.4799    0.9070 C   0  0  0  0  0  0  0  0  0  0  0  0
    6.1871   -0.1551   -0.7670 C   0  0  0  0  0  0  0  0  0  0  0  0
    5.6859   -1.4566   -0.7508 C   0  0  0  0  0  0  0  0  0  0  0  0
    7.3958    0.1348   -0.1340 C   0  0  0  0  0  0  0  0  0  0  0  0
   -3.4455   -0.8601    0.0501 C   0  0  0  0  0  0  0  0  0  0  0  0
    6.3935   -2.4684   -0.1018 C   0  0  0  0  0  0  0  0  0  0  0  0
    8.1034   -0.8770    0.5152 C   0  0  0  0  0  0  0  0  0  0  0  0
    7.6022   -2.1785    0.5312 C   0  0  0  0  0  0  0  0  0  0  0  0
   -3.9244   -2.1299   -0.2722 C   0  0  0  0  0  0  0  0  0  0  0  0
   -4.2677    0.2559   -0.1059 C   0  0  0  0  0  0  0  0  0  0  0  0
   -5.2257   -2.2837   -0.7504 C   0  0  0  0  0  0  0  0  0  0  0  0
   -5.5689    0.1020   -0.5842 C   0  0  0  0  0  0  0  0  0  0  0  0
   -6.0479   -1.1678   -0.9064 C   0  0  0  0  0  0  0  0  0  0  0  0
    6.6798   -4.7246    0.5935 C   0  0  0  0  0  0  0  0  0  0  0  0
   -8.3284   -0.6315   -0.7226 C   0  0  0  0  0  0  0  0  0  0  0  0
   -8.3793   -0.6214    0.6713 C   0  0  0  0  0  0  0  0  0  0  0  0
   -9.2960    0.0499   -1.4608 C   0  0  0  0  0  0  0  0  0  0  0  0
   -9.3977    0.0704    1.3269 C   0  0  0  0  0  0  0  0  0  0  0  0
  -10.3145    0.7417   -0.8051 C   0  0  0  0  0  0  0  0  0  0  0  0
  -10.3653    0.7520    0.5888 C   0  0  0  0  0  0  0  0  0  0  0  0
    2.7471   -0.0592   -0.0049 H   0  0  0  0  0  0  0  0  0  0  0  0
    1.1472    1.7172   -0.3250 H   0  0  0  0  0  0  0  0  0  0  0  0
    4.8793    1.3396    1.1445 H   0  0  0  0  0  0  0  0  0  0  0  0
    0.1520    2.0543    2.2261 H   0  0  0  0  0  0  0  0  0  0  0  0
    3.9701    3.8755    0.5532 H   0  0  0  0  0  0  0  0  0  0  0  0
    3.7541    3.0984    2.1266 H   0  0  0  0  0  0  0  0  0  0  0  0
    1.3268   -0.1049    3.4224 H   0  0  0  0  0  0  0  0  0  0  0  0
    2.1165    1.4858    3.4319 H   0  0  0  0  0  0  0  0  0  0  0  0
    0.1645   -0.7420    1.2691 H   0  0  0  0  0  0  0  0  0  0  0  0
   -1.5883   -1.5627    0.6237 H   0  0  0  0  0  0  0  0  0  0  0  0
    4.7440   -1.6926   -1.2416 H   0  0  0  0  0  0  0  0  0  0  0  0
    7.7995    1.1445   -0.1375 H   0  0  0  0  0  0  0  0  0  0  0  0
    9.0445   -0.6501    1.0079 H   0  0  0  0  0  0  0  0  0  0  0  0
    8.2026   -2.9156    1.0533 H   0  0  0  0  0  0  0  0  0  0  0  0
   -3.2942   -3.0077   -0.1550 H   0  0  0  0  0  0  0  0  0  0  0  0
   -3.9672    1.2699    0.1165 H   0  0  0  0  0  0  0  0  0  0  0  0
   -5.5936   -3.2753   -0.9996 H   0  0  0  0  0  0  0  0  0  0  0  0
   -6.1800    0.9908   -0.7184 H   0  0  0  0  0  0  0  0  0  0  0  0
    7.6580   -4.8645    0.1208 H   0  0  0  0  0  0  0  0  0  0  0  0
    6.7634   -4.5029    1.6629 H   0  0  0  0  0  0  0  0  0  0  0  0
    6.1433   -5.6749    0.5051 H   0  0  0  0  0  0  0  0  0  0  0  0
   -7.6516   -1.1620    1.2706 H   0  0  0  0  0  0  0  0  0  0  0  0
   -9.2610    0.0455   -2.5468 H   0  0  0  0  0  0  0  0  0  0  0  0
   -9.4404    0.0743    2.4122 H   0  0  0  0  0  0  0  0  0  0  0  0
  -11.0679    1.2723   -1.3798 H   0  0  0  0  0  0  0  0  0  0  0  0
  -11.1590    1.2897    1.0994 H   0  0  0  0  0  0  0  0  0  0  0  0
  1 13  1  0  0  0  0
  1 16  1  0  0  0  0
  2 12  1  0  0  0  0
  2 17  1  0  0  0  0
  3 19  2  0  0  0  0
  4 24  1  0  0  0  0
  4 32  1  0  0  0  0
  5 31  1  0  0  0  0
  5 33  1  0  0  0  0
  6  8  1  0  0  0  0
  6 14  1  0  0  0  0
  6 18  1  0  0  0  0
  7 15  1  0  0  0  0
  7 19  1  0  0  0  0
  7 47  1  0  0  0  0
  8 10  2  0  0  0  0
  9 10  1  0  0  0  0
  9 18  2  0  0  0  0
 11 19  1  0  0  0  0
 11 23  1  0  0  0  0
 11 48  1  0  0  0  0
 12 13  1  0  0  0  0
 12 14  1  0  0  0  0
 12 39  1  0  0  0  0
 13 15  1  0  0  0  0
 13 40  1  0  0  0  0
 14 16  1  0  0  0  0
 14 41  1  0  0  0  0
 15 17  1  0  0  0  0
 15 42  1  0  0  0  0
 16 43  1  0  0  0  0
 16 44  1  0  0  0  0
 17 45  1  0  0  0  0
 17 46  1  0  0  0  0
 18 20  1  0  0  0  0
 20 21  2  0  0  0  0
 20 22  1  0  0  0  0
 21 24  1  0  0  0  0
 21 49  1  0  0  0  0
 22 25  2  0  0  0  0
 22 50  1  0  0  0  0
 23 27  2  0  0  0  0
 23 28  1  0  0  0  0
 24 26  2  0  0  0  0
 25 26  1  0  0  0  0
 25 51  1  0  0  0  0
 26 52  1  0  0  0  0
 27 29  1  0  0  0  0
 27 53  1  0  0  0  0
 28 30  2  0  0  0  0
 28 54  1  0  0  0  0
 29 31  2  0  0  0  0
 29 55  1  0  0  0  0
 30 31  1  0  0  0  0
 30 56  1  0  0  0  0
 32 57  1  0  0  0  0
 32 58  1  0  0  0  0
 32 59  1  0  0  0  0
 33 34  2  0  0  0  0
 33 35  1  0  0  0  0
 34 36  1  0  0  0  0
 34 60  1  0  0  0  0
 35 37  2  0  0  0  0
 35 61  1  0  0  0  0
 36 38  2  0  0  0  0
 36 62  1  0  0  0  0
 37 38  1  0  0  0  0
 37 63  1  0  0  0  0
 38 64  1  0  0  0  0
M  END
> <PUBCHEM_COMPOUND_CID>
11887294

> <PUBCHEM_CONFORMER_RMSD>
1.4

> <PUBCHEM_CONFORMER_DIVERSEORDER>
1
117
124
40
107
19
52
65
118
54
66
44
20
99
98
46
32
136
12
80
128
72
81
71
84
75
62
76
125
68
5
106
24
79
91
15
137
56
85
30
90
63
122
94
17
93
74
69
96
70
88
123
133
77
18
8
134
104
11
58
50
108
130
141
23
138
45
140
126
97
103
48
78
26
33
129
86
64
110
119
7
121
109
95
31
102
87
67
115
114
28
83
41
89
139
35
132
39
55
4
6
29
112
105
42
135
57
111
116
73
101
36
13
59
43
22
47
60
14
92
100
113
49
37
61
51
27
10
53
82
34
127
2
3
25
120
21
16
131
38
9

> <PUBCHEM_MMFF94_PARTIAL_CHARGES>
52
1 -0.56
11 -0.55
12 0.28
13 0.28
14 0.26
15 0.3
16 0.28
17 0.28
18 0.13
19 0.69
2 -0.56
20 0.05
21 -0.15
22 -0.15
23 0.12
24 0.08
25 -0.15
26 -0.15
27 -0.15
28 -0.15
29 -0.15
3 -0.57
30 -0.15
31 0.08
32 0.28
33 0.08
34 -0.15
35 -0.15
36 -0.15
37 -0.15
38 -0.15
4 -0.36
47 0.37
48 0.37
49 0.15
5 -0.17
50 0.15
51 0.15
52 0.15
53 0.15
54 0.15
55 0.15
56 0.15
6 0.31
60 0.15
61 0.15
62 0.15
63 0.15
64 0.15
7 -0.73
8 -0.42
9 -0.34

> <PUBCHEM_EFFECTIVE_ROTOR_COUNT>
10.2

> <PUBCHEM_PHARMACOPHORE_FEATURES>
14
1 1 acceptor
1 11 donor
1 2 acceptor
1 3 acceptor
1 4 acceptor
1 5 acceptor
1 7 donor
3 6 9 18 cation
5 1 12 13 14 16 rings
5 2 12 13 15 17 rings
5 6 8 9 10 18 rings
6 20 21 22 24 25 26 rings
6 23 27 28 29 30 31 rings
6 33 34 35 36 37 38 rings

> <PUBCHEM_HEAVY_ATOM_COUNT>
38

> <PUBCHEM_ATOM_DEF_STEREO_COUNT>
4

> <PUBCHEM_ATOM_UDEF_STEREO_COUNT>
0

> <PUBCHEM_BOND_DEF_STEREO_COUNT>
0

> <PUBCHEM_BOND_UDEF_STEREO_COUNT>
0

> <PUBCHEM_ISOTOPIC_ATOM_COUNT>
0

> <PUBCHEM_COMPONENT_COUNT>
1

> <PUBCHEM_CACTVS_TAUTO_COUNT>
3

> <PUBCHEM_CONFORMER_ID>
00B562BE00000001

> <PUBCHEM_MMFF94_ENERGY>
123.1495

> <PUBCHEM_FEATURE_SELFOVERLAP>
71.794

> <PUBCHEM_SHAPE_FINGERPRINT>
10 15 8286203855482561749
10917259 69 17346046559595898753
11115154 58 18334574654982498112
11146346 171 14562528449090802121
11146346 178 18267300924214451335
11966995 178 16153427250995143957
12098696 120 16805598196517989781
12355185 293 18334287661162703341
12522641 24 16630233788785702146
13383665 225 12179855986854496729
15183329 4 17988936594768559824
15230672 131 17775001315588522207
19304671 126 16226054435570598060
20105231 36 18187367654180362939
21133410 58 17967253096848168970
21585481 104 17967533467321380661
21895439 516 17821734935475695363
24771293 8 11746928768972101951
4173938 306 13183026194635076721
4258327 124 11386375828895208057
439807 62 18412826880487914550
504579 68 17822007614591004721
5223283 242 18409451409824433857
59682541 52 18334579057803186040
6081469 158 18334574633860621933
6126387 218 14692576503408512763
6438161 24 17988920084967002154
9831232 110 17417536912200396197

> <PUBCHEM_SHAPE_MULTIPOLES>
722.79
35.42
3.45
1.94
68.33
2.52
-0.4
13.45
-7.6
-9.58
0.18
-1.84
-1.21
-2.65

> <PUBCHEM_SHAPE_SELFOVERLAP>
1590.298

> <PUBCHEM_SHAPE_VOLUME>
389.8

> <PUBCHEM_COORDINATE_TYPE>
2
5
10

$$$$
