26743252
  -OEChem-12032416193D

 69 72  0     1  0  0  0  0  0999 V2000
    0.6302    3.3440    0.3778 O   0  0  0  0  0  0  0  0  0  0  0  0
   -3.5171   -2.0473    1.1200 O   0  0  0  0  0  0  0  0  0  0  0  0
    3.3536   -2.3318    0.4697 O   0  0  0  0  0  0  0  0  0  0  0  0
   -4.1220    3.2835    0.3566 N   0  0  0  0  0  0  0  0  0  0  0  0
   -0.6461    3.1499   -0.1363 N   0  0  0  0  0  0  0  0  0  0  0  0
   -2.8011   -2.7809   -0.9657 N   0  0  0  0  0  0  0  0  0  0  0  0
   -3.0862    1.0156    0.4158 C   0  0  2  0  0  0  0  0  0  0  0  0
   -4.4269    0.3999   -0.0521 C   0  0  1  0  0  0  0  0  0  0  0  0
   -5.2667    1.4297   -0.8228 C   0  0  0  0  0  0  0  0  0  0  0  0
   -3.3625    2.3307    1.1681 C   0  0  0  0  0  0  0  0  0  0  0  0
   -2.0773    1.2396   -0.7185 C   0  0  0  0  0  0  0  0  0  0  0  0
    3.5843    1.4274    0.2735 C   0  0  0  0  0  0  0  0  0  0  0  0
   -5.4182    2.7299   -0.0341 C   0  0  0  0  0  0  0  0  0  0  0  0
   -4.2553   -0.8812   -0.8669 C   0  0  0  0  0  0  0  0  0  0  0  0
    3.6239    2.0421   -1.1322 C   0  0  0  0  0  0  0  0  0  0  0  0
    4.9768    1.4485    0.9183 C   0  0  0  0  0  0  0  0  0  0  0  0
    4.6682    1.3627   -2.0152 C   0  0  0  0  0  0  0  0  0  0  0  0
    6.0189    0.7702    0.0319 C   0  0  0  0  0  0  0  0  0  0  0  0
    2.5714    2.1579    1.1533 C   0  0  0  0  0  0  0  0  0  0  0  0
    6.0490    1.3778   -1.3671 C   0  0  0  0  0  0  0  0  0  0  0  0
   -0.7943    1.8237   -0.2021 C   0  0  0  0  0  0  0  0  0  0  0  0
    1.2099    2.1377    0.6054 C   0  0  0  0  0  0  0  0  0  0  0  0
    0.3443    1.1363    0.2526 C   0  0  0  0  0  0  0  0  0  0  0  0
   -3.5006   -1.9488   -0.1039 C   0  0  0  0  0  0  0  0  0  0  0  0
   -1.9910   -3.8873   -0.5102 C   0  0  0  0  0  0  0  0  0  0  0  0
   -0.5711   -3.4744   -0.2503 C   0  0  0  0  0  0  0  0  0  0  0  0
    0.2978   -3.2517   -1.3186 C   0  0  0  0  0  0  0  0  0  0  0  0
   -0.1209   -3.3131    1.0601 C   0  0  0  0  0  0  0  0  0  0  0  0
    1.6167   -2.8681   -1.0767 C   0  0  0  0  0  0  0  0  0  0  0  0
    1.1981   -2.9295    1.3021 C   0  0  0  0  0  0  0  0  0  0  0  0
    2.0669   -2.7071    0.2337 C   0  0  0  0  0  0  0  0  0  0  0  0
    3.7475   -2.1857    1.8334 C   0  0  0  0  0  0  0  0  0  0  0  0
   -2.6241    0.3367    1.1447 H   0  0  0  0  0  0  0  0  0  0  0  0
   -4.9932    0.1423    0.8556 H   0  0  0  0  0  0  0  0  0  0  0  0
   -6.2621    1.0177   -1.0286 H   0  0  0  0  0  0  0  0  0  0  0  0
   -4.8094    1.6420   -1.7973 H   0  0  0  0  0  0  0  0  0  0  0  0
   -3.9457    2.1036    2.0714 H   0  0  0  0  0  0  0  0  0  0  0  0
   -2.4572    2.8066    1.5516 H   0  0  0  0  0  0  0  0  0  0  0  0
    3.2727    0.3802    0.1718 H   0  0  0  0  0  0  0  0  0  0  0  0
   -2.4828    1.8843   -1.5065 H   0  0  0  0  0  0  0  0  0  0  0  0
   -1.8312    0.2870   -1.2018 H   0  0  0  0  0  0  0  0  0  0  0  0
   -5.9493    3.4673   -0.6460 H   0  0  0  0  0  0  0  0  0  0  0  0
   -6.0349    2.5631    0.8575 H   0  0  0  0  0  0  0  0  0  0  0  0
   -3.7685   -0.6697   -1.8254 H   0  0  0  0  0  0  0  0  0  0  0  0
   -5.2407   -1.3017   -1.1047 H   0  0  0  0  0  0  0  0  0  0  0  0
    3.8525    3.1137   -1.0652 H   0  0  0  0  0  0  0  0  0  0  0  0
    2.6518    1.9551   -1.6300 H   0  0  0  0  0  0  0  0  0  0  0  0
    4.9465    0.9434    1.8910 H   0  0  0  0  0  0  0  0  0  0  0  0
    5.2855    2.4845    1.1078 H   0  0  0  0  0  0  0  0  0  0  0  0
   -3.5894    3.5221   -0.4789 H   0  0  0  0  0  0  0  0  0  0  0  0
    4.7125    1.8660   -2.9876 H   0  0  0  0  0  0  0  0  0  0  0  0
    4.3653    0.3255   -2.2055 H   0  0  0  0  0  0  0  0  0  0  0  0
    5.7950   -0.3010   -0.0414 H   0  0  0  0  0  0  0  0  0  0  0  0
    7.0088    0.8584    0.4936 H   0  0  0  0  0  0  0  0  0  0  0  0
    2.8962    3.1950    1.3091 H   0  0  0  0  0  0  0  0  0  0  0  0
    2.5532    1.6932    2.1474 H   0  0  0  0  0  0  0  0  0  0  0  0
    6.7570    0.8246   -1.9943 H   0  0  0  0  0  0  0  0  0  0  0  0
    6.4131    2.4109   -1.3083 H   0  0  0  0  0  0  0  0  0  0  0  0
    0.5099    0.0721    0.3164 H   0  0  0  0  0  0  0  0  0  0  0  0
   -2.8432   -2.6140   -1.9668 H   0  0  0  0  0  0  0  0  0  0  0  0
   -2.0200   -4.6619   -1.2851 H   0  0  0  0  0  0  0  0  0  0  0  0
   -2.4444   -4.3179    0.3902 H   0  0  0  0  0  0  0  0  0  0  0  0
   -0.0420   -3.3734   -2.3437 H   0  0  0  0  0  0  0  0  0  0  0  0
   -0.7885   -3.4808    1.9012 H   0  0  0  0  0  0  0  0  0  0  0  0
    2.2887   -2.6946   -1.9127 H   0  0  0  0  0  0  0  0  0  0  0  0
    1.4812   -2.8207    2.3435 H   0  0  0  0  0  0  0  0  0  0  0  0
    4.8012   -1.8888    1.8362 H   0  0  0  0  0  0  0  0  0  0  0  0
    3.6825   -3.1352    2.3754 H   0  0  0  0  0  0  0  0  0  0  0  0
    3.1880   -1.3851    2.3295 H   0  0  0  0  0  0  0  0  0  0  0  0
  1  5  1  0  0  0  0
  1 22  1  0  0  0  0
  2 24  2  0  0  0  0
  3 31  1  0  0  0  0
  3 32  1  0  0  0  0
  4 10  1  0  0  0  0
  4 13  1  0  0  0  0
  4 50  1  0  0  0  0
  5 21  2  0  0  0  0
  6 24  1  0  0  0  0
  6 25  1  0  0  0  0
  6 60  1  0  0  0  0
  7  8  1  0  0  0  0
  7 10  1  0  0  0  0
  7 11  1  0  0  0  0
  7 33  1  0  0  0  0
  8  9  1  0  0  0  0
  8 14  1  0  0  0  0
  8 34  1  0  0  0  0
  9 13  1  0  0  0  0
  9 35  1  0  0  0  0
  9 36  1  0  0  0  0
 10 37  1  0  0  0  0
 10 38  1  0  0  0  0
 11 21  1  0  0  0  0
 11 40  1  0  0  0  0
 11 41  1  0  0  0  0
 12 15  1  0  0  0  0
 12 16  1  0  0  0  0
 12 19  1  0  0  0  0
 12 39  1  0  0  0  0
 13 42  1  0  0  0  0
 13 43  1  0  0  0  0
 14 24  1  0  0  0  0
 14 44  1  0  0  0  0
 14 45  1  0  0  0  0
 15 17  1  0  0  0  0
 15 46  1  0  0  0  0
 15 47  1  0  0  0  0
 16 18  1  0  0  0  0
 16 48  1  0  0  0  0
 16 49  1  0  0  0  0
 17 20  1  0  0  0  0
 17 51  1  0  0  0  0
 17 52  1  0  0  0  0
 18 20  1  0  0  0  0
 18 53  1  0  0  0  0
 18 54  1  0  0  0  0
 19 22  1  0  0  0  0
 19 55  1  0  0  0  0
 19 56  1  0  0  0  0
 20 57  1  0  0  0  0
 20 58  1  0  0  0  0
 21 23  1  0  0  0  0
 22 23  2  0  0  0  0
 23 59  1  0  0  0  0
 25 26  1  0  0  0  0
 25 61  1  0  0  0  0
 25 62  1  0  0  0  0
 26 27  2  0  0  0  0
 26 28  1  0  0  0  0
 27 29  1  0  0  0  0
 27 63  1  0  0  0  0
 28 30  2  0  0  0  0
 28 64  1  0  0  0  0
 29 31  2  0  0  0  0
 29 65  1  0  0  0  0
 30 31  1  0  0  0  0
 30 66  1  0  0  0  0
 32 67  1  0  0  0  0
 32 68  1  0  0  0  0
 32 69  1  0  0  0  0
M  END
> <PUBCHEM_COMPOUND_CID>
26743252

> <PUBCHEM_CONFORMER_RMSD>
1.4

> <PUBCHEM_CONFORMER_DIVERSEORDER>
1
122
62
104
93
53
65
78
73
64
27
47
132
89
112
22
99
133
68
10
67
32
74
103
85
52
109
126
3
43
125
127
102
117
111
20
134
49
128
135
110
50
23
24
72
56
129
98
114
131
101
123
17
29
7
19
116
83
96
71
69
6
100
21
119
95
115
9
61
75
42
82
37
14
130
57
107
105
45
63
30
8
51
121
15
86
25
2
113
40
60
55
118
54
66
13
12
106
41
88
36
18
59
79
35
80
81
5
94
76
33
120
70
4
124
84
90
92
97
48
58
28
108
39
11
34
16
38
87
77
31
44
91
26
46

> <PUBCHEM_MMFF94_PARTIAL_CHARGES>
30
1 -0.02
10 0.27
11 0.18
13 0.27
14 0.06
19 0.18
2 -0.57
21 0.11
22 -0.04
23 -0.15
24 0.57
25 0.44
26 -0.14
27 -0.15
28 -0.15
29 -0.15
3 -0.36
30 -0.15
31 0.08
32 0.28
4 -0.9
5 -0.41
50 0.36
59 0.15
6 -0.73
60 0.37
63 0.15
64 0.15
65 0.15
66 0.15

> <PUBCHEM_EFFECTIVE_ROTOR_COUNT>
12.4

> <PUBCHEM_PHARMACOPHORE_FEATURES>
10
1 2 acceptor
1 3 acceptor
1 4 cation
1 4 donor
1 5 acceptor
1 6 donor
5 1 5 21 22 23 rings
6 12 15 16 17 18 20 rings
6 26 27 28 29 30 31 rings
6 4 7 8 9 10 13 rings

> <PUBCHEM_HEAVY_ATOM_COUNT>
32

> <PUBCHEM_ATOM_DEF_STEREO_COUNT>
2

> <PUBCHEM_ATOM_UDEF_STEREO_COUNT>
0

> <PUBCHEM_BOND_DEF_STEREO_COUNT>
0

> <PUBCHEM_BOND_UDEF_STEREO_COUNT>
0

> <PUBCHEM_ISOTOPIC_ATOM_COUNT>
0

> <PUBCHEM_COMPONENT_COUNT>
1

> <PUBCHEM_CACTVS_TAUTO_COUNT>
2

> <PUBCHEM_CONFORMER_ID>
019811D400000001

> <PUBCHEM_MMFF94_ENERGY>
51.882

> <PUBCHEM_FEATURE_SELFOVERLAP>
50.747

> <PUBCHEM_SHAPE_FINGERPRINT>
10675989 125 17760085116969866389
10864689 126 18342176623037816124
1100329 8 18338792291608305842
11007060 377 18196661902736467760
11170278 133 18118693110690587588
11200772 71 17829063335642135036
11513181 2 18131067121497103854
12788726 201 17760651764857941628
13122387 1 17403733355262345011
13140716 1 18337669702899494627
14117953 113 17980191994167493982
14251757 5 17903930198561983828
144659 178 18192997247191532796
14725015 67 17980472683228850139
14790565 3 18339643347640771736
14932702 115 18201717379405520762
15001296 14 18335138670593405084
15297060 5 18202849842339298762
15790856 291 18124321763895528734
15927050 60 18343018874988445919
15968369 153 17984129633122440843
16112460 7 18200044936710893001
17627616 140 18408884014484662242
20764821 26 18338221674853203651
21796203 349 17187888253140960403
27425 322 17240202131964641961
3052486 1 18264486368422148348
3298306 158 18410572915715163468
338550 245 18334574672615144700
437795 70 18198924663496142246
463206 1 18410290294425549992
508706 21 18269842084606987790
5265222 85 18192443067329234109

> <PUBCHEM_SHAPE_MULTIPOLES>
625.99
12.09
5.95
1.42
4.04
3.82
0.09
-8.59
1.99
-1.99
-0.28
1.34
0.32
-1.5

> <PUBCHEM_SHAPE_SELFOVERLAP>
1308.383

> <PUBCHEM_SHAPE_VOLUME>
351.2

> <PUBCHEM_COORDINATE_TYPE>
2
5
10

$$$$
