45783479
  -OEChem-12032416363D

 54 57  0     1  0  0  0  0  0999 V2000
   -2.3280    1.0486   -1.9667 O   0  0  0  0  0  0  0  0  0  0  0  0
   -2.7349   -2.0690    0.8033 O   0  0  0  0  0  0  0  0  0  0  0  0
    0.2236   -2.3957    1.2142 O   0  0  0  0  0  0  0  0  0  0  0  0
    7.5033   -0.7353    0.5223 O   0  0  0  0  0  0  0  0  0  0  0  0
   -4.2226    0.4585    0.9335 N   0  0  1  0  0  0  0  0  0  0  0  0
   -1.3112    1.2112    0.0224 N   0  0  0  0  0  0  0  0  0  0  0  0
   -0.9597    0.8793   -2.2136 N   0  0  0  0  0  0  0  0  0  0  0  0
    3.2076    0.5415   -1.6374 N   0  0  0  0  0  0  0  0  0  0  0  0
    5.0719    0.5559   -0.1543 N   0  0  0  0  0  0  0  0  0  0  0  0
   -3.8511    1.4481   -0.0974 C   0  0  1  0  0  0  0  0  0  0  0  0
   -4.0296    2.8146    0.5897 C   0  0  0  0  0  0  0  0  0  0  0  0
   -4.5613    2.4944    1.9795 C   0  0  0  0  0  0  0  0  0  0  0  0
   -5.1823    1.1218    1.8165 C   0  0  0  0  0  0  0  0  0  0  0  0
   -4.7542   -0.7790    0.3769 C   0  0  0  0  0  0  0  0  0  0  0  0
   -2.4478    1.2387   -0.6266 C   0  0  0  0  0  0  0  0  0  0  0  0
   -3.6596   -1.6875   -0.1164 C   0  0  0  0  0  0  0  0  0  0  0  0
   -3.3767   -2.2400   -1.3441 C   0  0  0  0  0  0  0  0  0  0  0  0
   -0.4273    0.9882   -0.9928 C   0  0  0  0  0  0  0  0  0  0  0  0
   -1.8519   -2.8739    0.1558 C   0  0  0  0  0  0  0  0  0  0  0  0
   -2.2028   -3.0105   -1.1672 C   0  0  0  0  0  0  0  0  0  0  0  0
    0.9829    0.8805   -0.7537 C   0  0  0  0  0  0  0  0  0  0  0  0
   -0.7494   -3.4130    0.9644 C   0  0  0  0  0  0  0  0  0  0  0  0
    1.5033    1.0004    0.5302 C   0  0  0  0  0  0  0  0  0  0  0  0
    1.8694    0.6534   -1.7940 C   0  0  0  0  0  0  0  0  0  0  0  0
    2.8749    0.8912    0.7314 C   0  0  0  0  0  0  0  0  0  0  0  0
    3.6767    0.6637   -0.3754 C   0  0  0  0  0  0  0  0  0  0  0  0
    5.6579    0.6720    1.1413 C   0  0  0  0  0  0  0  0  0  0  0  0
    7.1686    0.5454    1.0417 C   0  0  0  0  0  0  0  0  0  0  0  0
    8.9102   -0.9032    0.4166 C   0  0  0  0  0  0  0  0  0  0  0  0
   -4.5544    1.4132   -0.9416 H   0  0  0  0  0  0  0  0  0  0  0  0
   -3.1098    3.4060    0.6515 H   0  0  0  0  0  0  0  0  0  0  0  0
   -4.7724    3.4075    0.0420 H   0  0  0  0  0  0  0  0  0  0  0  0
   -5.2798    3.2412    2.3298 H   0  0  0  0  0  0  0  0  0  0  0  0
   -3.7316    2.4565    2.6962 H   0  0  0  0  0  0  0  0  0  0  0  0
   -6.1730    1.2050    1.3517 H   0  0  0  0  0  0  0  0  0  0  0  0
   -5.2814    0.6087    2.7780 H   0  0  0  0  0  0  0  0  0  0  0  0
   -5.2814   -1.3396    1.1608 H   0  0  0  0  0  0  0  0  0  0  0  0
   -5.4884   -0.5951   -0.4174 H   0  0  0  0  0  0  0  0  0  0  0  0
   -3.9434   -2.1041   -2.2540 H   0  0  0  0  0  0  0  0  0  0  0  0
   -1.6792   -3.5910   -1.9133 H   0  0  0  0  0  0  0  0  0  0  0  0
   -0.2532   -4.2398    0.4463 H   0  0  0  0  0  0  0  0  0  0  0  0
   -1.1191   -3.7797    1.9273 H   0  0  0  0  0  0  0  0  0  0  0  0
    0.8638    1.1775    1.3911 H   0  0  0  0  0  0  0  0  0  0  0  0
    1.5445    0.5474   -2.8248 H   0  0  0  0  0  0  0  0  0  0  0  0
    3.2465    0.9876    1.7447 H   0  0  0  0  0  0  0  0  0  0  0  0
    0.9275   -2.8017    1.7484 H   0  0  0  0  0  0  0  0  0  0  0  0
    5.6470    0.3858   -0.9715 H   0  0  0  0  0  0  0  0  0  0  0  0
    5.4269    1.6435    1.5935 H   0  0  0  0  0  0  0  0  0  0  0  0
    5.2860   -0.1261    1.7951 H   0  0  0  0  0  0  0  0  0  0  0  0
    7.5728    1.3240    0.3831 H   0  0  0  0  0  0  0  0  0  0  0  0
    7.6114    0.6630    2.0376 H   0  0  0  0  0  0  0  0  0  0  0  0
    9.1086   -1.9005    0.0149 H   0  0  0  0  0  0  0  0  0  0  0  0
    9.3815   -0.8234    1.4010 H   0  0  0  0  0  0  0  0  0  0  0  0
    9.3350   -0.1612   -0.2664 H   0  0  0  0  0  0  0  0  0  0  0  0
  1  7  1  0  0  0  0
  1 15  1  0  0  0  0
  2 16  1  0  0  0  0
  2 19  1  0  0  0  0
  3 22  1  0  0  0  0
  3 46  1  0  0  0  0
  4 28  1  0  0  0  0
  4 29  1  0  0  0  0
  5 10  1  0  0  0  0
  5 13  1  0  0  0  0
  5 14  1  0  0  0  0
  6 15  2  0  0  0  0
  6 18  1  0  0  0  0
  7 18  2  0  0  0  0
  8 24  1  0  0  0  0
  8 26  2  0  0  0  0
  9 26  1  0  0  0  0
  9 27  1  0  0  0  0
  9 47  1  0  0  0  0
 10 11  1  0  0  0  0
 10 15  1  0  0  0  0
 10 30  1  0  0  0  0
 11 12  1  0  0  0  0
 11 31  1  0  0  0  0
 11 32  1  0  0  0  0
 12 13  1  0  0  0  0
 12 33  1  0  0  0  0
 12 34  1  0  0  0  0
 13 35  1  0  0  0  0
 13 36  1  0  0  0  0
 14 16  1  0  0  0  0
 14 37  1  0  0  0  0
 14 38  1  0  0  0  0
 16 17  2  0  0  0  0
 17 20  1  0  0  0  0
 17 39  1  0  0  0  0
 18 21  1  0  0  0  0
 19 20  2  0  0  0  0
 19 22  1  0  0  0  0
 20 40  1  0  0  0  0
 21 23  1  0  0  0  0
 21 24  2  0  0  0  0
 22 41  1  0  0  0  0
 22 42  1  0  0  0  0
 23 25  2  0  0  0  0
 23 43  1  0  0  0  0
 24 44  1  0  0  0  0
 25 26  1  0  0  0  0
 25 45  1  0  0  0  0
 27 28  1  0  0  0  0
 27 48  1  0  0  0  0
 27 49  1  0  0  0  0
 28 50  1  0  0  0  0
 28 51  1  0  0  0  0
 29 52  1  0  0  0  0
 29 53  1  0  0  0  0
 29 54  1  0  0  0  0
M  END
> <PUBCHEM_COMPOUND_CID>
45783479

> <PUBCHEM_CONFORMER_RMSD>
1

> <PUBCHEM_CONFORMER_DIVERSEORDER>
1
88
83
45
85
55
46
5
89
56
58
93
33
22
14
29
72
13
67
28
91
78
81
40
94
54
63
11
30
75
64
70
80
52
87
57
49
61
42
44
73
76
95
77
16
36
34
84
62
79
17
90
50
60
18
9
71
15
39
47
20
53
68
21
26
38
19
12
3
48
24
37
86
35
27
6
8
2
25
66
74
69
32
23
10
59
31
4
82
7
92
41
51
65
43

> <PUBCHEM_MMFF94_PARTIAL_CHARGES>
34
1 -0.02
10 0.45
13 0.27
14 0.45
15 0.3
16 -0.04
17 -0.15
18 0.46
19 -0.04
2 -0.28
20 -0.15
21 0.05
22 0.46
23 -0.15
24 0.16
25 -0.15
26 0.41
27 0.37
28 0.28
29 0.28
3 -0.68
39 0.15
4 -0.56
40 0.15
43 0.15
44 0.15
45 0.15
46 0.4
47 0.4
5 -0.81
6 -0.57
7 -0.41
8 -0.62
9 -0.87

> <PUBCHEM_EFFECTIVE_ROTOR_COUNT>
10

> <PUBCHEM_PHARMACOPHORE_FEATURES>
12
1 2 acceptor
1 3 acceptor
1 3 donor
1 4 acceptor
1 5 cation
1 9 donor
3 6 7 18 cation
3 8 9 26 cation
5 1 6 7 15 18 rings
5 2 16 17 19 20 rings
5 5 10 11 12 13 rings
6 8 21 23 24 25 26 rings

> <PUBCHEM_HEAVY_ATOM_COUNT>
29

> <PUBCHEM_ATOM_DEF_STEREO_COUNT>
1

> <PUBCHEM_ATOM_UDEF_STEREO_COUNT>
0

> <PUBCHEM_BOND_DEF_STEREO_COUNT>
0

> <PUBCHEM_BOND_UDEF_STEREO_COUNT>
0

> <PUBCHEM_ISOTOPIC_ATOM_COUNT>
0

> <PUBCHEM_COMPONENT_COUNT>
1

> <PUBCHEM_CACTVS_TAUTO_COUNT>
8

> <PUBCHEM_CONFORMER_ID>
02BA99B700000001

> <PUBCHEM_MMFF94_ENERGY>
50.3596

> <PUBCHEM_FEATURE_SELFOVERLAP>
60.898

> <PUBCHEM_SHAPE_FINGERPRINT>
10 15 17275100657143129384
10319926 262 18202290212469203420
11524674 6 18201715159203373230
12293681 4 17917717898075304072
12422481 6 17969217845962336186
12522641 33 17606376789332321781
12616971 3 17603589647092578204
12633257 1 18338806701234087893
12788726 201 18051434034720498429
14856354 85 18412266164065375524
15021287 119 17530687615139500028
15183329 4 17894340099927323818
15348495 7 18131063879492607344
15352257 5 18409163295703665066
17780758 139 18412542136803877073
18927931 339 16515683329554999421
19438510 23 16987452918879544281
20554085 129 18129090131667152129
21033648 29 16988576683792364933
21236236 1 18336822078672290618
21756936 100 18060134306648098065
23522609 53 18116740524317225060
23559900 14 18119519084304279444
397830 11 18198890583115426984
4073 2 18343580755595087610
444769 64 18114178610663092258
484985 159 17677040352412065683
5364581 5 17915451916659630016
59755656 520 18411979131458869448
602551 16 18338804510515625156
68570916 9 18337107982309273348
7226269 152 18131633357253084320

> <PUBCHEM_SHAPE_MULTIPOLES>
548.42
16.53
3.34
1.76
43.39
2.65
0.43
-2.09
-7.51
-5.41
-0.83
-0.83
-0.37
-1.44

> <PUBCHEM_SHAPE_SELFOVERLAP>
1170.278

> <PUBCHEM_SHAPE_VOLUME>
307.2

> <PUBCHEM_COORDINATE_TYPE>
2
5
10

$$$$
