45360415
  -OEChem-12032416173D

 49 51  0     1  0  0  0  0  0999 V2000
   -6.3809    0.3670   -0.9989 O   0  0  0  0  0  0  0  0  0  0  0  0
    3.4080   -1.2814    0.7932 N   0  0  2  0  0  0  0  0  0  0  0  0
   -0.2629   -0.4415    0.4748 N   0  0  0  0  0  0  0  0  0  0  0  0
    3.7203   -0.0850   -1.4955 C   0  0  2  0  0  0  0  0  0  0  0  0
    4.4334    0.6916   -0.3651 C   0  0  2  0  0  0  0  0  0  0  0  0
    2.0864   -1.0761    0.1411 C   0  0  2  0  0  0  0  0  0  0  0  0
    2.2279   -0.2358   -1.1476 C   0  0  0  0  0  0  0  0  0  0  0  0
    4.0949    0.0189    0.9843 C   0  0  0  0  0  0  0  0  0  0  0  0
    4.3286   -1.5003   -1.5188 C   0  0  0  0  0  0  0  0  0  0  0  0
    4.2385   -2.1143   -0.1104 C   0  0  0  0  0  0  0  0  0  0  0  0
    4.0968    2.1808   -0.3521 C   0  0  0  0  0  0  0  0  0  0  0  0
    1.0502   -0.4804    1.0970 C   0  0  0  0  0  0  0  0  0  0  0  0
    4.8422    2.9070    0.7510 C   0  0  0  0  0  0  0  0  0  0  0  0
   -1.2530    0.1343    1.3766 C   0  0  0  0  0  0  0  0  0  0  0  0
   -2.6180    0.1967    0.7443 C   0  0  0  0  0  0  0  0  0  0  0  0
   -2.9035    1.1790   -0.2040 C   0  0  0  0  0  0  0  0  0  0  0  0
   -3.5971   -0.7282    1.1069 C   0  0  0  0  0  0  0  0  0  0  0  0
   -4.1681    1.2365   -0.7896 C   0  0  0  0  0  0  0  0  0  0  0  0
   -4.8617   -0.6708    0.5214 C   0  0  0  0  0  0  0  0  0  0  0  0
   -5.1473    0.3115   -0.4268 C   0  0  0  0  0  0  0  0  0  0  0  0
   -7.3344   -0.6093   -0.5819 C   0  0  0  0  0  0  0  0  0  0  0  0
    3.8491    0.4070   -2.4652 H   0  0  0  0  0  0  0  0  0  0  0  0
    5.5166    0.5996   -0.5317 H   0  0  0  0  0  0  0  0  0  0  0  0
    1.7094   -2.0709   -0.1406 H   0  0  0  0  0  0  0  0  0  0  0  0
    1.7123   -0.7468   -1.9708 H   0  0  0  0  0  0  0  0  0  0  0  0
    1.7620    0.7504   -1.0521 H   0  0  0  0  0  0  0  0  0  0  0  0
    5.0221   -0.1473    1.5483 H   0  0  0  0  0  0  0  0  0  0  0  0
    3.4835    0.6568    1.6296 H   0  0  0  0  0  0  0  0  0  0  0  0
    5.3757   -1.4606   -1.8412 H   0  0  0  0  0  0  0  0  0  0  0  0
    3.7901   -2.1277   -2.2394 H   0  0  0  0  0  0  0  0  0  0  0  0
    3.8239   -3.1282   -0.1712 H   0  0  0  0  0  0  0  0  0  0  0  0
    5.2430   -2.2343    0.3148 H   0  0  0  0  0  0  0  0  0  0  0  0
    3.0234    2.3484   -0.2147 H   0  0  0  0  0  0  0  0  0  0  0  0
    4.3673    2.6229   -1.3183 H   0  0  0  0  0  0  0  0  0  0  0  0
    1.0117   -1.0883    2.0102 H   0  0  0  0  0  0  0  0  0  0  0  0
    1.3384    0.5356    1.3896 H   0  0  0  0  0  0  0  0  0  0  0  0
    4.5109    2.6089    1.7494 H   0  0  0  0  0  0  0  0  0  0  0  0
    4.6723    3.9856    0.6647 H   0  0  0  0  0  0  0  0  0  0  0  0
    5.9212    2.7350    0.6798 H   0  0  0  0  0  0  0  0  0  0  0  0
   -0.5444   -1.3871    0.2157 H   0  0  0  0  0  0  0  0  0  0  0  0
   -1.3055   -0.4469    2.3064 H   0  0  0  0  0  0  0  0  0  0  0  0
   -0.9625    1.1530    1.6651 H   0  0  0  0  0  0  0  0  0  0  0  0
   -2.1489    1.9052   -0.4944 H   0  0  0  0  0  0  0  0  0  0  0  0
   -3.3868   -1.4999    1.8428 H   0  0  0  0  0  0  0  0  0  0  0  0
   -4.3848    2.0038   -1.5278 H   0  0  0  0  0  0  0  0  0  0  0  0
   -5.5746   -1.4201    0.8484 H   0  0  0  0  0  0  0  0  0  0  0  0
   -7.0116   -1.6233   -0.8411 H   0  0  0  0  0  0  0  0  0  0  0  0
   -7.5741   -0.5089    0.4821 H   0  0  0  0  0  0  0  0  0  0  0  0
   -8.2583   -0.4164   -1.1371 H   0  0  0  0  0  0  0  0  0  0  0  0
  1 20  1  0  0  0  0
  1 21  1  0  0  0  0
  2  6  1  0  0  0  0
  2  8  1  0  0  0  0
  2 10  1  0  0  0  0
  3 12  1  0  0  0  0
  3 14  1  0  0  0  0
  3 40  1  0  0  0  0
  4  5  1  0  0  0  0
  4  7  1  0  0  0  0
  4  9  1  0  0  0  0
  4 22  1  0  0  0  0
  5  8  1  0  0  0  0
  5 11  1  0  0  0  0
  5 23  1  0  0  0  0
  6  7  1  0  0  0  0
  6 12  1  0  0  0  0
  6 24  1  0  0  0  0
  7 25  1  0  0  0  0
  7 26  1  0  0  0  0
  8 27  1  0  0  0  0
  8 28  1  0  0  0  0
  9 10  1  0  0  0  0
  9 29  1  0  0  0  0
  9 30  1  0  0  0  0
 10 31  1  0  0  0  0
 10 32  1  0  0  0  0
 11 13  1  0  0  0  0
 11 33  1  0  0  0  0
 11 34  1  0  0  0  0
 12 35  1  0  0  0  0
 12 36  1  0  0  0  0
 13 37  1  0  0  0  0
 13 38  1  0  0  0  0
 13 39  1  0  0  0  0
 14 15  1  0  0  0  0
 14 41  1  0  0  0  0
 14 42  1  0  0  0  0
 15 16  2  0  0  0  0
 15 17  1  0  0  0  0
 16 18  1  0  0  0  0
 16 43  1  0  0  0  0
 17 19  2  0  0  0  0
 17 44  1  0  0  0  0
 18 20  2  0  0  0  0
 18 45  1  0  0  0  0
 19 20  1  0  0  0  0
 19 46  1  0  0  0  0
 21 47  1  0  0  0  0
 21 48  1  0  0  0  0
 21 49  1  0  0  0  0
M  END
> <PUBCHEM_COMPOUND_CID>
45360415

> <PUBCHEM_CONFORMER_RMSD>
0.8

> <PUBCHEM_CONFORMER_DIVERSEORDER>
1
8
55
43
6
34
40
10
19
18
38
3
46
50
35
30
44
32
12
2
37
33
21
45
56
47
13
11
22
41
15
42
28
5
29
52
24
39
36
53
27
51
17
20
14
48
54
49
7
23
16
25
26
9
31
4

> <PUBCHEM_MMFF94_PARTIAL_CHARGES>
20
1 -0.36
10 0.27
12 0.27
14 0.41
15 -0.14
16 -0.15
17 -0.15
18 -0.15
19 -0.15
2 -0.81
20 0.08
21 0.28
3 -0.9
40 0.36
43 0.15
44 0.15
45 0.15
46 0.15
6 0.27
8 0.27

> <PUBCHEM_EFFECTIVE_ROTOR_COUNT>
7.2

> <PUBCHEM_PHARMACOPHORE_FEATURES>
7
1 1 acceptor
1 13 hydrophobe
1 2 cation
1 3 cation
1 3 donor
6 15 16 17 18 19 20 rings
8 2 4 5 6 7 8 9 10 rings

> <PUBCHEM_HEAVY_ATOM_COUNT>
21

> <PUBCHEM_ATOM_DEF_STEREO_COUNT>
3

> <PUBCHEM_ATOM_UDEF_STEREO_COUNT>
0

> <PUBCHEM_BOND_DEF_STEREO_COUNT>
0

> <PUBCHEM_BOND_UDEF_STEREO_COUNT>
0

> <PUBCHEM_ISOTOPIC_ATOM_COUNT>
0

> <PUBCHEM_COMPONENT_COUNT>
1

> <PUBCHEM_CACTVS_TAUTO_COUNT>
1

> <PUBCHEM_CONFORMER_ID>
02B4251F00000001

> <PUBCHEM_MMFF94_ENERGY>
58.4712

> <PUBCHEM_FEATURE_SELFOVERLAP>
35.52

> <PUBCHEM_SHAPE_FINGERPRINT>
10670039 82 16443914842903648078
10692045 39 11242515701874202297
11089746 13 18113334198274827498
11128504 68 17561088024588010184
12769317 202 18199750409487338376
13150687 139 16987729064456526204
13533116 47 17386279892187294539
13551218 46 13326857708558005549
14211702 104 12103260756375853829
14251764 38 18187368735394484460
14252887 29 10735873950776894802
14461889 52 18263078988568687675
14528608 73 18260267438815784531
14617045 38 14333413363077726141
14863182 85 15266786503923000110
15183329 4 15791730798294895495
15537594 2 15410891864612684861
15799311 1 15554176946973684351
15961568 22 17894916277958426796
16120349 189 17981320411843842720
17844677 252 18342181020641144169
1813 80 15626223520125478905
18222031 100 15770057237572137273
20157964 124 18410292527597313232
20281389 69 12540693722212959615
20567600 254 18339361998072798224
20645477 70 18201730518069596910
21196832 93 18122619724834244031
212847 35 14562536175931839918
22061861 79 18343023255206501111
221357 26 18335421240280815973
23016692 55 14979962488478329433
23081809 10 17346887736786475083
23424782 7 18189056551069041035
23522609 53 17058956475158476729
23559900 14 17748836189504283858
239999 70 18343024367951287718
2767999 5 15574431021004938703
2838139 119 13190599678135908031
29717793 49 18201442436958190935
3004659 81 17632298934790967422
312423 11 17559973051399482080
341906 21 16877949364365706872
345986 75 12685626972367111804
34797466 226 18342461456414902949
351380 3 15482669066095246647
4072396 5 14923935760734792504
4325135 7 18130785685095236141
495365 180 18186522107720337074
5104073 3 17967536748686847113
5281201 14 18272097050207052648
5924683 9 8862354515701157617
6327066 14 18052539065651229928
8509985 295 14634866466033267156
960060 61 17632861931820042088
9971528 1 17022906727056790486

> <PUBCHEM_SHAPE_MULTIPOLES>
416.34
16.75
1.98
1.36
21.98
0.98
0.08
1.12
4.14
-3.95
-0.03
-0.42
-0.15
1.07

> <PUBCHEM_SHAPE_SELFOVERLAP>
865.823

> <PUBCHEM_SHAPE_VOLUME>
235.2

> <PUBCHEM_COORDINATE_TYPE>
2
5
10

$$$$
