51137779
  -OEChem-12032416223D

 48 51  0     1  0  0  0  0  0999 V2000
   -0.1080    1.5761   -0.2521 O   0  0  0  0  0  0  0  0  0  0  0  0
    2.9218   -0.8960    2.4898 O   0  0  0  0  0  0  0  0  0  0  0  0
    2.7796    0.8012    0.9110 N   0  0  0  0  0  0  0  0  0  0  0  0
   -0.1931    3.6868   -0.9883 N   0  0  0  0  0  0  0  0  0  0  0  0
   -1.4825    3.1889   -0.9689 N   0  0  0  0  0  0  0  0  0  0  0  0
    4.7271   -2.2713   -1.4899 N   0  0  0  0  0  0  0  0  0  0  0  0
   -5.3598   -1.9414    0.3403 N   0  0  0  0  0  0  0  0  0  0  0  0
    2.0822    2.6793   -0.3736 C   0  0  1  0  0  0  0  0  0  0  0  0
    2.4872    3.1392    1.0355 C   0  0  0  0  0  0  0  0  0  0  0  0
    2.7556    1.3027   -0.4642 C   0  0  0  0  0  0  0  0  0  0  0  0
    2.4644    1.8587    1.8590 C   0  0  0  0  0  0  0  0  0  0  0  0
    0.5753    2.7117   -0.5621 C   0  0  0  0  0  0  0  0  0  0  0  0
    2.9831   -0.5057    1.3256 C   0  0  0  0  0  0  0  0  0  0  0  0
    3.2812   -1.5083    0.2911 C   0  0  0  0  0  0  0  0  0  0  0  0
   -1.3848    1.9548   -0.5330 C   0  0  0  0  0  0  0  0  0  0  0  0
   -2.3966    0.9629   -0.3107 C   0  0  0  0  0  0  0  0  0  0  0  0
    2.4533   -2.6091    0.1006 C   0  0  0  0  0  0  0  0  0  0  0  0
    4.3958   -1.3865   -0.5229 C   0  0  0  0  0  0  0  0  0  0  0  0
   -3.7344    1.2608   -0.5704 C   0  0  0  0  0  0  0  0  0  0  0  0
   -2.0429   -0.2999    0.1646 C   0  0  0  0  0  0  0  0  0  0  0  0
   -4.3645   -0.9665    0.1210 C   0  0  0  0  0  0  0  0  0  0  0  0
    2.7611   -3.5412   -0.8843 C   0  0  0  0  0  0  0  0  0  0  0  0
   -4.7184    0.2962   -0.3545 C   0  0  0  0  0  0  0  0  0  0  0  0
   -3.0269   -1.2646    0.3805 C   0  0  0  0  0  0  0  0  0  0  0  0
    3.8990   -3.3284   -1.6458 C   0  0  0  0  0  0  0  0  0  0  0  0
   -5.0020   -3.2592    0.8269 C   0  0  0  0  0  0  0  0  0  0  0  0
   -6.7527   -1.6412    0.0746 C   0  0  0  0  0  0  0  0  0  0  0  0
    2.5044    3.3498   -1.1319 H   0  0  0  0  0  0  0  0  0  0  0  0
    3.5119    3.5311    1.0062 H   0  0  0  0  0  0  0  0  0  0  0  0
    1.8411    3.9150    1.4580 H   0  0  0  0  0  0  0  0  0  0  0  0
    3.7961    1.4160   -0.7875 H   0  0  0  0  0  0  0  0  0  0  0  0
    2.2429    0.6054   -1.1333 H   0  0  0  0  0  0  0  0  0  0  0  0
    1.4685    1.6579    2.2693 H   0  0  0  0  0  0  0  0  0  0  0  0
    3.1864    1.8650    2.6810 H   0  0  0  0  0  0  0  0  0  0  0  0
    1.5653   -2.7491    0.7111 H   0  0  0  0  0  0  0  0  0  0  0  0
    5.0944   -0.5628   -0.4130 H   0  0  0  0  0  0  0  0  0  0  0  0
   -4.0323    2.2386   -0.9414 H   0  0  0  0  0  0  0  0  0  0  0  0
   -1.0113   -0.5688    0.3781 H   0  0  0  0  0  0  0  0  0  0  0  0
   -5.7443    0.5767   -0.5715 H   0  0  0  0  0  0  0  0  0  0  0  0
   -2.7012   -2.2315    0.7512 H   0  0  0  0  0  0  0  0  0  0  0  0
    2.1299   -4.4064   -1.0511 H   0  0  0  0  0  0  0  0  0  0  0  0
    4.1828   -4.0259   -2.4269 H   0  0  0  0  0  0  0  0  0  0  0  0
   -4.3336   -3.7719    0.1262 H   0  0  0  0  0  0  0  0  0  0  0  0
   -4.5272   -3.2017    1.8127 H   0  0  0  0  0  0  0  0  0  0  0  0
   -5.8827   -3.9008    0.9429 H   0  0  0  0  0  0  0  0  0  0  0  0
   -7.1057   -0.8136    0.7000 H   0  0  0  0  0  0  0  0  0  0  0  0
   -6.9104   -1.3969   -0.9818 H   0  0  0  0  0  0  0  0  0  0  0  0
   -7.4007   -2.4965    0.2964 H   0  0  0  0  0  0  0  0  0  0  0  0
  1 12  1  0  0  0  0
  1 15  1  0  0  0  0
  2 13  2  0  0  0  0
  3 10  1  0  0  0  0
  3 11  1  0  0  0  0
  3 13  1  0  0  0  0
  4  5  1  0  0  0  0
  4 12  2  0  0  0  0
  5 15  2  0  0  0  0
  6 18  1  0  0  0  0
  6 25  2  0  0  0  0
  7 21  1  0  0  0  0
  7 26  1  0  0  0  0
  7 27  1  0  0  0  0
  8  9  1  0  0  0  0
  8 10  1  0  0  0  0
  8 12  1  0  0  0  0
  8 28  1  0  0  0  0
  9 11  1  0  0  0  0
  9 29  1  0  0  0  0
  9 30  1  0  0  0  0
 10 31  1  0  0  0  0
 10 32  1  0  0  0  0
 11 33  1  0  0  0  0
 11 34  1  0  0  0  0
 13 14  1  0  0  0  0
 14 17  1  0  0  0  0
 14 18  2  0  0  0  0
 15 16  1  0  0  0  0
 16 19  2  0  0  0  0
 16 20  1  0  0  0  0
 17 22  2  0  0  0  0
 17 35  1  0  0  0  0
 18 36  1  0  0  0  0
 19 23  1  0  0  0  0
 19 37  1  0  0  0  0
 20 24  2  0  0  0  0
 20 38  1  0  0  0  0
 21 23  2  0  0  0  0
 21 24  1  0  0  0  0
 22 25  1  0  0  0  0
 22 41  1  0  0  0  0
 23 39  1  0  0  0  0
 24 40  1  0  0  0  0
 25 42  1  0  0  0  0
 26 43  1  0  0  0  0
 26 44  1  0  0  0  0
 26 45  1  0  0  0  0
 27 46  1  0  0  0  0
 27 47  1  0  0  0  0
 27 48  1  0  0  0  0
M  END
> <PUBCHEM_COMPOUND_CID>
51137779

> <PUBCHEM_CONFORMER_RMSD>
0.8

> <PUBCHEM_CONFORMER_DIVERSEORDER>
1
56
52
42
9
41
47
74
23
77
72
34
64
79
5
50
87
75
12
25
14
21
54
78
31
69
85
35
84
83
63
81
55
48
2
11
61
82
38
40
15
29
60
73
6
45
70
59
16
76
86
44
33
4
28
36
7
68
32
19
65
3
37
30
62
46
88
8
57
18
51
20
58
71
27
80
10
17
67
39
24
13
53
43
66
26
22
89
49

> <PUBCHEM_MMFF94_PARTIAL_CHARGES>
34
1 -0.28
10 0.3
11 0.3
12 0.3
13 0.54
14 0.09
15 0.43
16 0.05
17 -0.15
18 0.16
19 -0.15
2 -0.57
20 -0.15
21 0.1
22 -0.15
23 -0.15
24 -0.15
25 0.16
26 0.37
27 0.37
3 -0.66
35 0.15
36 0.15
37 0.15
38 0.15
39 0.15
4 -0.34
40 0.15
41 0.15
42 0.15
5 -0.34
6 -0.62
7 -0.84
8 0.18

> <PUBCHEM_EFFECTIVE_ROTOR_COUNT>
6

> <PUBCHEM_PHARMACOPHORE_FEATURES>
7
1 2 acceptor
1 6 acceptor
1 7 cation
5 1 4 5 12 15 rings
5 3 8 9 10 11 rings
6 16 19 20 21 23 24 rings
6 6 14 17 18 22 25 rings

> <PUBCHEM_HEAVY_ATOM_COUNT>
27

> <PUBCHEM_ATOM_DEF_STEREO_COUNT>
1

> <PUBCHEM_ATOM_UDEF_STEREO_COUNT>
0

> <PUBCHEM_BOND_DEF_STEREO_COUNT>
0

> <PUBCHEM_BOND_UDEF_STEREO_COUNT>
0

> <PUBCHEM_ISOTOPIC_ATOM_COUNT>
0

> <PUBCHEM_COMPONENT_COUNT>
1

> <PUBCHEM_CACTVS_TAUTO_COUNT>
1

> <PUBCHEM_CONFORMER_ID>
030C4CF300000001

> <PUBCHEM_MMFF94_ENERGY>
82.1401

> <PUBCHEM_FEATURE_SELFOVERLAP>
35.523

> <PUBCHEM_SHAPE_FINGERPRINT>
10653451 467 18342736373757320282
10928967 22 18114748105740452059
114674 6 18336261331636354314
12107183 9 18198640839183142945
12623949 98 18202290220510680823
13150687 139 17535205650558602844
13402501 40 18409165511078478346
13533116 47 18201440324419623105
1361 2 18266457796871201899
13785724 45 18410305705084608693
13911882 115 18271799087156744050
13989917 61 18194689391819648671
14251740 57 18341333383223193675
14251757 5 17905617605376409804
14363568 33 18201999924346130132
14681488 357 18411706490897901815
14863182 85 18191024710672987492
14866123 147 17836651829673206833
15003188 105 17894901962478546458
15484559 13 16881047929809322140
15664445 248 17386575802449256884
15927050 60 16679225019889340068
17859628 70 18343021133492585148
17909252 39 18411426128274964392
1813 80 16805594915563941501
1979834 28 18268706297817019297
20028762 73 17691970779545281319
20645477 70 18261951959180397417
20765182 114 18413668024416486471
20775530 9 18342171124814896011
21197605 99 17686059804886885715
21279426 13 18187916284586082341
21307412 95 18124032326211909709
21344244 181 18054812821326845716
22849339 104 17901665960338828709
23428019 142 16183287452833676894
23466295 7 17551525344776426926
23559900 14 18409445865068562533
239999 70 18188204424434157960
3117164 225 18270975527246789017
3421961 26 18412266159422040261
34797466 226 11746925487574526369
3737641 26 18272094851315613988
437795 139 17479202781743796654
4461854 278 17979363284797479066
4573279 150 17827399616057084979
46194498 28 18409169943489801046
49967989 163 16257604573263430078
5309563 4 18411421691690175455
57307002 29 17755309967628700269
58260988 521 18270943727661967832
613672 6 18265874935264247589
6287921 2 18271802488138164394
6823239 73 18411416172820600426
9980921 52 17702358768316517223

> <PUBCHEM_SHAPE_MULTIPOLES>
519
12.16
5.13
1.42
16.1
0.08
-0.52
-11.97
-0.19
-3.12
1.39
-1.75
-0.14
3.04

> <PUBCHEM_SHAPE_SELFOVERLAP>
1129.734

> <PUBCHEM_SHAPE_VOLUME>
283.8

> <PUBCHEM_COORDINATE_TYPE>
2
5
10

$$$$
