28960503
  -OEChem-12032416343D

 63 67  0     1  0  0  0  0  0999 V2000
    3.3499   -1.3352    1.7489 O   0  0  0  0  0  0  0  0  0  0  0  0
    5.2877   -2.0131    0.6705 O   0  0  0  0  0  0  0  0  0  0  0  0
    3.9989   -2.3045   -1.8802 O   0  0  0  0  0  0  0  0  0  0  0  0
    0.4919    4.5683    0.9573 O   0  0  0  0  0  0  0  0  0  0  0  0
    3.0001    0.7689   -0.1996 N   0  0  0  0  0  0  0  0  0  0  0  0
    0.9906   -1.9869    0.1693 N   0  0  0  0  0  0  0  0  0  0  0  0
    1.4958    5.7994   -0.7072 N   0  0  0  0  0  0  0  0  0  0  0  0
    3.8552   -0.3985   -0.4181 C   0  0  2  0  0  0  0  0  0  0  0  0
    3.0652   -1.5339   -1.1094 C   0  0  2  0  0  0  0  0  0  0  0  0
    2.3395   -2.4826   -0.1240 C   0  0  1  0  0  0  0  0  0  0  0  0
    4.4332   -0.8857    0.9237 C   0  0  1  0  0  0  0  0  0  0  0  0
    3.0969   -2.6391    1.2146 C   0  0  1  0  0  0  0  0  0  0  0  0
    4.5167   -3.1565    1.0692 C   0  0  0  0  0  0  0  0  0  0  0  0
    3.5779    1.6436    0.8301 C   0  0  0  0  0  0  0  0  0  0  0  0
    2.7929    1.4973   -1.4590 C   0  0  0  0  0  0  0  0  0  0  0  0
    2.6678    2.8409    1.1098 C   0  0  0  0  0  0  0  0  0  0  0  0
    1.8568    2.6902   -1.2588 C   0  0  0  0  0  0  0  0  0  0  0  0
    2.3761    3.6253   -0.1680 C   0  0  0  0  0  0  0  0  0  0  0  0
    0.0926   -2.2671   -0.9377 C   0  0  0  0  0  0  0  0  0  0  0  0
    1.3632    4.6948    0.1005 C   0  0  0  0  0  0  0  0  0  0  0  0
   -1.3013   -1.7650   -0.6698 C   0  0  0  0  0  0  0  0  0  0  0  0
   -2.1410   -2.4665    0.1955 C   0  0  0  0  0  0  0  0  0  0  0  0
   -1.7530   -0.5984   -1.2868 C   0  0  0  0  0  0  0  0  0  0  0  0
   -3.4323   -2.0013    0.4438 C   0  0  0  0  0  0  0  0  0  0  0  0
   -3.0443   -0.1332   -1.0384 C   0  0  0  0  0  0  0  0  0  0  0  0
   -3.8839   -0.8345   -0.1730 C   0  0  0  0  0  0  0  0  0  0  0  0
   -5.2238   -0.3520    0.0843 C   0  0  0  0  0  0  0  0  0  0  0  0
   -6.2827   -0.7717   -0.7208 C   0  0  0  0  0  0  0  0  0  0  0  0
   -5.4565    0.5319    1.1379 C   0  0  0  0  0  0  0  0  0  0  0  0
   -7.5745   -0.3074   -0.4723 C   0  0  0  0  0  0  0  0  0  0  0  0
   -6.7482    0.9960    1.3866 C   0  0  0  0  0  0  0  0  0  0  0  0
   -7.8071    0.5764    0.5813 C   0  0  0  0  0  0  0  0  0  0  0  0
    4.7140   -0.1292   -1.0505 H   0  0  0  0  0  0  0  0  0  0  0  0
    2.3842   -1.1408   -1.8642 H   0  0  0  0  0  0  0  0  0  0  0  0
    2.2686   -3.4898   -0.5566 H   0  0  0  0  0  0  0  0  0  0  0  0
    5.0616   -0.1663    1.4537 H   0  0  0  0  0  0  0  0  0  0  0  0
    2.5212   -3.2390    1.9276 H   0  0  0  0  0  0  0  0  0  0  0  0
    4.9125   -3.4878    2.0354 H   0  0  0  0  0  0  0  0  0  0  0  0
    4.6253   -3.9680    0.3446 H   0  0  0  0  0  0  0  0  0  0  0  0
    4.5770    1.9975    0.5439 H   0  0  0  0  0  0  0  0  0  0  0  0
    3.6413    1.1622    1.8099 H   0  0  0  0  0  0  0  0  0  0  0  0
    2.3391    0.8640   -2.2267 H   0  0  0  0  0  0  0  0  0  0  0  0
    3.7496    1.8538   -1.8640 H   0  0  0  0  0  0  0  0  0  0  0  0
    1.7354    2.4772    1.5631 H   0  0  0  0  0  0  0  0  0  0  0  0
    3.1376    3.4974    1.8529 H   0  0  0  0  0  0  0  0  0  0  0  0
    1.7535    3.2355   -2.2051 H   0  0  0  0  0  0  0  0  0  0  0  0
    0.8521    2.3275   -1.0014 H   0  0  0  0  0  0  0  0  0  0  0  0
    3.3105    4.0913   -0.5086 H   0  0  0  0  0  0  0  0  0  0  0  0
    1.0267   -0.9835    0.3492 H   0  0  0  0  0  0  0  0  0  0  0  0
    3.4935   -2.9814   -2.3621 H   0  0  0  0  0  0  0  0  0  0  0  0
    0.0296   -3.3498   -1.1113 H   0  0  0  0  0  0  0  0  0  0  0  0
    0.4404   -1.8331   -1.8810 H   0  0  0  0  0  0  0  0  0  0  0  0
    2.2177    5.8728   -1.4168 H   0  0  0  0  0  0  0  0  0  0  0  0
    0.8624    6.5873   -0.6204 H   0  0  0  0  0  0  0  0  0  0  0  0
   -1.8005   -3.3770    0.6817 H   0  0  0  0  0  0  0  0  0  0  0  0
   -1.1081   -0.0397   -1.9601 H   0  0  0  0  0  0  0  0  0  0  0  0
   -4.0739   -2.5602    1.1209 H   0  0  0  0  0  0  0  0  0  0  0  0
   -3.3802    0.7785   -1.5268 H   0  0  0  0  0  0  0  0  0  0  0  0
   -6.1189   -1.4605   -1.5463 H   0  0  0  0  0  0  0  0  0  0  0  0
   -4.6424    0.8691    1.7753 H   0  0  0  0  0  0  0  0  0  0  0  0
   -8.3991   -0.6341   -1.0990 H   0  0  0  0  0  0  0  0  0  0  0  0
   -6.9296    1.6842    2.2070 H   0  0  0  0  0  0  0  0  0  0  0  0
   -8.8128    0.9378    0.7749 H   0  0  0  0  0  0  0  0  0  0  0  0
  1 11  1  0  0  0  0
  1 12  1  0  0  0  0
  2 11  1  0  0  0  0
  2 13  1  0  0  0  0
  3  9  1  0  0  0  0
  3 50  1  0  0  0  0
  4 20  2  0  0  0  0
  5  8  1  0  0  0  0
  5 14  1  0  0  0  0
  5 15  1  0  0  0  0
  6 10  1  0  0  0  0
  6 19  1  0  0  0  0
  6 49  1  0  0  0  0
  7 20  1  0  0  0  0
  7 53  1  0  0  0  0
  7 54  1  0  0  0  0
  8  9  1  0  0  0  0
  8 11  1  0  0  0  0
  8 33  1  0  0  0  0
  9 10  1  0  0  0  0
  9 34  1  0  0  0  0
 10 12  1  0  0  0  0
 10 35  1  0  0  0  0
 11 36  1  0  0  0  0
 12 13  1  0  0  0  0
 12 37  1  0  0  0  0
 13 38  1  0  0  0  0
 13 39  1  0  0  0  0
 14 16  1  0  0  0  0
 14 40  1  0  0  0  0
 14 41  1  0  0  0  0
 15 17  1  0  0  0  0
 15 42  1  0  0  0  0
 15 43  1  0  0  0  0
 16 18  1  0  0  0  0
 16 44  1  0  0  0  0
 16 45  1  0  0  0  0
 17 18  1  0  0  0  0
 17 46  1  0  0  0  0
 17 47  1  0  0  0  0
 18 20  1  0  0  0  0
 18 48  1  0  0  0  0
 19 21  1  0  0  0  0
 19 51  1  0  0  0  0
 19 52  1  0  0  0  0
 21 22  2  0  0  0  0
 21 23  1  0  0  0  0
 22 24  1  0  0  0  0
 22 55  1  0  0  0  0
 23 25  2  0  0  0  0
 23 56  1  0  0  0  0
 24 26  2  0  0  0  0
 24 57  1  0  0  0  0
 25 26  1  0  0  0  0
 25 58  1  0  0  0  0
 26 27  1  0  0  0  0
 27 28  2  0  0  0  0
 27 29  1  0  0  0  0
 28 30  1  0  0  0  0
 28 59  1  0  0  0  0
 29 31  2  0  0  0  0
 29 60  1  0  0  0  0
 30 32  2  0  0  0  0
 30 61  1  0  0  0  0
 31 32  1  0  0  0  0
 31 62  1  0  0  0  0
 32 63  1  0  0  0  0
M  END
> <PUBCHEM_COMPOUND_CID>
28960503

> <PUBCHEM_CONFORMER_RMSD>
1

> <PUBCHEM_CONFORMER_DIVERSEORDER>
1
15
50
44
8
42
40
20
38
22
47
19
51
54
31
48
16
28
23
21
36
14
10
55
35
7
43
6
25
9
33
12
29
46
52
17
39
45
2
41
37
3
27
4
18
53
32
11
24
30
5
34
26
13
49

> <PUBCHEM_MMFF94_PARTIAL_CHARGES>
41
1 -0.56
10 0.27
11 0.56
12 0.28
13 0.28
14 0.27
15 0.27
18 0.06
19 0.41
2 -0.56
20 0.57
21 -0.14
22 -0.15
23 -0.15
24 -0.15
25 -0.15
28 -0.15
29 -0.15
3 -0.68
30 -0.15
31 -0.15
32 -0.15
4 -0.57
49 0.36
5 -0.81
50 0.4
53 0.37
54 0.37
55 0.15
56 0.15
57 0.15
58 0.15
59 0.15
6 -0.9
60 0.15
61 0.15
62 0.15
63 0.15
7 -0.8
8 0.27
9 0.28

> <PUBCHEM_EFFECTIVE_ROTOR_COUNT>
8.4

> <PUBCHEM_PHARMACOPHORE_FEATURES>
13
1 1 acceptor
1 2 acceptor
1 3 acceptor
1 3 donor
1 4 acceptor
1 5 cation
1 6 cation
1 6 donor
1 7 donor
6 21 22 23 24 25 26 rings
6 27 28 29 30 31 32 rings
6 5 14 15 16 17 18 rings
8 1 2 8 9 10 11 12 13 rings

> <PUBCHEM_HEAVY_ATOM_COUNT>
32

> <PUBCHEM_ATOM_DEF_STEREO_COUNT>
5

> <PUBCHEM_ATOM_UDEF_STEREO_COUNT>
0

> <PUBCHEM_BOND_DEF_STEREO_COUNT>
0

> <PUBCHEM_BOND_UDEF_STEREO_COUNT>
0

> <PUBCHEM_ISOTOPIC_ATOM_COUNT>
0

> <PUBCHEM_COMPONENT_COUNT>
1

> <PUBCHEM_CACTVS_TAUTO_COUNT>
2

> <PUBCHEM_CONFORMER_ID>
01B9E6F700000001

> <PUBCHEM_MMFF94_ENERGY>
95.5782

> <PUBCHEM_FEATURE_SELFOVERLAP>
66.021

> <PUBCHEM_SHAPE_FINGERPRINT>
10483366 6 18268731540295178516
10581848 197 17699813428603894624
10675989 125 18269559519004723577
10937287 8 17689150531993065404
11059845 2 17114918537495402336
11456790 92 18114463341066595507
12166972 35 18272368637947690667
12925494 130 18266458892366664467
13150687 139 10447350087121409434
13878862 14 18262500577333978301
13944108 23 18337399326261267164
14849402 71 18409451414277045981
15001296 14 18339080492746284969
151778 21 18121498222055468684
15183329 4 18060142042337495769
15274700 259 17606953990293855213
15348495 7 17968104140174814579
15400415 2 17616531096552574549
15419008 47 17822567201589951389
15420108 30 17842821486169925478
15475509 84 18263922129593624316
15483637 11 17977099063801327349
19301679 30 17976532815724908458
19302320 297 18267881501763662729
21033648 29 17313650604238610183
21133410 127 17678729257843850365
21344244 78 18044917014349272754
21591340 35 18125723641020242248
21716022 299 14690908449042152967
21860390 5 18272373109303843830
21987440 362 17760659457255970940
22122407 14 18340217353578115003
23559900 14 18272100382817546463
3552219 110 17822845378960693274
3680242 22 18411423903919891313
394071 54 18341898497824028675
4058900 60 17903929098908697724
4760202 170 18265318531785627669
5104073 3 18334298712530150843
513532 50 17917721231481232404
53794403 172 18265901430938654013
54076057 255 18336564758443875838
58902169 19 18059845165661114991
60111433 81 17559943497482638625
6086070 43 18336278906474146755
6371009 1 18271806788175647561
68570916 9 18342457097878282855

> <PUBCHEM_SHAPE_MULTIPOLES>
620.12
16.26
5.75
1.44
35.42
9.53
0.04
-3.12
-3.63
-8.98
-0.3
-0.67
-0.14
-1.47

> <PUBCHEM_SHAPE_SELFOVERLAP>
1344.33

> <PUBCHEM_SHAPE_VOLUME>
335.6

> <PUBCHEM_COORDINATE_TYPE>
2
5
10

$$$$
