86769014
  -OEChem-12032416323D

 45 48  0     1  0  0  0  0  0999 V2000
   -6.4025   -0.9760   -0.0095 O   0  0  0  0  0  0  0  0  0  0  0  0
    2.1741    2.3977    0.1702 O   0  0  0  0  0  0  0  0  0  0  0  0
   -2.4227    0.3334   -0.2808 N   0  0  1  0  0  0  0  0  0  0  0  0
    0.2652    1.1624   -0.3441 N   0  0  0  0  0  0  0  0  0  0  0  0
    2.2194    0.0304   -0.1811 N   0  0  0  0  0  0  0  0  0  0  0  0
   -0.0639   -0.1795   -0.7553 C   0  0  2  0  0  0  0  0  0  0  0  0
   -1.3446   -0.6532   -0.0692 C   0  0  0  0  0  0  0  0  0  0  0  0
   -3.6683   -0.1369    0.3205 C   0  0  0  0  0  0  0  0  0  0  0  0
   -2.0469    1.6487    0.2750 C   0  0  0  0  0  0  0  0  0  0  0  0
   -0.7646    2.1816   -0.3686 C   0  0  0  0  0  0  0  0  0  0  0  0
    1.1866   -0.9760   -0.4019 C   0  0  0  0  0  0  0  0  0  0  0  0
   -4.8025    0.8528    0.0391 C   0  0  0  0  0  0  0  0  0  0  0  0
   -4.0432   -1.5266   -0.2037 C   0  0  0  0  0  0  0  0  0  0  0  0
    1.6363    1.3295   -0.0907 C   0  0  0  0  0  0  0  0  0  0  0  0
   -6.1264    0.3039    0.5594 C   0  0  0  0  0  0  0  0  0  0  0  0
   -5.4092   -1.9436    0.3302 C   0  0  0  0  0  0  0  0  0  0  0  0
    3.5919   -0.3092   -0.0044 C   0  0  0  0  0  0  0  0  0  0  0  0
    4.5239    0.6856    0.2912 C   0  0  0  0  0  0  0  0  0  0  0  0
    4.0035   -1.6362   -0.1272 C   0  0  0  0  0  0  0  0  0  0  0  0
    5.8677    0.3534    0.4641 C   0  0  0  0  0  0  0  0  0  0  0  0
    5.3470   -1.9685    0.0455 C   0  0  0  0  0  0  0  0  0  0  0  0
    6.2792   -0.9737    0.3411 C   0  0  0  0  0  0  0  0  0  0  0  0
   -0.1987   -0.1552   -1.8450 H   0  0  0  0  0  0  0  0  0  0  0  0
   -1.5692   -1.6221   -0.5233 H   0  0  0  0  0  0  0  0  0  0  0  0
   -1.1744   -0.8098    1.0044 H   0  0  0  0  0  0  0  0  0  0  0  0
   -3.5470   -0.2135    1.4114 H   0  0  0  0  0  0  0  0  0  0  0  0
   -1.9075    1.5790    1.3620 H   0  0  0  0  0  0  0  0  0  0  0  0
   -2.8026    2.4141    0.0814 H   0  0  0  0  0  0  0  0  0  0  0  0
   -0.9385    2.4416   -1.4193 H   0  0  0  0  0  0  0  0  0  0  0  0
   -0.4054    3.0784    0.1462 H   0  0  0  0  0  0  0  0  0  0  0  0
    1.0653   -1.5555    0.5201 H   0  0  0  0  0  0  0  0  0  0  0  0
    1.4537   -1.6416   -1.2288 H   0  0  0  0  0  0  0  0  0  0  0  0
   -4.8867    1.0228   -1.0421 H   0  0  0  0  0  0  0  0  0  0  0  0
   -4.6534    1.8204    0.5262 H   0  0  0  0  0  0  0  0  0  0  0  0
   -3.3388   -2.3018    0.1118 H   0  0  0  0  0  0  0  0  0  0  0  0
   -4.0764   -1.5144   -1.3008 H   0  0  0  0  0  0  0  0  0  0  0  0
   -6.1243    0.2239    1.6530 H   0  0  0  0  0  0  0  0  0  0  0  0
   -6.9441    0.9756    0.2790 H   0  0  0  0  0  0  0  0  0  0  0  0
   -5.7081   -2.8976   -0.1157 H   0  0  0  0  0  0  0  0  0  0  0  0
   -5.3894   -2.0788    1.4182 H   0  0  0  0  0  0  0  0  0  0  0  0
    4.2744    1.7322    0.3992 H   0  0  0  0  0  0  0  0  0  0  0  0
    3.3124   -2.4431   -0.3496 H   0  0  0  0  0  0  0  0  0  0  0  0
    6.5944    1.1272    0.6941 H   0  0  0  0  0  0  0  0  0  0  0  0
    5.6680   -3.0018   -0.0485 H   0  0  0  0  0  0  0  0  0  0  0  0
    7.3253   -1.2326    0.4759 H   0  0  0  0  0  0  0  0  0  0  0  0
  1 15  1  0  0  0  0
  1 16  1  0  0  0  0
  2 14  2  0  0  0  0
  3  7  1  0  0  0  0
  3  8  1  0  0  0  0
  3  9  1  0  0  0  0
  4  6  1  0  0  0  0
  4 10  1  0  0  0  0
  4 14  1  0  0  0  0
  5 11  1  0  0  0  0
  5 14  1  0  0  0  0
  5 17  1  0  0  0  0
  6  7  1  0  0  0  0
  6 11  1  0  0  0  0
  6 23  1  0  0  0  0
  7 24  1  0  0  0  0
  7 25  1  0  0  0  0
  8 12  1  0  0  0  0
  8 13  1  0  0  0  0
  8 26  1  0  0  0  0
  9 10  1  0  0  0  0
  9 27  1  0  0  0  0
  9 28  1  0  0  0  0
 10 29  1  0  0  0  0
 10 30  1  0  0  0  0
 11 31  1  0  0  0  0
 11 32  1  0  0  0  0
 12 15  1  0  0  0  0
 12 33  1  0  0  0  0
 12 34  1  0  0  0  0
 13 16  1  0  0  0  0
 13 35  1  0  0  0  0
 13 36  1  0  0  0  0
 15 37  1  0  0  0  0
 15 38  1  0  0  0  0
 16 39  1  0  0  0  0
 16 40  1  0  0  0  0
 17 18  2  0  0  0  0
 17 19  1  0  0  0  0
 18 20  1  0  0  0  0
 18 41  1  0  0  0  0
 19 21  2  0  0  0  0
 19 42  1  0  0  0  0
 20 22  2  0  0  0  0
 20 43  1  0  0  0  0
 21 22  1  0  0  0  0
 21 44  1  0  0  0  0
 22 45  1  0  0  0  0
M  END
> <PUBCHEM_COMPOUND_CID>
86769014

> <PUBCHEM_CONFORMER_RMSD>
0.8

> <PUBCHEM_CONFORMER_DIVERSEORDER>
1
6
3
5
2
4

> <PUBCHEM_MMFF94_PARTIAL_CHARGES>
25
1 -0.56
10 0.3
11 0.3
14 0.69
15 0.28
16 0.28
17 0.12
18 -0.15
19 -0.15
2 -0.57
20 -0.15
21 -0.15
22 -0.15
3 -0.81
4 -0.66
41 0.15
42 0.15
43 0.15
44 0.15
45 0.15
5 -0.48
6 0.3
7 0.27
8 0.27
9 0.27

> <PUBCHEM_EFFECTIVE_ROTOR_COUNT>
4.4

> <PUBCHEM_PHARMACOPHORE_FEATURES>
7
1 1 acceptor
1 2 acceptor
1 3 cation
5 4 5 6 11 14 rings
6 1 8 12 13 15 16 rings
6 17 18 19 20 21 22 rings
6 3 4 6 7 9 10 rings

> <PUBCHEM_HEAVY_ATOM_COUNT>
22

> <PUBCHEM_ATOM_DEF_STEREO_COUNT>
1

> <PUBCHEM_ATOM_UDEF_STEREO_COUNT>
0

> <PUBCHEM_BOND_DEF_STEREO_COUNT>
0

> <PUBCHEM_BOND_UDEF_STEREO_COUNT>
0

> <PUBCHEM_ISOTOPIC_ATOM_COUNT>
0

> <PUBCHEM_COMPONENT_COUNT>
1

> <PUBCHEM_CACTVS_TAUTO_COUNT>
1

> <PUBCHEM_CONFORMER_ID>
052BFD7600000001

> <PUBCHEM_MMFF94_ENERGY>
61.907

> <PUBCHEM_FEATURE_SELFOVERLAP>
35.615

> <PUBCHEM_SHAPE_FINGERPRINT>
10 15 18342164606104067616
106641 1 18131346445148080162
11315181 36 18343585153435948529
11524674 6 16917348138764934151
11796584 16 17168144567775188339
12107183 9 17619632376144747722
12236239 1 18202565085775166091
12516196 113 18411981364382816832
12596602 18 17917713500176297618
12670543 26 10809338932282422200
13288520 33 18335421266567123063
13402501 40 18409168805049531386
13533116 47 18412826919332725736
13668630 136 15574720183493256531
13685833 64 18334017207166434747
13862211 1 18410574007106595527
14251752 14 17458336404193838541
14251764 18 18341895211836346142
14341114 176 18413673499924619722
15196674 1 18410856559655776292
15461852 350 16773790403838448245
15927050 60 17695344072887819748
17492 89 18048037669136009731
17857418 61 18410012147768879659
17959699 21 9223225252522128638
1813 80 17603305942811264516
18222031 100 17458065954477252580
19141452 34 18272366498837705870
200 152 18272087201962892617
20028762 73 18271805747976716143
21033648 29 17202747216487001624
21130935 74 18272090491344099243
21150785 3 15430326840661483894
21236236 1 18340767027524418837
21267235 1 18340771451820398510
21279426 13 18191583055993686559
22224240 67 17275378811355700854
23035841 295 18261110759781144059
23402539 116 18411415116258561087
23522609 53 18119561836045370740
23559900 14 18335978766091254681
26918003 58 18342176670208233041
2838139 119 9511462203915427315
2916195 48 10375868571849254847
293599 30 9655577409292211591
3004659 81 18040155119656475494
335352 9 18410012126937478933
350125 39 18413108372502504652
351380 3 18260545619347039411
4073 2 18042128811278676027
4214541 1 18410576172049674421
4325135 7 18187088365062158108
4340502 62 14620800409273223997
4463277 17 18410011035330080604
465052 167 18412830196218601862
5104073 3 18199459983761158232
542803 24 12607403295355076458
559249 180 18409166598343208723
5718773 13 18265332992666517811
59682541 35 18341042009000617520
59755656 215 18187079521044545851
67856867 119 18269837669597014777
7495541 125 17989201577308276560

> <PUBCHEM_SHAPE_MULTIPOLES>
426.07
16.2
2.12
0.7
2.26
0.31
0
-7.21
-3.05
-0.03
0.01
0.02
0
0.12

> <PUBCHEM_SHAPE_SELFOVERLAP>
909.826

> <PUBCHEM_SHAPE_VOLUME>
234.9

> <PUBCHEM_COORDINATE_TYPE>
2
5
10

$$$$
