75536980
  -OEChem-12032416333D

 42 44  0     1  0  0  0  0  0999 V2000
    1.6621   -2.7234    0.2707 O   0  0  0  0  0  0  0  0  0  0  0  0
   -4.8900   -0.7761   -1.0423 O   0  0  0  0  0  0  0  0  0  0  0  0
   -5.8476    1.3286   -0.0172 O   0  0  0  0  0  0  0  0  0  0  0  0
   -0.3113   -1.4507    0.3464 N   0  0  0  0  0  0  0  0  0  0  0  0
    1.5702   -0.5505    1.1822 N   0  0  0  0  0  0  0  0  0  0  0  0
   -2.6604   -0.2989   -0.6018 N   0  0  0  0  0  0  0  0  0  0  0  0
    4.0142    1.6479    0.6486 N   0  0  0  0  0  0  0  0  0  0  0  0
   -0.7347   -0.1853    0.9199 C   0  0  1  0  0  0  0  0  0  0  0  0
    0.5769    0.5038    1.2883 C   0  0  0  0  0  0  0  0  0  0  0  0
   -1.6045    0.5840   -0.0710 C   0  0  0  0  0  0  0  0  0  0  0  0
   -1.2918   -2.3283   -0.2667 C   0  0  0  0  0  0  0  0  0  0  0  0
   -2.1687   -1.5337   -1.2316 C   0  0  0  0  0  0  0  0  0  0  0  0
    1.0495   -1.7055    0.5656 C   0  0  0  0  0  0  0  0  0  0  0  0
    2.9521   -0.3407    1.5535 C   0  0  0  0  0  0  0  0  0  0  0  0
   -4.0277   -0.0320   -0.5685 C   0  0  0  0  0  0  0  0  0  0  0  0
    3.7296    0.3393    0.4639 C   0  0  0  0  0  0  0  0  0  0  0  0
   -4.4473    1.2536    0.0981 C   0  0  0  0  0  0  0  0  0  0  0  0
    4.1111   -0.3875   -0.6523 C   0  0  0  0  0  0  0  0  0  0  0  0
    4.8313    0.2711   -1.6428 C   0  0  0  0  0  0  0  0  0  0  0  0
    4.7155    2.2545   -0.3353 C   0  0  0  0  0  0  0  0  0  0  0  0
    5.1434    1.6173   -1.4888 C   0  0  0  0  0  0  0  0  0  0  0  0
   -6.3720    2.5126    0.5812 C   0  0  0  0  0  0  0  0  0  0  0  0
   -1.3088   -0.4256    1.8239 H   0  0  0  0  0  0  0  0  0  0  0  0
    0.8436    1.3046    0.5909 H   0  0  0  0  0  0  0  0  0  0  0  0
    0.5583    0.8991    2.3083 H   0  0  0  0  0  0  0  0  0  0  0  0
   -2.0100    1.4777    0.4067 H   0  0  0  0  0  0  0  0  0  0  0  0
   -1.0158    0.9142   -0.9359 H   0  0  0  0  0  0  0  0  0  0  0  0
   -1.8984   -2.7450    0.5452 H   0  0  0  0  0  0  0  0  0  0  0  0
   -0.7855   -3.1546   -0.7749 H   0  0  0  0  0  0  0  0  0  0  0  0
   -1.5865   -1.2297   -2.1099 H   0  0  0  0  0  0  0  0  0  0  0  0
   -2.9979   -2.1552   -1.5831 H   0  0  0  0  0  0  0  0  0  0  0  0
    3.4111   -1.3127    1.7697 H   0  0  0  0  0  0  0  0  0  0  0  0
    2.9777    0.2460    2.4787 H   0  0  0  0  0  0  0  0  0  0  0  0
   -4.1563    1.2291    1.1534 H   0  0  0  0  0  0  0  0  0  0  0  0
   -3.9869    2.1017   -0.4188 H   0  0  0  0  0  0  0  0  0  0  0  0
    3.8714   -1.4389   -0.7642 H   0  0  0  0  0  0  0  0  0  0  0  0
    5.1501   -0.2639   -2.5322 H   0  0  0  0  0  0  0  0  0  0  0  0
    4.9331    3.3041   -0.1672 H   0  0  0  0  0  0  0  0  0  0  0  0
    5.7041    2.1508   -2.2477 H   0  0  0  0  0  0  0  0  0  0  0  0
   -7.4582    2.5073    0.4574 H   0  0  0  0  0  0  0  0  0  0  0  0
   -5.9658    3.4007    0.0878 H   0  0  0  0  0  0  0  0  0  0  0  0
   -6.1397    2.5338    1.6503 H   0  0  0  0  0  0  0  0  0  0  0  0
  1 13  2  0  0  0  0
  2 15  2  0  0  0  0
  3 17  1  0  0  0  0
  3 22  1  0  0  0  0
  4  8  1  0  0  0  0
  4 11  1  0  0  0  0
  4 13  1  0  0  0  0
  5  9  1  0  0  0  0
  5 13  1  0  0  0  0
  5 14  1  0  0  0  0
  6 10  1  0  0  0  0
  6 12  1  0  0  0  0
  6 15  1  0  0  0  0
  7 16  1  0  0  0  0
  7 20  2  0  0  0  0
  8  9  1  0  0  0  0
  8 10  1  0  0  0  0
  8 23  1  0  0  0  0
  9 24  1  0  0  0  0
  9 25  1  0  0  0  0
 10 26  1  0  0  0  0
 10 27  1  0  0  0  0
 11 12  1  0  0  0  0
 11 28  1  0  0  0  0
 11 29  1  0  0  0  0
 12 30  1  0  0  0  0
 12 31  1  0  0  0  0
 14 16  1  0  0  0  0
 14 32  1  0  0  0  0
 14 33  1  0  0  0  0
 15 17  1  0  0  0  0
 16 18  2  0  0  0  0
 17 34  1  0  0  0  0
 17 35  1  0  0  0  0
 18 19  1  0  0  0  0
 18 36  1  0  0  0  0
 19 21  2  0  0  0  0
 19 37  1  0  0  0  0
 20 21  1  0  0  0  0
 20 38  1  0  0  0  0
 21 39  1  0  0  0  0
 22 40  1  0  0  0  0
 22 41  1  0  0  0  0
 22 42  1  0  0  0  0
M  END
> <PUBCHEM_COMPOUND_CID>
75536980

> <PUBCHEM_CONFORMER_RMSD>
0.8

> <PUBCHEM_CONFORMER_DIVERSEORDER>
1
60
127
159
150
4
130
112
110
48
76
113
62
71
117
152
39
156
120
116
37
145
72
28
163
115
92
107
65
176
10
132
140
66
165
94
175
125
18
43
128
147
5
38
158
44
149
129
74
24
169
141
41
123
46
119
178
32
88
172
174
49
139
84
104
70
67
160
14
52
170
109
143
102
167
131
98
118
53
29
12
95
78
47
126
75
173
79
11
106
151
162
100
51
87
86
63
21
59
81
103
124
69
80
161
55
114
13
23
50
57
30
17
154
122
97
146
135
136
33
2
20
34
164
121
73
7
9
99
91
64
144
8
3
108
133
171
45
101
19
138
27
82
148
16
31
93
15
153
22
177
6
25
40
105
137
166
77
89
96
134
111
157
61
155
90
85
26
56
54
42
35
58
142
168
83
36
68

> <PUBCHEM_MMFF94_PARTIAL_CHARGES>
26
1 -0.57
10 0.3
11 0.3
12 0.3
13 0.69
14 0.44
15 0.57
16 0.17
17 0.34
18 -0.15
19 -0.15
2 -0.57
20 0.16
21 -0.15
22 0.28
3 -0.56
36 0.15
37 0.15
38 0.15
39 0.15
4 -0.66
5 -0.66
6 -0.66
7 -0.62
8 0.3
9 0.3

> <PUBCHEM_EFFECTIVE_ROTOR_COUNT>
6.2

> <PUBCHEM_PHARMACOPHORE_FEATURES>
7
1 1 acceptor
1 2 acceptor
1 3 acceptor
1 7 acceptor
5 4 5 8 9 13 rings
6 4 6 8 10 11 12 rings
6 7 16 18 19 20 21 rings

> <PUBCHEM_HEAVY_ATOM_COUNT>
22

> <PUBCHEM_ATOM_DEF_STEREO_COUNT>
1

> <PUBCHEM_ATOM_UDEF_STEREO_COUNT>
0

> <PUBCHEM_BOND_DEF_STEREO_COUNT>
0

> <PUBCHEM_BOND_UDEF_STEREO_COUNT>
0

> <PUBCHEM_ISOTOPIC_ATOM_COUNT>
0

> <PUBCHEM_COMPONENT_COUNT>
1

> <PUBCHEM_CACTVS_TAUTO_COUNT>
1

> <PUBCHEM_CONFORMER_ID>
04809A5400000001

> <PUBCHEM_MMFF94_ENERGY>
52.3303

> <PUBCHEM_FEATURE_SELFOVERLAP>
35.638

> <PUBCHEM_SHAPE_FINGERPRINT>
10378564 45 17418094278385277460
10498660 4 18336266863996991984
10554248 39 18122606290075276335
10753850 27 10519980466218100629
11796584 16 13830126196144988781
12390115 104 18131074818937418131
12555020 224 13614519667115436677
12616971 3 18113885044699185434
12633257 1 13623809501119517500
12788726 201 17489030336356104185
12839892 36 11530475627929591705
12892183 10 12324506663300433358
12954195 1 16773248279485126249
13782708 43 12463270528717193397
13955234 65 17604706638752225554
1420 369 10519993664225281308
14251740 57 7853583430570682960
14251764 75 16807600488912996844
14366163 111 18412263943498659304
14528608 73 18410007758301695285
14790565 3 18341051826847956337
14840074 17 18040722459009088317
14848178 5 11815897855404409716
15163728 17 18115037402084853374
15183329 4 16415205550730884121
15188451 53 9583524178740999188
15210252 30 18408886269754313240
15342168 16 18260265235418414599
15475509 8 16773249409230499065
15575132 122 18261391101435725693
15885798 251 10807943669301881522
1601671 61 18410851032344291145
17857418 61 10087632702703611185
17959699 21 18412546526450071884
1813 80 12175627282688374618
18222031 100 9079117790897116850
193927 3 12894806882055226276
20567600 234 14634882971529230301
20645477 70 15051450569942192538
20871999 31 18270398437664721846
21315764 119 17846510192302785852
21637258 2 12895081682716030012
22079108 93 16443067213896251337
2215653 11 16128655241173482141
23366157 5 18119521046867444139
23559900 14 17131828815722919296
2838139 119 17748819748511964876
3004659 81 18130506341103059198
312425 54 11963653496494390189
3472631 163 18409732901922530644
34797466 226 16271345518377889985
4058900 60 18199198278687936627
474 4 17386004009563600470
4990 188 17489862760841694202
5104073 3 17749664177309549826
56616090 163 18409737252571517559
59682541 52 16056598695234298693
633830 44 18411693318380599502
6438161 24 8357960149661036833
76465 3 10087640403395142291
8988823 20 10591747775863537546
960060 61 16272210816670121836

> <PUBCHEM_SHAPE_MULTIPOLES>
415.22
13.57
2.48
1.37
9.01
0.15
-0.07
-11.5
-3.76
0.73
-0.04
-1.19
0
-1.56

> <PUBCHEM_SHAPE_SELFOVERLAP>
871.352

> <PUBCHEM_SHAPE_VOLUME>
233.6

> <PUBCHEM_COORDINATE_TYPE>
2
5
10

$$$$
