71693893
  -OEChem-12032416273D

 48 51  0     1  0  0  0  0  0999 V2000
   -2.9092   -1.4447   -1.0568 S   0  0  0  0  0  0  0  0  0  0  0  0
    0.9568    3.9151   -1.3199 O   0  0  0  0  0  0  0  0  0  0  0  0
    3.5756    3.1995   -0.9088 O   0  0  0  0  0  0  0  0  0  0  0  0
   -0.1020   -0.5752   -1.2774 O   0  0  0  0  0  0  0  0  0  0  0  0
    4.2796   -3.8283    0.0307 O   0  0  0  0  0  0  0  0  0  0  0  0
   -0.2525    1.3687   -0.0210 N   0  0  0  0  0  0  0  0  0  0  0  0
    1.9972    1.2630    1.0098 C   0  0  2  0  0  0  0  0  0  0  0  0
    1.1246    1.7690   -0.1610 C   0  0  2  0  0  0  0  0  0  0  0  0
    1.2869    3.2870   -0.0956 C   0  0  1  0  0  0  0  0  0  0  0  0
    3.0318    2.3856    1.2815 C   0  0  0  0  0  0  0  0  0  0  0  0
    2.7648    3.4629    0.2322 C   0  0  1  0  0  0  0  0  0  0  0  0
    2.6075   -0.0979    0.7486 C   0  0  0  0  0  0  0  0  0  0  0  0
    3.4549   -0.2838   -0.3435 C   0  0  0  0  0  0  0  0  0  0  0  0
    2.3220   -1.1656    1.5996 C   0  0  0  0  0  0  0  0  0  0  0  0
   -0.7576    0.2122   -0.6000 C   0  0  0  0  0  0  0  0  0  0  0  0
    4.0171   -1.5372   -0.5847 C   0  0  0  0  0  0  0  0  0  0  0  0
    2.8842   -2.4191    1.3585 C   0  0  0  0  0  0  0  0  0  0  0  0
   -2.2045   -0.0460   -0.3841 C   0  0  0  0  0  0  0  0  0  0  0  0
    3.7318   -2.6050    0.2663 C   0  0  0  0  0  0  0  0  0  0  0  0
   -3.1182    0.7069    0.3143 C   0  0  0  0  0  0  0  0  0  0  0  0
   -4.4348    0.1353    0.3077 C   0  0  0  0  0  0  0  0  0  0  0  0
   -4.4637   -1.0605   -0.4169 C   0  0  0  0  0  0  0  0  0  0  0  0
   -5.6387    0.5886    0.8992 C   0  0  0  0  0  0  0  0  0  0  0  0
   -5.6508   -1.8045   -0.5632 C   0  0  0  0  0  0  0  0  0  0  0  0
    5.1372   -3.9480   -1.1035 C   0  0  0  0  0  0  0  0  0  0  0  0
   -6.8181   -0.1471    0.7560 C   0  0  0  0  0  0  0  0  0  0  0  0
   -6.8218   -1.3309    0.0320 C   0  0  0  0  0  0  0  0  0  0  0  0
    1.3707    1.1881    1.9109 H   0  0  0  0  0  0  0  0  0  0  0  0
    1.4763    1.4078   -1.1352 H   0  0  0  0  0  0  0  0  0  0  0  0
    0.6625    3.7146    0.6990 H   0  0  0  0  0  0  0  0  0  0  0  0
    2.8379    2.7993    2.2791 H   0  0  0  0  0  0  0  0  0  0  0  0
    4.0675    2.0299    1.2663 H   0  0  0  0  0  0  0  0  0  0  0  0
    2.9954    4.4729    0.5838 H   0  0  0  0  0  0  0  0  0  0  0  0
   -0.8477    1.9469    0.5621 H   0  0  0  0  0  0  0  0  0  0  0  0
    1.1738    4.8588   -1.2316 H   0  0  0  0  0  0  0  0  0  0  0  0
    4.5042    3.2870   -0.6338 H   0  0  0  0  0  0  0  0  0  0  0  0
    3.6941    0.5328   -1.0176 H   0  0  0  0  0  0  0  0  0  0  0  0
    1.6628   -1.0375    2.4539 H   0  0  0  0  0  0  0  0  0  0  0  0
    4.6667   -1.6116   -1.4501 H   0  0  0  0  0  0  0  0  0  0  0  0
    2.6578   -3.2473    2.0245 H   0  0  0  0  0  0  0  0  0  0  0  0
   -2.8863    1.6350    0.8213 H   0  0  0  0  0  0  0  0  0  0  0  0
   -5.6517    1.5143    1.4695 H   0  0  0  0  0  0  0  0  0  0  0  0
   -5.6632   -2.7324   -1.1281 H   0  0  0  0  0  0  0  0  0  0  0  0
    5.4832   -4.9862   -1.1388 H   0  0  0  0  0  0  0  0  0  0  0  0
    6.0272   -3.3176   -1.0033 H   0  0  0  0  0  0  0  0  0  0  0  0
    4.5975   -3.7590   -2.0377 H   0  0  0  0  0  0  0  0  0  0  0  0
   -7.7354    0.2114    1.2145 H   0  0  0  0  0  0  0  0  0  0  0  0
   -7.7437   -1.8962   -0.0740 H   0  0  0  0  0  0  0  0  0  0  0  0
  1 18  1  0  0  0  0
  1 22  1  0  0  0  0
  2  9  1  0  0  0  0
  2 35  1  0  0  0  0
  3 11  1  0  0  0  0
  3 36  1  0  0  0  0
  4 15  2  0  0  0  0
  5 19  1  0  0  0  0
  5 25  1  0  0  0  0
  6  8  1  0  0  0  0
  6 15  1  0  0  0  0
  6 34  1  0  0  0  0
  7  8  1  0  0  0  0
  7 10  1  0  0  0  0
  7 12  1  0  0  0  0
  7 28  1  0  0  0  0
  8  9  1  0  0  0  0
  8 29  1  0  0  0  0
  9 11  1  0  0  0  0
  9 30  1  0  0  0  0
 10 11  1  0  0  0  0
 10 31  1  0  0  0  0
 10 32  1  0  0  0  0
 11 33  1  0  0  0  0
 12 13  2  0  0  0  0
 12 14  1  0  0  0  0
 13 16  1  0  0  0  0
 13 37  1  0  0  0  0
 14 17  2  0  0  0  0
 14 38  1  0  0  0  0
 15 18  1  0  0  0  0
 16 19  2  0  0  0  0
 16 39  1  0  0  0  0
 17 19  1  0  0  0  0
 17 40  1  0  0  0  0
 18 20  2  0  0  0  0
 20 21  1  0  0  0  0
 20 41  1  0  0  0  0
 21 22  1  0  0  0  0
 21 23  2  0  0  0  0
 22 24  2  0  0  0  0
 23 26  1  0  0  0  0
 23 42  1  0  0  0  0
 24 27  1  0  0  0  0
 24 43  1  0  0  0  0
 25 44  1  0  0  0  0
 25 45  1  0  0  0  0
 25 46  1  0  0  0  0
 26 27  2  0  0  0  0
 26 47  1  0  0  0  0
 27 48  1  0  0  0  0
M  END
> <PUBCHEM_COMPOUND_CID>
71693893

> <PUBCHEM_CONFORMER_RMSD>
0.8

> <PUBCHEM_CONFORMER_DIVERSEORDER>
1
30
4
21
10
16
12
24
17
7
25
28
27
22
13
14
29
23
11
8
19
6
15
26
20
9
18
2
3
5

> <PUBCHEM_MMFF94_PARTIAL_CHARGES>
37
1 -0.08
11 0.28
12 -0.14
13 -0.15
14 -0.15
15 0.71
16 -0.15
17 -0.15
18 -0.05
19 0.08
2 -0.68
20 -0.15
22 0.04
23 -0.15
24 -0.15
25 0.28
26 -0.15
27 -0.15
3 -0.68
34 0.37
35 0.4
36 0.4
37 0.15
38 0.15
39 0.15
4 -0.57
40 0.15
41 0.15
42 0.15
43 0.15
47 0.15
48 0.15
5 -0.36
6 -0.73
7 0.14
8 0.3
9 0.28

> <PUBCHEM_EFFECTIVE_ROTOR_COUNT>
6

> <PUBCHEM_PHARMACOPHORE_FEATURES>
11
1 2 acceptor
1 2 donor
1 3 acceptor
1 3 donor
1 4 acceptor
1 5 acceptor
1 6 donor
5 1 18 20 21 22 rings
5 7 8 9 10 11 rings
6 12 13 14 16 17 19 rings
6 21 22 23 24 26 27 rings

> <PUBCHEM_HEAVY_ATOM_COUNT>
27

> <PUBCHEM_ATOM_DEF_STEREO_COUNT>
4

> <PUBCHEM_ATOM_UDEF_STEREO_COUNT>
0

> <PUBCHEM_BOND_DEF_STEREO_COUNT>
0

> <PUBCHEM_BOND_UDEF_STEREO_COUNT>
0

> <PUBCHEM_ISOTOPIC_ATOM_COUNT>
0

> <PUBCHEM_COMPONENT_COUNT>
1

> <PUBCHEM_CACTVS_TAUTO_COUNT>
2

> <PUBCHEM_CONFORMER_ID>
0445F64500000001

> <PUBCHEM_MMFF94_ENERGY>
80.8532

> <PUBCHEM_FEATURE_SELFOVERLAP>
55.893

> <PUBCHEM_SHAPE_FINGERPRINT>
10483366 6 18336561507823669060
10554248 39 18340193168912897973
11059845 2 17128190334183368865
114674 6 18113610205420807682
11954058 11 18411702075703059935
12107183 9 18198632021483240025
12166972 35 18202003205485029235
12403259 327 15482090731279249214
12553582 1 18265319630321237234
12788726 201 17757272579052505418
13009979 54 17988365849544552928
13167823 11 18341610464864838691
13533116 47 18411699928709638875
13673619 4 18114185172740136999
13690498 29 18116155463185575567
13692114 37 17835789069464190154
13785724 45 18198913521470157335
13911852 28 18267019453728165783
13955234 65 18269834371014548704
14251764 30 18268149751718592150
14341114 176 18343021073589877155
14420673 8 18198910197688086167
14739800 52 17488734722326300529
14863182 85 18265324187761677136
15250474 111 18056465378270353071
15927050 60 18125723641209990470
17349148 13 17703788133257524997
17492 89 18412823603749757411
17818456 19 17988648458920429585
17844677 252 18408603661148270721
1813 80 18338515236036508334
20505436 4 17629763628222818428
20775438 99 18264196092451826475
21049683 271 18410297995839722084
21344244 78 18272355495384870657
21421861 104 18338225055145498656
21716022 299 18264790804442048796
22033318 11 18055666987306050753
2260408 40 18130211714582625592
22950370 63 18339083666299900406
23559900 14 18413102871097388771
239999 70 18041271175076393400
255183 451 18412547574237664598
3117164 225 18340487760450860641
3411729 13 18270963573856769020
3421961 26 18411976958015351040
34797466 226 16443352013578432975
3680242 22 18201450190244540305
4073 2 18117563044850051107
4144715 1 18113902693769753097
4409770 3 17543065684779281460
44880168 125 16986580958846337590
4516262 110 18194676197553125509
46194498 28 17531249482375696996
465052 167 18271810090267279687
5104073 3 18202010962702381083
5309563 4 18267020548770902286
56633871 153 17916297247580019383
5912855 24 17983854764459884263
70251023 43 18336832974919801410
7970288 3 18195244417004403978
8272917 22 18263641929963900037
8509985 295 17203887474849309689
86090 222 17312825996197963595
9962374 69 18342446076311777967

> <PUBCHEM_SHAPE_MULTIPOLES>
531.04
14.43
4.68
1.23
24.27
0.97
-0.13
-10.18
-1.17
-9.84
1.05
-0.62
-0.07
-0.35

> <PUBCHEM_SHAPE_SELFOVERLAP>
1146.464

> <PUBCHEM_SHAPE_VOLUME>
293.4

> <PUBCHEM_COORDINATE_TYPE>
2
5
10

$$$$
