26742540
  -OEChem-12032416173D

 62 64  0     1  0  0  0  0  0999 V2000
    0.7879   -2.3104   -0.0761 O   0  0  0  0  0  0  0  0  0  0  0  0
   -7.1847   -0.7872   -0.5679 O   0  0  0  0  0  0  0  0  0  0  0  0
    4.4973   -1.3849   -0.0125 O   0  0  0  0  0  0  0  0  0  0  0  0
    7.1077   -0.7182    0.6156 O   0  0  0  0  0  0  0  0  0  0  0  0
   -4.9252   -0.3567   -0.2393 N   0  0  0  0  0  0  0  0  0  0  0  0
    0.3509   -0.0326    0.0270 N   0  0  0  0  0  0  0  0  0  0  0  0
   -6.5193    1.3920   -0.3051 N   0  0  0  0  0  0  0  0  0  0  0  0
   -2.7719    0.1428    0.9325 C   0  0  2  0  0  0  0  0  0  0  0  0
   -2.3499   -1.3375    0.8029 C   0  0  1  0  0  0  0  0  0  0  0  0
   -3.6244   -2.2008    0.7858 C   0  0  0  0  0  0  0  0  0  0  0  0
   -3.7776    0.5637   -0.1597 C   0  0  0  0  0  0  0  0  0  0  0  0
   -1.5936    1.1270    1.0362 C   0  0  0  0  0  0  0  0  0  0  0  0
   -1.4700   -1.6394   -0.4220 C   0  0  0  0  0  0  0  0  0  0  0  0
   -4.5880   -1.7804   -0.3177 C   0  0  0  0  0  0  0  0  0  0  0  0
   -0.5936    1.0759   -0.1145 C   0  0  0  0  0  0  0  0  0  0  0  0
   -0.0037   -1.3670   -0.1454 C   0  0  0  0  0  0  0  0  0  0  0  0
    1.7216    0.3188    0.3741 C   0  0  0  0  0  0  0  0  0  0  0  0
   -6.2733    0.0257   -0.3806 C   0  0  0  0  0  0  0  0  0  0  0  0
    2.5919    0.5677   -0.8554 C   0  0  0  0  0  0  0  0  0  0  0  0
    4.0204    0.9059   -0.5064 C   0  0  0  0  0  0  0  0  0  0  0  0
   -7.8491    1.9435   -0.4404 C   0  0  0  0  0  0  0  0  0  0  0  0
    4.9105   -0.0881   -0.1000 C   0  0  0  0  0  0  0  0  0  0  0  0
    4.4474    2.2310   -0.5944 C   0  0  0  0  0  0  0  0  0  0  0  0
   -8.6342    1.8205    0.8491 C   0  0  0  0  0  0  0  0  0  0  0  0
    6.2276    0.2428    0.2184 C   0  0  0  0  0  0  0  0  0  0  0  0
    5.7645    2.5618   -0.2761 C   0  0  0  0  0  0  0  0  0  0  0  0
    6.6546    1.5677    0.1304 C   0  0  0  0  0  0  0  0  0  0  0  0
    4.6415   -2.1894   -1.1807 C   0  0  0  0  0  0  0  0  0  0  0  0
    8.4347   -0.2943    0.9223 C   0  0  0  0  0  0  0  0  0  0  0  0
   -3.3138    0.2283    1.8870 H   0  0  0  0  0  0  0  0  0  0  0  0
   -1.7862   -1.6091    1.7062 H   0  0  0  0  0  0  0  0  0  0  0  0
   -4.1301   -2.1045    1.7556 H   0  0  0  0  0  0  0  0  0  0  0  0
   -3.3681   -3.2605    0.6719 H   0  0  0  0  0  0  0  0  0  0  0  0
   -4.0766    1.5922    0.0337 H   0  0  0  0  0  0  0  0  0  0  0  0
   -3.3179    0.5604   -1.1536 H   0  0  0  0  0  0  0  0  0  0  0  0
   -1.0676    0.9534    1.9840 H   0  0  0  0  0  0  0  0  0  0  0  0
   -2.0007    2.1446    1.0952 H   0  0  0  0  0  0  0  0  0  0  0  0
   -1.7840   -1.1054   -1.3231 H   0  0  0  0  0  0  0  0  0  0  0  0
   -1.5388   -2.7068   -0.6703 H   0  0  0  0  0  0  0  0  0  0  0  0
   -4.1504   -1.9546   -1.3074 H   0  0  0  0  0  0  0  0  0  0  0  0
   -5.4916   -2.3956   -0.2573 H   0  0  0  0  0  0  0  0  0  0  0  0
   -1.0928    0.9934   -1.0843 H   0  0  0  0  0  0  0  0  0  0  0  0
   -0.0271    2.0145   -0.1405 H   0  0  0  0  0  0  0  0  0  0  0  0
    2.1432   -0.5024    0.9660 H   0  0  0  0  0  0  0  0  0  0  0  0
    1.7096    1.1937    1.0358 H   0  0  0  0  0  0  0  0  0  0  0  0
    2.5642   -0.2997   -1.5247 H   0  0  0  0  0  0  0  0  0  0  0  0
    2.1554    1.3836   -1.4471 H   0  0  0  0  0  0  0  0  0  0  0  0
   -5.7875    2.0591   -0.1116 H   0  0  0  0  0  0  0  0  0  0  0  0
   -7.7408    2.9962   -0.7201 H   0  0  0  0  0  0  0  0  0  0  0  0
   -8.3706    1.4244   -1.2515 H   0  0  0  0  0  0  0  0  0  0  0  0
    3.7651    3.0170   -0.9070 H   0  0  0  0  0  0  0  0  0  0  0  0
   -8.7654    0.7733    1.1399 H   0  0  0  0  0  0  0  0  0  0  0  0
   -8.1197    2.3309    1.6703 H   0  0  0  0  0  0  0  0  0  0  0  0
   -9.6261    2.2686    0.7356 H   0  0  0  0  0  0  0  0  0  0  0  0
    6.0959    3.5940   -0.3444 H   0  0  0  0  0  0  0  0  0  0  0  0
    7.6612    1.8986    0.3615 H   0  0  0  0  0  0  0  0  0  0  0  0
    3.9788   -3.0539   -1.0853 H   0  0  0  0  0  0  0  0  0  0  0  0
    5.6733   -2.5462   -1.2553 H   0  0  0  0  0  0  0  0  0  0  0  0
    4.3766   -1.6427   -2.0912 H   0  0  0  0  0  0  0  0  0  0  0  0
    8.9968   -1.1859    1.2197 H   0  0  0  0  0  0  0  0  0  0  0  0
    8.4524    0.3916    1.7760 H   0  0  0  0  0  0  0  0  0  0  0  0
    8.9394    0.1202    0.0429 H   0  0  0  0  0  0  0  0  0  0  0  0
  1 16  2  0  0  0  0
  2 18  2  0  0  0  0
  3 22  1  0  0  0  0
  3 28  1  0  0  0  0
  4 25  1  0  0  0  0
  4 29  1  0  0  0  0
  5 11  1  0  0  0  0
  5 14  1  0  0  0  0
  5 18  1  0  0  0  0
  6 15  1  0  0  0  0
  6 16  1  0  0  0  0
  6 17  1  0  0  0  0
  7 18  1  0  0  0  0
  7 21  1  0  0  0  0
  7 48  1  0  0  0  0
  8  9  1  0  0  0  0
  8 11  1  0  0  0  0
  8 12  1  0  0  0  0
  8 30  1  0  0  0  0
  9 10  1  0  0  0  0
  9 13  1  0  0  0  0
  9 31  1  0  0  0  0
 10 14  1  0  0  0  0
 10 32  1  0  0  0  0
 10 33  1  0  0  0  0
 11 34  1  0  0  0  0
 11 35  1  0  0  0  0
 12 15  1  0  0  0  0
 12 36  1  0  0  0  0
 12 37  1  0  0  0  0
 13 16  1  0  0  0  0
 13 38  1  0  0  0  0
 13 39  1  0  0  0  0
 14 40  1  0  0  0  0
 14 41  1  0  0  0  0
 15 42  1  0  0  0  0
 15 43  1  0  0  0  0
 17 19  1  0  0  0  0
 17 44  1  0  0  0  0
 17 45  1  0  0  0  0
 19 20  1  0  0  0  0
 19 46  1  0  0  0  0
 19 47  1  0  0  0  0
 20 22  2  0  0  0  0
 20 23  1  0  0  0  0
 21 24  1  0  0  0  0
 21 49  1  0  0  0  0
 21 50  1  0  0  0  0
 22 25  1  0  0  0  0
 23 26  2  0  0  0  0
 23 51  1  0  0  0  0
 24 52  1  0  0  0  0
 24 53  1  0  0  0  0
 24 54  1  0  0  0  0
 25 27  2  0  0  0  0
 26 27  1  0  0  0  0
 26 55  1  0  0  0  0
 27 56  1  0  0  0  0
 28 57  1  0  0  0  0
 28 58  1  0  0  0  0
 28 59  1  0  0  0  0
 29 60  1  0  0  0  0
 29 61  1  0  0  0  0
 29 62  1  0  0  0  0
M  END
> <PUBCHEM_COMPOUND_CID>
26742540

> <PUBCHEM_CONFORMER_RMSD>
1

> <PUBCHEM_CONFORMER_DIVERSEORDER>
1
53
116
186
135
125
101
109
5
60
44
151
119
185
133
45
110
98
7
153
82
117
137
168
66
182
181
94
93
126
112
87
41
18
73
42
76
174
48
141
65
149
127
158
105
95
43
160
132
22
50
178
20
92
54
68
56
90
128
75
59
28
51
113
106
24
167
10
17
155
64
58
103
152
134
74
104
57
96
140
13
172
142
122
78
136
121
114
8
148
31
71
120
69
55
107
84
144
49
25
21
123
9
100
143
99
77
150
138
80
118
72
12
166
139
159
30
124
102
3
4
33
91
23
161
147
180
175
164
146
129
62
35
156
157
37
67
145
29
88
79
27
130
89
170
83
26
6
19
81
183
177
34
163
169
40
16
11
61
63
162
184
97
32
36
165
14
176
52
70
86
46
131
108
115
171
2
85
47
111
179
15
38
39
154
173

> <PUBCHEM_MMFF94_PARTIAL_CHARGES>
28
1 -0.57
11 0.3
13 0.06
14 0.3
15 0.3
16 0.57
17 0.3
18 0.69
19 0.14
2 -0.57
20 -0.14
21 0.3
22 0.08
23 -0.15
25 0.08
26 -0.15
27 -0.15
28 0.28
29 0.28
3 -0.36
4 -0.36
48 0.37
5 -0.66
51 0.15
55 0.15
56 0.15
6 -0.66
7 -0.73

> <PUBCHEM_EFFECTIVE_ROTOR_COUNT>
9.6

> <PUBCHEM_PHARMACOPHORE_FEATURES>
8
1 1 acceptor
1 2 acceptor
1 3 acceptor
1 4 acceptor
1 7 donor
6 20 22 23 25 26 27 rings
6 5 8 9 10 11 14 rings
7 6 8 9 12 13 15 16 rings

> <PUBCHEM_HEAVY_ATOM_COUNT>
29

> <PUBCHEM_ATOM_DEF_STEREO_COUNT>
2

> <PUBCHEM_ATOM_UDEF_STEREO_COUNT>
0

> <PUBCHEM_BOND_DEF_STEREO_COUNT>
0

> <PUBCHEM_BOND_UDEF_STEREO_COUNT>
0

> <PUBCHEM_ISOTOPIC_ATOM_COUNT>
0

> <PUBCHEM_COMPONENT_COUNT>
1

> <PUBCHEM_CACTVS_TAUTO_COUNT>
4

> <PUBCHEM_CONFORMER_ID>
01980F0C00000001

> <PUBCHEM_MMFF94_ENERGY>
86.6408

> <PUBCHEM_FEATURE_SELFOVERLAP>
40.619

> <PUBCHEM_SHAPE_FINGERPRINT>
10835480 77 18410854408035780341
10906281 52 18059305266892109651
11135609 99 9222643620163226601
11135926 11 18335411358062234479
11315181 36 18131073770010765441
11719270 70 18272369785358099230
12236239 1 18188207710448012498
12616971 3 13045941356394287162
13533116 47 18060139817212399590
13740195 50 18261399971333612441
13914758 101 18260828202361813976
14117953 113 18343588430680677126
14856354 85 14273459197844773051
15183329 4 18412269432197812136
1577012 14 18261396706151249268
20105231 36 11963388519109458416
20157964 124 18413110546066666862
20511986 3 18200867483030191222
21298829 104 18410295809190100661
21859007 373 17895183360166828076
23559900 14 18268705185457848089
2838139 119 18260826008298365685
3004659 81 18334576863296508864
3009799 131 17775566442525333361
3633792 109 18271812293912199218
4073 2 17968099784560803866
4093350 32 17988925526685843886
504579 68 18342471352236175460
6009941 240 17894914057058725699
6328613 192 18411419510305549441
99344 41 18412261735679877294

> <PUBCHEM_SHAPE_MULTIPOLES>
558.39
24.9
2.51
0.93
8
0.09
0.06
-10.41
1.34
0.21
-0.24
-0.07
0.06
-0.22

> <PUBCHEM_SHAPE_SELFOVERLAP>
1153.911

> <PUBCHEM_SHAPE_VOLUME>
315.4

> <PUBCHEM_COORDINATE_TYPE>
2
5
10

$$$$
