75536049
  -OEChem-12032416343D

 53 57  0     1  0  0  0  0  0999 V2000
    3.7988    2.0961   -0.4416 S   0  0  0  0  0  0  0  0  0  0  0  0
   -2.2434    0.3344   -1.3076 S   0  0  0  0  0  0  0  0  0  0  0  0
    4.8681    2.6000    0.4014 O   0  0  0  0  0  0  0  0  0  0  0  0
    3.7651    2.4205   -1.8564 O   0  0  0  0  0  0  0  0  0  0  0  0
   -2.7614   -0.5577   -2.3780 O   0  0  0  0  0  0  0  0  0  0  0  0
   -1.6783    1.6302   -1.7523 O   0  0  0  0  0  0  0  0  0  0  0  0
    2.3011    2.4662    0.2588 N   0  0  1  0  0  0  0  0  0  0  0  0
   -1.1491   -0.4383   -0.3228 N   0  0  0  0  0  0  0  0  0  0  0  0
    0.5325   -0.7179    1.1035 N   0  0  0  0  0  0  0  0  0  0  0  0
    0.0277    1.6645    0.4519 C   0  0  1  0  0  0  0  0  0  0  0  0
    0.5459    2.1457    1.8088 C   0  0  0  0  0  0  0  0  0  0  0  0
    1.0572    2.2415   -0.5343 C   0  0  0  0  0  0  0  0  0  0  0  0
    2.0592    2.0688    1.6667 C   0  0  0  0  0  0  0  0  0  0  0  0
   -0.1762    0.1595    0.4289 C   0  0  0  0  0  0  0  0  0  0  0  0
   -1.0625   -1.7917   -0.1199 C   0  0  0  0  0  0  0  0  0  0  0  0
   -0.0056   -1.9407    0.7740 C   0  0  0  0  0  0  0  0  0  0  0  0
    3.7956    0.3341   -0.2982 C   0  0  0  0  0  0  0  0  0  0  0  0
   -1.7957   -2.8656   -0.6259 C   0  0  0  0  0  0  0  0  0  0  0  0
   -3.7399    0.7588   -0.4002 C   0  0  0  0  0  0  0  0  0  0  0  0
    0.3550   -3.2305    1.1991 C   0  0  0  0  0  0  0  0  0  0  0  0
    3.2663   -0.4480   -1.3247 C   0  0  0  0  0  0  0  0  0  0  0  0
    4.3188   -0.2739    0.8429 C   0  0  0  0  0  0  0  0  0  0  0  0
   -1.4230   -4.1422   -0.1923 C   0  0  0  0  0  0  0  0  0  0  0  0
   -0.3671   -4.3237    0.7040 C   0  0  0  0  0  0  0  0  0  0  0  0
   -3.8357    1.9891    0.2502 C   0  0  0  0  0  0  0  0  0  0  0  0
   -4.8016   -0.1440   -0.3445 C   0  0  0  0  0  0  0  0  0  0  0  0
    3.2601   -1.8383   -1.2100 C   0  0  0  0  0  0  0  0  0  0  0  0
    4.3127   -1.6640    0.9576 C   0  0  0  0  0  0  0  0  0  0  0  0
    3.7833   -2.4462   -0.0689 C   0  0  0  0  0  0  0  0  0  0  0  0
   -4.9934    2.3165    0.9564 C   0  0  0  0  0  0  0  0  0  0  0  0
   -5.9592    0.1833    0.3616 C   0  0  0  0  0  0  0  0  0  0  0  0
   -6.0550    1.4136    1.0121 C   0  0  0  0  0  0  0  0  0  0  0  0
   -0.9331    2.1611    0.3303 H   0  0  0  0  0  0  0  0  0  0  0  0
    0.1781    1.5682    2.6630 H   0  0  0  0  0  0  0  0  0  0  0  0
    0.2521    3.1924    1.9633 H   0  0  0  0  0  0  0  0  0  0  0  0
    1.2104    1.5843   -1.3931 H   0  0  0  0  0  0  0  0  0  0  0  0
    0.7248    3.2184   -0.9034 H   0  0  0  0  0  0  0  0  0  0  0  0
    2.5544    2.7628    2.3515 H   0  0  0  0  0  0  0  0  0  0  0  0
    2.3878    1.0553    1.8882 H   0  0  0  0  0  0  0  0  0  0  0  0
   -2.6257   -2.7485   -1.3103 H   0  0  0  0  0  0  0  0  0  0  0  0
    1.1730   -3.3820    1.8961 H   0  0  0  0  0  0  0  0  0  0  0  0
    2.8530    0.0018   -2.2226 H   0  0  0  0  0  0  0  0  0  0  0  0
    4.7376    0.3142    1.6546 H   0  0  0  0  0  0  0  0  0  0  0  0
   -1.9681   -5.0091   -0.5577 H   0  0  0  0  0  0  0  0  0  0  0  0
   -0.1013   -5.3281    1.0234 H   0  0  0  0  0  0  0  0  0  0  0  0
   -3.0327    2.7170    0.2140 H   0  0  0  0  0  0  0  0  0  0  0  0
   -4.7460   -1.1112   -0.8353 H   0  0  0  0  0  0  0  0  0  0  0  0
    2.8458   -2.4474   -2.0080 H   0  0  0  0  0  0  0  0  0  0  0  0
    4.7191   -2.1377    1.8464 H   0  0  0  0  0  0  0  0  0  0  0  0
    3.7769   -3.5285    0.0211 H   0  0  0  0  0  0  0  0  0  0  0  0
   -5.0694    3.2755    1.4605 H   0  0  0  0  0  0  0  0  0  0  0  0
   -6.7852   -0.5204    0.4069 H   0  0  0  0  0  0  0  0  0  0  0  0
   -6.9564    1.6684    1.5617 H   0  0  0  0  0  0  0  0  0  0  0  0
  1  3  2  0  0  0  0
  1  4  2  0  0  0  0
  1  7  1  0  0  0  0
  1 17  1  0  0  0  0
  2  5  2  0  0  0  0
  2  6  2  0  0  0  0
  2  8  1  0  0  0  0
  2 19  1  0  0  0  0
  7 12  1  0  0  0  0
  7 13  1  0  0  0  0
  8 14  1  0  0  0  0
  8 15  1  0  0  0  0
  9 14  2  0  0  0  0
  9 16  1  0  0  0  0
 10 11  1  0  0  0  0
 10 12  1  0  0  0  0
 10 14  1  0  0  0  0
 10 33  1  0  0  0  0
 11 13  1  0  0  0  0
 11 34  1  0  0  0  0
 11 35  1  0  0  0  0
 12 36  1  0  0  0  0
 12 37  1  0  0  0  0
 13 38  1  0  0  0  0
 13 39  1  0  0  0  0
 15 16  1  0  0  0  0
 15 18  2  0  0  0  0
 16 20  2  0  0  0  0
 17 21  2  0  0  0  0
 17 22  1  0  0  0  0
 18 23  1  0  0  0  0
 18 40  1  0  0  0  0
 19 25  2  0  0  0  0
 19 26  1  0  0  0  0
 20 24  1  0  0  0  0
 20 41  1  0  0  0  0
 21 27  1  0  0  0  0
 21 42  1  0  0  0  0
 22 28  2  0  0  0  0
 22 43  1  0  0  0  0
 23 24  2  0  0  0  0
 23 44  1  0  0  0  0
 24 45  1  0  0  0  0
 25 30  1  0  0  0  0
 25 46  1  0  0  0  0
 26 31  2  0  0  0  0
 26 47  1  0  0  0  0
 27 29  2  0  0  0  0
 27 48  1  0  0  0  0
 28 29  1  0  0  0  0
 28 49  1  0  0  0  0
 29 50  1  0  0  0  0
 30 32  2  0  0  0  0
 30 51  1  0  0  0  0
 31 32  1  0  0  0  0
 31 52  1  0  0  0  0
 32 53  1  0  0  0  0
M  END
> <PUBCHEM_COMPOUND_CID>
75536049

> <PUBCHEM_CONFORMER_RMSD>
0.8

> <PUBCHEM_CONFORMER_DIVERSEORDER>
1
109
72
87
88
98
110
33
80
92
50
30
103
116
54
126
11
79
125
90
39
59
21
48
10
100
3
17
75
49
23
85
29
55
101
128
127
113
37
94
112
74
124
2
111
61
77
56
32
97
78
120
15
104
82
106
41
19
73
26
105
36
43
115
14
66
122
51
53
76
93
89
67
57
108
99
27
71
119
121
118
65
114
81
102
83
86
63
58
16
8
117
123
28
6
60
42
7
46
12
35
44
13
31
70
52
45
18
25
20
84
95
22
40
38
4
96
9
34
68
62
47
24
107
91
5
64
69

> <PUBCHEM_MMFF94_PARTIAL_CHARGES>
45
1 1.45
10 0.18
12 0.36
13 0.36
14 0.01
15 -0.15
16 0.23
17 -0.01
18 -0.15
19 -0.01
2 1.29
20 -0.15
21 -0.15
22 -0.15
23 -0.15
24 -0.15
25 -0.15
26 -0.15
27 -0.15
28 -0.15
29 -0.15
3 -0.65
30 -0.15
31 -0.15
32 -0.15
4 -0.65
40 0.15
41 0.15
42 0.15
43 0.15
44 0.15
45 0.15
46 0.15
47 0.15
48 0.15
49 0.15
5 -0.65
50 0.15
51 0.15
52 0.15
53 0.15
6 -0.65
7 -0.85
8 0.32
9 -0.57

> <PUBCHEM_EFFECTIVE_ROTOR_COUNT>
6

> <PUBCHEM_PHARMACOPHORE_FEATURES>
10
1 3 acceptor
1 4 acceptor
1 5 acceptor
1 6 acceptor
1 9 acceptor
5 7 10 11 12 13 rings
5 8 9 14 15 16 rings
6 15 16 18 20 23 24 rings
6 17 21 22 27 28 29 rings
6 19 25 26 30 31 32 rings

> <PUBCHEM_HEAVY_ATOM_COUNT>
32

> <PUBCHEM_ATOM_DEF_STEREO_COUNT>
1

> <PUBCHEM_ATOM_UDEF_STEREO_COUNT>
0

> <PUBCHEM_BOND_DEF_STEREO_COUNT>
0

> <PUBCHEM_BOND_UDEF_STEREO_COUNT>
0

> <PUBCHEM_ISOTOPIC_ATOM_COUNT>
0

> <PUBCHEM_COMPONENT_COUNT>
1

> <PUBCHEM_CACTVS_TAUTO_COUNT>
1

> <PUBCHEM_CONFORMER_ID>
048096B100000001

> <PUBCHEM_MMFF94_ENERGY>
76.673

> <PUBCHEM_FEATURE_SELFOVERLAP>
50.893

> <PUBCHEM_SHAPE_FINGERPRINT>
10190108 129 18050592667754756457
10675989 125 18341616962660345128
10906281 52 18343302596101345968
1100329 8 18411133606780077130
11578080 2 18190197852132339116
12166972 35 17678466255937469294
12633257 1 18262220189031627846
12788726 201 17632026268797813368
13140716 1 18408319990720650474
13726171 33 17976547427261398944
14790565 3 18411420575146286969
14955137 171 18127973014451133459
15968369 153 17842546629369156679
17349148 13 8069730945375370735
17809404 112 15984822683509827606
19319366 153 18340763737616166055
19591789 44 18409444761303957267
20691752 17 17531512287235111622
20739085 24 17979630139647206171
20764821 26 18263353845232903078
20905425 154 18121494928564450474
23558518 356 18195236948155833999
23559900 14 18340479046167672394
3178227 256 18264216828753482515
338550 245 18339362946495711768
350125 39 18411136983167502243
3680242 22 18337107839673091170
460360 51 18337685199162656267
57527295 17 17773869972860323236
9981440 41 16766161085241277745

> <PUBCHEM_SHAPE_MULTIPOLES>
627.82
10.81
4.67
1.56
8.35
3.9
-0.33
-5.73
0.49
-1.51
0.84
-0.18
-0.38
-0.86

> <PUBCHEM_SHAPE_SELFOVERLAP>
1356.269

> <PUBCHEM_SHAPE_VOLUME>
344.8

> <PUBCHEM_COORDINATE_TYPE>
2
5
10

$$$$
