25389790
  -OEChem-12032416163D

 66 70  0     1  0  0  0  0  0999 V2000
   -5.0862   -3.3078    0.5096 F   0  0  0  0  0  0  0  0  0  0  0  0
   -6.3215   -2.2854   -1.7051 F   0  0  0  0  0  0  0  0  0  0  0  0
   -3.5792    0.1558    2.1401 O   0  0  0  0  0  0  0  0  0  0  0  0
   -4.0248    1.7085    0.4887 O   0  0  0  0  0  0  0  0  0  0  0  0
    6.3738   -3.2052    1.4141 O   0  0  0  0  0  0  0  0  0  0  0  0
   -1.0189    0.0599    1.0553 N   0  0  2  0  0  0  0  0  0  0  0  0
    2.0956   -2.6265   -0.3084 N   0  0  0  0  0  0  0  0  0  0  0  0
    2.2325    1.9512    0.6264 N   0  0  0  0  0  0  0  0  0  0  0  0
    5.7350   -3.1644   -0.8252 N   0  0  0  0  0  0  0  0  0  0  0  0
    0.4144    0.3256    1.4473 C   0  0  1  0  0  0  0  0  0  0  0  0
   -1.1239   -0.5450   -0.3088 C   0  0  1  0  0  0  0  0  0  0  0  0
    1.3250   -0.8943    1.2583 C   0  0  0  0  0  0  0  0  0  0  0  0
    1.2610   -1.4342   -0.1667 C   0  0  2  0  0  0  0  0  0  0  0  0
   -0.1904   -1.7694   -0.4913 C   0  0  0  0  0  0  0  0  0  0  0  0
   -1.7761    1.3415    1.2505 C   0  0  1  0  0  0  0  0  0  0  0  0
    0.9265    1.5792    0.7798 C   0  0  0  0  0  0  0  0  0  0  0  0
   -1.3553    2.4912    0.3051 C   0  0  0  0  0  0  0  0  0  0  0  0
    0.1318    2.5859    0.2664 C   0  0  0  0  0  0  0  0  0  0  0  0
   -2.5271   -1.0147   -0.6860 C   0  0  0  0  0  0  0  0  0  0  0  0
    0.9876    3.5935   -0.2523 C   0  0  0  0  0  0  0  0  0  0  0  0
    2.2994    3.1707   -0.0144 C   0  0  0  0  0  0  0  0  0  0  0  0
   -3.2513    1.1132    1.2265 C   0  0  0  0  0  0  0  0  0  0  0  0
    3.4955   -2.2607   -0.4595 C   0  0  0  0  0  0  0  0  0  0  0  0
   -3.1786   -1.9657    0.0994 C   0  0  0  0  0  0  0  0  0  0  0  0
   -3.1574   -0.4928   -1.8155 C   0  0  0  0  0  0  0  0  0  0  0  0
    0.7802    4.8281   -0.8994 C   0  0  0  0  0  0  0  0  0  0  0  0
    3.4146    3.9264   -0.3937 C   0  0  0  0  0  0  0  0  0  0  0  0
    4.3502   -3.5057   -0.6459 C   0  0  0  0  0  0  0  0  0  0  0  0
    1.8872    5.5920   -1.2854 C   0  0  0  0  0  0  0  0  0  0  0  0
   -4.4605   -2.3948   -0.2447 C   0  0  0  0  0  0  0  0  0  0  0  0
   -4.4391   -0.9221   -2.1598 C   0  0  0  0  0  0  0  0  0  0  0  0
    3.1833    5.1463   -1.0355 C   0  0  0  0  0  0  0  0  0  0  0  0
   -5.0908   -1.8729   -1.3744 C   0  0  0  0  0  0  0  0  0  0  0  0
   -4.9717   -0.1640    2.2226 C   0  0  0  0  0  0  0  0  0  0  0  0
    6.6350   -3.0421    0.2251 C   0  0  0  0  0  0  0  0  0  0  0  0
    8.0242   -2.7011   -0.2434 C   0  0  0  0  0  0  0  0  0  0  0  0
    0.4106    0.5333    2.5274 H   0  0  0  0  0  0  0  0  0  0  0  0
   -0.8026    0.1953   -1.0527 H   0  0  0  0  0  0  0  0  0  0  0  0
    2.3506   -0.6391    1.5461 H   0  0  0  0  0  0  0  0  0  0  0  0
    1.0040   -1.6785    1.9591 H   0  0  0  0  0  0  0  0  0  0  0  0
    1.5881   -0.6672   -0.8811 H   0  0  0  0  0  0  0  0  0  0  0  0
   -0.5162   -2.6038    0.1456 H   0  0  0  0  0  0  0  0  0  0  0  0
   -0.2611   -2.1292   -1.5276 H   0  0  0  0  0  0  0  0  0  0  0  0
   -1.5814    1.6880    2.2785 H   0  0  0  0  0  0  0  0  0  0  0  0
   -1.7805    3.4375    0.6611 H   0  0  0  0  0  0  0  0  0  0  0  0
   -1.7353    2.3311   -0.7110 H   0  0  0  0  0  0  0  0  0  0  0  0
    1.8030   -3.1542   -1.1309 H   0  0  0  0  0  0  0  0  0  0  0  0
    3.0357    1.4167    0.9270 H   0  0  0  0  0  0  0  0  0  0  0  0
    3.6308   -1.6033   -1.3281 H   0  0  0  0  0  0  0  0  0  0  0  0
    3.8607   -1.7161    0.4180 H   0  0  0  0  0  0  0  0  0  0  0  0
   -2.7073   -2.3823    0.9854 H   0  0  0  0  0  0  0  0  0  0  0  0
   -2.6633    0.2493   -2.4365 H   0  0  0  0  0  0  0  0  0  0  0  0
   -0.2246    5.1889   -1.1001 H   0  0  0  0  0  0  0  0  0  0  0  0
    4.4246    3.5813   -0.1989 H   0  0  0  0  0  0  0  0  0  0  0  0
    4.0392   -4.0621   -1.5371 H   0  0  0  0  0  0  0  0  0  0  0  0
    4.2562   -4.1713    0.2201 H   0  0  0  0  0  0  0  0  0  0  0  0
    1.7324    6.5445   -1.7853 H   0  0  0  0  0  0  0  0  0  0  0  0
   -4.9304   -0.5157   -3.0389 H   0  0  0  0  0  0  0  0  0  0  0  0
    4.0288    5.7562   -1.3433 H   0  0  0  0  0  0  0  0  0  0  0  0
   -5.4800   -0.0918    1.2570 H   0  0  0  0  0  0  0  0  0  0  0  0
   -5.4467    0.5104    2.9408 H   0  0  0  0  0  0  0  0  0  0  0  0
   -5.0658   -1.1875    2.5954 H   0  0  0  0  0  0  0  0  0  0  0  0
    6.0619   -3.0044   -1.7738 H   0  0  0  0  0  0  0  0  0  0  0  0
    7.9912   -1.8779   -0.9628 H   0  0  0  0  0  0  0  0  0  0  0  0
    8.6358   -2.3950    0.6099 H   0  0  0  0  0  0  0  0  0  0  0  0
    8.4752   -3.5788   -0.7142 H   0  0  0  0  0  0  0  0  0  0  0  0
  1 30  1  0  0  0  0
  2 33  1  0  0  0  0
  3 22  1  0  0  0  0
  3 34  1  0  0  0  0
  4 22  2  0  0  0  0
  5 35  2  0  0  0  0
  6 10  1  0  0  0  0
  6 11  1  0  0  0  0
  6 15  1  0  0  0  0
  7 13  1  0  0  0  0
  7 23  1  0  0  0  0
  7 47  1  0  0  0  0
  8 16  1  0  0  0  0
  8 21  1  0  0  0  0
  8 48  1  0  0  0  0
  9 28  1  0  0  0  0
  9 35  1  0  0  0  0
  9 63  1  0  0  0  0
 10 12  1  0  0  0  0
 10 16  1  0  0  0  0
 10 37  1  0  0  0  0
 11 14  1  0  0  0  0
 11 19  1  0  0  0  0
 11 38  1  0  0  0  0
 12 13  1  0  0  0  0
 12 39  1  0  0  0  0
 12 40  1  0  0  0  0
 13 14  1  0  0  0  0
 13 41  1  0  0  0  0
 14 42  1  0  0  0  0
 14 43  1  0  0  0  0
 15 17  1  0  0  0  0
 15 22  1  0  0  0  0
 15 44  1  0  0  0  0
 16 18  2  0  0  0  0
 17 18  1  0  0  0  0
 17 45  1  0  0  0  0
 17 46  1  0  0  0  0
 18 20  1  0  0  0  0
 19 24  2  0  0  0  0
 19 25  1  0  0  0  0
 20 21  1  0  0  0  0
 20 26  2  0  0  0  0
 21 27  2  0  0  0  0
 23 28  1  0  0  0  0
 23 49  1  0  0  0  0
 23 50  1  0  0  0  0
 24 30  1  0  0  0  0
 24 51  1  0  0  0  0
 25 31  2  0  0  0  0
 25 52  1  0  0  0  0
 26 29  1  0  0  0  0
 26 53  1  0  0  0  0
 27 32  1  0  0  0  0
 27 54  1  0  0  0  0
 28 55  1  0  0  0  0
 28 56  1  0  0  0  0
 29 32  2  0  0  0  0
 29 57  1  0  0  0  0
 30 33  2  0  0  0  0
 31 33  1  0  0  0  0
 31 58  1  0  0  0  0
 32 59  1  0  0  0  0
 34 60  1  0  0  0  0
 34 61  1  0  0  0  0
 34 62  1  0  0  0  0
 35 36  1  0  0  0  0
 36 64  1  0  0  0  0
 36 65  1  0  0  0  0
 36 66  1  0  0  0  0
M  END
> <PUBCHEM_COMPOUND_CID>
25389790

> <PUBCHEM_CONFORMER_RMSD>
1

> <PUBCHEM_CONFORMER_DIVERSEORDER>
1
21
65
84
7
6
97
12
42
88
59
93
46
50
31
54
23
26
19
13
39
69
85
28
60
82
22
95
25
4
53
83
29
11
14
87
76
43
81
27
96
3
24
41
10
71
55
100
49
18
98
30
102
45
56
40
47
44
77
63
17
33
79
72
5
32
101
70
86
73
9
16
52
78
64
57
62
2
89
68
36
20
61
90
66
67
48
38
94
74
92
35
99
80
75
37
51
8
34
58
91
15

> <PUBCHEM_MMFF94_PARTIAL_CHARGES>
43
1 -0.19
10 0.45
11 0.41
13 0.27
15 0.33
16 -0.33
17 0.18
18 -0.18
19 -0.14
2 -0.19
21 -0.15
22 0.66
23 0.27
24 -0.15
25 -0.15
26 -0.15
27 -0.15
28 0.3
29 -0.15
3 -0.43
30 0.19
31 -0.15
32 -0.15
33 0.19
34 0.28
35 0.57
36 0.06
4 -0.57
47 0.36
48 0.27
5 -0.57
51 0.15
52 0.15
53 0.15
54 0.15
57 0.15
58 0.15
59 0.15
6 -0.81
63 0.37
7 -0.9
8 0.03
9 -0.73

> <PUBCHEM_EFFECTIVE_ROTOR_COUNT>
9.2

> <PUBCHEM_PHARMACOPHORE_FEATURES>
13
1 4 acceptor
1 5 acceptor
1 6 cation
1 7 cation
1 7 donor
1 8 cation
1 8 donor
1 9 donor
5 8 16 18 20 21 rings
6 19 24 25 30 31 33 rings
6 20 21 26 27 29 32 rings
6 6 10 11 12 13 14 rings
6 6 10 15 16 17 18 rings

> <PUBCHEM_HEAVY_ATOM_COUNT>
36

> <PUBCHEM_ATOM_DEF_STEREO_COUNT>
4

> <PUBCHEM_ATOM_UDEF_STEREO_COUNT>
0

> <PUBCHEM_BOND_DEF_STEREO_COUNT>
0

> <PUBCHEM_BOND_UDEF_STEREO_COUNT>
0

> <PUBCHEM_ISOTOPIC_ATOM_COUNT>
0

> <PUBCHEM_COMPONENT_COUNT>
1

> <PUBCHEM_CACTVS_TAUTO_COUNT>
2

> <PUBCHEM_CONFORMER_ID>
01836ADE00000001

> <PUBCHEM_MMFF94_ENERGY>
71.4803

> <PUBCHEM_FEATURE_SELFOVERLAP>
66.221

> <PUBCHEM_SHAPE_FINGERPRINT>
10940486 97 18199476463102734281
11445158 3 18342733065588524374
11488393 25 18264205975218001258
11763715 3 18193575384597576054
12788726 201 17770513233340459561
13009979 54 17988923358022342875
133893 2 18340214097486462979
13540713 5 18059305352632888451
15198563 99 18267018346174587422
15876981 60 18190467052398408582
17686467 74 18342730790421739330
19319366 153 17767683124057548541
20101258 96 18265904561631962282
20771845 171 18122049069408280895
21344244 246 18338792437842428686
21360443 120 18121227742785905652
21927370 108 18338528434366176682
23559900 14 18269259301038061435
23566358 27 18339655524289397769
23576562 1 18336825295756114637
25147074 1 17916879018707047427
255183 451 18342448266428451783
4280585 95 18339353046754012202
4394409 98 17901112142525284500
4409770 3 17688590455140403325
469060 322 18270400464916010026

> <PUBCHEM_SHAPE_MULTIPOLES>
688.78
13.58
7.43
1.68
11.79
9.18
0.13
-20.84
-1.57
12.2
-2.85
-2.28
-0.09
-2.43

> <PUBCHEM_SHAPE_SELFOVERLAP>
1497.167

> <PUBCHEM_SHAPE_VOLUME>
375.8

> <PUBCHEM_COORDINATE_TYPE>
2
5
10

$$$$
