45784177
  -OEChem-12032416283D

 43 46  0     1  0  0  0  0  0999 V2000
    7.7450    1.9495   -0.7560 Cl  0  0  0  0  0  0  0  0  0  0  0  0
    3.2260   -1.4302    0.6026 O   0  0  0  0  0  0  0  0  0  0  0  0
   -6.4690    1.8259    0.4135 O   0  0  0  0  0  0  0  0  0  0  0  0
   -1.3521   -0.5697   -0.1755 N   0  0  1  0  0  0  0  0  0  0  0  0
    2.7201    0.6786   -0.0564 N   0  0  0  0  0  0  0  0  0  0  0  0
    0.8427   -0.9235    0.5707 C   0  0  1  0  0  0  0  0  0  0  0  0
    0.0708   -0.0983    1.6150 C   0  0  0  0  0  0  0  0  0  0  0  0
   -0.0118   -0.8378   -0.7011 C   0  0  0  0  0  0  0  0  0  0  0  0
   -1.1524    0.4281    0.8755 C   0  0  0  0  0  0  0  0  0  0  0  0
   -2.2716   -0.1119   -1.2066 C   0  0  0  0  0  0  0  0  0  0  0  0
    2.2734   -0.4895    0.3497 C   0  0  0  0  0  0  0  0  0  0  0  0
   -3.7086   -0.2567   -0.7810 C   0  0  0  0  0  0  0  0  0  0  0  0
    4.0830    0.5061   -0.0772 C   0  0  0  0  0  0  0  0  0  0  0  0
    4.3965   -0.7836    0.3256 C   0  0  0  0  0  0  0  0  0  0  0  0
   -4.4324    0.8651   -0.3767 C   0  0  0  0  0  0  0  0  0  0  0  0
   -4.3157   -1.5125   -0.7901 C   0  0  0  0  0  0  0  0  0  0  0  0
    5.1238    1.3806   -0.4212 C   0  0  0  0  0  0  0  0  0  0  0  0
    5.6859   -1.2925    0.4187 C   0  0  0  0  0  0  0  0  0  0  0  0
   -5.7635    0.7312    0.0183 C   0  0  0  0  0  0  0  0  0  0  0  0
   -5.6467   -1.6465   -0.3948 C   0  0  0  0  0  0  0  0  0  0  0  0
   -6.3708   -0.5247    0.0091 C   0  0  0  0  0  0  0  0  0  0  0  0
    6.4398    0.9027   -0.3398 C   0  0  0  0  0  0  0  0  0  0  0  0
    6.7126   -0.4076    0.0720 C   0  0  0  0  0  0  0  0  0  0  0  0
   -7.8251    1.6174    0.8057 C   0  0  0  0  0  0  0  0  0  0  0  0
    0.8524   -1.9675    0.9152 H   0  0  0  0  0  0  0  0  0  0  0  0
   -0.2399   -0.7532    2.4387 H   0  0  0  0  0  0  0  0  0  0  0  0
    0.6595    0.7193    2.0444 H   0  0  0  0  0  0  0  0  0  0  0  0
    0.0226   -1.7753   -1.2666 H   0  0  0  0  0  0  0  0  0  0  0  0
    0.3303   -0.0271   -1.3583 H   0  0  0  0  0  0  0  0  0  0  0  0
   -2.0118    0.5102    1.5482 H   0  0  0  0  0  0  0  0  0  0  0  0
   -0.9332    1.4212    0.4624 H   0  0  0  0  0  0  0  0  0  0  0  0
   -2.0575    0.9175   -1.5246 H   0  0  0  0  0  0  0  0  0  0  0  0
   -2.1480   -0.7222   -2.1126 H   0  0  0  0  0  0  0  0  0  0  0  0
   -3.9651    1.8468   -0.3653 H   0  0  0  0  0  0  0  0  0  0  0  0
   -3.7623   -2.3942   -1.1028 H   0  0  0  0  0  0  0  0  0  0  0  0
    4.9084    2.3956   -0.7401 H   0  0  0  0  0  0  0  0  0  0  0  0
    5.8860   -2.3075    0.7382 H   0  0  0  0  0  0  0  0  0  0  0  0
   -6.1184   -2.6249   -0.4021 H   0  0  0  0  0  0  0  0  0  0  0  0
   -7.3999   -0.7002    0.3032 H   0  0  0  0  0  0  0  0  0  0  0  0
    7.7408   -0.7600    0.1286 H   0  0  0  0  0  0  0  0  0  0  0  0
   -8.4323    1.2464   -0.0270 H   0  0  0  0  0  0  0  0  0  0  0  0
   -7.8939    0.9734    1.6890 H   0  0  0  0  0  0  0  0  0  0  0  0
   -8.2332    2.5931    1.0890 H   0  0  0  0  0  0  0  0  0  0  0  0
  1 22  1  0  0  0  0
  2 11  1  0  0  0  0
  2 14  1  0  0  0  0
  3 19  1  0  0  0  0
  3 24  1  0  0  0  0
  4  8  1  0  0  0  0
  4  9  1  0  0  0  0
  4 10  1  0  0  0  0
  5 11  2  0  0  0  0
  5 13  1  0  0  0  0
  6  7  1  0  0  0  0
  6  8  1  0  0  0  0
  6 11  1  0  0  0  0
  6 25  1  0  0  0  0
  7  9  1  0  0  0  0
  7 26  1  0  0  0  0
  7 27  1  0  0  0  0
  8 28  1  0  0  0  0
  8 29  1  0  0  0  0
  9 30  1  0  0  0  0
  9 31  1  0  0  0  0
 10 12  1  0  0  0  0
 10 32  1  0  0  0  0
 10 33  1  0  0  0  0
 12 15  2  0  0  0  0
 12 16  1  0  0  0  0
 13 14  2  0  0  0  0
 13 17  1  0  0  0  0
 14 18  1  0  0  0  0
 15 19  1  0  0  0  0
 15 34  1  0  0  0  0
 16 20  2  0  0  0  0
 16 35  1  0  0  0  0
 17 22  2  0  0  0  0
 17 36  1  0  0  0  0
 18 23  2  0  0  0  0
 18 37  1  0  0  0  0
 19 21  2  0  0  0  0
 20 21  1  0  0  0  0
 20 38  1  0  0  0  0
 21 39  1  0  0  0  0
 22 23  1  0  0  0  0
 23 40  1  0  0  0  0
 24 41  1  0  0  0  0
 24 42  1  0  0  0  0
 24 43  1  0  0  0  0
M  END
> <PUBCHEM_COMPOUND_CID>
45784177

> <PUBCHEM_CONFORMER_RMSD>
0.8

> <PUBCHEM_CONFORMER_DIVERSEORDER>
1
110
6
100
37
93
76
127
49
91
43
74
94
41
119
87
48
78
132
38
81
113
18
122
66
84
33
98
118
85
36
55
58
16
120
103
101
117
46
88
129
26
90
112
134
28
92
32
105
82
102
108
65
42
111
44
61
125
11
124
133
31
4
109
114
115
107
106
25
12
95
59
27
30
34
104
9
5
99
89
2
35
126
57
116
83
21
80
62
47
7
64
45
39
79
50
13
69
54
40
15
96
22
3
75
77
56
71
63
121
8
51
97
23
73
131
19
53
10
17
14
70
29
67
68
20
52
130
135
86
24
60
123
72
128

> <PUBCHEM_MMFF94_PARTIAL_CHARGES>
30
1 -0.18
10 0.41
11 0.3
12 -0.14
13 0.23
14 0.14
15 -0.15
16 -0.15
17 -0.15
18 -0.15
19 0.08
2 -0.28
20 -0.15
21 -0.15
22 0.18
23 -0.15
24 0.28
3 -0.36
34 0.15
35 0.15
36 0.15
37 0.15
38 0.15
39 0.15
4 -0.81
40 0.15
5 -0.57
6 0.18
8 0.27
9 0.27

> <PUBCHEM_EFFECTIVE_ROTOR_COUNT>
5

> <PUBCHEM_PHARMACOPHORE_FEATURES>
6
1 3 acceptor
1 4 cation
5 2 5 11 13 14 rings
5 4 6 7 8 9 rings
6 12 15 16 19 20 21 rings
6 13 14 17 18 22 23 rings

> <PUBCHEM_HEAVY_ATOM_COUNT>
24

> <PUBCHEM_ATOM_DEF_STEREO_COUNT>
1

> <PUBCHEM_ATOM_UDEF_STEREO_COUNT>
0

> <PUBCHEM_BOND_DEF_STEREO_COUNT>
0

> <PUBCHEM_BOND_UDEF_STEREO_COUNT>
0

> <PUBCHEM_ISOTOPIC_ATOM_COUNT>
0

> <PUBCHEM_COMPONENT_COUNT>
1

> <PUBCHEM_CACTVS_TAUTO_COUNT>
1

> <PUBCHEM_CONFORMER_ID>
02BA9C7100000001

> <PUBCHEM_MMFF94_ENERGY>
59.1134

> <PUBCHEM_FEATURE_SELFOVERLAP>
30.566

> <PUBCHEM_SHAPE_FINGERPRINT>
10 15 14057006044413141516
10066227 112 18342452617652074741
10299344 5 18411135844594954271
10595046 47 18408037403252250010
106641 1 12973892528711352708
11315181 36 18335137614495765063
11646440 116 16298389054350017876
11719270 70 17561081372069194006
12166972 35 18186519912850007348
12236239 1 18412824685696329158
12643181 29 14549017702264989780
12730499 353 17168142304728473290
12788726 201 17346320353852148907
12916748 109 16226043371539137910
13073987 5 15792000130745055564
13167372 99 18410011001070731352
13533116 47 16878213166095314154
14251752 14 17989486311917134299
14251764 18 18410572902909441549
14849402 71 18114468971210363284
14856354 85 18201720695737802295
14933364 13 18410012139041645733
15048467 5 18413107243315956789
15183329 4 17489591155604884329
15198563 99 15482404061817340857
15537594 2 16558746819332973478
1577012 14 18411415115931396574
16989713 51 17130977832900434327
16994733 274 18333446534471932144
17093844 174 17060329739348447499
18006028 8 12895074024367556034
18335252 98 18188213203178947562
20157964 124 18186519913303174474
20735858 18 14996286907493002993
21033648 29 17750232677252513800
21150785 3 18343304807993412564
21521721 280 18040154028629417570
21792961 116 17418099801924320671
220451 1 18260261936730920755
2215653 11 14045740430562231950
22224240 67 16805325492112125315
23081809 10 18341883104345105639
23198884 109 18334012800419115299
23536379 177 18411134731797433018
23569943 247 16952235526607822674
23576562 1 17059194004067126717
2747138 104 16298395638693254821
29717793 49 18131355194418500678
3004659 81 17346598612546934512
314173 85 15123790695023200043
335352 9 17989483014532673025
397830 11 15358560676949557701
4073 2 18114185267245664282
4098825 35 18410011001175882148
4325135 7 18261109690719227415
4340502 62 16081084870972086058
445580 37 17704080572785011441
5265222 85 17986953140343721030
5283156 175 17775568603268598282
5758199 1 18040154023959949162
59682541 35 16732710462954112713
59755656 215 15339126727919902572
59755656 520 17676485059989740171
6328613 192 18342175557938667881
9953998 17 17167870760190800673

> <PUBCHEM_SHAPE_MULTIPOLES>
474.08
23.27
1.7
1.02
0.73
0.31
-0.1
9.2
1.18
0.28
0.05
0.34
0
-2.04

> <PUBCHEM_SHAPE_SELFOVERLAP>
1026.287

> <PUBCHEM_SHAPE_VOLUME>
263.4

> <PUBCHEM_COORDINATE_TYPE>
2
5
10

$$$$
