56775627
  -OEChem-12032416213D

 56 59  0     1  0  0  0  0  0999 V2000
   -4.8196   -0.1734    2.4009 O   0  0  0  0  0  0  0  0  0  0  0  0
   -0.8287    3.2869   -0.5096 O   0  0  0  0  0  0  0  0  0  0  0  0
   -0.2316   -1.8646   -1.2354 O   0  0  0  0  0  0  0  0  0  0  0  0
    2.9841   -2.2454   -0.7694 O   0  0  0  0  0  0  0  0  0  0  0  0
   -2.4446   -0.7521    0.6182 N   0  0  0  0  0  0  0  0  0  0  0  0
   -2.1086    2.9379   -0.0963 N   0  0  0  0  0  0  0  0  0  0  0  0
    2.0134    1.7003   -1.2561 N   0  0  2  0  0  0  0  0  0  0  0  0
   -3.5929    0.1414    0.6826 C   0  0  0  0  0  0  0  0  0  0  0  0
   -3.7045    0.6957    2.0985 C   0  0  0  0  0  0  0  0  0  0  0  0
   -4.8296   -0.6734    1.0443 C   0  0  0  0  0  0  0  0  0  0  0  0
   -3.6619    1.1129   -0.5031 C   0  0  0  0  0  0  0  0  0  0  0  0
   -2.3693    1.7836   -0.7162 C   0  0  0  0  0  0  0  0  0  0  0  0
   -2.5551   -1.6150   -0.5556 C   0  0  0  0  0  0  0  0  0  0  0  0
   -1.3015    1.3596   -1.5259 C   0  0  0  0  0  0  0  0  0  0  0  0
   -1.3348   -2.4787   -0.7334 C   0  0  0  0  0  0  0  0  0  0  0  0
   -0.3586    2.3393   -1.3606 C   0  0  0  0  0  0  0  0  0  0  0  0
    1.0257    2.5574   -1.9110 C   0  0  0  0  0  0  0  0  0  0  0  0
   -1.0792   -3.8083   -0.4899 C   0  0  0  0  0  0  0  0  0  0  0  0
    0.7393   -2.8124   -1.3133 C   0  0  0  0  0  0  0  0  0  0  0  0
    0.2679   -4.0248   -0.8664 C   0  0  0  0  0  0  0  0  0  0  0  0
    2.3605    2.2341    0.0605 C   0  0  0  0  0  0  0  0  0  0  0  0
    3.2099    1.5720   -2.0872 C   0  0  0  0  0  0  0  0  0  0  0  0
    2.9155    1.1692    0.9686 C   0  0  0  0  0  0  0  0  0  0  0  0
    2.0399   -2.3697   -1.8356 C   0  0  0  0  0  0  0  0  0  0  0  0
    2.0575    0.4301    1.7831 C   0  0  0  0  0  0  0  0  0  0  0  0
    4.2878    0.9218    0.9955 C   0  0  0  0  0  0  0  0  0  0  0  0
    2.5720   -0.5563    2.6246 C   0  0  0  0  0  0  0  0  0  0  0  0
    4.8025   -0.0646    1.8368 C   0  0  0  0  0  0  0  0  0  0  0  0
    3.9444   -0.8036    2.6514 C   0  0  0  0  0  0  0  0  0  0  0  0
   -2.8644    0.5257    2.7803 H   0  0  0  0  0  0  0  0  0  0  0  0
   -4.0070    1.7458    2.1738 H   0  0  0  0  0  0  0  0  0  0  0  0
   -5.7503   -0.3718    0.5323 H   0  0  0  0  0  0  0  0  0  0  0  0
   -4.7813   -1.7657    1.0477 H   0  0  0  0  0  0  0  0  0  0  0  0
   -4.4442    1.8610   -0.3159 H   0  0  0  0  0  0  0  0  0  0  0  0
   -3.9819    0.6015   -1.4188 H   0  0  0  0  0  0  0  0  0  0  0  0
   -2.3135   -1.3328    1.4471 H   0  0  0  0  0  0  0  0  0  0  0  0
   -2.6913   -1.0736   -1.4945 H   0  0  0  0  0  0  0  0  0  0  0  0
   -3.4114   -2.2938   -0.4726 H   0  0  0  0  0  0  0  0  0  0  0  0
   -1.2191    0.4926   -2.1620 H   0  0  0  0  0  0  0  0  0  0  0  0
    0.9647    2.3149   -2.9808 H   0  0  0  0  0  0  0  0  0  0  0  0
    1.3027    3.6181   -1.8513 H   0  0  0  0  0  0  0  0  0  0  0  0
   -1.7748   -4.5323   -0.0905 H   0  0  0  0  0  0  0  0  0  0  0  0
    0.8237   -4.9502   -0.8168 H   0  0  0  0  0  0  0  0  0  0  0  0
    1.4826    2.6504    0.5714 H   0  0  0  0  0  0  0  0  0  0  0  0
    3.0612    3.0780   -0.0112 H   0  0  0  0  0  0  0  0  0  0  0  0
    3.7400    2.5238   -2.2076 H   0  0  0  0  0  0  0  0  0  0  0  0
    3.9045    0.8275   -1.6886 H   0  0  0  0  0  0  0  0  0  0  0  0
    2.9434    1.2077   -3.0867 H   0  0  0  0  0  0  0  0  0  0  0  0
    2.4310   -3.0953   -2.5558 H   0  0  0  0  0  0  0  0  0  0  0  0
    1.9572   -1.3993   -2.3350 H   0  0  0  0  0  0  0  0  0  0  0  0
    0.9856    0.6097    1.7685 H   0  0  0  0  0  0  0  0  0  0  0  0
    4.9712    1.4972    0.3768 H   0  0  0  0  0  0  0  0  0  0  0  0
    1.9036   -1.1329    3.2573 H   0  0  0  0  0  0  0  0  0  0  0  0
    5.8713   -0.2558    1.8595 H   0  0  0  0  0  0  0  0  0  0  0  0
    3.8166   -1.9327   -1.1628 H   0  0  0  0  0  0  0  0  0  0  0  0
    4.3450   -1.5718    3.3063 H   0  0  0  0  0  0  0  0  0  0  0  0
  1  9  1  0  0  0  0
  1 10  1  0  0  0  0
  2  6  1  0  0  0  0
  2 16  1  0  0  0  0
  3 15  1  0  0  0  0
  3 19  1  0  0  0  0
  4 24  1  0  0  0  0
  4 55  1  0  0  0  0
  5  8  1  0  0  0  0
  5 13  1  0  0  0  0
  5 36  1  0  0  0  0
  6 12  2  0  0  0  0
  7 17  1  0  0  0  0
  7 21  1  0  0  0  0
  7 22  1  0  0  0  0
  8  9  1  0  0  0  0
  8 10  1  0  0  0  0
  8 11  1  0  0  0  0
  9 30  1  0  0  0  0
  9 31  1  0  0  0  0
 10 32  1  0  0  0  0
 10 33  1  0  0  0  0
 11 12  1  0  0  0  0
 11 34  1  0  0  0  0
 11 35  1  0  0  0  0
 12 14  1  0  0  0  0
 13 15  1  0  0  0  0
 13 37  1  0  0  0  0
 13 38  1  0  0  0  0
 14 16  2  0  0  0  0
 14 39  1  0  0  0  0
 15 18  2  0  0  0  0
 16 17  1  0  0  0  0
 17 40  1  0  0  0  0
 17 41  1  0  0  0  0
 18 20  1  0  0  0  0
 18 42  1  0  0  0  0
 19 20  2  0  0  0  0
 19 24  1  0  0  0  0
 20 43  1  0  0  0  0
 21 23  1  0  0  0  0
 21 44  1  0  0  0  0
 21 45  1  0  0  0  0
 22 46  1  0  0  0  0
 22 47  1  0  0  0  0
 22 48  1  0  0  0  0
 23 25  2  0  0  0  0
 23 26  1  0  0  0  0
 24 49  1  0  0  0  0
 24 50  1  0  0  0  0
 25 27  1  0  0  0  0
 25 51  1  0  0  0  0
 26 28  2  0  0  0  0
 26 52  1  0  0  0  0
 27 29  2  0  0  0  0
 27 53  1  0  0  0  0
 28 29  1  0  0  0  0
 28 54  1  0  0  0  0
 29 56  1  0  0  0  0
M  END
> <PUBCHEM_COMPOUND_CID>
56775627

> <PUBCHEM_CONFORMER_RMSD>
1.4

> <PUBCHEM_CONFORMER_DIVERSEORDER>
1
49
82
62
64
47
9
13
38
65
23
15
73
12
74
5
44
21
2
58
11
35
6
41
19
83
7
22
53
77
68
81
61
43
60
34
8
36
17
84
40
55
67
79
27
39
76
20
3
56
52
54
30
14
46
59
18
33
85
28
51
25
71
80
75
63
70
24
4
10
45
72
78
16
50
42
37
32
69
66
48
26
57
29
31

> <PUBCHEM_MMFF94_PARTIAL_CHARGES>
39
1 -0.52
10 0.26
11 0.18
12 0.11
13 0.45
14 -0.15
15 -0.04
16 -0.04
17 0.45
18 -0.15
19 -0.04
2 -0.02
20 -0.15
21 0.41
22 0.27
23 -0.14
24 0.46
25 -0.15
26 -0.15
27 -0.15
28 -0.15
29 -0.15
3 -0.28
36 0.36
39 0.15
4 -0.68
42 0.15
43 0.15
5 -0.84
51 0.15
52 0.15
53 0.15
54 0.15
55 0.4
56 0.15
6 -0.41
7 -0.81
8 0.21
9 0.26

> <PUBCHEM_EFFECTIVE_ROTOR_COUNT>
10.8

> <PUBCHEM_PHARMACOPHORE_FEATURES>
12
1 1 acceptor
1 3 acceptor
1 4 acceptor
1 4 donor
1 5 cation
1 5 donor
1 6 acceptor
1 7 cation
4 1 8 9 10 rings
5 2 6 12 14 16 rings
5 3 15 18 19 20 rings
6 23 25 26 27 28 29 rings

> <PUBCHEM_HEAVY_ATOM_COUNT>
29

> <PUBCHEM_ATOM_DEF_STEREO_COUNT>
0

> <PUBCHEM_ATOM_UDEF_STEREO_COUNT>
0

> <PUBCHEM_BOND_DEF_STEREO_COUNT>
0

> <PUBCHEM_BOND_UDEF_STEREO_COUNT>
0

> <PUBCHEM_ISOTOPIC_ATOM_COUNT>
0

> <PUBCHEM_COMPONENT_COUNT>
1

> <PUBCHEM_CACTVS_TAUTO_COUNT>
1

> <PUBCHEM_CONFORMER_ID>
036253CB00000001

> <PUBCHEM_MMFF94_ENERGY>
55.8268

> <PUBCHEM_FEATURE_SELFOVERLAP>
60.897

> <PUBCHEM_SHAPE_FINGERPRINT>
12156800 1 15260914978085308846
12422481 6 18410007702361463338
12539773 59 18265899240584253481
12633257 1 18059848519218397408
12655387 17 17241330158613759969
12788726 201 17262448799658409903
13512321 179 16689960097957311737
13965767 371 18267302208726047288
14114207 22 14285224753154973761
14279260 333 17604694579486157802
14725015 67 16603208561388991053
14840074 17 18262519307143354712
14932702 115 17403760851885340678
15403338 16 17313088762091228499
19026451 147 15679125787920634382
19319366 153 17245285345639124260
19734167 9 18059564862630103522
1979834 28 18340220626158597497
20764821 26 18339913814879878462
23559900 14 18119260471454277693
238918 7 18127672878005233774
25222932 49 17027153208562003699
35225 105 17558533953576217828
3524813 1 18127415548801963350
445580 8 18263086663637970768
4616759 239 16387609698365406115
508706 21 18341880862646457918
563151 248 18117850009069759908
56638632 33 16169734872462080754
6287921 2 18199203823111043599
7064713 232 18272932764690080219

> <PUBCHEM_SHAPE_MULTIPOLES>
558.39
8.44
4.5
2.64
0.9
2.84
1.12
-1.31
6.67
0.35
-3.12
-1.51
-0.06
-0.38

> <PUBCHEM_SHAPE_SELFOVERLAP>
1189.623

> <PUBCHEM_SHAPE_VOLUME>
314

> <PUBCHEM_COORDINATE_TYPE>
2
5
10

$$$$
