7144071
  -OEChem-12032416363D

 59 63  0     1  0  0  0  0  0999 V2000
    9.0709   -1.7084    0.7380 Cl  0  0  0  0  0  0  0  0  0  0  0  0
    1.2754    2.7364    1.4047 O   0  0  0  0  0  0  0  0  0  0  0  0
   -3.1268   -4.9782   -0.3666 O   0  0  0  0  0  0  0  0  0  0  0  0
   -3.4522    1.2598    0.6756 N   0  0  2  0  0  0  0  0  0  0  0  0
   -0.5952    2.5267    0.0303 N   0  0  0  0  0  0  0  0  0  0  0  0
   -2.8242    3.6832    0.5454 C   0  0  1  0  0  0  0  0  0  0  0  0
   -2.6174    2.2774   -1.4484 C   0  0  2  0  0  0  0  0  0  0  0  0
   -3.0100    3.6712   -0.9660 C   0  0  0  0  0  0  0  0  0  0  0  0
   -3.7176    2.6062    1.1968 C   0  0  0  0  0  0  0  0  0  0  0  0
   -3.5397    1.2248   -0.7921 C   0  0  0  0  0  0  0  0  0  0  0  0
   -1.3359    3.4852    0.8633 C   0  0  0  0  0  0  0  0  0  0  0  0
   -1.1639    1.9855   -1.1250 C   0  0  0  0  0  0  0  0  0  0  0  0
   -4.3517    0.2782    1.2770 C   0  0  0  0  0  0  0  0  0  0  0  0
   -0.4326    1.1987   -1.9299 C   0  0  0  0  0  0  0  0  0  0  0  0
    0.7383    2.2616    0.4021 C   0  0  0  0  0  0  0  0  0  0  0  0
    1.5252    1.3543   -0.5057 C   0  0  0  0  0  0  0  0  0  0  0  0
    0.9299    0.8810   -1.6094 C   0  0  0  0  0  0  0  0  0  0  0  0
   -4.0248   -1.1246    0.8388 C   0  0  0  0  0  0  0  0  0  0  0  0
    2.8905    1.0229   -0.1843 C   0  0  0  0  0  0  0  0  0  0  0  0
   -2.7025   -1.5450    0.8235 C   0  0  0  0  0  0  0  0  0  0  0  0
   -5.0510   -1.9768    0.4558 C   0  0  0  0  0  0  0  0  0  0  0  0
   -2.3999   -2.8445    0.4165 C   0  0  0  0  0  0  0  0  0  0  0  0
   -4.7484   -3.2762    0.0490 C   0  0  0  0  0  0  0  0  0  0  0  0
    3.4571   -0.1397   -0.5298 C   0  0  0  0  0  0  0  0  0  0  0  0
   -3.4229   -3.7102    0.0293 C   0  0  0  0  0  0  0  0  0  0  0  0
    4.8435   -0.5271   -0.2161 C   0  0  0  0  0  0  0  0  0  0  0  0
    5.7683    0.4556    0.0983 C   0  0  0  0  0  0  0  0  0  0  0  0
    5.1963   -1.8668   -0.2424 C   0  0  0  0  0  0  0  0  0  0  0  0
   -4.2203   -5.8109   -0.7494 C   0  0  0  0  0  0  0  0  0  0  0  0
    7.0811    0.0888    0.3945 C   0  0  0  0  0  0  0  0  0  0  0  0
    6.5092   -2.2336    0.0540 C   0  0  0  0  0  0  0  0  0  0  0  0
    7.4515   -1.2558    0.3723 C   0  0  0  0  0  0  0  0  0  0  0  0
   -3.1355    4.6564    0.9453 H   0  0  0  0  0  0  0  0  0  0  0  0
   -2.7689    2.2392   -2.5353 H   0  0  0  0  0  0  0  0  0  0  0  0
   -2.3909    4.4419   -1.4418 H   0  0  0  0  0  0  0  0  0  0  0  0
   -4.0529    3.8888   -1.2269 H   0  0  0  0  0  0  0  0  0  0  0  0
   -3.5488    2.6190    2.2808 H   0  0  0  0  0  0  0  0  0  0  0  0
   -4.7698    2.8772    1.0340 H   0  0  0  0  0  0  0  0  0  0  0  0
   -3.2581    0.2459   -1.1962 H   0  0  0  0  0  0  0  0  0  0  0  0
   -4.5735    1.4115   -1.1152 H   0  0  0  0  0  0  0  0  0  0  0  0
   -1.1999    3.2103    1.9168 H   0  0  0  0  0  0  0  0  0  0  0  0
   -0.8208    4.4471    0.7342 H   0  0  0  0  0  0  0  0  0  0  0  0
   -4.2601    0.3051    2.3708 H   0  0  0  0  0  0  0  0  0  0  0  0
   -5.3962    0.5202    1.0389 H   0  0  0  0  0  0  0  0  0  0  0  0
   -0.8514    0.7609   -2.8300 H   0  0  0  0  0  0  0  0  0  0  0  0
    1.4376    0.2445   -2.3275 H   0  0  0  0  0  0  0  0  0  0  0  0
    3.4299    1.7762    0.3806 H   0  0  0  0  0  0  0  0  0  0  0  0
   -1.8918   -0.8915    1.1334 H   0  0  0  0  0  0  0  0  0  0  0  0
   -6.0870   -1.6500    0.4678 H   0  0  0  0  0  0  0  0  0  0  0  0
   -1.3656   -3.1774    0.4058 H   0  0  0  0  0  0  0  0  0  0  0  0
   -5.5908   -3.8961   -0.2385 H   0  0  0  0  0  0  0  0  0  0  0  0
    2.8873   -0.9037   -1.0540 H   0  0  0  0  0  0  0  0  0  0  0  0
    5.5320    1.5149    0.1055 H   0  0  0  0  0  0  0  0  0  0  0  0
    4.4737   -2.6407   -0.4872 H   0  0  0  0  0  0  0  0  0  0  0  0
   -4.7389   -5.4149   -1.6291 H   0  0  0  0  0  0  0  0  0  0  0  0
   -4.9022   -5.9901    0.0887 H   0  0  0  0  0  0  0  0  0  0  0  0
   -3.8026   -6.7820   -1.0349 H   0  0  0  0  0  0  0  0  0  0  0  0
    7.8065    0.8615    0.6360 H   0  0  0  0  0  0  0  0  0  0  0  0
    6.7835   -3.2852    0.0333 H   0  0  0  0  0  0  0  0  0  0  0  0
  1 32  1  0  0  0  0
  2 15  2  0  0  0  0
  3 25  1  0  0  0  0
  3 29  1  0  0  0  0
  4  9  1  0  0  0  0
  4 10  1  0  0  0  0
  4 13  1  0  0  0  0
  5 11  1  0  0  0  0
  5 12  1  0  0  0  0
  5 15  1  0  0  0  0
  6  8  1  0  0  0  0
  6  9  1  0  0  0  0
  6 11  1  0  0  0  0
  6 33  1  0  0  0  0
  7  8  1  0  0  0  0
  7 10  1  0  0  0  0
  7 12  1  0  0  0  0
  7 34  1  0  0  0  0
  8 35  1  0  0  0  0
  8 36  1  0  0  0  0
  9 37  1  0  0  0  0
  9 38  1  0  0  0  0
 10 39  1  0  0  0  0
 10 40  1  0  0  0  0
 11 41  1  0  0  0  0
 11 42  1  0  0  0  0
 12 14  2  0  0  0  0
 13 18  1  0  0  0  0
 13 43  1  0  0  0  0
 13 44  1  0  0  0  0
 14 17  1  0  0  0  0
 14 45  1  0  0  0  0
 15 16  1  0  0  0  0
 16 17  2  0  0  0  0
 16 19  1  0  0  0  0
 17 46  1  0  0  0  0
 18 20  2  0  0  0  0
 18 21  1  0  0  0  0
 19 24  2  0  0  0  0
 19 47  1  0  0  0  0
 20 22  1  0  0  0  0
 20 48  1  0  0  0  0
 21 23  2  0  0  0  0
 21 49  1  0  0  0  0
 22 25  2  0  0  0  0
 22 50  1  0  0  0  0
 23 25  1  0  0  0  0
 23 51  1  0  0  0  0
 24 26  1  0  0  0  0
 24 52  1  0  0  0  0
 26 27  2  0  0  0  0
 26 28  1  0  0  0  0
 27 30  1  0  0  0  0
 27 53  1  0  0  0  0
 28 31  2  0  0  0  0
 28 54  1  0  0  0  0
 29 55  1  0  0  0  0
 29 56  1  0  0  0  0
 29 57  1  0  0  0  0
 30 32  2  0  0  0  0
 30 58  1  0  0  0  0
 31 32  1  0  0  0  0
 31 59  1  0  0  0  0
M  END
> <PUBCHEM_COMPOUND_CID>
7144071

> <PUBCHEM_CONFORMER_RMSD>
0.8

> <PUBCHEM_CONFORMER_DIVERSEORDER>
1
9
7
6
4
5
3
8
2

> <PUBCHEM_MMFF94_PARTIAL_CHARGES>
42
1 -0.18
10 0.27
11 0.3
12 -0.03
13 0.41
14 -0.15
15 0.62
16 0.01
17 -0.15
18 -0.14
19 -0.15
2 -0.57
20 -0.15
21 -0.15
22 -0.15
23 -0.15
24 -0.18
25 0.08
26 0.03
27 -0.15
28 -0.15
29 0.28
3 -0.36
30 -0.15
31 -0.15
32 0.18
4 -0.81
45 0.15
46 0.15
47 0.15
48 0.15
49 0.15
5 -0.47
50 0.15
51 0.15
52 0.15
53 0.15
54 0.15
58 0.15
59 0.15
7 0.14
9 0.27

> <PUBCHEM_EFFECTIVE_ROTOR_COUNT>
6

> <PUBCHEM_PHARMACOPHORE_FEATURES>
8
1 2 acceptor
1 3 acceptor
1 4 cation
6 18 20 21 22 23 25 rings
6 26 27 28 30 31 32 rings
6 4 6 7 8 9 10 rings
6 5 12 14 15 16 17 rings
6 5 6 7 8 11 12 rings

> <PUBCHEM_HEAVY_ATOM_COUNT>
32

> <PUBCHEM_ATOM_DEF_STEREO_COUNT>
2

> <PUBCHEM_ATOM_UDEF_STEREO_COUNT>
0

> <PUBCHEM_BOND_DEF_STEREO_COUNT>
1

> <PUBCHEM_BOND_UDEF_STEREO_COUNT>
0

> <PUBCHEM_ISOTOPIC_ATOM_COUNT>
0

> <PUBCHEM_COMPONENT_COUNT>
1

> <PUBCHEM_CACTVS_TAUTO_COUNT>
1

> <PUBCHEM_CONFORMER_ID>
006D028700000001

> <PUBCHEM_MMFF94_ENERGY>
100.2315

> <PUBCHEM_FEATURE_SELFOVERLAP>
42.148

> <PUBCHEM_SHAPE_FINGERPRINT>
10254770 206 18341049731020512395
10462674 296 17840575222206121126
10483366 6 18336251398452716999
10940486 97 18187654561310138564
11069576 57 17398389119145397703
11135609 149 17693916898347606831
11963148 33 17908420604250060070
12202916 173 18060133203284472421
13947947 140 18200043978501519535
14344974 204 18412828014882559846
14659021 117 18412537691823741253
14705955 166 17274274842263918545
14844126 61 18335990804863291849
14856354 85 18342458102246334100
14866123 147 18411427202866023579
14950920 106 17917438652181228529
15021287 119 16878238476242695676
15183329 4 8790588305350843120
15320294 125 18260555480692203927
15361156 5 17749687211920946508
15803439 3 17608901250443456013
16989713 51 18260547810413331182
17324776 126 17981876751141521854
18608769 82 18411417311741060930
19246450 95 18270422507615783617
19303781 99 17895475946319144970
19315092 285 17413600784900708387
19611394 137 18273214176102235008
20775530 9 18115865381495401795
21360442 33 17474665530889762495
22956985 138 18051691341157404224
229767 44 18339935852489286883
23523787 8 17610578052946555847
23559900 14 18408597084894665545
244849 19 17916563437284387072
2838139 119 9511466610999966884
32027 91 18197211667276771003
3383291 50 18340209601167582411
3504750 166 18409163299423703950
397830 11 18341602751430902488
4017518 198 18192427477277684927
4073 2 18339923694042987670
437795 96 18199477575563295550
4616759 239 17988070081591700536
484985 159 18336259077084154191
5080951 261 18041543751366046292
56633871 153 18267316511516094219
6441014 3 18266457805187349522
68570916 9 18260272941518450972

> <PUBCHEM_SHAPE_MULTIPOLES>
638.71
18.08
6.52
1.29
49.21
6.94
0.25
16.11
-4.3
-13.29
0.52
-0.83
-0.73
-0.62

> <PUBCHEM_SHAPE_SELFOVERLAP>
1388.838

> <PUBCHEM_SHAPE_VOLUME>
347.1

> <PUBCHEM_COORDINATE_TYPE>
2
5
10

$$$$
