26763045
  -OEChem-12032416183D

 59 60  0     1  0  0  0  0  0999 V2000
    1.4780   -4.2691    0.5338 O   0  0  0  0  0  0  0  0  0  0  0  0
    5.2020    0.3267   -1.4119 O   0  0  0  0  0  0  0  0  0  0  0  0
   -3.4888    2.3222    0.3903 O   0  0  0  0  0  0  0  0  0  0  0  0
    0.3513   -1.0134   -0.2651 N   0  0  2  0  0  0  0  0  0  0  0  0
   -0.6036   -3.3402    0.8080 N   0  0  0  0  0  0  0  0  0  0  0  0
    3.1975    0.4028   -0.2420 N   0  0  0  0  0  0  0  0  0  0  0  0
   -5.4995    1.2038    0.0976 N   0  0  0  0  0  0  0  0  0  0  0  0
    5.0537    1.4691    0.6023 N   0  0  0  0  0  0  0  0  0  0  0  0
    0.9859   -2.2629   -0.6943 C   0  0  1  0  0  0  0  0  0  0  0  0
   -1.1057   -1.1471   -0.3135 C   0  0  1  0  0  0  0  0  0  0  0  0
    2.4155   -0.3815   -1.1653 C   0  0  1  0  0  0  0  0  0  0  0  0
    2.4516   -1.8694   -0.7968 C   0  0  0  0  0  0  0  0  0  0  0  0
    0.9346    0.0089   -1.1332 C   0  0  0  0  0  0  0  0  0  0  0  0
   -1.4911   -2.1884    0.7467 C   0  0  0  0  0  0  0  0  0  0  0  0
   -1.8383    0.1664   -0.0310 C   0  0  0  0  0  0  0  0  0  0  0  0
    0.6795   -3.3641    0.2945 C   0  0  0  0  0  0  0  0  0  0  0  0
   -3.3501   -0.0182   -0.1096 C   0  0  0  0  0  0  0  0  0  0  0  0
    4.5452    0.6983   -0.4402 C   0  0  0  0  0  0  0  0  0  0  0  0
   -4.1035    1.2798    0.1500 C   0  0  0  0  0  0  0  0  0  0  0  0
    6.4259    1.9161    0.6478 C   0  0  0  0  0  0  0  0  0  0  0  0
   -6.2702   -0.0053   -0.1826 C   0  0  0  0  0  0  0  0  0  0  0  0
   -6.2933    2.4010    0.3452 C   0  0  0  0  0  0  0  0  0  0  0  0
    6.9037    2.0126    2.0909 C   0  0  0  0  0  0  0  0  0  0  0  0
    6.5784    3.2488   -0.0747 C   0  0  0  0  0  0  0  0  0  0  0  0
   -6.5981   -0.7609    1.0885 C   0  0  0  0  0  0  0  0  0  0  0  0
   -6.5605    3.1639   -0.9357 C   0  0  0  0  0  0  0  0  0  0  0  0
    0.6216   -2.5835   -1.6809 H   0  0  0  0  0  0  0  0  0  0  0  0
   -1.4097   -1.5123   -1.3048 H   0  0  0  0  0  0  0  0  0  0  0  0
    2.8187   -0.2323   -2.1739 H   0  0  0  0  0  0  0  0  0  0  0  0
    2.9888   -2.0440    0.1440 H   0  0  0  0  0  0  0  0  0  0  0  0
    2.9572   -2.4529   -1.5745 H   0  0  0  0  0  0  0  0  0  0  0  0
    0.7807    1.0222   -0.7481 H   0  0  0  0  0  0  0  0  0  0  0  0
    0.5144   -0.0518   -2.1455 H   0  0  0  0  0  0  0  0  0  0  0  0
   -1.4821   -1.7523    1.7528 H   0  0  0  0  0  0  0  0  0  0  0  0
   -2.4918   -2.5916    0.5617 H   0  0  0  0  0  0  0  0  0  0  0  0
   -1.5577    0.5588    0.9554 H   0  0  0  0  0  0  0  0  0  0  0  0
   -1.5469    0.9287   -0.7641 H   0  0  0  0  0  0  0  0  0  0  0  0
   -0.8759   -4.1041    1.4190 H   0  0  0  0  0  0  0  0  0  0  0  0
    2.7666    0.6929    0.6307 H   0  0  0  0  0  0  0  0  0  0  0  0
   -3.6869   -0.7445    0.6332 H   0  0  0  0  0  0  0  0  0  0  0  0
   -3.6107   -0.3790   -1.1103 H   0  0  0  0  0  0  0  0  0  0  0  0
    4.4128    1.7910    1.3214 H   0  0  0  0  0  0  0  0  0  0  0  0
    7.0438    1.1728    0.1296 H   0  0  0  0  0  0  0  0  0  0  0  0
   -7.1906    0.2687   -0.7106 H   0  0  0  0  0  0  0  0  0  0  0  0
   -5.7102   -0.6598   -0.8551 H   0  0  0  0  0  0  0  0  0  0  0  0
   -7.2337    2.1238    0.8339 H   0  0  0  0  0  0  0  0  0  0  0  0
   -5.7513    3.0529    1.0397 H   0  0  0  0  0  0  0  0  0  0  0  0
    6.3131    2.7406    2.6584 H   0  0  0  0  0  0  0  0  0  0  0  0
    6.8084    1.0454    2.5967 H   0  0  0  0  0  0  0  0  0  0  0  0
    7.9546    2.3165    2.1362 H   0  0  0  0  0  0  0  0  0  0  0  0
    5.9629    4.0258    0.3924 H   0  0  0  0  0  0  0  0  0  0  0  0
    6.2643    3.1657   -1.1208 H   0  0  0  0  0  0  0  0  0  0  0  0
    7.6206    3.5845   -0.0612 H   0  0  0  0  0  0  0  0  0  0  0  0
   -5.6966   -1.0499    1.6362 H   0  0  0  0  0  0  0  0  0  0  0  0
   -7.2100   -0.1527    1.7628 H   0  0  0  0  0  0  0  0  0  0  0  0
   -7.1590   -1.6711    0.8543 H   0  0  0  0  0  0  0  0  0  0  0  0
   -5.6252    3.4688   -1.4169 H   0  0  0  0  0  0  0  0  0  0  0  0
   -7.1191    2.5539   -1.6530 H   0  0  0  0  0  0  0  0  0  0  0  0
   -7.1458    4.0649   -0.7275 H   0  0  0  0  0  0  0  0  0  0  0  0
  1 16  2  0  0  0  0
  2 18  2  0  0  0  0
  3 19  2  0  0  0  0
  4  9  1  0  0  0  0
  4 10  1  0  0  0  0
  4 13  1  0  0  0  0
  5 14  1  0  0  0  0
  5 16  1  0  0  0  0
  5 38  1  0  0  0  0
  6 11  1  0  0  0  0
  6 18  1  0  0  0  0
  6 39  1  0  0  0  0
  7 19  1  0  0  0  0
  7 21  1  0  0  0  0
  7 22  1  0  0  0  0
  8 18  1  0  0  0  0
  8 20  1  0  0  0  0
  8 42  1  0  0  0  0
  9 12  1  0  0  0  0
  9 16  1  0  0  0  0
  9 27  1  0  0  0  0
 10 14  1  0  0  0  0
 10 15  1  0  0  0  0
 10 28  1  0  0  0  0
 11 12  1  0  0  0  0
 11 13  1  0  0  0  0
 11 29  1  0  0  0  0
 12 30  1  0  0  0  0
 12 31  1  0  0  0  0
 13 32  1  0  0  0  0
 13 33  1  0  0  0  0
 14 34  1  0  0  0  0
 14 35  1  0  0  0  0
 15 17  1  0  0  0  0
 15 36  1  0  0  0  0
 15 37  1  0  0  0  0
 17 19  1  0  0  0  0
 17 40  1  0  0  0  0
 17 41  1  0  0  0  0
 20 23  1  0  0  0  0
 20 24  1  0  0  0  0
 20 43  1  0  0  0  0
 21 25  1  0  0  0  0
 21 44  1  0  0  0  0
 21 45  1  0  0  0  0
 22 26  1  0  0  0  0
 22 46  1  0  0  0  0
 22 47  1  0  0  0  0
 23 48  1  0  0  0  0
 23 49  1  0  0  0  0
 23 50  1  0  0  0  0
 24 51  1  0  0  0  0
 24 52  1  0  0  0  0
 24 53  1  0  0  0  0
 25 54  1  0  0  0  0
 25 55  1  0  0  0  0
 25 56  1  0  0  0  0
 26 57  1  0  0  0  0
 26 58  1  0  0  0  0
 26 59  1  0  0  0  0
M  END
> <PUBCHEM_COMPOUND_CID>
26763045

> <PUBCHEM_CONFORMER_RMSD>
1.2

> <PUBCHEM_CONFORMER_DIVERSEORDER>
1
62
111
47
66
117
63
161
93
162
181
147
141
40
121
134
104
96
127
102
68
135
156
118
94
80
160
155
10
122
146
92
58
158
174
32
24
42
82
60
110
19
77
176
115
128
23
13
120
14
136
157
151
61
54
88
124
112
137
145
59
67
138
41
149
70
34
79
143
22
150
114
7
38
84
33
153
87
171
100
99
159
175
25
36
148
26
44
35
163
116
5
74
4
166
6
2
170
75
168
56
17
16
169
109
95
50
140
97
172
72
8
139
125
46
129
86
91
15
85
78
37
164
3
89
29
178
64
108
180
107
105
113
73
154
11
179
177
103
39
48
12
18
51
144
45
131
81
83
152
106
123
90
142
28
57
65
167
132
52
55
31
71
165
69
76
30
173
119
133
98
20
130
53
43
21
126
9
27
49
101

> <PUBCHEM_MMFF94_PARTIAL_CHARGES>
23
1 -0.57
10 0.27
11 0.3
13 0.27
14 0.3
16 0.57
17 0.06
18 0.69
19 0.57
2 -0.57
20 0.3
21 0.3
22 0.3
3 -0.57
38 0.37
39 0.37
4 -0.81
42 0.37
5 -0.73
6 -0.73
7 -0.66
8 -0.73
9 0.33

> <PUBCHEM_EFFECTIVE_ROTOR_COUNT>
11.2

> <PUBCHEM_PHARMACOPHORE_FEATURES>
10
1 1 acceptor
1 2 acceptor
1 3 acceptor
1 4 cation
1 5 donor
1 6 donor
1 8 donor
3 20 23 24 hydrophobe
5 4 9 11 12 13 rings
6 4 5 9 10 14 16 rings

> <PUBCHEM_HEAVY_ATOM_COUNT>
26

> <PUBCHEM_ATOM_DEF_STEREO_COUNT>
3

> <PUBCHEM_ATOM_UDEF_STEREO_COUNT>
0

> <PUBCHEM_BOND_DEF_STEREO_COUNT>
0

> <PUBCHEM_BOND_UDEF_STEREO_COUNT>
0

> <PUBCHEM_ISOTOPIC_ATOM_COUNT>
0

> <PUBCHEM_COMPONENT_COUNT>
1

> <PUBCHEM_CACTVS_TAUTO_COUNT>
9

> <PUBCHEM_CONFORMER_ID>
01985F2500000001

> <PUBCHEM_MMFF94_ENERGY>
43.4544

> <PUBCHEM_FEATURE_SELFOVERLAP>
50.887

> <PUBCHEM_SHAPE_FINGERPRINT>
10 15 18188493591934951648
10074138 170 17824261716043249346
10835480 77 18335700474192154437
11135609 127 18121488061080809389
12107183 9 18334845118659321122
13540713 4 18267888188511108806
13955234 65 18118689811881955795
14216079 64 10953730119004299241
14251764 30 9151180848197053888
14347332 77 10015045140124863220
14461889 52 18041013825759205139
14565420 104 18408319965166936082
15510800 12 12180381558462284928
16994733 274 16845302630822590115
19053607 189 18041571234461724237
20554085 129 18201142313597368226
20567600 254 18409448072454749797
21033648 29 18337679706384449670
21307412 95 9078849445920254043
21401589 2 18270973434974879290
21424621 283 18411698815933255452
21585481 104 14260814805129720248
22224240 67 18409166644928394775
23559900 14 17679319481229197407
23929065 36 18053372477335376450
249999 5 18336827472946018898
2748736 6 18410849979951092988
2838139 119 18273210885302607588
2916195 48 18412547604666367173
3246875 12 18411421743482698147
3411729 13 18335979779513749554
4340502 62 18409172103531478895
465052 167 10665235838629022944
5104073 3 18259987050392285195
59682541 35 18337121159173453507
6695519 79 18196117537143505915
67856867 119 18191586350756283475
77188 2 17546164100173087030
9981440 41 18335424598818758315

> <PUBCHEM_SHAPE_MULTIPOLES>
492.55
19.28
4.43
1.19
0.48
2.14
0.19
-24.77
4.3
-1.03
0.81
-1.32
-0.2
2.29

> <PUBCHEM_SHAPE_SELFOVERLAP>
986.775

> <PUBCHEM_SHAPE_VOLUME>
290

> <PUBCHEM_COORDINATE_TYPE>
2
5
10

$$$$
