45784340
  -OEChem-12032416363D

 39 42  0     1  0  0  0  0  0999 V2000
   -6.3892    2.0528    0.6822 F   0  0  0  0  0  0  0  0  0  0  0  0
    7.5059    1.6559   -0.5456 F   0  0  0  0  0  0  0  0  0  0  0  0
   -7.6546   -0.3581    0.4316 F   0  0  0  0  0  0  0  0  0  0  0  0
    3.1937   -1.4761    0.4431 O   0  0  0  0  0  0  0  0  0  0  0  0
   -1.3627   -0.4063   -0.1924 N   0  0  1  0  0  0  0  0  0  0  0  0
    2.7466    0.7019    0.0040 N   0  0  0  0  0  0  0  0  0  0  0  0
    0.8265   -0.8987    0.4888 C   0  0  1  0  0  0  0  0  0  0  0  0
    0.0894   -0.1604    1.6196 C   0  0  0  0  0  0  0  0  0  0  0  0
   -0.0359   -0.6598   -0.7579 C   0  0  0  0  0  0  0  0  0  0  0  0
   -1.1233    0.4741    0.9511 C   0  0  0  0  0  0  0  0  0  0  0  0
   -2.2765    0.1803   -1.1615 C   0  0  0  0  0  0  0  0  0  0  0  0
    2.2679   -0.4874    0.2958 C   0  0  0  0  0  0  0  0  0  0  0  0
   -3.7135    0.0362   -0.7359 C   0  0  0  0  0  0  0  0  0  0  0  0
    4.1034    0.4928   -0.0484 C   0  0  0  0  0  0  0  0  0  0  0  0
    4.3810   -0.8396    0.2199 C   0  0  0  0  0  0  0  0  0  0  0  0
   -4.3992    1.1328   -0.2135 C   0  0  0  0  0  0  0  0  0  0  0  0
   -4.3591   -1.1936   -0.8641 C   0  0  0  0  0  0  0  0  0  0  0  0
    5.1675    1.3664   -0.3141 C   0  0  0  0  0  0  0  0  0  0  0  0
    5.6552   -1.3927    0.2479 C   0  0  0  0  0  0  0  0  0  0  0  0
   -5.7307    0.9997    0.1807 C   0  0  0  0  0  0  0  0  0  0  0  0
   -5.6905   -1.3268   -0.4697 C   0  0  0  0  0  0  0  0  0  0  0  0
    6.4691    0.8446   -0.2949 C   0  0  0  0  0  0  0  0  0  0  0  0
    6.7054   -0.5079   -0.0193 C   0  0  0  0  0  0  0  0  0  0  0  0
   -6.3764   -0.2301    0.0525 C   0  0  0  0  0  0  0  0  0  0  0  0
    0.8070   -1.9719    0.7265 H   0  0  0  0  0  0  0  0  0  0  0  0
   -0.2342   -0.8855    2.3769 H   0  0  0  0  0  0  0  0  0  0  0  0
    0.7067    0.5918    2.1222 H   0  0  0  0  0  0  0  0  0  0  0  0
    0.3254    0.2025   -1.3343 H   0  0  0  0  0  0  0  0  0  0  0  0
   -0.0352   -1.5362   -1.4152 H   0  0  0  0  0  0  0  0  0  0  0  0
   -1.9740    0.5134    1.6387 H   0  0  0  0  0  0  0  0  0  0  0  0
   -0.8773    1.4968    0.6374 H   0  0  0  0  0  0  0  0  0  0  0  0
   -2.0336    1.2298   -1.3767 H   0  0  0  0  0  0  0  0  0  0  0  0
   -2.1795   -0.3388   -2.1257 H   0  0  0  0  0  0  0  0  0  0  0  0
   -3.9079    2.0962   -0.1068 H   0  0  0  0  0  0  0  0  0  0  0  0
   -3.8358   -2.0555   -1.2696 H   0  0  0  0  0  0  0  0  0  0  0  0
    4.9963    2.4159   -0.5290 H   0  0  0  0  0  0  0  0  0  0  0  0
    5.8272   -2.4401    0.4621 H   0  0  0  0  0  0  0  0  0  0  0  0
   -6.1935   -2.2841   -0.5691 H   0  0  0  0  0  0  0  0  0  0  0  0
    7.7276   -0.8786   -0.0127 H   0  0  0  0  0  0  0  0  0  0  0  0
  1 20  1  0  0  0  0
  2 22  1  0  0  0  0
  3 24  1  0  0  0  0
  4 12  1  0  0  0  0
  4 15  1  0  0  0  0
  5  9  1  0  0  0  0
  5 10  1  0  0  0  0
  5 11  1  0  0  0  0
  6 12  2  0  0  0  0
  6 14  1  0  0  0  0
  7  8  1  0  0  0  0
  7  9  1  0  0  0  0
  7 12  1  0  0  0  0
  7 25  1  0  0  0  0
  8 10  1  0  0  0  0
  8 26  1  0  0  0  0
  8 27  1  0  0  0  0
  9 28  1  0  0  0  0
  9 29  1  0  0  0  0
 10 30  1  0  0  0  0
 10 31  1  0  0  0  0
 11 13  1  0  0  0  0
 11 32  1  0  0  0  0
 11 33  1  0  0  0  0
 13 16  2  0  0  0  0
 13 17  1  0  0  0  0
 14 15  2  0  0  0  0
 14 18  1  0  0  0  0
 15 19  1  0  0  0  0
 16 20  1  0  0  0  0
 16 34  1  0  0  0  0
 17 21  2  0  0  0  0
 17 35  1  0  0  0  0
 18 22  2  0  0  0  0
 18 36  1  0  0  0  0
 19 23  2  0  0  0  0
 19 37  1  0  0  0  0
 20 24  2  0  0  0  0
 21 24  1  0  0  0  0
 21 38  1  0  0  0  0
 22 23  1  0  0  0  0
 23 39  1  0  0  0  0
M  END
> <PUBCHEM_COMPOUND_CID>
45784340

> <PUBCHEM_CONFORMER_RMSD>
0.8

> <PUBCHEM_CONFORMER_DIVERSEORDER>
1
29
30
44
53
74
67
41
73
42
63
16
66
10
47
64
26
4
69
46
59
9
17
40
45
43
34
21
65
57
72
31
33
58
51
19
39
61
56
12
23
32
24
48
11
55
20
60
2
38
49
28
50
3
6
14
35
25
22
52
8
75
62
18
5
15
7
37
54
68
36
13
27
70
71

> <PUBCHEM_MMFF94_PARTIAL_CHARGES>
29
1 -0.19
10 0.27
11 0.41
12 0.3
13 -0.14
14 0.23
15 0.14
16 -0.15
17 -0.15
18 -0.15
19 -0.15
2 -0.19
20 0.19
21 -0.15
22 0.19
23 -0.15
24 0.19
3 -0.19
34 0.15
35 0.15
36 0.15
37 0.15
38 0.15
39 0.15
4 -0.28
5 -0.81
6 -0.57
7 0.18
9 0.27

> <PUBCHEM_EFFECTIVE_ROTOR_COUNT>
4

> <PUBCHEM_PHARMACOPHORE_FEATURES>
5
1 5 cation
5 4 6 12 14 15 rings
5 5 7 8 9 10 rings
6 13 16 17 20 21 24 rings
6 14 15 18 19 22 23 rings

> <PUBCHEM_HEAVY_ATOM_COUNT>
24

> <PUBCHEM_ATOM_DEF_STEREO_COUNT>
1

> <PUBCHEM_ATOM_UDEF_STEREO_COUNT>
0

> <PUBCHEM_BOND_DEF_STEREO_COUNT>
0

> <PUBCHEM_BOND_UDEF_STEREO_COUNT>
0

> <PUBCHEM_ISOTOPIC_ATOM_COUNT>
0

> <PUBCHEM_COMPONENT_COUNT>
1

> <PUBCHEM_CACTVS_TAUTO_COUNT>
1

> <PUBCHEM_CONFORMER_ID>
02BA9D1400000001

> <PUBCHEM_MMFF94_ENERGY>
44.0997

> <PUBCHEM_FEATURE_SELFOVERLAP>
25.492

> <PUBCHEM_SHAPE_FINGERPRINT>
10 15 14418136244862647228
10299344 5 18342457049841949063
10595046 47 18409445864867972299
106641 1 13695874748720666548
11315181 36 18408040720111519797
11524674 6 15985101942558025927
11646440 116 16515688831650679756
11719270 70 17561082471623000318
12166972 35 18259985972640505620
12236239 1 18342455932991949638
12516196 113 17676205775287614100
12643181 29 14261349167938815156
12730499 353 17676205745824483090
12788726 201 17203332160847009634
12916748 109 16660640735580455716
13167372 99 18411136892509004200
13533116 47 17023174969524105914
14123256 10 16877941642262337379
14170010 4 17894912949590191948
1420 363 16805604754848518015
14251752 14 17846778494424596153
14251764 18 18411417323528781925
14251764 46 18040152920744197539
14849402 71 18261117434097772348
14856354 85 18060139873410770335
14933364 13 18412826888819321253
15183329 4 17988642986551604993
15419008 47 15285351834286830687
15537594 2 16343698828881941182
15716309 27 18335137588119501063
18006028 8 12175625079074895418
18335252 98 18335144223469674067
20157964 124 18260266352853683954
20281389 69 18272366473194352993
21150785 3 18272090522030680176
21521721 280 18187085070078605962
21792961 116 17346602936945940271
220451 1 17846775213112267511
22224240 67 16515404079376285379
23035841 295 18201717353899759083
23081809 10 18343290466312037094
23198884 109 18407760335339142747
23516275 137 18057907795386645607
23536379 177 18412543197592039035
23569943 247 17097762466233897426
23622692 88 14056723452428630410
2747138 104 16877953723926512197
29717793 49 17988928851913164254
3004659 81 17131832097136033384
314173 85 14692569926922234243
34797466 226 18341618118369934054
3545911 37 17894629258083263038
397830 11 15575577888246281685
4073 2 18113903796690495450
4098825 35 18338516339864052996
4325135 7 18334857229823406759
4340502 62 16081084866708754282
445580 37 17632585924384445001
5265222 85 17988077927801208518
5283156 175 17418377970256202926
542803 24 18342170064063300198
559249 180 9079114458477651173
5758199 1 18113057142439643338
59682541 35 16660369211900850273
59755656 215 15051740772334822660
59755656 520 17967529090517941387
9996256 80 18334290955095838812

> <PUBCHEM_SHAPE_MULTIPOLES>
456.26
21.65
1.48
0.97
1.03
0.23
-0.12
3.87
1.28
-0.19
0.01
0.41
-0.01
-1.21

> <PUBCHEM_SHAPE_SELFOVERLAP>
1008.266

> <PUBCHEM_SHAPE_VOLUME>
248.3

> <PUBCHEM_COORDINATE_TYPE>
2
5
10

$$$$
