28963135
  -OEChem-12032416193D

 70 72  0     1  0  0  0  0  0999 V2000
    0.3825    2.3577   -1.3641 O   0  0  0  0  0  0  0  0  0  0  0  0
   -4.5697    2.2483    0.6445 O   0  0  0  0  0  0  0  0  0  0  0  0
    5.7936   -1.8592   -0.8362 O   0  0  0  0  0  0  0  0  0  0  0  0
    4.9549   -0.0196    0.3044 N   0  0  0  0  0  0  0  0  0  0  0  0
   -3.9675    1.1495   -1.3074 N   0  0  0  0  0  0  0  0  0  0  0  0
    7.2237   -0.2648    0.0561 N   0  0  0  0  0  0  0  0  0  0  0  0
    0.7815   -0.3322    1.3156 C   0  0  1  0  0  0  0  0  0  0  0  0
    1.1462    0.5366    0.0661 C   0  0  2  0  0  0  0  0  0  0  0  0
    2.6674    0.9282    0.0822 C   0  0  1  0  0  0  0  0  0  0  0  0
    0.1527    1.7215   -0.1061 C   0  0  2  0  0  0  0  0  0  0  0  0
   -0.6912   -0.7941    1.2109 C   0  0  0  0  0  0  0  0  0  0  0  0
    1.6715   -1.5965    1.3278 C   0  0  0  0  0  0  0  0  0  0  0  0
   -1.3246    1.2638   -0.1056 C   0  0  1  0  0  0  0  0  0  0  0  0
    3.5510   -0.3478    0.1704 C   0  0  2  0  0  0  0  0  0  0  0  0
   -1.6701    0.3655    1.0819 C   0  0  0  0  0  0  0  0  0  0  0  0
    3.1601   -1.2795    1.3173 C   0  0  0  0  0  0  0  0  0  0  0  0
    0.9685    0.4363    2.6484 C   0  0  0  0  0  0  0  0  0  0  0  0
   -2.2894    2.4553   -0.1445 C   0  0  2  0  0  0  0  0  0  0  0  0
    3.1019    1.7610   -1.1357 C   0  0  0  0  0  0  0  0  0  0  0  0
   -2.0622    3.3543    1.0658 C   0  0  0  0  0  0  0  0  0  0  0  0
   -3.7297    1.9562   -0.2040 C   0  0  0  0  0  0  0  0  0  0  0  0
    5.9723   -0.8119   -0.2159 C   0  0  0  0  0  0  0  0  0  0  0  0
   -5.2565    0.5564   -1.5783 C   0  0  0  0  0  0  0  0  0  0  0  0
    8.4572   -0.8830   -0.3696 C   0  0  0  0  0  0  0  0  0  0  0  0
   -5.3978   -0.7958   -0.9412 C   0  0  0  0  0  0  0  0  0  0  0  0
    8.7510   -0.5893   -1.8262 C   0  0  0  0  0  0  0  0  0  0  0  0
   -5.0164   -1.9399   -1.6420 C   0  0  0  0  0  0  0  0  0  0  0  0
   -5.9106   -0.9079    0.3510 C   0  0  0  0  0  0  0  0  0  0  0  0
   -5.1477   -3.1964   -1.0503 C   0  0  0  0  0  0  0  0  0  0  0  0
   -6.0419   -2.1642    0.9427 C   0  0  0  0  0  0  0  0  0  0  0  0
   -5.6605   -3.3085    0.2419 C   0  0  0  0  0  0  0  0  0  0  0  0
    1.0179   -0.0987   -0.8252 H   0  0  0  0  0  0  0  0  0  0  0  0
    2.8636    1.5515    0.9639 H   0  0  0  0  0  0  0  0  0  0  0  0
    0.3693    2.4539    0.6733 H   0  0  0  0  0  0  0  0  0  0  0  0
   -0.9635   -1.3975    2.0865 H   0  0  0  0  0  0  0  0  0  0  0  0
   -0.8117   -1.4506    0.3384 H   0  0  0  0  0  0  0  0  0  0  0  0
    1.4434   -2.2164    0.4503 H   0  0  0  0  0  0  0  0  0  0  0  0
    1.4433   -2.2135    2.2063 H   0  0  0  0  0  0  0  0  0  0  0  0
   -1.4621    0.6644   -1.0155 H   0  0  0  0  0  0  0  0  0  0  0  0
    3.4310   -0.9072   -0.7676 H   0  0  0  0  0  0  0  0  0  0  0  0
   -2.6710   -0.0659    0.9662 H   0  0  0  0  0  0  0  0  0  0  0  0
   -1.6850    0.9065    2.0302 H   0  0  0  0  0  0  0  0  0  0  0  0
    3.4592   -0.8430    2.2781 H   0  0  0  0  0  0  0  0  0  0  0  0
    3.7208   -2.2200    1.2391 H   0  0  0  0  0  0  0  0  0  0  0  0
    2.0065    0.7269    2.8287 H   0  0  0  0  0  0  0  0  0  0  0  0
    0.6597   -0.1849    3.4975 H   0  0  0  0  0  0  0  0  0  0  0  0
    0.3786    1.3562    2.6880 H   0  0  0  0  0  0  0  0  0  0  0  0
   -2.1213    3.0476   -1.0531 H   0  0  0  0  0  0  0  0  0  0  0  0
    2.7915    1.2870   -2.0725 H   0  0  0  0  0  0  0  0  0  0  0  0
    4.1880    1.8923   -1.1750 H   0  0  0  0  0  0  0  0  0  0  0  0
    2.6881    2.7722   -1.0904 H   0  0  0  0  0  0  0  0  0  0  0  0
    5.2110    0.7835    0.8705 H   0  0  0  0  0  0  0  0  0  0  0  0
    0.2476    1.6982   -2.0658 H   0  0  0  0  0  0  0  0  0  0  0  0
   -2.2337    2.8646    2.0272 H   0  0  0  0  0  0  0  0  0  0  0  0
   -2.7771    4.1871    1.0321 H   0  0  0  0  0  0  0  0  0  0  0  0
   -1.0756    3.8225    1.0746 H   0  0  0  0  0  0  0  0  0  0  0  0
   -3.2337    0.9972   -1.9916 H   0  0  0  0  0  0  0  0  0  0  0  0
    7.2734    0.6125    0.5647 H   0  0  0  0  0  0  0  0  0  0  0  0
   -5.3624    0.4811   -2.6666 H   0  0  0  0  0  0  0  0  0  0  0  0
   -6.0496    1.2281   -1.2287 H   0  0  0  0  0  0  0  0  0  0  0  0
    9.2574   -0.4926    0.2668 H   0  0  0  0  0  0  0  0  0  0  0  0
    8.3847   -1.9641   -0.2106 H   0  0  0  0  0  0  0  0  0  0  0  0
    7.9657   -0.9839   -2.4793 H   0  0  0  0  0  0  0  0  0  0  0  0
    8.8178    0.4896   -2.0021 H   0  0  0  0  0  0  0  0  0  0  0  0
    9.7009   -1.0443   -2.1230 H   0  0  0  0  0  0  0  0  0  0  0  0
   -4.6135   -1.8655   -2.6486 H   0  0  0  0  0  0  0  0  0  0  0  0
   -6.2146   -0.0259    0.9079 H   0  0  0  0  0  0  0  0  0  0  0  0
   -4.8501   -4.0873   -1.5956 H   0  0  0  0  0  0  0  0  0  0  0  0
   -6.4413   -2.2516    1.9488 H   0  0  0  0  0  0  0  0  0  0  0  0
   -5.7625   -4.2866    0.7027 H   0  0  0  0  0  0  0  0  0  0  0  0
  1 10  1  0  0  0  0
  1 53  1  0  0  0  0
  2 21  2  0  0  0  0
  3 22  2  0  0  0  0
  4 14  1  0  0  0  0
  4 22  1  0  0  0  0
  4 52  1  0  0  0  0
  5 21  1  0  0  0  0
  5 23  1  0  0  0  0
  5 57  1  0  0  0  0
  6 22  1  0  0  0  0
  6 24  1  0  0  0  0
  6 58  1  0  0  0  0
  7  8  1  0  0  0  0
  7 11  1  0  0  0  0
  7 12  1  0  0  0  0
  7 17  1  0  0  0  0
  8  9  1  0  0  0  0
  8 10  1  0  0  0  0
  8 32  1  0  0  0  0
  9 14  1  0  0  0  0
  9 19  1  0  0  0  0
  9 33  1  0  0  0  0
 10 13  1  0  0  0  0
 10 34  1  0  0  0  0
 11 15  1  0  0  0  0
 11 35  1  0  0  0  0
 11 36  1  0  0  0  0
 12 16  1  0  0  0  0
 12 37  1  0  0  0  0
 12 38  1  0  0  0  0
 13 15  1  0  0  0  0
 13 18  1  0  0  0  0
 13 39  1  0  0  0  0
 14 16  1  0  0  0  0
 14 40  1  0  0  0  0
 15 41  1  0  0  0  0
 15 42  1  0  0  0  0
 16 43  1  0  0  0  0
 16 44  1  0  0  0  0
 17 45  1  0  0  0  0
 17 46  1  0  0  0  0
 17 47  1  0  0  0  0
 18 20  1  0  0  0  0
 18 21  1  0  0  0  0
 18 48  1  0  0  0  0
 19 49  1  0  0  0  0
 19 50  1  0  0  0  0
 19 51  1  0  0  0  0
 20 54  1  0  0  0  0
 20 55  1  0  0  0  0
 20 56  1  0  0  0  0
 23 25  1  0  0  0  0
 23 59  1  0  0  0  0
 23 60  1  0  0  0  0
 24 26  1  0  0  0  0
 24 61  1  0  0  0  0
 24 62  1  0  0  0  0
 25 27  2  0  0  0  0
 25 28  1  0  0  0  0
 26 63  1  0  0  0  0
 26 64  1  0  0  0  0
 26 65  1  0  0  0  0
 27 29  1  0  0  0  0
 27 66  1  0  0  0  0
 28 30  2  0  0  0  0
 28 67  1  0  0  0  0
 29 31  2  0  0  0  0
 29 68  1  0  0  0  0
 30 31  1  0  0  0  0
 30 69  1  0  0  0  0
 31 70  1  0  0  0  0
M  END
> <PUBCHEM_COMPOUND_CID>
28963135

> <PUBCHEM_CONFORMER_RMSD>
1

> <PUBCHEM_CONFORMER_DIVERSEORDER>
2
24
215
92
138
132
180
183
19
62
194
66
123
65
36
211
209
163
100
189
206
64
27
175
87
53
14
16
18
101
187
103
151
71
63
39
94
161
127
75
210
125
170
95
26
224
128
155
74
35
196
1
162
197
4
113
168
111
203
174
46
177
164
202
88
10
81
167
204
166
143
45
200
122
37
208
144
105
214
173
104
30
114
41
89
82
216
222
119
165
130
69
133
124
137
141
80
225
223
58
213
193
199
190
108
21
52
28
185
112
154
61
107
51
25
72
68
192
198
147
146
106
217
29
188
176
48
160
73
90
152
85
86
145
5
207
116
158
20
218
205
178
55
42
109
6
57
186
135
153
171
91
49
99
139
79
159
54
56
195
77
169
32
7
93
118
60
212
221
172
181
67
142
9
117
156
121
110
22
50
59
84
12
157
43
96
17
76
38
98
184
47
23
83
102
120
201
191
129
33
220
15
179
134
136
40
70
34
219
97
149
126
8
13
182
78
44
150
115
140
11
3
31
148
131

> <PUBCHEM_MMFF94_PARTIAL_CHARGES>
28
1 -0.68
10 0.28
14 0.3
18 0.06
2 -0.57
21 0.57
22 0.69
23 0.44
24 0.3
25 -0.14
27 -0.15
28 -0.15
29 -0.15
3 -0.57
30 -0.15
31 -0.15
4 -0.73
5 -0.73
52 0.37
53 0.4
57 0.37
58 0.37
6 -0.73
66 0.15
67 0.15
68 0.15
69 0.15
70 0.15

> <PUBCHEM_EFFECTIVE_ROTOR_COUNT>
10.6

> <PUBCHEM_PHARMACOPHORE_FEATURES>
11
1 1 acceptor
1 1 donor
1 2 acceptor
1 20 hydrophobe
1 3 acceptor
1 4 donor
1 5 donor
1 6 donor
6 25 27 28 29 30 31 rings
6 7 8 10 11 13 15 rings
6 7 8 9 12 14 16 rings

> <PUBCHEM_HEAVY_ATOM_COUNT>
31

> <PUBCHEM_ATOM_DEF_STEREO_COUNT>
7

> <PUBCHEM_ATOM_UDEF_STEREO_COUNT>
0

> <PUBCHEM_BOND_DEF_STEREO_COUNT>
0

> <PUBCHEM_BOND_UDEF_STEREO_COUNT>
0

> <PUBCHEM_ISOTOPIC_ATOM_COUNT>
0

> <PUBCHEM_COMPONENT_COUNT>
1

> <PUBCHEM_CACTVS_TAUTO_COUNT>
6

> <PUBCHEM_CONFORMER_ID>
01B9F13F00000002

> <PUBCHEM_MMFF94_ENERGY>
77.0331

> <PUBCHEM_FEATURE_SELFOVERLAP>
55.888

> <PUBCHEM_SHAPE_FINGERPRINT>
10554248 39 16298386813137108114
11315621 136 18260547870094155205
11315621 246 18409443679030234423
11477941 20 16877937231225521613
117089 54 18193277618805227479
13257819 101 12973601118916149779
13782708 43 18060133241527863730
14251757 5 18188766275477916291
14279260 333 18261104162706817434
14767858 380 17748826319606094926
14856354 85 17988641857402844341
14931854 50 17823119264313687431
14950920 106 15410321295698698287
15183329 4 18040426702997092578
15461852 350 18410581678493011030
16112460 7 12103261846869915018
17686467 74 18343295982079050608
17909252 39 18266454485572171347
18681886 176 18334851740797414192
20505436 4 17825389570946344473
20775530 9 18115572877591144787
21054139 6 18186516605440021282
21344244 246 17824549788153114444
21795232 338 18201721756425821977
22288116 15 18260552229507540174
22393880 68 17821994420715228485
23559900 14 18341878698104526193
23569943 247 17903919951641142522
2838139 119 14345793833688635278
354706 132 16660357083351387567
437795 160 18338502090096664586
445580 160 18342455950108957335
484989 97 18187933944568521858
54039377 194 18334300903084641299
6086070 43 14851888101193980044
6669772 16 17690838286922103069
6673363 416 18343309172155958764
999808 66 17489870431880060582

> <PUBCHEM_SHAPE_MULTIPOLES>
605.41
20.25
3.3
1.71
30.27
0.24
0.25
-15.08
-9.24
-5.94
-0.2
0.08
-0.14
-0.29

> <PUBCHEM_SHAPE_SELFOVERLAP>
1250.924

> <PUBCHEM_SHAPE_VOLUME>
343.3

> <PUBCHEM_COORDINATE_TYPE>
2
5
10

$$$$
