7049301
  -OEChem-12032416113D

 63 64  0     1  0  0  0  0  0999 V2000
   -0.5725   -1.3199   -2.2733 O   0  0  0  0  0  0  0  0  0  0  0  0
    0.6942   -3.9351   -0.0509 O   0  0  0  0  0  0  0  0  0  0  0  0
   -3.7599   -2.0625    0.4553 O   0  0  0  0  0  0  0  0  0  0  0  0
    2.3591    0.4416    2.0196 O   0  0  0  0  0  0  0  0  0  0  0  0
    5.8304   -1.1346    0.8980 O   0  0  0  0  0  0  0  0  0  0  0  0
   -4.2908    0.1060   -0.1765 N   0  0  0  0  0  0  0  0  0  0  0  0
   -2.0868   -0.5477   -0.0904 N   0  0  0  0  0  0  0  0  0  0  0  0
    3.5785    0.1845    0.0485 N   0  0  0  0  0  0  0  0  0  0  0  0
    6.4006    0.7118    2.1392 N   0  0  0  0  0  0  0  0  0  0  0  0
   -5.7261   -0.0281   -0.0627 C   0  0  0  0  0  0  0  0  0  0  0  0
   -6.1971    0.2833    1.3619 C   0  0  0  0  0  0  0  0  0  0  0  0
   -6.4451    0.8524   -1.0904 C   0  0  0  0  0  0  0  0  0  0  0  0
   -6.1052    1.7722    1.6960 C   0  0  0  0  0  0  0  0  0  0  0  0
   -6.3527    2.3404   -0.7522 C   0  0  0  0  0  0  0  0  0  0  0  0
   -6.8372    2.6267    0.6657 C   0  0  0  0  0  0  0  0  0  0  0  0
   -0.9647   -1.4295    0.1201 C   0  0  1  0  0  0  0  0  0  0  0  0
   -0.6098   -2.2130   -1.1582 C   0  0  2  0  0  0  0  0  0  0  0  0
    0.7538   -2.9037   -1.0341 C   0  0  1  0  0  0  0  0  0  0  0  0
    1.8767   -1.9102   -0.6891 C   0  0  0  0  0  0  0  0  0  0  0  0
    1.4550   -0.8499    0.2882 C   0  0  0  0  0  0  0  0  0  0  0  0
    0.1868   -0.6291    0.6660 C   0  0  0  0  0  0  0  0  0  0  0  0
   -3.4113   -0.9389    0.0958 C   0  0  0  0  0  0  0  0  0  0  0  0
    2.4961   -0.0106    0.8882 C   0  0  0  0  0  0  0  0  0  0  0  0
    4.7235    0.9757    0.4170 C   0  0  2  0  0  0  0  0  0  0  0  0
    5.4214    1.5917   -0.8020 C   0  0  0  0  0  0  0  0  0  0  0  0
    4.5229    2.4898   -1.6767 C   0  0  0  0  0  0  0  0  0  0  0  0
    5.6800    0.0556    1.1634 C   0  0  0  0  0  0  0  0  0  0  0  0
    4.0983    3.7270   -0.8808 C   0  0  0  0  0  0  0  0  0  0  0  0
    3.2824    1.7542   -2.1854 C   0  0  0  0  0  0  0  0  0  0  0  0
   -5.9725   -1.0748   -0.2805 H   0  0  0  0  0  0  0  0  0  0  0  0
   -7.2416   -0.0366    1.4687 H   0  0  0  0  0  0  0  0  0  0  0  0
   -5.6151   -0.2889    2.0942 H   0  0  0  0  0  0  0  0  0  0  0  0
   -6.0335    0.6814   -2.0924 H   0  0  0  0  0  0  0  0  0  0  0  0
   -7.5036    0.5648   -1.1279 H   0  0  0  0  0  0  0  0  0  0  0  0
   -6.5308    1.9513    2.6899 H   0  0  0  0  0  0  0  0  0  0  0  0
   -5.0526    2.0766    1.7428 H   0  0  0  0  0  0  0  0  0  0  0  0
   -6.9551    2.9137   -1.4662 H   0  0  0  0  0  0  0  0  0  0  0  0
   -5.3193    2.6886   -0.8645 H   0  0  0  0  0  0  0  0  0  0  0  0
   -6.6935    3.6880    0.8975 H   0  0  0  0  0  0  0  0  0  0  0  0
   -7.9145    2.4295    0.7290 H   0  0  0  0  0  0  0  0  0  0  0  0
   -1.2469   -2.1491    0.8998 H   0  0  0  0  0  0  0  0  0  0  0  0
   -1.3921   -2.9551   -1.3586 H   0  0  0  0  0  0  0  0  0  0  0  0
    1.0134   -3.3849   -1.9850 H   0  0  0  0  0  0  0  0  0  0  0  0
    2.7364   -2.4642   -0.2930 H   0  0  0  0  0  0  0  0  0  0  0  0
    2.1763   -1.4255   -1.6265 H   0  0  0  0  0  0  0  0  0  0  0  0
   -3.8984    1.0167   -0.3935 H   0  0  0  0  0  0  0  0  0  0  0  0
   -0.0509    0.1379    1.3998 H   0  0  0  0  0  0  0  0  0  0  0  0
   -1.9106    0.3914   -0.4359 H   0  0  0  0  0  0  0  0  0  0  0  0
    4.3916    1.7614    1.1054 H   0  0  0  0  0  0  0  0  0  0  0  0
    5.8178    0.7856   -1.4352 H   0  0  0  0  0  0  0  0  0  0  0  0
    6.2967    2.1657   -0.4709 H   0  0  0  0  0  0  0  0  0  0  0  0
   -1.4451   -0.8953   -2.3346 H   0  0  0  0  0  0  0  0  0  0  0  0
    3.6615   -0.3435   -0.8112 H   0  0  0  0  0  0  0  0  0  0  0  0
    5.1160    2.8161   -2.5401 H   0  0  0  0  0  0  0  0  0  0  0  0
   -0.0106   -4.5509   -0.3148 H   0  0  0  0  0  0  0  0  0  0  0  0
    3.4322    3.4786   -0.0486 H   0  0  0  0  0  0  0  0  0  0  0  0
    4.9707    4.2518   -0.4773 H   0  0  0  0  0  0  0  0  0  0  0  0
    3.5621    4.4281   -1.5300 H   0  0  0  0  0  0  0  0  0  0  0  0
    3.5266    0.7680   -2.5911 H   0  0  0  0  0  0  0  0  0  0  0  0
    2.4762    1.6890   -1.4510 H   0  0  0  0  0  0  0  0  0  0  0  0
    2.8569    2.3265   -3.0200 H   0  0  0  0  0  0  0  0  0  0  0  0
    6.2826    1.7012    2.3324 H   0  0  0  0  0  0  0  0  0  0  0  0
    7.0841    0.2170    2.7025 H   0  0  0  0  0  0  0  0  0  0  0  0
  1 17  1  0  0  0  0
  1 52  1  0  0  0  0
  2 18  1  0  0  0  0
  2 55  1  0  0  0  0
  3 22  2  0  0  0  0
  4 23  2  0  0  0  0
  5 27  2  0  0  0  0
  6 10  1  0  0  0  0
  6 22  1  0  0  0  0
  6 46  1  0  0  0  0
  7 16  1  0  0  0  0
  7 22  1  0  0  0  0
  7 48  1  0  0  0  0
  8 23  1  0  0  0  0
  8 24  1  0  0  0  0
  8 53  1  0  0  0  0
  9 27  1  0  0  0  0
  9 62  1  0  0  0  0
  9 63  1  0  0  0  0
 10 11  1  0  0  0  0
 10 12  1  0  0  0  0
 10 30  1  0  0  0  0
 11 13  1  0  0  0  0
 11 31  1  0  0  0  0
 11 32  1  0  0  0  0
 12 14  1  0  0  0  0
 12 33  1  0  0  0  0
 12 34  1  0  0  0  0
 13 15  1  0  0  0  0
 13 35  1  0  0  0  0
 13 36  1  0  0  0  0
 14 15  1  0  0  0  0
 14 37  1  0  0  0  0
 14 38  1  0  0  0  0
 15 39  1  0  0  0  0
 15 40  1  0  0  0  0
 16 17  1  0  0  0  0
 16 21  1  0  0  0  0
 16 41  1  0  0  0  0
 17 18  1  0  0  0  0
 17 42  1  0  0  0  0
 18 19  1  0  0  0  0
 18 43  1  0  0  0  0
 19 20  1  0  0  0  0
 19 44  1  0  0  0  0
 19 45  1  0  0  0  0
 20 21  2  0  0  0  0
 20 23  1  0  0  0  0
 21 47  1  0  0  0  0
 24 25  1  0  0  0  0
 24 27  1  0  0  0  0
 24 49  1  0  0  0  0
 25 26  1  0  0  0  0
 25 50  1  0  0  0  0
 25 51  1  0  0  0  0
 26 28  1  0  0  0  0
 26 29  1  0  0  0  0
 26 54  1  0  0  0  0
 28 56  1  0  0  0  0
 28 57  1  0  0  0  0
 28 58  1  0  0  0  0
 29 59  1  0  0  0  0
 29 60  1  0  0  0  0
 29 61  1  0  0  0  0
M  END
> <PUBCHEM_COMPOUND_CID>
7049301

> <PUBCHEM_CONFORMER_RMSD>
1.2

> <PUBCHEM_CONFORMER_DIVERSEORDER>
1
173
83
119
100
130
167
184
120
174
84
135
94
163
176
73
32
140
25
162
109
54
153
131
97
180
170
55
175
164
40
159
7
63
21
113
185
165
59
104
35
52
117
134
133
125
23
13
183
38
78
111
37
178
150
112
141
122
69
77
76
110
98
10
155
179
96
91
139
18
41
48
187
60
31
181
53
62
61
15
16
92
103
44
80
129
47
30
81
12
108
151
8
171
182
124
128
64
33
126
72
144
88
11
168
20
51
118
49
148
39
34
116
57
102
105
74
160
90
87
95
177
67
58
186
107
169
172
36
147
142
93
19
82
145
85
50
157
121
106
123
114
156
45
4
75
149
137
43
138
66
86
6
136
143
68
28
70
65
154
26
127
166
101
158
24
27
46
152
79
71
5
22
132
89
3
29
99
146
42
161
17
115
2
9
14
56

> <PUBCHEM_MMFF94_PARTIAL_CHARGES>
28
1 -0.68
10 0.3
16 0.44
17 0.28
18 0.28
19 0.14
2 -0.68
20 -0.12
21 -0.29
22 0.69
23 0.62
24 0.36
27 0.57
3 -0.57
4 -0.57
46 0.37
47 0.15
48 0.37
5 -0.57
52 0.4
53 0.37
55 0.4
6 -0.73
62 0.37
63 0.37
7 -0.73
8 -0.73
9 -0.8

> <PUBCHEM_EFFECTIVE_ROTOR_COUNT>
12

> <PUBCHEM_PHARMACOPHORE_FEATURES>
14
1 1 acceptor
1 1 donor
1 2 acceptor
1 2 donor
1 3 acceptor
1 4 acceptor
1 5 acceptor
1 6 donor
1 7 donor
1 8 donor
1 9 donor
3 26 28 29 hydrophobe
6 10 11 12 13 14 15 rings
6 16 17 18 19 20 21 rings

> <PUBCHEM_HEAVY_ATOM_COUNT>
29

> <PUBCHEM_ATOM_DEF_STEREO_COUNT>
4

> <PUBCHEM_ATOM_UDEF_STEREO_COUNT>
0

> <PUBCHEM_BOND_DEF_STEREO_COUNT>
0

> <PUBCHEM_BOND_UDEF_STEREO_COUNT>
0

> <PUBCHEM_ISOTOPIC_ATOM_COUNT>
0

> <PUBCHEM_COMPONENT_COUNT>
1

> <PUBCHEM_CACTVS_TAUTO_COUNT>
12

> <PUBCHEM_CONFORMER_ID>
006B905500000001

> <PUBCHEM_MMFF94_ENERGY>
47.3864

> <PUBCHEM_FEATURE_SELFOVERLAP>
71.106

> <PUBCHEM_SHAPE_FINGERPRINT>
11475781 23 16917069966702131376
11796584 16 10519171199188484175
12373685 5 15051722089633221606
12422481 6 17603584144981042149
12596602 18 17385445436319387585
13167372 99 18259984881354581336
13636023 20 13686028548800108490
13782708 43 14201935919070938192
14123256 34 11169917156420077969
14790565 3 18338240486999909797
15183329 4 18343308084695510225
15238133 3 18341611559970645128
17492 89 9366256313891618612
17980427 23 17895197770209659703
19841028 212 11243412985621507329
20715895 44 18412826889330861814
21599406 157 13830138260951287705
21774942 28 16845295973486222112
22122407 14 18187373154931390121
23559900 14 18191316991866893615
249057 25 18263069080089743463
2748736 6 18413387640187642301
2838139 119 18201429294753806689
312425 54 16225765250357178249
3411729 13 18341049614507503035
397830 11 16588317136858922737
4058900 60 18411708660099109691
4144715 1 17968952996872769203
465052 167 11314026864217884434
5104073 3 17531806995132578048
59682541 52 16056609715956512412
7970288 3 9006791855803500069

> <PUBCHEM_SHAPE_MULTIPOLES>
547.54
19.06
3.63
1.81
18.01
0.02
0.03
16.57
-5.1
-1.05
1.52
-1.36
0.54
-1.85

> <PUBCHEM_SHAPE_SELFOVERLAP>
1111.728

> <PUBCHEM_SHAPE_VOLUME>
313.7

> <PUBCHEM_COORDINATE_TYPE>
2
5
10

$$$$
