75537120
  -OEChem-12032416343D

 50 53  0     1  0  0  0  0  0999 V2000
    2.2274    2.6045   -0.0875 O   0  0  0  0  0  0  0  0  0  0  0  0
    2.6495    0.2857   -0.1819 N   0  0  0  0  0  0  0  0  0  0  0  0
    0.5228    1.0002   -0.2865 N   0  0  0  0  0  0  0  0  0  0  0  0
   -1.9257   -0.3005    0.1863 N   0  0  2  0  0  0  0  0  0  0  0  0
    0.4361   -0.4302   -0.4942 C   0  0  1  0  0  0  0  0  0  0  0  0
    4.0848    0.2528   -0.0372 C   0  0  0  0  0  0  0  0  0  0  0  0
    1.8488   -0.9266   -0.1929 C   0  0  0  0  0  0  0  0  0  0  0  0
   -0.6577   -1.0304    0.3886 C   0  0  0  0  0  0  0  0  0  0  0  0
    4.4853   -0.5259    1.2186 C   0  0  0  0  0  0  0  0  0  0  0  0
    4.7369   -0.3371   -1.2900 C   0  0  0  0  0  0  0  0  0  0  0  0
    1.8474    1.4447   -0.1783 C   0  0  0  0  0  0  0  0  0  0  0  0
   -0.6870    1.7953   -0.3154 C   0  0  0  0  0  0  0  0  0  0  0  0
   -1.7726    1.1272    0.5322 C   0  0  0  0  0  0  0  0  0  0  0  0
    6.0021   -0.6195    1.3621 C   0  0  0  0  0  0  0  0  0  0  0  0
    6.2533   -0.4327   -1.1432 C   0  0  0  0  0  0  0  0  0  0  0  0
    6.6501   -1.2059    0.1112 C   0  0  0  0  0  0  0  0  0  0  0  0
   -2.9939   -0.9056    0.9814 C   0  0  0  0  0  0  0  0  0  0  0  0
   -4.3560   -0.5907    0.4224 C   0  0  0  0  0  0  0  0  0  0  0  0
   -5.0392    0.5480    0.8492 C   0  0  0  0  0  0  0  0  0  0  0  0
   -4.9347   -1.4380   -0.5223 C   0  0  0  0  0  0  0  0  0  0  0  0
   -6.3012    0.8394    0.3312 C   0  0  0  0  0  0  0  0  0  0  0  0
   -6.1967   -1.1468   -1.0403 C   0  0  0  0  0  0  0  0  0  0  0  0
   -6.8798   -0.0080   -0.6135 C   0  0  0  0  0  0  0  0  0  0  0  0
    0.2012   -0.5855   -1.5555 H   0  0  0  0  0  0  0  0  0  0  0  0
    4.4332    1.2879    0.0731 H   0  0  0  0  0  0  0  0  0  0  0  0
    1.9044   -1.4005    0.7918 H   0  0  0  0  0  0  0  0  0  0  0  0
    2.1980   -1.6256   -0.9570 H   0  0  0  0  0  0  0  0  0  0  0  0
   -0.7780   -2.0870    0.1203 H   0  0  0  0  0  0  0  0  0  0  0  0
   -0.3658   -0.9884    1.4468 H   0  0  0  0  0  0  0  0  0  0  0  0
    4.0594   -0.0493    2.1099 H   0  0  0  0  0  0  0  0  0  0  0  0
    4.0873   -1.5475    1.1887 H   0  0  0  0  0  0  0  0  0  0  0  0
    4.3460   -1.3407   -1.4964 H   0  0  0  0  0  0  0  0  0  0  0  0
    4.4911    0.2767   -2.1652 H   0  0  0  0  0  0  0  0  0  0  0  0
   -1.0042    1.8666   -1.3622 H   0  0  0  0  0  0  0  0  0  0  0  0
   -0.4697    2.8066    0.0427 H   0  0  0  0  0  0  0  0  0  0  0  0
   -1.5189    1.2366    1.5951 H   0  0  0  0  0  0  0  0  0  0  0  0
   -2.6945    1.6860    0.3516 H   0  0  0  0  0  0  0  0  0  0  0  0
    6.2533   -1.2374    2.2316 H   0  0  0  0  0  0  0  0  0  0  0  0
    6.4125    0.3800    1.5514 H   0  0  0  0  0  0  0  0  0  0  0  0
    6.6793    0.5773   -1.0990 H   0  0  0  0  0  0  0  0  0  0  0  0
    6.6797   -0.9200   -2.0272 H   0  0  0  0  0  0  0  0  0  0  0  0
    7.7403   -1.1955    0.2213 H   0  0  0  0  0  0  0  0  0  0  0  0
    6.3496   -2.2554    0.0027 H   0  0  0  0  0  0  0  0  0  0  0  0
   -2.9346   -0.6173    2.0400 H   0  0  0  0  0  0  0  0  0  0  0  0
   -2.8946   -2.0003    0.9826 H   0  0  0  0  0  0  0  0  0  0  0  0
   -4.6114    1.2093    1.5978 H   0  0  0  0  0  0  0  0  0  0  0  0
   -4.4125   -2.3273   -0.8653 H   0  0  0  0  0  0  0  0  0  0  0  0
   -6.8350    1.7238    0.6665 H   0  0  0  0  0  0  0  0  0  0  0  0
   -6.6472   -1.8064   -1.7761 H   0  0  0  0  0  0  0  0  0  0  0  0
   -7.8628    0.2183   -1.0161 H   0  0  0  0  0  0  0  0  0  0  0  0
  1 11  2  0  0  0  0
  2  6  1  0  0  0  0
  2  7  1  0  0  0  0
  2 11  1  0  0  0  0
  3  5  1  0  0  0  0
  3 11  1  0  0  0  0
  3 12  1  0  0  0  0
  4  8  1  0  0  0  0
  4 13  1  0  0  0  0
  4 17  1  0  0  0  0
  5  7  1  0  0  0  0
  5  8  1  0  0  0  0
  5 24  1  0  0  0  0
  6  9  1  0  0  0  0
  6 10  1  0  0  0  0
  6 25  1  0  0  0  0
  7 26  1  0  0  0  0
  7 27  1  0  0  0  0
  8 28  1  0  0  0  0
  8 29  1  0  0  0  0
  9 14  1  0  0  0  0
  9 30  1  0  0  0  0
  9 31  1  0  0  0  0
 10 15  1  0  0  0  0
 10 32  1  0  0  0  0
 10 33  1  0  0  0  0
 12 13  1  0  0  0  0
 12 34  1  0  0  0  0
 12 35  1  0  0  0  0
 13 36  1  0  0  0  0
 13 37  1  0  0  0  0
 14 16  1  0  0  0  0
 14 38  1  0  0  0  0
 14 39  1  0  0  0  0
 15 16  1  0  0  0  0
 15 40  1  0  0  0  0
 15 41  1  0  0  0  0
 16 42  1  0  0  0  0
 16 43  1  0  0  0  0
 17 18  1  0  0  0  0
 17 44  1  0  0  0  0
 17 45  1  0  0  0  0
 18 19  2  0  0  0  0
 18 20  1  0  0  0  0
 19 21  1  0  0  0  0
 19 46  1  0  0  0  0
 20 22  2  0  0  0  0
 20 47  1  0  0  0  0
 21 23  2  0  0  0  0
 21 48  1  0  0  0  0
 22 23  1  0  0  0  0
 22 49  1  0  0  0  0
 23 50  1  0  0  0  0
M  END
> <PUBCHEM_COMPOUND_CID>
75537120

> <PUBCHEM_CONFORMER_RMSD>
0.8

> <PUBCHEM_CONFORMER_DIVERSEORDER>
2
33
25
5
24
36
14
34
22
32
6
28
8
13
19
29
20
18
7
27
4
9
10
15
17
31
30
1
23
21
12
16
26
3
35
11

> <PUBCHEM_MMFF94_PARTIAL_CHARGES>
23
1 -0.57
11 0.69
12 0.3
13 0.27
17 0.41
18 -0.14
19 -0.15
2 -0.66
20 -0.15
21 -0.15
22 -0.15
23 -0.15
3 -0.66
4 -0.81
46 0.15
47 0.15
48 0.15
49 0.15
5 0.3
50 0.15
6 0.3
7 0.3
8 0.27

> <PUBCHEM_EFFECTIVE_ROTOR_COUNT>
5.4

> <PUBCHEM_PHARMACOPHORE_FEATURES>
6
1 1 acceptor
1 4 cation
5 2 3 5 7 11 rings
6 18 19 20 21 22 23 rings
6 3 4 5 8 12 13 rings
6 6 9 10 14 15 16 rings

> <PUBCHEM_HEAVY_ATOM_COUNT>
23

> <PUBCHEM_ATOM_DEF_STEREO_COUNT>
1

> <PUBCHEM_ATOM_UDEF_STEREO_COUNT>
0

> <PUBCHEM_BOND_DEF_STEREO_COUNT>
0

> <PUBCHEM_BOND_UDEF_STEREO_COUNT>
0

> <PUBCHEM_ISOTOPIC_ATOM_COUNT>
0

> <PUBCHEM_COMPONENT_COUNT>
1

> <PUBCHEM_CACTVS_TAUTO_COUNT>
1

> <PUBCHEM_CONFORMER_ID>
04809AE000000002

> <PUBCHEM_MMFF94_ENERGY>
47.5904

> <PUBCHEM_FEATURE_SELFOVERLAP>
30.543

> <PUBCHEM_SHAPE_FINGERPRINT>
10 15 13398625065595742766
10066227 112 16298389088583045223
106641 1 15554439721662722610
10906281 52 18189635902600459539
11089746 13 18409728478385387411
11315181 36 17131835378770525011
11719270 70 18060138734437815710
11724838 91 13038897842051721240
11796584 16 17022907865144198122
11963148 33 18409162225455825462
12011746 2 18334299768601052998
12166972 35 17989208165587993152
12236239 1 17917993901690349287
12516196 113 17846779607000649433
12596602 18 16128660734347184394
12616971 3 18200606890411145337
12730499 353 7997975686844151232
12916748 109 10159704594613730154
13533116 47 17894906292253960738
13862211 1 18410292510396474974
13914758 101 18341049636477542769
14251752 14 17167857543621369109
14251764 18 18412826902400568336
14848160 23 16917068867290632871
15119646 104 18040993990993986290
15183329 4 18040713662820613203
15188451 53 17846495928547304322
15716309 27 13183022913016188799
15849732 13 17346597482553746004
17834072 8 18113619002014579775
17857418 61 18335420162111720641
18006028 8 18410292506143816100
18222031 100 18413112766654474880
18681886 176 18060414746384599179
19489759 90 17775569728375723091
200 152 18131354124655022177
20028762 73 18130787875750668862
20567600 234 16271920545695003728
20681677 155 13118004426346647633
21236236 1 18187927227603985869
21267235 1 18411145762080479731
21344244 181 12613030540512196816
21521721 280 8646476428246276038
21709351 56 18413105078784386781
21792934 111 18337098013457967208
22079108 93 15769770265185259702
22149856 69 10303543878686184039
22224240 67 17846492639362354954
23198884 109 14273736240014307197
23402539 116 18343018900346734311
23522609 53 18044968755472387508
23559900 14 18114464586048272809
23569943 247 17699867132796484606
23929065 36 18269542863010656657
29717793 49 18040721351144571038
3004659 81 18259988188790434364
3009799 131 18259981570108518635
335352 9 18408044026192028031
3411729 13 18197210559392292576
397830 11 16271066267646229378
4017518 198 17846785109303071918
4340502 62 14836410233054622404
465052 167 18335146418556430842
5104073 3 18268156520913391065
542803 24 13767923546396488151
559249 180 18342455959310704495
59755656 215 18271530814514343318
6328613 192 17822582697494617588
67856867 119 18201153360301024657

> <PUBCHEM_SHAPE_MULTIPOLES>
452.52
19
1.62
1.1
3.45
0.76
-0.05
-5.71
1.18
0.14
0.1
-0.71
-0.21
-0.72

> <PUBCHEM_SHAPE_SELFOVERLAP>
956.448

> <PUBCHEM_SHAPE_VOLUME>
253

> <PUBCHEM_COORDINATE_TYPE>
2
5
10

$$$$
