7682251
  -OEChem-12032416283D

 51 56  0     1  0  0  0  0  0999 V2000
   -2.2215   -3.5765    1.0583 S   0  0  0  0  0  0  0  0  0  0  0  0
    1.9083    1.2979   -0.4935 O   0  0  0  0  0  0  0  0  0  0  0  0
   -3.2618    1.3826   -3.0318 O   0  0  0  0  0  0  0  0  0  0  0  0
   -0.3543    2.1055    0.9423 N   0  0  2  0  0  0  0  0  0  0  0  0
   -2.5929    0.7659   -0.8736 N   0  0  0  0  0  0  0  0  0  0  0  0
   -2.8348    2.3690    1.1159 C   0  0  1  0  0  0  0  0  0  0  0  0
   -1.8418    0.1569    1.4450 C   0  0  2  0  0  0  0  0  0  0  0  0
   -2.9429    1.0939    1.9347 C   0  0  0  0  0  0  0  0  0  0  0  0
   -1.4472    3.0137    1.3071 C   0  0  0  0  0  0  0  0  0  0  0  0
   -0.4633    0.8275    1.6594 C   0  0  0  0  0  0  0  0  0  0  0  0
   -3.1252    2.0313   -0.3480 C   0  0  0  0  0  0  0  0  0  0  0  0
   -2.0425   -0.2196   -0.0280 C   0  0  0  0  0  0  0  0  0  0  0  0
    0.9458    2.7289    1.1782 C   0  0  0  0  0  0  0  0  0  0  0  0
   -1.6994   -1.4330   -0.5377 C   0  0  0  0  0  0  0  0  0  0  0  0
   -2.7751    0.5623   -2.2531 C   0  0  0  0  0  0  0  0  0  0  0  0
   -1.8695   -1.6750   -1.9594 C   0  0  0  0  0  0  0  0  0  0  0  0
    2.0785    1.8579    0.7174 C   0  0  0  0  0  0  0  0  0  0  0  0
   -2.3583   -0.7528   -2.7879 C   0  0  0  0  0  0  0  0  0  0  0  0
   -1.1595   -2.4611    0.3100 C   0  0  0  0  0  0  0  0  0  0  0  0
    3.2572    1.5225    1.2935 C   0  0  0  0  0  0  0  0  0  0  0  0
    0.1572   -2.7032    0.6340 C   0  0  0  0  0  0  0  0  0  0  0  0
    3.9015    0.6660    0.3621 C   0  0  0  0  0  0  0  0  0  0  0  0
    3.0318    0.5600   -0.7184 C   0  0  0  0  0  0  0  0  0  0  0  0
    0.2961   -3.8197    1.5082 C   0  0  0  0  0  0  0  0  0  0  0  0
   -0.9196   -4.3881    1.8188 C   0  0  0  0  0  0  0  0  0  0  0  0
    5.1219   -0.0301    0.3128 C   0  0  0  0  0  0  0  0  0  0  0  0
    3.2910   -0.1983   -1.8587 C   0  0  0  0  0  0  0  0  0  0  0  0
    5.4107   -0.8016   -0.8213 C   0  0  0  0  0  0  0  0  0  0  0  0
    4.5097   -0.8826   -1.8862 C   0  0  0  0  0  0  0  0  0  0  0  0
   -3.5850    3.0917    1.4605 H   0  0  0  0  0  0  0  0  0  0  0  0
   -1.8861   -0.7311    2.0842 H   0  0  0  0  0  0  0  0  0  0  0  0
   -3.9319    0.6338    1.8172 H   0  0  0  0  0  0  0  0  0  0  0  0
   -2.8145    1.3122    3.0020 H   0  0  0  0  0  0  0  0  0  0  0  0
   -1.3926    3.9197    0.6907 H   0  0  0  0  0  0  0  0  0  0  0  0
   -1.3467    3.3323    2.3536 H   0  0  0  0  0  0  0  0  0  0  0  0
   -0.3105    0.9819    2.7368 H   0  0  0  0  0  0  0  0  0  0  0  0
    0.3079    0.1234    1.3323 H   0  0  0  0  0  0  0  0  0  0  0  0
   -4.2145    1.9675   -0.4791 H   0  0  0  0  0  0  0  0  0  0  0  0
   -2.7939    2.8486   -1.0015 H   0  0  0  0  0  0  0  0  0  0  0  0
    1.0809    2.9734    2.2399 H   0  0  0  0  0  0  0  0  0  0  0  0
    1.0125    3.6707    0.6187 H   0  0  0  0  0  0  0  0  0  0  0  0
   -1.5722   -2.6426   -2.3534 H   0  0  0  0  0  0  0  0  0  0  0  0
   -2.4755   -0.9427   -3.8481 H   0  0  0  0  0  0  0  0  0  0  0  0
    3.6259    1.8409    2.2583 H   0  0  0  0  0  0  0  0  0  0  0  0
    0.9877   -2.1147    0.2640 H   0  0  0  0  0  0  0  0  0  0  0  0
    1.2399   -4.1874    1.8892 H   0  0  0  0  0  0  0  0  0  0  0  0
   -1.1056   -5.2410    2.4561 H   0  0  0  0  0  0  0  0  0  0  0  0
    5.8316    0.0232    1.1327 H   0  0  0  0  0  0  0  0  0  0  0  0
    2.5866   -0.2568   -2.6800 H   0  0  0  0  0  0  0  0  0  0  0  0
    6.3507   -1.3452   -0.8718 H   0  0  0  0  0  0  0  0  0  0  0  0
    4.7604   -1.4893   -2.7529 H   0  0  0  0  0  0  0  0  0  0  0  0
  1 19  1  0  0  0  0
  1 25  1  0  0  0  0
  2 17  1  0  0  0  0
  2 23  1  0  0  0  0
  3 15  2  0  0  0  0
  4  9  1  0  0  0  0
  4 10  1  0  0  0  0
  4 13  1  0  0  0  0
  5 11  1  0  0  0  0
  5 12  1  0  0  0  0
  5 15  1  0  0  0  0
  6  8  1  0  0  0  0
  6  9  1  0  0  0  0
  6 11  1  0  0  0  0
  6 30  1  0  0  0  0
  7  8  1  0  0  0  0
  7 10  1  0  0  0  0
  7 12  1  0  0  0  0
  7 31  1  0  0  0  0
  8 32  1  0  0  0  0
  8 33  1  0  0  0  0
  9 34  1  0  0  0  0
  9 35  1  0  0  0  0
 10 36  1  0  0  0  0
 10 37  1  0  0  0  0
 11 38  1  0  0  0  0
 11 39  1  0  0  0  0
 12 14  2  0  0  0  0
 13 17  1  0  0  0  0
 13 40  1  0  0  0  0
 13 41  1  0  0  0  0
 14 16  1  0  0  0  0
 14 19  1  0  0  0  0
 15 18  1  0  0  0  0
 16 18  2  0  0  0  0
 16 42  1  0  0  0  0
 17 20  2  0  0  0  0
 18 43  1  0  0  0  0
 19 21  2  0  0  0  0
 20 22  1  0  0  0  0
 20 44  1  0  0  0  0
 21 24  1  0  0  0  0
 21 45  1  0  0  0  0
 22 23  1  0  0  0  0
 22 26  2  0  0  0  0
 23 27  2  0  0  0  0
 24 25  2  0  0  0  0
 24 46  1  0  0  0  0
 25 47  1  0  0  0  0
 26 28  1  0  0  0  0
 26 48  1  0  0  0  0
 27 29  1  0  0  0  0
 27 49  1  0  0  0  0
 28 29  2  0  0  0  0
 28 50  1  0  0  0  0
 29 51  1  0  0  0  0
M  END
> <PUBCHEM_COMPOUND_CID>
7682251

> <PUBCHEM_CONFORMER_RMSD>
0.8

> <PUBCHEM_CONFORMER_DIVERSEORDER>
1
8
16
14
12
9
7
2
15
13
11
10
6
3
5
4

> <PUBCHEM_MMFF94_PARTIAL_CHARGES>
36
1 -0.08
10 0.27
11 0.3
12 -0.03
13 0.45
14 0.05
15 0.62
16 -0.15
17 -0.04
18 -0.14
19 -0.01
2 -0.28
20 -0.15
21 -0.15
23 0.14
24 -0.15
25 -0.11
26 -0.15
27 -0.15
28 -0.15
29 -0.15
3 -0.57
4 -0.81
42 0.15
43 0.15
44 0.15
45 0.15
46 0.15
47 0.15
48 0.15
49 0.15
5 -0.47
50 0.15
51 0.15
7 0.14
9 0.27

> <PUBCHEM_EFFECTIVE_ROTOR_COUNT>
4

> <PUBCHEM_PHARMACOPHORE_FEATURES>
9
1 2 acceptor
1 3 acceptor
1 4 cation
5 1 19 21 24 25 rings
5 2 17 20 22 23 rings
6 22 23 26 27 28 29 rings
6 4 6 7 8 9 10 rings
6 5 12 14 15 16 18 rings
6 5 6 7 8 11 12 rings

> <PUBCHEM_HEAVY_ATOM_COUNT>
29

> <PUBCHEM_ATOM_DEF_STEREO_COUNT>
2

> <PUBCHEM_ATOM_UDEF_STEREO_COUNT>
0

> <PUBCHEM_BOND_DEF_STEREO_COUNT>
0

> <PUBCHEM_BOND_UDEF_STEREO_COUNT>
0

> <PUBCHEM_ISOTOPIC_ATOM_COUNT>
0

> <PUBCHEM_COMPONENT_COUNT>
1

> <PUBCHEM_CACTVS_TAUTO_COUNT>
1

> <PUBCHEM_CONFORMER_ID>
007538CB00000001

> <PUBCHEM_MMFF94_ENERGY>
67.5657

> <PUBCHEM_FEATURE_SELFOVERLAP>
47.328

> <PUBCHEM_SHAPE_FINGERPRINT>
10165383 225 18042704839549814703
10190108 129 18334862745294845643
10764073 3 17983611660699507467
107951 10 18267883699984434141
12156800 1 13242613380597702170
12422481 6 17272327701607932371
133893 2 17756411669910991691
14114206 34 18340775845097513836
15361156 5 17917164827459195292
17899979 19 17175717776667280650
17974551 9 17482294986049337243
1813 80 16884700567814145051
20775530 9 17686913013141026114
21285901 2 17327710295319291143
21330990 113 18115586097289777883
23559900 14 18202570562639580352
23728640 28 17060350603893123405
3298306 158 18051703143774681696
3380486 145 17479448393036260790
3411729 13 17265285093314335505
35225 105 17900016894749843602
404807 14 13966134444212706036
445580 42 18410299125025971338
469060 322 17677062363760618763
5309563 4 17333944539075705906
57527585 103 18266462194479447538
9709674 26 17989485243014077200
9925002 15 17263808440369984425

> <PUBCHEM_SHAPE_MULTIPOLES>
578.96
7.95
4.53
2.6
12.65
4.01
1.79
-1.04
3.04
-3.28
-3.35
-1.92
0.21
1.04

> <PUBCHEM_SHAPE_SELFOVERLAP>
1287.724

> <PUBCHEM_SHAPE_VOLUME>
310.2

> <PUBCHEM_COORDINATE_TYPE>
2
5
10

$$$$
