23983671
  -OEChem-12032416413D

 78 81  0     1  0  0  0  0  0999 V2000
    6.9599    4.4634   -0.0526 S   0  0  0  0  0  0  0  0  0  0  0  0
    3.0840   -1.2563    0.1365 O   0  0  0  0  0  0  0  0  0  0  0  0
   -3.7645   -3.5085    0.8312 O   0  0  0  0  0  0  0  0  0  0  0  0
    2.8859   -3.9940    0.1653 O   0  0  0  0  0  0  0  0  0  0  0  0
   -5.9608   -0.7199    1.1951 O   0  0  0  0  0  0  0  0  0  0  0  0
    3.3573    0.8593   -0.6880 O   0  0  0  0  0  0  0  0  0  0  0  0
   -4.8551    0.4461   -0.4838 N   0  0  0  0  0  0  0  0  0  0  0  0
    5.1524   -0.3952    0.1391 N   0  0  0  0  0  0  0  0  0  0  0  0
   -1.2048   -1.6970    0.6385 C   0  0  2  0  0  0  0  0  0  0  0  0
   -0.4908   -2.4356   -0.5589 C   0  0  1  0  0  0  0  0  0  0  0  0
    1.0778   -2.5698   -0.4732 C   0  0  1  0  0  0  0  0  0  0  0  0
   -2.6940   -1.4057    0.1804 C   0  0  1  0  0  0  0  0  0  0  0  0
   -0.4755   -0.3498    0.8897 C   0  0  0  0  0  0  0  0  0  0  0  0
   -1.2307   -3.7425   -0.9201 C   0  0  0  0  0  0  0  0  0  0  0  0
    1.6858   -1.1741   -0.1388 C   0  0  1  0  0  0  0  0  0  0  0  0
   -3.4553   -2.6710   -0.2782 C   0  0  1  0  0  0  0  0  0  0  0  0
    1.0333   -0.4889    1.0571 C   0  0  0  0  0  0  0  0  0  0  0  0
   -2.6794   -3.4664   -1.3242 C   0  0  0  0  0  0  0  0  0  0  0  0
   -1.1907   -2.5025    1.9604 C   0  0  0  0  0  0  0  0  0  0  0  0
    1.5647   -3.6475    0.5171 C   0  0  0  0  0  0  0  0  0  0  0  0
    1.6289   -2.9961   -1.8649 C   0  0  0  0  0  0  0  0  0  0  0  0
   -3.5430   -0.6262    1.1978 C   0  0  0  0  0  0  0  0  0  0  0  0
   -4.9247   -0.3252    0.6670 C   0  0  0  0  0  0  0  0  0  0  0  0
    3.8325   -0.1534   -0.1889 C   0  0  0  0  0  0  0  0  0  0  0  0
   -6.0234    0.8848   -1.2121 C   0  0  0  0  0  0  0  0  0  0  0  0
    6.2615    0.4657   -0.0240 C   0  0  0  0  0  0  0  0  0  0  0  0
   -6.5248    2.2126   -0.7225 C   0  0  0  0  0  0  0  0  0  0  0  0
    6.0876    1.8484    0.0351 C   0  0  0  0  0  0  0  0  0  0  0  0
    7.5307   -0.0687   -0.2463 C   0  0  0  0  0  0  0  0  0  0  0  0
   -7.4676    2.2668    0.3041 C   0  0  0  0  0  0  0  0  0  0  0  0
   -6.0481    3.3921   -1.2945 C   0  0  0  0  0  0  0  0  0  0  0  0
    7.1827    2.6967   -0.1279 C   0  0  0  0  0  0  0  0  0  0  0  0
    8.6257    0.7795   -0.4095 C   0  0  0  0  0  0  0  0  0  0  0  0
   -7.9339    3.5004    0.7586 C   0  0  0  0  0  0  0  0  0  0  0  0
   -6.5142    4.6257   -0.8399 C   0  0  0  0  0  0  0  0  0  0  0  0
    8.4518    2.1622   -0.3504 C   0  0  0  0  0  0  0  0  0  0  0  0
   -7.4570    4.6798    0.1866 C   0  0  0  0  0  0  0  0  0  0  0  0
    8.0358    4.9107    1.3393 C   0  0  0  0  0  0  0  0  0  0  0  0
   -0.6477   -1.7728   -1.4269 H   0  0  0  0  0  0  0  0  0  0  0  0
   -2.5997   -0.7813   -0.7196 H   0  0  0  0  0  0  0  0  0  0  0  0
   -0.6672    0.3337    0.0518 H   0  0  0  0  0  0  0  0  0  0  0  0
   -0.8735    0.1415    1.7855 H   0  0  0  0  0  0  0  0  0  0  0  0
   -0.7462   -4.2425   -1.7646 H   0  0  0  0  0  0  0  0  0  0  0  0
   -1.2110   -4.4545   -0.0895 H   0  0  0  0  0  0  0  0  0  0  0  0
    1.5179   -0.5411   -1.0224 H   0  0  0  0  0  0  0  0  0  0  0  0
   -4.4130   -2.3937   -0.7327 H   0  0  0  0  0  0  0  0  0  0  0  0
    1.4612    0.5126    1.1911 H   0  0  0  0  0  0  0  0  0  0  0  0
    1.2804   -1.0170    1.9848 H   0  0  0  0  0  0  0  0  0  0  0  0
   -3.1770   -4.4244   -1.5166 H   0  0  0  0  0  0  0  0  0  0  0  0
   -2.6796   -2.9084   -2.2692 H   0  0  0  0  0  0  0  0  0  0  0  0
   -1.7727   -2.0043    2.7417 H   0  0  0  0  0  0  0  0  0  0  0  0
   -0.1887   -2.6068    2.3761 H   0  0  0  0  0  0  0  0  0  0  0  0
   -1.5838   -3.5144    1.8514 H   0  0  0  0  0  0  0  0  0  0  0  0
    0.9612   -4.5569    0.4607 H   0  0  0  0  0  0  0  0  0  0  0  0
    1.5755   -3.2994    1.5505 H   0  0  0  0  0  0  0  0  0  0  0  0
    2.7125   -2.8529   -1.9502 H   0  0  0  0  0  0  0  0  0  0  0  0
    1.1795   -2.3923   -2.6623 H   0  0  0  0  0  0  0  0  0  0  0  0
    1.4158   -4.0467   -2.0898 H   0  0  0  0  0  0  0  0  0  0  0  0
   -3.6711   -1.1849    2.1304 H   0  0  0  0  0  0  0  0  0  0  0  0
   -3.0762    0.3307    1.4546 H   0  0  0  0  0  0  0  0  0  0  0  0
   -4.2654   -4.2714    0.4960 H   0  0  0  0  0  0  0  0  0  0  0  0
    3.1827   -4.6767    0.7909 H   0  0  0  0  0  0  0  0  0  0  0  0
   -3.9562    0.7918   -0.8049 H   0  0  0  0  0  0  0  0  0  0  0  0
    5.3773   -1.3627    0.3587 H   0  0  0  0  0  0  0  0  0  0  0  0
   -6.8104    0.1258   -1.1295 H   0  0  0  0  0  0  0  0  0  0  0  0
   -5.7480    0.9438   -2.2711 H   0  0  0  0  0  0  0  0  0  0  0  0
    5.1107    2.2801    0.2354 H   0  0  0  0  0  0  0  0  0  0  0  0
    7.6792   -1.1445   -0.2961 H   0  0  0  0  0  0  0  0  0  0  0  0
   -7.8503    1.3563    0.7569 H   0  0  0  0  0  0  0  0  0  0  0  0
   -5.3122    3.3633   -2.0938 H   0  0  0  0  0  0  0  0  0  0  0  0
    9.6135    0.3633   -0.5846 H   0  0  0  0  0  0  0  0  0  0  0  0
   -8.6685    3.5426    1.5573 H   0  0  0  0  0  0  0  0  0  0  0  0
   -6.1428    5.5442   -1.2848 H   0  0  0  0  0  0  0  0  0  0  0  0
    9.3186    2.8037   -0.4877 H   0  0  0  0  0  0  0  0  0  0  0  0
   -7.8200    5.6404    0.5405 H   0  0  0  0  0  0  0  0  0  0  0  0
    7.7601    4.3416    2.2313 H   0  0  0  0  0  0  0  0  0  0  0  0
    9.0841    4.7206    1.0956 H   0  0  0  0  0  0  0  0  0  0  0  0
    7.9179    5.9761    1.5543 H   0  0  0  0  0  0  0  0  0  0  0  0
  1 32  1  0  0  0  0
  1 38  1  0  0  0  0
  2 15  1  0  0  0  0
  2 24  1  0  0  0  0
  3 16  1  0  0  0  0
  3 61  1  0  0  0  0
  4 20  1  0  0  0  0
  4 62  1  0  0  0  0
  5 23  2  0  0  0  0
  6 24  2  0  0  0  0
  7 23  1  0  0  0  0
  7 25  1  0  0  0  0
  7 63  1  0  0  0  0
  8 24  1  0  0  0  0
  8 26  1  0  0  0  0
  8 64  1  0  0  0  0
  9 10  1  0  0  0  0
  9 12  1  0  0  0  0
  9 13  1  0  0  0  0
  9 19  1  0  0  0  0
 10 11  1  0  0  0  0
 10 14  1  0  0  0  0
 10 39  1  0  0  0  0
 11 15  1  0  0  0  0
 11 20  1  0  0  0  0
 11 21  1  0  0  0  0
 12 16  1  0  0  0  0
 12 22  1  0  0  0  0
 12 40  1  0  0  0  0
 13 17  1  0  0  0  0
 13 41  1  0  0  0  0
 13 42  1  0  0  0  0
 14 18  1  0  0  0  0
 14 43  1  0  0  0  0
 14 44  1  0  0  0  0
 15 17  1  0  0  0  0
 15 45  1  0  0  0  0
 16 18  1  0  0  0  0
 16 46  1  0  0  0  0
 17 47  1  0  0  0  0
 17 48  1  0  0  0  0
 18 49  1  0  0  0  0
 18 50  1  0  0  0  0
 19 51  1  0  0  0  0
 19 52  1  0  0  0  0
 19 53  1  0  0  0  0
 20 54  1  0  0  0  0
 20 55  1  0  0  0  0
 21 56  1  0  0  0  0
 21 57  1  0  0  0  0
 21 58  1  0  0  0  0
 22 23  1  0  0  0  0
 22 59  1  0  0  0  0
 22 60  1  0  0  0  0
 25 27  1  0  0  0  0
 25 65  1  0  0  0  0
 25 66  1  0  0  0  0
 26 28  2  0  0  0  0
 26 29  1  0  0  0  0
 27 30  2  0  0  0  0
 27 31  1  0  0  0  0
 28 32  1  0  0  0  0
 28 67  1  0  0  0  0
 29 33  2  0  0  0  0
 29 68  1  0  0  0  0
 30 34  1  0  0  0  0
 30 69  1  0  0  0  0
 31 35  2  0  0  0  0
 31 70  1  0  0  0  0
 32 36  2  0  0  0  0
 33 36  1  0  0  0  0
 33 71  1  0  0  0  0
 34 37  2  0  0  0  0
 34 72  1  0  0  0  0
 35 37  1  0  0  0  0
 35 73  1  0  0  0  0
 36 74  1  0  0  0  0
 37 75  1  0  0  0  0
 38 76  1  0  0  0  0
 38 77  1  0  0  0  0
 38 78  1  0  0  0  0
M  END
> <PUBCHEM_COMPOUND_CID>
23983671

> <PUBCHEM_CONFORMER_RMSD>
1.2

> <PUBCHEM_CONFORMER_DIVERSEORDER>
4
59
77
19
10
14
39
3
35
82
32
71
42
9
63
11
29
25
36
34
83
8
75
51
21
28
7
15
40
2
78
41
13
80
33
68
52
5
22
87
6
81
18
1
55
24
73
64
61
65
50
12
46
58
49
60
86
72
76
37
54
70
47
66
62
23
38
84
56
79
74
17
57
20
43
69
16
45
44
53
27
67
26
48
30
31
85

> <PUBCHEM_MMFF94_PARTIAL_CHARGES>
41
1 -0.33
15 0.28
16 0.28
2 -0.43
20 0.28
22 0.06
23 0.57
24 0.78
25 0.44
26 0.12
27 -0.14
28 -0.15
29 -0.15
3 -0.68
30 -0.15
31 -0.15
32 0.1
33 -0.15
34 -0.15
35 -0.15
36 -0.15
37 -0.15
38 0.23
4 -0.68
5 -0.57
6 -0.57
61 0.4
62 0.4
63 0.37
64 0.37
67 0.15
68 0.15
69 0.15
7 -0.73
70 0.15
71 0.15
72 0.15
73 0.15
74 0.15
75 0.15
8 -0.55

> <PUBCHEM_EFFECTIVE_ROTOR_COUNT>
12.6

> <PUBCHEM_PHARMACOPHORE_FEATURES>
13
1 3 acceptor
1 3 donor
1 38 hydrophobe
1 4 acceptor
1 4 donor
1 5 acceptor
1 6 acceptor
1 7 donor
1 8 donor
6 26 28 29 32 33 36 rings
6 27 30 31 34 35 37 rings
6 9 10 11 13 15 17 rings
6 9 10 12 14 16 18 rings

> <PUBCHEM_HEAVY_ATOM_COUNT>
38

> <PUBCHEM_ATOM_DEF_STEREO_COUNT>
5

> <PUBCHEM_ATOM_UDEF_STEREO_COUNT>
1

> <PUBCHEM_BOND_DEF_STEREO_COUNT>
0

> <PUBCHEM_BOND_UDEF_STEREO_COUNT>
0

> <PUBCHEM_ISOTOPIC_ATOM_COUNT>
0

> <PUBCHEM_COMPONENT_COUNT>
1

> <PUBCHEM_CACTVS_TAUTO_COUNT>
4

> <PUBCHEM_CONFORMER_ID>
016DF63700000004

> <PUBCHEM_MMFF94_ENERGY>
129.079

> <PUBCHEM_FEATURE_SELFOVERLAP>
65.987

> <PUBCHEM_SHAPE_FINGERPRINT>
10369192 42 18337391548908229189
10625338 131 18335976506944225816
10675989 125 18121500146586017227
11007060 377 18052261980014791914
11135609 201 18261674758808872449
11135609 99 9583221843398165681
11181472 205 18186242823720155924
11297010 23 18130510735086816382
11409948 8 18188224139700734073
11411753 3 18266201494323721511
11421887 103 18190169084616867493
11578080 2 18409163273258430423
11578821 258 18412263956516229216
11621639 254 18271517715644156621
12013929 29 18125159325821082337
12120059 9 10231193646513673844
13782708 43 9727636111484722386
15347591 1 18409729543058534603
15439362 3 18338518543040799582
15448158 71 18409737274415392215
15538507 32 18411979148202031816
15604295 49 18339078301875750616
15803439 3 16845285025962861735
16126227 98 18408041789152714397
16990366 60 9223220849927384292
16992727 255 18413388735061573700
16994733 274 18187924027905903312
17899979 129 18197781007730195559
19053607 189 18268978822266598945
19302320 297 17967822634294848612
19304152 47 18263087767888483619
20691028 202 18336826511295084460
21033648 29 18042135275927454291
23516275 100 18263361379002167317
23569914 2 16591938714167236485
23569943 247 10085162100825657252
255183 451 10735867370402162226
3918712 181 18413387631772223112
393628 194 18409165511337416005
44802255 64 18202567306374167759
44880568 143 18339365274974245260
474113 269 8141790657439129777
50009960 94 8646767798769887625
563151 97 18339353158234154702
5776283 40 18272645745465193257
6201320 82 18340221695047369473
636775 72 18336546118006703385
636775 8 9007062392231204832

> <PUBCHEM_SHAPE_MULTIPOLES>
746.56
27.39
7.37
1.27
20.84
5.07
0.06
48.72
-0.9
-4.05
-0.46
-0.97
-0.4
2.2

> <PUBCHEM_SHAPE_SELFOVERLAP>
1559.641

> <PUBCHEM_SHAPE_VOLUME>
424.8

> <PUBCHEM_COORDINATE_TYPE>
2
5
10

$$$$
