11885076
  -OEChem-12032416333D

 81 84  0     1  0  0  0  0  0999 V2000
   -0.0971    3.8405   -0.2756 S   0  0  0  0  0  0  0  0  0  0  0  0
   -7.1518    0.4244   -0.7081 O   0  0  0  0  0  0  0  0  0  0  0  0
   -7.1006    2.5392    0.4187 O   0  0  0  0  0  0  0  0  0  0  0  0
    0.6836   -1.3739   -0.7916 O   0  0  0  0  0  0  0  0  0  0  0  0
    3.6621    1.1070    0.0686 O   0  0  0  0  0  0  0  0  0  0  0  0
    0.7114    1.4011    0.0206 N   0  0  0  0  0  0  0  0  0  0  0  0
    1.1084   -2.5392    1.1684 N   0  0  0  0  0  0  0  0  0  0  0  0
    2.4149    3.0953   -0.1729 N   0  0  0  0  0  0  0  0  0  0  0  0
   -2.9716    0.3793    0.5299 C   0  0  2  0  0  0  0  0  0  0  0  0
   -3.5066    1.5363   -0.4244 C   0  0  1  0  0  0  0  0  0  0  0  0
   -5.0706    1.7111   -0.5303 C   0  0  1  0  0  0  0  0  0  0  0  0
   -1.4441    0.0975    0.1546 C   0  0  1  0  0  0  0  0  0  0  0  0
   -3.7846   -0.9165    0.2750 C   0  0  0  0  0  0  0  0  0  0  0  0
   -5.7289    0.3177   -0.7375 C   0  0  1  0  0  0  0  0  0  0  0  0
   -2.7413    2.8705   -0.1848 C   0  0  0  0  0  0  0  0  0  0  0  0
   -5.2928   -0.7129    0.2981 C   0  0  0  0  0  0  0  0  0  0  0  0
   -3.0741    0.7431    2.0317 C   0  0  0  0  0  0  0  0  0  0  0  0
   -0.6711    1.3850    0.0264 C   0  0  0  0  0  0  0  0  0  0  0  0
   -5.7145    2.4526    0.6620 C   0  0  0  0  0  0  0  0  0  0  0  0
   -5.4011    2.5696   -1.7840 C   0  0  0  0  0  0  0  0  0  0  0  0
   -1.2725    2.6154   -0.1433 C   0  0  0  0  0  0  0  0  0  0  0  0
   -0.7319   -0.8953    1.0830 C   0  0  0  0  0  0  0  0  0  0  0  0
    0.4095   -1.6124    0.3876 C   0  0  0  0  0  0  0  0  0  0  0  0
    1.1234    2.6417   -0.1248 C   0  0  0  0  0  0  0  0  0  0  0  0
    2.2341   -3.3112    0.6476 C   0  0  0  0  0  0  0  0  0  0  0  0
    0.7660   -2.8043    2.5604 C   0  0  0  0  0  0  0  0  0  0  0  0
    3.5879    2.3225   -0.0760 C   0  0  0  0  0  0  0  0  0  0  0  0
    1.7867   -4.5886   -0.0023 C   0  0  0  0  0  0  0  0  0  0  0  0
    4.8313    3.1965   -0.1766 C   0  0  0  0  0  0  0  0  0  0  0  0
    6.1259    2.3926   -0.0754 C   0  0  0  0  0  0  0  0  0  0  0  0
    1.6755   -5.7547    0.7552 C   0  0  0  0  0  0  0  0  0  0  0  0
    1.4817   -4.6093   -1.3633 C   0  0  0  0  0  0  0  0  0  0  0  0
    7.3531    3.2936   -0.2182 C   0  0  0  0  0  0  0  0  0  0  0  0
    1.2597   -6.9415    0.1517 C   0  0  0  0  0  0  0  0  0  0  0  0
    1.0657   -5.7962   -1.9666 C   0  0  0  0  0  0  0  0  0  0  0  0
    0.9546   -6.9622   -1.2091 C   0  0  0  0  0  0  0  0  0  0  0  0
    8.6487    2.4941   -0.0833 C   0  0  0  0  0  0  0  0  0  0  0  0
    9.8709    3.3917   -0.1913 C   0  0  0  0  0  0  0  0  0  0  0  0
   -3.2063    1.2063   -1.4342 H   0  0  0  0  0  0  0  0  0  0  0  0
   -1.4648   -0.3253   -0.8610 H   0  0  0  0  0  0  0  0  0  0  0  0
   -3.5369   -1.6850    1.0158 H   0  0  0  0  0  0  0  0  0  0  0  0
   -3.5118   -1.3351   -0.7028 H   0  0  0  0  0  0  0  0  0  0  0  0
   -5.4621   -0.0573   -1.7346 H   0  0  0  0  0  0  0  0  0  0  0  0
   -2.9605    3.5802   -0.9896 H   0  0  0  0  0  0  0  0  0  0  0  0
   -3.0499    3.3350    0.7577 H   0  0  0  0  0  0  0  0  0  0  0  0
   -5.7873   -1.6698    0.0863 H   0  0  0  0  0  0  0  0  0  0  0  0
   -5.6417   -0.4304    1.2974 H   0  0  0  0  0  0  0  0  0  0  0  0
   -2.6725   -0.0582    2.6618 H   0  0  0  0  0  0  0  0  0  0  0  0
   -4.0999    0.8799    2.3674 H   0  0  0  0  0  0  0  0  0  0  0  0
   -2.5181    1.6504    2.2832 H   0  0  0  0  0  0  0  0  0  0  0  0
   -5.5875    1.9308    1.6071 H   0  0  0  0  0  0  0  0  0  0  0  0
   -5.3216    3.4681    0.7702 H   0  0  0  0  0  0  0  0  0  0  0  0
   -4.8984    2.1735   -2.6740 H   0  0  0  0  0  0  0  0  0  0  0  0
   -5.0844    3.6105   -1.6603 H   0  0  0  0  0  0  0  0  0  0  0  0
   -6.4734    2.5851   -2.0089 H   0  0  0  0  0  0  0  0  0  0  0  0
   -1.4289   -1.6722    1.4093 H   0  0  0  0  0  0  0  0  0  0  0  0
   -0.3416   -0.3661    1.9602 H   0  0  0  0  0  0  0  0  0  0  0  0
   -7.5174   -0.4585   -0.8876 H   0  0  0  0  0  0  0  0  0  0  0  0
   -7.4973    3.0153    1.1678 H   0  0  0  0  0  0  0  0  0  0  0  0
    2.5126    4.1004   -0.2924 H   0  0  0  0  0  0  0  0  0  0  0  0
    2.7638   -2.6964   -0.0912 H   0  0  0  0  0  0  0  0  0  0  0  0
    2.9547   -3.5067    1.4510 H   0  0  0  0  0  0  0  0  0  0  0  0
    1.6634   -2.6682    3.1725 H   0  0  0  0  0  0  0  0  0  0  0  0
   -0.0131   -2.1669    2.9743 H   0  0  0  0  0  0  0  0  0  0  0  0
    0.4293   -3.8412    2.6470 H   0  0  0  0  0  0  0  0  0  0  0  0
    4.7952    3.7283   -1.1350 H   0  0  0  0  0  0  0  0  0  0  0  0
    4.7905    3.9430    0.6257 H   0  0  0  0  0  0  0  0  0  0  0  0
    6.1448    1.6201   -0.8543 H   0  0  0  0  0  0  0  0  0  0  0  0
    6.1590    1.8700    0.8888 H   0  0  0  0  0  0  0  0  0  0  0  0
    1.9134   -5.7535    1.8155 H   0  0  0  0  0  0  0  0  0  0  0  0
    1.5678   -3.7111   -1.9683 H   0  0  0  0  0  0  0  0  0  0  0  0
    7.3239    4.0761    0.5500 H   0  0  0  0  0  0  0  0  0  0  0  0
    7.3302    3.7965   -1.1926 H   0  0  0  0  0  0  0  0  0  0  0  0
    1.1741   -7.8496    0.7412 H   0  0  0  0  0  0  0  0  0  0  0  0
    0.8293   -5.8128   -3.0266 H   0  0  0  0  0  0  0  0  0  0  0  0
    0.6312   -7.8863   -1.6791 H   0  0  0  0  0  0  0  0  0  0  0  0
    8.6949    1.7257   -0.8638 H   0  0  0  0  0  0  0  0  0  0  0  0
    8.6687    1.9767    0.8830 H   0  0  0  0  0  0  0  0  0  0  0  0
    9.8716    4.1505    0.5976 H   0  0  0  0  0  0  0  0  0  0  0  0
   10.7860    2.7993   -0.0934 H   0  0  0  0  0  0  0  0  0  0  0  0
    9.8984    3.9020   -1.1594 H   0  0  0  0  0  0  0  0  0  0  0  0
  1 21  1  0  0  0  0
  1 24  1  0  0  0  0
  2 14  1  0  0  0  0
  2 58  1  0  0  0  0
  3 19  1  0  0  0  0
  3 59  1  0  0  0  0
  4 23  2  0  0  0  0
  5 27  2  0  0  0  0
  6 18  1  0  0  0  0
  6 24  2  0  0  0  0
  7 23  1  0  0  0  0
  7 25  1  0  0  0  0
  7 26  1  0  0  0  0
  8 24  1  0  0  0  0
  8 27  1  0  0  0  0
  8 60  1  0  0  0  0
  9 10  1  0  0  0  0
  9 12  1  0  0  0  0
  9 13  1  0  0  0  0
  9 17  1  0  0  0  0
 10 11  1  0  0  0  0
 10 15  1  0  0  0  0
 10 39  1  0  0  0  0
 11 14  1  0  0  0  0
 11 19  1  0  0  0  0
 11 20  1  0  0  0  0
 12 18  1  0  0  0  0
 12 22  1  0  0  0  0
 12 40  1  0  0  0  0
 13 16  1  0  0  0  0
 13 41  1  0  0  0  0
 13 42  1  0  0  0  0
 14 16  1  0  0  0  0
 14 43  1  0  0  0  0
 15 21  1  0  0  0  0
 15 44  1  0  0  0  0
 15 45  1  0  0  0  0
 16 46  1  0  0  0  0
 16 47  1  0  0  0  0
 17 48  1  0  0  0  0
 17 49  1  0  0  0  0
 17 50  1  0  0  0  0
 18 21  2  0  0  0  0
 19 51  1  0  0  0  0
 19 52  1  0  0  0  0
 20 53  1  0  0  0  0
 20 54  1  0  0  0  0
 20 55  1  0  0  0  0
 22 23  1  0  0  0  0
 22 56  1  0  0  0  0
 22 57  1  0  0  0  0
 25 28  1  0  0  0  0
 25 61  1  0  0  0  0
 25 62  1  0  0  0  0
 26 63  1  0  0  0  0
 26 64  1  0  0  0  0
 26 65  1  0  0  0  0
 27 29  1  0  0  0  0
 28 31  2  0  0  0  0
 28 32  1  0  0  0  0
 29 30  1  0  0  0  0
 29 66  1  0  0  0  0
 29 67  1  0  0  0  0
 30 33  1  0  0  0  0
 30 68  1  0  0  0  0
 30 69  1  0  0  0  0
 31 34  1  0  0  0  0
 31 70  1  0  0  0  0
 32 35  2  0  0  0  0
 32 71  1  0  0  0  0
 33 37  1  0  0  0  0
 33 72  1  0  0  0  0
 33 73  1  0  0  0  0
 34 36  2  0  0  0  0
 34 74  1  0  0  0  0
 35 36  1  0  0  0  0
 35 75  1  0  0  0  0
 36 76  1  0  0  0  0
 37 38  1  0  0  0  0
 37 77  1  0  0  0  0
 37 78  1  0  0  0  0
 38 79  1  0  0  0  0
 38 80  1  0  0  0  0
 38 81  1  0  0  0  0
M  END
> <PUBCHEM_COMPOUND_CID>
11885076

> <PUBCHEM_CONFORMER_RMSD>
1.2

> <PUBCHEM_CONFORMER_DIVERSEORDER>
1
32
76
11
46
64
36
48
21
37
53
12
62
52
17
73
33
71
34
67
27
20
13
39
69
35
25
7
55
42
77
8
65
70
66
10
68
59
75
24
51
18
15
63
78
9
14
56
2
45
54
58
57
50
40
5
43
3
22
4
38
6
44
16
23
49
28
31
29
61
41
26
72
60
74
30
47
19

> <PUBCHEM_MMFF94_PARTIAL_CHARGES>
35
1 -0.08
12 0.18
14 0.28
15 0.18
18 0.05
19 0.28
2 -0.68
21 -0.14
22 0.06
23 0.57
24 0.44
25 0.44
26 0.3
27 0.57
28 -0.14
29 0.06
3 -0.68
31 -0.15
32 -0.15
34 -0.15
35 -0.15
36 -0.15
4 -0.57
5 -0.57
58 0.4
59 0.4
6 -0.57
60 0.37
7 -0.66
70 0.15
71 0.15
74 0.15
75 0.15
76 0.15
8 -0.49

> <PUBCHEM_EFFECTIVE_ROTOR_COUNT>
13.2

> <PUBCHEM_PHARMACOPHORE_FEATURES>
13
1 2 acceptor
1 2 donor
1 3 acceptor
1 3 donor
1 38 hydrophobe
1 4 acceptor
1 5 acceptor
1 8 donor
4 29 30 33 37 hydrophobe
5 1 6 18 21 24 rings
6 28 31 32 34 35 36 rings
6 9 10 11 13 14 16 rings
6 9 10 12 15 18 21 rings

> <PUBCHEM_HEAVY_ATOM_COUNT>
38

> <PUBCHEM_ATOM_DEF_STEREO_COUNT>
5

> <PUBCHEM_ATOM_UDEF_STEREO_COUNT>
0

> <PUBCHEM_BOND_DEF_STEREO_COUNT>
0

> <PUBCHEM_BOND_UDEF_STEREO_COUNT>
0

> <PUBCHEM_ISOTOPIC_ATOM_COUNT>
0

> <PUBCHEM_COMPONENT_COUNT>
1

> <PUBCHEM_CACTVS_TAUTO_COUNT>
3

> <PUBCHEM_CONFORMER_ID>
00B55A1400000001

> <PUBCHEM_MMFF94_ENERGY>
106.898

> <PUBCHEM_FEATURE_SELFOVERLAP>
66.116

> <PUBCHEM_SHAPE_FINGERPRINT>
102385 1 17977382733506631572
10940486 97 17828489399083489332
11135926 11 18408600358060431765
11297010 23 18335685127704333333
11524674 6 18337109085540777680
11578080 2 16951945290578166637
11763715 3 17329730720738887342
11991303 11 18118969328801310100
12788726 201 17034163291137424627
13757389 114 18122625217732658450
14347332 77 17256527418864130131
15274700 232 18121507023282617958
15439362 3 18337108956612637529
15684970 41 17688323282631791683
15890870 6 18409728504203326612
19311894 1 17331672961001484855
21133665 82 18261674870430835080
23559900 14 18049433743859789251
24771750 20 18188789300158695900
25019877 29 18333731342696653940
3383291 50 18267588082023816152
4017518 198 18411140281733677020
4461854 278 18122077652373736579
5085150 59 18336536222750122584
5265222 85 18117001181091722404
57527295 17 18059845148687479957
6371380 46 18340484595018434632
6669772 16 18342463647011741718
6691757 9 18199200658116000200

> <PUBCHEM_SHAPE_MULTIPOLES>
747.45
17.47
10.51
1.36
25.6
26.95
-0.28
-32.47
2.5
12.39
3.06
-0.76
1.47
0.27

> <PUBCHEM_SHAPE_SELFOVERLAP>
1551.305

> <PUBCHEM_SHAPE_VOLUME>
429

> <PUBCHEM_COORDINATE_TYPE>
2
5
10

$$$$
