75537023
  -OEChem-12032416313D

 51 54  0     1  0  0  0  0  0999 V2000
    3.4479   -2.5966    0.0970 O   0  0  0  0  0  0  0  0  0  0  0  0
   -3.4452   -2.1011    0.1837 O   0  0  0  0  0  0  0  0  0  0  0  0
    3.1057   -0.2637    0.1278 N   0  0  0  0  0  0  0  0  0  0  0  0
    1.3166   -1.6184    0.2461 N   0  0  0  0  0  0  0  0  0  0  0  0
   -1.3745   -1.2056   -0.3132 N   0  0  0  0  0  0  0  0  0  0  0  0
   -3.1570    0.1961    0.3318 N   0  0  0  0  0  0  0  0  0  0  0  0
    0.7748   -0.2789    0.4095 C   0  0  1  0  0  0  0  0  0  0  0  0
    4.4578    0.2214   -0.0082 C   0  0  0  0  0  0  0  0  0  0  0  0
    1.9620    0.6314    0.1071 C   0  0  0  0  0  0  0  0  0  0  0  0
    4.6094    1.0534   -1.2843 C   0  0  0  0  0  0  0  0  0  0  0  0
    4.8676    1.0217    1.2305 C   0  0  0  0  0  0  0  0  0  0  0  0
   -0.4293   -0.0866   -0.5064 C   0  0  0  0  0  0  0  0  0  0  0  0
    2.7155   -1.6175    0.1539 C   0  0  0  0  0  0  0  0  0  0  0  0
    0.4315   -2.7700    0.2949 C   0  0  0  0  0  0  0  0  0  0  0  0
    6.0194    1.6222   -1.4204 C   0  0  0  0  0  0  0  0  0  0  0  0
    6.2768    1.5920    1.0911 C   0  0  0  0  0  0  0  0  0  0  0  0
    6.4266    2.4178   -0.1834 C   0  0  0  0  0  0  0  0  0  0  0  0
   -0.7933   -2.5298   -0.5880 C   0  0  0  0  0  0  0  0  0  0  0  0
   -2.7274   -1.1042    0.0704 C   0  0  0  0  0  0  0  0  0  0  0  0
   -4.4625    0.7202    0.1610 C   0  0  0  0  0  0  0  0  0  0  0  0
   -4.7246    2.0542    0.4728 C   0  0  0  0  0  0  0  0  0  0  0  0
   -5.4853   -0.0980   -0.3183 C   0  0  0  0  0  0  0  0  0  0  0  0
   -6.0097    2.5702    0.3051 C   0  0  0  0  0  0  0  0  0  0  0  0
   -6.7703    0.4178   -0.4861 C   0  0  0  0  0  0  0  0  0  0  0  0
   -7.0326    1.7519   -0.1744 C   0  0  0  0  0  0  0  0  0  0  0  0
    0.4762   -0.1850    1.4614 H   0  0  0  0  0  0  0  0  0  0  0  0
    5.1197   -0.6509   -0.0848 H   0  0  0  0  0  0  0  0  0  0  0  0
    1.8775    1.0814   -0.8867 H   0  0  0  0  0  0  0  0  0  0  0  0
    2.0612    1.4187    0.8585 H   0  0  0  0  0  0  0  0  0  0  0  0
    3.9061    1.8951   -1.2883 H   0  0  0  0  0  0  0  0  0  0  0  0
    4.3720    0.4423   -2.1635 H   0  0  0  0  0  0  0  0  0  0  0  0
    4.1747    1.8538    1.4036 H   0  0  0  0  0  0  0  0  0  0  0  0
    4.8160    0.3852    2.1224 H   0  0  0  0  0  0  0  0  0  0  0  0
   -0.8813    0.8926   -0.3467 H   0  0  0  0  0  0  0  0  0  0  0  0
   -0.1252   -0.1225   -1.5605 H   0  0  0  0  0  0  0  0  0  0  0  0
    0.1282   -2.8927    1.3408 H   0  0  0  0  0  0  0  0  0  0  0  0
    0.9745   -3.6692   -0.0114 H   0  0  0  0  0  0  0  0  0  0  0  0
    6.0746    2.2645   -2.3065 H   0  0  0  0  0  0  0  0  0  0  0  0
    6.7300    0.8011   -1.5765 H   0  0  0  0  0  0  0  0  0  0  0  0
    7.0029    0.7698    1.0804 H   0  0  0  0  0  0  0  0  0  0  0  0
    6.5114    2.2132    1.9628 H   0  0  0  0  0  0  0  0  0  0  0  0
    7.4649    2.7529   -0.2858 H   0  0  0  0  0  0  0  0  0  0  0  0
    5.8056    3.3190   -0.1089 H   0  0  0  0  0  0  0  0  0  0  0  0
   -0.5074   -2.5393   -1.6466 H   0  0  0  0  0  0  0  0  0  0  0  0
   -1.5254   -3.3283   -0.4359 H   0  0  0  0  0  0  0  0  0  0  0  0
   -2.4725    0.8678    0.6621 H   0  0  0  0  0  0  0  0  0  0  0  0
   -3.9365    2.7026    0.8471 H   0  0  0  0  0  0  0  0  0  0  0  0
   -5.3382   -1.1326   -0.6025 H   0  0  0  0  0  0  0  0  0  0  0  0
   -6.2139    3.6090    0.5474 H   0  0  0  0  0  0  0  0  0  0  0  0
   -7.5661   -0.2168   -0.8652 H   0  0  0  0  0  0  0  0  0  0  0  0
   -8.0328    2.1540   -0.3064 H   0  0  0  0  0  0  0  0  0  0  0  0
  1 13  2  0  0  0  0
  2 19  2  0  0  0  0
  3  8  1  0  0  0  0
  3  9  1  0  0  0  0
  3 13  1  0  0  0  0
  4  7  1  0  0  0  0
  4 13  1  0  0  0  0
  4 14  1  0  0  0  0
  5 12  1  0  0  0  0
  5 18  1  0  0  0  0
  5 19  1  0  0  0  0
  6 19  1  0  0  0  0
  6 20  1  0  0  0  0
  6 46  1  0  0  0  0
  7  9  1  0  0  0  0
  7 12  1  0  0  0  0
  7 26  1  0  0  0  0
  8 10  1  0  0  0  0
  8 11  1  0  0  0  0
  8 27  1  0  0  0  0
  9 28  1  0  0  0  0
  9 29  1  0  0  0  0
 10 15  1  0  0  0  0
 10 30  1  0  0  0  0
 10 31  1  0  0  0  0
 11 16  1  0  0  0  0
 11 32  1  0  0  0  0
 11 33  1  0  0  0  0
 12 34  1  0  0  0  0
 12 35  1  0  0  0  0
 14 18  1  0  0  0  0
 14 36  1  0  0  0  0
 14 37  1  0  0  0  0
 15 17  1  0  0  0  0
 15 38  1  0  0  0  0
 15 39  1  0  0  0  0
 16 17  1  0  0  0  0
 16 40  1  0  0  0  0
 16 41  1  0  0  0  0
 17 42  1  0  0  0  0
 17 43  1  0  0  0  0
 18 44  1  0  0  0  0
 18 45  1  0  0  0  0
 20 21  2  0  0  0  0
 20 22  1  0  0  0  0
 21 23  1  0  0  0  0
 21 47  1  0  0  0  0
 22 24  2  0  0  0  0
 22 48  1  0  0  0  0
 23 25  2  0  0  0  0
 23 49  1  0  0  0  0
 24 25  1  0  0  0  0
 24 50  1  0  0  0  0
 25 51  1  0  0  0  0
M  END
> <PUBCHEM_COMPOUND_CID>
75537023

> <PUBCHEM_CONFORMER_RMSD>
0.8

> <PUBCHEM_CONFORMER_DIVERSEORDER>
1
8
36
33
60
41
59
83
51
58
69
89
16
67
27
44
46
25
50
84
30
91
79
54
45
73
20
49
53
34
65
86
77
63
15
62
24
70
19
68
75
61
40
37
38
87
88
76
39
12
66
18
55
81
6
93
21
56
5
74
7
85
90
3
72
29
78
10
9
14
57
71
32
2
4
17
52
35
47
31
82
80
22
43
42
23
11
48
26
64
28
92
13

> <PUBCHEM_MMFF94_PARTIAL_CHARGES>
26
1 -0.57
12 0.3
13 0.69
14 0.3
18 0.3
19 0.69
2 -0.57
20 0.12
21 -0.15
22 -0.15
23 -0.15
24 -0.15
25 -0.15
3 -0.66
4 -0.66
46 0.37
47 0.15
48 0.15
49 0.15
5 -0.66
50 0.15
51 0.15
6 -0.55
7 0.3
8 0.3
9 0.3

> <PUBCHEM_EFFECTIVE_ROTOR_COUNT>
6.4

> <PUBCHEM_PHARMACOPHORE_FEATURES>
7
1 1 acceptor
1 2 acceptor
1 6 donor
5 3 4 7 9 13 rings
6 20 21 22 23 24 25 rings
6 4 5 7 12 14 18 rings
6 8 10 11 15 16 17 rings

> <PUBCHEM_HEAVY_ATOM_COUNT>
25

> <PUBCHEM_ATOM_DEF_STEREO_COUNT>
1

> <PUBCHEM_ATOM_UDEF_STEREO_COUNT>
0

> <PUBCHEM_BOND_DEF_STEREO_COUNT>
0

> <PUBCHEM_BOND_UDEF_STEREO_COUNT>
0

> <PUBCHEM_ISOTOPIC_ATOM_COUNT>
0

> <PUBCHEM_COMPONENT_COUNT>
1

> <PUBCHEM_CACTVS_TAUTO_COUNT>
2

> <PUBCHEM_CONFORMER_ID>
04809A7F00000001

> <PUBCHEM_MMFF94_ENERGY>
59.7288

> <PUBCHEM_FEATURE_SELFOVERLAP>
35.62

> <PUBCHEM_SHAPE_FINGERPRINT>
10 15 17967536787562922793
10050765 1 18411136948043671686
10411042 1 17618221707259739378
10554248 39 18267006293900671383
10595046 47 18342171121548316959
10906281 52 17822582702290432652
11991303 11 16200142240316598845
12293681 160 17917715707815647394
12342043 65 13191158161259473168
12390115 104 18342187686314200147
12422481 6 17385718089206295828
12596602 18 17530685407562967145
13540713 5 18339059567407909190
13685833 64 9223232948918835196
13782708 43 11672060831149164577
14123256 34 9223229671911867157
14257110 125 18410855464697435709
14347332 77 10447937156671615515
14394314 77 18341901745348001337
14528608 73 18343581811682379711
14790565 3 18411420596235780548
14931854 50 17917993850088088145
15183329 4 16128664041281701964
15348495 7 14129351727155748093
15475509 35 15937244470619696882
1577012 14 18343579613033839413
17980427 23 17676772079642363239
18222031 100 9655582920220646494
18608769 82 18339926043279796803
19427546 20 18269551801391136599
20058555 10 18337952294995502653
20281389 69 18334855008893194121
20554085 129 17845639435671967186
20715895 44 18410576227931981936
21033648 144 18261664909990134999
21150785 3 12463569608463689264
21298829 104 18411140212693271477
21421861 104 17895460433414028914
21424621 283 18410571825178579400
21585482 111 18189334580702031861
23559900 14 17913769419193269655
23569914 152 17054730824001874860
249057 25 17630889304981103355
25147074 1 18337653291835237782
270888 7 18410292518764681568
2748736 6 18408879642123441997
2838139 119 18272362083642596985
293599 30 18412828001337157134
312425 54 15430037677276712513
335352 9 18339643322340830446
3411729 13 18335700507591679890
3472631 163 18341335586747086908
34797466 226 17060339651694954461
351380 3 9871751286607182421
3918712 181 18341886398580481384
4073 2 18187088364704014267
44249763 50 17559941277110236376
5104073 3 18186518795710124411
54583773 228 18341325619178181709
5758199 1 18413392025633958225
59682541 52 17060066917504056612
6327066 14 18411416203106826669
6328613 192 18410577279692391861
636775 72 18197212762415278536
6712543 237 15068340124891146489
7808743 9 18410570716718398779

> <PUBCHEM_SHAPE_MULTIPOLES>
482.83
19.36
3.03
0.95
8.28
0.99
-0.09
-18.19
-0.89
-0.09
0.09
-1.29
-0.33
-0.64

> <PUBCHEM_SHAPE_SELFOVERLAP>
1022.008

> <PUBCHEM_SHAPE_VOLUME>
267.3

> <PUBCHEM_COORDINATE_TYPE>
2
5
10

$$$$
