51137064
  -OEChem-12032416243D

 42 45  0     1  0  0  0  0  0999 V2000
    3.0620   -1.1851    0.6229 O   0  0  0  0  0  0  0  0  0  0  0  0
   -1.4980   -0.1284   -0.0128 N   0  0  1  0  0  0  0  0  0  0  0  0
    2.6354    0.8856   -0.1940 N   0  0  0  0  0  0  0  0  0  0  0  0
    0.7101   -0.5458    0.6578 C   0  0  2  0  0  0  0  0  0  0  0  0
   -0.2031   -0.5179   -0.5752 C   0  0  0  0  0  0  0  0  0  0  0  0
    0.0391    0.4084    1.6611 C   0  0  0  0  0  0  0  0  0  0  0  0
   -1.1903    0.9412    0.9366 C   0  0  0  0  0  0  0  0  0  0  0  0
   -2.4433    0.2936   -1.0358 C   0  0  0  0  0  0  0  0  0  0  0  0
    2.1488   -0.2165    0.3330 C   0  0  0  0  0  0  0  0  0  0  0  0
   -3.8621    0.2696   -0.5323 C   0  0  0  0  0  0  0  0  0  0  0  0
   -4.5549   -0.9331   -0.3957 C   0  0  0  0  0  0  0  0  0  0  0  0
    4.2493   -0.6322    0.2366 C   0  0  0  0  0  0  0  0  0  0  0  0
    3.9843    0.6346   -0.2627 C   0  0  0  0  0  0  0  0  0  0  0  0
   -4.4831    1.4737   -0.2006 C   0  0  0  0  0  0  0  0  0  0  0  0
   -5.8687   -0.9319    0.0728 C   0  0  0  0  0  0  0  0  0  0  0  0
   -3.9111   -2.2348   -0.7445 C   0  0  0  0  0  0  0  0  0  0  0  0
    5.5132   -1.2042    0.3140 C   0  0  0  0  0  0  0  0  0  0  0  0
    5.0510    1.4157   -0.7297 C   0  0  0  0  0  0  0  0  0  0  0  0
   -5.7970    1.4752    0.2679 C   0  0  0  0  0  0  0  0  0  0  0  0
   -6.4898    0.2723    0.4046 C   0  0  0  0  0  0  0  0  0  0  0  0
    6.5661   -0.4121   -0.1563 C   0  0  0  0  0  0  0  0  0  0  0  0
    6.3423    0.8721   -0.6680 C   0  0  0  0  0  0  0  0  0  0  0  0
    0.6808   -1.5557    1.0912 H   0  0  0  0  0  0  0  0  0  0  0  0
    0.1481    0.2128   -1.3160 H   0  0  0  0  0  0  0  0  0  0  0  0
   -0.2494   -1.5004   -1.0576 H   0  0  0  0  0  0  0  0  0  0  0  0
    0.6926    1.2235    1.9896 H   0  0  0  0  0  0  0  0  0  0  0  0
   -0.2638   -0.1554    2.5524 H   0  0  0  0  0  0  0  0  0  0  0  0
   -2.0080    1.1296    1.6393 H   0  0  0  0  0  0  0  0  0  0  0  0
   -0.9389    1.8816    0.4294 H   0  0  0  0  0  0  0  0  0  0  0  0
   -2.3827   -0.3669   -1.9106 H   0  0  0  0  0  0  0  0  0  0  0  0
   -2.1911    1.2871   -1.4327 H   0  0  0  0  0  0  0  0  0  0  0  0
   -3.9558    2.4188   -0.3000 H   0  0  0  0  0  0  0  0  0  0  0  0
   -6.4232   -1.8597    0.1856 H   0  0  0  0  0  0  0  0  0  0  0  0
   -3.6188   -2.2577   -1.7990 H   0  0  0  0  0  0  0  0  0  0  0  0
   -3.0378   -2.4243   -0.1134 H   0  0  0  0  0  0  0  0  0  0  0  0
   -4.5985   -3.0746   -0.5911 H   0  0  0  0  0  0  0  0  0  0  0  0
    5.6756   -2.1982    0.7115 H   0  0  0  0  0  0  0  0  0  0  0  0
    4.8892    2.4117   -1.1283 H   0  0  0  0  0  0  0  0  0  0  0  0
   -6.2804    2.4127    0.5267 H   0  0  0  0  0  0  0  0  0  0  0  0
   -7.5127    0.2734    0.7696 H   0  0  0  0  0  0  0  0  0  0  0  0
    7.5806   -0.8023   -0.1233 H   0  0  0  0  0  0  0  0  0  0  0  0
    7.1850    1.4593   -1.0245 H   0  0  0  0  0  0  0  0  0  0  0  0
  1  9  1  0  0  0  0
  1 12  1  0  0  0  0
  2  5  1  0  0  0  0
  2  7  1  0  0  0  0
  2  8  1  0  0  0  0
  3  9  2  0  0  0  0
  3 13  1  0  0  0  0
  4  5  1  0  0  0  0
  4  6  1  0  0  0  0
  4  9  1  0  0  0  0
  4 23  1  0  0  0  0
  5 24  1  0  0  0  0
  5 25  1  0  0  0  0
  6  7  1  0  0  0  0
  6 26  1  0  0  0  0
  6 27  1  0  0  0  0
  7 28  1  0  0  0  0
  7 29  1  0  0  0  0
  8 10  1  0  0  0  0
  8 30  1  0  0  0  0
  8 31  1  0  0  0  0
 10 11  1  0  0  0  0
 10 14  2  0  0  0  0
 11 15  2  0  0  0  0
 11 16  1  0  0  0  0
 12 13  1  0  0  0  0
 12 17  2  0  0  0  0
 13 18  2  0  0  0  0
 14 19  1  0  0  0  0
 14 32  1  0  0  0  0
 15 20  1  0  0  0  0
 15 33  1  0  0  0  0
 16 34  1  0  0  0  0
 16 35  1  0  0  0  0
 16 36  1  0  0  0  0
 17 21  1  0  0  0  0
 17 37  1  0  0  0  0
 18 22  1  0  0  0  0
 18 38  1  0  0  0  0
 19 20  2  0  0  0  0
 19 39  1  0  0  0  0
 20 40  1  0  0  0  0
 21 22  2  0  0  0  0
 21 41  1  0  0  0  0
 22 42  1  0  0  0  0
M  END
> <PUBCHEM_COMPOUND_CID>
51137064

> <PUBCHEM_CONFORMER_RMSD>
0.6

> <PUBCHEM_CONFORMER_DIVERSEORDER>
1
30
127
134
49
129
114
39
141
140
125
91
37
107
68
149
86
103
142
63
64
46
72
45
135
60
89
84
126
59
74
146
121
120
20
123
110
10
122
131
58
116
130
118
139
148
35
22
143
62
80
138
70
93
136
105
19
94
144
67
112
65
98
75
26
100
133
90
147
96
132
69
7
42
81
33
128
52
44
145
5
47
32
88
106
13
28
6
57
76
2
117
111
15
78
104
27
95
21
43
56
99
16
71
24
101
36
85
77
48
51
113
108
53
102
137
29
12
109
41
38
87
23
25
18
115
92
54
119
31
40
66
61
4
11
79
50
14
34
73
3
9
82
97
124
8
17
83
55

> <PUBCHEM_MMFF94_PARTIAL_CHARGES>
29
1 -0.28
10 -0.14
11 -0.14
12 0.14
13 0.23
14 -0.15
15 -0.15
16 0.14
17 -0.15
18 -0.15
19 -0.15
2 -0.81
20 -0.15
21 -0.15
22 -0.15
3 -0.57
32 0.15
33 0.15
37 0.15
38 0.15
39 0.15
4 0.18
40 0.15
41 0.15
42 0.15
5 0.27
7 0.27
8 0.41
9 0.3

> <PUBCHEM_EFFECTIVE_ROTOR_COUNT>
4

> <PUBCHEM_PHARMACOPHORE_FEATURES>
5
1 2 cation
5 1 3 9 12 13 rings
5 2 4 5 6 7 rings
6 10 11 14 15 19 20 rings
6 12 13 17 18 21 22 rings

> <PUBCHEM_HEAVY_ATOM_COUNT>
22

> <PUBCHEM_ATOM_DEF_STEREO_COUNT>
1

> <PUBCHEM_ATOM_UDEF_STEREO_COUNT>
0

> <PUBCHEM_BOND_DEF_STEREO_COUNT>
0

> <PUBCHEM_BOND_UDEF_STEREO_COUNT>
0

> <PUBCHEM_ISOTOPIC_ATOM_COUNT>
0

> <PUBCHEM_COMPONENT_COUNT>
1

> <PUBCHEM_CACTVS_TAUTO_COUNT>
1

> <PUBCHEM_CONFORMER_ID>
030C4A2800000001

> <PUBCHEM_MMFF94_ENERGY>
48.5644

> <PUBCHEM_FEATURE_SELFOVERLAP>
25.492

> <PUBCHEM_SHAPE_FINGERPRINT>
10299344 5 18411139147604113955
10595046 47 18335137591881380552
11315181 36 16702302369370655787
11524674 6 16630525155051002895
11646440 116 15864076459514933156
11796584 16 17989488528542791710
12107183 9 17615401459389960825
12166972 35 18113903766889468404
12236239 1 18411699881090393604
12516196 113 12607401091794273714
12730499 353 17240485784647969218
12788726 201 17488745567060395123
12916748 109 16081085961761883996
13167372 99 18334576794092164196
13533116 47 16370996361811226368
1420 363 16515406257151498923
14251752 14 18273495654371618856
14294032 229 17415582929261277200
14849402 71 18041570259578208956
14856354 85 18272938249970056711
14933364 13 18408605859359078108
15048467 5 18409167697417110093
15183329 4 18409445877631418470
15250474 111 18336808858415658051
15537594 2 16845570907053622070
17093844 174 16845565427150111747
17834072 33 18407758149232411454
17844677 252 18271810146223102409
19489759 90 9007060171432295823
200 152 18411418414698355954
21150785 3 18410863170681102972
220451 1 18410573980972892226
221357 26 18113334202744225636
22224240 67 15936131863673337001
23035841 295 18342738516107236883
23081809 10 18411130342335607839
23198884 109 18187366528075770897
23402539 116 18412259536492721165
23522609 53 18266484090265550405
23536379 177 18409166593098597696
23559900 14 17988634233329102472
23569943 247 16879617177655790154
23622692 88 12685098094230396082
29717793 49 18202007608242946478
3004659 81 18413108343043927318
314173 85 15410896262173691256
3545911 37 15791732996969965218
4073 2 17895199951915798434
4325135 7 18260830406028014669
4463277 17 17989486333407938120
5265222 85 18200314453939728863
5385378 56 16773250496231777767
542803 24 18407757036477153118
59682541 35 14779558906620521217
59755656 215 16630252424548176054
59755656 520 17094961056513599995
7495541 125 18201716305437037792
9996256 80 18186800270696870636
999808 66 18114191878065281947

> <PUBCHEM_SHAPE_MULTIPOLES>
436.92
18.53
1.54
1
4.19
0.24
-0.16
-0.9
2.06
-0.99
0.17
0
-0.08
-1.08

> <PUBCHEM_SHAPE_SELFOVERLAP>
958.386

> <PUBCHEM_SHAPE_VOLUME>
238.6

> <PUBCHEM_COORDINATE_TYPE>
2
5
10

$$$$
