45361025
  -OEChem-12032416283D

 56 58  0     1  0  0  0  0  0999 V2000
   -6.6249    0.0633    0.0041 S   0  0  0  0  0  0  0  0  0  0  0  0
    2.4618   -0.4836    2.0345 O   0  0  0  0  0  0  0  0  0  0  0  0
   -3.2456    2.1433    0.0163 O   0  0  0  0  0  0  0  0  0  0  0  0
    4.1381   -1.0451   -0.0069 N   0  0  1  0  0  0  0  0  0  0  0  0
    1.1800    0.5313   -1.4750 N   0  0  1  0  0  0  0  0  0  0  0  0
    1.7591    1.5168    1.1739 N   0  0  0  0  0  0  0  0  0  0  0  0
   -3.0399    0.1730    1.2264 N   0  0  0  0  0  0  0  0  0  0  0  0
    2.6117    0.1575   -1.4613 C   0  0  1  0  0  0  0  0  0  0  0  0
    3.3801    0.2161   -0.1083 C   0  0  1  0  0  0  0  0  0  0  0  0
    2.8852   -1.2859   -1.9231 C   0  0  0  0  0  0  0  0  0  0  0  0
    4.2580   -1.5827   -1.3575 C   0  0  0  0  0  0  0  0  0  0  0  0
    0.9101    1.9506   -1.1122 C   0  0  2  0  0  0  0  0  0  0  0  0
    5.4354   -0.8889    0.6383 C   0  0  0  0  0  0  0  0  0  0  0  0
    2.4979    0.3497    1.1302 C   0  0  0  0  0  0  0  0  0  0  0  0
    1.7178    2.4781    0.0898 C   0  0  0  0  0  0  0  0  0  0  0  0
   -0.5858    2.1499   -0.7895 C   0  0  0  0  0  0  0  0  0  0  0  0
    0.5679    0.2121   -2.7759 C   0  0  0  0  0  0  0  0  0  0  0  0
    6.1525   -2.2336    0.7173 C   0  0  0  0  0  0  0  0  0  0  0  0
    5.2429   -0.2880    2.0271 C   0  0  0  0  0  0  0  0  0  0  0  0
   -1.0991    1.0259    0.0913 C   0  0  0  0  0  0  0  0  0  0  0  0
   -2.5707    1.2006    0.4212 C   0  0  0  0  0  0  0  0  0  0  0  0
   -4.4094    0.1124    1.6791 C   0  0  0  0  0  0  0  0  0  0  0  0
   -5.2749   -0.6844    0.7460 C   0  0  0  0  0  0  0  0  0  0  0  0
   -5.1441   -2.0037    0.3717 C   0  0  0  0  0  0  0  0  0  0  0  0
   -6.1658   -2.4059   -0.5363 C   0  0  0  0  0  0  0  0  0  0  0  0
   -7.0384   -1.3788   -0.8214 C   0  0  0  0  0  0  0  0  0  0  0  0
    3.1453    0.8156   -2.1648 H   0  0  0  0  0  0  0  0  0  0  0  0
    4.0662    1.0727   -0.1470 H   0  0  0  0  0  0  0  0  0  0  0  0
    2.1461   -1.9811   -1.5027 H   0  0  0  0  0  0  0  0  0  0  0  0
    2.8749   -1.3858   -3.0134 H   0  0  0  0  0  0  0  0  0  0  0  0
    5.0295   -1.0696   -1.9455 H   0  0  0  0  0  0  0  0  0  0  0  0
    4.4485   -2.6601   -1.3723 H   0  0  0  0  0  0  0  0  0  0  0  0
    1.1592    2.6030   -1.9607 H   0  0  0  0  0  0  0  0  0  0  0  0
    6.0711   -0.2024    0.0623 H   0  0  0  0  0  0  0  0  0  0  0  0
    1.2886    3.4026    0.4919 H   0  0  0  0  0  0  0  0  0  0  0  0
    2.7403    2.7255   -0.2126 H   0  0  0  0  0  0  0  0  0  0  0  0
   -0.7566    3.1224   -0.3103 H   0  0  0  0  0  0  0  0  0  0  0  0
   -1.1688    2.1856   -1.7182 H   0  0  0  0  0  0  0  0  0  0  0  0
    1.1978    1.6965    2.0007 H   0  0  0  0  0  0  0  0  0  0  0  0
   -0.4974    0.4578   -2.8072 H   0  0  0  0  0  0  0  0  0  0  0  0
    0.6063   -0.8618   -2.9841 H   0  0  0  0  0  0  0  0  0  0  0  0
    1.0624    0.7449   -3.5961 H   0  0  0  0  0  0  0  0  0  0  0  0
    7.0706   -2.1432    1.3091 H   0  0  0  0  0  0  0  0  0  0  0  0
    6.4519   -2.6029   -0.2689 H   0  0  0  0  0  0  0  0  0  0  0  0
    5.5279   -2.9962    1.1967 H   0  0  0  0  0  0  0  0  0  0  0  0
    4.6612   -0.9388    2.6869 H   0  0  0  0  0  0  0  0  0  0  0  0
    4.8381    0.7271    2.0249 H   0  0  0  0  0  0  0  0  0  0  0  0
    6.2257   -0.1936    2.5082 H   0  0  0  0  0  0  0  0  0  0  0  0
   -1.0075    0.0459   -0.3892 H   0  0  0  0  0  0  0  0  0  0  0  0
   -0.5858    0.9826    1.0527 H   0  0  0  0  0  0  0  0  0  0  0  0
   -2.4109   -0.5767    1.5000 H   0  0  0  0  0  0  0  0  0  0  0  0
   -4.4006   -0.3701    2.6630 H   0  0  0  0  0  0  0  0  0  0  0  0
   -4.7864    1.1321    1.8165 H   0  0  0  0  0  0  0  0  0  0  0  0
   -4.3557   -2.6533    0.7300 H   0  0  0  0  0  0  0  0  0  0  0  0
   -6.2562   -3.3981   -0.9588 H   0  0  0  0  0  0  0  0  0  0  0  0
   -7.8990   -1.4064   -1.4748 H   0  0  0  0  0  0  0  0  0  0  0  0
  1 23  1  0  0  0  0
  1 26  1  0  0  0  0
  2 14  2  0  0  0  0
  3 21  2  0  0  0  0
  4  9  1  0  0  0  0
  4 11  1  0  0  0  0
  4 13  1  0  0  0  0
  5  8  1  0  0  0  0
  5 12  1  0  0  0  0
  5 17  1  0  0  0  0
  6 14  1  0  0  0  0
  6 15  1  0  0  0  0
  6 39  1  0  0  0  0
  7 21  1  0  0  0  0
  7 22  1  0  0  0  0
  7 51  1  0  0  0  0
  8  9  1  0  0  0  0
  8 10  1  0  0  0  0
  8 27  1  0  0  0  0
  9 14  1  0  0  0  0
  9 28  1  0  0  0  0
 10 11  1  0  0  0  0
 10 29  1  0  0  0  0
 10 30  1  0  0  0  0
 11 31  1  0  0  0  0
 11 32  1  0  0  0  0
 12 15  1  0  0  0  0
 12 16  1  0  0  0  0
 12 33  1  0  0  0  0
 13 18  1  0  0  0  0
 13 19  1  0  0  0  0
 13 34  1  0  0  0  0
 15 35  1  0  0  0  0
 15 36  1  0  0  0  0
 16 20  1  0  0  0  0
 16 37  1  0  0  0  0
 16 38  1  0  0  0  0
 17 40  1  0  0  0  0
 17 41  1  0  0  0  0
 17 42  1  0  0  0  0
 18 43  1  0  0  0  0
 18 44  1  0  0  0  0
 18 45  1  0  0  0  0
 19 46  1  0  0  0  0
 19 47  1  0  0  0  0
 19 48  1  0  0  0  0
 20 21  1  0  0  0  0
 20 49  1  0  0  0  0
 20 50  1  0  0  0  0
 22 23  1  0  0  0  0
 22 52  1  0  0  0  0
 22 53  1  0  0  0  0
 23 24  2  0  0  0  0
 24 25  1  0  0  0  0
 24 54  1  0  0  0  0
 25 26  2  0  0  0  0
 25 55  1  0  0  0  0
 26 56  1  0  0  0  0
M  END
> <PUBCHEM_COMPOUND_CID>
45361025

> <PUBCHEM_CONFORMER_RMSD>
1.2

> <PUBCHEM_CONFORMER_DIVERSEORDER>
1
73
55
39
45
57
64
28
38
21
4
82
31
23
53
5
74
91
65
87
40
42
69
19
7
20
72
85
15
76
43
12
88
61
77
22
81
32
36
89
68
62
63
3
56
14
75
6
50
24
44
26
84
35
80
8
86
16
46
33
70
10
13
66
25
71
34
78
30
59
11
2
90
83
58
47
41
37
17
18
54
67
48
60
27
52
49
79
9
29
51

> <PUBCHEM_MMFF94_PARTIAL_CHARGES>
27
1 -0.08
11 0.27
12 0.27
13 0.27
14 0.57
15 0.3
17 0.27
2 -0.57
20 0.06
21 0.57
22 0.48
23 -0.14
24 -0.15
25 -0.15
26 -0.11
3 -0.57
39 0.37
4 -0.81
5 -0.81
51 0.37
54 0.15
55 0.15
56 0.15
6 -0.73
7 -0.73
8 0.27
9 0.33

> <PUBCHEM_EFFECTIVE_ROTOR_COUNT>
8.4

> <PUBCHEM_PHARMACOPHORE_FEATURES>
10
1 2 acceptor
1 3 acceptor
1 4 cation
1 5 cation
1 6 donor
1 7 donor
3 13 18 19 hydrophobe
5 1 23 24 25 26 rings
5 4 8 9 10 11 rings
7 5 6 8 9 12 14 15 rings

> <PUBCHEM_HEAVY_ATOM_COUNT>
26

> <PUBCHEM_ATOM_DEF_STEREO_COUNT>
3

> <PUBCHEM_ATOM_UDEF_STEREO_COUNT>
0

> <PUBCHEM_BOND_DEF_STEREO_COUNT>
0

> <PUBCHEM_BOND_UDEF_STEREO_COUNT>
0

> <PUBCHEM_ISOTOPIC_ATOM_COUNT>
0

> <PUBCHEM_COMPONENT_COUNT>
1

> <PUBCHEM_CACTVS_TAUTO_COUNT>
6

> <PUBCHEM_CONFORMER_ID>
02B4278100000001

> <PUBCHEM_MMFF94_ENERGY>
56.5319

> <PUBCHEM_FEATURE_SELFOVERLAP>
50.781

> <PUBCHEM_SHAPE_FINGERPRINT>
10 15 16487249993272938474
10447042 23 17530688718813751814
10721379 63 8430057372771562584
11069576 57 16733531724582422706
11135609 201 11095874978464677829
11720765 8 14418399002229450444
11724838 91 13470397882090996441
11828532 37 18268148846161027059
1200032 147 11095888202431683284
12390115 104 9799687104590673461
12422481 6 17561086912803190095
12596602 18 16630250225103381819
12633257 1 16702295784589860743
12788726 201 13479396272272725759
12892183 10 16916512436902537728
13583140 156 15984831385599281481
13627167 48 12324503330633445039
13782708 43 18343865489529323250
13885169 86 12175324933754393834
14251751 18 18341895195141858163
14251764 30 18337388232587094386
14251764 75 13110092387976263546
14341114 328 13901904497228933685
14848178 5 18272094928888769559
15163728 17 10879988060499760212
15183329 4 15502371223712058871
15188451 53 18201998837677154163
15210252 30 10737290181303336183
15575132 122 9439140732221141891
17349148 13 18271820068203691179
17857418 61 18411425020648213855
18222031 100 18259985980834391921
19377110 9 14836399242629028317
19438510 23 12318866181656923906
20028762 73 18343584053244748359
21304304 249 18412824689812422895
21315763 87 17917997161217664115
21623969 137 16486975089765079835
21637258 2 18040996211623452904
22289505 5 13984660369089987494
23559900 14 17096092514662056229
23572383 38 17989495130392698975
25122255 55 18342462543426672823
25222932 49 18341325622338855942
3004659 81 16443062798564447489
3009799 131 13695870337984510156
312425 54 17631745872174015163
339767 52 18410012152559920567
392239 28 16128643167983113205
4098825 35 8142089779481807233
4339292 15 17241038788138225706
4340502 62 15913328000654661030
5104073 3 16271663195708123139
57307002 182 15697987578986977225
59682541 52 14996277011529780235
7808743 9 10519978253829830177
960060 61 16950284039866035421

> <PUBCHEM_SHAPE_MULTIPOLES>
507.25
17.09
2.46
2.02
19.73
0.21
0.49
-13.74
-3.63
0.41
0.33
-1.87
-0.17
-0.57

> <PUBCHEM_SHAPE_SELFOVERLAP>
1037.399

> <PUBCHEM_SHAPE_VOLUME>
294.9

> <PUBCHEM_COORDINATE_TYPE>
2
5
10

$$$$
