7165080
  -OEChem-12032416233D

 54 58  0     1  0  0  0  0  0999 V2000
   -8.6153    0.9543   -1.1026 Cl  0  0  0  0  0  0  0  0  0  0  0  0
   -3.3122   -2.1578    0.0537 S   0  0  0  0  0  0  0  0  0  0  0  0
    0.1558   -1.0614    0.1474 O   0  0  0  0  0  0  0  0  0  0  0  0
   -3.6237   -3.2200    0.9916 O   0  0  0  0  0  0  0  0  0  0  0  0
   -2.6913   -2.4602   -1.2223 O   0  0  0  0  0  0  0  0  0  0  0  0
    0.3096    3.6328   -0.1307 O   0  0  0  0  0  0  0  0  0  0  0  0
    5.8953    1.0776   -0.4889 O   0  0  0  0  0  0  0  0  0  0  0  0
   -2.4146   -0.9483    0.8448 N   0  0  1  0  0  0  0  0  0  0  0  0
   -1.6135    2.5819    0.4166 N   0  0  0  0  0  0  0  0  0  0  0  0
    0.3365    1.2827    0.0315 N   0  0  0  0  0  0  0  0  0  0  0  0
   -2.4034    1.4209    0.7026 C   0  0  1  0  0  0  0  0  0  0  0  0
   -1.8800    0.1785    0.0162 C   0  0  1  0  0  0  0  0  0  0  0  0
   -2.4337    1.0314    2.1721 C   0  0  0  0  0  0  0  0  0  0  0  0
   -2.9845   -0.3854    2.1063 C   0  0  0  0  0  0  0  0  0  0  0  0
   -0.3683    0.0529    0.0706 C   0  0  0  0  0  0  0  0  0  0  0  0
   -0.2677    2.5670    0.1079 C   0  0  0  0  0  0  0  0  0  0  0  0
   -4.8108   -1.2801   -0.2738 C   0  0  0  0  0  0  0  0  0  0  0  0
    1.7785    1.2293   -0.1042 C   0  0  0  0  0  0  0  0  0  0  0  0
   -4.9388   -0.5803   -1.4611 C   0  0  0  0  0  0  0  0  0  0  0  0
   -5.8288   -1.3076    0.6639 C   0  0  0  0  0  0  0  0  0  0  0  0
    2.3631    0.1724   -0.7883 C   0  0  0  0  0  0  0  0  0  0  0  0
    2.5553    2.2359    0.4533 C   0  0  0  0  0  0  0  0  0  0  0  0
   -6.1210    0.1137   -1.7188 C   0  0  0  0  0  0  0  0  0  0  0  0
   -7.0111   -0.6137    0.4063 C   0  0  0  0  0  0  0  0  0  0  0  0
    3.7510    0.1208   -0.9173 C   0  0  0  0  0  0  0  0  0  0  0  0
    3.9433    2.1845    0.3243 C   0  0  0  0  0  0  0  0  0  0  0  0
   -7.1573    0.0969   -0.7852 C   0  0  0  0  0  0  0  0  0  0  0  0
    4.5412    1.1268   -0.3612 C   0  0  0  0  0  0  0  0  0  0  0  0
    6.5202   -0.1362   -0.2566 C   0  0  0  0  0  0  0  0  0  0  0  0
    6.1520   -0.8829    0.8477 C   0  0  0  0  0  0  0  0  0  0  0  0
    7.4966   -0.5697   -1.1350 C   0  0  0  0  0  0  0  0  0  0  0  0
    6.7820   -2.1052    1.0820 C   0  0  0  0  0  0  0  0  0  0  0  0
    8.1265   -1.7920   -0.9007 C   0  0  0  0  0  0  0  0  0  0  0  0
    7.7691   -2.5596    0.2079 C   0  0  0  0  0  0  0  0  0  0  0  0
   -3.4253    1.6366    0.3661 H   0  0  0  0  0  0  0  0  0  0  0  0
   -2.1765    0.1388   -1.0346 H   0  0  0  0  0  0  0  0  0  0  0  0
   -3.0601    1.6965    2.7744 H   0  0  0  0  0  0  0  0  0  0  0  0
   -1.4276    1.0354    2.6097 H   0  0  0  0  0  0  0  0  0  0  0  0
   -2.6524   -0.9781    2.9635 H   0  0  0  0  0  0  0  0  0  0  0  0
   -4.0694   -0.3363    2.1172 H   0  0  0  0  0  0  0  0  0  0  0  0
   -2.0682    3.4879    0.4762 H   0  0  0  0  0  0  0  0  0  0  0  0
   -4.1472   -0.5556   -2.2032 H   0  0  0  0  0  0  0  0  0  0  0  0
   -5.7424   -1.8630    1.5928 H   0  0  0  0  0  0  0  0  0  0  0  0
    1.7964   -0.5887   -1.3137 H   0  0  0  0  0  0  0  0  0  0  0  0
    2.1495    3.0377    1.0609 H   0  0  0  0  0  0  0  0  0  0  0  0
   -6.2209    0.6631   -2.6514 H   0  0  0  0  0  0  0  0  0  0  0  0
   -7.8110   -0.6372    1.1420 H   0  0  0  0  0  0  0  0  0  0  0  0
    4.1877   -0.6924   -1.4912 H   0  0  0  0  0  0  0  0  0  0  0  0
    4.5554    2.9618    0.7737 H   0  0  0  0  0  0  0  0  0  0  0  0
    5.4037   -0.5401    1.5562 H   0  0  0  0  0  0  0  0  0  0  0  0
    7.7756    0.0268   -1.9983 H   0  0  0  0  0  0  0  0  0  0  0  0
    6.5078   -2.7005    1.9480 H   0  0  0  0  0  0  0  0  0  0  0  0
    8.8954   -2.1460   -1.5812 H   0  0  0  0  0  0  0  0  0  0  0  0
    8.2606   -3.5106    0.3910 H   0  0  0  0  0  0  0  0  0  0  0  0
  1 27  1  0  0  0  0
  2  4  2  0  0  0  0
  2  5  2  0  0  0  0
  2  8  1  0  0  0  0
  2 17  1  0  0  0  0
  3 15  2  0  0  0  0
  6 16  2  0  0  0  0
  7 28  1  0  0  0  0
  7 29  1  0  0  0  0
  8 12  1  0  0  0  0
  8 14  1  0  0  0  0
  9 11  1  0  0  0  0
  9 16  1  0  0  0  0
  9 41  1  0  0  0  0
 10 15  1  0  0  0  0
 10 16  1  0  0  0  0
 10 18  1  0  0  0  0
 11 12  1  0  0  0  0
 11 13  1  0  0  0  0
 11 35  1  0  0  0  0
 12 15  1  0  0  0  0
 12 36  1  0  0  0  0
 13 14  1  0  0  0  0
 13 37  1  0  0  0  0
 13 38  1  0  0  0  0
 14 39  1  0  0  0  0
 14 40  1  0  0  0  0
 17 19  2  0  0  0  0
 17 20  1  0  0  0  0
 18 21  2  0  0  0  0
 18 22  1  0  0  0  0
 19 23  1  0  0  0  0
 19 42  1  0  0  0  0
 20 24  2  0  0  0  0
 20 43  1  0  0  0  0
 21 25  1  0  0  0  0
 21 44  1  0  0  0  0
 22 26  2  0  0  0  0
 22 45  1  0  0  0  0
 23 27  2  0  0  0  0
 23 46  1  0  0  0  0
 24 27  1  0  0  0  0
 24 47  1  0  0  0  0
 25 28  2  0  0  0  0
 25 48  1  0  0  0  0
 26 28  1  0  0  0  0
 26 49  1  0  0  0  0
 29 30  2  0  0  0  0
 29 31  1  0  0  0  0
 30 32  1  0  0  0  0
 30 50  1  0  0  0  0
 31 33  2  0  0  0  0
 31 51  1  0  0  0  0
 32 34  2  0  0  0  0
 32 52  1  0  0  0  0
 33 34  1  0  0  0  0
 33 53  1  0  0  0  0
 34 54  1  0  0  0  0
M  END
> <PUBCHEM_COMPOUND_CID>
7165080

> <PUBCHEM_CONFORMER_RMSD>
0.8

> <PUBCHEM_CONFORMER_DIVERSEORDER>
4
65
148
150
112
71
57
41
51
147
137
36
12
50
64
102
43
21
149
78
144
106
46
158
49
101
120
95
19
151
98
126
127
40
16
129
45
73
32
146
142
114
58
72
139
123
10
122
107
6
61
103
66
155
124
35
152
154
141
31
119
9
143
100
125
128
33
117
105
22
138
82
86
68
132
62
99
14
79
97
53
75
145
89
54
121
56
30
134
131
133
52
110
18
44
11
3
84
136
140
96
93
28
48
39
104
156
34
69
59
116
37
15
26
42
153
13
27
113
20
115
88
130
67
135
83
76
8
77
111
29
60
25
94
47
2
109
23
70
5
118
85
63
108
80
91
87
90
92
157
38
17
55
24
81
7
1
74

> <PUBCHEM_MMFF94_PARTIAL_CHARGES>
47
1 -0.18
10 -0.24
11 0.3
12 0.42
14 0.36
15 0.57
16 0.69
17 -0.01
18 0.12
19 -0.15
2 1.45
20 -0.15
21 -0.15
22 -0.15
23 -0.15
24 -0.15
25 -0.15
26 -0.15
27 0.18
28 0.08
29 0.08
3 -0.57
30 -0.15
31 -0.15
32 -0.15
33 -0.15
34 -0.15
4 -0.65
41 0.37
42 0.15
43 0.15
44 0.15
45 0.15
46 0.15
47 0.15
48 0.15
49 0.15
5 -0.65
50 0.15
51 0.15
52 0.15
53 0.15
54 0.15
6 -0.57
7 -0.17
8 -0.85
9 -0.73

> <PUBCHEM_EFFECTIVE_ROTOR_COUNT>
6

> <PUBCHEM_PHARMACOPHORE_FEATURES>
11
1 3 acceptor
1 4 acceptor
1 5 acceptor
1 6 acceptor
1 7 acceptor
1 9 donor
5 8 11 12 13 14 rings
6 17 19 20 23 24 27 rings
6 18 21 22 25 26 28 rings
6 29 30 31 32 33 34 rings
6 9 10 11 12 15 16 rings

> <PUBCHEM_HEAVY_ATOM_COUNT>
34

> <PUBCHEM_ATOM_DEF_STEREO_COUNT>
2

> <PUBCHEM_ATOM_UDEF_STEREO_COUNT>
0

> <PUBCHEM_BOND_DEF_STEREO_COUNT>
0

> <PUBCHEM_BOND_UDEF_STEREO_COUNT>
0

> <PUBCHEM_ISOTOPIC_ATOM_COUNT>
0

> <PUBCHEM_COMPONENT_COUNT>
1

> <PUBCHEM_CACTVS_TAUTO_COUNT>
2

> <PUBCHEM_CONFORMER_ID>
006D549800000004

> <PUBCHEM_MMFF94_ENERGY>
111.0507

> <PUBCHEM_FEATURE_SELFOVERLAP>
56.027

> <PUBCHEM_SHAPE_FINGERPRINT>
10 15 10952050056778543628
10119406 146 18260833674746371667
10369192 42 13767922417184235923
10391435 84 18337105778700406970
10483366 6 18409159988372904365
10622 236 17556564771143386566
106641 1 10879988073727170317
10930396 42 13973675110068295735
11135609 201 9871743581762797412
11135926 11 18342460318676337671
11297750 10 18342447137090059712
11374522 155 10303805505833991082
11408170 108 17274833414944415335
11672396 167 18263081008527967366
117089 54 18125729985784528638
11719270 70 18060139838819423806
12166972 35 17967817175813031980
12539765 74 12468623998327311241
13782708 43 17846779624517985608
13914758 101 18260546697351974125
14068700 675 17489583498211121049
14117953 113 18343579625196230727
14849402 71 10737291233902580935
15183329 4 18408317796588162105
15188451 53 17704070686102351792
15230672 131 18113891663597911731
15274700 21 16371301037874944163
15510800 12 18272944795347534102
15519825 34 15625929971758140446
16087824 20 18338516323634678741
16126227 98 8214138564404453013
16628084 112 17823969039907667003
18393751 57 11024107650627236301
18603816 31 17418082252851409095
19841028 212 17749662997175413874
20028762 73 18202284702316891238
21033650 10 16805318851776538381
21792965 20 18057296467015210424
22224240 67 11312058755442019133
23198884 109 16008745827547779245
23522609 53 18051171122809745128
23559900 14 18268425913936425793
25269216 80 14057302911993466138
3004659 81 18040431110007428402
32027 91 18270961370242959121
4098825 35 17095239211649161431
4149490 64 15481809355941160383
4258327 124 10375575049832378186
439807 62 18260829276968911654
4403749 210 10735881660660065361
444769 64 18412270528216137937
474113 269 18342734079221482062
504579 68 18188504553176502604
5085150 59 17704352160557284735
5104073 3 18060143150471116312
57307002 182 14404893743828836176
5758199 1 10809340027573124413
59682541 35 10015577338091073789
59755656 215 18335419058569220422
6081469 158 18408884023127123941
6697151 62 18200014248653078441
6703917 75 14129060284235124737

> <PUBCHEM_SHAPE_MULTIPOLES>
661.13
24.2
3.03
1.41
13.99
0.48
0.29
-12.87
-6.65
1.52
0.45
-1.35
-0.19
0.1

> <PUBCHEM_SHAPE_SELFOVERLAP>
1439.237

> <PUBCHEM_SHAPE_VOLUME>
360.5

> <PUBCHEM_COORDINATE_TYPE>
2
5
10

$$$$
