11883367
  -OEChem-12032416123D

 55 58  0     1  0  0  0  0  0999 V2000
   -1.3392    1.2760    0.9642 O   0  0  0  0  0  0  0  0  0  0  0  0
   -2.0864    3.2441   -1.2656 O   0  0  0  0  0  0  0  0  0  0  0  0
    1.0844    1.9576   -0.2054 O   0  0  0  0  0  0  0  0  0  0  0  0
   -6.1243    1.2248    1.0171 O   0  0  0  0  0  0  0  0  0  0  0  0
    1.8787    0.2896   -1.5533 O   0  0  0  0  0  0  0  0  0  0  0  0
    5.7892   -2.3769   -1.7402 O   0  0  0  0  0  0  0  0  0  0  0  0
    7.4024   -0.0832    2.1226 O   0  0  0  0  0  0  0  0  0  0  0  0
   -4.1954    0.5023   -0.0488 N   0  0  0  0  0  0  0  0  0  0  0  0
    3.1051    1.0797    0.2775 N   0  0  0  0  0  0  0  0  0  0  0  0
   -2.4378    1.8606   -1.0543 C   0  0  1  0  0  0  0  0  0  0  0  0
   -1.2174    1.1825   -0.4649 C   0  0  1  0  0  0  0  0  0  0  0  0
   -3.4765    1.7500    0.0375 C   0  0  2  0  0  0  0  0  0  0  0  0
   -0.0861    2.0352   -0.9871 C   0  0  1  0  0  0  0  0  0  0  0  0
   -2.6287    1.8135    1.2962 C   0  0  0  0  0  0  0  0  0  0  0  0
   -0.6940    3.4196   -0.9658 C   0  0  0  0  0  0  0  0  0  0  0  0
   -5.4783    0.3436    0.4563 C   0  0  0  0  0  0  0  0  0  0  0  0
    2.0280    1.0260   -0.5859 C   0  0  0  0  0  0  0  0  0  0  0  0
   -6.0713   -1.0108    0.3120 C   0  0  0  0  0  0  0  0  0  0  0  0
   -7.0383   -1.4487    1.2169 C   0  0  0  0  0  0  0  0  0  0  0  0
   -5.6616   -1.8445   -0.7286 C   0  0  0  0  0  0  0  0  0  0  0  0
    4.2838    0.3001    0.2483 C   0  0  0  0  0  0  0  0  0  0  0  0
   -7.5955   -2.7203    1.0815 C   0  0  0  0  0  0  0  0  0  0  0  0
   -6.2190   -3.1161   -0.8641 C   0  0  0  0  0  0  0  0  0  0  0  0
   -7.1859   -3.5539    0.0410 C   0  0  0  0  0  0  0  0  0  0  0  0
    5.2735    0.4956    1.2114 C   0  0  0  0  0  0  0  0  0  0  0  0
    4.4569   -0.6654   -0.7435 C   0  0  0  0  0  0  0  0  0  0  0  0
    5.6198   -1.4351   -0.7723 C   0  0  0  0  0  0  0  0  0  0  0  0
    6.4364   -0.2741    1.1827 C   0  0  0  0  0  0  0  0  0  0  0  0
    6.6097   -1.2394    0.1908 C   0  0  0  0  0  0  0  0  0  0  0  0
    7.0019   -3.1279   -1.7103 C   0  0  0  0  0  0  0  0  0  0  0  0
    8.5656   -0.9046    2.0341 C   0  0  0  0  0  0  0  0  0  0  0  0
   -2.7434    1.4439   -2.0193 H   0  0  0  0  0  0  0  0  0  0  0  0
   -1.1247    0.1234   -0.7222 H   0  0  0  0  0  0  0  0  0  0  0  0
   -4.1979    2.5742    0.0239 H   0  0  0  0  0  0  0  0  0  0  0  0
    0.1070    1.7809   -2.0385 H   0  0  0  0  0  0  0  0  0  0  0  0
   -3.0453    1.2569    2.1412 H   0  0  0  0  0  0  0  0  0  0  0  0
   -2.4737    2.8514    1.6110 H   0  0  0  0  0  0  0  0  0  0  0  0
   -0.2400    4.0851   -1.7063 H   0  0  0  0  0  0  0  0  0  0  0  0
   -0.6009    3.9001    0.0146 H   0  0  0  0  0  0  0  0  0  0  0  0
   -3.6851   -0.3004   -0.4024 H   0  0  0  0  0  0  0  0  0  0  0  0
    3.0460    1.7636    1.0280 H   0  0  0  0  0  0  0  0  0  0  0  0
   -7.3677   -0.8158    2.0368 H   0  0  0  0  0  0  0  0  0  0  0  0
   -4.9348   -1.5312   -1.4723 H   0  0  0  0  0  0  0  0  0  0  0  0
   -8.3479   -3.0617    1.7865 H   0  0  0  0  0  0  0  0  0  0  0  0
   -5.9056   -3.7631   -1.6783 H   0  0  0  0  0  0  0  0  0  0  0  0
   -7.6208   -4.5434   -0.0655 H   0  0  0  0  0  0  0  0  0  0  0  0
    5.1454    1.2464    1.9876 H   0  0  0  0  0  0  0  0  0  0  0  0
    3.7306   -0.8682   -1.5187 H   0  0  0  0  0  0  0  0  0  0  0  0
    7.5099   -1.8351    0.1686 H   0  0  0  0  0  0  0  0  0  0  0  0
    7.8775   -2.4891   -1.8693 H   0  0  0  0  0  0  0  0  0  0  0  0
    7.0818   -3.7314   -0.7995 H   0  0  0  0  0  0  0  0  0  0  0  0
    6.9659   -3.8288   -2.5510 H   0  0  0  0  0  0  0  0  0  0  0  0
    8.3249   -1.9636    2.1776 H   0  0  0  0  0  0  0  0  0  0  0  0
    9.1207   -0.7215    1.1076 H   0  0  0  0  0  0  0  0  0  0  0  0
    9.2253   -0.6163    2.8593 H   0  0  0  0  0  0  0  0  0  0  0  0
  1 11  1  0  0  0  0
  1 14  1  0  0  0  0
  2 10  1  0  0  0  0
  2 15  1  0  0  0  0
  3 13  1  0  0  0  0
  3 17  1  0  0  0  0
  4 16  2  0  0  0  0
  5 17  2  0  0  0  0
  6 27  1  0  0  0  0
  6 30  1  0  0  0  0
  7 28  1  0  0  0  0
  7 31  1  0  0  0  0
  8 12  1  0  0  0  0
  8 16  1  0  0  0  0
  8 40  1  0  0  0  0
  9 17  1  0  0  0  0
  9 21  1  0  0  0  0
  9 41  1  0  0  0  0
 10 11  1  0  0  0  0
 10 12  1  0  0  0  0
 10 32  1  0  0  0  0
 11 13  1  0  0  0  0
 11 33  1  0  0  0  0
 12 14  1  0  0  0  0
 12 34  1  0  0  0  0
 13 15  1  0  0  0  0
 13 35  1  0  0  0  0
 14 36  1  0  0  0  0
 14 37  1  0  0  0  0
 15 38  1  0  0  0  0
 15 39  1  0  0  0  0
 16 18  1  0  0  0  0
 18 19  2  0  0  0  0
 18 20  1  0  0  0  0
 19 22  1  0  0  0  0
 19 42  1  0  0  0  0
 20 23  2  0  0  0  0
 20 43  1  0  0  0  0
 21 25  2  0  0  0  0
 21 26  1  0  0  0  0
 22 24  2  0  0  0  0
 22 44  1  0  0  0  0
 23 24  1  0  0  0  0
 23 45  1  0  0  0  0
 24 46  1  0  0  0  0
 25 28  1  0  0  0  0
 25 47  1  0  0  0  0
 26 27  2  0  0  0  0
 26 48  1  0  0  0  0
 27 29  1  0  0  0  0
 28 29  2  0  0  0  0
 29 49  1  0  0  0  0
 30 50  1  0  0  0  0
 30 51  1  0  0  0  0
 30 52  1  0  0  0  0
 31 53  1  0  0  0  0
 31 54  1  0  0  0  0
 31 55  1  0  0  0  0
M  END
> <PUBCHEM_COMPOUND_CID>
11883367

> <PUBCHEM_CONFORMER_RMSD>
1

> <PUBCHEM_CONFORMER_DIVERSEORDER>
1
55
49
65
12
56
70
21
15
58
53
18
22
62
75
14
79
28
23
20
57
43
48
42
47
3
6
4
31
73
2
44
66
25
83
45
78
39
63
41
80
34
32
77
35
13
76
51
30
82
67
60
69
81
64
74
24
61
54
9
8
72
29
40
37
36
7
26
52
33
46
59
50
16
71
19
10
5
68
27
11
38
17

> <PUBCHEM_MMFF94_PARTIAL_CHARGES>
41
1 -0.56
10 0.28
11 0.28
12 0.3
13 0.28
14 0.28
15 0.28
16 0.54
17 0.78
18 0.09
19 -0.15
2 -0.56
20 -0.15
21 0.12
22 -0.15
23 -0.15
24 -0.15
25 -0.15
26 -0.15
27 0.08
28 0.08
29 -0.15
3 -0.43
30 0.28
31 0.28
4 -0.57
40 0.37
41 0.37
42 0.15
43 0.15
44 0.15
45 0.15
46 0.15
47 0.15
48 0.15
49 0.15
5 -0.57
6 -0.36
7 -0.36
8 -0.73
9 -0.55

> <PUBCHEM_EFFECTIVE_ROTOR_COUNT>
10.2

> <PUBCHEM_PHARMACOPHORE_FEATURES>
12
1 1 acceptor
1 2 acceptor
1 4 acceptor
1 5 acceptor
1 6 acceptor
1 7 acceptor
1 8 donor
1 9 donor
5 1 10 11 12 14 rings
5 2 10 11 13 15 rings
6 18 19 20 22 23 24 rings
6 21 25 26 27 28 29 rings

> <PUBCHEM_HEAVY_ATOM_COUNT>
31

> <PUBCHEM_ATOM_DEF_STEREO_COUNT>
4

> <PUBCHEM_ATOM_UDEF_STEREO_COUNT>
0

> <PUBCHEM_BOND_DEF_STEREO_COUNT>
0

> <PUBCHEM_BOND_UDEF_STEREO_COUNT>
0

> <PUBCHEM_ISOTOPIC_ATOM_COUNT>
0

> <PUBCHEM_COMPONENT_COUNT>
1

> <PUBCHEM_CACTVS_TAUTO_COUNT>
4

> <PUBCHEM_CONFORMER_ID>
00B5536700000001

> <PUBCHEM_MMFF94_ENERGY>
110.2959

> <PUBCHEM_FEATURE_SELFOVERLAP>
61.617

> <PUBCHEM_SHAPE_FINGERPRINT>
10 15 15985101903265191304
10190206 1 11891319920732315423
10391435 84 18412536609629041807
10669705 251 18342464758886863247
11103572 95 18130795504113557459
11475781 23 8070024455061571526
11497681 19 18409176523622669140
11963148 33 18261671476473670178
11991303 11 14924235966359404739
12120059 9 18339906139562492583
12522641 68 17392184132876022021
1361 4 18046070629906526083
13627175 4 17894640210244931730
13782708 43 18411699872310821440
14068700 675 17821446854717834036
14344974 204 18410291423775660535
14359421 15 17313374656890474547
14556957 393 15502663641500595286
15183329 4 13551183377528086405
15510800 12 18261688055347782203
16992779 147 16557326349711365920
19303781 99 18190174771405897463
19438510 23 11312060937411688269
20028762 73 18408605868149836386
2026 5 18187922915800128115
20691028 202 10447923971121977842
21424621 283 9943809980309712685
21585482 111 10879452594380092403
22149856 69 18130236973480738136
22864921 47 17968642849074276650
229767 44 18059855121068694831
23389318 12 17676489488765218692
23522609 53 17973198159997842133
23559900 14 16371303223644115956
23569914 152 11965317036492096328
2747138 104 18131071502943441296
2748736 6 10087644762929398615
3383291 50 18335421309296283411
3504750 166 18343871026823231821
3711267 37 12823002180092637202
392239 28 16630525163624819957
397830 11 18201997725059429160
406291 66 18260827150633319131
44802255 64 12324246057670736809
4516262 110 10735615566114041201
474113 269 18130219489497474047
50009960 94 18126560365865401103
5104073 3 17346039957423704864
5718773 13 18260826029419507657
59682541 52 13984652664161466200
636775 72 9222645775366332294
636775 8 18198919011588498654
6698420 124 17838053698214300433
6712543 237 16845301561903650335
9689198 14 9367354760198161001
9831232 110 18340494361588650694

> <PUBCHEM_SHAPE_MULTIPOLES>
586.92
26.92
3.99
1.66
10.81
0.85
-0.23
29.7
-9.45
-5.4
1.69
2.68
0.39
1.87

> <PUBCHEM_SHAPE_SELFOVERLAP>
1266.674

> <PUBCHEM_SHAPE_VOLUME>
322.1

> <PUBCHEM_COORDINATE_TYPE>
2
5
10

$$$$
