11941671
  -OEChem-12032416383D

 50 54  0     1  0  0  0  0  0999 V2000
   -1.9994    2.9765    1.5312 O   0  0  0  0  0  0  0  0  0  0  0  0
   -0.7699    0.1505    2.0196 O   0  0  0  0  0  0  0  0  0  0  0  0
   -5.4937    0.9097    0.2296 O   0  0  0  0  0  0  0  0  0  0  0  0
   -4.3058   -2.1822   -0.9704 O   0  0  0  0  0  0  0  0  0  0  0  0
    0.6536    2.7979   -0.0526 N   0  0  0  0  0  0  0  0  0  0  0  0
   -3.5473   -0.2259    0.6762 N   0  0  0  0  0  0  0  0  0  0  0  0
    2.3764    1.2300   -0.3354 N   0  0  0  0  0  0  0  0  0  0  0  0
    2.0180    2.9798   -1.9530 N   0  0  0  0  0  0  0  0  0  0  0  0
    2.7891   -4.1754    2.1086 N   0  0  0  0  0  0  0  0  0  0  0  0
   -0.7350    1.0599    0.9068 C   0  0  1  0  0  0  0  0  0  0  0  0
   -2.0946    1.7266    0.8281 C   0  0  1  0  0  0  0  0  0  0  0  0
    0.2183    2.1970    1.1892 C   0  0  2  0  0  0  0  0  0  0  0  0
   -3.0128    0.7779    1.5642 C   0  0  2  0  0  0  0  0  0  0  0  0
   -0.6463    3.1705    1.9688 C   0  0  0  0  0  0  0  0  0  0  0  0
   -2.0843    0.1621    2.5958 C   0  0  0  0  0  0  0  0  0  0  0  0
    1.7141    2.3216   -0.8027 C   0  0  0  0  0  0  0  0  0  0  0  0
   -4.7870   -0.0844    0.0533 C   0  0  0  0  0  0  0  0  0  0  0  0
   -5.1793   -1.1767   -0.8483 C   0  0  0  0  0  0  0  0  0  0  0  0
    3.4048    0.7928   -1.0913 C   0  0  0  0  0  0  0  0  0  0  0  0
   -6.2941   -1.3334   -1.5844 C   0  0  0  0  0  0  0  0  0  0  0  0
    3.0574    2.4888   -2.6593 C   0  0  0  0  0  0  0  0  0  0  0  0
    3.7943    1.3878   -2.2739 C   0  0  0  0  0  0  0  0  0  0  0  0
    4.0931   -0.3673   -0.5777 C   0  0  0  0  0  0  0  0  0  0  0  0
   -6.1140   -2.5707   -2.2476 C   0  0  0  0  0  0  0  0  0  0  0  0
   -4.8896   -3.0473   -1.8407 C   0  0  0  0  0  0  0  0  0  0  0  0
    3.4043   -1.3093    0.1895 C   0  0  0  0  0  0  0  0  0  0  0  0
    5.4513   -0.5515   -0.8461 C   0  0  0  0  0  0  0  0  0  0  0  0
    4.0704   -2.4299    0.6858 C   0  0  0  0  0  0  0  0  0  0  0  0
    6.1173   -1.6720   -0.3499 C   0  0  0  0  0  0  0  0  0  0  0  0
    5.4269   -2.6112    0.4161 C   0  0  0  0  0  0  0  0  0  0  0  0
    3.3637   -3.3925    1.4706 C   0  0  0  0  0  0  0  0  0  0  0  0
   -0.4993    0.4711    0.0145 H   0  0  0  0  0  0  0  0  0  0  0  0
   -2.4032    1.9504   -0.1982 H   0  0  0  0  0  0  0  0  0  0  0  0
    1.0791    1.9093    1.8037 H   0  0  0  0  0  0  0  0  0  0  0  0
   -3.8431    1.2918    2.0605 H   0  0  0  0  0  0  0  0  0  0  0  0
   -0.6182    2.9457    3.0408 H   0  0  0  0  0  0  0  0  0  0  0  0
   -0.3687    4.2204    1.8322 H   0  0  0  0  0  0  0  0  0  0  0  0
   -2.0372    0.7805    3.4990 H   0  0  0  0  0  0  0  0  0  0  0  0
   -2.3612   -0.8551    2.8891 H   0  0  0  0  0  0  0  0  0  0  0  0
    0.1348    3.5796   -0.4366 H   0  0  0  0  0  0  0  0  0  0  0  0
   -2.9764   -1.0389    0.4611 H   0  0  0  0  0  0  0  0  0  0  0  0
   -7.1413   -0.6669   -1.6572 H   0  0  0  0  0  0  0  0  0  0  0  0
    3.2852    3.0195   -3.5776 H   0  0  0  0  0  0  0  0  0  0  0  0
    4.6017    1.0329   -2.9014 H   0  0  0  0  0  0  0  0  0  0  0  0
   -6.7918   -3.0547   -2.9359 H   0  0  0  0  0  0  0  0  0  0  0  0
   -4.3213   -3.9379   -2.0665 H   0  0  0  0  0  0  0  0  0  0  0  0
    2.3428   -1.1900    0.4011 H   0  0  0  0  0  0  0  0  0  0  0  0
    6.0339    0.1672   -1.4162 H   0  0  0  0  0  0  0  0  0  0  0  0
    7.1749   -1.8106   -0.5546 H   0  0  0  0  0  0  0  0  0  0  0  0
    5.9603   -3.4788    0.7971 H   0  0  0  0  0  0  0  0  0  0  0  0
  1 11  1  0  0  0  0
  1 14  1  0  0  0  0
  2 10  1  0  0  0  0
  2 15  1  0  0  0  0
  3 17  2  0  0  0  0
  4 18  1  0  0  0  0
  4 25  1  0  0  0  0
  5 12  1  0  0  0  0
  5 16  1  0  0  0  0
  5 40  1  0  0  0  0
  6 13  1  0  0  0  0
  6 17  1  0  0  0  0
  6 41  1  0  0  0  0
  7 16  1  0  0  0  0
  7 19  2  0  0  0  0
  8 16  2  0  0  0  0
  8 21  1  0  0  0  0
  9 31  3  0  0  0  0
 10 11  1  0  0  0  0
 10 12  1  0  0  0  0
 10 32  1  0  0  0  0
 11 13  1  0  0  0  0
 11 33  1  0  0  0  0
 12 14  1  0  0  0  0
 12 34  1  0  0  0  0
 13 15  1  0  0  0  0
 13 35  1  0  0  0  0
 14 36  1  0  0  0  0
 14 37  1  0  0  0  0
 15 38  1  0  0  0  0
 15 39  1  0  0  0  0
 17 18  1  0  0  0  0
 18 20  2  0  0  0  0
 19 22  1  0  0  0  0
 19 23  1  0  0  0  0
 20 24  1  0  0  0  0
 20 42  1  0  0  0  0
 21 22  2  0  0  0  0
 21 43  1  0  0  0  0
 22 44  1  0  0  0  0
 23 26  1  0  0  0  0
 23 27  2  0  0  0  0
 24 25  2  0  0  0  0
 24 45  1  0  0  0  0
 25 46  1  0  0  0  0
 26 28  2  0  0  0  0
 26 47  1  0  0  0  0
 27 29  1  0  0  0  0
 27 48  1  0  0  0  0
 28 30  1  0  0  0  0
 28 31  1  0  0  0  0
 29 30  2  0  0  0  0
 29 49  1  0  0  0  0
 30 50  1  0  0  0  0
M  END
> <PUBCHEM_COMPOUND_CID>
11941671

> <PUBCHEM_CONFORMER_RMSD>
1

> <PUBCHEM_CONFORMER_DIVERSEORDER>
1
109
324
479
444
405
186
19
355
226
481
408
24
267
110
443
403
406
378
400
214
296
23
274
246
178
71
64
155
79
306
309
201
323
51
227
338
55
407
266
298
345
441
257
466
337
13
166
127
229
212
192
104
100
458
369
150
395
76
45
172
484
43
347
330
303
270
328
135
335
103
97
247
54
129
364
198
225
50
163
20
474
158
196
102
362
375
397
442
318
452
52
349
459
61
382
123
365
37
293
263
85
195
213
302
253
430
115
300
424
118
189
144
450
281
124
288
183
379
380
26
66
58
10
167
282
78
404
415
96
329
469
295
184
117
31
434
456
307
80
269
12
465
28
208
399
243
272
476
361
92
448
82
209
410
488
280
199
134
279
416
340
389
146
367
472
437
25
480
394
439
65
457
431
133
46
471
113
156
384
446
161
245
181
173
11
311
482
360
255
350
435
60
69
33
336
445
260
190
72
333
171
327
239
232
429
47
368
153
386
48
143
339
421
22
358
294
392
7
447
319
131
468
39
346
419
83
179
89
248
200
486
187
148
432
264
418
147
463
242
412
176
385
73
299
32
398
238
344
91
9
314
35
315
396
252
165
475
157
160
70
402
130
409
216
478
207
126
93
331
215
289
164
467
426
174
30
169
74
151
305
370
332
414
235
343
42
194
275
376
250
317
105
271
283
291
451
381
111
259
27
284
236
185
286
393
17
77
413
449
436
464
41
114
88
440
477
261
120
233
16
210
8
401
455
276
21
191
228
462
285
145
359
316
351
180
342
36
483
278
128
292
95
188
420
352
487
142
159
231
53
218
116
297
390
234
391
372
112
138
321
356
86
325
489
5
341
310
177
152
170
175
313
49
59
63
417
290
485
320
221
241
308
460
411
433
354
217
75
14
168
162
206
422
132
237
312
90
423
265
251
454
277
193
2
107
383
371
223
94
473
140
258
256
374
84
34
38
240
326
366
87
453
301
106
254
108
99
230
334
56
149
388
40
427
353
220
44
377
18
273
470
68
287
101
461
15
373
304
428
136
182
121
438
249
322
244
224
29
363
141
219
137
348
357
262
57
203
197
119
425
139
222
62
202
67
387
98
211
6
122
125
4
205
268
204
81
154
3

> <PUBCHEM_MMFF94_PARTIAL_CHARGES>
41
1 -0.56
10 0.28
11 0.28
12 0.37
13 0.3
14 0.28
15 0.28
16 0.72
17 0.71
18 0.05
19 0.31
2 -0.56
20 -0.15
21 0.16
22 -0.15
24 -0.15
25 -0.01
26 -0.15
27 -0.15
28 0.07
29 -0.15
3 -0.57
30 -0.15
31 0.48
4 -0.28
40 0.4
41 0.37
42 0.15
43 0.15
44 0.15
45 0.15
46 0.15
47 0.15
48 0.15
49 0.15
5 -0.87
50 0.15
6 -0.73
7 -0.62
8 -0.62
9 -0.56

> <PUBCHEM_EFFECTIVE_ROTOR_COUNT>
7.2

> <PUBCHEM_PHARMACOPHORE_FEATURES>
14
1 1 acceptor
1 2 acceptor
1 3 acceptor
1 4 acceptor
1 5 donor
1 6 donor
1 7 acceptor
1 9 acceptor
4 5 7 8 16 cation
5 1 10 11 12 14 rings
5 2 10 11 13 15 rings
5 4 18 20 24 25 rings
6 23 26 27 28 29 30 rings
6 7 8 16 19 21 22 rings

> <PUBCHEM_HEAVY_ATOM_COUNT>
31

> <PUBCHEM_ATOM_DEF_STEREO_COUNT>
4

> <PUBCHEM_ATOM_UDEF_STEREO_COUNT>
0

> <PUBCHEM_BOND_DEF_STEREO_COUNT>
0

> <PUBCHEM_BOND_UDEF_STEREO_COUNT>
0

> <PUBCHEM_ISOTOPIC_ATOM_COUNT>
0

> <PUBCHEM_COMPONENT_COUNT>
1

> <PUBCHEM_CACTVS_TAUTO_COUNT>
6

> <PUBCHEM_CONFORMER_ID>
00B6372700000001

> <PUBCHEM_MMFF94_ENERGY>
76.9591

> <PUBCHEM_FEATURE_SELFOVERLAP>
71.757

> <PUBCHEM_SHAPE_FINGERPRINT>
10622 236 18264485100716225978
10917259 128 11314891162679802878
11069576 57 18335706035615302366
11135609 149 17823396241926324270
11135926 11 17606995964370402348
11796584 16 17703517653244585377
12166972 35 18410006658642316470
12977781 61 18055883616007026609
13383661 66 17038670734861537995
14068700 675 18341045242583463640
14480069 147 18262247732652200979
15163728 17 12179838377857951297
15419009 47 17972023752719276669
15728490 51 18131066057188283996
16989713 51 17541092066520750362
17138139 8 18199478829724198798
19315092 285 18410571829246732949
20609170 84 11664818511420223319
208703 8 18130784572714986038
21133410 171 16664825382199545530
21223535 225 16950833709675505709
21458453 9 14619927448475018351
23559900 14 17967830357220644032
25222932 49 17773866683195261356
392239 28 13182733723719298821
4015057 19 17968387826473866649
4017518 198 16972243163672867492
437795 139 18131346445058409019
437795 70 17095793327018360277
4394409 98 18059842945226307303
439807 62 18340487885210842071
46194498 28 16228045697671448516
463206 1 18341337768263412531
5223283 242 16733259050299279277
59025328 239 18040714740958080100
59682541 52 18040989670530757895
6636735 143 14117800233057875839
6677587 24 17029071903080317845
9831354 38 18054200375754047919

> <PUBCHEM_SHAPE_MULTIPOLES>
589.58
15.3
4.76
2.6
10.27
1.33
-0.23
15.23
-7.93
-1.81
0.61
0.6
-0.39
-6.88

> <PUBCHEM_SHAPE_SELFOVERLAP>
1305.219

> <PUBCHEM_SHAPE_VOLUME>
312.8

> <PUBCHEM_COORDINATE_TYPE>
2
5
10

$$$$
