7685227
  -OEChem-12032416293D

 47 51  0     1  0  0  0  0  0999 V2000
   -1.3344    3.9718   -0.5510 S   0  0  0  0  0  0  0  0  0  0  0  0
    5.1142    0.4802    1.0355 F   0  0  0  0  0  0  0  0  0  0  0  0
   -2.7642   -1.3717    2.8809 O   0  0  0  0  0  0  0  0  0  0  0  0
    0.5900   -3.6413   -0.1423 O   0  0  0  0  0  0  0  0  0  0  0  0
   -0.2989   -1.8654   -1.3762 N   0  0  0  0  0  0  0  0  0  0  0  0
   -2.1760   -0.5279    0.7766 N   0  0  0  0  0  0  0  0  0  0  0  0
   -2.7778   -1.7823   -1.3801 C   0  0  1  0  0  0  0  0  0  0  0  0
   -1.4930    0.3127   -1.4908 C   0  0  2  0  0  0  0  0  0  0  0  0
   -2.7345   -0.4035   -2.0210 C   0  0  0  0  0  0  0  0  0  0  0  0
   -1.5171   -2.5865   -1.7390 C   0  0  0  0  0  0  0  0  0  0  0  0
   -2.9355   -1.6094    0.1314 C   0  0  0  0  0  0  0  0  0  0  0  0
   -0.2295   -0.4861   -1.8799 C   0  0  0  0  0  0  0  0  0  0  0  0
   -1.5509    0.4928    0.0304 C   0  0  0  0  0  0  0  0  0  0  0  0
   -1.0025    1.5606    0.6704 C   0  0  0  0  0  0  0  0  0  0  0  0
   -2.2224   -0.5149    2.1820 C   0  0  0  0  0  0  0  0  0  0  0  0
    0.6512   -2.4866   -0.5620 C   0  0  0  0  0  0  0  0  0  0  0  0
   -1.0286    1.6026    2.1215 C   0  0  0  0  0  0  0  0  0  0  0  0
   -1.5793    0.6356    2.8544 C   0  0  0  0  0  0  0  0  0  0  0  0
   -0.3879    2.6276   -0.0722 C   0  0  0  0  0  0  0  0  0  0  0  0
    1.8225   -1.7079   -0.1427 C   0  0  0  0  0  0  0  0  0  0  0  0
    0.9215    2.7443   -0.4838 C   0  0  0  0  0  0  0  0  0  0  0  0
    1.7772   -0.9691    1.0367 C   0  0  0  0  0  0  0  0  0  0  0  0
    2.9737   -1.7119   -0.9263 C   0  0  0  0  0  0  0  0  0  0  0  0
    1.1508    3.9535   -1.2015 C   0  0  0  0  0  0  0  0  0  0  0  0
    0.0079    4.7147   -1.3112 C   0  0  0  0  0  0  0  0  0  0  0  0
    2.8905   -0.2291    1.4352 C   0  0  0  0  0  0  0  0  0  0  0  0
    4.0871   -0.9721   -0.5278 C   0  0  0  0  0  0  0  0  0  0  0  0
    4.0456   -0.2306    0.6530 C   0  0  0  0  0  0  0  0  0  0  0  0
   -3.6445   -2.3377   -1.7591 H   0  0  0  0  0  0  0  0  0  0  0  0
   -1.4505    1.2813   -1.9992 H   0  0  0  0  0  0  0  0  0  0  0  0
   -3.6424    0.1648   -1.7833 H   0  0  0  0  0  0  0  0  0  0  0  0
   -2.6879   -0.4917   -3.1134 H   0  0  0  0  0  0  0  0  0  0  0  0
   -1.5452   -3.5697   -1.2575 H   0  0  0  0  0  0  0  0  0  0  0  0
   -1.4771   -2.7581   -2.8216 H   0  0  0  0  0  0  0  0  0  0  0  0
   -2.7106   -2.5518    0.6470 H   0  0  0  0  0  0  0  0  0  0  0  0
   -3.9912   -1.3947    0.3485 H   0  0  0  0  0  0  0  0  0  0  0  0
    0.6732    0.0206   -1.5357 H   0  0  0  0  0  0  0  0  0  0  0  0
   -0.1542   -0.5535   -2.9725 H   0  0  0  0  0  0  0  0  0  0  0  0
   -0.5653    2.4506    2.6178 H   0  0  0  0  0  0  0  0  0  0  0  0
   -1.5864    0.6739    3.9372 H   0  0  0  0  0  0  0  0  0  0  0  0
    1.6869    2.0063   -0.2847 H   0  0  0  0  0  0  0  0  0  0  0  0
    0.8885   -0.9729    1.6600 H   0  0  0  0  0  0  0  0  0  0  0  0
    3.0157   -2.2857   -1.8483 H   0  0  0  0  0  0  0  0  0  0  0  0
    2.1055    4.2500   -1.6161 H   0  0  0  0  0  0  0  0  0  0  0  0
   -0.1028    5.6715   -1.8016 H   0  0  0  0  0  0  0  0  0  0  0  0
    2.8585    0.3469    2.3553 H   0  0  0  0  0  0  0  0  0  0  0  0
    4.9862   -0.9727   -1.1369 H   0  0  0  0  0  0  0  0  0  0  0  0
  1 19  1  0  0  0  0
  1 25  1  0  0  0  0
  2 28  1  0  0  0  0
  3 15  2  0  0  0  0
  4 16  2  0  0  0  0
  5 10  1  0  0  0  0
  5 12  1  0  0  0  0
  5 16  1  0  0  0  0
  6 11  1  0  0  0  0
  6 13  1  0  0  0  0
  6 15  1  0  0  0  0
  7  9  1  0  0  0  0
  7 10  1  0  0  0  0
  7 11  1  0  0  0  0
  7 29  1  0  0  0  0
  8  9  1  0  0  0  0
  8 12  1  0  0  0  0
  8 13  1  0  0  0  0
  8 30  1  0  0  0  0
  9 31  1  0  0  0  0
  9 32  1  0  0  0  0
 10 33  1  0  0  0  0
 10 34  1  0  0  0  0
 11 35  1  0  0  0  0
 11 36  1  0  0  0  0
 12 37  1  0  0  0  0
 12 38  1  0  0  0  0
 13 14  2  0  0  0  0
 14 17  1  0  0  0  0
 14 19  1  0  0  0  0
 15 18  1  0  0  0  0
 16 20  1  0  0  0  0
 17 18  2  0  0  0  0
 17 39  1  0  0  0  0
 18 40  1  0  0  0  0
 19 21  2  0  0  0  0
 20 22  2  0  0  0  0
 20 23  1  0  0  0  0
 21 24  1  0  0  0  0
 21 41  1  0  0  0  0
 22 26  1  0  0  0  0
 22 42  1  0  0  0  0
 23 27  2  0  0  0  0
 23 43  1  0  0  0  0
 24 25  2  0  0  0  0
 24 44  1  0  0  0  0
 25 45  1  0  0  0  0
 26 28  2  0  0  0  0
 26 46  1  0  0  0  0
 27 28  1  0  0  0  0
 27 47  1  0  0  0  0
M  END
> <PUBCHEM_COMPOUND_CID>
7685227

> <PUBCHEM_CONFORMER_RMSD>
0.8

> <PUBCHEM_CONFORMER_DIVERSEORDER>
1
6
3
2
4
5

> <PUBCHEM_MMFF94_PARTIAL_CHARGES>
35
1 -0.08
10 0.3
11 0.3
12 0.3
13 -0.03
14 0.05
15 0.62
16 0.54
17 -0.15
18 -0.14
19 -0.01
2 -0.19
20 0.09
21 -0.15
22 -0.15
23 -0.15
24 -0.15
25 -0.11
26 -0.15
27 -0.15
28 0.19
3 -0.57
39 0.15
4 -0.57
40 0.15
41 0.15
42 0.15
43 0.15
44 0.15
45 0.15
46 0.15
47 0.15
5 -0.66
6 -0.47
8 0.14

> <PUBCHEM_EFFECTIVE_ROTOR_COUNT>
4

> <PUBCHEM_PHARMACOPHORE_FEATURES>
7
1 3 acceptor
1 4 acceptor
5 1 19 21 24 25 rings
6 20 22 23 26 27 28 rings
6 5 7 8 9 10 12 rings
6 6 13 14 15 17 18 rings
6 6 7 8 9 11 13 rings

> <PUBCHEM_HEAVY_ATOM_COUNT>
28

> <PUBCHEM_ATOM_DEF_STEREO_COUNT>
2

> <PUBCHEM_ATOM_UDEF_STEREO_COUNT>
0

> <PUBCHEM_BOND_DEF_STEREO_COUNT>
0

> <PUBCHEM_BOND_UDEF_STEREO_COUNT>
0

> <PUBCHEM_ISOTOPIC_ATOM_COUNT>
0

> <PUBCHEM_COMPONENT_COUNT>
1

> <PUBCHEM_CACTVS_TAUTO_COUNT>
1

> <PUBCHEM_CONFORMER_ID>
0075446B00000001

> <PUBCHEM_MMFF94_ENERGY>
76.2303

> <PUBCHEM_FEATURE_SELFOVERLAP>
37.107

> <PUBCHEM_SHAPE_FINGERPRINT>
10165383 225 17411089161124444500
10871710 139 18410573968488975900
11582403 64 16745081866846835989
11725454 13 16673880779429367645
12156800 1 12740342845509263860
12539773 59 17486490678969986604
12788726 201 18044358453340555188
128993 33 17559397946683649898
133893 2 18048597324321390165
1361 2 17835788712613405988
14142880 1 18272645706160971609
14468879 13 17976816493565394360
14840074 17 17977087287565550088
15840311 113 17560804295745083777
17974551 9 13590085640775242082
20600515 1 18129370656616787710
21304303 282 17099709718606711824
21421861 104 17546504154482217579
21927370 108 18193557998675573114
23419403 2 17460318982430018785
238 59 17540795618268784605
35225 105 16882747418102512977
445580 44 18265872745178839792
469060 322 18411130372595746378
5845 1 12387510856867268187
6287921 2 18058753371851893336
9981440 41 18048572864609448178

> <PUBCHEM_SHAPE_MULTIPOLES>
551.1
5.41
4.97
2.47
7.87
4.99
1.47
-0.49
1.11
-2.42
-2.63
-1.84
-0.66
0.61

> <PUBCHEM_SHAPE_SELFOVERLAP>
1212.741

> <PUBCHEM_SHAPE_VOLUME>
298.8

> <PUBCHEM_COORDINATE_TYPE>
2
5
10

$$$$
