40779445
  -OEChem-12032416163D

 68 73  0     1  0  0  0  0  0999 V2000
   -0.8441    2.0659    1.9729 O   0  0  0  0  0  0  0  0  0  0  0  0
   -0.3925    4.4743    0.6994 O   0  0  0  0  0  0  0  0  0  0  0  0
   -4.6634   -1.0637    0.8678 N   0  0  2  0  0  0  0  0  0  0  0  0
   -0.8074   -3.7276    0.0419 N   0  0  0  0  0  0  0  0  0  0  0  0
   -3.1133    2.2998    1.5115 N   0  0  0  0  0  0  0  0  0  0  0  0
    0.5318   -3.7308    0.1551 N   0  0  0  0  0  0  0  0  0  0  0  0
   -3.2831   -1.1130   -1.3402 C   0  0  2  0  0  0  0  0  0  0  0  0
   -2.8283   -2.2543   -0.3890 C   0  0  2  0  0  0  0  0  0  0  0  0
   -4.1304    0.2921    0.5712 C   0  0  2  0  0  0  0  0  0  0  0  0
   -3.1432    0.2419   -0.6147 C   0  0  0  0  0  0  0  0  0  0  0  0
   -4.7877   -1.3304   -1.6088 C   0  0  0  0  0  0  0  0  0  0  0  0
   -3.5476   -2.0368    0.9729 C   0  0  0  0  0  0  0  0  0  0  0  0
   -5.5269   -1.4706   -0.2666 C   0  0  0  0  0  0  0  0  0  0  0  0
   -1.3353   -2.4977   -0.2210 C   0  0  0  0  0  0  0  0  0  0  0  0
   -3.5100    0.9566    1.8020 C   0  0  0  0  0  0  0  0  0  0  0  0
   -0.2674   -1.6364   -0.2839 C   0  0  0  0  0  0  0  0  0  0  0  0
    0.8559   -2.4506   -0.0450 C   0  0  0  0  0  0  0  0  0  0  0  0
   -1.5321   -4.9668    0.2035 C   0  0  0  0  0  0  0  0  0  0  0  0
   -1.7995    2.7525    1.6209 C   0  0  0  0  0  0  0  0  0  0  0  0
    2.2318   -2.0287   -0.0026 C   0  0  0  0  0  0  0  0  0  0  0  0
   -1.6657    4.2143    1.2512 C   0  0  0  0  0  0  0  0  0  0  0  0
    2.5522   -0.7360    0.4130 C   0  0  0  0  0  0  0  0  0  0  0  0
    3.2415   -2.9110   -0.3756 C   0  0  0  0  0  0  0  0  0  0  0  0
    3.8893   -0.3093    0.4605 C   0  0  0  0  0  0  0  0  0  0  0  0
    4.5753   -2.5040   -0.3345 C   0  0  0  0  0  0  0  0  0  0  0  0
    4.9160   -1.2065    0.0812 C   0  0  0  0  0  0  0  0  0  0  0  0
    4.2301    0.9882    0.8760 C   0  0  0  0  0  0  0  0  0  0  0  0
    6.2532   -0.7798    0.1285 C   0  0  0  0  0  0  0  0  0  0  0  0
   -0.0518    3.7887   -0.4427 C   0  0  0  0  0  0  0  0  0  0  0  0
    5.5639    1.3953    0.9170 C   0  0  0  0  0  0  0  0  0  0  0  0
    6.5735    0.5130    0.5439 C   0  0  0  0  0  0  0  0  0  0  0  0
   -1.0424    3.3998   -1.3444 C   0  0  0  0  0  0  0  0  0  0  0  0
    1.2844    3.4824   -0.6997 C   0  0  0  0  0  0  0  0  0  0  0  0
   -0.6966    2.7043   -2.5032 C   0  0  0  0  0  0  0  0  0  0  0  0
    1.6303    2.7870   -1.8583 C   0  0  0  0  0  0  0  0  0  0  0  0
    0.6396    2.3978   -2.7601 C   0  0  0  0  0  0  0  0  0  0  0  0
   -2.7135   -1.1156   -2.2755 H   0  0  0  0  0  0  0  0  0  0  0  0
   -3.2339   -3.1775   -0.8296 H   0  0  0  0  0  0  0  0  0  0  0  0
   -4.9791    0.9283    0.2776 H   0  0  0  0  0  0  0  0  0  0  0  0
   -2.1168    0.4075   -0.2868 H   0  0  0  0  0  0  0  0  0  0  0  0
   -3.3837    1.0515   -1.3152 H   0  0  0  0  0  0  0  0  0  0  0  0
   -4.9429   -2.2304   -2.2152 H   0  0  0  0  0  0  0  0  0  0  0  0
   -5.1911   -0.4832   -2.1768 H   0  0  0  0  0  0  0  0  0  0  0  0
   -3.9507   -2.9965    1.3225 H   0  0  0  0  0  0  0  0  0  0  0  0
   -2.8446   -1.7305    1.7559 H   0  0  0  0  0  0  0  0  0  0  0  0
   -6.4403   -0.8632   -0.2791 H   0  0  0  0  0  0  0  0  0  0  0  0
   -5.8644   -2.5052   -0.1245 H   0  0  0  0  0  0  0  0  0  0  0  0
   -2.6510    0.3946    2.1809 H   0  0  0  0  0  0  0  0  0  0  0  0
   -4.2483    1.0125    2.6100 H   0  0  0  0  0  0  0  0  0  0  0  0
   -0.2834   -0.5777   -0.4907 H   0  0  0  0  0  0  0  0  0  0  0  0
   -3.8411    2.9598    1.2530 H   0  0  0  0  0  0  0  0  0  0  0  0
   -1.9858   -5.2292   -0.7551 H   0  0  0  0  0  0  0  0  0  0  0  0
   -0.8398   -5.7553    0.5113 H   0  0  0  0  0  0  0  0  0  0  0  0
   -2.2938   -4.8319    0.9744 H   0  0  0  0  0  0  0  0  0  0  0  0
   -2.4754    4.5825    0.6132 H   0  0  0  0  0  0  0  0  0  0  0  0
   -1.7358    4.7807    2.1873 H   0  0  0  0  0  0  0  0  0  0  0  0
    1.7694   -0.0422    0.7165 H   0  0  0  0  0  0  0  0  0  0  0  0
    3.0226   -3.9217   -0.7118 H   0  0  0  0  0  0  0  0  0  0  0  0
    5.3483   -3.2095   -0.6322 H   0  0  0  0  0  0  0  0  0  0  0  0
    3.4580    1.6944    1.1739 H   0  0  0  0  0  0  0  0  0  0  0  0
    7.0587   -1.4524   -0.1586 H   0  0  0  0  0  0  0  0  0  0  0  0
    5.8138    2.4016    1.2405 H   0  0  0  0  0  0  0  0  0  0  0  0
    7.6117    0.8306    0.5761 H   0  0  0  0  0  0  0  0  0  0  0  0
   -2.0923    3.6338   -1.2064 H   0  0  0  0  0  0  0  0  0  0  0  0
    2.0599    3.7823   -0.0004 H   0  0  0  0  0  0  0  0  0  0  0  0
   -1.4671    2.4043   -3.2075 H   0  0  0  0  0  0  0  0  0  0  0  0
    2.6706    2.5470   -2.0574 H   0  0  0  0  0  0  0  0  0  0  0  0
    0.9089    1.8560   -3.6619 H   0  0  0  0  0  0  0  0  0  0  0  0
  1 19  2  0  0  0  0
  2 21  1  0  0  0  0
  2 29  1  0  0  0  0
  3  9  1  0  0  0  0
  3 12  1  0  0  0  0
  3 13  1  0  0  0  0
  4  6  1  0  0  0  0
  4 14  1  0  0  0  0
  4 18  1  0  0  0  0
  5 15  1  0  0  0  0
  5 19  1  0  0  0  0
  5 51  1  0  0  0  0
  6 17  2  0  0  0  0
  7  8  1  0  0  0  0
  7 10  1  0  0  0  0
  7 11  1  0  0  0  0
  7 37  1  0  0  0  0
  8 12  1  0  0  0  0
  8 14  1  0  0  0  0
  8 38  1  0  0  0  0
  9 10  1  0  0  0  0
  9 15  1  0  0  0  0
  9 39  1  0  0  0  0
 10 40  1  0  0  0  0
 10 41  1  0  0  0  0
 11 13  1  0  0  0  0
 11 42  1  0  0  0  0
 11 43  1  0  0  0  0
 12 44  1  0  0  0  0
 12 45  1  0  0  0  0
 13 46  1  0  0  0  0
 13 47  1  0  0  0  0
 14 16  2  0  0  0  0
 15 48  1  0  0  0  0
 15 49  1  0  0  0  0
 16 17  1  0  0  0  0
 16 50  1  0  0  0  0
 17 20  1  0  0  0  0
 18 52  1  0  0  0  0
 18 53  1  0  0  0  0
 18 54  1  0  0  0  0
 19 21  1  0  0  0  0
 20 22  2  0  0  0  0
 20 23  1  0  0  0  0
 21 55  1  0  0  0  0
 21 56  1  0  0  0  0
 22 24  1  0  0  0  0
 22 57  1  0  0  0  0
 23 25  2  0  0  0  0
 23 58  1  0  0  0  0
 24 26  1  0  0  0  0
 24 27  2  0  0  0  0
 25 26  1  0  0  0  0
 25 59  1  0  0  0  0
 26 28  2  0  0  0  0
 27 30  1  0  0  0  0
 27 60  1  0  0  0  0
 28 31  1  0  0  0  0
 28 61  1  0  0  0  0
 29 32  2  0  0  0  0
 29 33  1  0  0  0  0
 30 31  2  0  0  0  0
 30 62  1  0  0  0  0
 31 63  1  0  0  0  0
 32 34  1  0  0  0  0
 32 64  1  0  0  0  0
 33 35  2  0  0  0  0
 33 65  1  0  0  0  0
 34 36  2  0  0  0  0
 34 66  1  0  0  0  0
 35 36  1  0  0  0  0
 35 67  1  0  0  0  0
 36 68  1  0  0  0  0
M  END
> <PUBCHEM_COMPOUND_CID>
40779445

> <PUBCHEM_CONFORMER_RMSD>
1.2

> <PUBCHEM_CONFORMER_DIVERSEORDER>
4
18
65
52
12
36
17
55
54
8
9
25
29
33
74
79
89
58
51
86
5
28
76
46
1
56
38
11
82
24
22
90
53
49
26
85
15
21
62
70
31
14
23
16
59
91
40
83
19
32
81
43
77
20
13
35
3
73
47
10
7
88
63
30
75
50
48
27
66
69
2
44
71
78
92
34
57
39
6
61
64
37
67
87
68
80
45
42
60
41
72
84

> <PUBCHEM_MMFF94_PARTIAL_CHARGES>
45
1 -0.57
12 0.27
13 0.27
14 -0.33
15 0.3
16 -0.15
17 0.23
18 0.26
19 0.57
2 -0.36
20 0.05
21 0.34
22 -0.15
23 -0.15
25 -0.15
27 -0.15
28 -0.15
29 0.08
3 -0.81
30 -0.15
31 -0.15
32 -0.15
33 -0.15
34 -0.15
35 -0.15
36 -0.15
4 0.31
5 -0.73
50 0.15
51 0.37
57 0.15
58 0.15
59 0.15
6 -0.71
60 0.15
61 0.15
62 0.15
63 0.15
64 0.15
65 0.15
66 0.15
67 0.15
68 0.15
8 0.18
9 0.27

> <PUBCHEM_EFFECTIVE_ROTOR_COUNT>
9.2

> <PUBCHEM_PHARMACOPHORE_FEATURES>
10
1 1 acceptor
1 2 acceptor
1 3 cation
1 5 donor
1 6 acceptor
5 4 6 14 16 17 rings
6 20 22 23 24 25 26 rings
6 24 26 27 28 30 31 rings
6 29 32 33 34 35 36 rings
8 3 7 8 9 10 11 12 13 rings

> <PUBCHEM_HEAVY_ATOM_COUNT>
36

> <PUBCHEM_ATOM_DEF_STEREO_COUNT>
3

> <PUBCHEM_ATOM_UDEF_STEREO_COUNT>
0

> <PUBCHEM_BOND_DEF_STEREO_COUNT>
0

> <PUBCHEM_BOND_UDEF_STEREO_COUNT>
0

> <PUBCHEM_ISOTOPIC_ATOM_COUNT>
0

> <PUBCHEM_COMPONENT_COUNT>
1

> <PUBCHEM_CACTVS_TAUTO_COUNT>
2

> <PUBCHEM_CONFORMER_ID>
026E3EB500000004

> <PUBCHEM_MMFF94_ENERGY>
100.9704

> <PUBCHEM_FEATURE_SELFOVERLAP>
50.779

> <PUBCHEM_SHAPE_FINGERPRINT>
10049733 16 18194141801011663420
10079526 769 18263083361335602844
10190206 1 17973192736207820420
10305334 12 17487346945289029849
10439779 11 17544748393384658616
10670039 82 18342738486417187866
10815517 723 18411421705065369430
10816530 145 18188203303632680002
1100329 8 18266177434005768451
11513181 2 17917436375927773814
12100795 323 17543918901401576697
12156800 1 17843152257826763676
12677640 9 17260743466145979054
13383668 90 17060063661739635142
140371 6 18338242664711911022
14279260 333 17129586731716438806
14394314 77 18272094898566153361
144659 178 18196093459165920720
14840074 17 18260840275720910096
15001296 14 18119248617476662184
150020 26 17755588491872901537
15297060 5 18130797710993057688
15320467 1 18341331192858386536
15351339 4 17545046356651453168
15419008 145 18338505341329008842
17627616 140 17760094307772091848
17899979 19 18334011692512848885
18336668 15 18335419114282553797
19611394 137 18044102477817290619
20764821 26 17549261888173197603
21716022 299 15975492429399881799
21795232 40 18119789533762572060
25019877 29 17703795846339171431
3493558 16 18270123538536038722
373842 8 18265899240499785442
463206 1 18193844957708063241
469060 322 18040719113134358956
474144 1 18044113455615853572
50150288 127 17058362570869584321
50677037 204 18413108377197970232
653340 110 18267863891933161040
9961470 85 18051683645044904041

> <PUBCHEM_SHAPE_MULTIPOLES>
709.2
11.62
6.62
1.81
11.58
1.87
-0.61
-5.03
2.37
-2.04
-0.37
-1.19
2.18
-0.9

> <PUBCHEM_SHAPE_SELFOVERLAP>
1561.302

> <PUBCHEM_SHAPE_VOLUME>
378.9

> <PUBCHEM_COORDINATE_TYPE>
2
5
10

$$$$
