45783809
  -OEChem-12032416263D

 53 56  0     1  0  0  0  0  0999 V2000
   -1.1561   -0.8969    2.1755 O   0  0  0  0  0  0  0  0  0  0  0  0
   -2.2130    1.2700   -2.1139 O   0  0  0  0  0  0  0  0  0  0  0  0
   -3.4099   -0.8942   -0.5206 N   0  0  1  0  0  0  0  0  0  0  0  0
   -0.3538   -1.2537    0.1149 N   0  0  0  0  0  0  0  0  0  0  0  0
    0.2064   -0.5762    2.2271 N   0  0  0  0  0  0  0  0  0  0  0  0
    4.2275    0.0358    1.1008 N   0  0  0  0  0  0  0  0  0  0  0  0
    5.9082   -0.0288   -0.5863 N   0  0  0  0  0  0  0  0  0  0  0  0
   -2.8270   -1.6903    0.5780 C   0  0  1  0  0  0  0  0  0  0  0  0
   -2.9386   -3.1512    0.1043 C   0  0  0  0  0  0  0  0  0  0  0  0
   -3.6507   -3.0805   -1.2391 C   0  0  0  0  0  0  0  0  0  0  0  0
   -4.3877   -1.7576   -1.1830 C   0  0  0  0  0  0  0  0  0  0  0  0
   -4.0013    0.3593   -0.0706 C   0  0  0  0  0  0  0  0  0  0  0  0
   -1.4028   -1.2865    0.8973 C   0  0  0  0  0  0  0  0  0  0  0  0
   -2.9584    1.4206    0.1595 C   0  0  0  0  0  0  0  0  0  0  0  0
   -2.1135    1.8256   -0.8737 C   0  0  0  0  0  0  0  0  0  0  0  0
   -2.8422    1.9998    1.4230 C   0  0  0  0  0  0  0  0  0  0  0  0
    0.6091   -0.8118    0.9748 C   0  0  0  0  0  0  0  0  0  0  0  0
   -1.1524    2.8099   -0.6436 C   0  0  0  0  0  0  0  0  0  0  0  0
   -1.8810    2.9842    1.6534 C   0  0  0  0  0  0  0  0  0  0  0  0
    1.9657   -0.6176    0.5512 C   0  0  0  0  0  0  0  0  0  0  0  0
   -1.0361    3.3892    0.6201 C   0  0  0  0  0  0  0  0  0  0  0  0
    2.3507   -0.8744   -0.7601 C   0  0  0  0  0  0  0  0  0  0  0  0
    2.9334   -0.1681    1.4349 C   0  0  0  0  0  0  0  0  0  0  0  0
   -1.3092    1.7438   -3.1102 C   0  0  0  0  0  0  0  0  0  0  0  0
    3.6731   -0.6767   -1.1419 C   0  0  0  0  0  0  0  0  0  0  0  0
    4.5645   -0.2244   -0.1823 C   0  0  0  0  0  0  0  0  0  0  0  0
    6.3043   -0.2983   -1.9508 C   0  0  0  0  0  0  0  0  0  0  0  0
    6.8908    0.4489    0.3613 C   0  0  0  0  0  0  0  0  0  0  0  0
   -3.4325   -1.5962    1.4906 H   0  0  0  0  0  0  0  0  0  0  0  0
   -1.9753   -3.6633    0.0078 H   0  0  0  0  0  0  0  0  0  0  0  0
   -3.5514   -3.7218    0.8130 H   0  0  0  0  0  0  0  0  0  0  0  0
   -4.3226   -3.9292   -1.3967 H   0  0  0  0  0  0  0  0  0  0  0  0
   -2.9134   -3.0733   -2.0516 H   0  0  0  0  0  0  0  0  0  0  0  0
   -5.3073   -1.8591   -0.5928 H   0  0  0  0  0  0  0  0  0  0  0  0
   -4.6443   -1.3976   -2.1841 H   0  0  0  0  0  0  0  0  0  0  0  0
   -4.6741    0.7552   -0.8446 H   0  0  0  0  0  0  0  0  0  0  0  0
   -4.6324    0.2135    0.8161 H   0  0  0  0  0  0  0  0  0  0  0  0
   -3.4913    1.6934    2.2389 H   0  0  0  0  0  0  0  0  0  0  0  0
   -0.4613    3.1738   -1.3959 H   0  0  0  0  0  0  0  0  0  0  0  0
   -1.7895    3.4342    2.6375 H   0  0  0  0  0  0  0  0  0  0  0  0
   -0.2872    4.1548    0.8010 H   0  0  0  0  0  0  0  0  0  0  0  0
    1.6415   -1.2280   -1.5042 H   0  0  0  0  0  0  0  0  0  0  0  0
    2.7152    0.0556    2.4749 H   0  0  0  0  0  0  0  0  0  0  0  0
   -1.5296    1.1947   -4.0315 H   0  0  0  0  0  0  0  0  0  0  0  0
   -0.2688    1.5207   -2.8496 H   0  0  0  0  0  0  0  0  0  0  0  0
   -1.4676    2.8055   -3.3279 H   0  0  0  0  0  0  0  0  0  0  0  0
    3.9304   -0.8884   -2.1725 H   0  0  0  0  0  0  0  0  0  0  0  0
    7.3716   -0.1010   -2.1040 H   0  0  0  0  0  0  0  0  0  0  0  0
    5.7708    0.3465   -2.6583 H   0  0  0  0  0  0  0  0  0  0  0  0
    6.1489   -1.3508   -2.2136 H   0  0  0  0  0  0  0  0  0  0  0  0
    7.8840    0.5493   -0.0891 H   0  0  0  0  0  0  0  0  0  0  0  0
    6.9862   -0.2450    1.2038 H   0  0  0  0  0  0  0  0  0  0  0  0
    6.6090    1.4345    0.7479 H   0  0  0  0  0  0  0  0  0  0  0  0
  1  5  1  0  0  0  0
  1 13  1  0  0  0  0
  2 15  1  0  0  0  0
  2 24  1  0  0  0  0
  3  8  1  0  0  0  0
  3 11  1  0  0  0  0
  3 12  1  0  0  0  0
  4 13  2  0  0  0  0
  4 17  1  0  0  0  0
  5 17  2  0  0  0  0
  6 23  1  0  0  0  0
  6 26  2  0  0  0  0
  7 26  1  0  0  0  0
  7 27  1  0  0  0  0
  7 28  1  0  0  0  0
  8  9  1  0  0  0  0
  8 13  1  0  0  0  0
  8 29  1  0  0  0  0
  9 10  1  0  0  0  0
  9 30  1  0  0  0  0
  9 31  1  0  0  0  0
 10 11  1  0  0  0  0
 10 32  1  0  0  0  0
 10 33  1  0  0  0  0
 11 34  1  0  0  0  0
 11 35  1  0  0  0  0
 12 14  1  0  0  0  0
 12 36  1  0  0  0  0
 12 37  1  0  0  0  0
 14 15  1  0  0  0  0
 14 16  2  0  0  0  0
 15 18  2  0  0  0  0
 16 19  1  0  0  0  0
 16 38  1  0  0  0  0
 17 20  1  0  0  0  0
 18 21  1  0  0  0  0
 18 39  1  0  0  0  0
 19 21  2  0  0  0  0
 19 40  1  0  0  0  0
 20 22  1  0  0  0  0
 20 23  2  0  0  0  0
 21 41  1  0  0  0  0
 22 25  2  0  0  0  0
 22 42  1  0  0  0  0
 23 43  1  0  0  0  0
 24 44  1  0  0  0  0
 24 45  1  0  0  0  0
 24 46  1  0  0  0  0
 25 26  1  0  0  0  0
 25 47  1  0  0  0  0
 27 48  1  0  0  0  0
 27 49  1  0  0  0  0
 27 50  1  0  0  0  0
 28 51  1  0  0  0  0
 28 52  1  0  0  0  0
 28 53  1  0  0  0  0
M  END
> <PUBCHEM_COMPOUND_CID>
45783809

> <PUBCHEM_CONFORMER_RMSD>
0.8

> <PUBCHEM_CONFORMER_DIVERSEORDER>
1
173
77
185
64
33
190
128
122
78
163
92
150
28
118
12
69
146
178
2
130
124
114
57
188
183
172
159
67
36
176
132
83
42
162
23
145
73
76
55
166
115
175
103
111
184
63
164
48
25
35
131
134
187
179
135
72
34
104
87
108
3
142
147
174
30
100
154
110
44
127
167
61
14
168
58
112
170
105
139
82
4
120
113
39
43
161
141
65
136
123
189
15
71
13
158
66
88
151
138
169
22
54
97
116
106
70
46
74
20
95
80
165
109
107
29
17
51
93
157
153
126
21
79
149
140
85
121
117
32
181
152
26
155
19
75
59
101
9
86
40
182
148
99
160
125
5
37
84
81
129
60
11
156
50
94
7
186
143
98
177
41
53
102
171
49
24
180
18
133
144
96
38
8
31
137
56
119
16
91
52
89
10
45
62
6
90
68
47
27

> <PUBCHEM_MMFF94_PARTIAL_CHARGES>
33
1 -0.02
11 0.27
12 0.41
13 0.3
14 -0.14
15 0.08
16 -0.15
17 0.46
18 -0.15
19 -0.15
2 -0.36
20 0.05
21 -0.15
22 -0.15
23 0.16
24 0.28
25 -0.15
26 0.41
27 0.37
28 0.37
3 -0.81
38 0.15
39 0.15
4 -0.57
40 0.15
41 0.15
42 0.15
43 0.15
47 0.15
5 -0.41
6 -0.62
7 -0.84
8 0.45

> <PUBCHEM_EFFECTIVE_ROTOR_COUNT>
7

> <PUBCHEM_PHARMACOPHORE_FEATURES>
8
1 2 acceptor
1 3 cation
3 4 5 17 cation
3 6 7 26 cation
5 1 4 5 13 17 rings
5 3 8 9 10 11 rings
6 14 15 16 18 19 21 rings
6 6 20 22 23 25 26 rings

> <PUBCHEM_HEAVY_ATOM_COUNT>
28

> <PUBCHEM_ATOM_DEF_STEREO_COUNT>
1

> <PUBCHEM_ATOM_UDEF_STEREO_COUNT>
0

> <PUBCHEM_BOND_DEF_STEREO_COUNT>
0

> <PUBCHEM_BOND_UDEF_STEREO_COUNT>
0

> <PUBCHEM_ISOTOPIC_ATOM_COUNT>
0

> <PUBCHEM_COMPONENT_COUNT>
1

> <PUBCHEM_CACTVS_TAUTO_COUNT>
1

> <PUBCHEM_CONFORMER_ID>
02BA9B0100000001

> <PUBCHEM_MMFF94_ENERGY>
82.5399

> <PUBCHEM_FEATURE_SELFOVERLAP>
40.598

> <PUBCHEM_SHAPE_FINGERPRINT>
107951 10 17487064353958210737
10871710 139 17604142641169096877
10937287 8 17692534407708279897
11477941 20 18339924917734692964
12166972 35 16443912811210361774
12173636 292 17982163427565096649
12788726 201 18335974311946613307
13761468 95 17826522054842509364
13994607 96 17241059737948685595
14142880 1 17896325710199658589
14713325 29 18272657813579184135
14910302 57 18130786720377910062
14955137 171 18339938112269579139
15183329 4 17749677295174067942
15463212 79 18335704871183422963
15849732 13 18272381880249580379
15961568 22 18194672899113259240
17492 54 17896298282827974933
17686467 74 18118117211832657408
19438510 23 13335831900804805319
19958102 18 18335417929272812454
20775438 99 16826972973235618167
21033650 10 18191326917841457322
21623110 236 18115882943390399772
22393880 68 18130797703147466734
23419403 2 17763420249327214157
23557571 272 18343581858383876362
469060 322 17386305232847619257
497634 4 17489040326481591810
531348 171 18270691848762074326
57527585 103 17316773384205848353
7237137 82 18409166627933063736

> <PUBCHEM_SHAPE_MULTIPOLES>
539.58
11.63
3.43
2.15
24.7
1.11
-0.84
-3.11
-3.41
-5.83
-0.05
-0.25
0.67
-0.26

> <PUBCHEM_SHAPE_SELFOVERLAP>
1163.687

> <PUBCHEM_SHAPE_VOLUME>
299.2

> <PUBCHEM_COORDINATE_TYPE>
2
5
10

$$$$
