71693260
  -OEChem-12032416233D

 46 48  0     1  0  0  0  0  0999 V2000
   -3.7979    1.4334    0.2886 O   0  0  0  0  0  0  0  0  0  0  0  0
    6.8780   -0.9967    0.3690 O   0  0  0  0  0  0  0  0  0  0  0  0
   -3.6978   -2.7105    0.7438 O   0  0  0  0  0  0  0  0  0  0  0  0
    3.3994    0.0172    1.2567 O   0  0  0  0  0  0  0  0  0  0  0  0
   -7.2542    0.4799    0.1746 O   0  0  0  0  0  0  0  0  0  0  0  0
   -5.3821   -0.7126   -0.4089 N   0  0  0  0  0  0  0  0  0  0  0  0
    2.3764    0.7116   -0.7454 N   0  0  0  0  0  0  0  0  0  0  0  0
    4.7537    0.7228   -0.5631 C   0  0  0  0  0  0  0  0  0  0  0  0
   -3.2033    0.1317    0.3621 C   0  0  1  0  0  0  0  0  0  0  0  0
   -3.9410   -0.7748   -0.6354 C   0  0  1  0  0  0  0  0  0  0  0  0
    5.2245   -0.5061   -1.3405 C   0  0  0  0  0  0  0  0  0  0  0  0
    5.7980    1.1807    0.4547 C   0  0  0  0  0  0  0  0  0  0  0  0
    5.8382   -1.5612   -0.4270 C   0  0  0  0  0  0  0  0  0  0  0  0
    6.3888    0.0171    1.2443 C   0  0  0  0  0  0  0  0  0  0  0  0
   -1.7267    0.2848    0.0686 C   0  0  0  0  0  0  0  0  0  0  0  0
    3.4401    0.4386    0.1053 C   0  0  0  0  0  0  0  0  0  0  0  0
   -3.4709   -2.2261   -0.5667 C   0  0  0  0  0  0  0  0  0  0  0  0
   -5.1284    1.4221    0.7625 C   0  0  0  0  0  0  0  0  0  0  0  0
    0.9957    0.5677   -0.4712 C   0  0  0  0  0  0  0  0  0  0  0  0
   -6.0286    0.3760    0.1334 C   0  0  0  0  0  0  0  0  0  0  0  0
   -0.7847   -0.0369    1.0459 C   0  0  0  0  0  0  0  0  0  0  0  0
   -1.3073    0.7476   -1.1787 C   0  0  0  0  0  0  0  0  0  0  0  0
    0.5764    0.1045    0.7761 C   0  0  0  0  0  0  0  0  0  0  0  0
    0.0538    0.8892   -1.4486 C   0  0  0  0  0  0  0  0  0  0  0  0
    4.6048    1.5498   -1.2706 H   0  0  0  0  0  0  0  0  0  0  0  0
   -3.3316   -0.2369    1.3893 H   0  0  0  0  0  0  0  0  0  0  0  0
   -3.8116   -0.4080   -1.6605 H   0  0  0  0  0  0  0  0  0  0  0  0
    5.9949   -0.1794   -2.0510 H   0  0  0  0  0  0  0  0  0  0  0  0
    4.4111   -0.9496   -1.9258 H   0  0  0  0  0  0  0  0  0  0  0  0
    5.3866    1.9293    1.1416 H   0  0  0  0  0  0  0  0  0  0  0  0
    6.6143    1.6637   -0.0981 H   0  0  0  0  0  0  0  0  0  0  0  0
    6.2795   -2.3603   -1.0314 H   0  0  0  0  0  0  0  0  0  0  0  0
    5.0858   -2.0218    0.2233 H   0  0  0  0  0  0  0  0  0  0  0  0
    7.2384    0.3764    1.8347 H   0  0  0  0  0  0  0  0  0  0  0  0
    5.6795   -0.4229    1.9520 H   0  0  0  0  0  0  0  0  0  0  0  0
   -5.9604   -1.4301   -0.8360 H   0  0  0  0  0  0  0  0  0  0  0  0
   -2.4063   -2.3188   -0.8016 H   0  0  0  0  0  0  0  0  0  0  0  0
   -4.0348   -2.8512   -1.2676 H   0  0  0  0  0  0  0  0  0  0  0  0
   -5.5591    2.4077    0.5590 H   0  0  0  0  0  0  0  0  0  0  0  0
   -5.1282    1.2714    1.8480 H   0  0  0  0  0  0  0  0  0  0  0  0
    2.5911    1.0487   -1.6814 H   0  0  0  0  0  0  0  0  0  0  0  0
   -1.0973   -0.3993    2.0216 H   0  0  0  0  0  0  0  0  0  0  0  0
   -2.0240    1.0154   -1.9498 H   0  0  0  0  0  0  0  0  0  0  0  0
    1.2458   -0.1638    1.5813 H   0  0  0  0  0  0  0  0  0  0  0  0
    0.3670    1.2536   -2.4236 H   0  0  0  0  0  0  0  0  0  0  0  0
   -3.3929   -3.6335    0.7654 H   0  0  0  0  0  0  0  0  0  0  0  0
  1  9  1  0  0  0  0
  1 18  1  0  0  0  0
  2 13  1  0  0  0  0
  2 14  1  0  0  0  0
  3 17  1  0  0  0  0
  3 46  1  0  0  0  0
  4 16  2  0  0  0  0
  5 20  2  0  0  0  0
  6 10  1  0  0  0  0
  6 20  1  0  0  0  0
  6 36  1  0  0  0  0
  7 16  1  0  0  0  0
  7 19  1  0  0  0  0
  7 41  1  0  0  0  0
  8 11  1  0  0  0  0
  8 12  1  0  0  0  0
  8 16  1  0  0  0  0
  8 25  1  0  0  0  0
  9 10  1  0  0  0  0
  9 15  1  0  0  0  0
  9 26  1  0  0  0  0
 10 17  1  0  0  0  0
 10 27  1  0  0  0  0
 11 13  1  0  0  0  0
 11 28  1  0  0  0  0
 11 29  1  0  0  0  0
 12 14  1  0  0  0  0
 12 30  1  0  0  0  0
 12 31  1  0  0  0  0
 13 32  1  0  0  0  0
 13 33  1  0  0  0  0
 14 34  1  0  0  0  0
 14 35  1  0  0  0  0
 15 21  2  0  0  0  0
 15 22  1  0  0  0  0
 17 37  1  0  0  0  0
 17 38  1  0  0  0  0
 18 20  1  0  0  0  0
 18 39  1  0  0  0  0
 18 40  1  0  0  0  0
 19 23  2  0  0  0  0
 19 24  1  0  0  0  0
 21 23  1  0  0  0  0
 21 42  1  0  0  0  0
 22 24  2  0  0  0  0
 22 43  1  0  0  0  0
 23 44  1  0  0  0  0
 24 45  1  0  0  0  0
M  END
> <PUBCHEM_COMPOUND_CID>
71693260

> <PUBCHEM_CONFORMER_RMSD>
0.8

> <PUBCHEM_CONFORMER_DIVERSEORDER>
1
35
41
50
13
37
16
24
30
5
10
51
12
15
18
6
22
26
40
52
46
36
33
49
19
48
38
47
34
27
31
4
11
23
17
7
45
39
28
29
43
20
32
14
2
21
44
25
8
3
9
42

> <PUBCHEM_MMFF94_PARTIAL_CHARGES>
29
1 -0.56
10 0.3
13 0.28
14 0.28
15 -0.14
16 0.57
17 0.28
18 0.34
19 0.12
2 -0.56
20 0.57
21 -0.15
22 -0.15
23 -0.15
24 -0.15
3 -0.68
36 0.37
4 -0.57
41 0.37
42 0.15
43 0.15
44 0.15
45 0.15
46 0.4
5 -0.57
6 -0.73
7 -0.55
8 0.06
9 0.42

> <PUBCHEM_EFFECTIVE_ROTOR_COUNT>
7.2

> <PUBCHEM_PHARMACOPHORE_FEATURES>
11
1 1 acceptor
1 2 acceptor
1 3 acceptor
1 3 donor
1 4 acceptor
1 5 acceptor
1 6 donor
1 7 donor
6 1 6 9 10 18 20 rings
6 15 19 21 22 23 24 rings
6 2 8 11 12 13 14 rings

> <PUBCHEM_HEAVY_ATOM_COUNT>
24

> <PUBCHEM_ATOM_DEF_STEREO_COUNT>
2

> <PUBCHEM_ATOM_UDEF_STEREO_COUNT>
0

> <PUBCHEM_BOND_DEF_STEREO_COUNT>
0

> <PUBCHEM_BOND_UDEF_STEREO_COUNT>
0

> <PUBCHEM_ISOTOPIC_ATOM_COUNT>
0

> <PUBCHEM_COMPONENT_COUNT>
1

> <PUBCHEM_CACTVS_TAUTO_COUNT>
9

> <PUBCHEM_CONFORMER_ID>
0445F3CC00000001

> <PUBCHEM_MMFF94_ENERGY>
65.3154

> <PUBCHEM_FEATURE_SELFOVERLAP>
55.827

> <PUBCHEM_SHAPE_FINGERPRINT>
10 15 16917060071640579704
11045977 3 17988922318286705729
11315181 36 17561085830355399513
11524674 6 17632857529621463351
11719270 70 16988844952071331318
11796584 16 18272653467410111598
12236239 1 18187085083137567837
12516196 113 18202001036173278856
12596602 18 17989484135123271458
12616971 3 17386009502483900580
13533116 47 17346321449907403790
13583140 156 17489305312683122827
13862211 1 17167860868073956944
1420 363 16370725924441659544
14251764 18 16988840584042046413
14251764 46 18411700976386305257
14840074 17 17458064863065468511
15183329 4 18260832587792532886
15348495 7 17988357178258607626
15537594 2 17385719196917591171
15788980 27 17561083626530819677
15849732 13 17967535671287942919
17844677 252 18202006542632679768
17857418 61 18335135393433501722
19489759 90 18060420209973266281
20281389 69 17775567520198615233
21033648 29 16200139967867097713
21150785 3 12612759004046882446
21267235 1 16805608053140860309
21641784 216 15285642032563827878
220451 1 18187086157095585102
23035841 295 18186800283703124227
23198884 109 18342740711188901305
23402539 116 17967811673595538629
23522609 53 17677922070327244180
23536379 177 18272652333406454416
23559900 14 18270392918848057129
23569943 247 17824258190186485482
29717793 49 18040437690081948948
3004659 81 18343026575843637038
351380 3 17530963587808994676
4073 2 18336267946271021018
4340502 62 17847063264174148718
5104073 3 18339647861609221833
559249 180 18408040732648664895
59755656 215 18411704244492680807
59755656 520 16587744257178353899

> <PUBCHEM_SHAPE_MULTIPOLES>
454.6
18.84
1.62
1.18
6.58
1.03
0.09
1.57
-2.42
-1.29
-0.07
0.8
-0.05
0

> <PUBCHEM_SHAPE_SELFOVERLAP>
960.143

> <PUBCHEM_SHAPE_VOLUME>
249.7

> <PUBCHEM_COORDINATE_TYPE>
2
5
10

$$$$
