9422184
  -OEChem-12032416153D

 62 66  0     1  0  0  0  0  0999 V2000
   -2.2026   -1.5742    1.9017 O   0  0  0  0  0  0  0  0  0  0  0  0
    2.9199   -0.4999    2.0633 O   0  0  0  0  0  0  0  0  0  0  0  0
    3.1428    2.5330   -1.9383 O   0  0  0  0  0  0  0  0  0  0  0  0
   -0.6584   -2.2278    0.2781 N   0  0  0  0  0  0  0  0  0  0  0  0
    2.5097   -1.8371    0.2200 N   0  0  0  0  0  0  0  0  0  0  0  0
    2.7941    0.4921   -0.0285 N   0  0  0  0  0  0  0  0  0  0  0  0
    1.2134   -3.9089    0.7488 C   0  0  2  0  0  0  0  0  0  0  0  0
    1.0225   -2.8893   -1.4787 C   0  0  2  0  0  0  0  0  0  0  0  0
    1.1203   -4.2209   -0.7394 C   0  0  0  0  0  0  0  0  0  0  0  0
   -0.0805   -3.2189    1.1957 C   0  0  0  0  0  0  0  0  0  0  0  0
    2.4567   -3.0518    1.0390 C   0  0  0  0  0  0  0  0  0  0  0  0
    2.2941   -2.0532   -1.2223 C   0  0  0  0  0  0  0  0  0  0  0  0
   -0.2004   -2.1065   -1.0364 C   0  0  0  0  0  0  0  0  0  0  0  0
   -3.5682    0.2707    0.2701 C   0  0  0  0  0  0  0  0  0  0  0  0
   -2.4091   -0.5468   -0.2156 C   0  0  0  0  0  0  0  0  0  0  0  0
   -1.7561   -1.4862    0.7569 C   0  0  0  0  0  0  0  0  0  0  0  0
   -0.8199   -1.2765   -1.8913 C   0  0  0  0  0  0  0  0  0  0  0  0
   -3.2576    1.7712    0.1724 C   0  0  0  0  0  0  0  0  0  0  0  0
   -4.8443   -0.0732   -0.5114 C   0  0  0  0  0  0  0  0  0  0  0  0
   -1.9401   -0.4858   -1.4685 C   0  0  0  0  0  0  0  0  0  0  0  0
   -4.4446    2.6238    0.6165 C   0  0  0  0  0  0  0  0  0  0  0  0
   -6.0278    0.7831   -0.0654 C   0  0  0  0  0  0  0  0  0  0  0  0
   -5.7111    2.2722   -0.1572 C   0  0  0  0  0  0  0  0  0  0  0  0
    2.7492   -0.5934    0.8450 C   0  0  0  0  0  0  0  0  0  0  0  0
    2.5260    1.8490    0.2776 C   0  0  0  0  0  0  0  0  0  0  0  0
    2.7063    2.8407   -0.6842 C   0  0  0  0  0  0  0  0  0  0  0  0
    2.0789    2.1826    1.5543 C   0  0  0  0  0  0  0  0  0  0  0  0
    2.4380    4.1725   -0.3676 C   0  0  0  0  0  0  0  0  0  0  0  0
    1.8108    3.5145    1.8706 C   0  0  0  0  0  0  0  0  0  0  0  0
    1.9904    4.5093    0.9098 C   0  0  0  0  0  0  0  0  0  0  0  0
    2.1477    2.2356   -2.9152 C   0  0  0  0  0  0  0  0  0  0  0  0
    1.3170   -4.8435    1.3138 H   0  0  0  0  0  0  0  0  0  0  0  0
    0.9581   -3.0994   -2.5544 H   0  0  0  0  0  0  0  0  0  0  0  0
    0.2453   -4.8487   -0.9490 H   0  0  0  0  0  0  0  0  0  0  0  0
    2.0040   -4.7799   -1.0704 H   0  0  0  0  0  0  0  0  0  0  0  0
   -0.8574   -3.9838    1.3306 H   0  0  0  0  0  0  0  0  0  0  0  0
    0.0538   -2.7497    2.1785 H   0  0  0  0  0  0  0  0  0  0  0  0
    3.3628   -3.6245    0.8051 H   0  0  0  0  0  0  0  0  0  0  0  0
    2.5023   -2.8085    2.1055 H   0  0  0  0  0  0  0  0  0  0  0  0
    2.2225   -1.1185   -1.7802 H   0  0  0  0  0  0  0  0  0  0  0  0
    3.1771   -2.5852   -1.5971 H   0  0  0  0  0  0  0  0  0  0  0  0
   -3.7728    0.0564    1.3265 H   0  0  0  0  0  0  0  0  0  0  0  0
   -0.4776   -1.1541   -2.9136 H   0  0  0  0  0  0  0  0  0  0  0  0
   -2.3874    2.0162    0.7946 H   0  0  0  0  0  0  0  0  0  0  0  0
   -2.9977    2.0530   -0.8560 H   0  0  0  0  0  0  0  0  0  0  0  0
   -4.6981    0.0768   -1.5888 H   0  0  0  0  0  0  0  0  0  0  0  0
   -5.0960   -1.1322   -0.3727 H   0  0  0  0  0  0  0  0  0  0  0  0
   -2.3776    0.1722   -2.2119 H   0  0  0  0  0  0  0  0  0  0  0  0
   -4.2092    3.6849    0.4756 H   0  0  0  0  0  0  0  0  0  0  0  0
   -4.6188    2.4758    1.6895 H   0  0  0  0  0  0  0  0  0  0  0  0
   -6.2930    0.5289    0.9683 H   0  0  0  0  0  0  0  0  0  0  0  0
   -6.9026    0.5535   -0.6843 H   0  0  0  0  0  0  0  0  0  0  0  0
   -6.5546    2.8536    0.2317 H   0  0  0  0  0  0  0  0  0  0  0  0
   -5.5860    2.5547   -1.2098 H   0  0  0  0  0  0  0  0  0  0  0  0
    3.0877    0.3281   -0.9851 H   0  0  0  0  0  0  0  0  0  0  0  0
    1.8809    1.4571    2.3330 H   0  0  0  0  0  0  0  0  0  0  0  0
    2.5755    4.9532   -1.1109 H   0  0  0  0  0  0  0  0  0  0  0  0
    1.4532    3.7768    2.8621 H   0  0  0  0  0  0  0  0  0  0  0  0
    1.7796    5.5459    1.1556 H   0  0  0  0  0  0  0  0  0  0  0  0
    2.6522    1.9420   -3.8398 H   0  0  0  0  0  0  0  0  0  0  0  0
    1.5108    1.4080   -2.5870 H   0  0  0  0  0  0  0  0  0  0  0  0
    1.5361    3.1208   -3.1162 H   0  0  0  0  0  0  0  0  0  0  0  0
  1 16  2  0  0  0  0
  2 24  2  0  0  0  0
  3 26  1  0  0  0  0
  3 31  1  0  0  0  0
  4 10  1  0  0  0  0
  4 13  1  0  0  0  0
  4 16  1  0  0  0  0
  5 11  1  0  0  0  0
  5 12  1  0  0  0  0
  5 24  1  0  0  0  0
  6 24  1  0  0  0  0
  6 25  1  0  0  0  0
  6 55  1  0  0  0  0
  7  9  1  0  0  0  0
  7 10  1  0  0  0  0
  7 11  1  0  0  0  0
  7 32  1  0  0  0  0
  8  9  1  0  0  0  0
  8 12  1  0  0  0  0
  8 13  1  0  0  0  0
  8 33  1  0  0  0  0
  9 34  1  0  0  0  0
  9 35  1  0  0  0  0
 10 36  1  0  0  0  0
 10 37  1  0  0  0  0
 11 38  1  0  0  0  0
 11 39  1  0  0  0  0
 12 40  1  0  0  0  0
 12 41  1  0  0  0  0
 13 17  2  0  0  0  0
 14 15  1  0  0  0  0
 14 18  1  0  0  0  0
 14 19  1  0  0  0  0
 14 42  1  0  0  0  0
 15 16  1  0  0  0  0
 15 20  2  0  0  0  0
 17 20  1  0  0  0  0
 17 43  1  0  0  0  0
 18 21  1  0  0  0  0
 18 44  1  0  0  0  0
 18 45  1  0  0  0  0
 19 22  1  0  0  0  0
 19 46  1  0  0  0  0
 19 47  1  0  0  0  0
 20 48  1  0  0  0  0
 21 23  1  0  0  0  0
 21 49  1  0  0  0  0
 21 50  1  0  0  0  0
 22 23  1  0  0  0  0
 22 51  1  0  0  0  0
 22 52  1  0  0  0  0
 23 53  1  0  0  0  0
 23 54  1  0  0  0  0
 25 26  1  0  0  0  0
 25 27  2  0  0  0  0
 26 28  2  0  0  0  0
 27 29  1  0  0  0  0
 27 56  1  0  0  0  0
 28 30  1  0  0  0  0
 28 57  1  0  0  0  0
 29 30  2  0  0  0  0
 29 58  1  0  0  0  0
 30 59  1  0  0  0  0
 31 60  1  0  0  0  0
 31 61  1  0  0  0  0
 31 62  1  0  0  0  0
M  END
> <PUBCHEM_COMPOUND_CID>
9422184

> <PUBCHEM_CONFORMER_RMSD>
1

> <PUBCHEM_CONFORMER_DIVERSEORDER>
1
10
27
32
42
50
44
9
8
22
47
35
45
31
19
11
20
23
6
24
17
39
48
46
16
49
33
13
21
25
15
29
43
12
26
36
18
41
34
7
38
14
40
37
3
30
28
2
4
5

> <PUBCHEM_MMFF94_PARTIAL_CHARGES>
31
1 -0.57
10 0.3
11 0.3
12 0.3
13 -0.03
14 0.14
15 -0.12
16 0.62
17 -0.15
2 -0.57
20 -0.15
24 0.69
25 0.12
26 0.08
27 -0.15
28 -0.15
29 -0.15
3 -0.36
30 -0.15
31 0.28
4 -0.47
43 0.15
48 0.15
5 -0.66
55 0.37
56 0.15
57 0.15
58 0.15
59 0.15
6 -0.55
8 0.14

> <PUBCHEM_EFFECTIVE_ROTOR_COUNT>
7.2

> <PUBCHEM_PHARMACOPHORE_FEATURES>
9
1 1 acceptor
1 2 acceptor
1 3 acceptor
1 6 donor
6 14 18 19 21 22 23 rings
6 25 26 27 28 29 30 rings
6 4 13 15 16 17 20 rings
6 4 7 8 9 10 13 rings
6 5 7 8 9 11 12 rings

> <PUBCHEM_HEAVY_ATOM_COUNT>
31

> <PUBCHEM_ATOM_DEF_STEREO_COUNT>
2

> <PUBCHEM_ATOM_UDEF_STEREO_COUNT>
0

> <PUBCHEM_BOND_DEF_STEREO_COUNT>
0

> <PUBCHEM_BOND_UDEF_STEREO_COUNT>
0

> <PUBCHEM_ISOTOPIC_ATOM_COUNT>
0

> <PUBCHEM_COMPONENT_COUNT>
1

> <PUBCHEM_CACTVS_TAUTO_COUNT>
2

> <PUBCHEM_CONFORMER_ID>
008FC56800000001

> <PUBCHEM_MMFF94_ENERGY>
86.0765

> <PUBCHEM_FEATURE_SELFOVERLAP>
47.242

> <PUBCHEM_SHAPE_FINGERPRINT>
10006869 2 17833822046967157042
10439779 11 18340190930443451056
10483366 6 18339660945139395558
10937287 8 18194958780045413393
11578080 2 18047224992703837659
12156800 1 15315005838965718528
12173636 292 18049717726543571239
12293681 4 17113239054525247831
12633257 1 17822562828865318426
12788726 201 17473277478382734070
128993 33 17978230787925630300
150020 26 18265042557717984777
151778 21 18336266829194687697
15210252 30 18045801000206531318
15475509 84 16821359373669418851
20465049 17 18270135598582627476
20567600 299 18200302217752001849
21133410 90 12911761140438860301
21591340 35 18272088331007406217
21860390 5 18269836411129126463
21987440 362 18410291458599843876
23559900 14 18337675218054233839
3298306 158 18341896337629909465
345986 75 17103396269415004851
3493558 16 17986387781493733129
35225 105 17615428268681225972
474 4 18410289190608392231
50150288 127 13778122843562212085
513532 50 17489023752002505508
5312544 6 18340195393225746415

> <PUBCHEM_SHAPE_MULTIPOLES>
605.41
8.58
6.54
1.97
16.69
1.93
0.67
6.34
-0.22
-6.67
-0.74
-1.58
0.46
-0.52

> <PUBCHEM_SHAPE_SELFOVERLAP>
1307.692

> <PUBCHEM_SHAPE_VOLUME>
323.7

> <PUBCHEM_COORDINATE_TYPE>
2
5
10

$$$$
