71693892
  -OEChem-12032416403D

 48 50  0     1  0  0  0  0  0999 V2000
   -6.3666    0.6125   -0.9771 Cl  0  0  0  0  0  0  0  0  0  0  0  0
    3.5131   -3.2852    0.7618 O   0  0  0  0  0  0  0  0  0  0  0  0
    4.8645   -0.9370    0.3149 O   0  0  0  0  0  0  0  0  0  0  0  0
   -0.2314   -0.7593    1.7292 O   0  0  0  0  0  0  0  0  0  0  0  0
    0.5629    4.7224    0.8005 O   0  0  0  0  0  0  0  0  0  0  0  0
    0.7036   -2.1374    0.1111 N   0  0  0  0  0  0  0  0  0  0  0  0
    2.0679   -0.4196   -1.0392 C   0  0  2  0  0  0  0  0  0  0  0  0
    1.9954   -1.5005    0.0629 C   0  0  2  0  0  0  0  0  0  0  0  0
    3.1006   -2.4809   -0.3270 C   0  0  1  0  0  0  0  0  0  0  0  0
    3.5063   -0.4973   -1.6132 C   0  0  0  0  0  0  0  0  0  0  0  0
    4.2265   -1.5655   -0.7927 C   0  0  1  0  0  0  0  0  0  0  0  0
    1.6656    0.9550   -0.5480 C   0  0  0  0  0  0  0  0  0  0  0  0
    0.5889    1.6188   -1.1361 C   0  0  0  0  0  0  0  0  0  0  0  0
    2.3717    1.5574    0.4932 C   0  0  0  0  0  0  0  0  0  0  0  0
   -0.3155   -1.7070    0.9522 C   0  0  0  0  0  0  0  0  0  0  0  0
   -1.5654   -2.5513    0.7941 C   0  0  0  0  0  0  0  0  0  0  0  0
    0.2186    2.8849   -0.6831 C   0  0  0  0  0  0  0  0  0  0  0  0
    2.0015    2.8235    0.9462 C   0  0  0  0  0  0  0  0  0  0  0  0
    0.9249    3.4873    0.3580 C   0  0  0  0  0  0  0  0  0  0  0  0
   -2.7675   -1.7603    0.3502 C   0  0  0  0  0  0  0  0  0  0  0  0
   -3.6117   -1.1837    1.2993 C   0  0  0  0  0  0  0  0  0  0  0  0
   -3.0366   -1.6036   -1.0095 C   0  0  0  0  0  0  0  0  0  0  0  0
   -4.7252   -0.4510    0.8887 C   0  0  0  0  0  0  0  0  0  0  0  0
   -4.1501   -0.8709   -1.4201 C   0  0  0  0  0  0  0  0  0  0  0  0
   -0.5477    5.3435    0.1549 C   0  0  0  0  0  0  0  0  0  0  0  0
   -4.9944   -0.2946   -0.4710 C   0  0  0  0  0  0  0  0  0  0  0  0
    1.3875   -0.7019   -1.8563 H   0  0  0  0  0  0  0  0  0  0  0  0
    2.2020   -1.0978    1.0621 H   0  0  0  0  0  0  0  0  0  0  0  0
    2.7735   -3.1360   -1.1444 H   0  0  0  0  0  0  0  0  0  0  0  0
    3.4435   -0.8277   -2.6577 H   0  0  0  0  0  0  0  0  0  0  0  0
    4.0274    0.4658   -1.6015 H   0  0  0  0  0  0  0  0  0  0  0  0
    4.9909   -2.1028   -1.3618 H   0  0  0  0  0  0  0  0  0  0  0  0
    0.5238   -2.8920   -0.5445 H   0  0  0  0  0  0  0  0  0  0  0  0
    4.2754   -3.8105    0.4643 H   0  0  0  0  0  0  0  0  0  0  0  0
    5.5433   -0.3382   -0.0403 H   0  0  0  0  0  0  0  0  0  0  0  0
    0.0280    1.1613   -1.9467 H   0  0  0  0  0  0  0  0  0  0  0  0
    3.2150    1.0627    0.9648 H   0  0  0  0  0  0  0  0  0  0  0  0
   -1.7644   -3.0226    1.7652 H   0  0  0  0  0  0  0  0  0  0  0  0
   -1.4021   -3.3840    0.0992 H   0  0  0  0  0  0  0  0  0  0  0  0
   -0.6274    3.3432   -1.1838 H   0  0  0  0  0  0  0  0  0  0  0  0
    2.5556    3.2880    1.7572 H   0  0  0  0  0  0  0  0  0  0  0  0
   -3.4114   -1.2968    2.3614 H   0  0  0  0  0  0  0  0  0  0  0  0
   -2.3842   -2.0459   -1.7578 H   0  0  0  0  0  0  0  0  0  0  0  0
   -5.3738   -0.0066    1.6393 H   0  0  0  0  0  0  0  0  0  0  0  0
   -4.3469   -0.7562   -2.4829 H   0  0  0  0  0  0  0  0  0  0  0  0
   -0.6958    6.3176    0.6325 H   0  0  0  0  0  0  0  0  0  0  0  0
   -1.4702    4.7717    0.3025 H   0  0  0  0  0  0  0  0  0  0  0  0
   -0.3425    5.5345   -0.9039 H   0  0  0  0  0  0  0  0  0  0  0  0
  1 26  1  0  0  0  0
  2  9  1  0  0  0  0
  2 34  1  0  0  0  0
  3 11  1  0  0  0  0
  3 35  1  0  0  0  0
  4 15  2  0  0  0  0
  5 19  1  0  0  0  0
  5 25  1  0  0  0  0
  6  8  1  0  0  0  0
  6 15  1  0  0  0  0
  6 33  1  0  0  0  0
  7  8  1  0  0  0  0
  7 10  1  0  0  0  0
  7 12  1  0  0  0  0
  7 27  1  0  0  0  0
  8  9  1  0  0  0  0
  8 28  1  0  0  0  0
  9 11  1  0  0  0  0
  9 29  1  0  0  0  0
 10 11  1  0  0  0  0
 10 30  1  0  0  0  0
 10 31  1  0  0  0  0
 11 32  1  0  0  0  0
 12 13  2  0  0  0  0
 12 14  1  0  0  0  0
 13 17  1  0  0  0  0
 13 36  1  0  0  0  0
 14 18  2  0  0  0  0
 14 37  1  0  0  0  0
 15 16  1  0  0  0  0
 16 20  1  0  0  0  0
 16 38  1  0  0  0  0
 16 39  1  0  0  0  0
 17 19  2  0  0  0  0
 17 40  1  0  0  0  0
 18 19  1  0  0  0  0
 18 41  1  0  0  0  0
 20 21  2  0  0  0  0
 20 22  1  0  0  0  0
 21 23  1  0  0  0  0
 21 42  1  0  0  0  0
 22 24  2  0  0  0  0
 22 43  1  0  0  0  0
 23 26  2  0  0  0  0
 23 44  1  0  0  0  0
 24 26  1  0  0  0  0
 24 45  1  0  0  0  0
 25 46  1  0  0  0  0
 25 47  1  0  0  0  0
 25 48  1  0  0  0  0
M  END
> <PUBCHEM_COMPOUND_CID>
71693892

> <PUBCHEM_CONFORMER_RMSD>
0.8

> <PUBCHEM_CONFORMER_DIVERSEORDER>
1
33
16
35
55
47
51
43
13
24
64
36
59
5
62
45
58
34
28
54
63
44
23
21
6
56
8
60
52
25
4
49
42
38
3
26
27
17
19
20
30
2
57
50
46
37
29
14
40
61
7
9
48
41
22
31
10
11
32
15
39
18
12
53

> <PUBCHEM_MMFF94_PARTIAL_CHARGES>
36
1 -0.18
11 0.28
12 -0.14
13 -0.15
14 -0.15
15 0.57
16 0.2
17 -0.15
18 -0.15
19 0.08
2 -0.68
20 -0.14
21 -0.15
22 -0.15
23 -0.15
24 -0.15
25 0.28
26 0.18
3 -0.68
33 0.37
34 0.4
35 0.4
36 0.15
37 0.15
4 -0.57
40 0.15
41 0.15
42 0.15
43 0.15
44 0.15
45 0.15
5 -0.36
6 -0.73
7 0.14
8 0.3
9 0.28

> <PUBCHEM_EFFECTIVE_ROTOR_COUNT>
7

> <PUBCHEM_PHARMACOPHORE_FEATURES>
10
1 2 acceptor
1 2 donor
1 3 acceptor
1 3 donor
1 4 acceptor
1 5 acceptor
1 6 donor
5 7 8 9 10 11 rings
6 12 13 14 17 18 19 rings
6 20 21 22 23 24 26 rings

> <PUBCHEM_HEAVY_ATOM_COUNT>
26

> <PUBCHEM_ATOM_DEF_STEREO_COUNT>
4

> <PUBCHEM_ATOM_UDEF_STEREO_COUNT>
0

> <PUBCHEM_BOND_DEF_STEREO_COUNT>
0

> <PUBCHEM_BOND_UDEF_STEREO_COUNT>
0

> <PUBCHEM_ISOTOPIC_ATOM_COUNT>
0

> <PUBCHEM_COMPONENT_COUNT>
1

> <PUBCHEM_CACTVS_TAUTO_COUNT>
2

> <PUBCHEM_CONFORMER_ID>
0445F64400000001

> <PUBCHEM_MMFF94_ENERGY>
77.9829

> <PUBCHEM_FEATURE_SELFOVERLAP>
50.758

> <PUBCHEM_SHAPE_FINGERPRINT>
10006869 2 18411689999135549506
10165383 225 16604403176324335720
10764073 3 17972848584156283688
1100329 8 16967166718413877526
11456790 92 18114466648534109937
12156800 1 17757239636178559305
12293681 160 17974041558872628916
12553582 1 18267606670288695654
12788726 201 18265060128544867102
13004483 165 18267575824039635442
13134695 92 18411422829845849038
13402501 40 18187080625183041639
13540713 5 17682415654802984166
13590594 115 18340492175033610521
13726171 33 15719385084612533687
14251764 38 17906163311173326445
14347329 18 16733530617034293471
15081414 286 18268163109124404784
15210252 30 17676779754954578348
15420108 30 17913473908473912426
17138139 8 17329947384854436837
17980427 23 17632030696676460546
18335252 114 18338506427944639213
20567600 299 18197494236858576273
20832881 197 18335420128105533471
21033648 29 17821728364707968551
21133410 127 17608930134352430669
21133410 62 17537158048508245965
21860390 5 18270963569350545780
221357 26 18334290934285887815
22289505 5 18333733494142770735
22749437 52 17905605854604512961
23419403 2 17630296711316048138
3117164 225 17116896567392741256
340366 18 18059855099583107119
345986 75 17897709977958816866
508706 21 17677042560251901399
57124632 79 18052540164165130937
621550 34 17327194637198187563
6443956 14 18338238266638935148
653340 110 18124027936613297720
7399639 24 17255415236634107131
9981440 41 17476351081675942953

> <PUBCHEM_SHAPE_MULTIPOLES>
508.48
9.88
5.47
1.38
12.33
8.85
0.07
-5.11
2.46
-3.68
-1.4
0.42
-0.21
0.82

> <PUBCHEM_SHAPE_SELFOVERLAP>
1075.43

> <PUBCHEM_SHAPE_VOLUME>
286.3

> <PUBCHEM_COORDINATE_TYPE>
2
5
10

$$$$
