11884253
  -OEChem-12032416193D

 60 64  0     1  0  0  0  0  0999 V2000
    8.2203   -2.4739    0.4376 F   0  0  0  0  0  0  0  0  0  0  0  0
    6.5244   -2.5619    1.7867 F   0  0  0  0  0  0  0  0  0  0  0  0
    6.2932   -3.1734   -0.2873 F   0  0  0  0  0  0  0  0  0  0  0  0
   -5.5809    0.1569    2.1102 O   0  0  0  0  0  0  0  0  0  0  0  0
   -2.8407    2.4318    0.3426 O   0  0  0  0  0  0  0  0  0  0  0  0
    0.4845   -1.0730   -1.8000 O   0  0  0  0  0  0  0  0  0  0  0  0
   -3.9456   -0.3452    0.5301 N   0  0  0  0  0  0  0  0  0  0  0  0
   -1.1964   -0.3262   -0.3969 N   0  0  0  0  0  0  0  0  0  0  0  0
   -9.0951   -1.3104   -0.5210 N   0  0  0  0  0  0  0  0  0  0  0  0
   -0.5924    2.5422    0.0057 N   0  0  0  0  0  0  0  0  0  0  0  0
   -6.3530   -0.4292   -0.0237 C   0  0  0  0  0  0  0  0  0  0  0  0
   -1.5788    0.4233    0.7919 C   0  0  2  0  0  0  0  0  0  0  0  0
   -2.8380   -0.1368    1.4651 C   0  0  0  0  0  0  0  0  0  0  0  0
   -3.5958   -0.7400   -0.8365 C   0  0  0  0  0  0  0  0  0  0  0  0
   -2.1738   -1.2714   -0.9387 C   0  0  0  0  0  0  0  0  0  0  0  0
   -7.5629    0.4556    0.2798 C   0  0  0  0  0  0  0  0  0  0  0  0
   -6.7527   -1.9052   -0.0027 C   0  0  0  0  0  0  0  0  0  0  0  0
   -5.2616   -0.1733    0.9713 C   0  0  0  0  0  0  0  0  0  0  0  0
   -8.7460    0.1068   -0.6210 C   0  0  0  0  0  0  0  0  0  0  0  0
   -7.9671   -2.1648   -0.8920 C   0  0  0  0  0  0  0  0  0  0  0  0
   -1.7463    1.8646    0.3372 C   0  0  0  0  0  0  0  0  0  0  0  0
    0.0940   -0.3065   -0.9180 C   0  0  0  0  0  0  0  0  0  0  0  0
    1.0584    0.7081   -0.4148 C   0  0  0  0  0  0  0  0  0  0  0  0
    0.7191    2.0334   -0.0971 C   0  0  0  0  0  0  0  0  0  0  0  0
    2.4140    0.3316   -0.4421 C   0  0  0  0  0  0  0  0  0  0  0  0
    1.7487    2.9667    0.1162 C   0  0  0  0  0  0  0  0  0  0  0  0
    3.4208    1.2597   -0.1796 C   0  0  0  0  0  0  0  0  0  0  0  0
    3.0885    2.5816    0.0861 C   0  0  0  0  0  0  0  0  0  0  0  0
    4.8087    0.8522   -0.2073 C   0  0  0  0  0  0  0  0  0  0  0  0
    5.1614   -0.4489    0.1512 C   0  0  0  0  0  0  0  0  0  0  0  0
    5.7947    1.7612   -0.5916 C   0  0  0  0  0  0  0  0  0  0  0  0
    6.4999   -0.8410    0.1256 C   0  0  0  0  0  0  0  0  0  0  0  0
    7.1330    1.3692   -0.6172 C   0  0  0  0  0  0  0  0  0  0  0  0
    7.4856    0.0682   -0.2587 C   0  0  0  0  0  0  0  0  0  0  0  0
    6.8778   -2.2318    0.5092 C   0  0  0  0  0  0  0  0  0  0  0  0
   -6.0209   -0.1563   -1.0314 H   0  0  0  0  0  0  0  0  0  0  0  0
   -0.7626    0.3864    1.5240 H   0  0  0  0  0  0  0  0  0  0  0  0
   -2.6184   -1.1198    1.9006 H   0  0  0  0  0  0  0  0  0  0  0  0
   -3.1594    0.5138    2.2862 H   0  0  0  0  0  0  0  0  0  0  0  0
   -3.7085    0.1536   -1.4620 H   0  0  0  0  0  0  0  0  0  0  0  0
   -4.2846   -1.4979   -1.2122 H   0  0  0  0  0  0  0  0  0  0  0  0
   -2.0679   -2.2016   -0.3671 H   0  0  0  0  0  0  0  0  0  0  0  0
   -1.9321   -1.5008   -1.9821 H   0  0  0  0  0  0  0  0  0  0  0  0
   -7.2985    1.5122    0.1484 H   0  0  0  0  0  0  0  0  0  0  0  0
   -7.8795    0.3433    1.3254 H   0  0  0  0  0  0  0  0  0  0  0  0
   -6.9873   -2.2102    1.0266 H   0  0  0  0  0  0  0  0  0  0  0  0
   -5.9271   -2.5500   -0.3205 H   0  0  0  0  0  0  0  0  0  0  0  0
   -8.5209    0.3628   -1.6633 H   0  0  0  0  0  0  0  0  0  0  0  0
   -9.6152    0.7079   -0.3319 H   0  0  0  0  0  0  0  0  0  0  0  0
   -8.2710   -3.2131   -0.7978 H   0  0  0  0  0  0  0  0  0  0  0  0
   -7.7090   -2.0064   -1.9460 H   0  0  0  0  0  0  0  0  0  0  0  0
   -9.3641   -1.5175    0.4412 H   0  0  0  0  0  0  0  0  0  0  0  0
   -0.6873    3.5514   -0.0793 H   0  0  0  0  0  0  0  0  0  0  0  0
    2.6635   -0.6910   -0.7180 H   0  0  0  0  0  0  0  0  0  0  0  0
    1.5125    4.0043    0.3457 H   0  0  0  0  0  0  0  0  0  0  0  0
    3.8323    3.3410    0.3107 H   0  0  0  0  0  0  0  0  0  0  0  0
    4.4237   -1.1744    0.4852 H   0  0  0  0  0  0  0  0  0  0  0  0
    5.5651    2.7750   -0.9082 H   0  0  0  0  0  0  0  0  0  0  0  0
    7.9001    2.0746   -0.9231 H   0  0  0  0  0  0  0  0  0  0  0  0
    8.5332   -0.2187   -0.2866 H   0  0  0  0  0  0  0  0  0  0  0  0
  1 35  1  0  0  0  0
  2 35  1  0  0  0  0
  3 35  1  0  0  0  0
  4 18  2  0  0  0  0
  5 21  2  0  0  0  0
  6 22  2  0  0  0  0
  7 13  1  0  0  0  0
  7 14  1  0  0  0  0
  7 18  1  0  0  0  0
  8 12  1  0  0  0  0
  8 15  1  0  0  0  0
  8 22  1  0  0  0  0
  9 19  1  0  0  0  0
  9 20  1  0  0  0  0
  9 52  1  0  0  0  0
 10 21  1  0  0  0  0
 10 24  1  0  0  0  0
 10 53  1  0  0  0  0
 11 16  1  0  0  0  0
 11 17  1  0  0  0  0
 11 18  1  0  0  0  0
 11 36  1  0  0  0  0
 12 13  1  0  0  0  0
 12 21  1  0  0  0  0
 12 37  1  0  0  0  0
 13 38  1  0  0  0  0
 13 39  1  0  0  0  0
 14 15  1  0  0  0  0
 14 40  1  0  0  0  0
 14 41  1  0  0  0  0
 15 42  1  0  0  0  0
 15 43  1  0  0  0  0
 16 19  1  0  0  0  0
 16 44  1  0  0  0  0
 16 45  1  0  0  0  0
 17 20  1  0  0  0  0
 17 46  1  0  0  0  0
 17 47  1  0  0  0  0
 19 48  1  0  0  0  0
 19 49  1  0  0  0  0
 20 50  1  0  0  0  0
 20 51  1  0  0  0  0
 22 23  1  0  0  0  0
 23 24  2  0  0  0  0
 23 25  1  0  0  0  0
 24 26  1  0  0  0  0
 25 27  2  0  0  0  0
 25 54  1  0  0  0  0
 26 28  2  0  0  0  0
 26 55  1  0  0  0  0
 27 28  1  0  0  0  0
 27 29  1  0  0  0  0
 28 56  1  0  0  0  0
 29 30  2  0  0  0  0
 29 31  1  0  0  0  0
 30 32  1  0  0  0  0
 30 57  1  0  0  0  0
 31 33  2  0  0  0  0
 31 58  1  0  0  0  0
 32 34  2  0  0  0  0
 32 35  1  0  0  0  0
 33 34  1  0  0  0  0
 33 59  1  0  0  0  0
 34 60  1  0  0  0  0
M  END
> <PUBCHEM_COMPOUND_CID>
11884253

> <PUBCHEM_CONFORMER_RMSD>
1

> <PUBCHEM_CONFORMER_DIVERSEORDER>
1
17
5
11
20
18
7
2
19
23
16
13
12
21
4
10
22
15
14
24
6
9
3
8

> <PUBCHEM_MMFF94_PARTIAL_CHARGES>
40
1 -0.34
10 -0.55
11 0.06
12 0.36
13 0.3
14 0.3
15 0.3
18 0.57
19 0.27
2 -0.34
20 0.27
21 0.57
22 0.54
23 0.09
24 0.12
25 -0.15
26 -0.15
28 -0.15
3 -0.34
30 -0.15
31 -0.15
32 -0.14
33 -0.15
34 -0.15
35 1.16
4 -0.57
5 -0.57
52 0.36
53 0.37
54 0.15
55 0.15
56 0.15
57 0.15
58 0.15
59 0.15
6 -0.57
60 0.15
7 -0.66
8 -0.66
9 -0.9

> <PUBCHEM_EFFECTIVE_ROTOR_COUNT>
6.2

> <PUBCHEM_PHARMACOPHORE_FEATURES>
11
1 10 donor
1 4 acceptor
1 5 acceptor
1 6 acceptor
1 9 cation
1 9 donor
6 23 24 25 26 27 28 rings
6 29 30 31 32 33 34 rings
6 7 8 12 13 14 15 rings
6 9 11 16 17 19 20 rings
7 8 10 12 21 22 23 24 rings

> <PUBCHEM_HEAVY_ATOM_COUNT>
35

> <PUBCHEM_ATOM_DEF_STEREO_COUNT>
1

> <PUBCHEM_ATOM_UDEF_STEREO_COUNT>
0

> <PUBCHEM_BOND_DEF_STEREO_COUNT>
0

> <PUBCHEM_BOND_UDEF_STEREO_COUNT>
0

> <PUBCHEM_ISOTOPIC_ATOM_COUNT>
0

> <PUBCHEM_COMPONENT_COUNT>
1

> <PUBCHEM_CACTVS_TAUTO_COUNT>
3

> <PUBCHEM_CONFORMER_ID>
00B556DD00000001

> <PUBCHEM_MMFF94_ENERGY>
105.1097

> <PUBCHEM_FEATURE_SELFOVERLAP>
55.851

> <PUBCHEM_SHAPE_FINGERPRINT>
10 15 12535626076903654644
10319688 67 15410890769211401639
11409948 35 17677040244874366459
117089 54 18121788223629582018
11719270 70 17917715720822082647
12120059 9 17458338697543078954
12592606 108 18411699902570764651
13008946 170 18121218946450985580
13248334 5 18122063371507847528
13533116 47 18335422383395848184
13617811 41 14996001026170341358
13782708 43 17967248710810112182
13811026 1 18342461439414654783
13914758 101 18333449829270568617
13947934 56 18335977580844084140
14068700 675 17917717924045814817
14216079 64 18409166601978643682
14251764 18 18201162134423130172
14347424 109 18272649078317343848
15064981 194 9870881637787405632
15131766 46 17758680336035940773
15183329 4 18201445804112428125
15198563 99 16660633034704348685
15301273 46 17095522902792041007
15392192 104 16988565728052843254
16126227 98 9511456723938201017
16728300 4 18265885857682930118
18393751 57 12175623975173620805
19301676 85 18260270728487421562
19301679 30 18200597986928090566
19841028 212 18260824895975897066
20105231 36 14345797141441135657
21267235 1 18341617039853510276
21792934 111 18342166765919242432
23522609 53 18123787285233060056
23559900 14 17968944217869997121
23569917 315 17917160497773913767
23569943 247 18335981974173771947
249057 25 18129959956701654201
25269216 80 13696167223182417769
335352 9 18271248325703668429
3383291 50 18334011683897093234
34797466 226 16153713158995159276
3633792 109 17385722500016434109
4112364 45 12966835884395541410
439807 62 18334013887393968152
4516262 110 17970920092617647820
474113 269 18410289186055046559
513202 73 18260551074140296948
54039377 194 18337676296924767438
5718773 13 18410855460228466715
5758199 1 9223237338781892525
6081469 158 18040713671595320421
6691757 9 16702031923891677479
9831232 110 17022629688808002002
99344 41 18201442459134926983
9962374 69 18339353163092376748

> <PUBCHEM_SHAPE_MULTIPOLES>
660.93
27.21
2.88
1.13
14.48
0.22
0.25
16.83
0.06
-4.48
0.23
0.67
0.34
-2.29

> <PUBCHEM_SHAPE_SELFOVERLAP>
1450.151

> <PUBCHEM_SHAPE_VOLUME>
354.1

> <PUBCHEM_COORDINATE_TYPE>
2
5
10

$$$$
