56774833
  -OEChem-12032416343D

 49 52  0     1  0  0  0  0  0999 V2000
   -1.3185    2.2810    1.3807 O   0  0  0  0  0  0  0  0  0  0  0  0
   -1.2024    0.1559   -2.2503 O   0  0  0  0  0  0  0  0  0  0  0  0
    5.8660    1.2296   -0.2400 O   0  0  0  0  0  0  0  0  0  0  0  0
   -4.6399    2.3217   -0.0362 O   0  0  0  0  0  0  0  0  0  0  0  0
   -3.0229    0.6509   -0.1353 N   0  0  0  0  0  0  0  0  0  0  0  0
    4.6931   -0.8123   -0.2151 N   0  0  0  0  0  0  0  0  0  0  0  0
   -6.0441   -0.9168   -0.1431 N   0  0  0  0  0  0  0  0  0  0  0  0
   -4.3351   -2.2153    0.4269 N   0  0  0  0  0  0  0  0  0  0  0  0
    7.0988   -0.7332    0.0831 C   0  0  0  0  0  0  0  0  0  0  0  0
    7.2104   -1.6543    1.2624 C   0  0  0  0  0  0  0  0  0  0  0  0
    7.9663   -0.3580    1.2487 C   0  0  0  0  0  0  0  0  0  0  0  0
   -1.6271    0.2738    0.1203 C   0  0  1  0  0  0  0  0  0  0  0  0
    5.8197    0.0110   -0.1424 C   0  0  0  0  0  0  0  0  0  0  0  0
   -0.7268    0.7233   -1.0343 C   0  0  1  0  0  0  0  0  0  0  0  0
   -1.1602    0.8686    1.4436 C   0  0  0  0  0  0  0  0  0  0  0  0
    0.7083    0.3164   -0.8168 C   0  0  0  0  0  0  0  0  0  0  0  0
   -3.8044   -0.2140   -1.0090 C   0  0  0  0  0  0  0  0  0  0  0  0
   -3.5396    1.8731    0.2902 C   0  0  0  0  0  0  0  0  0  0  0  0
   -2.6811    2.6335    1.2948 C   0  0  0  0  0  0  0  0  0  0  0  0
    3.3645   -0.4356   -0.4156 C   0  0  0  0  0  0  0  0  0  0  0  0
    1.7091    1.2871   -0.7733 C   0  0  0  0  0  0  0  0  0  0  0  0
    1.0357   -1.0302   -0.6594 C   0  0  0  0  0  0  0  0  0  0  0  0
    3.0372    0.9113   -0.5727 C   0  0  0  0  0  0  0  0  0  0  0  0
    2.3639   -1.4063   -0.4589 C   0  0  0  0  0  0  0  0  0  0  0  0
   -4.6978   -1.1374   -0.2325 C   0  0  0  0  0  0  0  0  0  0  0  0
   -6.5734   -1.9176    0.6220 C   0  0  0  0  0  0  0  0  0  0  0  0
   -5.4997   -2.7063    0.9619 C   0  0  0  0  0  0  0  0  0  0  0  0
    7.6143   -1.0251   -0.8264 H   0  0  0  0  0  0  0  0  0  0  0  0
    7.7759   -2.5694    1.1347 H   0  0  0  0  0  0  0  0  0  0  0  0
    6.3787   -1.7372    1.9514 H   0  0  0  0  0  0  0  0  0  0  0  0
    7.6318    0.4247    1.9186 H   0  0  0  0  0  0  0  0  0  0  0  0
    9.0401   -0.4021    1.1136 H   0  0  0  0  0  0  0  0  0  0  0  0
   -1.6195   -0.8191    0.2177 H   0  0  0  0  0  0  0  0  0  0  0  0
   -0.7967    1.8098   -1.1653 H   0  0  0  0  0  0  0  0  0  0  0  0
   -0.1132    0.6461    1.6668 H   0  0  0  0  0  0  0  0  0  0  0  0
   -1.7498    0.4755    2.2822 H   0  0  0  0  0  0  0  0  0  0  0  0
    4.8502   -1.8130   -0.1157 H   0  0  0  0  0  0  0  0  0  0  0  0
   -3.1620   -0.8387   -1.6322 H   0  0  0  0  0  0  0  0  0  0  0  0
   -4.4043    0.4099   -1.6820 H   0  0  0  0  0  0  0  0  0  0  0  0
   -2.7280    3.6967    1.0371 H   0  0  0  0  0  0  0  0  0  0  0  0
   -3.1400    2.5117    2.2831 H   0  0  0  0  0  0  0  0  0  0  0  0
    1.4677    2.3400   -0.8932 H   0  0  0  0  0  0  0  0  0  0  0  0
    0.2754   -1.8054   -0.6937 H   0  0  0  0  0  0  0  0  0  0  0  0
    3.7560    1.7185   -0.5506 H   0  0  0  0  0  0  0  0  0  0  0  0
    2.6049   -2.4595   -0.3387 H   0  0  0  0  0  0  0  0  0  0  0  0
   -0.9979   -0.7938   -2.2627 H   0  0  0  0  0  0  0  0  0  0  0  0
   -6.5569   -0.1530   -0.5635 H   0  0  0  0  0  0  0  0  0  0  0  0
   -7.6287   -1.9736    0.8462 H   0  0  0  0  0  0  0  0  0  0  0  0
   -5.5059   -3.6026    1.5648 H   0  0  0  0  0  0  0  0  0  0  0  0
  1 15  1  0  0  0  0
  1 19  1  0  0  0  0
  2 14  1  0  0  0  0
  2 46  1  0  0  0  0
  3 13  2  0  0  0  0
  4 18  2  0  0  0  0
  5 12  1  0  0  0  0
  5 17  1  0  0  0  0
  5 18  1  0  0  0  0
  6 13  1  0  0  0  0
  6 20  1  0  0  0  0
  6 37  1  0  0  0  0
  7 25  1  0  0  0  0
  7 26  1  0  0  0  0
  7 47  1  0  0  0  0
  8 25  2  0  0  0  0
  8 27  1  0  0  0  0
  9 10  1  0  0  0  0
  9 11  1  0  0  0  0
  9 13  1  0  0  0  0
  9 28  1  0  0  0  0
 10 11  1  0  0  0  0
 10 29  1  0  0  0  0
 10 30  1  0  0  0  0
 11 31  1  0  0  0  0
 11 32  1  0  0  0  0
 12 14  1  0  0  0  0
 12 15  1  0  0  0  0
 12 33  1  0  0  0  0
 14 16  1  0  0  0  0
 14 34  1  0  0  0  0
 15 35  1  0  0  0  0
 15 36  1  0  0  0  0
 16 21  2  0  0  0  0
 16 22  1  0  0  0  0
 17 25  1  0  0  0  0
 17 38  1  0  0  0  0
 17 39  1  0  0  0  0
 18 19  1  0  0  0  0
 19 40  1  0  0  0  0
 19 41  1  0  0  0  0
 20 23  2  0  0  0  0
 20 24  1  0  0  0  0
 21 23  1  0  0  0  0
 21 42  1  0  0  0  0
 22 24  2  0  0  0  0
 22 43  1  0  0  0  0
 23 44  1  0  0  0  0
 24 45  1  0  0  0  0
 26 27  2  0  0  0  0
 26 48  1  0  0  0  0
 27 49  1  0  0  0  0
M  END
> <PUBCHEM_COMPOUND_CID>
56774833

> <PUBCHEM_CONFORMER_RMSD>
1

> <PUBCHEM_CONFORMER_DIVERSEORDER>
1
18
28
30
10
2
38
8
16
19
11
36
27
15
29
22
21
25
41
6
23
9
17
14
26
40
34
24
31
35
37
33
5
12
20
3
7
32
39
13
4

> <PUBCHEM_MMFF94_PARTIAL_CHARGES>
41
1 -0.56
10 -0.2
11 -0.2
12 0.3
13 0.63
14 0.42
15 0.28
16 -0.14
17 0.48
18 0.57
19 0.34
2 -0.68
20 0.12
21 -0.15
22 -0.15
23 -0.15
24 -0.15
25 0.01
26 -0.3
27 0.08
28 0.1
29 0.1
3 -0.57
30 0.1
31 0.1
32 0.1
37 0.37
4 -0.57
42 0.15
43 0.15
44 0.15
45 0.15
46 0.4
47 0.27
48 0.15
49 0.15
5 -0.66
6 -0.55
7 0.03
8 -0.57
9 -0.1

> <PUBCHEM_EFFECTIVE_ROTOR_COUNT>
8.6

> <PUBCHEM_PHARMACOPHORE_FEATURES>
11
1 1 acceptor
1 2 acceptor
1 2 donor
1 3 acceptor
1 4 acceptor
1 6 donor
1 7 donor
3 7 8 25 cation
5 7 8 25 26 27 rings
6 1 5 12 15 18 19 rings
6 16 20 21 22 23 24 rings

> <PUBCHEM_HEAVY_ATOM_COUNT>
27

> <PUBCHEM_ATOM_DEF_STEREO_COUNT>
2

> <PUBCHEM_ATOM_UDEF_STEREO_COUNT>
0

> <PUBCHEM_BOND_DEF_STEREO_COUNT>
0

> <PUBCHEM_BOND_UDEF_STEREO_COUNT>
0

> <PUBCHEM_ISOTOPIC_ATOM_COUNT>
0

> <PUBCHEM_COMPONENT_COUNT>
1

> <PUBCHEM_CACTVS_TAUTO_COUNT>
6

> <PUBCHEM_CONFORMER_ID>
036250B100000001

> <PUBCHEM_MMFF94_ENERGY>
69.523

> <PUBCHEM_FEATURE_SELFOVERLAP>
55.822

> <PUBCHEM_SHAPE_FINGERPRINT>
10 15 17917705821428464242
10066227 112 9583522014388874250
106641 1 15697999674058390335
11315181 36 18260268555211830597
11646440 116 16774078475684160528
12166972 35 18187930620517438412
12236239 1 18410855443723960684
12596602 18 18409163308208421432
12760667 363 18342178899649927919
13073987 5 18201438022428370302
13540713 4 17058388984796895157
13631057 29 18409447007772696507
13782708 43 17095517354380220218
14211702 104 18410300177219644622
14251764 18 18334857226156186764
14849402 71 18269837678772966720
15183329 4 11819268949776310078
15188451 53 18335138713042119526
15338160 23 16773250491683200665
17492 89 18271253703256203391
20028762 73 18260547819141000058
21033650 10 14996549660944654367
21130935 74 18336261246554841874
21304303 64 13758067515886802874
21424621 283 13039193615006494966
21792934 111 18059852887838278481
23081809 10 17967541160082255884
23522609 53 17678486111524047220
23559900 14 18262797514093181617
23569917 315 18334582322169515162
23569943 247 17461428136903746058
23576562 1 9150874075652389427
24771293 8 10375284706392351226
34797466 226 17060347361968638900
3663271 9 18410289178182218834
392239 28 18272098248413251331
4015057 19 16588318223259061964
5104073 3 17916593016402614834
57724786 102 13901607685246113818
59682541 35 17846494889313444570

> <PUBCHEM_SHAPE_MULTIPOLES>
512.25
19.56
2.48
1.32
24.22
0.16
0.01
-11.14
6.34
-4.24
1.01
0.01
0.22
-0.54

> <PUBCHEM_SHAPE_SELFOVERLAP>
1098.679

> <PUBCHEM_SHAPE_VOLUME>
279.4

> <PUBCHEM_COORDINATE_TYPE>
2
5
10

$$$$
