45361198
  -OEChem-12032416293D

 68 71  0     1  0  0  0  0  0999 V2000
    0.5228   -0.5571    1.0995 O   0  0  0  0  0  0  0  0  0  0  0  0
   -5.6523    1.3712   -0.1071 O   0  0  0  0  0  0  0  0  0  0  0  0
   -5.6678   -4.6593    0.6713 O   0  0  0  0  0  0  0  0  0  0  0  0
    7.1767   -2.8941   -0.6035 O   0  0  0  0  0  0  0  0  0  0  0  0
   -0.9405    2.5606   -0.6692 N   0  0  1  0  0  0  0  0  0  0  0  0
    2.3517    1.1641    0.1069 N   0  0  1  0  0  0  0  0  0  0  0  0
   -0.9255    1.0698    1.8007 N   0  0  0  0  0  0  0  0  0  0  0  0
   -4.9212   -0.7694   -0.6375 N   0  0  0  0  0  0  0  0  0  0  0  0
    0.5140    2.6611   -0.4161 C   0  0  1  0  0  0  0  0  0  0  0  0
    1.1373    1.7627    0.6923 C   0  0  1  0  0  0  0  0  0  0  0  0
    1.3862    2.3151   -1.6374 C   0  0  0  0  0  0  0  0  0  0  0  0
    2.7351    1.9962   -1.0280 C   0  0  0  0  0  0  0  0  0  0  0  0
   -1.7957    2.9746    0.4780 C   0  0  2  0  0  0  0  0  0  0  0  0
    0.2371    0.6358    1.1925 C   0  0  0  0  0  0  0  0  0  0  0  0
   -1.3288    2.4610    1.8541 C   0  0  0  0  0  0  0  0  0  0  0  0
   -3.2469    2.4925    0.2708 C   0  0  0  0  0  0  0  0  0  0  0  0
    3.4386    1.0092    1.0653 C   0  0  0  0  0  0  0  0  0  0  0  0
   -1.3142    3.3102   -1.8806 C   0  0  0  0  0  0  0  0  0  0  0  0
   -3.3083    1.0264   -0.1117 C   0  0  0  0  0  0  0  0  0  0  0  0
    4.4335   -0.0301    0.6215 C   0  0  0  0  0  0  0  0  0  0  0  0
   -4.7339    0.5666   -0.2841 C   0  0  0  0  0  0  0  0  0  0  0  0
   -3.8482   -1.7489   -0.8545 C   0  0  0  0  0  0  0  0  0  0  0  0
   -6.2752   -1.2790   -0.8684 C   0  0  0  0  0  0  0  0  0  0  0  0
   -4.0744   -2.9955   -0.0041 C   0  0  0  0  0  0  0  0  0  0  0  0
   -6.5440   -2.5155   -0.0172 C   0  0  0  0  0  0  0  0  0  0  0  0
   -5.4680   -3.5805   -0.2341 C   0  0  0  0  0  0  0  0  0  0  0  0
    4.1275   -1.3857    0.7422 C   0  0  0  0  0  0  0  0  0  0  0  0
    5.6614    0.3629    0.0892 C   0  0  0  0  0  0  0  0  0  0  0  0
    5.0495   -2.3481    0.3309 C   0  0  0  0  0  0  0  0  0  0  0  0
    6.5835   -0.5994   -0.3221 C   0  0  0  0  0  0  0  0  0  0  0  0
    6.2775   -1.9550   -0.2013 C   0  0  0  0  0  0  0  0  0  0  0  0
    8.4126   -2.4224   -1.1383 C   0  0  0  0  0  0  0  0  0  0  0  0
    0.7458    3.7050   -0.1534 H   0  0  0  0  0  0  0  0  0  0  0  0
    1.4075    2.3964    1.5475 H   0  0  0  0  0  0  0  0  0  0  0  0
    0.9944    1.4355   -2.1656 H   0  0  0  0  0  0  0  0  0  0  0  0
    1.4587    3.1442   -2.3489 H   0  0  0  0  0  0  0  0  0  0  0  0
    3.2369    2.9217   -0.7182 H   0  0  0  0  0  0  0  0  0  0  0  0
    3.3739    1.4649   -1.7400 H   0  0  0  0  0  0  0  0  0  0  0  0
   -1.8142    4.0712    0.5467 H   0  0  0  0  0  0  0  0  0  0  0  0
   -2.1223    2.5401    2.6056 H   0  0  0  0  0  0  0  0  0  0  0  0
   -0.4954    3.0644    2.2274 H   0  0  0  0  0  0  0  0  0  0  0  0
   -3.8333    2.6730    1.1817 H   0  0  0  0  0  0  0  0  0  0  0  0
   -3.7380    3.0996   -0.4998 H   0  0  0  0  0  0  0  0  0  0  0  0
    3.9352    1.9647    1.2820 H   0  0  0  0  0  0  0  0  0  0  0  0
    3.0448    0.6693    2.0337 H   0  0  0  0  0  0  0  0  0  0  0  0
   -1.5300    0.3730    2.2249 H   0  0  0  0  0  0  0  0  0  0  0  0
   -2.3780    3.2159   -2.1151 H   0  0  0  0  0  0  0  0  0  0  0  0
   -0.8068    2.9192   -2.7681 H   0  0  0  0  0  0  0  0  0  0  0  0
   -1.0785    4.3762   -1.7854 H   0  0  0  0  0  0  0  0  0  0  0  0
   -2.8922    0.3922    0.6685 H   0  0  0  0  0  0  0  0  0  0  0  0
   -2.7857    0.8410   -1.0553 H   0  0  0  0  0  0  0  0  0  0  0  0
   -2.8606   -1.3397   -0.6366 H   0  0  0  0  0  0  0  0  0  0  0  0
   -3.8607   -2.0082   -1.9199 H   0  0  0  0  0  0  0  0  0  0  0  0
   -6.3553   -1.5222   -1.9345 H   0  0  0  0  0  0  0  0  0  0  0  0
   -7.0239   -0.5108   -0.6512 H   0  0  0  0  0  0  0  0  0  0  0  0
   -3.9530   -2.7474    1.0587 H   0  0  0  0  0  0  0  0  0  0  0  0
   -3.3113   -3.7507   -0.2262 H   0  0  0  0  0  0  0  0  0  0  0  0
   -6.5739   -2.2385    1.0449 H   0  0  0  0  0  0  0  0  0  0  0  0
   -7.5327   -2.9284   -0.2494 H   0  0  0  0  0  0  0  0  0  0  0  0
   -5.5348   -3.9793   -1.2533 H   0  0  0  0  0  0  0  0  0  0  0  0
    3.1754   -1.7057    1.1567 H   0  0  0  0  0  0  0  0  0  0  0  0
    5.9105    1.4161   -0.0114 H   0  0  0  0  0  0  0  0  0  0  0  0
    4.8056   -3.4025    0.4276 H   0  0  0  0  0  0  0  0  0  0  0  0
    7.5174   -0.2247   -0.7268 H   0  0  0  0  0  0  0  0  0  0  0  0
   -6.5596   -5.0130    0.5129 H   0  0  0  0  0  0  0  0  0  0  0  0
    9.0060   -3.3030   -1.4058 H   0  0  0  0  0  0  0  0  0  0  0  0
    8.9875   -1.8645   -0.3914 H   0  0  0  0  0  0  0  0  0  0  0  0
    8.2599   -1.8484   -2.0585 H   0  0  0  0  0  0  0  0  0  0  0  0
  1 14  2  0  0  0  0
  2 21  2  0  0  0  0
  3 26  1  0  0  0  0
  3 65  1  0  0  0  0
  4 31  1  0  0  0  0
  4 32  1  0  0  0  0
  5  9  1  0  0  0  0
  5 13  1  0  0  0  0
  5 18  1  0  0  0  0
  6 10  1  0  0  0  0
  6 12  1  0  0  0  0
  6 17  1  0  0  0  0
  7 14  1  0  0  0  0
  7 15  1  0  0  0  0
  7 46  1  0  0  0  0
  8 21  1  0  0  0  0
  8 22  1  0  0  0  0
  8 23  1  0  0  0  0
  9 10  1  0  0  0  0
  9 11  1  0  0  0  0
  9 33  1  0  0  0  0
 10 14  1  0  0  0  0
 10 34  1  0  0  0  0
 11 12  1  0  0  0  0
 11 35  1  0  0  0  0
 11 36  1  0  0  0  0
 12 37  1  0  0  0  0
 12 38  1  0  0  0  0
 13 15  1  0  0  0  0
 13 16  1  0  0  0  0
 13 39  1  0  0  0  0
 15 40  1  0  0  0  0
 15 41  1  0  0  0  0
 16 19  1  0  0  0  0
 16 42  1  0  0  0  0
 16 43  1  0  0  0  0
 17 20  1  0  0  0  0
 17 44  1  0  0  0  0
 17 45  1  0  0  0  0
 18 47  1  0  0  0  0
 18 48  1  0  0  0  0
 18 49  1  0  0  0  0
 19 21  1  0  0  0  0
 19 50  1  0  0  0  0
 19 51  1  0  0  0  0
 20 27  2  0  0  0  0
 20 28  1  0  0  0  0
 22 24  1  0  0  0  0
 22 52  1  0  0  0  0
 22 53  1  0  0  0  0
 23 25  1  0  0  0  0
 23 54  1  0  0  0  0
 23 55  1  0  0  0  0
 24 26  1  0  0  0  0
 24 56  1  0  0  0  0
 24 57  1  0  0  0  0
 25 26  1  0  0  0  0
 25 58  1  0  0  0  0
 25 59  1  0  0  0  0
 26 60  1  0  0  0  0
 27 29  1  0  0  0  0
 27 61  1  0  0  0  0
 28 30  2  0  0  0  0
 28 62  1  0  0  0  0
 29 31  2  0  0  0  0
 29 63  1  0  0  0  0
 30 31  1  0  0  0  0
 30 64  1  0  0  0  0
 32 66  1  0  0  0  0
 32 67  1  0  0  0  0
 32 68  1  0  0  0  0
M  END
> <PUBCHEM_COMPOUND_CID>
45361198

> <PUBCHEM_CONFORMER_RMSD>
1.2

> <PUBCHEM_CONFORMER_DIVERSEORDER>
1
106
97
80
53
20
70
49
107
94
36
122
93
109
56
77
104
135
102
69
90
123
38
142
2
5
111
140
58
95
4
6
146
26
73
40
89
145
116
139
88
32
125
62
117
63
143
118
22
44
18
129
23
127
92
55
75
66
112
76
96
87
71
83
74
39
64
82
59
124
30
131
60
50
17
114
35
126
100
13
67
121
48
78
136
19
132
14
41
72
91
37
10
3
120
9
45
128
24
119
99
57
25
84
115
86
34
51
113
42
12
105
101
141
110
108
147
29
144
15
31
61
65
137
7
11
33
79
134
46
16
81
130
21
47
98
138
54
8
133
103
28
52
43
68
27
85

> <PUBCHEM_MMFF94_PARTIAL_CHARGES>
34
1 -0.57
10 0.33
12 0.27
13 0.27
14 0.57
15 0.3
17 0.41
18 0.27
19 0.06
2 -0.57
20 -0.14
21 0.57
22 0.3
23 0.3
26 0.28
27 -0.15
28 -0.15
29 -0.15
3 -0.68
30 -0.15
31 0.08
32 0.28
4 -0.36
46 0.37
5 -0.81
6 -0.81
61 0.15
62 0.15
63 0.15
64 0.15
65 0.4
7 -0.73
8 -0.66
9 0.27

> <PUBCHEM_EFFECTIVE_ROTOR_COUNT>
9.6

> <PUBCHEM_PHARMACOPHORE_FEATURES>
12
1 1 acceptor
1 2 acceptor
1 3 acceptor
1 3 donor
1 4 acceptor
1 5 cation
1 6 cation
1 7 donor
5 6 9 10 11 12 rings
6 20 27 28 29 30 31 rings
6 8 22 23 24 25 26 rings
7 5 7 9 10 13 14 15 rings

> <PUBCHEM_HEAVY_ATOM_COUNT>
32

> <PUBCHEM_ATOM_DEF_STEREO_COUNT>
3

> <PUBCHEM_ATOM_UDEF_STEREO_COUNT>
0

> <PUBCHEM_BOND_DEF_STEREO_COUNT>
0

> <PUBCHEM_BOND_UDEF_STEREO_COUNT>
0

> <PUBCHEM_ISOTOPIC_ATOM_COUNT>
0

> <PUBCHEM_COMPONENT_COUNT>
1

> <PUBCHEM_CACTVS_TAUTO_COUNT>
3

> <PUBCHEM_CONFORMER_ID>
02B4282E00000001

> <PUBCHEM_MMFF94_ENERGY>
91.4204

> <PUBCHEM_FEATURE_SELFOVERLAP>
60.934

> <PUBCHEM_SHAPE_FINGERPRINT>
10042902 136 18408885122628143452
10391435 84 18339347630800297696
10677394 325 17605014649065175662
11135609 99 18272930527576725310
11285246 1 17750511948341166555
11315621 246 18336543820077341726
11497681 19 18411139147941763396
117089 54 18191309488764879227
12422481 6 17703784829810788862
12522641 68 17104513373223973148
12633257 1 15912761834018940845
13347071 3 18342458136321729198
1361 4 18339360880642413438
13690498 29 17895472523219706261
13782708 43 18202557376319523232
13911987 19 15357700751725112897
13947930 73 17775004621779170046
14040221 137 12031237130601033867
14068700 675 18409728448289364144
14211702 104 18130512955125776926
14251764 30 18337667624430605431
14420673 8 18411981386796896811
14856354 85 17987238837310388372
15001296 14 18262224607888207672
15082195 135 18042133214596399260
15510800 12 18060144219147787807
17492 89 18339359776783181157
17909252 39 18122062271910590257
18603816 31 18269849643955079795
20775438 99 17756137143943387675
20775530 9 18337374042083622435
208703 8 18410288142219829199
21223535 225 15285625569774736925
21307412 95 18338503197986775517
21424621 283 9799686009231594708
21585480 29 17485061318122633158
21756936 100 8358248229099553945
23379529 103 18264766735091672435
23559900 14 18271795843760863817
2838139 119 8574720100130640545
392239 28 15626213637115859149
437795 70 18260829323317104483
439807 62 18337955701141457959
54039377 194 18335993012613833171
54583773 228 18411986880529106014
563151 248 18198644159050295417
57527293 21 16486399022966179925
7970288 3 18265891548577666759

> <PUBCHEM_SHAPE_MULTIPOLES>
615.14
19.71
5.12
1.36
15.5
2.65
-0.02
26.45
4.39
-5.33
0.65
0.2
-0.88
0.55

> <PUBCHEM_SHAPE_SELFOVERLAP>
1288.018

> <PUBCHEM_SHAPE_VOLUME>
346.7

> <PUBCHEM_COORDINATE_TYPE>
2
5
10

$$$$
