40533374
  -OEChem-12032416373D

 52 56  0     1  0  0  0  0  0999 V2000
   -0.0740    2.7690   -1.6634 O   0  0  0  0  0  0  0  0  0  0  0  0
   -0.1267    3.3632    1.4054 O   0  0  0  0  0  0  0  0  0  0  0  0
   -4.1885    1.3583   -1.0707 O   0  0  0  0  0  0  0  0  0  0  0  0
    2.4170    1.2105   -0.2168 N   0  0  0  0  0  0  0  0  0  0  0  0
   -2.7925    1.9641    0.6831 N   0  0  0  0  0  0  0  0  0  0  0  0
    1.9122    0.2071   -0.9528 N   0  0  0  0  0  0  0  0  0  0  0  0
    2.8088   -0.7733   -0.9507 N   0  0  0  0  0  0  0  0  0  0  0  0
   -4.5319    0.5066    1.0600 N   0  0  0  0  0  0  0  0  0  0  0  0
    5.9952   -0.5576    0.8049 N   0  0  0  0  0  0  0  0  0  0  0  0
    0.2839    2.2251    0.6262 C   0  0  1  0  0  0  0  0  0  0  0  0
   -0.6789    2.1097   -0.5396 C   0  0  1  0  0  0  0  0  0  0  0  0
    1.6331    2.4946   -0.0170 C   0  0  2  0  0  0  0  0  0  0  0  0
   -1.9030    2.8679   -0.0866 C   0  0  2  0  0  0  0  0  0  0  0  0
    1.2343    3.2275   -1.2946 C   0  0  0  0  0  0  0  0  0  0  0  0
   -1.3224    3.9185    0.8390 C   0  0  0  0  0  0  0  0  0  0  0  0
    3.6475    0.9017    0.2760 C   0  0  0  0  0  0  0  0  0  0  0  0
   -3.8674    1.2836    0.1145 C   0  0  0  0  0  0  0  0  0  0  0  0
    3.8774   -0.3637   -0.2026 C   0  0  0  0  0  0  0  0  0  0  0  0
    5.0491   -1.1434    0.0373 C   0  0  0  0  0  0  0  0  0  0  0  0
   -5.6842   -0.3020    0.7381 C   0  0  0  0  0  0  0  0  0  0  0  0
    5.1659   -2.4139   -0.5034 C   0  0  0  0  0  0  0  0  0  0  0  0
   -5.2966   -1.6904    0.3180 C   0  0  0  0  0  0  0  0  0  0  0  0
    6.3284   -3.1292   -0.2387 C   0  0  0  0  0  0  0  0  0  0  0  0
   -5.0522   -1.9693   -1.0266 C   0  0  0  0  0  0  0  0  0  0  0  0
   -5.1810   -2.7013    1.2721 C   0  0  0  0  0  0  0  0  0  0  0  0
    7.1114   -1.2833    1.0406 C   0  0  0  0  0  0  0  0  0  0  0  0
    7.3245   -2.5603    0.5472 C   0  0  0  0  0  0  0  0  0  0  0  0
   -4.6921   -3.2590   -1.4173 C   0  0  0  0  0  0  0  0  0  0  0  0
   -4.8209   -3.9910    0.8816 C   0  0  0  0  0  0  0  0  0  0  0  0
   -4.5765   -4.2699   -0.4631 C   0  0  0  0  0  0  0  0  0  0  0  0
    0.2632    1.3529    1.2875 H   0  0  0  0  0  0  0  0  0  0  0  0
   -0.8771    1.0740   -0.8334 H   0  0  0  0  0  0  0  0  0  0  0  0
    2.2871    3.1219    0.5996 H   0  0  0  0  0  0  0  0  0  0  0  0
   -2.4772    3.3143   -0.9043 H   0  0  0  0  0  0  0  0  0  0  0  0
    1.1646    4.3064   -1.1187 H   0  0  0  0  0  0  0  0  0  0  0  0
    1.9248    3.0553   -2.1255 H   0  0  0  0  0  0  0  0  0  0  0  0
   -1.0290    4.8123    0.2776 H   0  0  0  0  0  0  0  0  0  0  0  0
   -1.9979    4.2240    1.6438 H   0  0  0  0  0  0  0  0  0  0  0  0
   -2.5673    1.7845    1.6570 H   0  0  0  0  0  0  0  0  0  0  0  0
    4.2170    1.5827    0.8934 H   0  0  0  0  0  0  0  0  0  0  0  0
   -4.1806    0.4898    2.0125 H   0  0  0  0  0  0  0  0  0  0  0  0
   -6.2663    0.1873   -0.0518 H   0  0  0  0  0  0  0  0  0  0  0  0
   -6.3223   -0.3342    1.6286 H   0  0  0  0  0  0  0  0  0  0  0  0
    4.3909   -2.8612   -1.1172 H   0  0  0  0  0  0  0  0  0  0  0  0
    6.4582   -4.1282   -0.6440 H   0  0  0  0  0  0  0  0  0  0  0  0
   -5.1418   -1.1931   -1.7816 H   0  0  0  0  0  0  0  0  0  0  0  0
   -5.3670   -2.4963    2.3230 H   0  0  0  0  0  0  0  0  0  0  0  0
    7.8575   -0.7948    1.6585 H   0  0  0  0  0  0  0  0  0  0  0  0
    8.2389   -3.0996    0.7665 H   0  0  0  0  0  0  0  0  0  0  0  0
   -4.5024   -3.4765   -2.4643 H   0  0  0  0  0  0  0  0  0  0  0  0
   -4.7304   -4.7781    1.6245 H   0  0  0  0  0  0  0  0  0  0  0  0
   -4.2961   -5.2741   -0.7672 H   0  0  0  0  0  0  0  0  0  0  0  0
  1 11  1  0  0  0  0
  1 14  1  0  0  0  0
  2 10  1  0  0  0  0
  2 15  1  0  0  0  0
  3 17  2  0  0  0  0
  4  6  1  0  0  0  0
  4 12  1  0  0  0  0
  4 16  1  0  0  0  0
  5 13  1  0  0  0  0
  5 17  1  0  0  0  0
  5 39  1  0  0  0  0
  6  7  2  0  0  0  0
  7 18  1  0  0  0  0
  8 17  1  0  0  0  0
  8 20  1  0  0  0  0
  8 41  1  0  0  0  0
  9 19  1  0  0  0  0
  9 26  2  0  0  0  0
 10 11  1  0  0  0  0
 10 12  1  0  0  0  0
 10 31  1  0  0  0  0
 11 13  1  0  0  0  0
 11 32  1  0  0  0  0
 12 14  1  0  0  0  0
 12 33  1  0  0  0  0
 13 15  1  0  0  0  0
 13 34  1  0  0  0  0
 14 35  1  0  0  0  0
 14 36  1  0  0  0  0
 15 37  1  0  0  0  0
 15 38  1  0  0  0  0
 16 18  2  0  0  0  0
 16 40  1  0  0  0  0
 18 19  1  0  0  0  0
 19 21  2  0  0  0  0
 20 22  1  0  0  0  0
 20 42  1  0  0  0  0
 20 43  1  0  0  0  0
 21 23  1  0  0  0  0
 21 44  1  0  0  0  0
 22 24  2  0  0  0  0
 22 25  1  0  0  0  0
 23 27  2  0  0  0  0
 23 45  1  0  0  0  0
 24 28  1  0  0  0  0
 24 46  1  0  0  0  0
 25 29  2  0  0  0  0
 25 47  1  0  0  0  0
 26 27  1  0  0  0  0
 26 48  1  0  0  0  0
 27 49  1  0  0  0  0
 28 30  2  0  0  0  0
 28 50  1  0  0  0  0
 29 30  1  0  0  0  0
 29 51  1  0  0  0  0
 30 52  1  0  0  0  0
M  END
> <PUBCHEM_COMPOUND_CID>
40533374

> <PUBCHEM_CONFORMER_RMSD>
1.2

> <PUBCHEM_CONFORMER_DIVERSEORDER>
1
9
61
88
15
74
33
32
22
82
35
37
80
66
13
60
49
44
30
79
26
55
75
51
86
45
29
24
47
2
70
78
21
57
59
64
83
14
63
54
8
87
68
52
62
10
16
42
43
19
48
76
50
31
65
3
89
4
6
72
39
71
67
84
53
38
23
17
58
18
85
77
69
27
46
81
20
7
36
11
56
5
41
28
25
34
73
40
12

> <PUBCHEM_MMFF94_PARTIAL_CHARGES>
42
1 -0.56
10 0.28
11 0.28
12 0.26
13 0.3
14 0.28
15 0.28
16 -0.3
17 0.69
18 0.17
19 0.36
2 -0.56
20 0.44
21 -0.15
22 -0.14
23 -0.15
24 -0.15
25 -0.15
26 0.16
27 -0.15
28 -0.15
29 -0.15
3 -0.57
30 -0.15
39 0.37
4 0.31
40 0.15
41 0.37
44 0.15
45 0.15
46 0.15
47 0.15
48 0.15
49 0.15
5 -0.73
50 0.15
51 0.15
52 0.15
6 -0.42
7 -0.23
8 -0.73
9 -0.62

> <PUBCHEM_EFFECTIVE_ROTOR_COUNT>
8.2

> <PUBCHEM_PHARMACOPHORE_FEATURES>
11
1 1 acceptor
1 2 acceptor
1 3 acceptor
1 5 donor
1 8 donor
1 9 acceptor
5 1 10 11 12 14 rings
5 2 10 11 13 15 rings
5 4 6 7 16 18 rings
6 22 24 25 28 29 30 rings
6 9 19 21 23 26 27 rings

> <PUBCHEM_HEAVY_ATOM_COUNT>
30

> <PUBCHEM_ATOM_DEF_STEREO_COUNT>
4

> <PUBCHEM_ATOM_UDEF_STEREO_COUNT>
0

> <PUBCHEM_BOND_DEF_STEREO_COUNT>
0

> <PUBCHEM_BOND_UDEF_STEREO_COUNT>
0

> <PUBCHEM_ISOTOPIC_ATOM_COUNT>
0

> <PUBCHEM_COMPONENT_COUNT>
1

> <PUBCHEM_CACTVS_TAUTO_COUNT>
3

> <PUBCHEM_CONFORMER_ID>
026A7D7E00000001

> <PUBCHEM_MMFF94_ENERGY>
66.7408

> <PUBCHEM_FEATURE_SELFOVERLAP>
56.575

> <PUBCHEM_SHAPE_FINGERPRINT>
10100884 174 18334574621187509402
10169797 241 18128830805498572292
10254770 206 18342735226690464903
10319688 45 18336828567930557876
10391435 84 18337658755391685056
10622 236 18334013903882695382
10928967 22 17693957580330243919
11135609 99 18410012109599347670
11136131 41 17834667580320111240
11497681 19 18407764738345428532
117089 54 18336552736662414315
11963148 33 18196086879302364356
12174731 88 18412546539794539703
12422481 6 17418384596647092367
12522641 68 16668790092412318412
12559416 138 17984698089345736575
1361 4 18339360743995348394
13690498 29 17894912902156017957
13944108 23 11420445832748454578
14168556 18 18340763858429171136
14178184 131 18343579620722441270
14429380 30 18409168852246620906
14705955 166 16844455912865563465
14950920 106 17632860828071684257
15510800 12 18410002243827294871
15684393 108 17459772469433022895
15728490 51 18411418423937078410
15728490 83 18336273366404165379
19303781 99 18113617923419145939
19304152 47 11743839201015929535
19319366 153 17547576336774763453
19611394 137 18201434736825452650
20156587 161 17533467146006755058
208703 8 18335979874214474947
21458453 9 17774425175104258058
21585480 29 17844510301090494290
22864921 47 17823683197782965498
229767 44 18202562895152779727
23569914 152 11604472692413197904
2748736 6 9583523079371835010
2838139 119 8646767781405219632
3146121 3 18339077216266363224
316301 35 18340769359517379617
32027 91 18341325704259486081
437795 163 18336551624834693948
437795 96 18128262185899235895
44426695 248 16128365021812117838
44426699 300 18263344984615321271
484985 159 18266741290593207633
6431902 208 18412539886272682222
6636798 310 17203327870997989947
7970288 3 18409450271388269442

> <PUBCHEM_SHAPE_MULTIPOLES>
569.89
18.76
6.21
1.26
16.08
0.63
0.12
26.6
-3.45
-4.83
0.06
-0.76
-0.09
-0.75

> <PUBCHEM_SHAPE_SELFOVERLAP>
1243.218

> <PUBCHEM_SHAPE_VOLUME>
308

> <PUBCHEM_COORDINATE_TYPE>
2
5
10

$$$$
