45360572
  -OEChem-12032416193D

 48 50  0     1  0  0  0  0  0999 V2000
   -0.3995   -1.8947   -1.4994 O   0  0  0  0  0  0  0  0  0  0  0  0
   -0.7904   -3.5401    0.0883 O   0  0  0  0  0  0  0  0  0  0  0  0
    0.6092   -2.1317    2.1760 O   0  0  0  0  0  0  0  0  0  0  0  0
    3.5506    0.3802    0.7962 O   0  0  0  0  0  0  0  0  0  0  0  0
   -1.5312    0.0842    0.2444 N   0  0  0  0  0  0  0  0  0  0  0  0
    1.7726   -0.1306   -0.6061 N   0  0  0  0  0  0  0  0  0  0  0  0
   -3.4749    2.2157    0.0506 N   0  0  0  0  0  0  0  0  0  0  0  0
    2.9578    1.8079   -0.9340 N   0  0  0  0  0  0  0  0  0  0  0  0
   -1.0742   -1.2216    0.7158 C   0  0  2  0  0  0  0  0  0  0  0  0
    0.4030   -1.1391    1.1623 C   0  0  2  0  0  0  0  0  0  0  0  0
    1.4069   -1.3858    0.0146 C   0  0  1  0  0  0  0  0  0  0  0  0
   -1.2437   -2.2673   -0.4016 C   0  0  1  0  0  0  0  0  0  0  0  0
    0.8778   -2.3630   -1.0554 C   0  0  1  0  0  0  0  0  0  0  0  0
    0.4986   -3.7290   -0.5151 C   0  0  0  0  0  0  0  0  0  0  0  0
   -1.7904    0.9850    1.3743 C   0  0  0  0  0  0  0  0  0  0  0  0
   -2.7326   -0.0531   -0.5880 C   0  0  0  0  0  0  0  0  0  0  0  0
   -2.2725    2.3537    0.8813 C   0  0  0  0  0  0  0  0  0  0  0  0
   -3.2157    1.3156   -1.0799 C   0  0  0  0  0  0  0  0  0  0  0  0
    2.8267    0.6585   -0.1587 C   0  0  0  0  0  0  0  0  0  0  0  0
   -3.9337    3.5211   -0.4198 C   0  0  0  0  0  0  0  0  0  0  0  0
    3.9735    2.8048   -0.6899 C   0  0  0  0  0  0  0  0  0  0  0  0
    3.5819    3.7294    0.4442 C   0  0  0  0  0  0  0  0  0  0  0  0
   -1.6850   -1.5619    1.5647 H   0  0  0  0  0  0  0  0  0  0  0  0
    0.6319   -0.1930    1.6608 H   0  0  0  0  0  0  0  0  0  0  0  0
    2.3267   -1.8183    0.4293 H   0  0  0  0  0  0  0  0  0  0  0  0
   -2.2712   -2.4326   -0.7346 H   0  0  0  0  0  0  0  0  0  0  0  0
    1.5689   -2.4329   -1.9018 H   0  0  0  0  0  0  0  0  0  0  0  0
    1.2084   -4.1361    0.2098 H   0  0  0  0  0  0  0  0  0  0  0  0
    0.3685   -4.4497   -1.3296 H   0  0  0  0  0  0  0  0  0  0  0  0
   -2.5447    0.5575    2.0494 H   0  0  0  0  0  0  0  0  0  0  0  0
   -0.8892    1.1575    1.9703 H   0  0  0  0  0  0  0  0  0  0  0  0
   -2.5416   -0.5973   -1.5177 H   0  0  0  0  0  0  0  0  0  0  0  0
   -3.5437   -0.5555   -0.0437 H   0  0  0  0  0  0  0  0  0  0  0  0
    1.1854    0.2262   -1.3540 H   0  0  0  0  0  0  0  0  0  0  0  0
   -2.4973    2.9759    1.7562 H   0  0  0  0  0  0  0  0  0  0  0  0
   -1.4659    2.8507    0.3251 H   0  0  0  0  0  0  0  0  0  0  0  0
   -2.4700    1.7489   -1.7607 H   0  0  0  0  0  0  0  0  0  0  0  0
   -4.1381    1.1710   -1.6557 H   0  0  0  0  0  0  0  0  0  0  0  0
    1.5224   -2.0389    2.4971 H   0  0  0  0  0  0  0  0  0  0  0  0
   -3.1863    4.0232   -1.0448 H   0  0  0  0  0  0  0  0  0  0  0  0
   -4.8562    3.4175   -1.0018 H   0  0  0  0  0  0  0  0  0  0  0  0
   -4.1688    4.1741    0.4279 H   0  0  0  0  0  0  0  0  0  0  0  0
    2.3069    1.9585   -1.6985 H   0  0  0  0  0  0  0  0  0  0  0  0
    4.1063    3.3726   -1.6160 H   0  0  0  0  0  0  0  0  0  0  0  0
    4.9164    2.2996   -0.4553 H   0  0  0  0  0  0  0  0  0  0  0  0
    4.3511    4.4925    0.5972 H   0  0  0  0  0  0  0  0  0  0  0  0
    3.4564    3.1792    1.3825 H   0  0  0  0  0  0  0  0  0  0  0  0
    2.6352    4.2354    0.2272 H   0  0  0  0  0  0  0  0  0  0  0  0
  1 12  1  0  0  0  0
  1 13  1  0  0  0  0
  2 12  1  0  0  0  0
  2 14  1  0  0  0  0
  3 10  1  0  0  0  0
  3 39  1  0  0  0  0
  4 19  2  0  0  0  0
  5  9  1  0  0  0  0
  5 15  1  0  0  0  0
  5 16  1  0  0  0  0
  6 11  1  0  0  0  0
  6 19  1  0  0  0  0
  6 34  1  0  0  0  0
  7 17  1  0  0  0  0
  7 18  1  0  0  0  0
  7 20  1  0  0  0  0
  8 19  1  0  0  0  0
  8 21  1  0  0  0  0
  8 43  1  0  0  0  0
  9 10  1  0  0  0  0
  9 12  1  0  0  0  0
  9 23  1  0  0  0  0
 10 11  1  0  0  0  0
 10 24  1  0  0  0  0
 11 13  1  0  0  0  0
 11 25  1  0  0  0  0
 12 26  1  0  0  0  0
 13 14  1  0  0  0  0
 13 27  1  0  0  0  0
 14 28  1  0  0  0  0
 14 29  1  0  0  0  0
 15 17  1  0  0  0  0
 15 30  1  0  0  0  0
 15 31  1  0  0  0  0
 16 18  1  0  0  0  0
 16 32  1  0  0  0  0
 16 33  1  0  0  0  0
 17 35  1  0  0  0  0
 17 36  1  0  0  0  0
 18 37  1  0  0  0  0
 18 38  1  0  0  0  0
 20 40  1  0  0  0  0
 20 41  1  0  0  0  0
 20 42  1  0  0  0  0
 21 22  1  0  0  0  0
 21 44  1  0  0  0  0
 21 45  1  0  0  0  0
 22 46  1  0  0  0  0
 22 47  1  0  0  0  0
 22 48  1  0  0  0  0
M  END
> <PUBCHEM_COMPOUND_CID>
45360572

> <PUBCHEM_CONFORMER_RMSD>
0.8

> <PUBCHEM_CONFORMER_DIVERSEORDER>
1
25
39
20
35
7
36
21
33
5
28
37
30
17
29
19
12
38
22
15
3
11
27
34
13
10
14
2
16
23
4
18
8
6
32
31
26
9
41
40
24

> <PUBCHEM_MMFF94_PARTIAL_CHARGES>
24
1 -0.56
10 0.28
11 0.3
12 0.56
13 0.28
14 0.28
15 0.27
16 0.27
17 0.27
18 0.27
19 0.69
2 -0.56
20 0.27
21 0.3
3 -0.68
34 0.37
39 0.4
4 -0.57
43 0.37
5 -0.81
6 -0.73
7 -0.81
8 -0.73
9 0.27

> <PUBCHEM_EFFECTIVE_ROTOR_COUNT>
7.4

> <PUBCHEM_PHARMACOPHORE_FEATURES>
11
1 1 acceptor
1 2 acceptor
1 3 acceptor
1 3 donor
1 4 acceptor
1 5 cation
1 6 donor
1 7 cation
1 8 donor
6 5 7 15 16 17 18 rings
8 1 2 9 10 11 12 13 14 rings

> <PUBCHEM_HEAVY_ATOM_COUNT>
22

> <PUBCHEM_ATOM_DEF_STEREO_COUNT>
5

> <PUBCHEM_ATOM_UDEF_STEREO_COUNT>
0

> <PUBCHEM_BOND_DEF_STEREO_COUNT>
0

> <PUBCHEM_BOND_UDEF_STEREO_COUNT>
0

> <PUBCHEM_ISOTOPIC_ATOM_COUNT>
0

> <PUBCHEM_COMPONENT_COUNT>
1

> <PUBCHEM_CACTVS_TAUTO_COUNT>
3

> <PUBCHEM_CONFORMER_ID>
02B425BC00000001

> <PUBCHEM_MMFF94_ENERGY>
52.1656

> <PUBCHEM_FEATURE_SELFOVERLAP>
55.924

> <PUBCHEM_SHAPE_FINGERPRINT>
10670039 82 17183640221992330748
10871710 139 17543646669400631388
11045515 52 17259059026832077806
11221954 11 18336278889399284928
12173636 292 18267582583980010508
12788726 201 17902220440774711674
13134695 92 17543353756804542903
13590594 115 17114957586635345489
14142880 1 17970617721732640580
14250199 8 17909272382180325693
17134986 127 18339366262262705220
17492 54 18123173865413245031
17980427 23 17978475708098120483
20510252 161 18052826028814650006
20567600 299 17979062795752921140
20621476 13 18049161072912765245
21524375 3 18334295366143309280
21860390 5 17834105347467934053
2255824 54 17766276471251129775
22907989 373 18124599948610129420
23559900 14 17692808195484093511
238 59 18268440022698212697
394222 165 18188478099676257001
474 4 18266459793824850337
5939293 188 17904198135537929140
84936 182 18057033623369466713
9981440 41 18411131454826830218

> <PUBCHEM_SHAPE_MULTIPOLES>
409.35
6.31
5.27
1.33
1.21
0.35
0.35
9.9
-1.03
0.95
-0.53
-0.06
-0.37
-0.1

> <PUBCHEM_SHAPE_SELFOVERLAP>
845.393

> <PUBCHEM_SHAPE_VOLUME>
232.2

> <PUBCHEM_COORDINATE_TYPE>
2
5
10

$$$$
