28961807
  -OEChem-12032416143D

 52 54  0     1  0  0  0  0  0999 V2000
    1.7481    2.9285   -0.6546 S   0  0  0  0  0  0  0  0  0  0  0  0
    3.1890    1.3714    1.3684 S   0  0  0  0  0  0  0  0  0  0  0  0
   -2.1746    1.3988    0.9982 O   0  0  0  0  0  0  0  0  0  0  0  0
   -3.2691    0.1226   -1.4799 O   0  0  0  0  0  0  0  0  0  0  0  0
    1.7484   -3.0647    1.1506 O   0  0  0  0  0  0  0  0  0  0  0  0
   -4.5805    2.7765    1.4655 O   0  0  0  0  0  0  0  0  0  0  0  0
    2.2058    4.0769    0.1044 O   0  0  0  0  0  0  0  0  0  0  0  0
    1.6363    3.0061   -2.0985 O   0  0  0  0  0  0  0  0  0  0  0  0
   -1.1838   -1.6920   -0.7179 N   0  0  1  0  0  0  0  0  0  0  0  0
    0.2698    2.3817   -0.0114 N   0  0  0  0  0  0  0  0  0  0  0  0
   -1.8508   -0.8370    0.2482 C   0  0  1  0  0  0  0  0  0  0  0  0
   -1.1377    0.4752    0.5988 C   0  0  1  0  0  0  0  0  0  0  0  0
    0.1903   -2.0793   -0.3801 C   0  0  2  0  0  0  0  0  0  0  0  0
   -3.2446   -0.3744   -0.1482 C   0  0  1  0  0  0  0  0  0  0  0  0
   -1.9214   -2.9225   -0.9980 C   0  0  0  0  0  0  0  0  0  0  0  0
   -3.4573    0.7608    0.8463 C   0  0  2  0  0  0  0  0  0  0  0  0
    0.4545   -3.1537   -1.4330 C   0  0  0  0  0  0  0  0  0  0  0  0
   -0.8894   -3.8457   -1.6351 C   0  0  0  0  0  0  0  0  0  0  0  0
   -0.3447    1.1423   -0.5196 C   0  0  0  0  0  0  0  0  0  0  0  0
    0.4088   -2.6181    1.0374 C   0  0  0  0  0  0  0  0  0  0  0  0
   -4.4881    1.7989    0.4420 C   0  0  0  0  0  0  0  0  0  0  0  0
    2.0235   -3.5806    2.4478 C   0  0  0  0  0  0  0  0  0  0  0  0
    2.8228    1.5726   -0.2922 C   0  0  0  0  0  0  0  0  0  0  0  0
    3.4412    0.6239   -1.0766 C   0  0  0  0  0  0  0  0  0  0  0  0
    4.2259   -0.2801   -0.3040 C   0  0  0  0  0  0  0  0  0  0  0  0
    4.1776    0.0120    1.0413 C   0  0  0  0  0  0  0  0  0  0  0  0
   -1.9782   -1.3860    1.1941 H   0  0  0  0  0  0  0  0  0  0  0  0
   -0.4802    0.3328    1.4643 H   0  0  0  0  0  0  0  0  0  0  0  0
    0.9274   -1.2942   -0.5479 H   0  0  0  0  0  0  0  0  0  0  0  0
   -4.0035   -1.1580   -0.0552 H   0  0  0  0  0  0  0  0  0  0  0  0
   -2.7596   -2.7491   -1.6806 H   0  0  0  0  0  0  0  0  0  0  0  0
   -2.3147   -3.3878   -0.0855 H   0  0  0  0  0  0  0  0  0  0  0  0
   -3.7071    0.3559    1.8356 H   0  0  0  0  0  0  0  0  0  0  0  0
    1.2397   -3.8679   -1.1679 H   0  0  0  0  0  0  0  0  0  0  0  0
    0.7538   -2.6796   -2.3773 H   0  0  0  0  0  0  0  0  0  0  0  0
   -1.0851   -3.9995   -2.7017 H   0  0  0  0  0  0  0  0  0  0  0  0
   -0.8988   -4.8254   -1.1447 H   0  0  0  0  0  0  0  0  0  0  0  0
   -1.0173    1.4431   -1.3311 H   0  0  0  0  0  0  0  0  0  0  0  0
    0.4187    0.5095   -0.9561 H   0  0  0  0  0  0  0  0  0  0  0  0
   -0.2677   -3.4533    1.2540 H   0  0  0  0  0  0  0  0  0  0  0  0
    0.2383   -1.8342    1.7820 H   0  0  0  0  0  0  0  0  0  0  0  0
   -5.4717    1.3414    0.2991 H   0  0  0  0  0  0  0  0  0  0  0  0
   -4.1906    2.3212   -0.4729 H   0  0  0  0  0  0  0  0  0  0  0  0
   -4.1967    0.3002   -1.7105 H   0  0  0  0  0  0  0  0  0  0  0  0
   -0.4092    3.0996    0.2738 H   0  0  0  0  0  0  0  0  0  0  0  0
   -5.2482    3.4247    1.1831 H   0  0  0  0  0  0  0  0  0  0  0  0
    3.0665   -3.9070    2.4729 H   0  0  0  0  0  0  0  0  0  0  0  0
    1.3822   -4.4410    2.6621 H   0  0  0  0  0  0  0  0  0  0  0  0
    1.8820   -2.8047    3.2064 H   0  0  0  0  0  0  0  0  0  0  0  0
    3.3361    0.5765   -2.1527 H   0  0  0  0  0  0  0  0  0  0  0  0
    4.7952   -1.1042   -0.7139 H   0  0  0  0  0  0  0  0  0  0  0  0
    4.6738   -0.5091    1.8478 H   0  0  0  0  0  0  0  0  0  0  0  0
  1  7  2  0  0  0  0
  1  8  2  0  0  0  0
  1 10  1  0  0  0  0
  1 23  1  0  0  0  0
  2 23  1  0  0  0  0
  2 26  1  0  0  0  0
  3 12  1  0  0  0  0
  3 16  1  0  0  0  0
  4 14  1  0  0  0  0
  4 44  1  0  0  0  0
  5 20  1  0  0  0  0
  5 22  1  0  0  0  0
  6 21  1  0  0  0  0
  6 46  1  0  0  0  0
  9 11  1  0  0  0  0
  9 13  1  0  0  0  0
  9 15  1  0  0  0  0
 10 19  1  0  0  0  0
 10 45  1  0  0  0  0
 11 12  1  0  0  0  0
 11 14  1  0  0  0  0
 11 27  1  0  0  0  0
 12 19  1  0  0  0  0
 12 28  1  0  0  0  0
 13 17  1  0  0  0  0
 13 20  1  0  0  0  0
 13 29  1  0  0  0  0
 14 16  1  0  0  0  0
 14 30  1  0  0  0  0
 15 18  1  0  0  0  0
 15 31  1  0  0  0  0
 15 32  1  0  0  0  0
 16 21  1  0  0  0  0
 16 33  1  0  0  0  0
 17 18  1  0  0  0  0
 17 34  1  0  0  0  0
 17 35  1  0  0  0  0
 18 36  1  0  0  0  0
 18 37  1  0  0  0  0
 19 38  1  0  0  0  0
 19 39  1  0  0  0  0
 20 40  1  0  0  0  0
 20 41  1  0  0  0  0
 21 42  1  0  0  0  0
 21 43  1  0  0  0  0
 22 47  1  0  0  0  0
 22 48  1  0  0  0  0
 22 49  1  0  0  0  0
 23 24  2  0  0  0  0
 24 25  1  0  0  0  0
 24 50  1  0  0  0  0
 25 26  2  0  0  0  0
 25 51  1  0  0  0  0
 26 52  1  0  0  0  0
M  END
> <PUBCHEM_COMPOUND_CID>
28961807

> <PUBCHEM_CONFORMER_RMSD>
1

> <PUBCHEM_CONFORMER_DIVERSEORDER>
1
21
69
24
36
29
30
14
13
5
18
67
68
8
7
20
62
38
10
33
51
57
47
27
6
50
49
52
3
48
34
46
63
59
66
58
35
61
9
64
28
32
56
53
60
37
54
17
23
25
11
42
31
40
65
19
44
22
55
2
45
12
4
41
26
39
15
43
16

> <PUBCHEM_MMFF94_PARTIAL_CHARGES>
30
1 1.5
10 -0.91
11 0.27
12 0.28
13 0.27
14 0.28
15 0.27
16 0.28
19 0.36
2 -0.08
20 0.28
21 0.28
22 0.28
23 -0.02
24 -0.15
25 -0.15
26 -0.11
3 -0.56
4 -0.68
44 0.4
45 0.42
46 0.4
5 -0.56
50 0.15
51 0.15
52 0.15
6 -0.68
7 -0.65
8 -0.65
9 -0.81

> <PUBCHEM_EFFECTIVE_ROTOR_COUNT>
10

> <PUBCHEM_PHARMACOPHORE_FEATURES>
13
1 10 donor
1 3 acceptor
1 4 acceptor
1 4 donor
1 5 acceptor
1 6 acceptor
1 6 donor
1 7 acceptor
1 8 acceptor
1 9 cation
5 2 23 24 25 26 rings
5 3 11 12 14 16 rings
5 9 13 15 17 18 rings

> <PUBCHEM_HEAVY_ATOM_COUNT>
26

> <PUBCHEM_ATOM_DEF_STEREO_COUNT>
5

> <PUBCHEM_ATOM_UDEF_STEREO_COUNT>
0

> <PUBCHEM_BOND_DEF_STEREO_COUNT>
0

> <PUBCHEM_BOND_UDEF_STEREO_COUNT>
0

> <PUBCHEM_ISOTOPIC_ATOM_COUNT>
0

> <PUBCHEM_COMPONENT_COUNT>
1

> <PUBCHEM_CACTVS_TAUTO_COUNT>
1

> <PUBCHEM_CONFORMER_ID>
01B9EC0F00000001

> <PUBCHEM_MMFF94_ENERGY>
53.4515

> <PUBCHEM_FEATURE_SELFOVERLAP>
65.997

> <PUBCHEM_SHAPE_FINGERPRINT>
10369192 42 14492466645431448380
10616163 171 17766283454762120428
10675989 125 17762879353909038829
12035759 4 18197758081253182055
12422481 6 17904188244365663576
12592029 89 18334867125401709281
12788726 201 17762901369463128299
13140716 1 18335705008659279921
13583140 156 17967245395491316971
13965767 371 18126265477304345938
14081887 123 17481419800136402920
14178342 30 18198045083905134224
15403338 16 17315626292825190211
15420108 30 18199178504035941823
20600515 1 18343297094111576720
20739085 24 18050860926684235881
20905425 154 17830735357672326058
23419403 2 17462274734385059567
23558518 356 18194681707615643154
23559900 14 17916879027112956748
35225 105 17052513388100017114
445580 8 18336540513242537946
474 4 18335990787393232985
532947 4 18056491551599932119
57091435 65 18190735328766856770
6287921 2 17699283266056249999
7064713 232 18200859687416480250
7164475 11 17910952766222154230
81228 2 17403741537259199729
9709674 26 17690847078745706948

> <PUBCHEM_SHAPE_MULTIPOLES>
497.59
7.3
5.43
1.75
0.8
2.1
0.21
-5.17
1.47
-0.14
-0.06
-0.47
0.98
-2.76

> <PUBCHEM_SHAPE_SELFOVERLAP>
1004.298

> <PUBCHEM_SHAPE_VOLUME>
292.8

> <PUBCHEM_COORDINATE_TYPE>
2
5
10

$$$$
