40777961
  -OEChem-12032416173D

 48 49  0     1  0  0  0  0  0999 V2000
    2.0490   -0.2416   -0.6303 O   0  0  0  0  0  0  0  0  0  0  0  0
    4.1843    2.3143    0.7143 O   0  0  0  0  0  0  0  0  0  0  0  0
    4.9621    0.4584   -1.1617 O   0  0  0  0  0  0  0  0  0  0  0  0
   -0.1129    1.1769   -1.5778 O   0  0  0  0  0  0  0  0  0  0  0  0
    0.0614   -1.7582    1.0182 O   0  0  0  0  0  0  0  0  0  0  0  0
    1.9094   -2.9527    0.2527 N   0  0  0  0  0  0  0  0  0  0  0  0
   -1.3671    2.1099    0.1357 N   0  0  0  0  0  0  0  0  0  0  0  0
    3.5123    1.0737    0.6687 C   0  0  1  0  0  0  0  0  0  0  0  0
    2.2906    1.1197   -0.2331 C   0  0  2  0  0  0  0  0  0  0  0  0
    4.3268   -0.0266    0.0206 C   0  0  1  0  0  0  0  0  0  0  0  0
    3.2460   -1.0182   -0.3958 C   0  0  1  0  0  0  0  0  0  0  0  0
    1.0567    1.6791    0.4522 C   0  0  0  0  0  0  0  0  0  0  0  0
    2.9311   -2.0448    0.6836 C   0  0  0  0  0  0  0  0  0  0  0  0
   -0.1830    1.6266   -0.4309 C   0  0  0  0  0  0  0  0  0  0  0  0
   -2.6347    2.1232   -0.5908 C   0  0  0  0  0  0  0  0  0  0  0  0
    0.5506   -2.7346    0.4560 C   0  0  0  0  0  0  0  0  0  0  0  0
   -1.4256    2.6369    1.4936 C   0  0  0  0  0  0  0  0  0  0  0  0
   -3.4335    0.8749   -0.3498 C   0  0  0  0  0  0  0  0  0  0  0  0
   -0.3049   -3.8322   -0.1175 C   0  0  0  0  0  0  0  0  0  0  0  0
   -3.2676   -0.2307   -1.1839 C   0  0  0  0  0  0  0  0  0  0  0  0
   -4.3411    0.8207    0.7077 C   0  0  0  0  0  0  0  0  0  0  0  0
   -4.0095   -1.3907   -0.9604 C   0  0  0  0  0  0  0  0  0  0  0  0
   -5.0830   -0.3391    0.9314 C   0  0  0  0  0  0  0  0  0  0  0  0
   -4.9173   -1.4448    0.0973 C   0  0  0  0  0  0  0  0  0  0  0  0
    3.2329    0.7851    1.6891 H   0  0  0  0  0  0  0  0  0  0  0  0
    2.4968    1.6996   -1.1423 H   0  0  0  0  0  0  0  0  0  0  0  0
    5.1012   -0.4381    0.6740 H   0  0  0  0  0  0  0  0  0  0  0  0
    3.4931   -1.5238   -1.3366 H   0  0  0  0  0  0  0  0  0  0  0  0
    1.2529    2.7196    0.7320 H   0  0  0  0  0  0  0  0  0  0  0  0
    0.8436    1.0878    1.3509 H   0  0  0  0  0  0  0  0  0  0  0  0
    2.5875   -1.5574    1.6027 H   0  0  0  0  0  0  0  0  0  0  0  0
    3.8195   -2.6397    0.9190 H   0  0  0  0  0  0  0  0  0  0  0  0
    5.0109    2.1799    1.2083 H   0  0  0  0  0  0  0  0  0  0  0  0
    5.4402   -0.2881   -1.5616 H   0  0  0  0  0  0  0  0  0  0  0  0
    2.2021   -3.7905   -0.2418 H   0  0  0  0  0  0  0  0  0  0  0  0
   -2.4233    2.2148   -1.6636 H   0  0  0  0  0  0  0  0  0  0  0  0
   -3.2074    3.0183   -0.3196 H   0  0  0  0  0  0  0  0  0  0  0  0
   -1.9407    3.6026    1.4791 H   0  0  0  0  0  0  0  0  0  0  0  0
   -0.4536    2.7916    1.9594 H   0  0  0  0  0  0  0  0  0  0  0  0
   -1.9904    1.9373    2.1162 H   0  0  0  0  0  0  0  0  0  0  0  0
   -1.3174   -3.7592    0.2892 H   0  0  0  0  0  0  0  0  0  0  0  0
   -0.3447   -3.7296   -1.2053 H   0  0  0  0  0  0  0  0  0  0  0  0
    0.1060   -4.8121    0.1419 H   0  0  0  0  0  0  0  0  0  0  0  0
   -2.5652   -0.2033   -2.0125 H   0  0  0  0  0  0  0  0  0  0  0  0
   -4.4824    1.6759    1.3632 H   0  0  0  0  0  0  0  0  0  0  0  0
   -3.8798   -2.2519   -1.6093 H   0  0  0  0  0  0  0  0  0  0  0  0
   -5.7902   -0.3812    1.7546 H   0  0  0  0  0  0  0  0  0  0  0  0
   -5.4947   -2.3480    0.2715 H   0  0  0  0  0  0  0  0  0  0  0  0
  1  9  1  0  0  0  0
  1 11  1  0  0  0  0
  2  8  1  0  0  0  0
  2 33  1  0  0  0  0
  3 10  1  0  0  0  0
  3 34  1  0  0  0  0
  4 14  2  0  0  0  0
  5 16  2  0  0  0  0
  6 13  1  0  0  0  0
  6 16  1  0  0  0  0
  6 35  1  0  0  0  0
  7 14  1  0  0  0  0
  7 15  1  0  0  0  0
  7 17  1  0  0  0  0
  8  9  1  0  0  0  0
  8 10  1  0  0  0  0
  8 25  1  0  0  0  0
  9 12  1  0  0  0  0
  9 26  1  0  0  0  0
 10 11  1  0  0  0  0
 10 27  1  0  0  0  0
 11 13  1  0  0  0  0
 11 28  1  0  0  0  0
 12 14  1  0  0  0  0
 12 29  1  0  0  0  0
 12 30  1  0  0  0  0
 13 31  1  0  0  0  0
 13 32  1  0  0  0  0
 15 18  1  0  0  0  0
 15 36  1  0  0  0  0
 15 37  1  0  0  0  0
 16 19  1  0  0  0  0
 17 38  1  0  0  0  0
 17 39  1  0  0  0  0
 17 40  1  0  0  0  0
 18 20  2  0  0  0  0
 18 21  1  0  0  0  0
 19 41  1  0  0  0  0
 19 42  1  0  0  0  0
 19 43  1  0  0  0  0
 20 22  1  0  0  0  0
 20 44  1  0  0  0  0
 21 23  2  0  0  0  0
 21 45  1  0  0  0  0
 22 24  2  0  0  0  0
 22 46  1  0  0  0  0
 23 24  1  0  0  0  0
 23 47  1  0  0  0  0
 24 48  1  0  0  0  0
M  END
> <PUBCHEM_COMPOUND_CID>
40777961

> <PUBCHEM_CONFORMER_RMSD>
1.4

> <PUBCHEM_CONFORMER_DIVERSEORDER>
1
33
15
59
56
28
16
35
20
3
5
63
52
62
39
38
46
27
29
32
45
17
11
54
23
40
9
60
26
14
36
7
30
10
48
34
2
24
8
25
58
50
21
6
44
31
42
51
4
18
57
43
19
64
47
12
13
49
53
37
22
55
41
61

> <PUBCHEM_MMFF94_PARTIAL_CHARGES>
32
1 -0.56
10 0.28
11 0.28
12 0.06
13 0.3
14 0.57
15 0.44
16 0.57
17 0.3
18 -0.14
19 0.06
2 -0.68
20 -0.15
21 -0.15
22 -0.15
23 -0.15
24 -0.15
3 -0.68
33 0.4
34 0.4
35 0.37
4 -0.57
44 0.15
45 0.15
46 0.15
47 0.15
48 0.15
5 -0.57
6 -0.73
7 -0.66
8 0.28
9 0.28

> <PUBCHEM_EFFECTIVE_ROTOR_COUNT>
9

> <PUBCHEM_PHARMACOPHORE_FEATURES>
10
1 1 acceptor
1 2 acceptor
1 2 donor
1 3 acceptor
1 3 donor
1 4 acceptor
1 5 acceptor
1 6 donor
5 1 8 9 10 11 rings
6 18 20 21 22 23 24 rings

> <PUBCHEM_HEAVY_ATOM_COUNT>
24

> <PUBCHEM_ATOM_DEF_STEREO_COUNT>
4

> <PUBCHEM_ATOM_UDEF_STEREO_COUNT>
0

> <PUBCHEM_BOND_DEF_STEREO_COUNT>
0

> <PUBCHEM_BOND_UDEF_STEREO_COUNT>
0

> <PUBCHEM_ISOTOPIC_ATOM_COUNT>
0

> <PUBCHEM_COMPONENT_COUNT>
1

> <PUBCHEM_CACTVS_TAUTO_COUNT>
2

> <PUBCHEM_CONFORMER_ID>
026E38E900000001

> <PUBCHEM_MMFF94_ENERGY>
58.7327

> <PUBCHEM_FEATURE_SELFOVERLAP>
50.765

> <PUBCHEM_SHAPE_FINGERPRINT>
10616163 171 18338797797755853119
108634 29 18338806714161337358
11578080 2 16557045999979156026
12553582 1 18341322340972785645
12596599 1 17841439128637434234
12596602 18 17489593411058554139
13224815 77 18335134250665895219
13402501 40 18262523709965043747
13583140 156 18269823246859828749
14178342 30 17980749455553585944
14341114 328 18201720660597296185
14617045 38 18410018710884869029
14765038 42 18128835181838372569
14787075 74 18200306761658693036
15209289 33 18340206383904631805
15537594 2 18341339937379886087
16067690 210 16056611940976588131
17349148 13 17894915122274080624
1813 80 17821731650105054781
19591789 44 18410007694030316046
20028762 73 18272927241294397494
21673915 165 18410854373749414239
221490 88 18192431870655058498
22393880 68 18265616481343742644
235170 7 17168137923418381911
23559900 14 18122332485134884096
2871803 45 18410566284507373717
3737641 26 18341340985220433507
392239 28 18343861138748408832
4409770 3 15169922192026957245
463206 1 18267303308596604907
6287921 2 18197779899360095143
7097593 13 17692816982285671704

> <PUBCHEM_SHAPE_MULTIPOLES>
454.6
10.1
3.74
1.15
2.52
2.42
-0.05
-0.08
0.04
-0.59
0.73
0.36
-0.28
-0.31

> <PUBCHEM_SHAPE_SELFOVERLAP>
938.327

> <PUBCHEM_SHAPE_VOLUME>
260.6

> <PUBCHEM_COORDINATE_TYPE>
2
5
10

$$$$
