26741937
  -OEChem-12032416183D

 66 69  0     1  0  0  0  0  0999 V2000
   -3.5351   -2.5083    2.6874 O   0  0  0  0  0  0  0  0  0  0  0  0
   -2.3815    0.2131   -1.8286 O   0  0  0  0  0  0  0  0  0  0  0  0
   -1.1991   -4.0319   -0.6279 O   0  0  0  0  0  0  0  0  0  0  0  0
    4.4158   -1.1845    0.0155 O   0  0  0  0  0  0  0  0  0  0  0  0
   -4.4330   -0.5815   -1.0898 N   0  0  0  0  0  0  0  0  0  0  0  0
   -1.8826   -2.0124    0.2826 N   0  0  0  0  0  0  0  0  0  0  0  0
   -4.0587    1.7282   -1.4169 N   0  0  0  0  0  0  0  0  0  0  0  0
   -3.3014   -2.3196    0.3196 C   0  0  1  0  0  0  0  0  0  0  0  0
   -3.9177   -1.6819    1.5790 C   0  0  1  0  0  0  0  0  0  0  0  0
   -5.4462   -1.5586    1.5839 C   0  0  0  0  0  0  0  0  0  0  0  0
   -3.9515   -1.9611   -1.0238 C   0  0  0  0  0  0  0  0  0  0  0  0
   -5.9569   -0.3127    0.8546 C   0  0  0  0  0  0  0  0  0  0  0  0
   -5.8212   -0.3821   -0.6604 C   0  0  0  0  0  0  0  0  0  0  0  0
   -3.5433    0.4381   -1.4747 C   0  0  0  0  0  0  0  0  0  0  0  0
   -0.9457   -2.9107   -0.1953 C   0  0  0  0  0  0  0  0  0  0  0  0
    0.4675   -2.4558   -0.1413 C   0  0  0  0  0  0  0  0  0  0  0  0
   -3.2713    2.8891   -1.7662 C   0  0  0  0  0  0  0  0  0  0  0  0
    1.4978   -3.3909   -0.0433 C   0  0  0  0  0  0  0  0  0  0  0  0
    0.7640   -1.0935   -0.1866 C   0  0  0  0  0  0  0  0  0  0  0  0
   -2.5414    3.4505   -0.5804 C   0  0  0  0  0  0  0  0  0  0  0  0
    2.8246   -2.9640    0.0095 C   0  0  0  0  0  0  0  0  0  0  0  0
    2.0908   -0.6664   -0.1337 C   0  0  0  0  0  0  0  0  0  0  0  0
    3.1210   -1.6016   -0.0356 C   0  0  0  0  0  0  0  0  0  0  0  0
   -3.1458    4.4248    0.2140 C   0  0  0  0  0  0  0  0  0  0  0  0
   -1.2584    2.9975   -0.2732 C   0  0  0  0  0  0  0  0  0  0  0  0
   -2.4673    4.9462    1.3156 C   0  0  0  0  0  0  0  0  0  0  0  0
   -0.5798    3.5187    0.8284 C   0  0  0  0  0  0  0  0  0  0  0  0
   -1.1843    4.4932    1.6227 C   0  0  0  0  0  0  0  0  0  0  0  0
    4.6467    0.2226   -0.0353 C   0  0  0  0  0  0  0  0  0  0  0  0
    6.1249    0.4783    0.0006 C   0  0  0  0  0  0  0  0  0  0  0  0
    6.7746    0.6469    1.2233 C   0  0  0  0  0  0  0  0  0  0  0  0
    6.8493    0.5472   -1.1893 C   0  0  0  0  0  0  0  0  0  0  0  0
    8.1487    0.8846    1.2562 C   0  0  0  0  0  0  0  0  0  0  0  0
    8.2234    0.7848   -1.1566 C   0  0  0  0  0  0  0  0  0  0  0  0
    8.8730    0.9535    0.0663 C   0  0  0  0  0  0  0  0  0  0  0  0
   -3.3712   -3.4115    0.4190 H   0  0  0  0  0  0  0  0  0  0  0  0
   -3.4750   -0.6947    1.7635 H   0  0  0  0  0  0  0  0  0  0  0  0
   -5.7939   -1.4973    2.6237 H   0  0  0  0  0  0  0  0  0  0  0  0
   -5.9068   -2.4669    1.1764 H   0  0  0  0  0  0  0  0  0  0  0  0
   -3.2480   -2.1276   -1.8491 H   0  0  0  0  0  0  0  0  0  0  0  0
   -4.8002   -2.6297   -1.2111 H   0  0  0  0  0  0  0  0  0  0  0  0
   -7.0184   -0.1802    1.0966 H   0  0  0  0  0  0  0  0  0  0  0  0
   -5.4363    0.5745    1.2355 H   0  0  0  0  0  0  0  0  0  0  0  0
   -6.4244   -1.2097   -1.0534 H   0  0  0  0  0  0  0  0  0  0  0  0
   -6.2442    0.5177   -1.1139 H   0  0  0  0  0  0  0  0  0  0  0  0
   -1.5995   -1.1047    0.6347 H   0  0  0  0  0  0  0  0  0  0  0  0
   -3.8241   -2.0607    3.5009 H   0  0  0  0  0  0  0  0  0  0  0  0
   -4.9685    1.9069   -1.0122 H   0  0  0  0  0  0  0  0  0  0  0  0
   -3.9573    3.6360   -2.1819 H   0  0  0  0  0  0  0  0  0  0  0  0
   -2.5645    2.6317   -2.5639 H   0  0  0  0  0  0  0  0  0  0  0  0
    1.2870   -4.4563   -0.0019 H   0  0  0  0  0  0  0  0  0  0  0  0
   -0.0025   -0.3328   -0.2949 H   0  0  0  0  0  0  0  0  0  0  0  0
    3.6231   -3.6967    0.0869 H   0  0  0  0  0  0  0  0  0  0  0  0
    2.2458    0.4061   -0.1780 H   0  0  0  0  0  0  0  0  0  0  0  0
   -4.1457    4.7844   -0.0137 H   0  0  0  0  0  0  0  0  0  0  0  0
   -0.7720    2.2431   -0.8850 H   0  0  0  0  0  0  0  0  0  0  0  0
   -2.9381    5.7044    1.9345 H   0  0  0  0  0  0  0  0  0  0  0  0
    0.4194    3.1662    1.0670 H   0  0  0  0  0  0  0  0  0  0  0  0
   -0.6559    4.8991    2.4803 H   0  0  0  0  0  0  0  0  0  0  0  0
    4.1829    0.7246    0.8242 H   0  0  0  0  0  0  0  0  0  0  0  0
    4.2468    0.6521   -0.9635 H   0  0  0  0  0  0  0  0  0  0  0  0
    6.2218    0.5931    2.1574 H   0  0  0  0  0  0  0  0  0  0  0  0
    6.3555    0.4150   -2.1484 H   0  0  0  0  0  0  0  0  0  0  0  0
    8.6547    1.0153    2.2083 H   0  0  0  0  0  0  0  0  0  0  0  0
    8.7877    0.8378   -2.0831 H   0  0  0  0  0  0  0  0  0  0  0  0
    9.9429    1.1382    0.0918 H   0  0  0  0  0  0  0  0  0  0  0  0
  1  9  1  0  0  0  0
  1 47  1  0  0  0  0
  2 14  2  0  0  0  0
  3 15  2  0  0  0  0
  4 23  1  0  0  0  0
  4 29  1  0  0  0  0
  5 11  1  0  0  0  0
  5 13  1  0  0  0  0
  5 14  1  0  0  0  0
  6  8  1  0  0  0  0
  6 15  1  0  0  0  0
  6 46  1  0  0  0  0
  7 14  1  0  0  0  0
  7 17  1  0  0  0  0
  7 48  1  0  0  0  0
  8  9  1  0  0  0  0
  8 11  1  0  0  0  0
  8 36  1  0  0  0  0
  9 10  1  0  0  0  0
  9 37  1  0  0  0  0
 10 12  1  0  0  0  0
 10 38  1  0  0  0  0
 10 39  1  0  0  0  0
 11 40  1  0  0  0  0
 11 41  1  0  0  0  0
 12 13  1  0  0  0  0
 12 42  1  0  0  0  0
 12 43  1  0  0  0  0
 13 44  1  0  0  0  0
 13 45  1  0  0  0  0
 15 16  1  0  0  0  0
 16 18  2  0  0  0  0
 16 19  1  0  0  0  0
 17 20  1  0  0  0  0
 17 49  1  0  0  0  0
 17 50  1  0  0  0  0
 18 21  1  0  0  0  0
 18 51  1  0  0  0  0
 19 22  2  0  0  0  0
 19 52  1  0  0  0  0
 20 24  2  0  0  0  0
 20 25  1  0  0  0  0
 21 23  2  0  0  0  0
 21 53  1  0  0  0  0
 22 23  1  0  0  0  0
 22 54  1  0  0  0  0
 24 26  1  0  0  0  0
 24 55  1  0  0  0  0
 25 27  2  0  0  0  0
 25 56  1  0  0  0  0
 26 28  2  0  0  0  0
 26 57  1  0  0  0  0
 27 28  1  0  0  0  0
 27 58  1  0  0  0  0
 28 59  1  0  0  0  0
 29 30  1  0  0  0  0
 29 60  1  0  0  0  0
 29 61  1  0  0  0  0
 30 31  2  0  0  0  0
 30 32  1  0  0  0  0
 31 33  1  0  0  0  0
 31 62  1  0  0  0  0
 32 34  2  0  0  0  0
 32 63  1  0  0  0  0
 33 35  2  0  0  0  0
 33 64  1  0  0  0  0
 34 35  1  0  0  0  0
 34 65  1  0  0  0  0
 35 66  1  0  0  0  0
M  END
> <PUBCHEM_COMPOUND_CID>
26741937

> <PUBCHEM_CONFORMER_RMSD>
1.2

> <PUBCHEM_CONFORMER_DIVERSEORDER>
2
136
186
13
98
12
102
148
82
1
77
99
19
151
121
170
28
188
178
179
168
111
128
149
173
158
31
196
147
10
176
117
101
161
127
103
197
201
133
177
131
137
193
55
187
56
153
135
199
205
206
130
11
107
26
97
116
125
66
21
18
108
157
114
192
34
25
100
154
203
42
198
70
48
123
113
76
46
22
166
92
164
185
93
64
24
160
33
83
162
145
20
37
118
73
144
155
129
29
181
180
16
58
165
78
119
27
146
115
91
139
109
152
62
159
110
14
40
200
79
172
54
143
74
202
156
104
95
84
124
122
112
183
86
120
30
194
5
169
41
167
105
94
126
17
50
67
49
88
138
6
45
47
72
23
8
141
175
38
43
63
7
81
65
87
80
106
190
191
85
204
32
57
163
189
15
96
53
75
60
44
69
52
182
195
134
36
3
184
59
51
140
9
71
174
142
35
68
89
150
132
4
171
90
61
39

> <PUBCHEM_MMFF94_PARTIAL_CHARGES>
50
1 -0.68
11 0.3
13 0.3
14 0.69
15 0.54
16 0.09
17 0.44
18 -0.15
19 -0.15
2 -0.57
20 -0.14
21 -0.15
22 -0.15
23 0.08
24 -0.15
25 -0.15
26 -0.15
27 -0.15
28 -0.15
29 0.42
3 -0.57
30 -0.14
31 -0.15
32 -0.15
33 -0.15
34 -0.15
35 -0.15
4 -0.36
46 0.37
47 0.4
48 0.37
5 -0.66
51 0.15
52 0.15
53 0.15
54 0.15
55 0.15
56 0.15
57 0.15
58 0.15
59 0.15
6 -0.73
62 0.15
63 0.15
64 0.15
65 0.15
66 0.15
7 -0.73
8 0.3
9 0.28

> <PUBCHEM_EFFECTIVE_ROTOR_COUNT>
11.4

> <PUBCHEM_PHARMACOPHORE_FEATURES>
11
1 1 acceptor
1 1 donor
1 2 acceptor
1 3 acceptor
1 4 acceptor
1 6 donor
1 7 donor
6 16 18 19 21 22 23 rings
6 20 24 25 26 27 28 rings
6 30 31 32 33 34 35 rings
7 5 8 9 10 11 12 13 rings

> <PUBCHEM_HEAVY_ATOM_COUNT>
35

> <PUBCHEM_ATOM_DEF_STEREO_COUNT>
2

> <PUBCHEM_ATOM_UDEF_STEREO_COUNT>
0

> <PUBCHEM_BOND_DEF_STEREO_COUNT>
0

> <PUBCHEM_BOND_UDEF_STEREO_COUNT>
0

> <PUBCHEM_ISOTOPIC_ATOM_COUNT>
0

> <PUBCHEM_COMPONENT_COUNT>
1

> <PUBCHEM_CACTVS_TAUTO_COUNT>
4

> <PUBCHEM_CONFORMER_ID>
01980CB100000002

> <PUBCHEM_MMFF94_ENERGY>
95.2574

> <PUBCHEM_FEATURE_SELFOVERLAP>
55.825

> <PUBCHEM_SHAPE_FINGERPRINT>
10 15 17968094252817278826
100830 39 18410007741891900868
10816530 145 18268157620003428275
10951579 204 18340785749988424692
11135609 187 18120642536428592525
11135609 99 10015864289462543642
11408170 253 18264219174539589732
12788726 201 18337663119125716419
13761468 95 17918000438140444374
13947920 24 18411696565112007992
14040221 137 18198358273163504705
14340393 34 14129054816198491104
14394314 77 18341618079842530249
15183329 4 16845578625964817182
15276724 80 18130510756271358806
15289351 153 18339914924089398226
15347590 135 18040442100528631179
15351334 14 17559973025708864532
16728433 281 18340218410636753748
21033648 144 18272373078928706590
21057603 308 17984687928265925201
4408954 64 11342299912383549453
4616759 239 17822009839136086378
48014 12 18113905948806636876
50150288 127 17058089879201233977
5047190 69 18341884243271107352
5104073 3 17822846477702376082
57527585 21 18055047914550157277
58902169 19 14620802630636271266
6036956 94 17980474560430862589
6201320 215 18342165662644838728

> <PUBCHEM_SHAPE_MULTIPOLES>
681.86
19.86
6.2
1.64
50.05
5.94
0.31
4.14
0.68
-8.03
1.67
-1.68
0.39
1.26

> <PUBCHEM_SHAPE_SELFOVERLAP>
1452.001

> <PUBCHEM_SHAPE_VOLUME>
374.2

> <PUBCHEM_COORDINATE_TYPE>
2
5
10

$$$$
