26745158
  -OEChem-12032416323D

 35 38  0     1  0  0  0  0  0999 V2000
    0.5814   -2.5425    0.1251 O   0  0  0  0  0  0  0  0  0  0  0  0
   -5.7493    2.5477   -0.1309 O   0  5  0  0  0  0  0  0  0  0  0  0
   -3.6183    3.0396   -0.3209 O   0  0  0  0  0  0  0  0  0  0  0  0
    2.6573   -0.3219   -1.5382 N   0  0  0  0  0  0  0  0  0  0  0  0
    5.9664    1.0559   -0.4667 N   0  0  0  0  0  0  0  0  0  0  0  0
    5.0184    1.1913    1.5551 N   0  0  0  0  0  0  0  0  0  0  0  0
   -0.1648   -0.4421   -0.0943 N   0  0  0  0  0  0  0  0  0  0  0  0
   -0.8144   -2.6135    0.2174 N   0  0  0  0  0  0  0  0  0  0  0  0
   -4.5422    2.2060   -0.1612 N   0  3  0  0  0  0  0  0  0  0  0  0
    2.3529   -0.8827   -0.1896 C   0  0  1  0  0  0  0  0  0  0  0  0
    2.8204    0.0577    0.9689 C   0  0  0  0  0  0  0  0  0  0  0  0
    4.1807    0.5668    0.6760 C   0  0  0  0  0  0  0  0  0  0  0  0
    4.1138   -0.1537   -1.7578 C   0  0  0  0  0  0  0  0  0  0  0  0
    4.7394    0.4764   -0.5756 C   0  0  0  0  0  0  0  0  0  0  0  0
    0.8802   -1.2295   -0.0573 C   0  0  0  0  0  0  0  0  0  0  0  0
    6.0879    1.4725    0.8364 C   0  0  0  0  0  0  0  0  0  0  0  0
   -1.1812   -1.3360    0.0785 C   0  0  0  0  0  0  0  0  0  0  0  0
   -2.5535   -0.9195    0.1092 C   0  0  0  0  0  0  0  0  0  0  0  0
   -2.8772    0.4291   -0.0397 C   0  0  0  0  0  0  0  0  0  0  0  0
   -3.5644   -1.8640    0.2880 C   0  0  0  0  0  0  0  0  0  0  0  0
   -4.2118    0.8333   -0.0098 C   0  0  0  0  0  0  0  0  0  0  0  0
   -4.8990   -1.4597    0.3180 C   0  0  0  0  0  0  0  0  0  0  0  0
   -5.2228   -0.1110    0.1693 C   0  0  0  0  0  0  0  0  0  0  0  0
    2.9092   -1.8280   -0.1037 H   0  0  0  0  0  0  0  0  0  0  0  0
    2.8122   -0.4879    1.9195 H   0  0  0  0  0  0  0  0  0  0  0  0
    2.1367    0.9096    1.0703 H   0  0  0  0  0  0  0  0  0  0  0  0
    4.2696    0.4557   -2.6542 H   0  0  0  0  0  0  0  0  0  0  0  0
    4.5651   -1.1348   -1.9432 H   0  0  0  0  0  0  0  0  0  0  0  0
    2.2089    0.5923   -1.6145 H   0  0  0  0  0  0  0  0  0  0  0  0
    6.6579    1.1600   -1.1977 H   0  0  0  0  0  0  0  0  0  0  0  0
    6.9780    1.9715    1.1926 H   0  0  0  0  0  0  0  0  0  0  0  0
   -2.0853    1.1617   -0.1789 H   0  0  0  0  0  0  0  0  0  0  0  0
   -3.3508   -2.9232    0.4074 H   0  0  0  0  0  0  0  0  0  0  0  0
   -5.6862   -2.1949    0.4573 H   0  0  0  0  0  0  0  0  0  0  0  0
   -6.2732    0.1670    0.1980 H   0  0  0  0  0  0  0  0  0  0  0  0
  1  8  1  0  0  0  0
  1 15  1  0  0  0  0
  2  9  1  0  0  0  0
  3  9  2  0  0  0  0
  4 10  1  0  0  0  0
  4 13  1  0  0  0  0
  4 29  1  0  0  0  0
  5 14  1  0  0  0  0
  5 16  1  0  0  0  0
  5 30  1  0  0  0  0
  6 12  1  0  0  0  0
  6 16  2  0  0  0  0
  7 15  2  0  0  0  0
  7 17  1  0  0  0  0
  8 17  2  0  0  0  0
  9 21  1  0  0  0  0
 10 11  1  0  0  0  0
 10 15  1  0  0  0  0
 10 24  1  0  0  0  0
 11 12  1  0  0  0  0
 11 25  1  0  0  0  0
 11 26  1  0  0  0  0
 12 14  2  0  0  0  0
 13 14  1  0  0  0  0
 13 27  1  0  0  0  0
 13 28  1  0  0  0  0
 16 31  1  0  0  0  0
 17 18  1  0  0  0  0
 18 19  2  0  0  0  0
 18 20  1  0  0  0  0
 19 21  1  0  0  0  0
 19 32  1  0  0  0  0
 20 22  2  0  0  0  0
 20 33  1  0  0  0  0
 21 23  2  0  0  0  0
 22 23  1  0  0  0  0
 22 34  1  0  0  0  0
 23 35  1  0  0  0  0
M  CHG  2   2  -1   9   1
M  END
> <PUBCHEM_COMPOUND_CID>
26745158

> <PUBCHEM_CONFORMER_RMSD>
0.6

> <PUBCHEM_CONFORMER_DIVERSEORDER>
1
24
16
13
12
3
20
21
10
18
15
6
25
23
14
19
4
7
22
11
2
26
9
8
5
17

> <PUBCHEM_MMFF94_PARTIAL_CHARGES>
30
1 -0.02
10 0.45
11 0.18
12 0.05
13 0.45
14 -0.33
15 0.3
16 0.04
17 0.46
18 0.05
19 -0.15
2 -0.52
20 -0.15
21 0.13
22 -0.15
23 -0.15
29 0.36
3 -0.52
30 0.27
31 0.15
32 0.15
33 0.15
34 0.15
35 0.15
4 -0.9
5 0.03
6 -0.57
7 -0.57
8 -0.41
9 0.91

> <PUBCHEM_EFFECTIVE_ROTOR_COUNT>
3.8

> <PUBCHEM_PHARMACOPHORE_FEATURES>
12
1 2 acceptor
1 2 anion
1 3 acceptor
1 4 cation
1 4 donor
1 5 donor
3 5 6 16 cation
3 7 8 17 cation
5 1 7 8 15 17 rings
5 5 6 12 14 16 rings
6 18 19 20 21 22 23 rings
6 4 10 11 12 13 14 rings

> <PUBCHEM_HEAVY_ATOM_COUNT>
23

> <PUBCHEM_ATOM_DEF_STEREO_COUNT>
1

> <PUBCHEM_ATOM_UDEF_STEREO_COUNT>
0

> <PUBCHEM_BOND_DEF_STEREO_COUNT>
0

> <PUBCHEM_BOND_UDEF_STEREO_COUNT>
0

> <PUBCHEM_ISOTOPIC_ATOM_COUNT>
0

> <PUBCHEM_COMPONENT_COUNT>
1

> <PUBCHEM_CACTVS_TAUTO_COUNT>
2

> <PUBCHEM_CONFORMER_ID>
0198194600000001

> <PUBCHEM_MMFF94_ENERGY>
46.4843

> <PUBCHEM_FEATURE_SELFOVERLAP>
61.078

> <PUBCHEM_SHAPE_FINGERPRINT>
10 15 18259990362323422441
10411042 1 17761212516089729699
10498660 4 18342742875235363465
10670039 82 18188220822824964348
10692045 39 18189325797999898154
11069576 57 14404358152759412820
11128504 68 13758077424233669586
12107183 9 17972303024256178746
12236239 1 17458622376122880426
12390115 104 18342186535748027753
12403259 118 17967538999286281943
12403259 415 18343029877824525294
12422481 6 17241316967871933924
12596602 18 16950281861811344561
12633257 1 15864073195466297394
12730499 353 17775013422626464990
12788726 201 17027992165693553122
12916748 109 18409454721038016474
12969540 114 17203324520152716238
13073987 5 18334293171278377954
13402501 40 18272929457623888840
13740256 8 9151170960976603594
13785724 45 17832416502562689658
13914758 101 15213283237175990975
14251764 75 17837497350110708617
14341114 328 17095244734876779762
14466204 15 18334573546848851712
14739800 52 18337658746384883144
15183329 4 16271932614315708678
15238133 3 18041001760985177580
15880784 105 14490477538258836467
16079462 125 17846775248009523906
18222031 100 10807939258375944530
19377110 9 17676212377174581147
200 152 14692303858420748274
20281389 69 18410290337491170184
20645477 56 18059859518550520631
20645477 70 16773251638624376894
21033648 29 18201991162096037984
21279426 13 18271530797492222750
21315763 129 18340204210540611584
22289505 5 17846781806630631320
23559900 14 18053660270457159075
26918003 58 12179837316542047671
2838139 119 18201709678766710484
2916195 48 18271804665865483394
341906 21 18408041810110170352
3459 39 18337370700382801656
34797466 226 17704359887371826223
351380 3 12175627282245171815
441001 317 18410856560093437747
44249763 50 17845356886035287133
465052 167 11602816892136183392
469060 322 18263385688595001681
5104073 3 18188213092031829931
5283173 99 18343304764542872104
653340 110 18117837690149195364
7064713 232 18259706674758182869
7808743 9 18410007753969700995
960060 61 14189575230457005298
9981440 41 18259990366418462659

> <PUBCHEM_SHAPE_MULTIPOLES>
425.84
15.42
2.55
1.05
5.34
0.82
-0.17
9.48
0.97
-3.85
0.05
1.76
0.09
1.28

> <PUBCHEM_SHAPE_SELFOVERLAP>
944.135

> <PUBCHEM_SHAPE_VOLUME>
228.3

> <PUBCHEM_COORDINATE_TYPE>
2
5
10

$$$$
