45783414
  -OEChem-12032416313D

 49 52  0     1  0  0  0  0  0999 V2000
   -0.7196    2.5426    0.8017 O   0  0  0  0  0  0  0  0  0  0  0  0
   -1.6313   -0.2963   -2.1433 O   0  0  0  0  0  0  0  0  0  0  0  0
    1.7530   -1.2465   -0.2176 O   0  0  0  0  0  0  0  0  0  0  0  0
    0.2297   -3.5397    0.2859 O   0  0  0  0  0  0  0  0  0  0  0  0
   -2.9795   -0.1267    0.4601 N   0  0  1  0  0  0  0  0  0  0  0  0
    0.0580    0.4532    1.0170 N   0  0  0  0  0  0  0  0  0  0  0  0
    0.6567    2.6115    0.5513 N   0  0  0  0  0  0  0  0  0  0  0  0
    4.0088   -0.7759   -0.0879 N   0  0  0  0  0  0  0  0  0  0  0  0
   -2.4317    0.8950    1.3745 C   0  0  1  0  0  0  0  0  0  0  0  0
   -2.6144    0.2984    2.7823 C   0  0  0  0  0  0  0  0  0  0  0  0
   -3.3266   -1.0287    2.5624 C   0  0  0  0  0  0  0  0  0  0  0  0
   -3.9995   -0.8537    1.2160 C   0  0  0  0  0  0  0  0  0  0  0  0
   -3.5089    0.4337   -0.7766 C   0  0  0  0  0  0  0  0  0  0  0  0
   -0.9889    1.2376    1.0675 C   0  0  0  0  0  0  0  0  0  0  0  0
   -2.4158    0.7465   -1.7635 C   0  0  0  0  0  0  0  0  0  0  0  0
    1.0437    1.3408    0.6970 C   0  0  0  0  0  0  0  0  0  0  0  0
   -2.0194    1.9038   -2.3925 C   0  0  0  0  0  0  0  0  0  0  0  0
   -0.9209    1.5494   -3.2116 C   0  0  0  0  0  0  0  0  0  0  0  0
    2.4066    0.9255    0.5313 C   0  0  0  0  0  0  0  0  0  0  0  0
   -0.7242    0.2008   -3.0245 C   0  0  0  0  0  0  0  0  0  0  0  0
    2.7396   -0.3426    0.0830 C   0  0  0  0  0  0  0  0  0  0  0  0
    3.4428    1.8056    0.8229 C   0  0  0  0  0  0  0  0  0  0  0  0
    4.7617    1.3965    0.6597 C   0  0  0  0  0  0  0  0  0  0  0  0
    4.9894    0.1073    0.2057 C   0  0  0  0  0  0  0  0  0  0  0  0
    2.1760   -2.5263   -0.6714 C   0  0  0  0  0  0  0  0  0  0  0  0
    0.9551   -3.3886   -0.9284 C   0  0  0  0  0  0  0  0  0  0  0  0
   -0.9406   -4.3233    0.0991 C   0  0  0  0  0  0  0  0  0  0  0  0
   -3.0291    1.8167    1.3308 H   0  0  0  0  0  0  0  0  0  0  0  0
   -1.6769    0.1511    3.3291 H   0  0  0  0  0  0  0  0  0  0  0  0
   -3.2514    0.9599    3.3823 H   0  0  0  0  0  0  0  0  0  0  0  0
   -4.0387   -1.2538    3.3617 H   0  0  0  0  0  0  0  0  0  0  0  0
   -2.5923   -1.8429    2.5198 H   0  0  0  0  0  0  0  0  0  0  0  0
   -4.9211   -0.2677    1.3242 H   0  0  0  0  0  0  0  0  0  0  0  0
   -4.2417   -1.8185    0.7596 H   0  0  0  0  0  0  0  0  0  0  0  0
   -4.1309    1.3197   -0.5978 H   0  0  0  0  0  0  0  0  0  0  0  0
   -4.1572   -0.3045   -1.2682 H   0  0  0  0  0  0  0  0  0  0  0  0
   -2.4639    2.8816   -2.2753 H   0  0  0  0  0  0  0  0  0  0  0  0
   -0.3434    2.1962   -3.8561 H   0  0  0  0  0  0  0  0  0  0  0  0
   -0.0181   -0.5142   -3.4210 H   0  0  0  0  0  0  0  0  0  0  0  0
    3.2534    2.8129    1.1854 H   0  0  0  0  0  0  0  0  0  0  0  0
    5.5856    2.0647    0.8824 H   0  0  0  0  0  0  0  0  0  0  0  0
    2.7909   -3.0031    0.1021 H   0  0  0  0  0  0  0  0  0  0  0  0
    2.7501   -2.4298   -1.6006 H   0  0  0  0  0  0  0  0  0  0  0  0
    5.9999   -0.2606    0.0621 H   0  0  0  0  0  0  0  0  0  0  0  0
    0.3089   -2.9033   -1.6691 H   0  0  0  0  0  0  0  0  0  0  0  0
    1.2624   -4.3713   -1.3025 H   0  0  0  0  0  0  0  0  0  0  0  0
   -1.6162   -3.8390   -0.6128 H   0  0  0  0  0  0  0  0  0  0  0  0
   -0.6797   -5.3269   -0.2501 H   0  0  0  0  0  0  0  0  0  0  0  0
   -1.4534   -4.4100    1.0607 H   0  0  0  0  0  0  0  0  0  0  0  0
  1  7  1  0  0  0  0
  1 14  1  0  0  0  0
  2 15  1  0  0  0  0
  2 20  1  0  0  0  0
  3 21  1  0  0  0  0
  3 25  1  0  0  0  0
  4 26  1  0  0  0  0
  4 27  1  0  0  0  0
  5  9  1  0  0  0  0
  5 12  1  0  0  0  0
  5 13  1  0  0  0  0
  6 14  2  0  0  0  0
  6 16  1  0  0  0  0
  7 16  2  0  0  0  0
  8 21  1  0  0  0  0
  8 24  2  0  0  0  0
  9 10  1  0  0  0  0
  9 14  1  0  0  0  0
  9 28  1  0  0  0  0
 10 11  1  0  0  0  0
 10 29  1  0  0  0  0
 10 30  1  0  0  0  0
 11 12  1  0  0  0  0
 11 31  1  0  0  0  0
 11 32  1  0  0  0  0
 12 33  1  0  0  0  0
 12 34  1  0  0  0  0
 13 15  1  0  0  0  0
 13 35  1  0  0  0  0
 13 36  1  0  0  0  0
 15 17  2  0  0  0  0
 16 19  1  0  0  0  0
 17 18  1  0  0  0  0
 17 37  1  0  0  0  0
 18 20  2  0  0  0  0
 18 38  1  0  0  0  0
 19 21  2  0  0  0  0
 19 22  1  0  0  0  0
 20 39  1  0  0  0  0
 22 23  2  0  0  0  0
 22 40  1  0  0  0  0
 23 24  1  0  0  0  0
 23 41  1  0  0  0  0
 24 44  1  0  0  0  0
 25 26  1  0  0  0  0
 25 42  1  0  0  0  0
 25 43  1  0  0  0  0
 26 45  1  0  0  0  0
 26 46  1  0  0  0  0
 27 47  1  0  0  0  0
 27 48  1  0  0  0  0
 27 49  1  0  0  0  0
M  END
> <PUBCHEM_COMPOUND_CID>
45783414

> <PUBCHEM_CONFORMER_RMSD>
1

> <PUBCHEM_CONFORMER_DIVERSEORDER>
1
14
4
137
140
58
76
109
111
32
51
77
119
145
38
8
82
23
128
50
142
63
71
97
73
136
81
138
31
144
27
89
66
30
70
96
40
118
85
132
87
117
148
92
61
94
108
129
83
88
116
65
153
60
115
112
34
101
52
62
146
95
106
131
11
147
46
93
86
141
53
59
125
12
139
107
123
33
103
114
150
75
18
48
133
152
5
7
72
68
110
39
143
47
57
20
64
80
22
134
121
43
44
102
100
78
126
37
105
84
10
79
42
21
74
26
13
29
91
151
3
90
149
16
130
17
28
49
98
9
113
67
35
45
69
104
15
55
2
56
36
135
127
19
6
120
41
54
99
25
122
124
24

> <PUBCHEM_MMFF94_PARTIAL_CHARGES>
31
1 -0.02
12 0.27
13 0.45
14 0.3
15 -0.04
16 0.46
17 -0.15
18 -0.15
19 0.05
2 -0.28
20 -0.01
21 0.39
22 -0.15
23 -0.15
24 0.16
25 0.28
26 0.28
27 0.28
3 -0.36
37 0.15
38 0.15
39 0.15
4 -0.56
40 0.15
41 0.15
44 0.15
5 -0.81
6 -0.57
7 -0.41
8 -0.62
9 0.45

> <PUBCHEM_EFFECTIVE_ROTOR_COUNT>
9

> <PUBCHEM_PHARMACOPHORE_FEATURES>
10
1 2 acceptor
1 3 acceptor
1 4 acceptor
1 5 cation
1 8 acceptor
3 6 7 16 cation
5 1 6 7 14 16 rings
5 2 15 17 18 20 rings
5 5 9 10 11 12 rings
6 8 19 21 22 23 24 rings

> <PUBCHEM_HEAVY_ATOM_COUNT>
27

> <PUBCHEM_ATOM_DEF_STEREO_COUNT>
1

> <PUBCHEM_ATOM_UDEF_STEREO_COUNT>
0

> <PUBCHEM_BOND_DEF_STEREO_COUNT>
0

> <PUBCHEM_BOND_UDEF_STEREO_COUNT>
0

> <PUBCHEM_ISOTOPIC_ATOM_COUNT>
0

> <PUBCHEM_COMPONENT_COUNT>
1

> <PUBCHEM_CACTVS_TAUTO_COUNT>
1

> <PUBCHEM_CONFORMER_ID>
02BA997600000001

> <PUBCHEM_MMFF94_ENERGY>
47.5429

> <PUBCHEM_FEATURE_SELFOVERLAP>
50.801

> <PUBCHEM_SHAPE_FINGERPRINT>
11578080 2 17462581506829939316
12156800 1 17335103355289905254
12788726 201 15338263709834122725
13911987 19 18410289246654295260
16752209 62 15840687614025635581
1813 80 17097243651669922433
19930381 70 18268434529883583563
23557571 272 17240486883621558677
23728640 28 15769493243926183053
238 59 17905844267732797087
35225 105 17840879791010121727
469060 322 17679288921993612838
550186 7 16878773895418657430

> <PUBCHEM_SHAPE_MULTIPOLES>
512.25
7.36
3.65
2.84
6.2
4.83
1.52
-0.97
-3.01
0.39
0.79
-3.34
-1.21
1.88

> <PUBCHEM_SHAPE_SELFOVERLAP>
1100.107

> <PUBCHEM_SHAPE_VOLUME>
285.4

> <PUBCHEM_COORDINATE_TYPE>
2
5
10

$$$$
