45360387
  -OEChem-12032416223D

 66 69  0     1  0  0  0  0  0999 V2000
    2.3155    1.5476   -0.4758 F   0  0  0  0  0  0  0  0  0  0  0  0
    2.6454    3.6965   -0.4320 F   0  0  0  0  0  0  0  0  0  0  0  0
    1.7683    2.7610   -2.1881 F   0  0  0  0  0  0  0  0  0  0  0  0
   -4.5199   -3.6554    1.2790 O   0  0  0  0  0  0  0  0  0  0  0  0
   -4.7244    2.2677    0.9162 O   0  0  0  0  0  0  0  0  0  0  0  0
   -1.9522   -2.6659   -2.1439 O   0  0  0  0  0  0  0  0  0  0  0  0
    3.6437   -1.3057    0.4778 O   0  0  0  0  0  0  0  0  0  0  0  0
   -5.0955    0.3530   -0.3247 N   0  0  0  0  0  0  0  0  0  0  0  0
   -2.6680   -1.7767   -0.1265 N   0  0  0  0  0  0  0  0  0  0  0  0
   -2.9588    1.3630   -0.2924 N   0  0  0  0  0  0  0  0  0  0  0  0
   -4.0877   -1.9552   -0.3627 C   0  0  1  0  0  0  0  0  0  0  0  0
   -4.7801   -2.2783    0.9742 C   0  0  1  0  0  0  0  0  0  0  0  0
   -6.3005   -2.0936    0.9980 C   0  0  0  0  0  0  0  0  0  0  0  0
   -4.6553   -0.7734   -1.1589 C   0  0  0  0  0  0  0  0  0  0  0  0
   -6.7309   -0.6485    1.2600 C   0  0  0  0  0  0  0  0  0  0  0  0
   -6.4983    0.3016    0.0916 C   0  0  0  0  0  0  0  0  0  0  0  0
   -4.2781    1.4033    0.1579 C   0  0  0  0  0  0  0  0  0  0  0  0
   -1.7143   -2.1541   -1.0531 C   0  0  0  0  0  0  0  0  0  0  0  0
   -0.3024   -1.9289   -0.6496 C   0  0  0  0  0  0  0  0  0  0  0  0
   -1.9071    2.2646    0.0102 C   0  0  0  0  0  0  0  0  0  0  0  0
    0.6773   -1.7278   -1.6221 C   0  0  0  0  0  0  0  0  0  0  0  0
    0.0441   -1.9206    0.7016 C   0  0  0  0  0  0  0  0  0  0  0  0
   -0.6392    2.0663   -0.5365 C   0  0  0  0  0  0  0  0  0  0  0  0
   -2.1409    3.3506    0.8539 C   0  0  0  0  0  0  0  0  0  0  0  0
    2.0033   -1.5186   -1.2434 C   0  0  0  0  0  0  0  0  0  0  0  0
    1.3701   -1.7115    1.0803 C   0  0  0  0  0  0  0  0  0  0  0  0
    2.3497   -1.5105    0.1078 C   0  0  0  0  0  0  0  0  0  0  0  0
    0.3949    2.9540   -0.2391 C   0  0  0  0  0  0  0  0  0  0  0  0
   -1.1066    4.2381    1.1512 C   0  0  0  0  0  0  0  0  0  0  0  0
    0.1613    4.0397    0.6047 C   0  0  0  0  0  0  0  0  0  0  0  0
    1.7511    2.7421   -0.8224 C   0  0  0  0  0  0  0  0  0  0  0  0
    4.5937   -1.1065   -0.5679 C   0  0  0  0  0  0  0  0  0  0  0  0
    5.9565   -0.9317    0.0353 C   0  0  0  0  0  0  0  0  0  0  0  0
    6.4097    0.3420    0.3786 C   0  0  0  0  0  0  0  0  0  0  0  0
    6.7706   -2.0434    0.2523 C   0  0  0  0  0  0  0  0  0  0  0  0
    7.6767    0.5042    0.9391 C   0  0  0  0  0  0  0  0  0  0  0  0
    8.0375   -1.8814    0.8130 C   0  0  0  0  0  0  0  0  0  0  0  0
    8.4905   -0.6076    1.1562 C   0  0  0  0  0  0  0  0  0  0  0  0
   -4.1746   -2.8374   -1.0119 H   0  0  0  0  0  0  0  0  0  0  0  0
   -4.3306   -1.6928    1.7863 H   0  0  0  0  0  0  0  0  0  0  0  0
   -6.7503   -2.4739    0.0726 H   0  0  0  0  0  0  0  0  0  0  0  0
   -6.7231   -2.7118    1.8012 H   0  0  0  0  0  0  0  0  0  0  0  0
   -3.9468   -0.4205   -1.9154 H   0  0  0  0  0  0  0  0  0  0  0  0
   -5.5256   -1.1191   -1.7312 H   0  0  0  0  0  0  0  0  0  0  0  0
   -6.2157   -0.2709    2.1521 H   0  0  0  0  0  0  0  0  0  0  0  0
   -7.8025   -0.6428    1.4944 H   0  0  0  0  0  0  0  0  0  0  0  0
   -7.1118    0.0143   -0.7702 H   0  0  0  0  0  0  0  0  0  0  0  0
   -6.8317    1.3038    0.3837 H   0  0  0  0  0  0  0  0  0  0  0  0
   -2.3979   -1.2569    0.7023 H   0  0  0  0  0  0  0  0  0  0  0  0
   -4.8438   -3.8241    2.1803 H   0  0  0  0  0  0  0  0  0  0  0  0
   -2.6791    0.5980   -0.8951 H   0  0  0  0  0  0  0  0  0  0  0  0
    0.4244   -1.7249   -2.6791 H   0  0  0  0  0  0  0  0  0  0  0  0
   -0.6823   -2.1023    1.4883 H   0  0  0  0  0  0  0  0  0  0  0  0
   -0.4543    1.2251   -1.1995 H   0  0  0  0  0  0  0  0  0  0  0  0
   -3.0888    3.5781    1.3184 H   0  0  0  0  0  0  0  0  0  0  0  0
    2.7088   -1.3645   -2.0523 H   0  0  0  0  0  0  0  0  0  0  0  0
    1.6357   -1.7118    2.1339 H   0  0  0  0  0  0  0  0  0  0  0  0
   -1.2872    5.0840    1.8083 H   0  0  0  0  0  0  0  0  0  0  0  0
    0.9530    4.7424    0.8491 H   0  0  0  0  0  0  0  0  0  0  0  0
    4.3501   -0.2078   -1.1499 H   0  0  0  0  0  0  0  0  0  0  0  0
    4.6245   -1.9745   -1.2398 H   0  0  0  0  0  0  0  0  0  0  0  0
    5.7839    1.2158    0.2167 H   0  0  0  0  0  0  0  0  0  0  0  0
    6.4285   -3.0414   -0.0085 H   0  0  0  0  0  0  0  0  0  0  0  0
    8.0293    1.4959    1.2071 H   0  0  0  0  0  0  0  0  0  0  0  0
    8.6711   -2.7470    0.9827 H   0  0  0  0  0  0  0  0  0  0  0  0
    9.4769   -0.4815    1.5929 H   0  0  0  0  0  0  0  0  0  0  0  0
  1 31  1  0  0  0  0
  2 31  1  0  0  0  0
  3 31  1  0  0  0  0
  4 12  1  0  0  0  0
  4 50  1  0  0  0  0
  5 17  2  0  0  0  0
  6 18  2  0  0  0  0
  7 27  1  0  0  0  0
  7 32  1  0  0  0  0
  8 14  1  0  0  0  0
  8 16  1  0  0  0  0
  8 17  1  0  0  0  0
  9 11  1  0  0  0  0
  9 18  1  0  0  0  0
  9 49  1  0  0  0  0
 10 17  1  0  0  0  0
 10 20  1  0  0  0  0
 10 51  1  0  0  0  0
 11 12  1  0  0  0  0
 11 14  1  0  0  0  0
 11 39  1  0  0  0  0
 12 13  1  0  0  0  0
 12 40  1  0  0  0  0
 13 15  1  0  0  0  0
 13 41  1  0  0  0  0
 13 42  1  0  0  0  0
 14 43  1  0  0  0  0
 14 44  1  0  0  0  0
 15 16  1  0  0  0  0
 15 45  1  0  0  0  0
 15 46  1  0  0  0  0
 16 47  1  0  0  0  0
 16 48  1  0  0  0  0
 18 19  1  0  0  0  0
 19 21  2  0  0  0  0
 19 22  1  0  0  0  0
 20 23  1  0  0  0  0
 20 24  2  0  0  0  0
 21 25  1  0  0  0  0
 21 52  1  0  0  0  0
 22 26  2  0  0  0  0
 22 53  1  0  0  0  0
 23 28  2  0  0  0  0
 23 54  1  0  0  0  0
 24 29  1  0  0  0  0
 24 55  1  0  0  0  0
 25 27  2  0  0  0  0
 25 56  1  0  0  0  0
 26 27  1  0  0  0  0
 26 57  1  0  0  0  0
 28 30  1  0  0  0  0
 28 31  1  0  0  0  0
 29 30  2  0  0  0  0
 29 58  1  0  0  0  0
 30 59  1  0  0  0  0
 32 33  1  0  0  0  0
 32 60  1  0  0  0  0
 32 61  1  0  0  0  0
 33 34  2  0  0  0  0
 33 35  1  0  0  0  0
 34 36  1  0  0  0  0
 34 62  1  0  0  0  0
 35 37  2  0  0  0  0
 35 63  1  0  0  0  0
 36 38  2  0  0  0  0
 36 64  1  0  0  0  0
 37 38  1  0  0  0  0
 37 65  1  0  0  0  0
 38 66  1  0  0  0  0
M  END
> <PUBCHEM_COMPOUND_CID>
45360387

> <PUBCHEM_CONFORMER_RMSD>
1.2

> <PUBCHEM_CONFORMER_DIVERSEORDER>
1
178
171
117
77
185
60
103
105
96
157
133
153
26
161
98
50
37
43
199
135
189
68
70
104
158
59
200
87
73
142
179
86
134
182
138
69
49
140
191
202
108
130
169
188
151
145
93
190
150
166
101
67
116
17
127
35
80
27
156
62
119
107
186
197
81
118
100
91
97
180
52
155
113
64
34
36
165
164
175
162
83
129
53
152
33
111
147
172
57
131
193
194
184
177
123
120
75
40
76
181
48
176
106
47
146
183
44
51
28
31
174
54
63
143
92
173
112
124
79
122
198
61
55
88
170
25
41
128
139
82
125
19
89
84
154
160
85
201
141
110
144
109
78
12
187
65
121
195
168
45
18
196
42
74
136
126
66
149
102
32
90
114
71
46
95
38
11
22
137
20
159
39
72
15
24
23
6
148
167
192
94
56
115
8
30
99
10
58
16
132
5
21
2
13
7
29
163
14
4
9
3

> <PUBCHEM_MMFF94_PARTIAL_CHARGES>
52
1 -0.34
10 -0.55
11 0.3
12 0.28
14 0.3
16 0.3
17 0.69
18 0.54
19 0.09
2 -0.34
20 0.12
21 -0.15
22 -0.15
23 -0.15
24 -0.15
25 -0.15
26 -0.15
27 0.08
28 -0.14
29 -0.15
3 -0.34
30 -0.15
31 1.16
32 0.42
33 -0.14
34 -0.15
35 -0.15
36 -0.15
37 -0.15
38 -0.15
4 -0.68
49 0.37
5 -0.57
50 0.4
51 0.37
52 0.15
53 0.15
54 0.15
55 0.15
56 0.15
57 0.15
58 0.15
59 0.15
6 -0.57
62 0.15
63 0.15
64 0.15
65 0.15
66 0.15
7 -0.36
8 -0.66
9 -0.73

> <PUBCHEM_EFFECTIVE_ROTOR_COUNT>
11.4

> <PUBCHEM_PHARMACOPHORE_FEATURES>
11
1 10 donor
1 4 acceptor
1 4 donor
1 5 acceptor
1 6 acceptor
1 7 acceptor
1 9 donor
6 19 21 22 25 26 27 rings
6 20 23 24 28 29 30 rings
6 33 34 35 36 37 38 rings
7 8 11 12 13 14 15 16 rings

> <PUBCHEM_HEAVY_ATOM_COUNT>
38

> <PUBCHEM_ATOM_DEF_STEREO_COUNT>
2

> <PUBCHEM_ATOM_UDEF_STEREO_COUNT>
0

> <PUBCHEM_BOND_DEF_STEREO_COUNT>
0

> <PUBCHEM_BOND_UDEF_STEREO_COUNT>
0

> <PUBCHEM_ISOTOPIC_ATOM_COUNT>
0

> <PUBCHEM_COMPONENT_COUNT>
1

> <PUBCHEM_CACTVS_TAUTO_COUNT>
4

> <PUBCHEM_CONFORMER_ID>
02B4250300000001

> <PUBCHEM_MMFF94_ENERGY>
104.6729

> <PUBCHEM_FEATURE_SELFOVERLAP>
55.825

> <PUBCHEM_SHAPE_FINGERPRINT>
10939801 23 18341333413952733180
1100329 8 18410576197139002901
11146851 88 18410567371814373637
11456790 92 18262816133403969739
12107698 1 18408888468476427107
12166972 35 17531250582256797510
12422481 6 18271800289051150728
13111901 25 18409736196684770188
13383665 225 18337688456092668940
13811026 1 18411136913820213046
14028597 1 17894902985239919266
14068700 675 18410856555836075848
14279260 333 18260544481613801234
14394314 77 18269557135297770369
14395042 24 18408609132288136385
14849402 71 18042693977799043572
15276724 80 18272362075907243750
15297060 5 17845653638606257193
15876981 60 18410007779676650102
15968369 153 18202002161908391100
16628084 112 18261111911254892428
18336668 15 18260267434378646357
19611394 137 18263089949679122611
20721686 56 18337387266377474379
21026386 80 15068628215251044940
21458453 9 18273206500615979784
21796203 349 18196400158670379137
21927370 108 18186236217865418630
22899556 105 17625529465665201335
24771293 8 17988926610072292841
25019877 29 17632574925215787358
2747138 104 18341335509558923080
3383291 50 18407761443087933626
373842 8 18338238262370309304
392239 28 18339647750393693936
463206 1 18411147926544076137
469060 322 17240761727880687686
57676310 188 18191313886843103868
6376802 137 18272656731479742984
9896288 288 18057327176105963240

> <PUBCHEM_SHAPE_MULTIPOLES>
721.78
19.36
5.13
1.39
27.21
5.09
-0.34
-11.07
8.44
-3.06
0.39
-0.31
-0.35
-0.38

> <PUBCHEM_SHAPE_SELFOVERLAP>
1548.167

> <PUBCHEM_SHAPE_VOLUME>
396.3

> <PUBCHEM_COORDINATE_TYPE>
2
5
10

$$$$
