40779435
  -OEChem-12032416163D

 47 48  0     1  0  0  0  0  0999 V2000
   -2.3823    1.8444   -0.4768 O   0  0  0  0  0  0  0  0  0  0  0  0
    2.1687    1.2865   -0.8905 N   0  0  2  0  0  0  0  0  0  0  0  0
   -1.2264   -0.1472   -0.1492 N   0  0  0  0  0  0  0  0  0  0  0  0
    2.9943    0.0014    1.2145 C   0  0  2  0  0  0  0  0  0  0  0  0
    1.0048    0.8355   -0.0809 C   0  0  2  0  0  0  0  0  0  0  0  0
    3.6288   -0.5848   -0.0690 C   0  0  2  0  0  0  0  0  0  0  0  0
    1.4593   -0.0651    1.0890 C   0  0  0  0  0  0  0  0  0  0  0  0
    3.3893    1.4886    1.2779 C   0  0  0  0  0  0  0  0  0  0  0  0
    2.9993    0.1244   -1.2917 C   0  0  0  0  0  0  0  0  0  0  0  0
    2.9988    2.1752   -0.0421 C   0  0  0  0  0  0  0  0  0  0  0  0
   -0.0708    0.1601   -0.9341 C   0  0  0  0  0  0  0  0  0  0  0  0
    3.4941   -2.0751   -0.1578 C   0  0  0  0  0  0  0  0  0  0  0  0
    4.5307   -2.9187   -0.2044 C   0  0  0  0  0  0  0  0  0  0  0  0
   -2.3001    0.7232    0.0207 C   0  0  0  0  0  0  0  0  0  0  0  0
   -3.4004    0.1642    0.9080 C   0  0  0  0  0  0  0  0  0  0  0  0
   -4.5266   -0.5789    0.1506 C   0  0  0  0  0  0  0  0  0  0  0  0
   -5.5998   -1.0967    1.1230 C   0  0  0  0  0  0  0  0  0  0  0  0
   -5.1889    0.4195   -0.8190 C   0  0  0  0  0  0  0  0  0  0  0  0
   -3.9730   -1.7566   -0.6681 C   0  0  0  0  0  0  0  0  0  0  0  0
    3.3340   -0.5270    2.1122 H   0  0  0  0  0  0  0  0  0  0  0  0
    0.5366    1.7332    0.3495 H   0  0  0  0  0  0  0  0  0  0  0  0
    4.6991   -0.3322   -0.0510 H   0  0  0  0  0  0  0  0  0  0  0  0
    1.1327   -1.1029    0.9641 H   0  0  0  0  0  0  0  0  0  0  0  0
    1.0033    0.2955    2.0198 H   0  0  0  0  0  0  0  0  0  0  0  0
    4.4680    1.5902    1.4455 H   0  0  0  0  0  0  0  0  0  0  0  0
    2.8821    1.9745    2.1201 H   0  0  0  0  0  0  0  0  0  0  0  0
    3.8018    0.4768   -1.9538 H   0  0  0  0  0  0  0  0  0  0  0  0
    2.4135   -0.5631   -1.9130 H   0  0  0  0  0  0  0  0  0  0  0  0
    2.4569    3.1059    0.1673 H   0  0  0  0  0  0  0  0  0  0  0  0
    3.8990    2.4787   -0.5917 H   0  0  0  0  0  0  0  0  0  0  0  0
    0.2787   -0.7846   -1.3625 H   0  0  0  0  0  0  0  0  0  0  0  0
   -0.3666    0.8154   -1.7616 H   0  0  0  0  0  0  0  0  0  0  0  0
    2.4948   -2.4994   -0.2075 H   0  0  0  0  0  0  0  0  0  0  0  0
   -1.2557   -1.0540    0.3076 H   0  0  0  0  0  0  0  0  0  0  0  0
    4.3654   -3.9881   -0.2787 H   0  0  0  0  0  0  0  0  0  0  0  0
    5.5548   -2.5641   -0.1694 H   0  0  0  0  0  0  0  0  0  0  0  0
   -2.9489   -0.5082    1.6491 H   0  0  0  0  0  0  0  0  0  0  0  0
   -3.8153    1.0041    1.4804 H   0  0  0  0  0  0  0  0  0  0  0  0
   -6.0348   -0.2754    1.7034 H   0  0  0  0  0  0  0  0  0  0  0  0
   -6.4153   -1.5986    0.5903 H   0  0  0  0  0  0  0  0  0  0  0  0
   -5.1707   -1.8144    1.8310 H   0  0  0  0  0  0  0  0  0  0  0  0
   -4.5053    0.7431   -1.6109 H   0  0  0  0  0  0  0  0  0  0  0  0
   -5.5440    1.3116   -0.2907 H   0  0  0  0  0  0  0  0  0  0  0  0
   -6.0552   -0.0349   -1.3143 H   0  0  0  0  0  0  0  0  0  0  0  0
   -3.4250   -2.4560   -0.0271 H   0  0  0  0  0  0  0  0  0  0  0  0
   -3.2987   -1.4249   -1.4643 H   0  0  0  0  0  0  0  0  0  0  0  0
   -4.7844   -2.3153   -1.1490 H   0  0  0  0  0  0  0  0  0  0  0  0
  1 14  2  0  0  0  0
  2  5  1  0  0  0  0
  2  9  1  0  0  0  0
  2 10  1  0  0  0  0
  3 11  1  0  0  0  0
  3 14  1  0  0  0  0
  3 34  1  0  0  0  0
  4  6  1  0  0  0  0
  4  7  1  0  0  0  0
  4  8  1  0  0  0  0
  4 20  1  0  0  0  0
  5  7  1  0  0  0  0
  5 11  1  0  0  0  0
  5 21  1  0  0  0  0
  6  9  1  0  0  0  0
  6 12  1  0  0  0  0
  6 22  1  0  0  0  0
  7 23  1  0  0  0  0
  7 24  1  0  0  0  0
  8 10  1  0  0  0  0
  8 25  1  0  0  0  0
  8 26  1  0  0  0  0
  9 27  1  0  0  0  0
  9 28  1  0  0  0  0
 10 29  1  0  0  0  0
 10 30  1  0  0  0  0
 11 31  1  0  0  0  0
 11 32  1  0  0  0  0
 12 13  2  0  0  0  0
 12 33  1  0  0  0  0
 13 35  1  0  0  0  0
 13 36  1  0  0  0  0
 14 15  1  0  0  0  0
 15 16  1  0  0  0  0
 15 37  1  0  0  0  0
 15 38  1  0  0  0  0
 16 17  1  0  0  0  0
 16 18  1  0  0  0  0
 16 19  1  0  0  0  0
 17 39  1  0  0  0  0
 17 40  1  0  0  0  0
 17 41  1  0  0  0  0
 18 42  1  0  0  0  0
 18 43  1  0  0  0  0
 18 44  1  0  0  0  0
 19 45  1  0  0  0  0
 19 46  1  0  0  0  0
 19 47  1  0  0  0  0
M  END
> <PUBCHEM_COMPOUND_CID>
40779435

> <PUBCHEM_CONFORMER_RMSD>
0.8

> <PUBCHEM_CONFORMER_DIVERSEORDER>
1
34
38
15
9
17
27
36
35
3
20
19
25
18
29
8
22
33
37
39
30
12
40
6
14
23
31
4
5
21
13
2
11
24
10
16
32
26
28
7

> <PUBCHEM_MMFF94_PARTIAL_CHARGES>
16
1 -0.57
10 0.27
11 0.3
12 -0.29
13 -0.3
14 0.57
15 0.06
2 -0.81
3 -0.73
33 0.15
34 0.37
35 0.15
36 0.15
5 0.27
6 0.14
9 0.27

> <PUBCHEM_EFFECTIVE_ROTOR_COUNT>
7.2

> <PUBCHEM_PHARMACOPHORE_FEATURES>
6
1 1 acceptor
1 13 hydrophobe
1 2 cation
1 3 donor
4 16 17 18 19 hydrophobe
8 2 4 5 6 7 8 9 10 rings

> <PUBCHEM_HEAVY_ATOM_COUNT>
19

> <PUBCHEM_ATOM_DEF_STEREO_COUNT>
3

> <PUBCHEM_ATOM_UDEF_STEREO_COUNT>
0

> <PUBCHEM_BOND_DEF_STEREO_COUNT>
0

> <PUBCHEM_BOND_UDEF_STEREO_COUNT>
0

> <PUBCHEM_ISOTOPIC_ATOM_COUNT>
0

> <PUBCHEM_COMPONENT_COUNT>
1

> <PUBCHEM_CACTVS_TAUTO_COUNT>
2

> <PUBCHEM_CONFORMER_ID>
026E3EAB00000001

> <PUBCHEM_MMFF94_ENERGY>
44.838

> <PUBCHEM_FEATURE_SELFOVERLAP>
30.446

> <PUBCHEM_SHAPE_FINGERPRINT>
10912923 1 17131831001892791003
11405975 8 18271529685011531073
11552529 35 17558827536588618543
11858739 19 18408599241452629119
12107183 9 17911811167123385393
12507560 40 18341604893685899544
12633257 1 17418099819162335663
12916754 54 18409732837735274153
13167823 11 18409730664550400611
13533116 47 18413392046729045123
13551218 46 18411986875654636623
13583140 156 18130490981714407165
13675066 3 18260545658518326311
13911852 28 17982449300509723566
13955234 65 18341613763252035856
14251740 57 18188218701116881483
14252887 29 18334574659440371840
14289901 80 18341895224906163377
14341114 176 18271810103004092218
15239154 128 9367350344803151055
15788980 27 18408320008443442149
17349148 13 16443063907119514809
17492 89 18408324414890522859
17844677 252 18341618118312275209
17857418 61 18343015567072778823
193927 3 17968105213488889763
200 152 17748819752775153241
20281475 54 18271806860868123599
20645477 70 18040719185842633170
21065201 7 17968371256621835689
22646028 1 18343584044907144023
23503953 91 15913324697861733871
23557571 272 17968083209965731204
23559900 14 18335419062594817901
239999 70 17894912962068697400
2916195 48 10951758664949452895
29717793 49 18187078460545839487
3060560 45 15647060373937418522
312423 11 18336276664606336065
3286 77 18411139095805777332
3421961 26 18340765953924772922
34797466 226 16878518928879955119
465052 167 18343310236331512742
4990 188 17821450148851715386
5104073 3 18130795555505043955
5374978 207 18335982055835860265
54040823 5 18342746200341682822
542803 24 12468355735149887951
633830 44 17458345247473439463
90127 26 17530971284886501609
960060 61 14417853635255161763
9709674 26 18260832635016132891

> <PUBCHEM_SHAPE_MULTIPOLES>
375.18
11.99
2.24
1.2
12.84
0.98
0.13
4.89
1
-2.86
-0.16
-0.1
-0.12
0.63

> <PUBCHEM_SHAPE_SELFOVERLAP>
757.25

> <PUBCHEM_SHAPE_VOLUME>
216.8

> <PUBCHEM_COORDINATE_TYPE>
2
5
10

$$$$
