7052042
  -OEChem-12032416133D

 72 74  0     1  0  0  0  0  0999 V2000
   -3.3271    0.9063    1.1907 O   0  0  0  0  0  0  0  0  0  0  0  0
   -0.9299    0.2322   -1.6134 O   0  0  0  0  0  0  0  0  0  0  0  0
    0.9354   -4.4656   -1.4306 O   0  0  0  0  0  0  0  0  0  0  0  0
    1.4586    4.6835   -0.9676 O   0  0  0  0  0  0  0  0  0  0  0  0
    0.7971    3.8395    1.0667 O   0  0  0  0  0  0  0  0  0  0  0  0
   -2.3481   -1.0168    0.3210 N   0  0  0  0  0  0  0  0  0  0  0  0
   -0.0399   -2.7201   -0.2486 N   0  0  0  0  0  0  0  0  0  0  0  0
    0.3059    1.3497    0.0124 N   0  0  0  0  0  0  0  0  0  0  0  0
    2.1190   -3.5044    0.2928 N   0  0  0  0  0  0  0  0  0  0  0  0
    5.2136    2.4552    0.7745 N   0  0  0  0  0  0  0  0  0  0  0  0
   -4.7997   -0.7887    0.4420 C   0  0  0  0  0  0  0  0  0  0  0  0
   -5.2511   -0.4717   -0.9851 C   0  0  0  0  0  0  0  0  0  0  0  0
   -5.7975   -0.3099    1.4986 C   0  0  0  0  0  0  0  0  0  0  0  0
   -5.7018    0.9773   -1.1625 C   0  0  0  0  0  0  0  0  0  0  0  0
   -6.2598    1.1317    1.2893 C   0  0  0  0  0  0  0  0  0  0  0  0
   -0.9936   -0.5651    0.6387 C   0  0  1  0  0  0  0  0  0  0  0  0
   -6.7550    1.3690   -0.1326 C   0  0  0  0  0  0  0  0  0  0  0  0
   -3.4343   -0.2166    0.6913 C   0  0  0  0  0  0  0  0  0  0  0  0
   -2.4887   -2.3513   -0.2723 C   0  0  0  0  0  0  0  0  0  0  0  0
    0.0093   -1.7054    0.8141 C   0  0  0  0  0  0  0  0  0  0  0  0
   -1.2567   -2.7789   -1.0563 C   0  0  0  0  0  0  0  0  0  0  0  0
   -0.5559    0.3707   -0.4518 C   0  0  0  0  0  0  0  0  0  0  0  0
    1.0029   -3.6235   -0.5298 C   0  0  0  0  0  0  0  0  0  0  0  0
    0.8883    2.3597   -0.8415 C   0  0  2  0  0  0  0  0  0  0  0  0
    3.2777   -4.3567    0.1518 C   0  0  0  0  0  0  0  0  0  0  0  0
    2.2089    1.8870   -1.4672 C   0  0  0  0  0  0  0  0  0  0  0  0
    1.0425    3.6956   -0.1266 C   0  0  0  0  0  0  0  0  0  0  0  0
    3.3190    1.6226   -0.4751 C   0  0  0  0  0  0  0  0  0  0  0  0
    3.9367   -4.5827    1.5062 C   0  0  0  0  0  0  0  0  0  0  0  0
    4.2610   -3.7612   -0.8482 C   0  0  0  0  0  0  0  0  0  0  0  0
    3.4875    0.3648    0.0931 C   0  0  0  0  0  0  0  0  0  0  0  0
    4.2007    2.6251   -0.1046 C   0  0  0  0  0  0  0  0  0  0  0  0
    4.5181    0.1509    1.0018 C   0  0  0  0  0  0  0  0  0  0  0  0
    1.6107    5.9785   -0.3775 C   0  0  0  0  0  0  0  0  0  0  0  0
    5.3463    1.2193    1.3062 C   0  0  0  0  0  0  0  0  0  0  0  0
   -4.7582   -1.8758    0.5686 H   0  0  0  0  0  0  0  0  0  0  0  0
   -4.4592   -0.6749   -1.7144 H   0  0  0  0  0  0  0  0  0  0  0  0
   -6.0902   -1.1312   -1.2416 H   0  0  0  0  0  0  0  0  0  0  0  0
   -6.6809   -0.9614    1.4644 H   0  0  0  0  0  0  0  0  0  0  0  0
   -5.3748   -0.4125    2.5056 H   0  0  0  0  0  0  0  0  0  0  0  0
   -1.0419    0.0005    1.5784 H   0  0  0  0  0  0  0  0  0  0  0  0
   -6.1090    1.1116   -2.1712 H   0  0  0  0  0  0  0  0  0  0  0  0
   -4.8384    1.6484   -1.0797 H   0  0  0  0  0  0  0  0  0  0  0  0
   -5.4651    1.8454    1.5266 H   0  0  0  0  0  0  0  0  0  0  0  0
   -7.0739    1.3484    1.9917 H   0  0  0  0  0  0  0  0  0  0  0  0
   -7.0212    2.4244   -0.2592 H   0  0  0  0  0  0  0  0  0  0  0  0
   -7.6689    0.7868   -0.3041 H   0  0  0  0  0  0  0  0  0  0  0  0
   -2.6627   -3.0455    0.5591 H   0  0  0  0  0  0  0  0  0  0  0  0
   -3.3539   -2.4030   -0.9349 H   0  0  0  0  0  0  0  0  0  0  0  0
   -0.2039   -2.2409    1.7475 H   0  0  0  0  0  0  0  0  0  0  0  0
    1.0153   -1.2911    0.8965 H   0  0  0  0  0  0  0  0  0  0  0  0
   -1.4011   -3.8008   -1.4249 H   0  0  0  0  0  0  0  0  0  0  0  0
   -1.1001   -2.1522   -1.9391 H   0  0  0  0  0  0  0  0  0  0  0  0
    0.5696    1.3545    0.9936 H   0  0  0  0  0  0  0  0  0  0  0  0
    0.1708    2.5370   -1.6536 H   0  0  0  0  0  0  0  0  0  0  0  0
    2.1556   -2.8033    1.0213 H   0  0  0  0  0  0  0  0  0  0  0  0
    2.5637    2.6261   -2.1975 H   0  0  0  0  0  0  0  0  0  0  0  0
    2.0335    0.9705   -2.0468 H   0  0  0  0  0  0  0  0  0  0  0  0
    2.9449   -5.3287   -0.2318 H   0  0  0  0  0  0  0  0  0  0  0  0
    3.2281   -5.0280    2.2132 H   0  0  0  0  0  0  0  0  0  0  0  0
    4.7950   -5.2566    1.4168 H   0  0  0  0  0  0  0  0  0  0  0  0
    4.2874   -3.6399    1.9411 H   0  0  0  0  0  0  0  0  0  0  0  0
    4.6202   -2.7810   -0.5167 H   0  0  0  0  0  0  0  0  0  0  0  0
    3.7905   -3.6243   -1.8279 H   0  0  0  0  0  0  0  0  0  0  0  0
    5.1293   -4.4151   -0.9795 H   0  0  0  0  0  0  0  0  0  0  0  0
    2.8362   -0.4586   -0.1801 H   0  0  0  0  0  0  0  0  0  0  0  0
    4.1262    3.6265   -0.5164 H   0  0  0  0  0  0  0  0  0  0  0  0
    4.6705   -0.8225    1.4536 H   0  0  0  0  0  0  0  0  0  0  0  0
    0.6522    6.3308    0.0154 H   0  0  0  0  0  0  0  0  0  0  0  0
    2.3660    5.9474    0.4136 H   0  0  0  0  0  0  0  0  0  0  0  0
    1.9463    6.6691   -1.1557 H   0  0  0  0  0  0  0  0  0  0  0  0
    6.1658    1.1041    2.0079 H   0  0  0  0  0  0  0  0  0  0  0  0
  1 18  2  0  0  0  0
  2 22  2  0  0  0  0
  3 23  2  0  0  0  0
  4 27  1  0  0  0  0
  4 34  1  0  0  0  0
  5 27  2  0  0  0  0
  6 16  1  0  0  0  0
  6 18  1  0  0  0  0
  6 19  1  0  0  0  0
  7 20  1  0  0  0  0
  7 21  1  0  0  0  0
  7 23  1  0  0  0  0
  8 22  1  0  0  0  0
  8 24  1  0  0  0  0
  8 54  1  0  0  0  0
  9 23  1  0  0  0  0
  9 25  1  0  0  0  0
  9 56  1  0  0  0  0
 10 32  1  0  0  0  0
 10 35  2  0  0  0  0
 11 12  1  0  0  0  0
 11 13  1  0  0  0  0
 11 18  1  0  0  0  0
 11 36  1  0  0  0  0
 12 14  1  0  0  0  0
 12 37  1  0  0  0  0
 12 38  1  0  0  0  0
 13 15  1  0  0  0  0
 13 39  1  0  0  0  0
 13 40  1  0  0  0  0
 14 17  1  0  0  0  0
 14 42  1  0  0  0  0
 14 43  1  0  0  0  0
 15 17  1  0  0  0  0
 15 44  1  0  0  0  0
 15 45  1  0  0  0  0
 16 20  1  0  0  0  0
 16 22  1  0  0  0  0
 16 41  1  0  0  0  0
 17 46  1  0  0  0  0
 17 47  1  0  0  0  0
 19 21  1  0  0  0  0
 19 48  1  0  0  0  0
 19 49  1  0  0  0  0
 20 50  1  0  0  0  0
 20 51  1  0  0  0  0
 21 52  1  0  0  0  0
 21 53  1  0  0  0  0
 24 26  1  0  0  0  0
 24 27  1  0  0  0  0
 24 55  1  0  0  0  0
 25 29  1  0  0  0  0
 25 30  1  0  0  0  0
 25 59  1  0  0  0  0
 26 28  1  0  0  0  0
 26 57  1  0  0  0  0
 26 58  1  0  0  0  0
 28 31  1  0  0  0  0
 28 32  2  0  0  0  0
 29 60  1  0  0  0  0
 29 61  1  0  0  0  0
 29 62  1  0  0  0  0
 30 63  1  0  0  0  0
 30 64  1  0  0  0  0
 30 65  1  0  0  0  0
 31 33  2  0  0  0  0
 31 66  1  0  0  0  0
 32 67  1  0  0  0  0
 33 35  1  0  0  0  0
 33 68  1  0  0  0  0
 34 69  1  0  0  0  0
 34 70  1  0  0  0  0
 34 71  1  0  0  0  0
 35 72  1  0  0  0  0
M  END
> <PUBCHEM_COMPOUND_CID>
7052042

> <PUBCHEM_CONFORMER_RMSD>
1.2

> <PUBCHEM_CONFORMER_DIVERSEORDER>
1
94
91
31
26
127
81
145
64
139
121
141
82
86
140
99
90
138
149
106
47
122
25
15
44
23
110
68
58
120
107
85
33
124
43
123
32
77
42
102
111
65
112
56
51
22
95
92
73
18
89
4
96
132
55
46
116
136
135
101
11
83
48
20
119
30
76
70
103
131
39
118
126
117
54
100
133
155
142
97
137
130
14
151
13
21
88
115
79
144
72
67
93
125
148
108
78
9
38
80
105
62
57
3
104
45
147
154
60
113
150
53
19
28
8
34
29
24
59
71
49
6
134
66
74
152
37
75
146
16
109
17
50
87
63
61
27
128
41
40
52
10
153
129
12
5
7
35
114
69
98
2
84
36
143

> <PUBCHEM_MMFF94_PARTIAL_CHARGES>
34
1 -0.57
10 -0.62
11 0.06
16 0.36
18 0.57
19 0.3
2 -0.57
20 0.3
21 0.3
22 0.57
23 0.69
24 0.36
25 0.3
26 0.14
27 0.66
28 -0.14
3 -0.57
31 -0.15
32 0.16
33 -0.15
34 0.28
35 0.16
4 -0.43
5 -0.57
54 0.37
56 0.37
6 -0.66
66 0.15
67 0.15
68 0.15
7 -0.66
72 0.15
8 -0.73
9 -0.73

> <PUBCHEM_EFFECTIVE_ROTOR_COUNT>
14.4

> <PUBCHEM_PHARMACOPHORE_FEATURES>
11
1 1 acceptor
1 10 acceptor
1 2 acceptor
1 3 acceptor
1 5 acceptor
1 8 donor
1 9 donor
3 25 29 30 hydrophobe
6 10 28 31 32 33 35 rings
6 11 12 13 14 15 17 rings
6 6 7 16 19 20 21 rings

> <PUBCHEM_HEAVY_ATOM_COUNT>
35

> <PUBCHEM_ATOM_DEF_STEREO_COUNT>
2

> <PUBCHEM_ATOM_UDEF_STEREO_COUNT>
0

> <PUBCHEM_BOND_DEF_STEREO_COUNT>
0

> <PUBCHEM_BOND_UDEF_STEREO_COUNT>
0

> <PUBCHEM_ISOTOPIC_ATOM_COUNT>
0

> <PUBCHEM_COMPONENT_COUNT>
1

> <PUBCHEM_CACTVS_TAUTO_COUNT>
4

> <PUBCHEM_CONFORMER_ID>
006B9B0A00000001

> <PUBCHEM_MMFF94_ENERGY>
74.4675

> <PUBCHEM_FEATURE_SELFOVERLAP>
55.823

> <PUBCHEM_SHAPE_FINGERPRINT>
12107183 9 18337951315357707672
12422481 6 17967523584543304671
13140716 1 18121505914584216121
14117953 113 18411980261283188220
14394314 77 18337664317796261744
14466204 15 18410291415396755049
14725015 67 18192143794767639322
14790565 3 18121781891754699119
15081414 286 18409170978624307881
15968369 153 17982146956201642004
23559900 14 17843707657602211892
283562 15 17619916497365163679
3298306 158 18336274530033886055
3411729 13 18408888425627007059
373842 8 18266172829853581401
38695281 34 18340767134808878631
4017518 198 18130232653197546966
4144715 1 18187377519329923323
513532 50 18131081402574163942
5171179 24 18121780521844767775
5265222 85 17973462175989795996
5385378 56 18411429405693739905

> <PUBCHEM_SHAPE_MULTIPOLES>
666.03
13.15
7.43
1.37
16.84
1.22
-0.03
1.77
-3.74
-11.95
1.13
0.26
-0.2
-0.35

> <PUBCHEM_SHAPE_SELFOVERLAP>
1374.664

> <PUBCHEM_SHAPE_VOLUME>
374.9

> <PUBCHEM_COORDINATE_TYPE>
2
5
10

$$$$
