38031114
  -OEChem-12032416363D

 68 71  0     1  0  0  0  0  0999 V2000
   -4.1193    2.1595   -1.9744 F   0  0  0  0  0  0  0  0  0  0  0  0
   -3.1071   -0.8041    0.7624 O   0  0  0  0  0  0  0  0  0  0  0  0
    5.8005    3.1118    1.2299 O   0  0  0  0  0  0  0  0  0  0  0  0
    2.4452    0.4076   -0.6394 N   0  0  0  0  0  0  0  0  0  0  0  0
   -2.5087   -1.5336   -1.2660 N   0  0  0  0  0  0  0  0  0  0  0  0
    5.1745    4.8884   -0.0916 N   0  0  0  0  0  0  0  0  0  0  0  0
   -3.0684   -0.2780   -1.4116 N   0  0  0  0  0  0  0  0  0  0  0  0
    1.6737   -2.0647    0.7340 C   0  0  1  0  0  0  0  0  0  0  0  0
    1.7659   -1.9548   -0.8058 C   0  0  2  0  0  0  0  0  0  0  0  0
    0.2064   -2.1181    1.1824 C   0  0  0  0  0  0  0  0  0  0  0  0
   -0.5890   -3.2727    0.5366 C   0  0  2  0  0  0  0  0  0  0  0  0
    2.4578   -3.2762    1.2562 C   0  0  0  0  0  0  0  0  0  0  0  0
    1.5188   -0.5211   -1.2866 C   0  0  0  0  0  0  0  0  0  0  0  0
    0.8122   -2.8853   -1.5110 C   0  0  0  0  0  0  0  0  0  0  0  0
   -0.2371   -3.4926   -0.9270 C   0  0  0  0  0  0  0  0  0  0  0  0
    3.7622    0.3562   -1.2892 C   0  0  0  0  0  0  0  0  0  0  0  0
    1.8993    1.7719   -0.6543 C   0  0  0  0  0  0  0  0  0  0  0  0
   -2.0856   -3.0205    0.7587 C   0  0  0  0  0  0  0  0  0  0  0  0
    4.2365    2.7161   -0.5318 C   0  0  0  0  0  0  0  0  0  0  0  0
    4.7586    1.2818   -0.5885 C   0  0  0  0  0  0  0  0  0  0  0  0
    2.8313    2.7470    0.0669 C   0  0  0  0  0  0  0  0  0  0  0  0
    3.9572   -2.9992    1.2111 C   0  0  0  0  0  0  0  0  0  0  0  0
    2.0148   -3.6260    2.6732 C   0  0  0  0  0  0  0  0  0  0  0  0
   -1.0747   -4.4714   -1.7034 C   0  0  0  0  0  0  0  0  0  0  0  0
   -2.5520   -1.7997    0.0186 C   0  0  0  0  0  0  0  0  0  0  0  0
    5.1518    3.5682    0.2917 C   0  0  0  0  0  0  0  0  0  0  0  0
   -3.4030    0.1088   -0.2028 C   0  0  0  0  0  0  0  0  0  0  0  0
   -4.0201    1.3220    0.2492 C   0  0  0  0  0  0  0  0  0  0  0  0
   -4.3610    2.3189   -0.6649 C   0  0  0  0  0  0  0  0  0  0  0  0
   -4.2794    1.5033    1.6077 C   0  0  0  0  0  0  0  0  0  0  0  0
   -4.9612    3.4969   -0.2205 C   0  0  0  0  0  0  0  0  0  0  0  0
   -4.8797    2.6812    2.0521 C   0  0  0  0  0  0  0  0  0  0  0  0
   -5.2205    3.6781    1.1380 C   0  0  0  0  0  0  0  0  0  0  0  0
    2.1100   -1.1781    1.2109 H   0  0  0  0  0  0  0  0  0  0  0  0
    2.7638   -2.2601   -1.1350 H   0  0  0  0  0  0  0  0  0  0  0  0
   -0.2371   -1.1534    0.9041 H   0  0  0  0  0  0  0  0  0  0  0  0
    0.0929   -2.1373    2.2720 H   0  0  0  0  0  0  0  0  0  0  0  0
   -0.3432   -4.2071    1.0554 H   0  0  0  0  0  0  0  0  0  0  0  0
    2.2674   -4.1573    0.6308 H   0  0  0  0  0  0  0  0  0  0  0  0
    0.4828   -0.2476   -1.0449 H   0  0  0  0  0  0  0  0  0  0  0  0
    1.5903   -0.4545   -2.3814 H   0  0  0  0  0  0  0  0  0  0  0  0
    1.0226   -3.0755   -2.5613 H   0  0  0  0  0  0  0  0  0  0  0  0
    3.6878    0.6375   -2.3481 H   0  0  0  0  0  0  0  0  0  0  0  0
    4.1805   -0.6547   -1.2532 H   0  0  0  0  0  0  0  0  0  0  0  0
    0.9303    1.7922   -0.1405 H   0  0  0  0  0  0  0  0  0  0  0  0
    1.7305    2.1138   -1.6840 H   0  0  0  0  0  0  0  0  0  0  0  0
   -2.2857   -2.8994    1.8308 H   0  0  0  0  0  0  0  0  0  0  0  0
   -2.6835   -3.8793    0.4327 H   0  0  0  0  0  0  0  0  0  0  0  0
    4.1998    3.1117   -1.5557 H   0  0  0  0  0  0  0  0  0  0  0  0
    4.9464    0.8945    0.4221 H   0  0  0  0  0  0  0  0  0  0  0  0
    5.7208    1.2534   -1.1146 H   0  0  0  0  0  0  0  0  0  0  0  0
    2.4162    3.7605    0.0057 H   0  0  0  0  0  0  0  0  0  0  0  0
    2.8692    2.4943    1.1354 H   0  0  0  0  0  0  0  0  0  0  0  0
    4.2188   -2.1167    1.8054 H   0  0  0  0  0  0  0  0  0  0  0  0
    4.3216   -2.8410    0.1929 H   0  0  0  0  0  0  0  0  0  0  0  0
    4.5169   -3.8484    1.6191 H   0  0  0  0  0  0  0  0  0  0  0  0
    2.0559   -2.7554    3.3375 H   0  0  0  0  0  0  0  0  0  0  0  0
    2.6903   -4.3781    3.0991 H   0  0  0  0  0  0  0  0  0  0  0  0
    1.0188   -4.0704    2.7259 H   0  0  0  0  0  0  0  0  0  0  0  0
   -1.1397   -5.4218   -1.1631 H   0  0  0  0  0  0  0  0  0  0  0  0
   -0.6439   -4.6893   -2.6869 H   0  0  0  0  0  0  0  0  0  0  0  0
   -2.0876   -4.0970   -1.8707 H   0  0  0  0  0  0  0  0  0  0  0  0
    4.6182    5.2419   -0.8634 H   0  0  0  0  0  0  0  0  0  0  0  0
    5.7547    5.5627    0.3964 H   0  0  0  0  0  0  0  0  0  0  0  0
   -4.0287    0.7505    2.3508 H   0  0  0  0  0  0  0  0  0  0  0  0
   -5.2267    4.2730   -0.9324 H   0  0  0  0  0  0  0  0  0  0  0  0
   -5.0818    2.8229    3.1098 H   0  0  0  0  0  0  0  0  0  0  0  0
   -5.6879    4.5955    1.4840 H   0  0  0  0  0  0  0  0  0  0  0  0
  1 29  1  0  0  0  0
  2 25  1  0  0  0  0
  2 27  1  0  0  0  0
  3 26  2  0  0  0  0
  4 13  1  0  0  0  0
  4 16  1  0  0  0  0
  4 17  1  0  0  0  0
  5  7  1  0  0  0  0
  5 25  2  0  0  0  0
  6 26  1  0  0  0  0
  6 63  1  0  0  0  0
  6 64  1  0  0  0  0
  7 27  2  0  0  0  0
  8  9  1  0  0  0  0
  8 10  1  0  0  0  0
  8 12  1  0  0  0  0
  8 34  1  0  0  0  0
  9 13  1  0  0  0  0
  9 14  1  0  0  0  0
  9 35  1  0  0  0  0
 10 11  1  0  0  0  0
 10 36  1  0  0  0  0
 10 37  1  0  0  0  0
 11 15  1  0  0  0  0
 11 18  1  0  0  0  0
 11 38  1  0  0  0  0
 12 22  1  0  0  0  0
 12 23  1  0  0  0  0
 12 39  1  0  0  0  0
 13 40  1  0  0  0  0
 13 41  1  0  0  0  0
 14 15  2  0  0  0  0
 14 42  1  0  0  0  0
 15 24  1  0  0  0  0
 16 20  1  0  0  0  0
 16 43  1  0  0  0  0
 16 44  1  0  0  0  0
 17 21  1  0  0  0  0
 17 45  1  0  0  0  0
 17 46  1  0  0  0  0
 18 25  1  0  0  0  0
 18 47  1  0  0  0  0
 18 48  1  0  0  0  0
 19 20  1  0  0  0  0
 19 21  1  0  0  0  0
 19 26  1  0  0  0  0
 19 49  1  0  0  0  0
 20 50  1  0  0  0  0
 20 51  1  0  0  0  0
 21 52  1  0  0  0  0
 21 53  1  0  0  0  0
 22 54  1  0  0  0  0
 22 55  1  0  0  0  0
 22 56  1  0  0  0  0
 23 57  1  0  0  0  0
 23 58  1  0  0  0  0
 23 59  1  0  0  0  0
 24 60  1  0  0  0  0
 24 61  1  0  0  0  0
 24 62  1  0  0  0  0
 27 28  1  0  0  0  0
 28 29  1  0  0  0  0
 28 30  2  0  0  0  0
 29 31  2  0  0  0  0
 30 32  1  0  0  0  0
 30 65  1  0  0  0  0
 31 33  1  0  0  0  0
 31 66  1  0  0  0  0
 32 33  2  0  0  0  0
 32 67  1  0  0  0  0
 33 68  1  0  0  0  0
M  END
> <PUBCHEM_COMPOUND_CID>
38031114

> <PUBCHEM_CONFORMER_RMSD>
1

> <PUBCHEM_CONFORMER_DIVERSEORDER>
5
6
107
140
68
64
186
19
10
4
207
85
119
37
24
192
47
20
169
202
51
206
104
153
17
177
145
191
84
62
36
113
29
137
180
39
118
88
101
121
182
35
154
133
18
33
198
23
79
184
146
116
89
72
22
92
25
78
152
190
34
45
181
44
56
147
66
212
157
156
143
188
83
195
148
166
135
102
132
185
14
213
210
109
81
112
100
58
96
110
80
179
127
174
122
214
123
196
176
63
11
114
115
139
86
165
178
67
193
71
130
21
90
48
167
87
205
13
126
172
125
103
15
77
170
94
95
70
61
173
128
168
57
199
134
54
38
159
42
164
31
73
183
204
93
142
189
209
99
160
69
49
187
32
43
201
12
163
200
75
194
211
40
105
136
60
74
171
149
111
7
46
108
208
8
2
162
138
117
129
16
59
3
141
175
76
82
97
144
26
53
106
30
203
27
28
9
91
124
120
98
65
52
150
151
50
197
131
41
55
158
161
155
1

> <PUBCHEM_MMFF94_PARTIAL_CHARGES>
33
1 -0.19
11 0.14
13 0.27
14 -0.29
15 -0.28
16 0.27
17 0.27
18 0.18
19 0.06
2 -0.28
24 0.14
25 0.3
26 0.57
27 0.43
28 0.05
29 0.19
3 -0.57
30 -0.15
31 -0.15
32 -0.15
33 -0.15
4 -0.81
42 0.15
5 -0.34
6 -0.8
63 0.37
64 0.37
65 0.15
66 0.15
67 0.15
68 0.15
7 -0.34
9 0.14

> <PUBCHEM_EFFECTIVE_ROTOR_COUNT>
9

> <PUBCHEM_PHARMACOPHORE_FEATURES>
8
1 3 acceptor
1 4 cation
1 6 donor
3 12 22 23 hydrophobe
5 2 5 7 25 27 rings
6 28 29 30 31 32 33 rings
6 4 16 17 19 20 21 rings
6 8 9 10 11 14 15 rings

> <PUBCHEM_HEAVY_ATOM_COUNT>
33

> <PUBCHEM_ATOM_DEF_STEREO_COUNT>
3

> <PUBCHEM_ATOM_UDEF_STEREO_COUNT>
0

> <PUBCHEM_BOND_DEF_STEREO_COUNT>
0

> <PUBCHEM_BOND_UDEF_STEREO_COUNT>
0

> <PUBCHEM_ISOTOPIC_ATOM_COUNT>
0

> <PUBCHEM_COMPONENT_COUNT>
1

> <PUBCHEM_CACTVS_TAUTO_COUNT>
2

> <PUBCHEM_CONFORMER_ID>
02444F0A00000005

> <PUBCHEM_MMFF94_ENERGY>
62.904

> <PUBCHEM_FEATURE_SELFOVERLAP>
40.597

> <PUBCHEM_SHAPE_FINGERPRINT>
10006869 2 18336829814093871147
10483366 6 17838643079759913398
10675989 125 18125446302318759073
10838868 217 18048013213333496980
10937287 8 18342461434876633127
11059845 2 18198599173763160624
11135609 201 18272373092160728833
11477941 20 17195722720391907132
12107183 9 18337379505656179992
12422481 6 17605808453257295160
12633257 1 18045782287060922511
12655364 131 17537392475900902794
12788726 201 17689424310752118826
14040222 75 17042881292331137964
14114206 34 13541924411358327567
14251764 75 18270974461815473761
14705955 166 17550924320186354088
14725015 67 17907012133896775489
14955137 171 17829616054197609491
15081414 286 17763747590053892191
16067690 210 17186416480045441208
16112460 7 18124884460403037800
17974551 9 17386298583864406971
17980427 23 18196351646640613474
19304152 47 17895488032167380293
21033650 10 17905349651505503596
21796203 349 17760677783537479072
21987483 16 18115324323807862507
25019877 29 16553440735606591327
3552219 110 17028262272625261618
376196 1 18342468066596496438
4616759 239 16527765060560664600
469060 322 17681855216782530171
5252454 2 18115323201697719551
550186 7 17841167845850479940
5895379 119 17771350759829784394
7288768 16 18260275187063244555

> <PUBCHEM_SHAPE_MULTIPOLES>
640.19
12.18
7.47
1.88
5.06
1.6
-0.46
19.62
-2.67
-5.64
-0.94
0.37
-1.22
-2.06

> <PUBCHEM_SHAPE_SELFOVERLAP>
1358.98

> <PUBCHEM_SHAPE_VOLUME>
359.6

> <PUBCHEM_COORDINATE_TYPE>
2
5
10

$$$$
