11883036
  -OEChem-12032416123D

 73 77  0     1  0  0  0  0  0999 V2000
    0.1337    2.6777   -0.8759 S   0  0  0  0  0  0  0  0  0  0  0  0
    4.2063    2.3234   -1.9424 F   0  0  0  0  0  0  0  0  0  0  0  0
    5.6003    0.4259    2.1828 F   0  0  0  0  0  0  0  0  0  0  0  0
   -7.3757    0.3964   -0.6990 O   0  0  0  0  0  0  0  0  0  0  0  0
   -7.0161    2.7622   -0.5637 O   0  0  0  0  0  0  0  0  0  0  0  0
    0.7888   -1.8972    2.5034 O   0  0  0  0  0  0  0  0  0  0  0  0
    3.3272   -0.1173    1.0378 O   0  0  0  0  0  0  0  0  0  0  0  0
    0.4879    0.5224    0.5104 N   0  0  0  0  0  0  0  0  0  0  0  0
   -0.8756   -3.0126    1.3257 N   0  0  0  0  0  0  0  0  0  0  0  0
    2.4684    1.7192   -0.1642 N   0  0  0  0  0  0  0  0  0  0  0  0
   -3.3384    0.3285    0.9455 C   0  0  2  0  0  0  0  0  0  0  0  0
   -3.6125    1.0189   -0.4629 C   0  0  1  0  0  0  0  0  0  0  0  0
   -5.1144    1.3398   -0.8228 C   0  0  1  0  0  0  0  0  0  0  0  0
   -1.8658   -0.2910    0.9126 C   0  0  1  0  0  0  0  0  0  0  0  0
   -4.3502   -0.8272    1.1588 C   0  0  0  0  0  0  0  0  0  0  0  0
   -5.9936    0.0968   -0.5067 C   0  0  1  0  0  0  0  0  0  0  0  0
   -2.6402    2.2087   -0.7119 C   0  0  0  0  0  0  0  0  0  0  0  0
   -5.7990   -0.4325    0.9098 C   0  0  0  0  0  0  0  0  0  0  0  0
   -3.4550    1.3165    2.1323 C   0  0  0  0  0  0  0  0  0  0  0  0
   -0.8746    0.6969    0.3532 C   0  0  0  0  0  0  0  0  0  0  0  0
   -5.6811    2.6035   -0.1388 C   0  0  0  0  0  0  0  0  0  0  0  0
   -5.2237    1.6070   -2.3507 C   0  0  0  0  0  0  0  0  0  0  0  0
   -1.2426    1.8013   -0.3880 C   0  0  0  0  0  0  0  0  0  0  0  0
   -1.3874   -0.8703    2.2508 C   0  0  0  0  0  0  0  0  0  0  0  0
   -0.3552   -1.9575    2.0609 C   0  0  0  0  0  0  0  0  0  0  0  0
    1.1169    1.5098   -0.0891 C   0  0  0  0  0  0  0  0  0  0  0  0
   -0.1120   -4.1919    0.9875 C   0  0  0  0  0  0  0  0  0  0  0  0
    3.4757    0.9131    0.3903 C   0  0  0  0  0  0  0  0  0  0  0  0
    0.6079   -4.0389   -0.3211 C   0  0  0  0  0  0  0  0  0  0  0  0
    4.8683    1.3633    0.1267 C   0  0  0  0  0  0  0  0  0  0  0  0
   -0.0153   -4.4218   -1.5088 C   0  0  0  0  0  0  0  0  0  0  0  0
    1.8999   -3.5141   -0.3493 C   0  0  0  0  0  0  0  0  0  0  0  0
    5.1670    2.0568   -1.0461 C   0  0  0  0  0  0  0  0  0  0  0  0
    5.8759    1.0916    1.0521 C   0  0  0  0  0  0  0  0  0  0  0  0
    0.6535   -4.2798   -2.7246 C   0  0  0  0  0  0  0  0  0  0  0  0
    2.5686   -3.3721   -1.5651 C   0  0  0  0  0  0  0  0  0  0  0  0
    1.9455   -3.7549   -2.7529 C   0  0  0  0  0  0  0  0  0  0  0  0
    6.4733    2.4787   -1.2935 C   0  0  0  0  0  0  0  0  0  0  0  0
    7.1823    1.5136    0.8047 C   0  0  0  0  0  0  0  0  0  0  0  0
    7.4810    2.2072   -0.3680 C   0  0  0  0  0  0  0  0  0  0  0  0
   -3.3218    0.2474   -1.1971 H   0  0  0  0  0  0  0  0  0  0  0  0
   -1.8974   -1.0853    0.1541 H   0  0  0  0  0  0  0  0  0  0  0  0
   -4.1030   -1.6595    0.4865 H   0  0  0  0  0  0  0  0  0  0  0  0
   -4.2770   -1.2260    2.1769 H   0  0  0  0  0  0  0  0  0  0  0  0
   -5.7441   -0.7050   -1.2145 H   0  0  0  0  0  0  0  0  0  0  0  0
   -2.6896    2.5226   -1.7599 H   0  0  0  0  0  0  0  0  0  0  0  0
   -2.9123    3.0722   -0.0959 H   0  0  0  0  0  0  0  0  0  0  0  0
   -6.4408   -1.3104    1.0591 H   0  0  0  0  0  0  0  0  0  0  0  0
   -6.1455    0.2987    1.6484 H   0  0  0  0  0  0  0  0  0  0  0  0
   -2.7636    2.1594    2.0468 H   0  0  0  0  0  0  0  0  0  0  0  0
   -4.4575    1.7217    2.2519 H   0  0  0  0  0  0  0  0  0  0  0  0
   -3.2324    0.8208    3.0837 H   0  0  0  0  0  0  0  0  0  0  0  0
   -5.1235    3.5025   -0.4183 H   0  0  0  0  0  0  0  0  0  0  0  0
   -5.6969    2.5302    0.9456 H   0  0  0  0  0  0  0  0  0  0  0  0
   -4.7515    0.8010   -2.9244 H   0  0  0  0  0  0  0  0  0  0  0  0
   -4.7374    2.5456   -2.6362 H   0  0  0  0  0  0  0  0  0  0  0  0
   -6.2635    1.6681   -2.6909 H   0  0  0  0  0  0  0  0  0  0  0  0
   -0.9535   -0.0932    2.8920 H   0  0  0  0  0  0  0  0  0  0  0  0
   -2.2070   -1.3274    2.8147 H   0  0  0  0  0  0  0  0  0  0  0  0
   -7.8796   -0.4190   -0.5360 H   0  0  0  0  0  0  0  0  0  0  0  0
   -7.3626    3.5643   -0.1372 H   0  0  0  0  0  0  0  0  0  0  0  0
   -1.8498   -2.9951    1.0392 H   0  0  0  0  0  0  0  0  0  0  0  0
    2.7336    2.5584   -0.6724 H   0  0  0  0  0  0  0  0  0  0  0  0
    0.6009   -4.4075    1.7922 H   0  0  0  0  0  0  0  0  0  0  0  0
   -0.8096   -5.0362    0.9464 H   0  0  0  0  0  0  0  0  0  0  0  0
   -1.0224   -4.8300   -1.5002 H   0  0  0  0  0  0  0  0  0  0  0  0
    2.3988   -3.2131    0.5678 H   0  0  0  0  0  0  0  0  0  0  0  0
    0.1679   -4.5771   -3.6496 H   0  0  0  0  0  0  0  0  0  0  0  0
    3.5744   -2.9624   -1.5869 H   0  0  0  0  0  0  0  0  0  0  0  0
    2.4660   -3.6438   -3.6995 H   0  0  0  0  0  0  0  0  0  0  0  0
    6.7055    3.0187   -2.2066 H   0  0  0  0  0  0  0  0  0  0  0  0
    7.9666    1.3021    1.5255 H   0  0  0  0  0  0  0  0  0  0  0  0
    8.4981    2.5357   -0.5606 H   0  0  0  0  0  0  0  0  0  0  0  0
  1 23  1  0  0  0  0
  1 26  1  0  0  0  0
  2 33  1  0  0  0  0
  3 34  1  0  0  0  0
  4 16  1  0  0  0  0
  4 60  1  0  0  0  0
  5 21  1  0  0  0  0
  5 61  1  0  0  0  0
  6 25  2  0  0  0  0
  7 28  2  0  0  0  0
  8 20  1  0  0  0  0
  8 26  2  0  0  0  0
  9 25  1  0  0  0  0
  9 27  1  0  0  0  0
  9 62  1  0  0  0  0
 10 26  1  0  0  0  0
 10 28  1  0  0  0  0
 10 63  1  0  0  0  0
 11 12  1  0  0  0  0
 11 14  1  0  0  0  0
 11 15  1  0  0  0  0
 11 19  1  0  0  0  0
 12 13  1  0  0  0  0
 12 17  1  0  0  0  0
 12 41  1  0  0  0  0
 13 16  1  0  0  0  0
 13 21  1  0  0  0  0
 13 22  1  0  0  0  0
 14 20  1  0  0  0  0
 14 24  1  0  0  0  0
 14 42  1  0  0  0  0
 15 18  1  0  0  0  0
 15 43  1  0  0  0  0
 15 44  1  0  0  0  0
 16 18  1  0  0  0  0
 16 45  1  0  0  0  0
 17 23  1  0  0  0  0
 17 46  1  0  0  0  0
 17 47  1  0  0  0  0
 18 48  1  0  0  0  0
 18 49  1  0  0  0  0
 19 50  1  0  0  0  0
 19 51  1  0  0  0  0
 19 52  1  0  0  0  0
 20 23  2  0  0  0  0
 21 53  1  0  0  0  0
 21 54  1  0  0  0  0
 22 55  1  0  0  0  0
 22 56  1  0  0  0  0
 22 57  1  0  0  0  0
 24 25  1  0  0  0  0
 24 58  1  0  0  0  0
 24 59  1  0  0  0  0
 27 29  1  0  0  0  0
 27 64  1  0  0  0  0
 27 65  1  0  0  0  0
 28 30  1  0  0  0  0
 29 31  2  0  0  0  0
 29 32  1  0  0  0  0
 30 33  2  0  0  0  0
 30 34  1  0  0  0  0
 31 35  1  0  0  0  0
 31 66  1  0  0  0  0
 32 36  2  0  0  0  0
 32 67  1  0  0  0  0
 33 38  1  0  0  0  0
 34 39  2  0  0  0  0
 35 37  2  0  0  0  0
 35 68  1  0  0  0  0
 36 37  1  0  0  0  0
 36 69  1  0  0  0  0
 37 70  1  0  0  0  0
 38 40  2  0  0  0  0
 38 71  1  0  0  0  0
 39 40  1  0  0  0  0
 39 72  1  0  0  0  0
 40 73  1  0  0  0  0
M  END
> <PUBCHEM_COMPOUND_CID>
11883036

> <PUBCHEM_CONFORMER_RMSD>
1.2

> <PUBCHEM_CONFORMER_DIVERSEORDER>
3
23
28
9
12
13
22
37
36
27
15
29
33
10
38
31
19
14
26
25
11
30
24
35
4
21
16
2
17
8
6
34
18
7
5
20
1
32

> <PUBCHEM_MMFF94_PARTIAL_CHARGES>
45
1 -0.08
10 -0.49
14 0.18
16 0.28
17 0.18
2 -0.19
20 0.05
21 0.28
23 -0.14
24 0.06
25 0.57
26 0.44
27 0.44
28 0.54
29 -0.14
3 -0.19
30 0.09
31 -0.15
32 -0.15
33 0.19
34 0.19
35 -0.15
36 -0.15
37 -0.15
38 -0.15
39 -0.15
4 -0.68
40 -0.15
5 -0.68
6 -0.57
60 0.4
61 0.4
62 0.37
63 0.37
66 0.15
67 0.15
68 0.15
69 0.15
7 -0.57
70 0.15
71 0.15
72 0.15
73 0.15
8 -0.57
9 -0.73

> <PUBCHEM_EFFECTIVE_ROTOR_COUNT>
10.2

> <PUBCHEM_PHARMACOPHORE_FEATURES>
13
1 10 donor
1 4 acceptor
1 4 donor
1 5 acceptor
1 5 donor
1 6 acceptor
1 7 acceptor
1 9 donor
5 1 8 20 23 26 rings
6 11 12 13 15 16 18 rings
6 11 12 14 17 20 23 rings
6 29 31 32 35 36 37 rings
6 30 33 34 38 39 40 rings

> <PUBCHEM_HEAVY_ATOM_COUNT>
40

> <PUBCHEM_ATOM_DEF_STEREO_COUNT>
5

> <PUBCHEM_ATOM_UDEF_STEREO_COUNT>
0

> <PUBCHEM_BOND_DEF_STEREO_COUNT>
0

> <PUBCHEM_BOND_UDEF_STEREO_COUNT>
0

> <PUBCHEM_ISOTOPIC_ATOM_COUNT>
0

> <PUBCHEM_COMPONENT_COUNT>
1

> <PUBCHEM_CACTVS_TAUTO_COUNT>
6

> <PUBCHEM_CONFORMER_ID>
00B5521C00000003

> <PUBCHEM_MMFF94_ENERGY>
118.4449

> <PUBCHEM_FEATURE_SELFOVERLAP>
66.119

> <PUBCHEM_SHAPE_FINGERPRINT>
10079526 1005 18413106165215849764
102385 1 17838904728634808700
10369192 42 18334012817847034477
10906281 52 18260559908677112720
11331351 85 11891324340469446522
11477941 20 16905276347438498702
11524674 6 18343023341232109702
11621639 307 17174066714098248564
11719270 70 18412540999006666004
11991303 11 18337952428001780758
12156800 1 17342339147018710150
12522641 33 18410854356564251245
12539765 74 18411141303129564813
12597179 24 18412269449599428886
1361 2 18342458119088216038
14068700 686 18339359652261298196
14674994 50 17914057752957730702
14725015 67 18118401736057339178
15131766 46 14781255556536619076
15357212 105 17983867683721550065
15444296 8 17465118415057991586
15664445 248 17978790112763818715
15815584 197 17749686094622606569
20511986 3 17750226067050237208
21133665 82 18333171674677916368
3411729 13 18261951847700892179
38695281 34 18411976979216121143
4017518 198 18201448008364568742
4093350 32 18200026227880791441
504843 32 18336265755358035194
5080951 261 18122602111114444088
5085150 59 18336543910445786688
5265222 85 18266463298439309044
6669772 16 18410578370529955639

> <PUBCHEM_SHAPE_MULTIPOLES>
774.06
16.74
5.68
2.32
5.42
8.93
0.09
-19.53
2.09
3.34
3.37
0.11
1.69
1.66

> <PUBCHEM_SHAPE_SELFOVERLAP>
1664.767

> <PUBCHEM_SHAPE_VOLUME>
429.7

> <PUBCHEM_COORDINATE_TYPE>
2
5
10

$$$$
