40779879
  -OEChem-12032416403D

 54 57  0     1  0  0  0  0  0999 V2000
   -5.2690    0.0948    1.3369 O   0  0  0  0  0  0  0  0  0  0  0  0
   -7.1615    0.9055   -0.3976 O   0  0  0  0  0  0  0  0  0  0  0  0
   -0.9454   -1.3957    1.4210 N   0  0  2  0  0  0  0  0  0  0  0  0
    2.5189    0.7658   -0.1515 N   0  0  2  0  0  0  0  0  0  0  0  0
   -3.5471    0.9060   -0.0008 N   0  0  0  0  0  0  0  0  0  0  0  0
   -0.1869   -1.7795   -1.0375 C   0  0  2  0  0  0  0  0  0  0  0  0
    0.9110   -1.0517   -0.2286 C   0  0  2  0  0  0  0  0  0  0  0  0
   -1.9794   -0.8816    0.4828 C   0  0  2  0  0  0  0  0  0  0  0  0
   -1.4897   -0.9606   -0.9803 C   0  0  0  0  0  0  0  0  0  0  0  0
    0.3531   -0.7231    1.1745 C   0  0  0  0  0  0  0  0  0  0  0  0
   -0.4571   -3.1171   -0.3223 C   0  0  0  0  0  0  0  0  0  0  0  0
   -0.7718   -2.8453    1.1595 C   0  0  0  0  0  0  0  0  0  0  0  0
    1.4474    0.1953   -0.9276 C   0  0  0  0  0  0  0  0  0  0  0  0
   -2.4509    0.5276    0.8491 C   0  0  0  0  0  0  0  0  0  0  0  0
    2.4823    2.1386    0.3485 C   0  0  0  0  0  0  0  0  0  0  0  0
    3.8555    0.4234   -0.2989 C   0  0  0  0  0  0  0  0  0  0  0  0
    3.8664    2.4197    0.9678 C   0  0  0  0  0  0  0  0  0  0  0  0
    4.6954    1.3567    0.3221 C   0  0  0  0  0  0  0  0  0  0  0  0
    4.4048   -0.6764   -0.9399 C   0  0  0  0  0  0  0  0  0  0  0  0
   -4.8767    0.6556    0.3173 C   0  0  0  0  0  0  0  0  0  0  0  0
    6.0731    1.2191    0.3259 C   0  0  0  0  0  0  0  0  0  0  0  0
    5.7955   -0.8256   -0.9532 C   0  0  0  0  0  0  0  0  0  0  0  0
    6.6238    0.1156   -0.3244 C   0  0  0  0  0  0  0  0  0  0  0  0
   -5.8195    1.1614   -0.7536 C   0  0  0  0  0  0  0  0  0  0  0  0
   -8.0722    1.3716   -1.3890 C   0  0  0  0  0  0  0  0  0  0  0  0
    0.1236   -1.9513   -2.0734 H   0  0  0  0  0  0  0  0  0  0  0  0
    1.7433   -1.7579   -0.0996 H   0  0  0  0  0  0  0  0  0  0  0  0
   -2.8587   -1.5361    0.5772 H   0  0  0  0  0  0  0  0  0  0  0  0
   -1.3290    0.0303   -1.4173 H   0  0  0  0  0  0  0  0  0  0  0  0
   -2.2565   -1.4520   -1.5927 H   0  0  0  0  0  0  0  0  0  0  0  0
    1.0739   -1.0490    1.9360 H   0  0  0  0  0  0  0  0  0  0  0  0
    0.2419    0.3535    1.3374 H   0  0  0  0  0  0  0  0  0  0  0  0
    0.4152   -3.7762   -0.4029 H   0  0  0  0  0  0  0  0  0  0  0  0
   -1.2995   -3.6330   -0.7987 H   0  0  0  0  0  0  0  0  0  0  0  0
   -1.6772   -3.3899    1.4546 H   0  0  0  0  0  0  0  0  0  0  0  0
    0.0291   -3.2436    1.7953 H   0  0  0  0  0  0  0  0  0  0  0  0
    0.6491    0.9387   -1.0365 H   0  0  0  0  0  0  0  0  0  0  0  0
    1.7794   -0.0401   -1.9462 H   0  0  0  0  0  0  0  0  0  0  0  0
   -1.6663    1.2775    0.7083 H   0  0  0  0  0  0  0  0  0  0  0  0
   -2.7773    0.5652    1.8945 H   0  0  0  0  0  0  0  0  0  0  0  0
    1.6824    2.2871    1.0812 H   0  0  0  0  0  0  0  0  0  0  0  0
    2.3054    2.8289   -0.4867 H   0  0  0  0  0  0  0  0  0  0  0  0
   -3.3302    1.3777   -0.8742 H   0  0  0  0  0  0  0  0  0  0  0  0
    3.8465    2.2734    2.0528 H   0  0  0  0  0  0  0  0  0  0  0  0
    4.2129    3.4297    0.7322 H   0  0  0  0  0  0  0  0  0  0  0  0
    3.7844   -1.4194   -1.4299 H   0  0  0  0  0  0  0  0  0  0  0  0
    6.7096    1.9446    0.8203 H   0  0  0  0  0  0  0  0  0  0  0  0
    6.2400   -1.6819   -1.4535 H   0  0  0  0  0  0  0  0  0  0  0  0
    7.7017   -0.0198   -0.3419 H   0  0  0  0  0  0  0  0  0  0  0  0
   -5.6637    2.2401   -0.8719 H   0  0  0  0  0  0  0  0  0  0  0  0
   -5.5789    0.6528   -1.6945 H   0  0  0  0  0  0  0  0  0  0  0  0
   -9.0883    1.1445   -1.0558 H   0  0  0  0  0  0  0  0  0  0  0  0
   -7.8934    0.8629   -2.3413 H   0  0  0  0  0  0  0  0  0  0  0  0
   -7.9780    2.4545   -1.5152 H   0  0  0  0  0  0  0  0  0  0  0  0
  1 20  2  0  0  0  0
  2 24  1  0  0  0  0
  2 25  1  0  0  0  0
  3  8  1  0  0  0  0
  3 10  1  0  0  0  0
  3 12  1  0  0  0  0
  4 13  1  0  0  0  0
  4 15  1  0  0  0  0
  4 16  1  0  0  0  0
  5 14  1  0  0  0  0
  5 20  1  0  0  0  0
  5 43  1  0  0  0  0
  6  7  1  0  0  0  0
  6  9  1  0  0  0  0
  6 11  1  0  0  0  0
  6 26  1  0  0  0  0
  7 10  1  0  0  0  0
  7 13  1  0  0  0  0
  7 27  1  0  0  0  0
  8  9  1  0  0  0  0
  8 14  1  0  0  0  0
  8 28  1  0  0  0  0
  9 29  1  0  0  0  0
  9 30  1  0  0  0  0
 10 31  1  0  0  0  0
 10 32  1  0  0  0  0
 11 12  1  0  0  0  0
 11 33  1  0  0  0  0
 11 34  1  0  0  0  0
 12 35  1  0  0  0  0
 12 36  1  0  0  0  0
 13 37  1  0  0  0  0
 13 38  1  0  0  0  0
 14 39  1  0  0  0  0
 14 40  1  0  0  0  0
 15 17  1  0  0  0  0
 15 41  1  0  0  0  0
 15 42  1  0  0  0  0
 16 18  1  0  0  0  0
 16 19  2  0  0  0  0
 17 18  1  0  0  0  0
 17 44  1  0  0  0  0
 17 45  1  0  0  0  0
 18 21  2  0  0  0  0
 19 22  1  0  0  0  0
 19 46  1  0  0  0  0
 20 24  1  0  0  0  0
 21 23  1  0  0  0  0
 21 47  1  0  0  0  0
 22 23  2  0  0  0  0
 22 48  1  0  0  0  0
 23 49  1  0  0  0  0
 24 50  1  0  0  0  0
 24 51  1  0  0  0  0
 25 52  1  0  0  0  0
 25 53  1  0  0  0  0
 25 54  1  0  0  0  0
M  END
> <PUBCHEM_COMPOUND_CID>
40779879

> <PUBCHEM_CONFORMER_RMSD>
1

> <PUBCHEM_CONFORMER_DIVERSEORDER>
1
18
38
14
47
58
33
54
44
43
21
27
42
48
17
40
45
13
55
35
24
46
9
29
41
56
53
5
7
57
51
26
28
39
50
4
52
30
49
22
31
36
25
12
2
20
19
10
11
3
16
6
37
23
15
34
8
32

> <PUBCHEM_MMFF94_PARTIAL_CHARGES>
26
1 -0.57
10 0.27
12 0.27
13 0.37
14 0.3
15 0.37
16 0.1
17 0.14
18 -0.14
19 -0.15
2 -0.56
20 0.57
21 -0.15
22 -0.15
23 -0.15
24 0.34
25 0.28
3 -0.81
4 -0.84
43 0.37
46 0.15
47 0.15
48 0.15
49 0.15
5 -0.73
8 0.27

> <PUBCHEM_EFFECTIVE_ROTOR_COUNT>
8.8

> <PUBCHEM_PHARMACOPHORE_FEATURES>
8
1 1 acceptor
1 2 acceptor
1 3 cation
1 4 cation
1 5 donor
5 4 15 16 17 18 rings
6 16 18 19 21 22 23 rings
8 3 6 7 8 9 10 11 12 rings

> <PUBCHEM_HEAVY_ATOM_COUNT>
25

> <PUBCHEM_ATOM_DEF_STEREO_COUNT>
3

> <PUBCHEM_ATOM_UDEF_STEREO_COUNT>
0

> <PUBCHEM_BOND_DEF_STEREO_COUNT>
0

> <PUBCHEM_BOND_UDEF_STEREO_COUNT>
0

> <PUBCHEM_ISOTOPIC_ATOM_COUNT>
0

> <PUBCHEM_COMPONENT_COUNT>
1

> <PUBCHEM_CACTVS_TAUTO_COUNT>
2

> <PUBCHEM_CONFORMER_ID>
026E406700000001

> <PUBCHEM_MMFF94_ENERGY>
74.8719

> <PUBCHEM_FEATURE_SELFOVERLAP>
40.693

> <PUBCHEM_SHAPE_FINGERPRINT>
10674148 151 16950003626437343552
10763959 59 18114183038173377373
10835480 77 18059010713624230888
11186622 174 18272090457506080630
11578080 2 16629099165863357072
11646440 116 18337122215266578705
12516196 113 8934999270074319021
12596602 18 15213315152307821069
12633257 1 15574716919497400593
13103583 49 14273461396630677689
13150687 139 18343585118765474487
13402501 40 18411703175246517812
13673619 4 11169905087693877334
14150023 79 18262235526160135539
14251757 52 16878235233384326812
15003188 100 18341610438673470565
15142383 8 17967252001535834828
15183329 4 17846500322335875316
15301273 46 15357976720532339067
15461852 350 15574713621869839667
15849732 13 17967537882457888540
17349148 13 15123244247067144614
18335252 114 18272363149190599725
20157964 124 18060703879387926700
20511986 3 17418083365501112910
20554085 129 17748830683292978307
20567600 254 18261109665070612717
21033648 29 18261103114708013848
21049683 118 18191001556372238451
21344244 246 17703515367868681014
21403212 168 18187920655929132210
21521239 73 17632578214817772583
21859007 373 18261662706234613964
221357 26 18201438051897373744
23559900 14 18060142081087101424
2838139 119 18202285788452759385
3004659 81 12895348906358314784
335352 9 18272093782295811334
351380 180 18273219711587260920
4017518 198 16630537233158292894
5104073 3 18193268810147946448
5385378 56 17968658207491997155
59755656 215 18336549321935612367
59755656 520 18334006216282119735
6328613 192 18337684113285354284

> <PUBCHEM_SHAPE_MULTIPOLES>
487.81
17.54
2.56
1.25
17.7
1.2
0.09
-12.07
-5.06
-0.19
0.39
0.76
0.22
1.81

> <PUBCHEM_SHAPE_SELFOVERLAP>
1034.336

> <PUBCHEM_SHAPE_VOLUME>
270.9

> <PUBCHEM_COORDINATE_TYPE>
2
5
10

$$$$
