26745472
  -OEChem-12032416183D

 49 51  0     1  0  0  0  0  0999 V2000
   -5.5485    1.5467   -2.6800 Cl  0  0  0  0  0  0  0  0  0  0  0  0
    2.9199    0.9702   -0.7482 S   0  0  0  0  0  0  0  0  0  0  0  0
    2.0491    1.8834   -1.4546 O   0  0  0  0  0  0  0  0  0  0  0  0
    3.9389    0.2060   -1.4326 O   0  0  0  0  0  0  0  0  0  0  0  0
    1.5017   -3.1458   -1.7796 O   0  0  0  0  0  0  0  0  0  0  0  0
    0.7393   -0.9841   -2.0663 O   0  0  0  0  0  0  0  0  0  0  0  0
    1.9566   -0.1027    0.1772 N   0  0  2  0  0  0  0  0  0  0  0  0
   -1.2456   -0.4683    2.0754 N   0  0  0  0  0  0  0  0  0  0  0  0
   -0.5417   -2.5613    2.4155 N   0  0  0  0  0  0  0  0  0  0  0  0
    2.0733   -1.5691   -0.1531 C   0  0  1  0  0  0  0  0  0  0  0  0
    0.5735    0.3992    0.5135 C   0  0  0  0  0  0  0  0  0  0  0  0
    1.5533   -2.4603    0.9957 C   0  0  0  0  0  0  0  0  0  0  0  0
   -0.0916   -0.6064    1.3640 C   0  0  0  0  0  0  0  0  0  0  0  0
    0.3177   -1.8982    1.5848 C   0  0  0  0  0  0  0  0  0  0  0  0
    3.6969    1.8632    0.5731 C   0  0  0  0  0  0  0  0  0  0  0  0
    1.3556   -1.8340   -1.4380 C   0  0  0  0  0  0  0  0  0  0  0  0
   -2.0803    0.7048    2.1669 C   0  0  0  0  0  0  0  0  0  0  0  0
   -1.4748   -1.6724    2.6926 C   0  0  0  0  0  0  0  0  0  0  0  0
    4.6454    2.9246    0.0410 C   0  0  0  0  0  0  0  0  0  0  0  0
   -2.9502    0.9156    0.9526 C   0  0  0  0  0  0  0  0  0  0  0  0
    5.3274    3.6777    1.1709 C   0  0  0  0  0  0  0  0  0  0  0  0
   -2.8698    2.1099    0.2364 C   0  0  0  0  0  0  0  0  0  0  0  0
   -3.8348   -0.0833    0.5460 C   0  0  0  0  0  0  0  0  0  0  0  0
    0.8607   -3.5390   -2.9972 C   0  0  0  0  0  0  0  0  0  0  0  0
   -3.6741    2.3053   -0.8863 C   0  0  0  0  0  0  0  0  0  0  0  0
   -4.6391    0.1120   -0.5767 C   0  0  0  0  0  0  0  0  0  0  0  0
   -4.5588    1.3063   -1.2928 C   0  0  0  0  0  0  0  0  0  0  0  0
    3.1308   -1.8166   -0.3037 H   0  0  0  0  0  0  0  0  0  0  0  0
   -0.0129    0.5842   -0.3900 H   0  0  0  0  0  0  0  0  0  0  0  0
    0.6740    1.3401    1.0649 H   0  0  0  0  0  0  0  0  0  0  0  0
    2.3136   -2.4925    1.7865 H   0  0  0  0  0  0  0  0  0  0  0  0
    1.3817   -3.4925    0.6733 H   0  0  0  0  0  0  0  0  0  0  0  0
    4.2381    1.1354    1.1865 H   0  0  0  0  0  0  0  0  0  0  0  0
    2.9085    2.3252    1.1750 H   0  0  0  0  0  0  0  0  0  0  0  0
   -1.4201    1.5620    2.3435 H   0  0  0  0  0  0  0  0  0  0  0  0
   -2.7155    0.6086    3.0558 H   0  0  0  0  0  0  0  0  0  0  0  0
   -2.3335   -1.8427    3.3280 H   0  0  0  0  0  0  0  0  0  0  0  0
    5.4094    2.4632   -0.5956 H   0  0  0  0  0  0  0  0  0  0  0  0
    4.0991    3.6364   -0.5889 H   0  0  0  0  0  0  0  0  0  0  0  0
    4.5921    4.1823    1.8058 H   0  0  0  0  0  0  0  0  0  0  0  0
    5.9140    2.9982    1.7974 H   0  0  0  0  0  0  0  0  0  0  0  0
    6.0046    4.4364    0.7665 H   0  0  0  0  0  0  0  0  0  0  0  0
   -2.1842    2.8960    0.5410 H   0  0  0  0  0  0  0  0  0  0  0  0
   -3.9194   -1.0161    1.0963 H   0  0  0  0  0  0  0  0  0  0  0  0
    1.0529   -4.6037   -3.1542 H   0  0  0  0  0  0  0  0  0  0  0  0
    1.2746   -2.9788   -3.8410 H   0  0  0  0  0  0  0  0  0  0  0  0
   -0.2200   -3.3843   -2.9228 H   0  0  0  0  0  0  0  0  0  0  0  0
   -3.6002    3.2406   -1.4352 H   0  0  0  0  0  0  0  0  0  0  0  0
   -5.3250   -0.6743   -0.8811 H   0  0  0  0  0  0  0  0  0  0  0  0
  1 27  1  0  0  0  0
  2  3  2  0  0  0  0
  2  4  2  0  0  0  0
  2  7  1  0  0  0  0
  2 15  1  0  0  0  0
  5 16  1  0  0  0  0
  5 24  1  0  0  0  0
  6 16  2  0  0  0  0
  7 10  1  0  0  0  0
  7 11  1  0  0  0  0
  8 13  1  0  0  0  0
  8 17  1  0  0  0  0
  8 18  1  0  0  0  0
  9 14  1  0  0  0  0
  9 18  2  0  0  0  0
 10 12  1  0  0  0  0
 10 16  1  0  0  0  0
 10 28  1  0  0  0  0
 11 13  1  0  0  0  0
 11 29  1  0  0  0  0
 11 30  1  0  0  0  0
 12 14  1  0  0  0  0
 12 31  1  0  0  0  0
 12 32  1  0  0  0  0
 13 14  2  0  0  0  0
 15 19  1  0  0  0  0
 15 33  1  0  0  0  0
 15 34  1  0  0  0  0
 17 20  1  0  0  0  0
 17 35  1  0  0  0  0
 17 36  1  0  0  0  0
 18 37  1  0  0  0  0
 19 21  1  0  0  0  0
 19 38  1  0  0  0  0
 19 39  1  0  0  0  0
 20 22  2  0  0  0  0
 20 23  1  0  0  0  0
 21 40  1  0  0  0  0
 21 41  1  0  0  0  0
 21 42  1  0  0  0  0
 22 25  1  0  0  0  0
 22 43  1  0  0  0  0
 23 26  2  0  0  0  0
 23 44  1  0  0  0  0
 24 45  1  0  0  0  0
 24 46  1  0  0  0  0
 24 47  1  0  0  0  0
 25 27  2  0  0  0  0
 25 48  1  0  0  0  0
 26 27  1  0  0  0  0
 26 49  1  0  0  0  0
M  END
> <PUBCHEM_COMPOUND_CID>
26745472

> <PUBCHEM_CONFORMER_RMSD>
0.8

> <PUBCHEM_CONFORMER_DIVERSEORDER>
1
94
78
197
162
16
92
135
191
111
43
83
124
31
205
6
113
178
200
49
12
174
72
29
109
182
149
102
131
84
42
167
101
202
186
85
168
140
91
121
183
192
142
136
64
19
74
133
181
155
105
160
23
161
125
2
82
52
45
198
143
77
46
44
120
145
40
199
195
112
152
194
126
190
114
59
95
38
86
56
87
14
7
73
110
90
37
65
164
158
54
153
159
76
50
148
41
173
156
184
204
48
106
177
107
137
55
127
166
171
141
119
128
132
196
75
100
203
129
150
5
66
151
18
185
80
30
13
98
180
21
154
57
123
189
188
93
69
157
62
35
67
10
51
201
97
26
130
20
179
147
99
146
88
27
169
116
24
89
108
144
139
53
15
193
172
60
68
33
71
4
176
104
115
8
138
79
96
134
25
11
175
22
63
32
36
170
34
103
70
9
39
165
17
163
122
81
117
118
28
61
58
47
187
3

> <PUBCHEM_MMFF94_PARTIAL_CHARGES>
30
1 -0.18
10 0.42
11 0.54
12 0.18
13 -0.33
14 0.05
15 0.11
16 0.66
17 0.4
18 0.04
2 1.33
20 -0.14
22 -0.15
23 -0.15
24 0.28
25 -0.15
26 -0.15
27 0.18
3 -0.65
37 0.15
4 -0.65
43 0.15
44 0.15
48 0.15
49 0.15
5 -0.43
6 -0.57
7 -0.85
8 0.05
9 -0.57

> <PUBCHEM_EFFECTIVE_ROTOR_COUNT>
7.8

> <PUBCHEM_PHARMACOPHORE_FEATURES>
8
1 21 hydrophobe
1 3 acceptor
1 4 acceptor
1 6 acceptor
3 8 9 18 cation
5 8 9 13 14 18 rings
6 20 22 23 25 26 27 rings
6 7 10 11 12 13 14 rings

> <PUBCHEM_HEAVY_ATOM_COUNT>
27

> <PUBCHEM_ATOM_DEF_STEREO_COUNT>
1

> <PUBCHEM_ATOM_UDEF_STEREO_COUNT>
0

> <PUBCHEM_BOND_DEF_STEREO_COUNT>
0

> <PUBCHEM_BOND_UDEF_STEREO_COUNT>
0

> <PUBCHEM_ISOTOPIC_ATOM_COUNT>
0

> <PUBCHEM_COMPONENT_COUNT>
1

> <PUBCHEM_CACTVS_TAUTO_COUNT>
1

> <PUBCHEM_CONFORMER_ID>
01981A8000000001

> <PUBCHEM_MMFF94_ENERGY>
51.6116

> <PUBCHEM_FEATURE_SELFOVERLAP>
40.716

> <PUBCHEM_SHAPE_FINGERPRINT>
10165383 225 16451285921885833483
10577160 103 15121808405410009872
10764073 3 15505711440820660040
11582403 64 18338506538833274754
11725454 13 18410574024106915344
12156800 1 17267743948846696480
12422481 6 15069161404157642548
12633257 1 16515959384757833876
12788726 201 14855313118795692105
12969540 114 17915758641875199424
13134695 92 17245822642011271587
13150687 139 18343577469534046284
13911987 19 17916315015965055464
13947920 24 17843960579525315335
14251740 57 13037465260448876221
14251764 30 11383841514217103941
17980427 23 18056763114034853586
20775530 9 16698643005721938495
21033648 144 18338529628609249360
21033648 29 17530967985797918800
21304303 282 17908396380793246730
21864079 5 14058156051987286391
22182313 1 17824006522334925979
23557571 272 17752801114206854835
23559900 14 17967824803827423170
238 59 18412550889952195945
238918 7 17459448018771033708
312425 83 18127123070794312901
3737641 26 11527686188178290252
376196 1 18408882940811202576
4371632 12 15550217794897863472
44802255 64 17975721664327431244
46194498 28 18270398270514100797
469060 322 17839190949739915439
4938544 92 17752481225591781352
495365 180 17604987023091513665
5262128 65 18053957142853767299
5895379 119 17837199386078620297
59444896 2 17834065993078161682
9862522 239 18052553345989286024
9981440 41 17603862334455425601

> <PUBCHEM_SHAPE_MULTIPOLES>
522.95
9.7
4.09
2.91
3.7
0.6
-0.42
-12.24
-3.87
-4.64
-1.04
1.47
2.25
2.67

> <PUBCHEM_SHAPE_SELFOVERLAP>
1084.587

> <PUBCHEM_SHAPE_VOLUME>
301

> <PUBCHEM_COORDINATE_TYPE>
2
5
10

$$$$
