56774103
  -OEChem-12032416323D

 45 47  0     1  0  0  0  0  0999 V2000
   -4.3956   -2.2830    0.0538 S   0  0  0  0  0  0  0  0  0  0  0  0
   -3.0995   -2.9251   -0.0401 O   0  0  0  0  0  0  0  0  0  0  0  0
   -5.5332   -2.7790   -0.6957 O   0  0  0  0  0  0  0  0  0  0  0  0
    2.7624    1.6855    0.6968 O   0  0  0  0  0  0  0  0  0  0  0  0
   -4.2248   -0.6053   -0.2509 N   0  0  0  0  0  0  0  0  0  0  0  0
    1.5711    2.3894    0.5700 N   0  0  0  0  0  0  0  0  0  0  0  0
   -3.0604    1.7158   -0.1175 C   0  0  0  0  0  0  0  0  0  0  0  0
   -1.5762    1.5759    0.2805 C   0  0  1  0  0  0  0  0  0  0  0  0
   -3.2698    0.3014    0.4620 C   0  0  2  0  0  0  0  0  0  0  0  0
   -1.7736    0.0487    0.1829 C   0  0  0  0  0  0  0  0  0  0  0  0
   -0.5470    2.1440   -0.6682 C   0  0  0  0  0  0  0  0  0  0  0  0
   -3.3417    1.7940   -1.6066 C   0  0  0  0  0  0  0  0  0  0  0  0
   -3.7751    2.8356    0.6055 C   0  0  0  0  0  0  0  0  0  0  0  0
    0.8362    1.6738   -0.2861 C   0  0  0  0  0  0  0  0  0  0  0  0
    1.5053    0.5195   -0.7285 C   0  0  0  0  0  0  0  0  0  0  0  0
   -4.8602   -2.2375    1.7683 C   0  0  0  0  0  0  0  0  0  0  0  0
    2.7113    0.5740   -0.0812 C   0  0  0  0  0  0  0  0  0  0  0  0
    3.8775   -0.2601   -0.0523 C   0  0  0  0  0  0  0  0  0  0  0  0
    3.9199   -1.4263   -0.8161 C   0  0  0  0  0  0  0  0  0  0  0  0
    4.9694    0.0951    0.7396 C   0  0  0  0  0  0  0  0  0  0  0  0
    5.0542   -2.2377   -0.7880 C   0  0  0  0  0  0  0  0  0  0  0  0
    6.1037   -0.7162    0.7678 C   0  0  0  0  0  0  0  0  0  0  0  0
    6.1461   -1.8826    0.0039 C   0  0  0  0  0  0  0  0  0  0  0  0
   -1.3864    1.8954    1.3172 H   0  0  0  0  0  0  0  0  0  0  0  0
   -3.4975    0.3189    1.5364 H   0  0  0  0  0  0  0  0  0  0  0  0
   -1.5616   -0.3928   -0.7982 H   0  0  0  0  0  0  0  0  0  0  0  0
   -1.2531   -0.5394    0.9449 H   0  0  0  0  0  0  0  0  0  0  0  0
   -0.5795    3.2403   -0.6481 H   0  0  0  0  0  0  0  0  0  0  0  0
   -0.7240    1.8427   -1.7069 H   0  0  0  0  0  0  0  0  0  0  0  0
   -2.9926    2.7453   -2.0250 H   0  0  0  0  0  0  0  0  0  0  0  0
   -2.8659    0.9908   -2.1796 H   0  0  0  0  0  0  0  0  0  0  0  0
   -4.4177    1.7380   -1.8093 H   0  0  0  0  0  0  0  0  0  0  0  0
   -3.6060    2.7947    1.6874 H   0  0  0  0  0  0  0  0  0  0  0  0
   -3.4309    3.8158    0.2574 H   0  0  0  0  0  0  0  0  0  0  0  0
   -4.8577    2.7829    0.4451 H   0  0  0  0  0  0  0  0  0  0  0  0
   -5.1055   -0.1354   -0.5016 H   0  0  0  0  0  0  0  0  0  0  0  0
    1.1530   -0.2346   -1.4170 H   0  0  0  0  0  0  0  0  0  0  0  0
   -5.0855   -3.2599    2.0805 H   0  0  0  0  0  0  0  0  0  0  0  0
   -4.0291   -1.8515    2.3602 H   0  0  0  0  0  0  0  0  0  0  0  0
   -5.7501   -1.6154    1.8804 H   0  0  0  0  0  0  0  0  0  0  0  0
    3.0851   -1.7295   -1.4428 H   0  0  0  0  0  0  0  0  0  0  0  0
    4.9747    0.9956    1.3485 H   0  0  0  0  0  0  0  0  0  0  0  0
    5.0876   -3.1460   -1.3826 H   0  0  0  0  0  0  0  0  0  0  0  0
    6.9543   -0.4402    1.3843 H   0  0  0  0  0  0  0  0  0  0  0  0
    7.0293   -2.5142    0.0259 H   0  0  0  0  0  0  0  0  0  0  0  0
  1  2  2  0  0  0  0
  1  3  2  0  0  0  0
  1  5  1  0  0  0  0
  1 16  1  0  0  0  0
  4  6  1  0  0  0  0
  4 17  1  0  0  0  0
  5  9  1  0  0  0  0
  5 36  1  0  0  0  0
  6 14  2  0  0  0  0
  7  8  1  0  0  0  0
  7  9  1  0  0  0  0
  7 12  1  0  0  0  0
  7 13  1  0  0  0  0
  8 10  1  0  0  0  0
  8 11  1  0  0  0  0
  8 24  1  0  0  0  0
  9 10  1  0  0  0  0
  9 25  1  0  0  0  0
 10 26  1  0  0  0  0
 10 27  1  0  0  0  0
 11 14  1  0  0  0  0
 11 28  1  0  0  0  0
 11 29  1  0  0  0  0
 12 30  1  0  0  0  0
 12 31  1  0  0  0  0
 12 32  1  0  0  0  0
 13 33  1  0  0  0  0
 13 34  1  0  0  0  0
 13 35  1  0  0  0  0
 14 15  1  0  0  0  0
 15 17  2  0  0  0  0
 15 37  1  0  0  0  0
 16 38  1  0  0  0  0
 16 39  1  0  0  0  0
 16 40  1  0  0  0  0
 17 18  1  0  0  0  0
 18 19  2  0  0  0  0
 18 20  1  0  0  0  0
 19 21  1  0  0  0  0
 19 41  1  0  0  0  0
 20 22  2  0  0  0  0
 20 42  1  0  0  0  0
 21 23  2  0  0  0  0
 21 43  1  0  0  0  0
 22 23  1  0  0  0  0
 22 44  1  0  0  0  0
 23 45  1  0  0  0  0
M  END
> <PUBCHEM_COMPOUND_CID>
56774103

> <PUBCHEM_CONFORMER_RMSD>
0.8

> <PUBCHEM_CONFORMER_DIVERSEORDER>
1
56
98
97
49
66
106
36
109
65
113
44
18
78
102
93
64
92
63
89
90
59
115
110
83
41
34
75
69
2
85
48
22
82
39
38
107
45
73
103
46
108
54
25
23
43
5
9
88
91
47
62
14
67
84
31
104
12
87
68
114
3
55
51
116
35
13
80
99
19
60
71
52
58
57
27
101
70
32
94
76
74
81
42
95
79
16
11
33
112
53
7
72
17
105
30
100
10
24
86
21
61
111
6
37
77
20
8
28
4
96
29
40
15
50
26

> <PUBCHEM_MMFF94_PARTIAL_CHARGES>
25
1 1.33
11 0.18
14 0.11
15 -0.15
16 0.11
17 0.09
18 0.05
19 -0.15
2 -0.65
20 -0.15
21 -0.15
22 -0.15
23 -0.15
3 -0.65
36 0.42
37 0.15
4 -0.02
41 0.15
42 0.15
43 0.15
44 0.15
45 0.15
5 -0.87
6 -0.41
9 0.31

> <PUBCHEM_EFFECTIVE_ROTOR_COUNT>
5.8

> <PUBCHEM_PHARMACOPHORE_FEATURES>
8
1 2 acceptor
1 3 acceptor
1 5 donor
1 6 acceptor
3 7 12 13 hydrophobe
4 7 8 9 10 rings
5 4 6 14 15 17 rings
6 18 19 20 21 22 23 rings

> <PUBCHEM_HEAVY_ATOM_COUNT>
23

> <PUBCHEM_ATOM_DEF_STEREO_COUNT>
2

> <PUBCHEM_ATOM_UDEF_STEREO_COUNT>
0

> <PUBCHEM_BOND_DEF_STEREO_COUNT>
0

> <PUBCHEM_BOND_UDEF_STEREO_COUNT>
0

> <PUBCHEM_ISOTOPIC_ATOM_COUNT>
0

> <PUBCHEM_COMPONENT_COUNT>
1

> <PUBCHEM_CACTVS_TAUTO_COUNT>
1

> <PUBCHEM_CONFORMER_ID>
03624DD700000001

> <PUBCHEM_MMFF94_ENERGY>
41.2819

> <PUBCHEM_FEATURE_SELFOVERLAP>
40.614

> <PUBCHEM_SHAPE_FINGERPRINT>
10693767 8 17839444928969643383
11036077 4 18272099253926176865
11545043 162 18343015575773178184
11796584 16 18263358093256057280
11809386 21 18040710346963507755
12422481 6 17988660600598023679
12616971 3 17458639865071571540
12643181 29 18192711151246404838
12760667 363 18411136974603934707
13740256 8 18411420592542407860
14114206 34 15719388408770078957
14216079 64 18338236068096019779
14251751 18 18412826901741282938
14347329 18 8862946048202725494
14347332 77 18408605889761225493
14420673 8 18268718203450798910
14950920 106 16988283187381287931
15042514 8 18409174299088065561
15348495 7 18201715129154290048
15352361 1 18411138056228759630
15510800 12 18043530719144076499
15537594 2 17750522780037430328
16120349 21 18339656564077600515
17492 89 18338797939405397261
17627616 140 17896876547739099123
17780758 139 18130511851087028033
17857418 61 18411982498323040479
19141452 34 18337957770498270453
193927 3 18261680362712616923
20028762 73 18201999979596149918
20403669 9 18411423942247913087
21307412 95 18266457598832546021
22122407 14 15841544137620035504
22393880 68 18114168718614774857
23424784 1240 18271817770122732590
23559900 14 18339632417192018857
25122255 55 18411700993350052775
2916195 48 8502072055890586036
312425 54 18130227051842313306
316301 35 18410853287391947770
3472631 163 8646501712612986243
4073 2 18341894035669395888
44062 13 18261111842323801693
508706 21 18041289802286908866
5104073 3 18201720656524122576
5365585 94 18115316686433207219
5486654 36 18409738348167895641
559249 180 18261954051314617897
56633871 153 18195255636081278771
5718773 13 18339918324743686679
5924683 9 18413389834873284177
59755656 215 18260824852788541407
59755656 520 18263077709570922301
636775 8 18127423259677119302
6431902 208 18411415128837962614
7970288 3 18266458904946565787
8863177 126 18342458128174191374
9709674 26 18261678197896249009
9981440 41 16270807694036514841

> <PUBCHEM_SHAPE_MULTIPOLES>
449.61
14.96
3.59
1.1
11.61
1.17
-0.02
11.83
-1.39
-4.85
-0.02
-0.58
0.11
1.16

> <PUBCHEM_SHAPE_SELFOVERLAP>
940.405

> <PUBCHEM_SHAPE_VOLUME>
258.5

> <PUBCHEM_COORDINATE_TYPE>
2
5
10

$$$$
