28961586
  -OEChem-12032416143D

 54 57  0     1  0  0  0  0  0999 V2000
    2.4352    1.9829    0.5683 O   0  0  0  0  0  0  0  0  0  0  0  0
    0.3946    3.0274   -1.3587 O   0  0  0  0  0  0  0  0  0  0  0  0
    3.9483    4.3461    0.3939 O   0  0  0  0  0  0  0  0  0  0  0  0
    2.2175   -2.4621    0.4732 O   0  0  0  0  0  0  0  0  0  0  0  0
    5.4466   -1.5301   -0.6554 O   0  0  0  0  0  0  0  0  0  0  0  0
   -1.0857    1.0527    0.1012 N   0  0  0  0  0  0  0  0  0  0  0  0
   -3.6901   -0.1204    0.1221 N   0  0  0  0  0  0  0  0  0  0  0  0
    2.8946   -0.5377   -0.6324 N   0  0  0  0  0  0  0  0  0  0  0  0
   -5.0487   -1.9729    0.5434 N   0  0  0  0  0  0  0  0  0  0  0  0
   -5.9084   -0.0356   -0.6036 N   0  0  0  0  0  0  0  0  0  0  0  0
    0.0713    1.7225    0.6689 C   0  0  1  0  0  0  0  0  0  0  0  0
    1.4047    0.9699    0.5740 C   0  0  1  0  0  0  0  0  0  0  0  0
    0.3987    3.0782    0.0620 C   0  0  1  0  0  0  0  0  0  0  0  0
    1.8165    3.2838    0.5820 C   0  0  2  0  0  0  0  0  0  0  0  0
   -1.3146   -0.2346    0.7689 C   0  0  0  0  0  0  0  0  0  0  0  0
   -2.2803    1.8972    0.2219 C   0  0  0  0  0  0  0  0  0  0  0  0
    1.6148    0.1046   -0.6636 C   0  0  0  0  0  0  0  0  0  0  0  0
   -2.4970   -0.9761    0.1412 C   0  0  0  0  0  0  0  0  0  0  0  0
   -3.4959    1.2267   -0.4231 C   0  0  0  0  0  0  0  0  0  0  0  0
    2.6705    4.2528   -0.2150 C   0  0  0  0  0  0  0  0  0  0  0  0
   -4.9410   -0.7385    0.0156 C   0  0  0  0  0  0  0  0  0  0  0  0
    3.0979   -1.7900   -0.0575 C   0  0  0  0  0  0  0  0  0  0  0  0
    4.4901   -2.3074   -0.0829 C   0  0  0  0  0  0  0  0  0  0  0  0
   -6.2674   -2.5390    0.4230 C   0  0  0  0  0  0  0  0  0  0  0  0
   -7.1007   -0.6612   -0.6888 C   0  0  0  0  0  0  0  0  0  0  0  0
   -7.3410   -1.9249   -0.1890 C   0  0  0  0  0  0  0  0  0  0  0  0
    5.0363   -3.4804    0.3840 C   0  0  0  0  0  0  0  0  0  0  0  0
    6.4171   -3.4198    0.0792 C   0  0  0  0  0  0  0  0  0  0  0  0
    6.6162   -2.2141   -0.5527 C   0  0  0  0  0  0  0  0  0  0  0  0
   -0.1074    1.9009    1.7419 H   0  0  0  0  0  0  0  0  0  0  0  0
    1.5532    0.3590    1.4731 H   0  0  0  0  0  0  0  0  0  0  0  0
   -0.2706    3.8809    0.3876 H   0  0  0  0  0  0  0  0  0  0  0  0
    1.7929    3.5906    1.6357 H   0  0  0  0  0  0  0  0  0  0  0  0
   -1.5277   -0.0701    1.8351 H   0  0  0  0  0  0  0  0  0  0  0  0
   -0.4530   -0.9046    0.7364 H   0  0  0  0  0  0  0  0  0  0  0  0
   -2.1473    2.8560   -0.2900 H   0  0  0  0  0  0  0  0  0  0  0  0
   -2.4985    2.1156    1.2762 H   0  0  0  0  0  0  0  0  0  0  0  0
    1.6215    0.7244   -1.5666 H   0  0  0  0  0  0  0  0  0  0  0  0
    0.8542   -0.6645   -0.8024 H   0  0  0  0  0  0  0  0  0  0  0  0
   -2.2525   -1.2843   -0.8834 H   0  0  0  0  0  0  0  0  0  0  0  0
   -2.6564   -1.8871    0.7298 H   0  0  0  0  0  0  0  0  0  0  0  0
   -4.3658    1.8643   -0.2226 H   0  0  0  0  0  0  0  0  0  0  0  0
   -3.3667    1.1679   -1.5114 H   0  0  0  0  0  0  0  0  0  0  0  0
    2.2166    5.2481   -0.2401 H   0  0  0  0  0  0  0  0  0  0  0  0
    2.8292    3.8966   -1.2378 H   0  0  0  0  0  0  0  0  0  0  0  0
    0.5030    3.9364   -1.6859 H   0  0  0  0  0  0  0  0  0  0  0  0
    3.6873   -0.0469   -1.0363 H   0  0  0  0  0  0  0  0  0  0  0  0
    4.4716    4.9739   -0.1330 H   0  0  0  0  0  0  0  0  0  0  0  0
   -6.3603   -3.5335    0.8462 H   0  0  0  0  0  0  0  0  0  0  0  0
   -7.8841   -0.0998   -1.1867 H   0  0  0  0  0  0  0  0  0  0  0  0
   -8.3079   -2.4028   -0.2716 H   0  0  0  0  0  0  0  0  0  0  0  0
    4.5096   -4.2816    0.8828 H   0  0  0  0  0  0  0  0  0  0  0  0
    7.1726   -4.1618    0.2931 H   0  0  0  0  0  0  0  0  0  0  0  0
    7.4835   -1.7217   -0.9674 H   0  0  0  0  0  0  0  0  0  0  0  0
  1 12  1  0  0  0  0
  1 14  1  0  0  0  0
  2 13  1  0  0  0  0
  2 46  1  0  0  0  0
  3 20  1  0  0  0  0
  3 48  1  0  0  0  0
  4 22  2  0  0  0  0
  5 23  1  0  0  0  0
  5 29  1  0  0  0  0
  6 11  1  0  0  0  0
  6 15  1  0  0  0  0
  6 16  1  0  0  0  0
  7 18  1  0  0  0  0
  7 19  1  0  0  0  0
  7 21  1  0  0  0  0
  8 17  1  0  0  0  0
  8 22  1  0  0  0  0
  8 47  1  0  0  0  0
  9 21  2  0  0  0  0
  9 24  1  0  0  0  0
 10 21  1  0  0  0  0
 10 25  2  0  0  0  0
 11 12  1  0  0  0  0
 11 13  1  0  0  0  0
 11 30  1  0  0  0  0
 12 17  1  0  0  0  0
 12 31  1  0  0  0  0
 13 14  1  0  0  0  0
 13 32  1  0  0  0  0
 14 20  1  0  0  0  0
 14 33  1  0  0  0  0
 15 18  1  0  0  0  0
 15 34  1  0  0  0  0
 15 35  1  0  0  0  0
 16 19  1  0  0  0  0
 16 36  1  0  0  0  0
 16 37  1  0  0  0  0
 17 38  1  0  0  0  0
 17 39  1  0  0  0  0
 18 40  1  0  0  0  0
 18 41  1  0  0  0  0
 19 42  1  0  0  0  0
 19 43  1  0  0  0  0
 20 44  1  0  0  0  0
 20 45  1  0  0  0  0
 22 23  1  0  0  0  0
 23 27  2  0  0  0  0
 24 26  2  0  0  0  0
 24 49  1  0  0  0  0
 25 26  1  0  0  0  0
 25 50  1  0  0  0  0
 26 51  1  0  0  0  0
 27 28  1  0  0  0  0
 27 52  1  0  0  0  0
 28 29  2  0  0  0  0
 28 53  1  0  0  0  0
 29 54  1  0  0  0  0
M  END
> <PUBCHEM_COMPOUND_CID>
28961586

> <PUBCHEM_CONFORMER_RMSD>
1

> <PUBCHEM_CONFORMER_DIVERSEORDER>
1
21
28
14
17
5
10
25
30
22
7
4
24
13
23
15
29
11
18
20
12
27
9
19
6
16
3
26
8
2

> <PUBCHEM_MMFF94_PARTIAL_CHARGES>
38
1 -0.56
10 -0.62
11 0.27
12 0.28
13 0.28
14 0.28
15 0.27
16 0.27
17 0.3
18 0.37
19 0.37
2 -0.68
20 0.28
21 0.72
22 0.71
23 0.05
24 0.16
25 0.16
26 -0.15
27 -0.15
28 -0.15
29 -0.01
3 -0.68
4 -0.57
46 0.4
47 0.37
48 0.4
49 0.15
5 -0.28
50 0.15
51 0.15
52 0.15
53 0.15
54 0.15
6 -0.81
7 -0.84
8 -0.73
9 -0.62

> <PUBCHEM_EFFECTIVE_ROTOR_COUNT>
9.2

> <PUBCHEM_PHARMACOPHORE_FEATURES>
15
1 1 acceptor
1 10 acceptor
1 2 acceptor
1 2 donor
1 3 acceptor
1 3 donor
1 4 acceptor
1 5 acceptor
1 6 cation
1 8 donor
4 7 9 10 21 cation
5 1 11 12 13 14 rings
5 5 23 27 28 29 rings
6 6 7 15 16 18 19 rings
6 9 10 21 24 25 26 rings

> <PUBCHEM_HEAVY_ATOM_COUNT>
29

> <PUBCHEM_ATOM_DEF_STEREO_COUNT>
4

> <PUBCHEM_ATOM_UDEF_STEREO_COUNT>
0

> <PUBCHEM_BOND_DEF_STEREO_COUNT>
0

> <PUBCHEM_BOND_UDEF_STEREO_COUNT>
0

> <PUBCHEM_ISOTOPIC_ATOM_COUNT>
0

> <PUBCHEM_COMPONENT_COUNT>
1

> <PUBCHEM_CACTVS_TAUTO_COUNT>
2

> <PUBCHEM_CONFORMER_ID>
01B9EB3200000001

> <PUBCHEM_MMFF94_ENERGY>
70.7983

> <PUBCHEM_FEATURE_SELFOVERLAP>
76.129

> <PUBCHEM_SHAPE_FINGERPRINT>
10050765 1 18411982451458806113
10100884 174 18115866301052252058
10411042 1 18339643335293634698
11135926 11 18124581235448241829
11204353 107 18193848265218600290
11621639 208 17756151437727821587
11719270 70 18194958767477308856
11963148 33 17910107250945991767
12107183 9 18199199391142683809
12166972 35 18113342981361888758
12516196 113 18411698743009008378
12788726 201 17755864109057585472
13248334 5 18267585887206318120
13383665 225 17967541202948449477
13533116 47 18272088366062761865
13540713 4 18337934732552573381
13540713 5 18200333059886313681
13631057 29 18264773152100204482
13690498 29 18115024104934241383
13955234 65 18127689541935212233
13968360 50 18194683902634763800
14068700 675 18273215261716163139
14394314 77 18194405494052900866
14866123 147 18196376914655610361
14931854 50 17896040957561865154
15019793 15 18051694644631300631
15890870 6 18264213681729910196
15927050 60 17981324809267446126
16990366 60 18334286548876956674
16991971 28 18272100370517771886
17492 89 18411417336941451217
17686467 74 18270670971516600242
19319366 153 17912081956132552237
20567600 70 18410856551335321786
20771845 171 18042128812138772356
20775438 99 18048023357814726547
21033650 10 16588582003534846501
21049683 271 18335709355799128020
21130935 74 18268153248887452003
21279426 13 18261662732779091757
21344244 246 18336552698682454604
21682296 61 18411702093568704979
22311459 1 18124031497215630041
23522609 53 18052012222464382328
23559900 14 18336542802729151355
249999 5 18270395135151480080
255183 451 18412827984020086324
3004659 81 18113336396955600779
32027 91 18409164420415390907
329604 57 18336552621030099998
335352 9 18338514115815175773
3421961 26 18412261765628363433
3627633 1 18195811760978173572
4046055 25 18042973060610767932
437815 12 18409167684368859895
439807 62 18334862697396428407
46194498 28 17749105646730101229
5104073 3 17989213646641301321
5309563 4 18339923710347553266
5718773 13 18411980226238257911
59755656 215 18266181823373018669
6669772 16 18196657522075482732
6695519 79 17187307084363570249
6697151 62 18197469914791075709
6700243 42 17555480348731922092
7970288 3 18339359652124355618
9962374 69 18271798069197449087

> <PUBCHEM_SHAPE_MULTIPOLES>
542.55
17.74
5.5
0.83
14.38
4.26
0.06
-22.88
2.24
-9.04
-0.34
0
0.14
0.6

> <PUBCHEM_SHAPE_SELFOVERLAP>
1156.154

> <PUBCHEM_SHAPE_VOLUME>
299.3

> <PUBCHEM_COORDINATE_TYPE>
2
5
10

$$$$
