40778181
  -OEChem-12032416173D

 65 68  0     1  0  0  0  0  0999 V2000
    4.8482   -1.1104   -1.9489 S   0  0  0  0  0  0  0  0  0  0  0  0
   -9.2976   -2.6773   -0.0132 F   0  0  0  0  0  0  0  0  0  0  0  0
    2.0913    2.2740   -0.6716 O   0  0  0  0  0  0  0  0  0  0  0  0
    2.0731    3.9125    2.5244 O   0  0  0  0  0  0  0  0  0  0  0  0
    3.7951    4.5229    0.4676 O   0  0  0  0  0  0  0  0  0  0  0  0
   -0.7107    3.2824   -1.1515 O   0  0  0  0  0  0  0  0  0  0  0  0
    6.2137   -0.6215   -1.9269 O   0  0  0  0  0  0  0  0  0  0  0  0
    4.3294   -1.7722   -3.1305 O   0  0  0  0  0  0  0  0  0  0  0  0
   -2.1557    1.7731   -0.1347 N   0  0  0  0  0  0  0  0  0  0  0  0
   -4.6358    0.2814   -0.0700 N   0  0  0  0  0  0  0  0  0  0  0  0
    3.7919    0.1497   -1.5098 N   0  0  0  0  0  0  0  0  0  0  0  0
    1.3943    2.8885    0.4265 C   0  0  2  0  0  0  0  0  0  0  0  0
    2.3830    2.9104    1.5798 C   0  0  1  0  0  0  0  0  0  0  0  0
    3.6903    3.1532    0.8543 C   0  0  1  0  0  0  0  0  0  0  0  0
    3.5125    2.3173   -0.4084 C   0  0  1  0  0  0  0  0  0  0  0  0
    0.1298    2.1057    0.7319 C   0  0  0  0  0  0  0  0  0  0  0  0
    4.0004    0.8840   -0.2481 C   0  0  0  0  0  0  0  0  0  0  0  0
   -0.9415    2.4463   -0.2749 C   0  0  0  0  0  0  0  0  0  0  0  0
   -3.2448    2.0511   -1.0674 C   0  0  0  0  0  0  0  0  0  0  0  0
   -2.4244    0.7725    0.9006 C   0  0  0  0  0  0  0  0  0  0  0  0
   -4.1040    0.8156   -1.3268 C   0  0  0  0  0  0  0  0  0  0  0  0
   -3.9176    0.5859    1.1701 C   0  0  0  0  0  0  0  0  0  0  0  0
   -5.8118   -0.4646   -0.0555 C   0  0  0  0  0  0  0  0  0  0  0  0
    4.6502   -2.2345   -0.5990 C   0  0  0  0  0  0  0  0  0  0  0  0
   -6.1632   -1.2333   -1.1652 C   0  0  0  0  0  0  0  0  0  0  0  0
   -6.6377   -0.4440    1.0684 C   0  0  0  0  0  0  0  0  0  0  0  0
    3.6717   -3.2270   -0.6562 C   0  0  0  0  0  0  0  0  0  0  0  0
    5.4700   -2.1272    0.5243 C   0  0  0  0  0  0  0  0  0  0  0  0
   -7.3406   -1.9810   -1.1512 C   0  0  0  0  0  0  0  0  0  0  0  0
   -7.8151   -1.1916    1.0825 C   0  0  0  0  0  0  0  0  0  0  0  0
   -8.1665   -1.9601   -0.0272 C   0  0  0  0  0  0  0  0  0  0  0  0
    3.5133   -4.1122    0.4098 C   0  0  0  0  0  0  0  0  0  0  0  0
    5.3116   -3.0125    1.5905 C   0  0  0  0  0  0  0  0  0  0  0  0
    4.3333   -4.0052    1.5333 C   0  0  0  0  0  0  0  0  0  0  0  0
    4.1638   -4.9519    2.6730 C   0  0  0  0  0  0  0  0  0  0  0  0
    1.1579    3.9222    0.1417 H   0  0  0  0  0  0  0  0  0  0  0  0
    2.4066    1.9386    2.0877 H   0  0  0  0  0  0  0  0  0  0  0  0
    4.5723    2.9038    1.4510 H   0  0  0  0  0  0  0  0  0  0  0  0
    3.9892    2.7830   -1.2789 H   0  0  0  0  0  0  0  0  0  0  0  0
   -0.2379    2.3859    1.7247 H   0  0  0  0  0  0  0  0  0  0  0  0
    0.3232    1.0280    0.6971 H   0  0  0  0  0  0  0  0  0  0  0  0
    3.4363    0.3653    0.5345 H   0  0  0  0  0  0  0  0  0  0  0  0
    5.0613    0.8901    0.0197 H   0  0  0  0  0  0  0  0  0  0  0  0
   -2.8434    2.4344   -2.0116 H   0  0  0  0  0  0  0  0  0  0  0  0
   -3.8485    2.8507   -0.6206 H   0  0  0  0  0  0  0  0  0  0  0  0
   -1.9218    1.0428    1.8328 H   0  0  0  0  0  0  0  0  0  0  0  0
   -1.9833   -0.1681    0.5484 H   0  0  0  0  0  0  0  0  0  0  0  0
   -4.9169    1.1066   -2.0035 H   0  0  0  0  0  0  0  0  0  0  0  0
   -3.5035    0.0437   -1.8236 H   0  0  0  0  0  0  0  0  0  0  0  0
   -4.0254   -0.2267    1.8989 H   0  0  0  0  0  0  0  0  0  0  0  0
   -4.3336    1.4986    1.6142 H   0  0  0  0  0  0  0  0  0  0  0  0
    2.8043    3.9453    3.1646 H   0  0  0  0  0  0  0  0  0  0  0  0
    4.6279    4.6229   -0.0244 H   0  0  0  0  0  0  0  0  0  0  0  0
    2.8227    0.1147   -1.8500 H   0  0  0  0  0  0  0  0  0  0  0  0
   -5.5353   -1.2838   -2.0504 H   0  0  0  0  0  0  0  0  0  0  0  0
   -6.4025    0.1562    1.9429 H   0  0  0  0  0  0  0  0  0  0  0  0
    3.0174   -3.3239   -1.5178 H   0  0  0  0  0  0  0  0  0  0  0  0
    6.2364   -1.3604    0.5912 H   0  0  0  0  0  0  0  0  0  0  0  0
   -7.6133   -2.5822   -2.0135 H   0  0  0  0  0  0  0  0  0  0  0  0
   -8.4606   -1.1731    1.9557 H   0  0  0  0  0  0  0  0  0  0  0  0
    2.7475   -4.8813    0.3536 H   0  0  0  0  0  0  0  0  0  0  0  0
    5.9571   -2.9195    2.4598 H   0  0  0  0  0  0  0  0  0  0  0  0
    4.7968   -5.8328    2.5269 H   0  0  0  0  0  0  0  0  0  0  0  0
    4.4344   -4.4790    3.6232 H   0  0  0  0  0  0  0  0  0  0  0  0
    3.1224   -5.2790    2.7636 H   0  0  0  0  0  0  0  0  0  0  0  0
  1  7  2  0  0  0  0
  1  8  2  0  0  0  0
  1 11  1  0  0  0  0
  1 24  1  0  0  0  0
  2 31  1  0  0  0  0
  3 12  1  0  0  0  0
  3 15  1  0  0  0  0
  4 13  1  0  0  0  0
  4 52  1  0  0  0  0
  5 14  1  0  0  0  0
  5 53  1  0  0  0  0
  6 18  2  0  0  0  0
  9 18  1  0  0  0  0
  9 19  1  0  0  0  0
  9 20  1  0  0  0  0
 10 21  1  0  0  0  0
 10 22  1  0  0  0  0
 10 23  1  0  0  0  0
 11 17  1  0  0  0  0
 11 54  1  0  0  0  0
 12 13  1  0  0  0  0
 12 16  1  0  0  0  0
 12 36  1  0  0  0  0
 13 14  1  0  0  0  0
 13 37  1  0  0  0  0
 14 15  1  0  0  0  0
 14 38  1  0  0  0  0
 15 17  1  0  0  0  0
 15 39  1  0  0  0  0
 16 18  1  0  0  0  0
 16 40  1  0  0  0  0
 16 41  1  0  0  0  0
 17 42  1  0  0  0  0
 17 43  1  0  0  0  0
 19 21  1  0  0  0  0
 19 44  1  0  0  0  0
 19 45  1  0  0  0  0
 20 22  1  0  0  0  0
 20 46  1  0  0  0  0
 20 47  1  0  0  0  0
 21 48  1  0  0  0  0
 21 49  1  0  0  0  0
 22 50  1  0  0  0  0
 22 51  1  0  0  0  0
 23 25  2  0  0  0  0
 23 26  1  0  0  0  0
 24 27  2  0  0  0  0
 24 28  1  0  0  0  0
 25 29  1  0  0  0  0
 25 55  1  0  0  0  0
 26 30  2  0  0  0  0
 26 56  1  0  0  0  0
 27 32  1  0  0  0  0
 27 57  1  0  0  0  0
 28 33  2  0  0  0  0
 28 58  1  0  0  0  0
 29 31  2  0  0  0  0
 29 59  1  0  0  0  0
 30 31  1  0  0  0  0
 30 60  1  0  0  0  0
 32 34  2  0  0  0  0
 32 61  1  0  0  0  0
 33 34  1  0  0  0  0
 33 62  1  0  0  0  0
 34 35  1  0  0  0  0
 35 63  1  0  0  0  0
 35 64  1  0  0  0  0
 35 65  1  0  0  0  0
M  END
> <PUBCHEM_COMPOUND_CID>
40778181

> <PUBCHEM_CONFORMER_RMSD>
1.2

> <PUBCHEM_CONFORMER_DIVERSEORDER>
1
7
14
115
133
170
58
118
69
132
104
93
25
145
94
157
107
37
30
146
100
38
163
62
153
18
106
123
31
149
24
158
156
167
154
160
112
51
45
43
97
169
176
83
50
172
53
86
61
56
168
152
57
165
138
60
13
6
105
121
144
80
150
148
76
155
135
125
166
137
162
59
117
73
42
143
88
96
129
108
78
177
12
147
142
98
4
64
136
16
124
99
95
114
140
22
8
27
102
126
122
134
63
90
173
113
2
33
67
139
17
127
10
116
70
65
131
109
91
141
47
85
48
39
175
128
19
151
81
103
72
82
174
119
44
15
3
92
89
32
159
34
161
111
79
5
28
66
29
23
54
71
21
41
77
20
101
11
164
55
68
36
171
87
110
84
52
120
26
74
9
35
75
49
46
130
40

> <PUBCHEM_MMFF94_PARTIAL_CHARGES>
46
1 1.45
10 -0.84
11 -0.91
12 0.28
13 0.28
14 0.28
15 0.28
16 0.06
17 0.36
18 0.57
19 0.3
2 -0.19
20 0.3
21 0.37
22 0.37
23 0.1
24 -0.01
25 -0.15
26 -0.15
27 -0.15
28 -0.15
29 -0.15
3 -0.56
30 -0.15
31 0.19
32 -0.15
33 -0.15
34 -0.14
35 0.14
4 -0.68
5 -0.68
52 0.4
53 0.4
54 0.42
55 0.15
56 0.15
57 0.15
58 0.15
59 0.15
6 -0.57
60 0.15
61 0.15
62 0.15
7 -0.65
8 -0.65
9 -0.66

> <PUBCHEM_EFFECTIVE_ROTOR_COUNT>
10.2

> <PUBCHEM_PHARMACOPHORE_FEATURES>
14
1 10 cation
1 11 donor
1 3 acceptor
1 4 acceptor
1 4 donor
1 5 acceptor
1 5 donor
1 6 acceptor
1 7 acceptor
1 8 acceptor
5 3 12 13 14 15 rings
6 23 25 26 29 30 31 rings
6 24 27 28 32 33 34 rings
6 9 10 19 20 21 22 rings

> <PUBCHEM_HEAVY_ATOM_COUNT>
35

> <PUBCHEM_ATOM_DEF_STEREO_COUNT>
4

> <PUBCHEM_ATOM_UDEF_STEREO_COUNT>
0

> <PUBCHEM_BOND_DEF_STEREO_COUNT>
0

> <PUBCHEM_BOND_UDEF_STEREO_COUNT>
0

> <PUBCHEM_ISOTOPIC_ATOM_COUNT>
0

> <PUBCHEM_COMPONENT_COUNT>
1

> <PUBCHEM_CACTVS_TAUTO_COUNT>
1

> <PUBCHEM_CONFORMER_ID>
026E39C500000001

> <PUBCHEM_MMFF94_ENERGY>
89.7581

> <PUBCHEM_FEATURE_SELFOVERLAP>
71.079

> <PUBCHEM_SHAPE_FINGERPRINT>
10581848 197 17841957184078660978
10622 236 17826794733768512218
10908659 184 18131346384739658655
11227150 75 17388803203139510522
11534866 41 18126838532925353409
11801155 225 18127126596715426695
11966995 16 18261387867541357295
12975358 362 9871180722157346103
13008946 335 17984411117586314608
13533116 47 18059861722317201513
13553639 21 18263371291649568851
13782708 43 18334856100368561117
14117953 113 8862944974914412530
14268113 111 17683533097692868707
14347332 77 18336828589726614813
15328684 2 16414378761490676587
15475509 35 18341610438378038944
17134984 74 18334299773333766558
17324776 126 17609486134416082650
18393751 57 17766817791185695281
19053607 189 9006759978587514054
19301679 30 18342455937377354577
19315092 285 18273216386966329545
19841028 212 18200024179741197471
20691028 202 9223225243895114943
20775438 99 18189886685836351883
21585483 132 18129086979119316511
23569914 152 17687145766519915133
23569943 247 18336548218963091307
24983565 74 17986384697824026135
25222932 49 18339646642756141254
397830 11 10519700138314364509
439807 62 18187931625602452543
45266715 3 18261671579493837216
4756326 101 15286783498128470860
50009960 94 18116692055104426098
57527295 17 18263940847420199408
59025328 239 16807870724619156558
6201460 15 17756138986670104778
6677587 24 16444495527225817670
6697151 62 17987497270209822045
86090 222 18334298703274915450
9831232 110 18334293197680996205

> <PUBCHEM_SHAPE_MULTIPOLES>
666.7
22.54
6.59
2.12
48.12
0.8
-0.22
25.35
-1.9
-11.1
3.73
-3.11
0.9
-0.91

> <PUBCHEM_SHAPE_SELFOVERLAP>
1402.885

> <PUBCHEM_SHAPE_VOLUME>
378.7

> <PUBCHEM_COORDINATE_TYPE>
2
5
10

$$$$
