40777833
  -OEChem-12032416173D

 51 52  0     1  0  0  0  0  0999 V2000
   -1.7654   -0.7533    0.5696 O   0  0  0  0  0  0  0  0  0  0  0  0
   -5.1832   -0.9190   -0.5215 O   0  0  0  0  0  0  0  0  0  0  0  0
   -4.0127   -2.6992    1.2189 O   0  0  0  0  0  0  0  0  0  0  0  0
   -1.9725    2.1382    1.6972 O   0  0  0  0  0  0  0  0  0  0  0  0
    0.4557   -0.0161   -1.2475 O   0  0  0  0  0  0  0  0  0  0  0  0
    0.4233   -2.2216   -0.5275 N   0  0  0  0  0  0  0  0  0  0  0  0
   -1.1909    2.9978   -0.3156 N   0  0  0  0  0  0  0  0  0  0  0  0
   -3.7868   -1.1143   -0.5889 C   0  0  2  0  0  0  0  0  0  0  0  0
   -3.3378   -2.4408   -0.0117 C   0  0  1  0  0  0  0  0  0  0  0  0
   -3.0304   -0.1297    0.2865 C   0  0  2  0  0  0  0  0  0  0  0  0
   -1.8703   -2.1704    0.3011 C   0  0  1  0  0  0  0  0  0  0  0  0
   -2.7999    1.2150   -0.3797 C   0  0  0  0  0  0  0  0  0  0  0  0
   -0.9433   -2.4937   -0.8627 C   0  0  0  0  0  0  0  0  0  0  0  0
   -1.9580    2.1494    0.4693 C   0  0  0  0  0  0  0  0  0  0  0  0
   -0.2980    3.9909    0.2360 C   0  0  0  0  0  0  0  0  0  0  0  0
    1.0233   -0.9850   -0.7500 C   0  0  0  0  0  0  0  0  0  0  0  0
    2.4553   -0.8716   -0.3713 C   0  0  0  0  0  0  0  0  0  0  0  0
    1.0805    3.3913    0.4848 C   0  0  0  0  0  0  0  0  0  0  0  0
   -0.2155    5.1997   -0.6869 C   0  0  0  0  0  0  0  0  0  0  0  0
    3.2794    0.0453   -1.0241 C   0  0  0  0  0  0  0  0  0  0  0  0
    2.9759   -1.6825    0.6373 C   0  0  0  0  0  0  0  0  0  0  0  0
    4.6239    0.1517   -0.6678 C   0  0  0  0  0  0  0  0  0  0  0  0
    4.3205   -1.5764    0.9933 C   0  0  0  0  0  0  0  0  0  0  0  0
    5.1444   -0.6592    0.3408 C   0  0  0  0  0  0  0  0  0  0  0  0
    6.5823   -0.5465    0.7206 C   0  0  0  0  0  0  0  0  0  0  0  0
   -3.4681   -1.0314   -1.6349 H   0  0  0  0  0  0  0  0  0  0  0  0
   -3.5171   -3.2891   -0.6783 H   0  0  0  0  0  0  0  0  0  0  0  0
   -3.5480    0.0201    1.2429 H   0  0  0  0  0  0  0  0  0  0  0  0
   -1.5391   -2.6961    1.2043 H   0  0  0  0  0  0  0  0  0  0  0  0
   -3.7540    1.7136   -0.5836 H   0  0  0  0  0  0  0  0  0  0  0  0
   -2.2924    1.0577   -1.3396 H   0  0  0  0  0  0  0  0  0  0  0  0
   -1.2029   -1.9055   -1.7498 H   0  0  0  0  0  0  0  0  0  0  0  0
   -1.0113   -3.5552   -1.1224 H   0  0  0  0  0  0  0  0  0  0  0  0
   -5.6033   -1.6500   -1.0060 H   0  0  0  0  0  0  0  0  0  0  0  0
   -3.6669   -3.5380    1.5693 H   0  0  0  0  0  0  0  0  0  0  0  0
    0.9648   -2.9981   -0.1638 H   0  0  0  0  0  0  0  0  0  0  0  0
   -1.2129    2.8942   -1.3260 H   0  0  0  0  0  0  0  0  0  0  0  0
   -0.7081    4.3183    1.1990 H   0  0  0  0  0  0  0  0  0  0  0  0
    1.0198    2.5388    1.1702 H   0  0  0  0  0  0  0  0  0  0  0  0
    1.7564    4.1315    0.9255 H   0  0  0  0  0  0  0  0  0  0  0  0
    1.5297    3.0305   -0.4474 H   0  0  0  0  0  0  0  0  0  0  0  0
    0.1842    4.9246   -1.6694 H   0  0  0  0  0  0  0  0  0  0  0  0
   -1.2081    5.6353   -0.8455 H   0  0  0  0  0  0  0  0  0  0  0  0
    0.4303    5.9745   -0.2609 H   0  0  0  0  0  0  0  0  0  0  0  0
    2.8932    0.6836   -1.8144 H   0  0  0  0  0  0  0  0  0  0  0  0
    2.3623   -2.3862    1.1920 H   0  0  0  0  0  0  0  0  0  0  0  0
    5.2556    0.8707   -1.1828 H   0  0  0  0  0  0  0  0  0  0  0  0
    4.7129   -2.2074    1.7865 H   0  0  0  0  0  0  0  0  0  0  0  0
    6.7037    0.1966    1.5150 H   0  0  0  0  0  0  0  0  0  0  0  0
    6.9738   -1.5062    1.0748 H   0  0  0  0  0  0  0  0  0  0  0  0
    7.1952   -0.2475   -0.1364 H   0  0  0  0  0  0  0  0  0  0  0  0
  1 10  1  0  0  0  0
  1 11  1  0  0  0  0
  2  8  1  0  0  0  0
  2 34  1  0  0  0  0
  3  9  1  0  0  0  0
  3 35  1  0  0  0  0
  4 14  2  0  0  0  0
  5 16  2  0  0  0  0
  6 13  1  0  0  0  0
  6 16  1  0  0  0  0
  6 36  1  0  0  0  0
  7 14  1  0  0  0  0
  7 15  1  0  0  0  0
  7 37  1  0  0  0  0
  8  9  1  0  0  0  0
  8 10  1  0  0  0  0
  8 26  1  0  0  0  0
  9 11  1  0  0  0  0
  9 27  1  0  0  0  0
 10 12  1  0  0  0  0
 10 28  1  0  0  0  0
 11 13  1  0  0  0  0
 11 29  1  0  0  0  0
 12 14  1  0  0  0  0
 12 30  1  0  0  0  0
 12 31  1  0  0  0  0
 13 32  1  0  0  0  0
 13 33  1  0  0  0  0
 15 18  1  0  0  0  0
 15 19  1  0  0  0  0
 15 38  1  0  0  0  0
 16 17  1  0  0  0  0
 17 20  2  0  0  0  0
 17 21  1  0  0  0  0
 18 39  1  0  0  0  0
 18 40  1  0  0  0  0
 18 41  1  0  0  0  0
 19 42  1  0  0  0  0
 19 43  1  0  0  0  0
 19 44  1  0  0  0  0
 20 22  1  0  0  0  0
 20 45  1  0  0  0  0
 21 23  2  0  0  0  0
 21 46  1  0  0  0  0
 22 24  2  0  0  0  0
 22 47  1  0  0  0  0
 23 24  1  0  0  0  0
 23 48  1  0  0  0  0
 24 25  1  0  0  0  0
 25 49  1  0  0  0  0
 25 50  1  0  0  0  0
 25 51  1  0  0  0  0
M  END
> <PUBCHEM_COMPOUND_CID>
40777833

> <PUBCHEM_CONFORMER_RMSD>
1

> <PUBCHEM_CONFORMER_DIVERSEORDER>
1
42
71
31
65
38
62
61
138
93
157
121
125
143
96
152
57
78
56
113
136
69
128
117
9
99
94
126
49
114
21
18
91
155
24
119
100
40
85
137
92
20
106
52
104
45
25
46
122
109
55
59
159
144
101
111
30
124
75
60
6
47
74
77
58
15
139
148
129
82
13
97
133
156
32
142
41
10
37
153
145
86
127
147
33
17
26
110
131
48
89
83
12
132
115
118
140
80
154
72
3
70
98
66
54
105
29
95
22
116
120
11
150
108
28
8
14
27
43
88
151
84
149
158
23
135
81
87
19
123
130
16
64
103
90
73
53
2
141
35
107
4
44
39
51
134
146
67
102
50
76
68
112
7
63
36
79
5
34

> <PUBCHEM_MMFF94_PARTIAL_CHARGES>
31
1 -0.56
10 0.28
11 0.28
12 0.06
13 0.3
14 0.57
15 0.3
16 0.54
17 0.09
2 -0.68
20 -0.15
21 -0.15
22 -0.15
23 -0.15
24 -0.14
25 0.14
3 -0.68
34 0.4
35 0.4
36 0.37
37 0.37
4 -0.57
45 0.15
46 0.15
47 0.15
48 0.15
5 -0.57
6 -0.73
7 -0.73
8 0.28
9 0.28

> <PUBCHEM_EFFECTIVE_ROTOR_COUNT>
9

> <PUBCHEM_PHARMACOPHORE_FEATURES>
12
1 1 acceptor
1 2 acceptor
1 2 donor
1 3 acceptor
1 3 donor
1 4 acceptor
1 5 acceptor
1 6 donor
1 7 donor
3 15 18 19 hydrophobe
5 1 8 9 10 11 rings
6 17 20 21 22 23 24 rings

> <PUBCHEM_HEAVY_ATOM_COUNT>
25

> <PUBCHEM_ATOM_DEF_STEREO_COUNT>
4

> <PUBCHEM_ATOM_UDEF_STEREO_COUNT>
0

> <PUBCHEM_BOND_DEF_STEREO_COUNT>
0

> <PUBCHEM_BOND_UDEF_STEREO_COUNT>
0

> <PUBCHEM_ISOTOPIC_ATOM_COUNT>
0

> <PUBCHEM_COMPONENT_COUNT>
1

> <PUBCHEM_CACTVS_TAUTO_COUNT>
10

> <PUBCHEM_CONFORMER_ID>
026E386900000001

> <PUBCHEM_MMFF94_ENERGY>
56.3672

> <PUBCHEM_FEATURE_SELFOVERLAP>
60.91

> <PUBCHEM_SHAPE_FINGERPRINT>
10256941 240 17612848437021341940
10670039 82 18339939130049987526
11370993 70 17544753435265073900
11595378 159 18264750135248880210
12107183 9 17541369147397089026
12156800 1 16591637575732998157
12166972 35 17895195553362612367
12596602 18 17822290240735183706
12788726 201 18335150791049247294
13009979 54 18187379717910066830
13140716 1 18412270536009928961
138480 1 15311815558538355084
14081887 123 18339922589619441352
14142880 1 18130517319017914243
14790565 3 17836371445655690897
15927050 60 17187295002330558087
167882 2 17978505661848973573
17627616 140 17974297813728453140
17818456 19 18192427464361588714
18336668 15 18186521025056477244
21033648 29 17417517060746016146
21344244 246 17765412624700315023
22956985 138 17468762239325621443
23366157 5 17758957416985637455
23402539 116 18272081708552522127
23559900 14 18193267710029740985
3524813 1 17846489340115224770
4366758 6 17108435327015700804
469060 322 18268731496538208571
9925002 15 16985449840194591911
9981440 41 17614560337390646673

> <PUBCHEM_SHAPE_MULTIPOLES>
475.18
10.34
5.2
1.09
11.83
8.46
0.1
-6.73
1.69
-3.87
0.04
0.1
-0.02
-0.34

> <PUBCHEM_SHAPE_SELFOVERLAP>
981.595

> <PUBCHEM_SHAPE_VOLUME>
273.1

> <PUBCHEM_COORDINATE_TYPE>
2
5
10

$$$$
