26742953
  -OEChem-12032416193D

 58 60  0     1  0  0  0  0  0999 V2000
    0.9805    3.6921    0.7609 O   0  0  0  0  0  0  0  0  0  0  0  0
    0.1025   -1.3098   -1.6441 O   0  0  0  0  0  0  0  0  0  0  0  0
    5.4104   -1.2863   -0.4667 N   0  0  0  0  0  0  0  0  0  0  0  0
   -0.3429   -2.8028    0.0802 N   0  0  0  0  0  0  0  0  0  0  0  0
    2.1864    3.0755    1.0715 N   0  0  0  0  0  0  0  0  0  0  0  0
    2.5637   -0.5168   -0.5686 C   0  0  1  0  0  0  0  0  0  0  0  0
    3.5908    0.1970    0.3424 C   0  0  2  0  0  0  0  0  0  0  0  0
    3.3049   -1.1605   -1.7524 C   0  0  0  0  0  0  0  0  0  0  0  0
    4.7574   -0.7316    0.7195 C   0  0  0  0  0  0  0  0  0  0  0  0
    2.9598    0.8033    1.5965 C   0  0  0  0  0  0  0  0  0  0  0  0
    4.4743   -2.0352   -1.3024 C   0  0  0  0  0  0  0  0  0  0  0  0
    1.6967   -1.5509    0.1595 C   0  0  0  0  0  0  0  0  0  0  0  0
    1.8809    1.7865    1.2453 C   0  0  0  0  0  0  0  0  0  0  0  0
    0.4144   -1.8511   -0.5869 C   0  0  0  0  0  0  0  0  0  0  0  0
    0.5110    1.5330    1.0593 C   0  0  0  0  0  0  0  0  0  0  0  0
   -0.0098    2.7633    0.7567 C   0  0  0  0  0  0  0  0  0  0  0  0
   -1.3601    3.2466    0.4450 C   0  0  0  0  0  0  0  0  0  0  0  0
   -1.6181   -3.2784   -0.4050 C   0  0  0  0  0  0  0  0  0  0  0  0
   -1.8022    2.9184   -0.9990 C   0  0  0  0  0  0  0  0  0  0  0  0
   -2.7600   -2.4533    0.1141 C   0  0  0  0  0  0  0  0  0  0  0  0
   -3.1912    3.4656   -1.3269 C   0  0  0  0  0  0  0  0  0  0  0  0
   -3.5842    3.1639   -2.7643 C   0  0  0  0  0  0  0  0  0  0  0  0
   -3.3824   -2.8003    1.3131 C   0  0  0  0  0  0  0  0  0  0  0  0
   -3.1984   -1.3399   -0.6025 C   0  0  0  0  0  0  0  0  0  0  0  0
   -4.4433   -2.0340    1.7958 C   0  0  0  0  0  0  0  0  0  0  0  0
   -4.2593   -0.5734   -0.1201 C   0  0  0  0  0  0  0  0  0  0  0  0
   -4.8817   -0.9205    1.0791 C   0  0  0  0  0  0  0  0  0  0  0  0
    1.9103    0.2510   -1.0021 H   0  0  0  0  0  0  0  0  0  0  0  0
    4.0175    1.0238   -0.2469 H   0  0  0  0  0  0  0  0  0  0  0  0
    3.6901   -0.3630   -2.4024 H   0  0  0  0  0  0  0  0  0  0  0  0
    2.6233   -1.7548   -2.3710 H   0  0  0  0  0  0  0  0  0  0  0  0
    5.5043   -0.1654    1.2877 H   0  0  0  0  0  0  0  0  0  0  0  0
    4.4129   -1.5438    1.3714 H   0  0  0  0  0  0  0  0  0  0  0  0
    3.7369    1.3310    2.1669 H   0  0  0  0  0  0  0  0  0  0  0  0
    2.5742    0.0416    2.2823 H   0  0  0  0  0  0  0  0  0  0  0  0
    4.1232   -2.9283   -0.7741 H   0  0  0  0  0  0  0  0  0  0  0  0
    5.0096   -2.3904   -2.1902 H   0  0  0  0  0  0  0  0  0  0  0  0
    1.3908   -1.2175    1.1529 H   0  0  0  0  0  0  0  0  0  0  0  0
    2.2361   -2.4924    0.3087 H   0  0  0  0  0  0  0  0  0  0  0  0
    6.1704   -1.9010   -0.1768 H   0  0  0  0  0  0  0  0  0  0  0  0
   -0.0358    0.6066    1.1431 H   0  0  0  0  0  0  0  0  0  0  0  0
   -0.0044   -3.1781    0.9617 H   0  0  0  0  0  0  0  0  0  0  0  0
   -2.0749    2.8003    1.1474 H   0  0  0  0  0  0  0  0  0  0  0  0
   -1.4124    4.3316    0.5984 H   0  0  0  0  0  0  0  0  0  0  0  0
   -1.7226   -4.3225   -0.0887 H   0  0  0  0  0  0  0  0  0  0  0  0
   -1.6143   -3.2771   -1.5015 H   0  0  0  0  0  0  0  0  0  0  0  0
   -1.7918    1.8305   -1.1454 H   0  0  0  0  0  0  0  0  0  0  0  0
   -1.0699    3.3354   -1.7025 H   0  0  0  0  0  0  0  0  0  0  0  0
   -3.9319    3.0269   -0.6484 H   0  0  0  0  0  0  0  0  0  0  0  0
   -3.2093    4.5503   -1.1698 H   0  0  0  0  0  0  0  0  0  0  0  0
   -4.5810    3.5627   -2.9763 H   0  0  0  0  0  0  0  0  0  0  0  0
   -3.6042    2.0846   -2.9463 H   0  0  0  0  0  0  0  0  0  0  0  0
   -2.8794    3.6185   -3.4678 H   0  0  0  0  0  0  0  0  0  0  0  0
   -3.0487   -3.6644    1.8816 H   0  0  0  0  0  0  0  0  0  0  0  0
   -2.7246   -1.0580   -1.5388 H   0  0  0  0  0  0  0  0  0  0  0  0
   -4.9276   -2.3037    2.7297 H   0  0  0  0  0  0  0  0  0  0  0  0
   -4.6003    0.2938   -0.6780 H   0  0  0  0  0  0  0  0  0  0  0  0
   -5.7074   -0.3233    1.4548 H   0  0  0  0  0  0  0  0  0  0  0  0
  1  5  1  0  0  0  0
  1 16  1  0  0  0  0
  2 14  2  0  0  0  0
  3  9  1  0  0  0  0
  3 11  1  0  0  0  0
  3 40  1  0  0  0  0
  4 14  1  0  0  0  0
  4 18  1  0  0  0  0
  4 42  1  0  0  0  0
  5 13  2  0  0  0  0
  6  7  1  0  0  0  0
  6  8  1  0  0  0  0
  6 12  1  0  0  0  0
  6 28  1  0  0  0  0
  7  9  1  0  0  0  0
  7 10  1  0  0  0  0
  7 29  1  0  0  0  0
  8 11  1  0  0  0  0
  8 30  1  0  0  0  0
  8 31  1  0  0  0  0
  9 32  1  0  0  0  0
  9 33  1  0  0  0  0
 10 13  1  0  0  0  0
 10 34  1  0  0  0  0
 10 35  1  0  0  0  0
 11 36  1  0  0  0  0
 11 37  1  0  0  0  0
 12 14  1  0  0  0  0
 12 38  1  0  0  0  0
 12 39  1  0  0  0  0
 13 15  1  0  0  0  0
 15 16  2  0  0  0  0
 15 41  1  0  0  0  0
 16 17  1  0  0  0  0
 17 19  1  0  0  0  0
 17 43  1  0  0  0  0
 17 44  1  0  0  0  0
 18 20  1  0  0  0  0
 18 45  1  0  0  0  0
 18 46  1  0  0  0  0
 19 21  1  0  0  0  0
 19 47  1  0  0  0  0
 19 48  1  0  0  0  0
 20 23  2  0  0  0  0
 20 24  1  0  0  0  0
 21 22  1  0  0  0  0
 21 49  1  0  0  0  0
 21 50  1  0  0  0  0
 22 51  1  0  0  0  0
 22 52  1  0  0  0  0
 22 53  1  0  0  0  0
 23 25  1  0  0  0  0
 23 54  1  0  0  0  0
 24 26  2  0  0  0  0
 24 55  1  0  0  0  0
 25 27  2  0  0  0  0
 25 56  1  0  0  0  0
 26 27  1  0  0  0  0
 26 57  1  0  0  0  0
 27 58  1  0  0  0  0
M  END
> <PUBCHEM_COMPOUND_CID>
26742953

> <PUBCHEM_CONFORMER_RMSD>
1.2

> <PUBCHEM_CONFORMER_DIVERSEORDER>
1
113
35
90
128
110
34
68
19
15
46
11
54
62
141
137
122
112
40
138
10
86
116
134
2
79
102
131
73
71
66
32
20
63
18
83
70
123
108
47
142
60
8
119
81
94
49
80
130
7
115
67
4
37
28
124
72
13
136
99
117
57
14
93
16
53
61
144
96
121
101
129
17
114
24
100
85
78
98
125
106
118
56
42
58
27
87
30
104
12
77
41
21
127
64
69
22
39
6
26
31
51
135
76
48
97
126
89
84
140
65
120
23
44
9
25
36
143
133
29
74
38
95
45
132
139
109
52
91
82
105
3
111
43
5
103
88
59
33
55
107
75
50
92

> <PUBCHEM_MMFF94_PARTIAL_CHARGES>
29
1 -0.02
10 0.18
11 0.27
12 0.06
13 0.11
14 0.57
15 -0.15
16 -0.04
17 0.18
18 0.44
2 -0.57
20 -0.14
23 -0.15
24 -0.15
25 -0.15
26 -0.15
27 -0.15
3 -0.9
4 -0.73
40 0.36
41 0.15
42 0.37
5 -0.41
54 0.15
55 0.15
56 0.15
57 0.15
58 0.15
9 0.27

> <PUBCHEM_EFFECTIVE_ROTOR_COUNT>
11.2

> <PUBCHEM_PHARMACOPHORE_FEATURES>
9
1 2 acceptor
1 22 hydrophobe
1 3 cation
1 3 donor
1 4 donor
1 5 acceptor
5 1 5 13 15 16 rings
6 20 23 24 25 26 27 rings
6 3 6 7 8 9 11 rings

> <PUBCHEM_HEAVY_ATOM_COUNT>
27

> <PUBCHEM_ATOM_DEF_STEREO_COUNT>
2

> <PUBCHEM_ATOM_UDEF_STEREO_COUNT>
0

> <PUBCHEM_BOND_DEF_STEREO_COUNT>
0

> <PUBCHEM_BOND_UDEF_STEREO_COUNT>
0

> <PUBCHEM_ISOTOPIC_ATOM_COUNT>
0

> <PUBCHEM_COMPONENT_COUNT>
1

> <PUBCHEM_CACTVS_TAUTO_COUNT>
2

> <PUBCHEM_CONFORMER_ID>
019810A900000001

> <PUBCHEM_MMFF94_ENERGY>
32.0564

> <PUBCHEM_FEATURE_SELFOVERLAP>
45.671

> <PUBCHEM_SHAPE_FINGERPRINT>
10688039 33 18334582377232728627
108634 29 18127968607909406270
11421498 54 17821736039229321986
11513181 2 17558563644775098831
12293681 25 16840809859298779566
12422481 6 17983834938784779928
12633257 1 18270118053578205467
12645989 146 18201720656345261687
12788726 201 18337686230603997754
13402501 40 18340768152937290501
14363568 33 17832999616711779745
14790565 3 17333086928728266520
15420108 30 17342371127893107606
1601671 61 17985273112894233336
16067689 391 17125370030686659646
20764821 26 18267859489554830865
22182313 1 18272640243358508920
25223398 141 18187368675364545468
3052486 1 18336541604380489224
4409770 3 18338519612434324191
469060 322 17970090888644468449
508706 21 18335974299346119069
6287921 2 17618233140356322347

> <PUBCHEM_SHAPE_MULTIPOLES>
528.97
9.81
5.43
1.86
2.21
3.9
-0.62
-4.84
-0.21
-4.8
-0.51
-0.74
0.84
4.36

> <PUBCHEM_SHAPE_SELFOVERLAP>
1092.758

> <PUBCHEM_SHAPE_VOLUME>
301.5

> <PUBCHEM_COORDINATE_TYPE>
2
5
10

$$$$
