7663919
  -OEChem-12032416133D

 67 69  0     1  0  0  0  0  0999 V2000
   -3.1979   -0.1990    1.0544 O   0  0  0  0  0  0  0  0  0  0  0  0
    3.4525   -2.5413   -0.9958 O   0  0  0  0  0  0  0  0  0  0  0  0
   -0.5078    0.4965   -1.4217 O   0  0  0  0  0  0  0  0  0  0  0  0
   -0.6139    5.5486   -0.5629 O   0  0  0  0  0  0  0  0  0  0  0  0
   -1.0238    4.3861    1.3776 O   0  0  0  0  0  0  0  0  0  0  0  0
   -1.3016   -1.3524    0.3545 N   0  0  0  0  0  0  0  0  0  0  0  0
    1.5923   -1.6462    0.0711 N   0  0  0  0  0  0  0  0  0  0  0  0
    6.4327   -0.4958   -0.3837 N   0  0  0  0  0  0  0  0  0  0  0  0
   -0.1554    2.0212    0.3017 N   0  0  0  0  0  0  0  0  0  0  0  0
   -3.5389   -2.3759    0.1914 C   0  0  0  0  0  0  0  0  0  0  0  0
   -0.3920   -0.3060    0.8264 C   0  0  1  0  0  0  0  0  0  0  0  0
   -3.9267   -2.2788   -1.2855 C   0  0  0  0  0  0  0  0  0  0  0  0
   -4.7527   -2.4907    1.1158 C   0  0  0  0  0  0  0  0  0  0  0  0
    1.0133   -0.8193    1.1379 C   0  0  0  0  0  0  0  0  0  0  0  0
   -0.6942   -2.5610   -0.2147 C   0  0  0  0  0  0  0  0  0  0  0  0
   -2.6760   -1.2095    0.5769 C   0  0  0  0  0  0  0  0  0  0  0  0
    0.6606   -2.2909   -0.8525 C   0  0  0  0  0  0  0  0  0  0  0  0
    3.8673   -1.1518    0.8773 C   0  0  0  0  0  0  0  0  0  0  0  0
   -5.0153   -1.2403   -1.5515 C   0  0  0  0  0  0  0  0  0  0  0  0
   -5.8440   -1.4633    0.8169 C   0  0  0  0  0  0  0  0  0  0  0  0
   -6.2306   -1.4573   -0.6575 C   0  0  0  0  0  0  0  0  0  0  0  0
    2.9633   -1.8462   -0.1022 C   0  0  0  0  0  0  0  0  0  0  0  0
    5.1370   -1.9698    1.1219 C   0  0  0  0  0  0  0  0  0  0  0  0
    4.2100    0.2596    0.3960 C   0  0  0  0  0  0  0  0  0  0  0  0
   -0.3688    0.7612   -0.2304 C   0  0  0  0  0  0  0  0  0  0  0  0
    6.1165   -1.8841   -0.0499 C   0  0  0  0  0  0  0  0  0  0  0  0
    5.2286    0.2516   -0.7451 C   0  0  0  0  0  0  0  0  0  0  0  0
   -0.0676    3.2161   -0.5064 C   0  0  2  0  0  0  0  0  0  0  0  0
    1.3724    3.4647   -0.9275 C   0  0  0  0  0  0  0  0  0  0  0  0
   -0.6247    4.4323    0.2183 C   0  0  0  0  0  0  0  0  0  0  0  0
   -1.1145    6.7417    0.0493 C   0  0  0  0  0  0  0  0  0  0  0  0
   -2.9772   -3.3022    0.3517 H   0  0  0  0  0  0  0  0  0  0  0  0
   -0.8193    0.1217    1.7427 H   0  0  0  0  0  0  0  0  0  0  0  0
   -3.0632   -2.0379   -1.9153 H   0  0  0  0  0  0  0  0  0  0  0  0
   -4.2925   -3.2593   -1.6166 H   0  0  0  0  0  0  0  0  0  0  0  0
   -5.1853   -3.4934    1.0003 H   0  0  0  0  0  0  0  0  0  0  0  0
   -4.4496   -2.4023    2.1663 H   0  0  0  0  0  0  0  0  0  0  0  0
    1.6614    0.0278    1.3715 H   0  0  0  0  0  0  0  0  0  0  0  0
    0.9762   -1.4611    2.0271 H   0  0  0  0  0  0  0  0  0  0  0  0
   -1.3420   -3.0186   -0.9637 H   0  0  0  0  0  0  0  0  0  0  0  0
   -0.5840   -3.2740    0.6117 H   0  0  0  0  0  0  0  0  0  0  0  0
    1.0935   -3.2358   -1.2008 H   0  0  0  0  0  0  0  0  0  0  0  0
    0.5712   -1.6495   -1.7343 H   0  0  0  0  0  0  0  0  0  0  0  0
    3.3704   -1.0944    1.8511 H   0  0  0  0  0  0  0  0  0  0  0  0
   -4.6152   -0.2320   -1.3905 H   0  0  0  0  0  0  0  0  0  0  0  0
   -5.3206   -1.2933   -2.6029 H   0  0  0  0  0  0  0  0  0  0  0  0
   -6.7301   -1.7027    1.4173 H   0  0  0  0  0  0  0  0  0  0  0  0
   -5.5414   -0.4573    1.1225 H   0  0  0  0  0  0  0  0  0  0  0  0
   -6.9703   -0.6701   -0.8417 H   0  0  0  0  0  0  0  0  0  0  0  0
   -6.7086   -2.4106   -0.9148 H   0  0  0  0  0  0  0  0  0  0  0  0
    5.6338   -1.5925    2.0258 H   0  0  0  0  0  0  0  0  0  0  0  0
    4.8909   -3.0212    1.3148 H   0  0  0  0  0  0  0  0  0  0  0  0
    3.3156    0.7963    0.0601 H   0  0  0  0  0  0  0  0  0  0  0  0
    4.6234    0.8306    1.2377 H   0  0  0  0  0  0  0  0  0  0  0  0
    7.0474   -2.3816    0.2468 H   0  0  0  0  0  0  0  0  0  0  0  0
    5.7662   -2.4189   -0.9370 H   0  0  0  0  0  0  0  0  0  0  0  0
    4.7843   -0.1624   -1.6581 H   0  0  0  0  0  0  0  0  0  0  0  0
    5.5124    1.2849   -0.9739 H   0  0  0  0  0  0  0  0  0  0  0  0
    7.0880   -0.4778   -1.1646 H   0  0  0  0  0  0  0  0  0  0  0  0
   -0.0242    2.1203    1.3044 H   0  0  0  0  0  0  0  0  0  0  0  0
   -0.6879    3.0617   -1.3975 H   0  0  0  0  0  0  0  0  0  0  0  0
    1.4542    4.3323   -1.5904 H   0  0  0  0  0  0  0  0  0  0  0  0
    1.7824    2.5982   -1.4582 H   0  0  0  0  0  0  0  0  0  0  0  0
    2.0111    3.6516   -0.0565 H   0  0  0  0  0  0  0  0  0  0  0  0
   -2.1626    6.6099    0.3346 H   0  0  0  0  0  0  0  0  0  0  0  0
   -0.5061    7.0043    0.9199 H   0  0  0  0  0  0  0  0  0  0  0  0
   -1.0490    7.5519   -0.6817 H   0  0  0  0  0  0  0  0  0  0  0  0
  1 16  2  0  0  0  0
  2 22  2  0  0  0  0
  3 25  2  0  0  0  0
  4 30  1  0  0  0  0
  4 31  1  0  0  0  0
  5 30  2  0  0  0  0
  6 11  1  0  0  0  0
  6 15  1  0  0  0  0
  6 16  1  0  0  0  0
  7 14  1  0  0  0  0
  7 17  1  0  0  0  0
  7 22  1  0  0  0  0
  8 26  1  0  0  0  0
  8 27  1  0  0  0  0
  8 59  1  0  0  0  0
  9 25  1  0  0  0  0
  9 28  1  0  0  0  0
  9 60  1  0  0  0  0
 10 12  1  0  0  0  0
 10 13  1  0  0  0  0
 10 16  1  0  0  0  0
 10 32  1  0  0  0  0
 11 14  1  0  0  0  0
 11 25  1  0  0  0  0
 11 33  1  0  0  0  0
 12 19  1  0  0  0  0
 12 34  1  0  0  0  0
 12 35  1  0  0  0  0
 13 20  1  0  0  0  0
 13 36  1  0  0  0  0
 13 37  1  0  0  0  0
 14 38  1  0  0  0  0
 14 39  1  0  0  0  0
 15 17  1  0  0  0  0
 15 40  1  0  0  0  0
 15 41  1  0  0  0  0
 17 42  1  0  0  0  0
 17 43  1  0  0  0  0
 18 22  1  0  0  0  0
 18 23  1  0  0  0  0
 18 24  1  0  0  0  0
 18 44  1  0  0  0  0
 19 21  1  0  0  0  0
 19 45  1  0  0  0  0
 19 46  1  0  0  0  0
 20 21  1  0  0  0  0
 20 47  1  0  0  0  0
 20 48  1  0  0  0  0
 21 49  1  0  0  0  0
 21 50  1  0  0  0  0
 23 26  1  0  0  0  0
 23 51  1  0  0  0  0
 23 52  1  0  0  0  0
 24 27  1  0  0  0  0
 24 53  1  0  0  0  0
 24 54  1  0  0  0  0
 26 55  1  0  0  0  0
 26 56  1  0  0  0  0
 27 57  1  0  0  0  0
 27 58  1  0  0  0  0
 28 29  1  0  0  0  0
 28 30  1  0  0  0  0
 28 61  1  0  0  0  0
 29 62  1  0  0  0  0
 29 63  1  0  0  0  0
 29 64  1  0  0  0  0
 31 65  1  0  0  0  0
 31 66  1  0  0  0  0
 31 67  1  0  0  0  0
M  END
> <PUBCHEM_COMPOUND_CID>
7663919

> <PUBCHEM_CONFORMER_RMSD>
1.2

> <PUBCHEM_CONFORMER_DIVERSEORDER>
1
94
7
80
103
73
64
18
27
63
77
44
108
88
26
76
61
72
96
40
98
58
81
66
57
97
48
45
99
79
49
78
59
91
2
31
74
5
62
15
54
104
36
13
60
68
32
100
71
22
92
38
90
6
25
55
70
107
10
30
89
67
16
87
23
51
65
11
53
105
12
34
41
56
52
101
24
9
21
46
37
17
4
69
85
95
29
3
14
75
82
19
39
102
33
43
28
86
50
42
93
8
83
20
84
47
106
35

> <PUBCHEM_MMFF94_PARTIAL_CHARGES>
25
1 -0.57
10 0.06
11 0.36
14 0.3
15 0.3
16 0.57
17 0.3
18 0.06
2 -0.57
22 0.57
25 0.57
26 0.27
27 0.27
28 0.36
3 -0.57
30 0.66
31 0.28
4 -0.43
5 -0.57
59 0.36
6 -0.66
60 0.37
7 -0.66
8 -0.9
9 -0.73

> <PUBCHEM_EFFECTIVE_ROTOR_COUNT>
12.6

> <PUBCHEM_PHARMACOPHORE_FEATURES>
10
1 1 acceptor
1 2 acceptor
1 3 acceptor
1 5 acceptor
1 8 cation
1 8 donor
1 9 donor
6 10 12 13 19 20 21 rings
6 6 7 11 14 15 17 rings
6 8 18 23 24 26 27 rings

> <PUBCHEM_HEAVY_ATOM_COUNT>
31

> <PUBCHEM_ATOM_DEF_STEREO_COUNT>
2

> <PUBCHEM_ATOM_UDEF_STEREO_COUNT>
0

> <PUBCHEM_BOND_DEF_STEREO_COUNT>
0

> <PUBCHEM_BOND_UDEF_STEREO_COUNT>
0

> <PUBCHEM_ISOTOPIC_ATOM_COUNT>
0

> <PUBCHEM_COMPONENT_COUNT>
1

> <PUBCHEM_CACTVS_TAUTO_COUNT>
2

> <PUBCHEM_CONFORMER_ID>
0074F12F00000001

> <PUBCHEM_MMFF94_ENERGY>
59.6492

> <PUBCHEM_FEATURE_SELFOVERLAP>
50.747

> <PUBCHEM_SHAPE_FINGERPRINT>
102385 1 17834956373589161318
10940486 97 17987793154669676191
11578080 2 12173975786180439635
12166972 35 18128812126902697059
12516196 113 18409445920618703307
12788726 201 18261385616482543634
13134695 92 18336825407071491623
13590594 115 18409731772857808489
13692114 37 17474092212625708169
14068700 675 18059849606509416875
14294032 229 18196945361718855536
14347332 77 18265895762078312274
14840074 17 18059574736628399214
14849402 71 18193848269749788371
14955137 171 18337961215267646979
15081414 286 18266175226255350633
15198563 99 18339364058765661148
15419008 47 17894624881664459527
15439362 3 18049155872155288345
16087824 20 18266458703837327441
17980427 23 18130519595372017683
17980427 26 17692811910172103389
1813 80 18271817816976820319
18681886 176 18341043133728940227
19319366 153 16828948206829425345
19427546 62 17257933693587007673
20238998 120 18411134745125667457
21120745 212 18337957796468638216
21304303 172 18342177718259582657
21641784 216 18340221729696290516
23558518 356 17973450905847924114
23559900 14 18195521717578130971
23576562 1 18196643215460273167
23845131 108 17472416552188341881
23929065 36 18123162664064521800
24771293 8 18129091406897431368
24771750 20 17612604726973926157
249057 25 17822301120604671702
283562 15 18261672554441337794
345986 75 18114165429070668874
3534868 343 18334020463094822662
3886686 26 17181902495155779898
4015057 19 18190459544516564987
4353968 344 18340772538679675278
5171179 24 18266721649781473413
5283173 99 17968084279612703863
5969126 39 18339919329686522766
6442390 28 17401208871932601761
9658208 31 17692538806117845766
9777508 108 17979074877500498112

> <PUBCHEM_SHAPE_MULTIPOLES>
588.69
12.68
7.03
1.23
2.43
20.28
-0.06
-14.81
-0.59
-1.77
-0.02
-0.64
-0.24
-0.51

> <PUBCHEM_SHAPE_SELFOVERLAP>
1209.792

> <PUBCHEM_SHAPE_VOLUME>
330.9

> <PUBCHEM_COORDINATE_TYPE>
2
5
10

$$$$
