75366993
  -OEChem-12032416403D

 61 63  0     1  0  0  0  0  0999 V2000
    2.8042   -1.1226    0.7494 O   0  0  0  0  0  0  0  0  0  0  0  0
    5.6722   -0.4708    0.5545 O   0  0  0  0  0  0  0  0  0  0  0  0
   -1.2163   -2.9107    1.3695 O   0  0  0  0  0  0  0  0  0  0  0  0
    2.8655    2.5904    0.5678 N   0  0  0  0  0  0  0  0  0  0  0  0
    0.1721   -2.9571    1.3332 N   0  0  0  0  0  0  0  0  0  0  0  0
   -3.6594   -1.5222   -0.4292 N   0  0  2  0  0  0  0  0  0  0  0  0
    3.3667    0.1956    0.7840 C   0  0  1  0  0  0  0  0  0  0  0  0
    4.6342    0.2846   -0.0757 C   0  0  2  0  0  0  0  0  0  0  0  0
    2.5130   -1.6254   -0.5569 C   0  0  1  0  0  0  0  0  0  0  0  0
    4.4281   -0.2860   -1.4762 C   0  0  0  0  0  0  0  0  0  0  0  0
    3.7776   -1.6650   -1.4135 C   0  0  0  0  0  0  0  0  0  0  0  0
    2.3230    1.2490    0.4184 C   0  0  0  0  0  0  0  0  0  0  0  0
    1.9268   -3.0221   -0.3901 C   0  0  0  0  0  0  0  0  0  0  0  0
    0.4834   -2.9740    0.0340 C   0  0  0  0  0  0  0  0  0  0  0  0
    1.8750    3.5977    0.2099 C   0  0  0  0  0  0  0  0  0  0  0  0
   -0.6560   -2.9403   -0.7884 C   0  0  0  0  0  0  0  0  0  0  0  0
    1.7909    3.7414   -1.3071 C   0  0  0  0  0  0  0  0  0  0  0  0
    2.2405    4.9251    0.8667 C   0  0  0  0  0  0  0  0  0  0  0  0
   -1.6978   -2.9012    0.1002 C   0  0  0  0  0  0  0  0  0  0  0  0
   -3.1574   -2.8532   -0.0466 C   0  0  0  0  0  0  0  0  0  0  0  0
   -3.6717   -0.6390    0.7318 C   0  0  0  0  0  0  0  0  0  0  0  0
   -4.9933   -1.6378   -1.0084 C   0  0  0  0  0  0  0  0  0  0  0  0
   -3.6534    0.8125    0.3321 C   0  0  0  0  0  0  0  0  0  0  0  0
   -2.4375    1.4755    0.1672 C   0  0  0  0  0  0  0  0  0  0  0  0
   -4.8529    1.4941    0.1270 C   0  0  0  0  0  0  0  0  0  0  0  0
   -2.4208    2.8205   -0.2029 C   0  0  0  0  0  0  0  0  0  0  0  0
   -4.8364    2.8389   -0.2429 C   0  0  0  0  0  0  0  0  0  0  0  0
   -3.6204    3.5020   -0.4079 C   0  0  0  0  0  0  0  0  0  0  0  0
    3.6542    0.3480    1.8325 H   0  0  0  0  0  0  0  0  0  0  0  0
    5.0036    1.3130   -0.1407 H   0  0  0  0  0  0  0  0  0  0  0  0
    1.7697   -0.9812   -1.0407 H   0  0  0  0  0  0  0  0  0  0  0  0
    5.3856   -0.3687   -2.0037 H   0  0  0  0  0  0  0  0  0  0  0  0
    3.7918    0.3886   -2.0610 H   0  0  0  0  0  0  0  0  0  0  0  0
    3.5465   -2.0122   -2.4269 H   0  0  0  0  0  0  0  0  0  0  0  0
    4.4952   -2.3741   -0.9815 H   0  0  0  0  0  0  0  0  0  0  0  0
    1.9746    1.0885   -0.6051 H   0  0  0  0  0  0  0  0  0  0  0  0
    1.4463    1.1091    1.0644 H   0  0  0  0  0  0  0  0  0  0  0  0
    2.5014   -3.5989    0.3461 H   0  0  0  0  0  0  0  0  0  0  0  0
    1.9761   -3.5701   -1.3398 H   0  0  0  0  0  0  0  0  0  0  0  0
    3.1589    2.7187    1.5362 H   0  0  0  0  0  0  0  0  0  0  0  0
    6.4768   -0.3708    0.0177 H   0  0  0  0  0  0  0  0  0  0  0  0
    0.8871    3.3188    0.5980 H   0  0  0  0  0  0  0  0  0  0  0  0
   -0.7132   -2.9425   -1.8668 H   0  0  0  0  0  0  0  0  0  0  0  0
    1.1043    4.5518   -1.5766 H   0  0  0  0  0  0  0  0  0  0  0  0
    1.4169    2.8332   -1.7894 H   0  0  0  0  0  0  0  0  0  0  0  0
    2.7686    3.9789   -1.7416 H   0  0  0  0  0  0  0  0  0  0  0  0
    2.2654    4.8333    1.9584 H   0  0  0  0  0  0  0  0  0  0  0  0
    1.5027    5.6958    0.6179 H   0  0  0  0  0  0  0  0  0  0  0  0
    3.2220    5.2816    0.5339 H   0  0  0  0  0  0  0  0  0  0  0  0
   -3.4101   -3.5783   -0.8328 H   0  0  0  0  0  0  0  0  0  0  0  0
   -3.6580   -3.2159    0.8613 H   0  0  0  0  0  0  0  0  0  0  0  0
   -2.7905   -0.7951    1.3678 H   0  0  0  0  0  0  0  0  0  0  0  0
   -4.5261   -0.8413    1.3931 H   0  0  0  0  0  0  0  0  0  0  0  0
   -4.9844   -2.3305   -1.8586 H   0  0  0  0  0  0  0  0  0  0  0  0
   -5.3426   -0.6868   -1.4201 H   0  0  0  0  0  0  0  0  0  0  0  0
   -5.7336   -2.0027   -0.2870 H   0  0  0  0  0  0  0  0  0  0  0  0
   -1.4951    0.9558    0.3208 H   0  0  0  0  0  0  0  0  0  0  0  0
   -5.8088    0.9957    0.2637 H   0  0  0  0  0  0  0  0  0  0  0  0
   -1.4749    3.3370   -0.3340 H   0  0  0  0  0  0  0  0  0  0  0  0
   -5.7704    3.3705   -0.4000 H   0  0  0  0  0  0  0  0  0  0  0  0
   -3.6075    4.5491   -0.6960 H   0  0  0  0  0  0  0  0  0  0  0  0
  1  7  1  0  0  0  0
  1  9  1  0  0  0  0
  2  8  1  0  0  0  0
  2 41  1  0  0  0  0
  3  5  1  0  0  0  0
  3 19  1  0  0  0  0
  4 12  1  0  0  0  0
  4 15  1  0  0  0  0
  4 40  1  0  0  0  0
  5 14  2  0  0  0  0
  6 20  1  0  0  0  0
  6 21  1  0  0  0  0
  6 22  1  0  0  0  0
  7  8  1  0  0  0  0
  7 12  1  0  0  0  0
  7 29  1  0  0  0  0
  8 10  1  0  0  0  0
  8 30  1  0  0  0  0
  9 11  1  0  0  0  0
  9 13  1  0  0  0  0
  9 31  1  0  0  0  0
 10 11  1  0  0  0  0
 10 32  1  0  0  0  0
 10 33  1  0  0  0  0
 11 34  1  0  0  0  0
 11 35  1  0  0  0  0
 12 36  1  0  0  0  0
 12 37  1  0  0  0  0
 13 14  1  0  0  0  0
 13 38  1  0  0  0  0
 13 39  1  0  0  0  0
 14 16  1  0  0  0  0
 15 17  1  0  0  0  0
 15 18  1  0  0  0  0
 15 42  1  0  0  0  0
 16 19  2  0  0  0  0
 16 43  1  0  0  0  0
 17 44  1  0  0  0  0
 17 45  1  0  0  0  0
 17 46  1  0  0  0  0
 18 47  1  0  0  0  0
 18 48  1  0  0  0  0
 18 49  1  0  0  0  0
 19 20  1  0  0  0  0
 20 50  1  0  0  0  0
 20 51  1  0  0  0  0
 21 23  1  0  0  0  0
 21 52  1  0  0  0  0
 21 53  1  0  0  0  0
 22 54  1  0  0  0  0
 22 55  1  0  0  0  0
 22 56  1  0  0  0  0
 23 24  2  0  0  0  0
 23 25  1  0  0  0  0
 24 26  1  0  0  0  0
 24 57  1  0  0  0  0
 25 27  2  0  0  0  0
 25 58  1  0  0  0  0
 26 28  2  0  0  0  0
 26 59  1  0  0  0  0
 27 28  1  0  0  0  0
 27 60  1  0  0  0  0
 28 61  1  0  0  0  0
M  END
> <PUBCHEM_COMPOUND_CID>
75366993

> <PUBCHEM_CONFORMER_RMSD>
1.2

> <PUBCHEM_CONFORMER_DIVERSEORDER>
1
118
72
8
108
39
130
53
35
101
18
59
48
95
69
119
2
79
111
112
87
58
120
56
131
106
113
49
116
67
27
12
127
78
137
52
43
89
140
47
62
94
133
103
132
145
22
3
138
54
105
144
75
16
125
129
60
99
66
41
142
13
124
15
11
107
86
93
136
17
141
31
135
33
84
81
143
71
29
10
122
139
23
51
63
55
104
28
61
73
96
121
7
21
30
70
97
90
50
83
115
36
26
64
68
126
100
14
80
45
102
40
42
19
85
25
110
5
76
38
44
92
37
77
74
117
88
91
98
123
46
32
6
65
4
57
82
9
34
20
109
114
128
134
24

> <PUBCHEM_MMFF94_PARTIAL_CHARGES>
32
1 -0.56
12 0.27
13 0.18
14 0.11
15 0.27
16 -0.15
19 -0.04
2 -0.68
20 0.45
21 0.41
22 0.27
23 -0.14
24 -0.15
25 -0.15
26 -0.15
27 -0.15
28 -0.15
3 -0.02
4 -0.9
40 0.36
41 0.4
43 0.15
5 -0.41
57 0.15
58 0.15
59 0.15
6 -0.81
60 0.15
61 0.15
7 0.28
8 0.28
9 0.28

> <PUBCHEM_EFFECTIVE_ROTOR_COUNT>
10.2

> <PUBCHEM_PHARMACOPHORE_FEATURES>
11
1 1 acceptor
1 2 acceptor
1 2 donor
1 4 cation
1 4 donor
1 5 acceptor
1 6 cation
3 15 17 18 hydrophobe
5 3 5 14 16 19 rings
6 1 7 8 9 10 11 rings
6 23 24 25 26 27 28 rings

> <PUBCHEM_HEAVY_ATOM_COUNT>
28

> <PUBCHEM_ATOM_DEF_STEREO_COUNT>
3

> <PUBCHEM_ATOM_UDEF_STEREO_COUNT>
0

> <PUBCHEM_BOND_DEF_STEREO_COUNT>
0

> <PUBCHEM_BOND_UDEF_STEREO_COUNT>
0

> <PUBCHEM_ISOTOPIC_ATOM_COUNT>
0

> <PUBCHEM_COMPONENT_COUNT>
1

> <PUBCHEM_CACTVS_TAUTO_COUNT>
1

> <PUBCHEM_CONFORMER_ID>
047E025100000001

> <PUBCHEM_MMFF94_ENERGY>
47.5933

> <PUBCHEM_FEATURE_SELFOVERLAP>
55.822

> <PUBCHEM_SHAPE_FINGERPRINT>
10439779 11 18338503201770397018
10670039 82 18335991904106355542
10864689 126 18123473769926038492
11273773 38 18335430032047508404
11513181 2 17984711279226407310
12038231 1 18122343480351440481
12925494 130 17906455429586354217
12978246 48 18410014325512477873
13122387 1 18410573972367022901
13402501 40 18337956662422718092
1361 2 18193832648959611457
14117953 113 17906725908591218173
14251764 38 18339922748137469015
14466204 15 18410849971920106858
14725015 67 18337100271951141723
15320467 1 18339359643787128409
15961568 22 17618502528962518730
17093844 170 18268147553132381032
17977149 70 18339366241041050180
19930381 70 17689150115824440273
20398071 114 18410571782134012657
20764821 26 18409454699579160245
23227448 37 18341046299420062831
23559900 14 18340760477715344209
25265897 201 17700999668605998247
325973 47 18267021833208554509
3298306 158 18192428576620916429
338550 245 18408327708776920437
3388396 114 17622147388449565845
463206 1 18266743480477765773
5048184 11 18265337213927415751
5081480 168 17199138550642542031
508706 21 18411138039112284887
53794403 172 18337114561502884373
5776283 40 18265634241339986468
6371009 1 18267004206477837103
6433294 58 18052819431650373273
9543594 6 18337674242690709820

> <PUBCHEM_SHAPE_MULTIPOLES>
543.68
11.08
6.6
1.13
1.68
4.43
0.12
2.67
1.4
0.65
-0.22
-0.65
-0.19
0.78

> <PUBCHEM_SHAPE_SELFOVERLAP>
1120.976

> <PUBCHEM_SHAPE_VOLUME>
313.9

> <PUBCHEM_COORDINATE_TYPE>
2
5
10

$$$$
