75536989
  -OEChem-12032416303D

 43 45  0     1  0  0  0  0  0999 V2000
    5.8161   -2.2453    1.6773 F   0  0  0  0  0  0  0  0  0  0  0  0
    1.2494    2.9162    0.1337 O   0  0  0  0  0  0  0  0  0  0  0  0
   -5.1288    0.3883    1.3056 O   0  0  0  0  0  0  0  0  0  0  0  0
   -6.0461   -1.5137   -0.0868 O   0  0  0  0  0  0  0  0  0  0  0  0
   -0.6666    1.5795   -0.1148 N   0  0  0  0  0  0  0  0  0  0  0  0
    1.2050    0.9717   -1.1995 N   0  0  0  0  0  0  0  0  0  0  0  0
   -2.9073    0.1328    0.6790 N   0  0  0  0  0  0  0  0  0  0  0  0
   -1.0638    0.4356   -0.9168 C   0  0  1  0  0  0  0  0  0  0  0  0
    0.2552   -0.0918   -1.4761 C   0  0  0  0  0  0  0  0  0  0  0  0
   -1.8436   -0.5651   -0.0678 C   0  0  0  0  0  0  0  0  0  0  0  0
   -1.6505    2.2596    0.7079 C   0  0  0  0  0  0  0  0  0  0  0  0
   -2.4377    1.2391    1.5267 C   0  0  0  0  0  0  0  0  0  0  0  0
    0.6677    1.9473   -0.3366 C   0  0  0  0  0  0  0  0  0  0  0  0
    2.5727    0.9173   -1.6665 C   0  0  0  0  0  0  0  0  0  0  0  0
   -4.2613   -0.1960    0.6517 C   0  0  0  0  0  0  0  0  0  0  0  0
    3.4376    0.0739   -0.7750 C   0  0  0  0  0  0  0  0  0  0  0  0
   -4.6589   -1.3405   -0.2457 C   0  0  0  0  0  0  0  0  0  0  0  0
    4.1045    0.6561    0.3030 C   0  0  0  0  0  0  0  0  0  0  0  0
    3.5742   -1.2917   -1.0244 C   0  0  0  0  0  0  0  0  0  0  0  0
    4.9082   -0.1271    1.1314 C   0  0  0  0  0  0  0  0  0  0  0  0
    4.3780   -2.0750   -0.1961 C   0  0  0  0  0  0  0  0  0  0  0  0
    5.0450   -1.4927    0.8818 C   0  0  0  0  0  0  0  0  0  0  0  0
   -6.5490   -2.5784   -0.8919 C   0  0  0  0  0  0  0  0  0  0  0  0
   -1.6962    0.8226   -1.7261 H   0  0  0  0  0  0  0  0  0  0  0  0
    0.5883   -1.0024   -0.9688 H   0  0  0  0  0  0  0  0  0  0  0  0
    0.1994   -0.2731   -2.5537 H   0  0  0  0  0  0  0  0  0  0  0  0
   -1.1949   -1.0312    0.6842 H   0  0  0  0  0  0  0  0  0  0  0  0
   -2.2343   -1.3640   -0.7005 H   0  0  0  0  0  0  0  0  0  0  0  0
   -2.3182    2.7986    0.0263 H   0  0  0  0  0  0  0  0  0  0  0  0
   -1.1547    2.9920    1.3522 H   0  0  0  0  0  0  0  0  0  0  0  0
   -1.7958    0.7955    2.2974 H   0  0  0  0  0  0  0  0  0  0  0  0
   -3.2734    1.7302    2.0344 H   0  0  0  0  0  0  0  0  0  0  0  0
    2.9693    1.9394   -1.6981 H   0  0  0  0  0  0  0  0  0  0  0  0
    2.5805    0.5436   -2.6969 H   0  0  0  0  0  0  0  0  0  0  0  0
   -4.1339   -2.2495    0.0653 H   0  0  0  0  0  0  0  0  0  0  0  0
   -4.4268   -1.0866   -1.2851 H   0  0  0  0  0  0  0  0  0  0  0  0
    4.0064    1.7185    0.5091 H   0  0  0  0  0  0  0  0  0  0  0  0
    3.0604   -1.7573   -1.8612 H   0  0  0  0  0  0  0  0  0  0  0  0
    5.4273    0.3257    1.9709 H   0  0  0  0  0  0  0  0  0  0  0  0
    4.4848   -3.1382   -0.3900 H   0  0  0  0  0  0  0  0  0  0  0  0
   -7.6260   -2.6577   -0.7221 H   0  0  0  0  0  0  0  0  0  0  0  0
   -6.0776   -3.5247   -0.6098 H   0  0  0  0  0  0  0  0  0  0  0  0
   -6.3743   -2.3696   -1.9517 H   0  0  0  0  0  0  0  0  0  0  0  0
  1 22  1  0  0  0  0
  2 13  2  0  0  0  0
  3 15  2  0  0  0  0
  4 17  1  0  0  0  0
  4 23  1  0  0  0  0
  5  8  1  0  0  0  0
  5 11  1  0  0  0  0
  5 13  1  0  0  0  0
  6  9  1  0  0  0  0
  6 13  1  0  0  0  0
  6 14  1  0  0  0  0
  7 10  1  0  0  0  0
  7 12  1  0  0  0  0
  7 15  1  0  0  0  0
  8  9  1  0  0  0  0
  8 10  1  0  0  0  0
  8 24  1  0  0  0  0
  9 25  1  0  0  0  0
  9 26  1  0  0  0  0
 10 27  1  0  0  0  0
 10 28  1  0  0  0  0
 11 12  1  0  0  0  0
 11 29  1  0  0  0  0
 11 30  1  0  0  0  0
 12 31  1  0  0  0  0
 12 32  1  0  0  0  0
 14 16  1  0  0  0  0
 14 33  1  0  0  0  0
 14 34  1  0  0  0  0
 15 17  1  0  0  0  0
 16 18  2  0  0  0  0
 16 19  1  0  0  0  0
 17 35  1  0  0  0  0
 17 36  1  0  0  0  0
 18 20  1  0  0  0  0
 18 37  1  0  0  0  0
 19 21  2  0  0  0  0
 19 38  1  0  0  0  0
 20 22  2  0  0  0  0
 20 39  1  0  0  0  0
 21 22  1  0  0  0  0
 21 40  1  0  0  0  0
 23 41  1  0  0  0  0
 23 42  1  0  0  0  0
 23 43  1  0  0  0  0
M  END
> <PUBCHEM_COMPOUND_CID>
75536989

> <PUBCHEM_CONFORMER_RMSD>
0.8

> <PUBCHEM_CONFORMER_DIVERSEORDER>
1
48
9
47
17
54
56
63
42
24
86
67
83
76
41
85
12
84
77
34
62
73
65
30
52
71
57
69
51
35
79
74
4
68
78
14
8
27
31
49
36
55
13
58
11
38
70
23
37
53
26
75
39
32
16
45
81
44
7
21
33
50
20
29
6
28
25
22
3
40
61
18
15
5
60
59
66
80
19
46
2
64
10
82
43
72

> <PUBCHEM_MMFF94_PARTIAL_CHARGES>
27
1 -0.19
10 0.3
11 0.3
12 0.3
13 0.69
14 0.44
15 0.57
16 -0.14
17 0.34
18 -0.15
19 -0.15
2 -0.57
20 -0.15
21 -0.15
22 0.19
23 0.28
3 -0.57
37 0.15
38 0.15
39 0.15
4 -0.56
40 0.15
5 -0.66
6 -0.66
7 -0.66
8 0.3
9 0.3

> <PUBCHEM_EFFECTIVE_ROTOR_COUNT>
6.2

> <PUBCHEM_PHARMACOPHORE_FEATURES>
6
1 2 acceptor
1 3 acceptor
1 4 acceptor
5 5 6 8 9 13 rings
6 16 18 19 20 21 22 rings
6 5 7 8 10 11 12 rings

> <PUBCHEM_HEAVY_ATOM_COUNT>
23

> <PUBCHEM_ATOM_DEF_STEREO_COUNT>
1

> <PUBCHEM_ATOM_UDEF_STEREO_COUNT>
0

> <PUBCHEM_BOND_DEF_STEREO_COUNT>
0

> <PUBCHEM_BOND_UDEF_STEREO_COUNT>
0

> <PUBCHEM_ISOTOPIC_ATOM_COUNT>
0

> <PUBCHEM_COMPONENT_COUNT>
1

> <PUBCHEM_CACTVS_TAUTO_COUNT>
1

> <PUBCHEM_CONFORMER_ID>
04809A5D00000001

> <PUBCHEM_MMFF94_ENERGY>
52.8853

> <PUBCHEM_FEATURE_SELFOVERLAP>
30.562

> <PUBCHEM_SHAPE_FINGERPRINT>
10319926 262 17559401253945429254
10378564 45 13695858238449623070
10447042 23 18261392277913074302
10753850 27 18335984246675233091
11796584 16 17313103094228140723
12596602 18 17846500326805150290
12633257 1 17274809264949307970
12760667 363 18040716930947977163
12839892 36 17917998261056229711
12892183 10 17346037758257783656
12895836 83 8934706804160409194
12954195 1 15068889829375981551
13083527 12 18272655683576215725
13533116 47 18335140929292691176
13782708 43 17823423863425923171
13914758 101 18260544507931288885
14178342 30 17844266033209727585
1420 369 18335706018229470582
14251740 57 18130234778689523494
14251764 75 13181587045140967834
14848178 5 18040437698002236938
15163728 17 10159690326774727072
15183329 4 14996277003287842823
15188451 53 18411130320892504179
15210252 30 10807921670812447730
15342168 16 12823289087891389160
17349148 13 18334590031086048367
17857418 61 18411139177658368183
17862501 102 18342465841650287029
17959699 21 8214141850112190220
1813 80 17968387762318252924
18222031 100 18341624714922833452
18785283 64 15984529139390178923
193927 3 17749966461761420466
19784866 240 17530970142240246804
20028762 73 18411981347499412190
20567600 234 16343698893538266299
20621476 91 16845286190083653247
20645477 70 16588318206305629804
20775530 9 16591680302726847162
21033648 29 16128380315905775640
21315764 119 13118272647033203530
21637258 2 17967807228721021250
21728266 224 18342460339950077235
22061861 79 16877662392063180199
22079108 93 14261351362381921981
2215653 11 16081085995868589931
23559900 14 17129892476608944637
2838139 119 12175620646974549178
312425 54 17702956820240685819
3472631 163 9655567526583214914
3886686 26 17264419734280552546
439807 62 18192151723741783399
474 4 12391507568802085804
5104073 3 16701759141733484155
59682541 52 17240483658370158527
633830 44 8286197206519889792
6438161 24 18200588229206135823
76465 3 18409732872047507269
8988823 20 18337389456293999668
960060 61 15574724598967556270

> <PUBCHEM_SHAPE_MULTIPOLES>
433.5
14.3
2.61
1.45
8.83
0.09
-0.03
-13.06
-3.92
0.49
-0.16
-0.9
-0.04
-2.13

> <PUBCHEM_SHAPE_SELFOVERLAP>
913.036

> <PUBCHEM_SHAPE_VOLUME>
245.2

> <PUBCHEM_COORDINATE_TYPE>
2
5
10

$$$$
