26744640
  -OEChem-12032416183D

 56 57  0     1  0  0  0  0  0999 V2000
   -2.4473    0.1386   -0.9666 O   0  0  0  0  0  0  0  0  0  0  0  0
   -4.2174    2.2778    1.3118 O   0  0  0  0  0  0  0  0  0  0  0  0
   -5.0773   -0.2129    0.5212 O   0  0  0  0  0  0  0  0  0  0  0  0
    0.2736    0.9534   -1.9347 O   0  0  0  0  0  0  0  0  0  0  0  0
   -1.2187   -2.7302   -1.2482 O   0  0  0  0  0  0  0  0  0  0  0  0
    1.4448    1.3828    0.0236 N   0  0  0  0  0  0  0  0  0  0  0  0
   -0.6795    2.2424   -0.2555 N   0  0  0  0  0  0  0  0  0  0  0  0
    0.3728   -2.7627    0.4451 N   0  0  0  0  0  0  0  0  0  0  0  0
   -2.9519    1.4301   -0.5835 C   0  0  1  0  0  0  0  0  0  0  0  0
   -3.2573    1.3278    0.9015 C   0  0  2  0  0  0  0  0  0  0  0  0
   -3.7426   -0.1027    1.0138 C   0  0  2  0  0  0  0  0  0  0  0  0
   -2.8183   -0.8285    0.0423 C   0  0  2  0  0  0  0  0  0  0  0  0
    2.6438    0.6491   -0.3156 C   0  0  0  0  0  0  0  0  0  0  0  0
   -1.9257    2.4988   -0.9148 C   0  0  0  0  0  0  0  0  0  0  0  0
    3.6326    1.5339   -1.0823 C   0  0  0  0  0  0  0  0  0  0  0  0
    3.2925    0.0454    0.9346 C   0  0  0  0  0  0  0  0  0  0  0  0
   -1.5396   -1.3311    0.6986 C   0  0  0  0  0  0  0  0  0  0  0  0
    4.2859    2.5895   -0.1903 C   0  0  0  0  0  0  0  0  0  0  0  0
    3.9464    1.1036    1.8232 C   0  0  0  0  0  0  0  0  0  0  0  0
    4.9341    1.9636    1.0409 C   0  0  0  0  0  0  0  0  0  0  0  0
    0.3438    1.4768   -0.8235 C   0  0  0  0  0  0  0  0  0  0  0  0
   -0.8036   -2.3438   -0.1590 C   0  0  0  0  0  0  0  0  0  0  0  0
    1.2674   -3.7265   -0.1537 C   0  0  0  0  0  0  0  0  0  0  0  0
    1.9625   -4.5458    0.9260 C   0  0  0  0  0  0  0  0  0  0  0  0
    2.2790   -3.0294   -1.0549 C   0  0  0  0  0  0  0  0  0  0  0  0
   -3.8646    1.6245   -1.1604 H   0  0  0  0  0  0  0  0  0  0  0  0
   -2.3592    1.4524    1.5164 H   0  0  0  0  0  0  0  0  0  0  0  0
   -3.7316   -0.4867    2.0378 H   0  0  0  0  0  0  0  0  0  0  0  0
   -3.3452   -1.6443   -0.4656 H   0  0  0  0  0  0  0  0  0  0  0  0
    2.3406   -0.1651   -0.9811 H   0  0  0  0  0  0  0  0  0  0  0  0
   -2.2746    3.4876   -0.6006 H   0  0  0  0  0  0  0  0  0  0  0  0
   -1.7478    2.5215   -1.9956 H   0  0  0  0  0  0  0  0  0  0  0  0
    3.1339    2.0292   -1.9240 H   0  0  0  0  0  0  0  0  0  0  0  0
    4.4194    0.8993   -1.5099 H   0  0  0  0  0  0  0  0  0  0  0  0
    4.0652   -0.6702    0.6274 H   0  0  0  0  0  0  0  0  0  0  0  0
    2.5511   -0.5133    1.5181 H   0  0  0  0  0  0  0  0  0  0  0  0
   -1.7814   -1.8363    1.6419 H   0  0  0  0  0  0  0  0  0  0  0  0
   -0.8532   -0.5073    0.9195 H   0  0  0  0  0  0  0  0  0  0  0  0
    3.5348    3.3240    0.1248 H   0  0  0  0  0  0  0  0  0  0  0  0
    5.0420    3.1369   -0.7646 H   0  0  0  0  0  0  0  0  0  0  0  0
    4.4684    0.6108    2.6516 H   0  0  0  0  0  0  0  0  0  0  0  0
    3.1787    1.7433    2.2739 H   0  0  0  0  0  0  0  0  0  0  0  0
    5.7864    1.3472    0.7295 H   0  0  0  0  0  0  0  0  0  0  0  0
    5.3314    2.7521    1.6898 H   0  0  0  0  0  0  0  0  0  0  0  0
    1.4245    1.9132    0.8889 H   0  0  0  0  0  0  0  0  0  0  0  0
   -0.5283    2.6420    0.6656 H   0  0  0  0  0  0  0  0  0  0  0  0
   -4.4565    2.0726    2.2316 H   0  0  0  0  0  0  0  0  0  0  0  0
   -5.3339   -1.1489    0.5839 H   0  0  0  0  0  0  0  0  0  0  0  0
    0.6537   -2.3332    1.3222 H   0  0  0  0  0  0  0  0  0  0  0  0
    0.6675   -4.4047   -0.7726 H   0  0  0  0  0  0  0  0  0  0  0  0
    1.2283   -5.0610    1.5550 H   0  0  0  0  0  0  0  0  0  0  0  0
    2.5685   -3.9096    1.5809 H   0  0  0  0  0  0  0  0  0  0  0  0
    2.6187   -5.3016    0.4822 H   0  0  0  0  0  0  0  0  0  0  0  0
    1.7807   -2.4014   -1.8006 H   0  0  0  0  0  0  0  0  0  0  0  0
    2.9574   -2.4003   -0.4748 H   0  0  0  0  0  0  0  0  0  0  0  0
    2.8884   -3.7658   -1.5897 H   0  0  0  0  0  0  0  0  0  0  0  0
  1  9  1  0  0  0  0
  1 12  1  0  0  0  0
  2 10  1  0  0  0  0
  2 47  1  0  0  0  0
  3 11  1  0  0  0  0
  3 48  1  0  0  0  0
  4 21  2  0  0  0  0
  5 22  2  0  0  0  0
  6 13  1  0  0  0  0
  6 21  1  0  0  0  0
  6 45  1  0  0  0  0
  7 14  1  0  0  0  0
  7 21  1  0  0  0  0
  7 46  1  0  0  0  0
  8 22  1  0  0  0  0
  8 23  1  0  0  0  0
  8 49  1  0  0  0  0
  9 10  1  0  0  0  0
  9 14  1  0  0  0  0
  9 26  1  0  0  0  0
 10 11  1  0  0  0  0
 10 27  1  0  0  0  0
 11 12  1  0  0  0  0
 11 28  1  0  0  0  0
 12 17  1  0  0  0  0
 12 29  1  0  0  0  0
 13 15  1  0  0  0  0
 13 16  1  0  0  0  0
 13 30  1  0  0  0  0
 14 31  1  0  0  0  0
 14 32  1  0  0  0  0
 15 18  1  0  0  0  0
 15 33  1  0  0  0  0
 15 34  1  0  0  0  0
 16 19  1  0  0  0  0
 16 35  1  0  0  0  0
 16 36  1  0  0  0  0
 17 22  1  0  0  0  0
 17 37  1  0  0  0  0
 17 38  1  0  0  0  0
 18 20  1  0  0  0  0
 18 39  1  0  0  0  0
 18 40  1  0  0  0  0
 19 20  1  0  0  0  0
 19 41  1  0  0  0  0
 19 42  1  0  0  0  0
 20 43  1  0  0  0  0
 20 44  1  0  0  0  0
 23 24  1  0  0  0  0
 23 25  1  0  0  0  0
 23 50  1  0  0  0  0
 24 51  1  0  0  0  0
 24 52  1  0  0  0  0
 24 53  1  0  0  0  0
 25 54  1  0  0  0  0
 25 55  1  0  0  0  0
 25 56  1  0  0  0  0
M  END
> <PUBCHEM_COMPOUND_CID>
26744640

> <PUBCHEM_CONFORMER_RMSD>
1.2

> <PUBCHEM_CONFORMER_DIVERSEORDER>
3
22
90
77
43
19
84
34
23
80
5
68
67
75
8
37
24
42
69
56
82
44
96
55
81
31
78
58
32
87
45
47
48
1
28
93
73
92
94
21
39
18
79
76
86
70
20
15
63
41
30
49
38
54
72
95
51
17
61
62
88
59
16
65
57
60
91
89
36
26
74
83
40
14
35
2
12
33
52
64
66
50
7
71
6
46
85
97
11
9
27
25
4
29
53
13
10

> <PUBCHEM_MMFF94_PARTIAL_CHARGES>
23
1 -0.56
10 0.28
11 0.28
12 0.28
13 0.3
14 0.3
17 0.06
2 -0.68
21 0.69
22 0.57
23 0.3
3 -0.68
4 -0.57
45 0.37
46 0.37
47 0.4
48 0.4
49 0.37
5 -0.57
6 -0.73
7 -0.73
8 -0.73
9 0.28

> <PUBCHEM_EFFECTIVE_ROTOR_COUNT>
11.2

> <PUBCHEM_PHARMACOPHORE_FEATURES>
13
1 1 acceptor
1 2 acceptor
1 2 donor
1 3 acceptor
1 3 donor
1 4 acceptor
1 5 acceptor
1 6 donor
1 7 donor
1 8 donor
3 23 24 25 hydrophobe
5 1 9 10 11 12 rings
6 13 15 16 18 19 20 rings

> <PUBCHEM_HEAVY_ATOM_COUNT>
25

> <PUBCHEM_ATOM_DEF_STEREO_COUNT>
4

> <PUBCHEM_ATOM_UDEF_STEREO_COUNT>
0

> <PUBCHEM_BOND_DEF_STEREO_COUNT>
0

> <PUBCHEM_BOND_UDEF_STEREO_COUNT>
0

> <PUBCHEM_ISOTOPIC_ATOM_COUNT>
0

> <PUBCHEM_COMPONENT_COUNT>
1

> <PUBCHEM_CACTVS_TAUTO_COUNT>
6

> <PUBCHEM_CONFORMER_ID>
0198174000000003

> <PUBCHEM_MMFF94_ENERGY>
34.3789

> <PUBCHEM_FEATURE_SELFOVERLAP>
66.035

> <PUBCHEM_SHAPE_FINGERPRINT>
11370993 70 18342173414406706168
12422481 6 17974256895542863034
12596599 1 11818991859818692713
12788726 201 17692255548334549310
13140716 1 18050569844145096419
138480 1 17977386036420169994
14081887 123 17908971451012567392
14178342 30 18340772657719804119
14251757 5 17833010590906674116
14840074 17 17750240360221201180
15006816 218 18337389340313837294
16120349 306 18265318664021849722
20028762 73 17983022433983513015
22182313 1 17823980026993088389
23419403 2 17825661149927573351
23559900 14 18264213517397267052
23728640 28 18120657087017330290
5265222 85 18336842978447312244
58807428 26 18409733996938529171
602551 16 18268143352776107104
6287921 2 18199185096747859855
6438718 38 17913491513143861134
7064713 232 18338791316729740728
9862522 239 18187911881263675213

> <PUBCHEM_SHAPE_MULTIPOLES>
470.2
8.74
4.93
1.41
0.55
6.39
-0.02
-6.62
-3.33
2.92
0.14
0.42
-0.28
-0.01

> <PUBCHEM_SHAPE_SELFOVERLAP>
945.971

> <PUBCHEM_SHAPE_VOLUME>
274.6

> <PUBCHEM_COORDINATE_TYPE>
2
5
10

$$$$
