40777117
  -OEChem-12032416183D

 63 67  0     1  0  0  0  0  0999 V2000
    3.7742   -2.2547   -2.1729 Br  0  0  0  0  0  0  0  0  0  0  0  0
   -4.2097    1.5446   -2.0727 O   0  0  0  0  0  0  0  0  0  0  0  0
   -7.9505   -2.6921    0.7725 O   0  0  0  0  0  0  0  0  0  0  0  0
   -0.0343    3.0299   -0.9396 N   0  0  2  0  0  0  0  0  0  0  0  0
   -2.5896    0.2737   -1.0024 N   0  0  0  0  0  0  0  0  0  0  0  0
    1.8982    0.0107    1.8838 N   0  0  0  0  0  0  0  0  0  0  0  0
    3.7354   -1.4831    1.4356 N   0  0  0  0  0  0  0  0  0  0  0  0
    0.3595    2.4075    1.5585 C   0  0  2  0  0  0  0  0  0  0  0  0
    1.6449    2.1496    0.7247 C   0  0  2  0  0  0  0  0  0  0  0  0
   -1.1315    2.1510   -0.4557 C   0  0  2  0  0  0  0  0  0  0  0  0
   -0.8112    1.6051    0.9524 C   0  0  0  0  0  0  0  0  0  0  0  0
    0.0161    3.9038    1.3958 C   0  0  0  0  0  0  0  0  0  0  0  0
    1.2738    2.3488   -0.7727 C   0  0  0  0  0  0  0  0  0  0  0  0
   -0.0292    4.2532   -0.1020 C   0  0  0  0  0  0  0  0  0  0  0  0
   -1.4566    1.0277   -1.4425 C   0  0  0  0  0  0  0  0  0  0  0  0
    2.4083    0.8546    0.9630 C   0  0  0  0  0  0  0  0  0  0  0  0
    3.5614    0.6031    0.2478 C   0  0  0  0  0  0  0  0  0  0  0  0
    4.1892   -0.5934    0.5286 C   0  0  0  0  0  0  0  0  0  0  0  0
    2.6020   -1.1227    2.0672 C   0  0  0  0  0  0  0  0  0  0  0  0
   -3.8985    0.5959   -1.3573 C   0  0  0  0  0  0  0  0  0  0  0  0
    5.4048   -0.9745   -0.1501 C   0  0  0  0  0  0  0  0  0  0  0  0
    2.0702   -2.0804    3.0793 C   0  0  0  0  0  0  0  0  0  0  0  0
   -4.9663   -0.2711   -0.7963 C   0  0  0  0  0  0  0  0  0  0  0  0
    5.3910   -1.7015   -1.3403 C   0  0  0  0  0  0  0  0  0  0  0  0
    6.6193   -0.5929    0.4202 C   0  0  0  0  0  0  0  0  0  0  0  0
   -6.2496    0.2405   -0.6028 C   0  0  0  0  0  0  0  0  0  0  0  0
   -4.6861   -1.5961   -0.4626 C   0  0  0  0  0  0  0  0  0  0  0  0
    6.5917   -2.0471   -1.9604 C   0  0  0  0  0  0  0  0  0  0  0  0
    7.8200   -0.9385   -0.1999 C   0  0  0  0  0  0  0  0  0  0  0  0
   -7.2526   -0.5730   -0.0757 C   0  0  0  0  0  0  0  0  0  0  0  0
   -5.6890   -2.4096    0.0645 C   0  0  0  0  0  0  0  0  0  0  0  0
    7.8063   -1.6655   -1.3902 C   0  0  0  0  0  0  0  0  0  0  0  0
   -6.9722   -1.8981    0.2580 C   0  0  0  0  0  0  0  0  0  0  0  0
   -9.2397   -2.1051    0.9445 C   0  0  0  0  0  0  0  0  0  0  0  0
    0.4989    2.1602    2.6162 H   0  0  0  0  0  0  0  0  0  0  0  0
    2.3572    2.9423    1.0019 H   0  0  0  0  0  0  0  0  0  0  0  0
   -2.0403    2.7665   -0.3803 H   0  0  0  0  0  0  0  0  0  0  0  0
   -0.5564    0.5398    0.9263 H   0  0  0  0  0  0  0  0  0  0  0  0
   -1.6966    1.7063    1.5924 H   0  0  0  0  0  0  0  0  0  0  0  0
    0.7647    4.5255    1.9005 H   0  0  0  0  0  0  0  0  0  0  0  0
   -0.9526    4.1171    1.8641 H   0  0  0  0  0  0  0  0  0  0  0  0
    2.0514    2.9535   -1.2586 H   0  0  0  0  0  0  0  0  0  0  0  0
    1.2720    1.4004   -1.3224 H   0  0  0  0  0  0  0  0  0  0  0  0
   -0.9186    4.8583   -0.3167 H   0  0  0  0  0  0  0  0  0  0  0  0
    0.8272    4.8845   -0.3714 H   0  0  0  0  0  0  0  0  0  0  0  0
   -0.6286    0.3190   -1.5445 H   0  0  0  0  0  0  0  0  0  0  0  0
   -1.6652    1.4430   -2.4354 H   0  0  0  0  0  0  0  0  0  0  0  0
   -2.4076   -0.4875   -0.3573 H   0  0  0  0  0  0  0  0  0  0  0  0
    3.9524    1.3023   -0.4818 H   0  0  0  0  0  0  0  0  0  0  0  0
    2.5588   -1.9083    4.0428 H   0  0  0  0  0  0  0  0  0  0  0  0
    0.9904   -1.9549    3.2065 H   0  0  0  0  0  0  0  0  0  0  0  0
    2.2574   -3.1132    2.7692 H   0  0  0  0  0  0  0  0  0  0  0  0
    6.6508   -0.0263    1.3480 H   0  0  0  0  0  0  0  0  0  0  0  0
   -6.4855    1.2717   -0.8526 H   0  0  0  0  0  0  0  0  0  0  0  0
   -3.7095   -2.0420   -0.6255 H   0  0  0  0  0  0  0  0  0  0  0  0
    6.6023   -2.6133   -2.8884 H   0  0  0  0  0  0  0  0  0  0  0  0
    8.7657   -0.6417    0.2441 H   0  0  0  0  0  0  0  0  0  0  0  0
   -8.2263   -0.1117    0.0496 H   0  0  0  0  0  0  0  0  0  0  0  0
   -5.4669   -3.4431    0.3165 H   0  0  0  0  0  0  0  0  0  0  0  0
    8.7413   -1.9345   -1.8729 H   0  0  0  0  0  0  0  0  0  0  0  0
   -9.8932   -2.8775    1.3630 H   0  0  0  0  0  0  0  0  0  0  0  0
   -9.6753   -1.8027   -0.0140 H   0  0  0  0  0  0  0  0  0  0  0  0
   -9.2140   -1.2822    1.6670 H   0  0  0  0  0  0  0  0  0  0  0  0
  1 24  1  0  0  0  0
  2 20  2  0  0  0  0
  3 33  1  0  0  0  0
  3 34  1  0  0  0  0
  4 10  1  0  0  0  0
  4 13  1  0  0  0  0
  4 14  1  0  0  0  0
  5 15  1  0  0  0  0
  5 20  1  0  0  0  0
  5 48  1  0  0  0  0
  6 16  2  0  0  0  0
  6 19  1  0  0  0  0
  7 18  1  0  0  0  0
  7 19  2  0  0  0  0
  8  9  1  0  0  0  0
  8 11  1  0  0  0  0
  8 12  1  0  0  0  0
  8 35  1  0  0  0  0
  9 13  1  0  0  0  0
  9 16  1  0  0  0  0
  9 36  1  0  0  0  0
 10 11  1  0  0  0  0
 10 15  1  0  0  0  0
 10 37  1  0  0  0  0
 11 38  1  0  0  0  0
 11 39  1  0  0  0  0
 12 14  1  0  0  0  0
 12 40  1  0  0  0  0
 12 41  1  0  0  0  0
 13 42  1  0  0  0  0
 13 43  1  0  0  0  0
 14 44  1  0  0  0  0
 14 45  1  0  0  0  0
 15 46  1  0  0  0  0
 15 47  1  0  0  0  0
 16 17  1  0  0  0  0
 17 18  2  0  0  0  0
 17 49  1  0  0  0  0
 18 21  1  0  0  0  0
 19 22  1  0  0  0  0
 20 23  1  0  0  0  0
 21 24  1  0  0  0  0
 21 25  2  0  0  0  0
 22 50  1  0  0  0  0
 22 51  1  0  0  0  0
 22 52  1  0  0  0  0
 23 26  2  0  0  0  0
 23 27  1  0  0  0  0
 24 28  2  0  0  0  0
 25 29  1  0  0  0  0
 25 53  1  0  0  0  0
 26 30  1  0  0  0  0
 26 54  1  0  0  0  0
 27 31  2  0  0  0  0
 27 55  1  0  0  0  0
 28 32  1  0  0  0  0
 28 56  1  0  0  0  0
 29 32  2  0  0  0  0
 29 57  1  0  0  0  0
 30 33  2  0  0  0  0
 30 58  1  0  0  0  0
 31 33  1  0  0  0  0
 31 59  1  0  0  0  0
 32 60  1  0  0  0  0
 34 61  1  0  0  0  0
 34 62  1  0  0  0  0
 34 63  1  0  0  0  0
M  END
> <PUBCHEM_COMPOUND_CID>
40777117

> <PUBCHEM_CONFORMER_RMSD>
1

> <PUBCHEM_CONFORMER_DIVERSEORDER>
1
135
77
106
104
122
112
68
131
95
97
88
59
99
118
17
107
22
85
50
98
15
70
120
76
49
34
67
127
139
28
101
18
117
83
132
40
90
126
35
102
128
54
31
13
43
58
130
143
62
125
74
56
75
119
72
10
81
64
108
25
123
121
87
69
26
138
142
44
51
140
60
93
45
46
134
113
86
115
55
11
100
52
48
71
94
105
78
103
27
41
9
82
124
91
92
137
66
57
141
80
144
63
7
84
20
21
110
61
96
116
47
89
36
111
24
33
79
29
109
136
73
14
23
53
32
133
42
19
37
65
8
39
129
38
3
6
114
2
12
4
30
16
5

> <PUBCHEM_MMFF94_PARTIAL_CHARGES>
40
1 -0.11
10 0.27
13 0.27
14 0.27
15 0.3
16 0.17
17 -0.15
18 0.31
19 0.48
2 -0.57
20 0.54
22 0.14
23 0.09
24 0.11
25 -0.15
26 -0.15
27 -0.15
28 -0.15
29 -0.15
3 -0.36
30 -0.15
31 -0.15
32 -0.15
33 0.08
34 0.28
4 -0.81
48 0.37
49 0.15
5 -0.73
53 0.15
54 0.15
55 0.15
56 0.15
57 0.15
58 0.15
59 0.15
6 -0.62
60 0.15
7 -0.62
9 0.14

> <PUBCHEM_EFFECTIVE_ROTOR_COUNT>
8.2

> <PUBCHEM_PHARMACOPHORE_FEATURES>
11
1 1 hydrophobe
1 2 acceptor
1 3 acceptor
1 4 cation
1 5 donor
1 6 acceptor
3 6 7 19 cation
6 21 24 25 28 29 32 rings
6 23 26 27 30 31 33 rings
6 6 7 16 17 18 19 rings
8 4 8 9 10 11 12 13 14 rings

> <PUBCHEM_HEAVY_ATOM_COUNT>
34

> <PUBCHEM_ATOM_DEF_STEREO_COUNT>
3

> <PUBCHEM_ATOM_UDEF_STEREO_COUNT>
0

> <PUBCHEM_BOND_DEF_STEREO_COUNT>
0

> <PUBCHEM_BOND_UDEF_STEREO_COUNT>
0

> <PUBCHEM_ISOTOPIC_ATOM_COUNT>
0

> <PUBCHEM_COMPONENT_COUNT>
1

> <PUBCHEM_CACTVS_TAUTO_COUNT>
2

> <PUBCHEM_CONFORMER_ID>
026E359D00000001

> <PUBCHEM_MMFF94_ENERGY>
110.0514

> <PUBCHEM_FEATURE_SELFOVERLAP>
55.821

> <PUBCHEM_SHAPE_FINGERPRINT>
10169797 241 18199447962042299058
11399939 17 17768239468720839567
11607047 141 18270689796194624409
117089 54 18342749481032578727
11828532 37 18188784975069463451
12120059 20 18126539418871222870
12633257 1 14333114295888616276
13103583 49 14548440445706952604
13150687 139 12396294829502674120
13383661 66 18342464707463020490
13673619 4 18260827125037224781
13690498 29 18040989636260774869
14040221 126 18191028902730764002
14068700 675 18259703381046053684
14767858 380 17385725772918475474
14904525 67 9221861880360239135
14950920 106 14188702256752793268
15289351 153 10809609425476130798
15350500 185 7997970146162129759
15361156 5 17022619746517679373
15510800 12 18342457032472020391
15669420 48 15574721300458806121
15721738 202 17917709089930407144
19301679 30 18059585667457167709
195137 95 10375875156018633247
20501277 180 8141270601467609631
20737093 207 17751348493004252082
208703 8 18272090504861516993
21403212 168 10303816479981190944
21716022 299 18263657297552883380
21792965 78 17897171226526692706
22440779 20 17059488522358128936
23569917 315 17969494919674482666
25269216 80 18271259231395617052
255183 451 18335701697830410165
2838139 119 8141790690891415388
393628 179 7853571283886387214
404807 78 17096095800006285027
4107672 100 17822567193211578525
437815 12 18342176678444700907
4461854 278 17346881161218439334
44880168 125 17917982880636028559
5372103 7 11818997400147735103
57527295 17 17458618956960148449
57527585 21 15649050356818608884
57816373 69 18271238456686187967
6201320 77 16773246063413688620
70251023 43 18342177748308828480
9962374 69 18200304567790099191
999808 66 18131912637242621422

> <PUBCHEM_SHAPE_MULTIPOLES>
673.98
23.12
4.15
2.15
23.1
3.81
-0.72
-27.74
3.08
1.39
-0.15
-1.77
-0.8
3.13

> <PUBCHEM_SHAPE_SELFOVERLAP>
1452.839

> <PUBCHEM_SHAPE_VOLUME>
381.2

> <PUBCHEM_COORDINATE_TYPE>
2
5
10

$$$$
