26743151
  -OEChem-12032416193D

 63 66  0     1  0  0  0  0  0999 V2000
    1.7504   -1.4994   -1.6111 O   0  0  0  0  0  0  0  0  0  0  0  0
    0.2453    3.7015   -0.1805 O   0  0  0  0  0  0  0  0  0  0  0  0
   -2.5230    1.8702    0.5260 O   0  0  0  0  0  0  0  0  0  0  0  0
    6.3840    0.8326   -0.1381 N   0  0  0  0  0  0  0  0  0  0  0  0
    1.5773   -2.8305    0.2803 N   0  0  0  0  0  0  0  0  0  0  0  0
    1.5428    3.6860    0.3167 N   0  0  0  0  0  0  0  0  0  0  0  0
    3.5035    0.3505   -0.5587 C   0  0  1  0  0  0  0  0  0  0  0  0
    4.0402    1.5532    0.2534 C   0  0  2  0  0  0  0  0  0  0  0  0
    4.5879   -0.1121   -1.5464 C   0  0  0  0  0  0  0  0  0  0  0  0
    5.4143    1.2514    0.8747 C   0  0  0  0  0  0  0  0  0  0  0  0
    5.9338   -0.3530   -0.8641 C   0  0  0  0  0  0  0  0  0  0  0  0
    3.0183   -0.8193    0.3058 C   0  0  0  0  0  0  0  0  0  0  0  0
    3.0615    2.0380    1.3238 C   0  0  0  0  0  0  0  0  0  0  0  0
    1.7426    2.4288    0.7224 C   0  0  0  0  0  0  0  0  0  0  0  0
    2.0622   -1.7342   -0.4407 C   0  0  0  0  0  0  0  0  0  0  0  0
    0.6174    1.6139    0.5087 C   0  0  0  0  0  0  0  0  0  0  0  0
    0.6505   -3.8005   -0.2984 C   0  0  0  0  0  0  0  0  0  0  0  0
   -0.2954    2.4619   -0.0606 C   0  0  0  0  0  0  0  0  0  0  0  0
    1.9600   -3.0878    1.6631 C   0  0  0  0  0  0  0  0  0  0  0  0
   -0.7812   -3.3837   -0.1230 C   0  0  0  0  0  0  0  0  0  0  0  0
   -1.6725    2.2985   -0.5413 C   0  0  0  0  0  0  0  0  0  0  0  0
   -1.4881   -3.7787    1.0127 C   0  0  0  0  0  0  0  0  0  0  0  0
   -1.4042   -2.6016   -1.0953 C   0  0  0  0  0  0  0  0  0  0  0  0
   -2.8183   -3.3916    1.1761 C   0  0  0  0  0  0  0  0  0  0  0  0
   -2.7343   -2.2145   -0.9321 C   0  0  0  0  0  0  0  0  0  0  0  0
   -3.4414   -2.6095    0.2036 C   0  0  0  0  0  0  0  0  0  0  0  0
   -3.8258    1.6152    0.2016 C   0  0  0  0  0  0  0  0  0  0  0  0
   -4.2618    1.7771   -1.1135 C   0  0  0  0  0  0  0  0  0  0  0  0
   -4.7197    1.1931    1.1856 C   0  0  0  0  0  0  0  0  0  0  0  0
   -5.5916    1.5169   -1.4447 C   0  0  0  0  0  0  0  0  0  0  0  0
   -6.0494    0.9329    0.8547 C   0  0  0  0  0  0  0  0  0  0  0  0
   -6.4854    1.0948   -0.4606 C   0  0  0  0  0  0  0  0  0  0  0  0
    2.6682    0.7105   -1.1725 H   0  0  0  0  0  0  0  0  0  0  0  0
    4.1863    2.3790   -0.4606 H   0  0  0  0  0  0  0  0  0  0  0  0
    4.7156    0.6611   -2.3162 H   0  0  0  0  0  0  0  0  0  0  0  0
    4.2822   -1.0210   -2.0762 H   0  0  0  0  0  0  0  0  0  0  0  0
    5.7989    2.1538    1.3637 H   0  0  0  0  0  0  0  0  0  0  0  0
    5.3291    0.4820    1.6522 H   0  0  0  0  0  0  0  0  0  0  0  0
    5.8928   -1.2178   -0.1931 H   0  0  0  0  0  0  0  0  0  0  0  0
    6.6784   -0.5923   -1.6318 H   0  0  0  0  0  0  0  0  0  0  0  0
    2.4792   -0.4711    1.1870 H   0  0  0  0  0  0  0  0  0  0  0  0
    3.8727   -1.4098    0.6487 H   0  0  0  0  0  0  0  0  0  0  0  0
    3.4883    2.9192    1.8231 H   0  0  0  0  0  0  0  0  0  0  0  0
    2.9154    1.3045    2.1236 H   0  0  0  0  0  0  0  0  0  0  0  0
    7.2772    0.6342    0.3118 H   0  0  0  0  0  0  0  0  0  0  0  0
    0.4681    0.5709    0.7406 H   0  0  0  0  0  0  0  0  0  0  0  0
    0.8302   -4.7919    0.1347 H   0  0  0  0  0  0  0  0  0  0  0  0
    0.8703   -3.8937   -1.3695 H   0  0  0  0  0  0  0  0  0  0  0  0
    1.0742   -2.9830    2.2961 H   0  0  0  0  0  0  0  0  0  0  0  0
    2.7314   -2.4301    2.0592 H   0  0  0  0  0  0  0  0  0  0  0  0
    2.3329   -4.1143    1.7380 H   0  0  0  0  0  0  0  0  0  0  0  0
   -2.0294    3.2555   -0.9427 H   0  0  0  0  0  0  0  0  0  0  0  0
   -1.6464    1.5409   -1.3353 H   0  0  0  0  0  0  0  0  0  0  0  0
   -1.0159   -4.3908    1.7764 H   0  0  0  0  0  0  0  0  0  0  0  0
   -0.8691   -2.2887   -1.9874 H   0  0  0  0  0  0  0  0  0  0  0  0
   -3.3690   -3.6993    2.0602 H   0  0  0  0  0  0  0  0  0  0  0  0
   -3.2195   -1.6050   -1.6889 H   0  0  0  0  0  0  0  0  0  0  0  0
   -4.4768   -2.3075    0.3305 H   0  0  0  0  0  0  0  0  0  0  0  0
   -3.6281    2.1047   -1.9301 H   0  0  0  0  0  0  0  0  0  0  0  0
   -4.3854    1.0643    2.2114 H   0  0  0  0  0  0  0  0  0  0  0  0
   -5.9324    1.6431   -2.4683 H   0  0  0  0  0  0  0  0  0  0  0  0
   -6.7453    0.6036    1.6208 H   0  0  0  0  0  0  0  0  0  0  0  0
   -7.5208    0.8920   -0.7183 H   0  0  0  0  0  0  0  0  0  0  0  0
  1 15  2  0  0  0  0
  2  6  1  0  0  0  0
  2 18  1  0  0  0  0
  3 21  1  0  0  0  0
  3 27  1  0  0  0  0
  4 10  1  0  0  0  0
  4 11  1  0  0  0  0
  4 45  1  0  0  0  0
  5 15  1  0  0  0  0
  5 17  1  0  0  0  0
  5 19  1  0  0  0  0
  6 14  2  0  0  0  0
  7  8  1  0  0  0  0
  7  9  1  0  0  0  0
  7 12  1  0  0  0  0
  7 33  1  0  0  0  0
  8 10  1  0  0  0  0
  8 13  1  0  0  0  0
  8 34  1  0  0  0  0
  9 11  1  0  0  0  0
  9 35  1  0  0  0  0
  9 36  1  0  0  0  0
 10 37  1  0  0  0  0
 10 38  1  0  0  0  0
 11 39  1  0  0  0  0
 11 40  1  0  0  0  0
 12 15  1  0  0  0  0
 12 41  1  0  0  0  0
 12 42  1  0  0  0  0
 13 14  1  0  0  0  0
 13 43  1  0  0  0  0
 13 44  1  0  0  0  0
 14 16  1  0  0  0  0
 16 18  2  0  0  0  0
 16 46  1  0  0  0  0
 17 20  1  0  0  0  0
 17 47  1  0  0  0  0
 17 48  1  0  0  0  0
 18 21  1  0  0  0  0
 19 49  1  0  0  0  0
 19 50  1  0  0  0  0
 19 51  1  0  0  0  0
 20 22  2  0  0  0  0
 20 23  1  0  0  0  0
 21 52  1  0  0  0  0
 21 53  1  0  0  0  0
 22 24  1  0  0  0  0
 22 54  1  0  0  0  0
 23 25  2  0  0  0  0
 23 55  1  0  0  0  0
 24 26  2  0  0  0  0
 24 56  1  0  0  0  0
 25 26  1  0  0  0  0
 25 57  1  0  0  0  0
 26 58  1  0  0  0  0
 27 28  2  0  0  0  0
 27 29  1  0  0  0  0
 28 30  1  0  0  0  0
 28 59  1  0  0  0  0
 29 31  2  0  0  0  0
 29 60  1  0  0  0  0
 30 32  2  0  0  0  0
 30 61  1  0  0  0  0
 31 32  1  0  0  0  0
 31 62  1  0  0  0  0
 32 63  1  0  0  0  0
M  END
> <PUBCHEM_COMPOUND_CID>
26743151

> <PUBCHEM_CONFORMER_RMSD>
1.6

> <PUBCHEM_CONFORMER_DIVERSEORDER>
1
53
26
40
48
34
10
83
5
54
39
68
21
46
41
75
3
64
84
27
70
73
29
58
63
7
49
18
78
9
14
81
24
55
61
16
80
85
13
32
22
65
19
60
62
57
66
8
12
69
20
38
28
82
45
77
43
67
31
15
79
59
42
56
17
52
33
50
6
86
71
35
2
74
4
51
11
47
23
44
25
30
76
36
37
72

> <PUBCHEM_MMFF94_PARTIAL_CHARGES>
41
1 -0.57
10 0.27
11 0.27
12 0.06
13 0.18
14 0.11
15 0.57
16 -0.15
17 0.44
18 -0.04
19 0.3
2 -0.02
20 -0.14
21 0.46
22 -0.15
23 -0.15
24 -0.15
25 -0.15
26 -0.15
27 0.08
28 -0.15
29 -0.15
3 -0.36
30 -0.15
31 -0.15
32 -0.15
4 -0.9
45 0.36
46 0.15
5 -0.66
54 0.15
55 0.15
56 0.15
57 0.15
58 0.15
59 0.15
6 -0.41
60 0.15
61 0.15
62 0.15
63 0.15

> <PUBCHEM_EFFECTIVE_ROTOR_COUNT>
11.2

> <PUBCHEM_PHARMACOPHORE_FEATURES>
9
1 1 acceptor
1 3 acceptor
1 4 cation
1 4 donor
1 6 acceptor
5 2 6 14 16 18 rings
6 20 22 23 24 25 26 rings
6 27 28 29 30 31 32 rings
6 4 7 8 9 10 11 rings

> <PUBCHEM_HEAVY_ATOM_COUNT>
32

> <PUBCHEM_ATOM_DEF_STEREO_COUNT>
2

> <PUBCHEM_ATOM_UDEF_STEREO_COUNT>
0

> <PUBCHEM_BOND_DEF_STEREO_COUNT>
0

> <PUBCHEM_BOND_UDEF_STEREO_COUNT>
0

> <PUBCHEM_ISOTOPIC_ATOM_COUNT>
0

> <PUBCHEM_COMPONENT_COUNT>
1

> <PUBCHEM_CACTVS_TAUTO_COUNT>
1

> <PUBCHEM_CONFORMER_ID>
0198116F00000001

> <PUBCHEM_MMFF94_ENERGY>
72.7632

> <PUBCHEM_FEATURE_SELFOVERLAP>
45.672

> <PUBCHEM_SHAPE_FINGERPRINT>
10316853 100 18410578405073887785
10675989 125 17686893926211514893
10864689 126 18267873791241882908
1100329 8 18412267271950802396
11135609 187 18339355259200694625
11513181 2 17769663323372425206
12422481 6 18051439510925367755
13122387 1 18195528082561160787
13402501 40 18412829079331796029
1361 2 18338798914748284121
14617045 38 18410578362050556709
14725015 67 18047745194236338571
16067689 391 17556329188398675230
16067690 210 16128386951962395953
16112460 7 18271534087442420729
17627616 140 18263074423361479147
19319366 153 17967532337813592482
20764821 26 18410288155336410813
21133410 62 18187632571657117055
21133410 90 17203048607395901729
21585483 110 18336819781017872421
23516275 137 16988022529810225223
3052486 1 18336543915136269344
3298306 158 18335417937941276749
338550 245 18264494055765125733
340366 18 18188212108189348389
463206 1 18411420634975525344
469060 322 17458622354183918447
508706 21 18337670944192522323

> <PUBCHEM_SHAPE_MULTIPOLES>
625.99
13.28
5.66
1.35
2.5
3.6
-0.05
-7.54
-1.46
1.91
1.04
0.05
0.32
1.14

> <PUBCHEM_SHAPE_SELFOVERLAP>
1327.494

> <PUBCHEM_SHAPE_VOLUME>
347.7

> <PUBCHEM_COORDINATE_TYPE>
2
5
10

$$$$
