7673425
  -OEChem-12032416113D

 57 57  0     1  0  0  0  0  0999 V2000
   -3.3052    1.9303   -0.8659 O   0  0  0  0  0  0  0  0  0  0  0  0
    3.6123   -0.0270    1.5637 O   0  0  0  0  0  0  0  0  0  0  0  0
   -1.2414    0.9955   -0.3460 N   0  0  0  0  0  0  0  0  0  0  0  0
    3.9136   -0.8812   -0.5716 N   0  0  0  0  0  0  0  0  0  0  0  0
    1.9249   -3.7937    0.6590 N   0  0  0  0  0  0  0  0  0  0  0  0
    1.4053    1.5570    0.7727 C   0  0  1  0  0  0  0  0  0  0  0  0
    0.4816    2.6783    0.2352 C   0  0  2  0  0  0  0  0  0  0  0  0
    0.5469    0.3647    1.2332 C   0  0  0  0  0  0  0  0  0  0  0  0
   -0.4881    2.1533   -0.8345 C   0  0  0  0  0  0  0  0  0  0  0  0
   -0.4216   -0.1143    0.1532 C   0  0  0  0  0  0  0  0  0  0  0  0
    1.2522    3.8907   -0.2861 C   0  0  0  0  0  0  0  0  0  0  0  0
    2.4823    1.1058   -0.2207 C   0  0  0  0  0  0  0  0  0  0  0  0
   -2.6334    0.9858   -0.4429 C   0  0  0  0  0  0  0  0  0  0  0  0
    2.2356    4.3987    0.7470 C   0  0  0  0  0  0  0  0  0  0  0  0
    3.3825    0.0248    0.3524 C   0  0  0  0  0  0  0  0  0  0  0  0
   -3.3344   -0.2712    0.0073 C   0  0  0  0  0  0  0  0  0  0  0  0
   -4.8388   -0.1296   -0.1581 C   0  0  0  0  0  0  0  0  0  0  0  0
   -5.5979   -1.4048    0.2211 C   0  0  0  0  0  0  0  0  0  0  0  0
    4.7950   -1.9773   -0.1761 C   0  0  0  0  0  0  0  0  0  0  0  0
    3.6276   -0.7999   -1.9988 C   0  0  0  0  0  0  0  0  0  0  0  0
   -7.1033   -1.2363    0.0126 C   0  0  0  0  0  0  0  0  0  0  0  0
    4.2239   -3.3432   -0.5375 C   0  0  0  0  0  0  0  0  0  0  0  0
   -7.8586   -2.5121    0.3492 C   0  0  0  0  0  0  0  0  0  0  0  0
    2.9391   -3.5941    0.1316 C   0  0  0  0  0  0  0  0  0  0  0  0
    1.9113    1.9276    1.6739 H   0  0  0  0  0  0  0  0  0  0  0  0
   -0.1316    3.0165    1.0841 H   0  0  0  0  0  0  0  0  0  0  0  0
    1.1496   -0.4796    1.5800 H   0  0  0  0  0  0  0  0  0  0  0  0
   -0.0429    0.6870    2.1024 H   0  0  0  0  0  0  0  0  0  0  0  0
    0.0449    1.8375   -1.7388 H   0  0  0  0  0  0  0  0  0  0  0  0
   -1.1742    2.9526   -1.1351 H   0  0  0  0  0  0  0  0  0  0  0  0
   -1.0331   -0.9207    0.5616 H   0  0  0  0  0  0  0  0  0  0  0  0
    0.1182   -0.5325   -0.7036 H   0  0  0  0  0  0  0  0  0  0  0  0
    0.5417    4.6925   -0.5227 H   0  0  0  0  0  0  0  0  0  0  0  0
    1.7782    3.6598   -1.2194 H   0  0  0  0  0  0  0  0  0  0  0  0
    1.9817    0.7601   -1.1260 H   0  0  0  0  0  0  0  0  0  0  0  0
    3.1407    1.9316   -0.5068 H   0  0  0  0  0  0  0  0  0  0  0  0
    2.6543    5.3552    0.4152 H   0  0  0  0  0  0  0  0  0  0  0  0
    3.0808    3.7234    0.9014 H   0  0  0  0  0  0  0  0  0  0  0  0
    1.7474    4.5717    1.7117 H   0  0  0  0  0  0  0  0  0  0  0  0
   -2.9733   -1.1134   -0.5933 H   0  0  0  0  0  0  0  0  0  0  0  0
   -3.1029   -0.4536    1.0623 H   0  0  0  0  0  0  0  0  0  0  0  0
   -5.2039    0.7027    0.4575 H   0  0  0  0  0  0  0  0  0  0  0  0
   -5.0751    0.1233   -1.2000 H   0  0  0  0  0  0  0  0  0  0  0  0
   -5.3951   -1.6554    1.2694 H   0  0  0  0  0  0  0  0  0  0  0  0
   -5.2338   -2.2410   -0.3880 H   0  0  0  0  0  0  0  0  0  0  0  0
    4.9830   -1.9242    0.9024 H   0  0  0  0  0  0  0  0  0  0  0  0
    5.7581   -1.8262   -0.6777 H   0  0  0  0  0  0  0  0  0  0  0  0
    4.3967   -1.3229   -2.5756 H   0  0  0  0  0  0  0  0  0  0  0  0
    2.6510   -1.2538   -2.1907 H   0  0  0  0  0  0  0  0  0  0  0  0
    3.6258    0.2396   -2.3375 H   0  0  0  0  0  0  0  0  0  0  0  0
   -7.3075   -0.9643   -1.0295 H   0  0  0  0  0  0  0  0  0  0  0  0
   -7.4768   -0.4191    0.6406 H   0  0  0  0  0  0  0  0  0  0  0  0
    4.0961   -3.4454   -1.6206 H   0  0  0  0  0  0  0  0  0  0  0  0
    4.9416   -4.1155   -0.2369 H   0  0  0  0  0  0  0  0  0  0  0  0
   -8.9326   -2.3688    0.1947 H   0  0  0  0  0  0  0  0  0  0  0  0
   -7.7007   -2.7972    1.3942 H   0  0  0  0  0  0  0  0  0  0  0  0
   -7.5315   -3.3411   -0.2865 H   0  0  0  0  0  0  0  0  0  0  0  0
  1 13  2  0  0  0  0
  2 15  2  0  0  0  0
  3  9  1  0  0  0  0
  3 10  1  0  0  0  0
  3 13  1  0  0  0  0
  4 15  1  0  0  0  0
  4 19  1  0  0  0  0
  4 20  1  0  0  0  0
  5 24  3  0  0  0  0
  6  7  1  0  0  0  0
  6  8  1  0  0  0  0
  6 12  1  0  0  0  0
  6 25  1  0  0  0  0
  7  9  1  0  0  0  0
  7 11  1  0  0  0  0
  7 26  1  0  0  0  0
  8 10  1  0  0  0  0
  8 27  1  0  0  0  0
  8 28  1  0  0  0  0
  9 29  1  0  0  0  0
  9 30  1  0  0  0  0
 10 31  1  0  0  0  0
 10 32  1  0  0  0  0
 11 14  1  0  0  0  0
 11 33  1  0  0  0  0
 11 34  1  0  0  0  0
 12 15  1  0  0  0  0
 12 35  1  0  0  0  0
 12 36  1  0  0  0  0
 13 16  1  0  0  0  0
 14 37  1  0  0  0  0
 14 38  1  0  0  0  0
 14 39  1  0  0  0  0
 16 17  1  0  0  0  0
 16 40  1  0  0  0  0
 16 41  1  0  0  0  0
 17 18  1  0  0  0  0
 17 42  1  0  0  0  0
 17 43  1  0  0  0  0
 18 21  1  0  0  0  0
 18 44  1  0  0  0  0
 18 45  1  0  0  0  0
 19 22  1  0  0  0  0
 19 46  1  0  0  0  0
 19 47  1  0  0  0  0
 20 48  1  0  0  0  0
 20 49  1  0  0  0  0
 20 50  1  0  0  0  0
 21 23  1  0  0  0  0
 21 51  1  0  0  0  0
 21 52  1  0  0  0  0
 22 24  1  0  0  0  0
 22 53  1  0  0  0  0
 22 54  1  0  0  0  0
 23 55  1  0  0  0  0
 23 56  1  0  0  0  0
 23 57  1  0  0  0  0
M  END
> <PUBCHEM_COMPOUND_CID>
7673425

> <PUBCHEM_CONFORMER_RMSD>
1.2

> <PUBCHEM_CONFORMER_DIVERSEORDER>
1
112
5
139
53
113
67
195
25
110
169
136
37
109
172
179
137
68
165
128
38
87
88
152
48
91
125
42
100
55
12
135
190
24
77
102
193
78
203
118
23
121
105
18
101
171
198
183
213
4
72
180
63
201
39
108
155
123
197
208
144
187
92
164
58
215
66
6
99
168
69
116
157
97
150
117
104
50
60
196
175
205
170
207
145
57
31
103
200
146
216
65
9
19
71
148
36
204
134
81
161
178
13
43
174
209
11
130
90
212
15
84
46
186
138
210
129
126
49
93
76
184
3
122
34
106
10
17
176
160
206
217
211
147
27
95
153
214
14
132
181
41
82
124
70
35
45
131
52
107
199
120
192
26
7
85
8
20
47
21
33
154
167
119
40
189
98
166
80
89
177
149
56
2
86
156
143
96
141
74
163
194
188
191
83
44
151
30
202
62
133
142
29
173
111
158
73
61
32
115
140
22
54
51
75
64
127
159
182
162
16
185
59
94
114
79
28

> <PUBCHEM_MMFF94_PARTIAL_CHARGES>
15
1 -0.57
10 0.3
12 0.06
13 0.57
15 0.57
16 0.06
19 0.3
2 -0.57
20 0.3
22 0.2
24 0.36
3 -0.66
4 -0.66
5 -0.56
9 0.3

> <PUBCHEM_EFFECTIVE_ROTOR_COUNT>
12.2

> <PUBCHEM_PHARMACOPHORE_FEATURES>
7
1 1 acceptor
1 14 hydrophobe
1 2 acceptor
1 23 hydrophobe
1 5 acceptor
4 16 17 18 21 hydrophobe
6 3 6 7 8 9 10 rings

> <PUBCHEM_HEAVY_ATOM_COUNT>
24

> <PUBCHEM_ATOM_DEF_STEREO_COUNT>
2

> <PUBCHEM_ATOM_UDEF_STEREO_COUNT>
0

> <PUBCHEM_BOND_DEF_STEREO_COUNT>
0

> <PUBCHEM_BOND_UDEF_STEREO_COUNT>
0

> <PUBCHEM_ISOTOPIC_ATOM_COUNT>
0

> <PUBCHEM_COMPONENT_COUNT>
1

> <PUBCHEM_CACTVS_TAUTO_COUNT>
1

> <PUBCHEM_CONFORMER_ID>
0075165100000001

> <PUBCHEM_MMFF94_ENERGY>
39.1285

> <PUBCHEM_FEATURE_SELFOVERLAP>
35.522

> <PUBCHEM_SHAPE_FINGERPRINT>
10316853 100 18334859467539272267
12107183 9 18199480874756951169
12623949 98 18340214080544094591
13383661 66 17629778772689597518
13533116 47 18270965773370349417
13540713 4 18262498374064319149
13692114 37 17692519435646860744
13785724 45 18199479778949089287
13911852 28 18339923714937874311
13955234 65 18199747127578410153
13989917 61 18265337390496946091
14251764 30 18410295766182015519
15927050 60 17981607387797323510
17859628 70 18339923822000807181
17909252 39 18268426837191176082
1813 80 18200606812484977764
20645477 70 18335415833149033737
21049683 271 18410859889110629276
21130935 74 18267872873432775627
22950370 63 18339085869538742193
23559900 14 18410001118989156769
33382 64 18342460331154758907
3421961 26 18412824715534610689
439807 62 18261394391259205287
46194498 28 17749108928163911861
463206 1 18408608028502711514
465052 167 18272092703536651743
5104073 3 17917710154496799497
5309563 4 18339925904991439014
70251023 43 18408888451650051105
7970288 3 18339643343525392903

> <PUBCHEM_SHAPE_MULTIPOLES>
467.23
14.14
5.2
1.1
34.35
0.77
0.14
-15.57
0.22
-6.1
-0.43
-1
0.03
1.34

> <PUBCHEM_SHAPE_SELFOVERLAP>
910.367

> <PUBCHEM_SHAPE_VOLUME>
277.6

> <PUBCHEM_COORDINATE_TYPE>
2
5
10

$$$$
