75536102
  -OEChem-12032416293D

 46 48  0     1  0  0  0  0  0999 V2000
   -6.8635    2.3690   -0.4743 Cl  0  0  0  0  0  0  0  0  0  0  0  0
   -0.6357   -3.4929    1.0137 O   0  0  0  0  0  0  0  0  0  0  0  0
    2.1062   -3.4585    1.0978 O   0  0  0  0  0  0  0  0  0  0  0  0
    4.6095    3.2539    0.2272 O   0  0  0  0  0  0  0  0  0  0  0  0
   -0.9419   -0.7537   -0.3627 N   0  0  0  0  0  0  0  0  0  0  0  0
    0.2736   -1.4893   -0.0322 C   0  0  2  0  0  0  0  0  0  0  0  0
    1.4035   -1.2360   -1.0561 C   0  0  2  0  0  0  0  0  0  0  0  0
    0.0616   -3.0006   -0.1147 C   0  0  1  0  0  0  0  0  0  0  0  0
    2.1884   -2.5726   -1.1459 C   0  0  0  0  0  0  0  0  0  0  0  0
    1.4891   -3.5355   -0.1843 C   0  0  1  0  0  0  0  0  0  0  0  0
    2.2605   -0.0362   -0.7138 C   0  0  0  0  0  0  0  0  0  0  0  0
   -1.8058   -0.6284    0.8026 C   0  0  0  0  0  0  0  0  0  0  0  0
    2.3641    1.0265   -1.6113 C   0  0  0  0  0  0  0  0  0  0  0  0
    2.9464    0.0068    0.5000 C   0  0  0  0  0  0  0  0  0  0  0  0
   -3.0720    0.1212    0.4838 C   0  0  0  0  0  0  0  0  0  0  0  0
    3.1537    2.1321   -1.2953 C   0  0  0  0  0  0  0  0  0  0  0  0
    3.7361    1.1123    0.8161 C   0  0  0  0  0  0  0  0  0  0  0  0
    3.8397    2.1749   -0.0815 C   0  0  0  0  0  0  0  0  0  0  0  0
   -3.1157    1.5081    0.6261 C   0  0  0  0  0  0  0  0  0  0  0  0
   -4.2011   -0.5708    0.0459 C   0  0  0  0  0  0  0  0  0  0  0  0
   -4.2884    2.2029    0.3308 C   0  0  0  0  0  0  0  0  0  0  0  0
   -5.3740    0.1239   -0.2495 C   0  0  0  0  0  0  0  0  0  0  0  0
   -5.4177    1.5108   -0.1070 C   0  0  0  0  0  0  0  0  0  0  0  0
    5.2834    3.2322    1.4847 C   0  0  0  0  0  0  0  0  0  0  0  0
    0.5999   -1.2166    0.9800 H   0  0  0  0  0  0  0  0  0  0  0  0
    0.9574   -1.0727   -2.0486 H   0  0  0  0  0  0  0  0  0  0  0  0
   -0.4923   -3.2720   -1.0227 H   0  0  0  0  0  0  0  0  0  0  0  0
    2.1011   -2.9567   -2.1700 H   0  0  0  0  0  0  0  0  0  0  0  0
    3.2549   -2.4624   -0.9232 H   0  0  0  0  0  0  0  0  0  0  0  0
    1.5274   -4.5776   -0.5151 H   0  0  0  0  0  0  0  0  0  0  0  0
   -0.6892    0.1817   -0.6829 H   0  0  0  0  0  0  0  0  0  0  0  0
   -0.6451   -4.4630    0.9496 H   0  0  0  0  0  0  0  0  0  0  0  0
   -1.2852   -0.1075    1.6174 H   0  0  0  0  0  0  0  0  0  0  0  0
   -2.0943   -1.6059    1.2019 H   0  0  0  0  0  0  0  0  0  0  0  0
    3.0252   -3.7599    0.9971 H   0  0  0  0  0  0  0  0  0  0  0  0
    1.8354    1.0085   -2.5605 H   0  0  0  0  0  0  0  0  0  0  0  0
    2.8871   -0.8120    1.2109 H   0  0  0  0  0  0  0  0  0  0  0  0
    3.2303    2.9570   -1.9983 H   0  0  0  0  0  0  0  0  0  0  0  0
    4.2428    1.0798    1.7746 H   0  0  0  0  0  0  0  0  0  0  0  0
   -2.2419    2.0588    0.9644 H   0  0  0  0  0  0  0  0  0  0  0  0
   -4.1792   -1.6511   -0.0711 H   0  0  0  0  0  0  0  0  0  0  0  0
   -4.3077    3.2837    0.4455 H   0  0  0  0  0  0  0  0  0  0  0  0
   -6.2459   -0.4284   -0.5905 H   0  0  0  0  0  0  0  0  0  0  0  0
    5.8481    4.1669    1.5650 H   0  0  0  0  0  0  0  0  0  0  0  0
    6.0100    2.4143    1.5378 H   0  0  0  0  0  0  0  0  0  0  0  0
    4.5756    3.2136    2.3204 H   0  0  0  0  0  0  0  0  0  0  0  0
  1 23  1  0  0  0  0
  2  8  1  0  0  0  0
  2 32  1  0  0  0  0
  3 10  1  0  0  0  0
  3 35  1  0  0  0  0
  4 18  1  0  0  0  0
  4 24  1  0  0  0  0
  5  6  1  0  0  0  0
  5 12  1  0  0  0  0
  5 31  1  0  0  0  0
  6  7  1  0  0  0  0
  6  8  1  0  0  0  0
  6 25  1  0  0  0  0
  7  9  1  0  0  0  0
  7 11  1  0  0  0  0
  7 26  1  0  0  0  0
  8 10  1  0  0  0  0
  8 27  1  0  0  0  0
  9 10  1  0  0  0  0
  9 28  1  0  0  0  0
  9 29  1  0  0  0  0
 10 30  1  0  0  0  0
 11 13  2  0  0  0  0
 11 14  1  0  0  0  0
 12 15  1  0  0  0  0
 12 33  1  0  0  0  0
 12 34  1  0  0  0  0
 13 16  1  0  0  0  0
 13 36  1  0  0  0  0
 14 17  2  0  0  0  0
 14 37  1  0  0  0  0
 15 19  2  0  0  0  0
 15 20  1  0  0  0  0
 16 18  2  0  0  0  0
 16 38  1  0  0  0  0
 17 18  1  0  0  0  0
 17 39  1  0  0  0  0
 19 21  1  0  0  0  0
 19 40  1  0  0  0  0
 20 22  2  0  0  0  0
 20 41  1  0  0  0  0
 21 23  2  0  0  0  0
 21 42  1  0  0  0  0
 22 23  1  0  0  0  0
 22 43  1  0  0  0  0
 24 44  1  0  0  0  0
 24 45  1  0  0  0  0
 24 46  1  0  0  0  0
M  END
> <PUBCHEM_COMPOUND_CID>
75536102

> <PUBCHEM_CONFORMER_RMSD>
0.8

> <PUBCHEM_CONFORMER_DIVERSEORDER>
1
19
22
23
10
2
21
32
13
20
18
31
9
12
15
30
16
25
26
3
5
4
14
24
29
11
28
8
6
27
7
17

> <PUBCHEM_MMFF94_PARTIAL_CHARGES>
34
1 -0.18
10 0.28
11 -0.14
12 0.41
13 -0.15
14 -0.15
15 -0.14
16 -0.15
17 -0.15
18 0.08
19 -0.15
2 -0.68
20 -0.15
21 -0.15
22 -0.15
23 0.18
24 0.28
3 -0.68
31 0.36
32 0.4
35 0.4
36 0.15
37 0.15
38 0.15
39 0.15
4 -0.36
40 0.15
41 0.15
42 0.15
43 0.15
5 -0.9
6 0.27
7 0.14
8 0.28

> <PUBCHEM_EFFECTIVE_ROTOR_COUNT>
6

> <PUBCHEM_PHARMACOPHORE_FEATURES>
10
1 2 acceptor
1 2 donor
1 3 acceptor
1 3 donor
1 4 acceptor
1 5 cation
1 5 donor
5 6 7 8 9 10 rings
6 11 13 14 16 17 18 rings
6 15 19 20 21 22 23 rings

> <PUBCHEM_HEAVY_ATOM_COUNT>
24

> <PUBCHEM_ATOM_DEF_STEREO_COUNT>
4

> <PUBCHEM_ATOM_UDEF_STEREO_COUNT>
0

> <PUBCHEM_BOND_DEF_STEREO_COUNT>
0

> <PUBCHEM_BOND_UDEF_STEREO_COUNT>
0

> <PUBCHEM_ISOTOPIC_ATOM_COUNT>
0

> <PUBCHEM_COMPONENT_COUNT>
1

> <PUBCHEM_CACTVS_TAUTO_COUNT>
1

> <PUBCHEM_CONFORMER_ID>
048096E600000001

> <PUBCHEM_MMFF94_ENERGY>
76.3984

> <PUBCHEM_FEATURE_SELFOVERLAP>
50.757

> <PUBCHEM_SHAPE_FINGERPRINT>
10498660 4 18272661172375634369
11135609 127 18267852905760616165
11370993 70 18410578421974214581
12107183 9 18336532924821764456
12166972 35 17984418525723806891
12403259 327 16009036128181538928
12549972 3 17605864454703138363
12633257 1 16298666195731177952
12769317 202 18272083898716817537
12788726 201 17395307166272371506
13878862 14 18044081377132822245
13955234 65 18263932033957339243
13965767 371 18114170965320507804
14251764 30 9078847298046864881
14251764 38 18267587914356593673
14461889 52 18114192956133182587
14468879 13 18261405484969197307
14848178 96 18410865334606427261
14849402 71 18337394829651430218
16120349 189 18336541745635168036
18681886 176 18127971897491325599
1979834 28 18187093832070852869
20157964 124 18337107857448909693
20554085 129 17916568943116027280
20567600 254 18341046401850535300
20715895 44 18334853871233438197
21133410 221 16767582766798642224
21304303 282 17914597600403789742
21401589 2 18128546057324259426
21403212 168 18340757170943447706
22149856 69 18192743162233625427
22393880 68 18341625793223459935
23558518 356 18118123808602477406
23559900 14 18267305322793861475
3246875 12 18339644563891476587
44317340 157 18266744589602435333
469060 322 17905350755033063043
474 4 18334863792385904231
495365 180 18261398780588882315
5104073 3 18262810549777413475
56633871 153 12035719934134114689
57124632 79 18410288086548518288
5895379 119 17127624059455780665
6327066 14 18339640169613210908
6328613 192 18261968448467351636
6371380 46 18340773724058389388
67856867 119 18337950087318424323
7808743 9 18122911094977351568
84936 182 18342746173717258832
9849439 229 18336833103268219085
9896288 288 17900543690417875018
9981440 41 18335985384303665915

> <PUBCHEM_SHAPE_MULTIPOLES>
473.19
12.88
4.75
1.2
17.59
2.12
-0.11
-15.68
0.53
-5.3
0.91
-1.18
-0.19
1.14

> <PUBCHEM_SHAPE_SELFOVERLAP>
998.905

> <PUBCHEM_SHAPE_VOLUME>
267.6

> <PUBCHEM_COORDINATE_TYPE>
2
5
10

$$$$
