28991035
  -OEChem-12032416163D

 58 61  0     1  0  0  0  0  0999 V2000
   -3.4025   -0.5892    1.5193 S   0  0  0  0  0  0  0  0  0  0  0  0
    4.8570    2.7745    1.0366 O   0  0  0  0  0  0  0  0  0  0  0  0
   -2.8018   -0.2512    2.7956 O   0  0  0  0  0  0  0  0  0  0  0  0
   -4.8228   -0.8699    1.4332 O   0  0  0  0  0  0  0  0  0  0  0  0
    1.0158   -3.1472    0.3979 N   0  0  2  0  0  0  0  0  0  0  0  0
    2.9435    0.8188    0.2522 N   0  0  0  0  0  0  0  0  0  0  0  0
   -2.5182   -1.8738    0.8113 N   0  0  0  0  0  0  0  0  0  0  0  0
    1.0683   -1.8155   -1.8360 C   0  0  2  0  0  0  0  0  0  0  0  0
    2.0614   -1.2173   -0.8137 C   0  0  2  0  0  0  0  0  0  0  0  0
   -0.3634   -2.7420    0.0138 C   0  0  2  0  0  0  0  0  0  0  0  0
   -0.3464   -1.8233   -1.2282 C   0  0  0  0  0  0  0  0  0  0  0  0
    1.8838   -1.9525    0.5338 C   0  0  0  0  0  0  0  0  0  0  0  0
    1.4797   -3.2842   -2.0530 C   0  0  0  0  0  0  0  0  0  0  0  0
    1.5625   -3.9942   -0.6900 C   0  0  0  0  0  0  0  0  0  0  0  0
    1.9226    0.2948   -0.6527 C   0  0  0  0  0  0  0  0  0  0  0  0
   -1.1316   -2.1108    1.1773 C   0  0  0  0  0  0  0  0  0  0  0  0
    4.2339    0.9516   -0.4380 C   0  0  0  0  0  0  0  0  0  0  0  0
    2.5330    2.1164    0.8065 C   0  0  0  0  0  0  0  0  0  0  0  0
    5.2794    1.5109    0.5226 C   0  0  0  0  0  0  0  0  0  0  0  0
    3.6188    2.6491    1.7372 C   0  0  0  0  0  0  0  0  0  0  0  0
   -3.0682    0.7315    0.3930 C   0  0  0  0  0  0  0  0  0  0  0  0
   -3.9064    0.9430   -0.7017 C   0  0  0  0  0  0  0  0  0  0  0  0
   -1.9648    1.5601    0.5971 C   0  0  0  0  0  0  0  0  0  0  0  0
   -3.6413    1.9833   -1.5922 C   0  0  0  0  0  0  0  0  0  0  0  0
   -1.6997    2.6004   -0.2934 C   0  0  0  0  0  0  0  0  0  0  0  0
   -2.5380    2.8121   -1.3880 C   0  0  0  0  0  0  0  0  0  0  0  0
   -2.2547    3.9245   -2.3403 C   0  0  0  0  0  0  0  0  0  0  0  0
    1.0852   -1.2660   -2.7831 H   0  0  0  0  0  0  0  0  0  0  0  0
    3.0657   -1.4429   -1.1955 H   0  0  0  0  0  0  0  0  0  0  0  0
   -0.9131   -3.6569   -0.2531 H   0  0  0  0  0  0  0  0  0  0  0  0
   -0.6592   -0.8020   -0.9925 H   0  0  0  0  0  0  0  0  0  0  0  0
   -1.0599   -2.2046   -1.9698 H   0  0  0  0  0  0  0  0  0  0  0  0
    2.8686   -2.2699    0.9023 H   0  0  0  0  0  0  0  0  0  0  0  0
    1.4942   -1.2952    1.3186 H   0  0  0  0  0  0  0  0  0  0  0  0
    2.4497   -3.3389   -2.5609 H   0  0  0  0  0  0  0  0  0  0  0  0
    0.7475   -3.7868   -2.6964 H   0  0  0  0  0  0  0  0  0  0  0  0
    1.0190   -4.9463   -0.7317 H   0  0  0  0  0  0  0  0  0  0  0  0
    2.6029   -4.2611   -0.4651 H   0  0  0  0  0  0  0  0  0  0  0  0
    0.9311    0.5070   -0.2362 H   0  0  0  0  0  0  0  0  0  0  0  0
    1.9560    0.7956   -1.6290 H   0  0  0  0  0  0  0  0  0  0  0  0
   -0.6640   -1.1697    1.4816 H   0  0  0  0  0  0  0  0  0  0  0  0
   -1.1161   -2.7853    2.0411 H   0  0  0  0  0  0  0  0  0  0  0  0
   -3.0429   -2.6798    0.4500 H   0  0  0  0  0  0  0  0  0  0  0  0
    4.1384    1.6262   -1.2991 H   0  0  0  0  0  0  0  0  0  0  0  0
    4.5967   -0.0136   -0.8037 H   0  0  0  0  0  0  0  0  0  0  0  0
    1.6028    2.0120    1.3769 H   0  0  0  0  0  0  0  0  0  0  0  0
    2.3576    2.8367   -0.0033 H   0  0  0  0  0  0  0  0  0  0  0  0
    5.4737    0.8231    1.3547 H   0  0  0  0  0  0  0  0  0  0  0  0
    6.2255    1.6669   -0.0057 H   0  0  0  0  0  0  0  0  0  0  0  0
    3.3415    3.6429    2.1029 H   0  0  0  0  0  0  0  0  0  0  0  0
    3.7567    2.0006    2.6110 H   0  0  0  0  0  0  0  0  0  0  0  0
   -4.7666    0.3051   -0.8840 H   0  0  0  0  0  0  0  0  0  0  0  0
   -1.2951    1.4090    1.4390 H   0  0  0  0  0  0  0  0  0  0  0  0
   -4.3016    2.1382   -2.4415 H   0  0  0  0  0  0  0  0  0  0  0  0
   -0.8360    3.2381   -0.1244 H   0  0  0  0  0  0  0  0  0  0  0  0
   -2.7578    4.8387   -2.0103 H   0  0  0  0  0  0  0  0  0  0  0  0
   -1.1793    4.1207   -2.4093 H   0  0  0  0  0  0  0  0  0  0  0  0
   -2.6005    3.6784   -3.3500 H   0  0  0  0  0  0  0  0  0  0  0  0
  1  3  2  0  0  0  0
  1  4  2  0  0  0  0
  1  7  1  0  0  0  0
  1 21  1  0  0  0  0
  2 19  1  0  0  0  0
  2 20  1  0  0  0  0
  5 10  1  0  0  0  0
  5 12  1  0  0  0  0
  5 14  1  0  0  0  0
  6 15  1  0  0  0  0
  6 17  1  0  0  0  0
  6 18  1  0  0  0  0
  7 16  1  0  0  0  0
  7 43  1  0  0  0  0
  8  9  1  0  0  0  0
  8 11  1  0  0  0  0
  8 13  1  0  0  0  0
  8 28  1  0  0  0  0
  9 12  1  0  0  0  0
  9 15  1  0  0  0  0
  9 29  1  0  0  0  0
 10 11  1  0  0  0  0
 10 16  1  0  0  0  0
 10 30  1  0  0  0  0
 11 31  1  0  0  0  0
 11 32  1  0  0  0  0
 12 33  1  0  0  0  0
 12 34  1  0  0  0  0
 13 14  1  0  0  0  0
 13 35  1  0  0  0  0
 13 36  1  0  0  0  0
 14 37  1  0  0  0  0
 14 38  1  0  0  0  0
 15 39  1  0  0  0  0
 15 40  1  0  0  0  0
 16 41  1  0  0  0  0
 16 42  1  0  0  0  0
 17 19  1  0  0  0  0
 17 44  1  0  0  0  0
 17 45  1  0  0  0  0
 18 20  1  0  0  0  0
 18 46  1  0  0  0  0
 18 47  1  0  0  0  0
 19 48  1  0  0  0  0
 19 49  1  0  0  0  0
 20 50  1  0  0  0  0
 20 51  1  0  0  0  0
 21 22  2  0  0  0  0
 21 23  1  0  0  0  0
 22 24  1  0  0  0  0
 22 52  1  0  0  0  0
 23 25  2  0  0  0  0
 23 53  1  0  0  0  0
 24 26  2  0  0  0  0
 24 54  1  0  0  0  0
 25 26  1  0  0  0  0
 25 55  1  0  0  0  0
 26 27  1  0  0  0  0
 27 56  1  0  0  0  0
 27 57  1  0  0  0  0
 27 58  1  0  0  0  0
M  END
> <PUBCHEM_COMPOUND_CID>
28991035

> <PUBCHEM_CONFORMER_RMSD>
1

> <PUBCHEM_CONFORMER_DIVERSEORDER>
7
56
15
96
23
93
49
6
18
94
72
79
64
37
88
17
57
71
59
74
84
92
54
53
26
75
63
61
38
66
91
8
43
41
80
46
87
42
5
52
77
27
73
85
97
24
90
9
20
86
28
40
89
48
51
95
78
81
65
67
68
44
19
76
60
14
1
13
69
3
62
30
45
10
55
82
36
58
34
50
83
21
4
70
31
33
22
35
47
12
25
32
2
29
16
39
11

> <PUBCHEM_MMFF94_PARTIAL_CHARGES>
28
1 1.45
10 0.27
12 0.27
14 0.27
15 0.27
16 0.36
17 0.27
18 0.27
19 0.28
2 -0.56
20 0.28
21 -0.01
22 -0.15
23 -0.15
24 -0.15
25 -0.15
26 -0.14
27 0.14
3 -0.65
4 -0.65
43 0.42
5 -0.81
52 0.15
53 0.15
54 0.15
55 0.15
6 -0.81
7 -0.91

> <PUBCHEM_EFFECTIVE_ROTOR_COUNT>
8.4

> <PUBCHEM_PHARMACOPHORE_FEATURES>
9
1 2 acceptor
1 3 acceptor
1 4 acceptor
1 5 cation
1 6 cation
1 7 donor
6 2 6 17 18 19 20 rings
6 21 22 23 24 25 26 rings
8 5 8 9 10 11 12 13 14 rings

> <PUBCHEM_HEAVY_ATOM_COUNT>
27

> <PUBCHEM_ATOM_DEF_STEREO_COUNT>
3

> <PUBCHEM_ATOM_UDEF_STEREO_COUNT>
0

> <PUBCHEM_BOND_DEF_STEREO_COUNT>
0

> <PUBCHEM_BOND_UDEF_STEREO_COUNT>
0

> <PUBCHEM_ISOTOPIC_ATOM_COUNT>
0

> <PUBCHEM_COMPONENT_COUNT>
1

> <PUBCHEM_CACTVS_TAUTO_COUNT>
1

> <PUBCHEM_CONFORMER_ID>
01BA5E3B00000007

> <PUBCHEM_MMFF94_ENERGY>
52.2704

> <PUBCHEM_FEATURE_SELFOVERLAP>
45.689

> <PUBCHEM_SHAPE_FINGERPRINT>
10675989 125 16029287625322541884
10764073 3 17317864881973697610
11045515 52 16834573867047680054
12128747 34 17895191052917634666
12156800 1 16976960480978277667
12596602 18 16081941497661640840
13134695 92 17838061394631625614
13402501 40 18410579508664380705
14251764 3 18411418431852208648
14251764 38 18193546770960667633
14468879 13 18261383413222329537
17974551 9 17387403541557557154
21860390 5 17765695950401566182
23536364 44 17623042026427755606
23557571 272 17749968673764620713
23559900 14 18042977471394578597
238 59 18199453381816324341
238918 7 18412261753196882452
25019877 29 16912867791832301167
3187 122 17971201558586691451
3298306 158 18339630149496440940
35225 105 17980726597521423608
3524813 1 18270690868891774504
469060 322 18192703669265344743
550186 7 17967817180234592760
7399639 24 18410299112003776161
9862522 239 18340195401678498282
9981440 41 18336527374679116497

> <PUBCHEM_SHAPE_MULTIPOLES>
526.95
8.64
5.29
2.11
2.12
0.59
-0.01
-7.34
-2.14
2.39
1.59
-1.39
-0.23
4.4

> <PUBCHEM_SHAPE_SELFOVERLAP>
1092.855

> <PUBCHEM_SHAPE_VOLUME>
302.8

> <PUBCHEM_COORDINATE_TYPE>
2
5
10

$$$$
