45783640
  -OEChem-12032416273D

 53 56  0     1  0  0  0  0  0999 V2000
   -3.7953   -3.5934   -1.2647 O   0  0  0  0  0  0  0  0  0  0  0  0
   -2.3027    2.3465   -1.2172 O   0  0  0  0  0  0  0  0  0  0  0  0
    7.7723   -1.4483    1.0362 O   0  0  0  0  0  0  0  0  0  0  0  0
    5.1895   -1.2004    1.2850 O   0  0  0  0  0  0  0  0  0  0  0  0
   -4.0513   -0.0423    0.9603 N   0  0  1  0  0  0  0  0  0  0  0  0
   -1.3281    0.9280    0.2163 N   0  0  0  0  0  0  0  0  0  0  0  0
   -0.9364    2.3584   -1.5257 N   0  0  0  0  0  0  0  0  0  0  0  0
    3.1997    1.5226   -1.4477 N   0  0  0  0  0  0  0  0  0  0  0  0
    5.0113    0.3511   -0.4783 N   0  0  0  0  0  0  0  0  0  0  0  0
   -4.4082   -1.0771   -0.0072 C   0  0  0  0  0  0  0  0  0  0  0  0
   -3.8534    1.2857    0.3458 C   0  0  1  0  0  0  0  0  0  0  0  0
   -5.0778    0.1271    1.9889 C   0  0  0  0  0  0  0  0  0  0  0  0
   -4.2155    2.2886    1.4568 C   0  0  0  0  0  0  0  0  0  0  0  0
   -4.6624    1.4338    2.6341 C   0  0  0  0  0  0  0  0  0  0  0  0
   -3.3086   -1.2208   -1.0633 C   0  0  0  0  0  0  0  0  0  0  0  0
   -4.6472   -2.4217    0.6868 C   0  0  0  0  0  0  0  0  0  0  0  0
   -3.6218   -2.3822   -2.0002 C   0  0  0  0  0  0  0  0  0  0  0  0
   -4.8864   -3.5165   -0.3472 C   0  0  0  0  0  0  0  0  0  0  0  0
   -2.4469    1.4795   -0.1811 C   0  0  0  0  0  0  0  0  0  0  0  0
   -0.4294    1.4977   -0.6380 C   0  0  0  0  0  0  0  0  0  0  0  0
    0.9694    1.1863   -0.5773 C   0  0  0  0  0  0  0  0  0  0  0  0
    1.4632    0.2866    0.3609 C   0  0  0  0  0  0  0  0  0  0  0  0
    1.8710    1.7721   -1.4512 C   0  0  0  0  0  0  0  0  0  0  0  0
    2.8244    0.0042    0.3958 C   0  0  0  0  0  0  0  0  0  0  0  0
    3.6430    0.6428   -0.5217 C   0  0  0  0  0  0  0  0  0  0  0  0
    5.6788   -0.5196    0.3887 C   0  0  0  0  0  0  0  0  0  0  0  0
    7.1680   -0.5561    0.1228 C   0  0  0  0  0  0  0  0  0  0  0  0
    9.1808   -1.5324    0.8424 C   0  0  0  0  0  0  0  0  0  0  0  0
   -5.3387   -0.7965   -0.5226 H   0  0  0  0  0  0  0  0  0  0  0  0
   -4.5612    1.4393   -0.4813 H   0  0  0  0  0  0  0  0  0  0  0  0
   -6.0831    0.2199    1.5588 H   0  0  0  0  0  0  0  0  0  0  0  0
   -5.0750   -0.6751    2.7329 H   0  0  0  0  0  0  0  0  0  0  0  0
   -3.3888    2.9467    1.7456 H   0  0  0  0  0  0  0  0  0  0  0  0
   -5.0485    2.9207    1.1256 H   0  0  0  0  0  0  0  0  0  0  0  0
   -5.4750    1.9002    3.1988 H   0  0  0  0  0  0  0  0  0  0  0  0
   -3.8200    1.2728    3.3184 H   0  0  0  0  0  0  0  0  0  0  0  0
   -3.2170   -0.3345   -1.6957 H   0  0  0  0  0  0  0  0  0  0  0  0
   -2.3456   -1.4224   -0.5781 H   0  0  0  0  0  0  0  0  0  0  0  0
   -3.7666   -2.6866    1.2867 H   0  0  0  0  0  0  0  0  0  0  0  0
   -5.5128   -2.3896    1.3568 H   0  0  0  0  0  0  0  0  0  0  0  0
   -2.7916   -2.5325   -2.6978 H   0  0  0  0  0  0  0  0  0  0  0  0
   -4.5218   -2.1852   -2.5947 H   0  0  0  0  0  0  0  0  0  0  0  0
   -5.8174   -3.3469   -0.9009 H   0  0  0  0  0  0  0  0  0  0  0  0
   -4.9707   -4.4873    0.1516 H   0  0  0  0  0  0  0  0  0  0  0  0
    0.8099   -0.2082    1.0752 H   0  0  0  0  0  0  0  0  0  0  0  0
    1.5670    2.4843   -2.2127 H   0  0  0  0  0  0  0  0  0  0  0  0
    3.1331   -0.7019    1.1489 H   0  0  0  0  0  0  0  0  0  0  0  0
    5.5684    0.8451   -1.1713 H   0  0  0  0  0  0  0  0  0  0  0  0
    7.5752    0.4528    0.2529 H   0  0  0  0  0  0  0  0  0  0  0  0
    7.3349   -0.8958   -0.9055 H   0  0  0  0  0  0  0  0  0  0  0  0
    9.4065   -1.9038   -0.1618 H   0  0  0  0  0  0  0  0  0  0  0  0
    9.6466   -0.5545    0.9974 H   0  0  0  0  0  0  0  0  0  0  0  0
    9.5871   -2.2344    1.5754 H   0  0  0  0  0  0  0  0  0  0  0  0
  1 17  1  0  0  0  0
  1 18  1  0  0  0  0
  2  7  1  0  0  0  0
  2 19  1  0  0  0  0
  3 27  1  0  0  0  0
  3 28  1  0  0  0  0
  4 26  2  0  0  0  0
  5 10  1  0  0  0  0
  5 11  1  0  0  0  0
  5 12  1  0  0  0  0
  6 19  2  0  0  0  0
  6 20  1  0  0  0  0
  7 20  2  0  0  0  0
  8 23  1  0  0  0  0
  8 25  2  0  0  0  0
  9 25  1  0  0  0  0
  9 26  1  0  0  0  0
  9 48  1  0  0  0  0
 10 15  1  0  0  0  0
 10 16  1  0  0  0  0
 10 29  1  0  0  0  0
 11 13  1  0  0  0  0
 11 19  1  0  0  0  0
 11 30  1  0  0  0  0
 12 14  1  0  0  0  0
 12 31  1  0  0  0  0
 12 32  1  0  0  0  0
 13 14  1  0  0  0  0
 13 33  1  0  0  0  0
 13 34  1  0  0  0  0
 14 35  1  0  0  0  0
 14 36  1  0  0  0  0
 15 17  1  0  0  0  0
 15 37  1  0  0  0  0
 15 38  1  0  0  0  0
 16 18  1  0  0  0  0
 16 39  1  0  0  0  0
 16 40  1  0  0  0  0
 17 41  1  0  0  0  0
 17 42  1  0  0  0  0
 18 43  1  0  0  0  0
 18 44  1  0  0  0  0
 20 21  1  0  0  0  0
 21 22  1  0  0  0  0
 21 23  2  0  0  0  0
 22 24  2  0  0  0  0
 22 45  1  0  0  0  0
 23 46  1  0  0  0  0
 24 25  1  0  0  0  0
 24 47  1  0  0  0  0
 26 27  1  0  0  0  0
 27 49  1  0  0  0  0
 27 50  1  0  0  0  0
 28 51  1  0  0  0  0
 28 52  1  0  0  0  0
 28 53  1  0  0  0  0
M  END
> <PUBCHEM_COMPOUND_CID>
45783640

> <PUBCHEM_CONFORMER_RMSD>
1

> <PUBCHEM_CONFORMER_DIVERSEORDER>
1
9
19
20
24
5
14
11
12
21
10
8
23
6
7
15
2
16
17
22
3
18
13
4

> <PUBCHEM_MMFF94_PARTIAL_CHARGES>
28
1 -0.56
10 0.27
11 0.45
12 0.27
17 0.28
18 0.28
19 0.3
2 -0.02
20 0.46
21 0.05
22 -0.15
23 0.16
24 -0.15
25 0.43
26 0.57
27 0.34
28 0.28
3 -0.56
4 -0.57
45 0.15
46 0.15
47 0.15
48 0.37
5 -0.81
6 -0.57
7 -0.41
8 -0.62
9 -0.55

> <PUBCHEM_EFFECTIVE_ROTOR_COUNT>
9.2

> <PUBCHEM_PHARMACOPHORE_FEATURES>
10
1 1 acceptor
1 3 acceptor
1 4 acceptor
1 5 cation
1 9 donor
3 6 7 20 cation
5 2 6 7 19 20 rings
5 5 11 12 13 14 rings
6 1 10 15 16 17 18 rings
6 8 21 22 23 24 25 rings

> <PUBCHEM_HEAVY_ATOM_COUNT>
28

> <PUBCHEM_ATOM_DEF_STEREO_COUNT>
1

> <PUBCHEM_ATOM_UDEF_STEREO_COUNT>
0

> <PUBCHEM_BOND_DEF_STEREO_COUNT>
0

> <PUBCHEM_BOND_UDEF_STEREO_COUNT>
0

> <PUBCHEM_ISOTOPIC_ATOM_COUNT>
0

> <PUBCHEM_COMPONENT_COUNT>
1

> <PUBCHEM_CACTVS_TAUTO_COUNT>
11

> <PUBCHEM_CONFORMER_ID>
02BA9A5800000001

> <PUBCHEM_MMFF94_ENERGY>
59.3841

> <PUBCHEM_FEATURE_SELFOVERLAP>
50.758

> <PUBCHEM_SHAPE_FINGERPRINT>
10 15 15482669057621376096
10319926 262 17632308873197512964
10622 236 18122340444242540591
11036077 4 18343869909699049465
11135926 11 16153425009338532136
11963148 33 18114734916656327026
12422481 6 18130234769862140638
12523318 42 17846504759580294259
12616971 3 18187938291001773500
13583140 156 16487259867708615669
13782708 43 18335410267451387928
14344974 204 18201155550888177990
14844126 61 18059576932026522003
14856354 85 18060702779765970716
14950920 106 18060418044692928409
15021287 119 18113341911972924084
15183329 4 17749104500744128690
15320294 125 18411144623708535039
15326921 28 17983018847454076537
15348495 7 17704069608012871792
17093844 174 16988555775870072808
1754908 1 18200860813763873370
17780758 139 18202846552225258881
17913733 40 15554453994044763430
18927931 339 17676775288098847289
20028762 73 18408039633126851314
20554085 129 17559402354032389177
21033648 29 15769510754655671497
21267235 1 17531538581795200032
23522609 53 18119000011916732636
312425 54 17917436376286222258
328310 18 10953735582318510591
3711267 37 13110380439708486338
397830 11 18058997489524986328
4169191 19 11959724972256337720
46194498 28 14129921304216742630
484985 159 18409157836509945671
5104073 3 18059575840709222768
5364581 5 17345745425319374368
559249 180 18408604769328642589
58260988 114 18335704974927236835
636775 72 9871451129351506830
6431902 208 17894911832429378466
6691757 9 18130793322470339289
68570916 9 18341613759289741360
7970288 3 18119527889061537339
9953998 17 18201716237086702960

> <PUBCHEM_SHAPE_MULTIPOLES>
527.84
19.64
3.33
1.81
47.63
2.42
-0.32
13.27
-9.58
-6.04
0.99
-1.85
-0.42
-3.83

> <PUBCHEM_SHAPE_SELFOVERLAP>
1122.983

> <PUBCHEM_SHAPE_VOLUME>
293.5

> <PUBCHEM_COORDINATE_TYPE>
2
5
10

$$$$
