45784044
  -OEChem-12032416253D

 68 71  0     1  0  0  0  0  0999 V2000
    3.3007    0.0986    0.7585 O   0  0  0  0  0  0  0  0  0  0  0  0
   -6.1857    3.7283    0.6109 O   0  0  0  0  0  0  0  0  0  0  0  0
   -3.0164   -0.1012    0.4406 N   0  0  0  0  0  0  0  0  0  0  0  0
   -5.0933    1.8006   -0.0863 N   0  0  0  0  0  0  0  0  0  0  0  0
    4.2559   -1.5700   -0.3848 N   0  0  0  0  0  0  0  0  0  0  0  0
    4.8497   -0.3861   -0.7809 N   0  0  0  0  0  0  0  0  0  0  0  0
    4.0004    2.9434    0.4953 N   0  0  0  0  0  0  0  0  0  0  0  0
    5.5146    3.9144   -0.8070 N   0  0  0  0  0  0  0  0  0  0  0  0
   -0.8214   -1.6028   -0.7925 C   0  0  1  0  0  0  0  0  0  0  0  0
   -1.7571   -2.2122    0.2774 C   0  0  2  0  0  0  0  0  0  0  0  0
    0.5643   -1.3186   -0.1962 C   0  0  0  0  0  0  0  0  0  0  0  0
    1.2326   -2.5664    0.4200 C   0  0  2  0  0  0  0  0  0  0  0  0
   -0.7189   -2.5084   -2.0273 C   0  0  0  0  0  0  0  0  0  0  0  0
   -2.3275   -1.1375    1.2086 C   0  0  0  0  0  0  0  0  0  0  0  0
   -1.0777   -3.2742    1.1037 C   0  0  0  0  0  0  0  0  0  0  0  0
    0.2540   -3.4564    1.1712 C   0  0  0  0  0  0  0  0  0  0  0  0
    2.4124   -2.1115    1.2881 C   0  0  0  0  0  0  0  0  0  0  0  0
    0.5042   -2.1369   -2.8595 C   0  0  0  0  0  0  0  0  0  0  0  0
   -1.9912   -2.4139   -2.8635 C   0  0  0  0  0  0  0  0  0  0  0  0
   -3.0999    1.1457    1.2150 C   0  0  0  0  0  0  0  0  0  0  0  0
   -4.3592   -0.5548    0.0499 C   0  0  0  0  0  0  0  0  0  0  0  0
    0.8230   -4.6037    1.9600 C   0  0  0  0  0  0  0  0  0  0  0  0
   -3.7881    2.2423    0.4029 C   0  0  0  0  0  0  0  0  0  0  0  0
   -5.0771    0.5102   -0.7813 C   0  0  0  0  0  0  0  0  0  0  0  0
    3.3588   -1.2391    0.5143 C   0  0  0  0  0  0  0  0  0  0  0  0
   -6.1970    2.6456    0.0198 C   0  0  0  0  0  0  0  0  0  0  0  0
    4.2611    0.5607   -0.0881 C   0  0  0  0  0  0  0  0  0  0  0  0
   -7.4712    2.1760   -0.6358 C   0  0  0  0  0  0  0  0  0  0  0  0
    4.5916    1.9326   -0.2090 C   0  0  0  0  0  0  0  0  0  0  0  0
    5.5225    2.5564   -1.0058 C   0  0  0  0  0  0  0  0  0  0  0  0
    4.5870    4.1142    0.1028 C   0  0  0  0  0  0  0  0  0  0  0  0
    2.9490    2.8246    1.4791 C   0  0  0  0  0  0  0  0  0  0  0  0
   -1.2110   -0.6379   -1.1404 H   0  0  0  0  0  0  0  0  0  0  0  0
   -2.5934   -2.7186   -0.2141 H   0  0  0  0  0  0  0  0  0  0  0  0
    1.2169   -0.8189   -0.9188 H   0  0  0  0  0  0  0  0  0  0  0  0
    0.4307   -0.5674    0.5959 H   0  0  0  0  0  0  0  0  0  0  0  0
    1.6389   -3.1831   -0.3920 H   0  0  0  0  0  0  0  0  0  0  0  0
   -0.5998   -3.5570   -1.7272 H   0  0  0  0  0  0  0  0  0  0  0  0
   -1.4984   -0.6937    1.7762 H   0  0  0  0  0  0  0  0  0  0  0  0
   -2.9929   -1.5819    1.9621 H   0  0  0  0  0  0  0  0  0  0  0  0
   -1.7363   -3.9383    1.6596 H   0  0  0  0  0  0  0  0  0  0  0  0
    2.0566   -1.5725    2.1753 H   0  0  0  0  0  0  0  0  0  0  0  0
    2.9842   -2.9745    1.6492 H   0  0  0  0  0  0  0  0  0  0  0  0
    0.5218   -1.0679   -3.0998 H   0  0  0  0  0  0  0  0  0  0  0  0
    0.4793   -2.6730   -3.8162 H   0  0  0  0  0  0  0  0  0  0  0  0
    1.4535   -2.4160   -2.3978 H   0  0  0  0  0  0  0  0  0  0  0  0
   -2.1824   -1.3843   -3.1856 H   0  0  0  0  0  0  0  0  0  0  0  0
   -2.8726   -2.7681   -2.3229 H   0  0  0  0  0  0  0  0  0  0  0  0
   -1.9044   -3.0302   -3.7655 H   0  0  0  0  0  0  0  0  0  0  0  0
   -3.6484    0.9811    2.1520 H   0  0  0  0  0  0  0  0  0  0  0  0
   -2.0941    1.4960    1.4765 H   0  0  0  0  0  0  0  0  0  0  0  0
   -4.3099   -1.4646   -0.5565 H   0  0  0  0  0  0  0  0  0  0  0  0
   -4.9622   -0.7849    0.9386 H   0  0  0  0  0  0  0  0  0  0  0  0
    1.3640   -4.2392    2.8386 H   0  0  0  0  0  0  0  0  0  0  0  0
    0.0438   -5.2870    2.3149 H   0  0  0  0  0  0  0  0  0  0  0  0
    1.5098   -5.1881    1.3391 H   0  0  0  0  0  0  0  0  0  0  0  0
   -3.8878    3.1469    1.0115 H   0  0  0  0  0  0  0  0  0  0  0  0
   -3.1860    2.5052   -0.4757 H   0  0  0  0  0  0  0  0  0  0  0  0
   -4.5597    0.6655   -1.7361 H   0  0  0  0  0  0  0  0  0  0  0  0
   -6.0869    0.1636   -1.0106 H   0  0  0  0  0  0  0  0  0  0  0  0
   -8.2324    2.9579   -0.5534 H   0  0  0  0  0  0  0  0  0  0  0  0
   -7.3031    1.9775   -1.6976 H   0  0  0  0  0  0  0  0  0  0  0  0
   -7.8438    1.2799   -0.1325 H   0  0  0  0  0  0  0  0  0  0  0  0
    6.2012    2.1033   -1.7148 H   0  0  0  0  0  0  0  0  0  0  0  0
    4.3024    5.0754    0.5089 H   0  0  0  0  0  0  0  0  0  0  0  0
    2.6961    3.8190    1.8575 H   0  0  0  0  0  0  0  0  0  0  0  0
    3.3077    2.2061    2.3054 H   0  0  0  0  0  0  0  0  0  0  0  0
    2.0683    2.3869    1.0027 H   0  0  0  0  0  0  0  0  0  0  0  0
  1 25  1  0  0  0  0
  1 27  1  0  0  0  0
  2 26  2  0  0  0  0
  3 14  1  0  0  0  0
  3 20  1  0  0  0  0
  3 21  1  0  0  0  0
  4 23  1  0  0  0  0
  4 24  1  0  0  0  0
  4 26  1  0  0  0  0
  5  6  1  0  0  0  0
  5 25  2  0  0  0  0
  6 27  2  0  0  0  0
  7 29  1  0  0  0  0
  7 31  1  0  0  0  0
  7 32  1  0  0  0  0
  8 30  1  0  0  0  0
  8 31  2  0  0  0  0
  9 10  1  0  0  0  0
  9 11  1  0  0  0  0
  9 13  1  0  0  0  0
  9 33  1  0  0  0  0
 10 14  1  0  0  0  0
 10 15  1  0  0  0  0
 10 34  1  0  0  0  0
 11 12  1  0  0  0  0
 11 35  1  0  0  0  0
 11 36  1  0  0  0  0
 12 16  1  0  0  0  0
 12 17  1  0  0  0  0
 12 37  1  0  0  0  0
 13 18  1  0  0  0  0
 13 19  1  0  0  0  0
 13 38  1  0  0  0  0
 14 39  1  0  0  0  0
 14 40  1  0  0  0  0
 15 16  2  0  0  0  0
 15 41  1  0  0  0  0
 16 22  1  0  0  0  0
 17 25  1  0  0  0  0
 17 42  1  0  0  0  0
 17 43  1  0  0  0  0
 18 44  1  0  0  0  0
 18 45  1  0  0  0  0
 18 46  1  0  0  0  0
 19 47  1  0  0  0  0
 19 48  1  0  0  0  0
 19 49  1  0  0  0  0
 20 23  1  0  0  0  0
 20 50  1  0  0  0  0
 20 51  1  0  0  0  0
 21 24  1  0  0  0  0
 21 52  1  0  0  0  0
 21 53  1  0  0  0  0
 22 54  1  0  0  0  0
 22 55  1  0  0  0  0
 22 56  1  0  0  0  0
 23 57  1  0  0  0  0
 23 58  1  0  0  0  0
 24 59  1  0  0  0  0
 24 60  1  0  0  0  0
 26 28  1  0  0  0  0
 27 29  1  0  0  0  0
 28 61  1  0  0  0  0
 28 62  1  0  0  0  0
 28 63  1  0  0  0  0
 29 30  2  0  0  0  0
 30 64  1  0  0  0  0
 31 65  1  0  0  0  0
 32 66  1  0  0  0  0
 32 67  1  0  0  0  0
 32 68  1  0  0  0  0
M  END
> <PUBCHEM_COMPOUND_CID>
45784044

> <PUBCHEM_CONFORMER_RMSD>
1.2

> <PUBCHEM_CONFORMER_DIVERSEORDER>
7
23
14
38
77
63
92
105
6
73
86
46
11
35
59
115
90
31
109
40
65
16
56
34
88
83
97
67
42
71
24
29
104
57
27
20
114
72
13
118
85
96
51
94
87
28
119
41
70
26
102
15
66
55
21
10
2
74
47
89
93
8
80
103
99
48
78
84
30
95
117
39
75
25
17
44
19
18
52
107
9
60
76
12
113
111
43
32
79
64
108
68
3
53
101
106
36
22
50
58
110
37
98
69
54
1
62
33
5
4
61
81
91
49
100
82
45
112
116

> <PUBCHEM_MMFF94_PARTIAL_CHARGES>
30
1 -0.28
10 0.14
12 0.14
14 0.27
15 -0.29
16 -0.28
17 0.18
2 -0.57
20 0.27
21 0.27
22 0.14
23 0.3
24 0.3
25 0.3
26 0.57
27 0.48
28 0.06
29 -0.15
3 -0.81
30 0.08
31 0.04
32 0.26
4 -0.66
41 0.15
5 -0.34
6 -0.34
64 0.15
65 0.15
7 0.05
8 -0.57

> <PUBCHEM_EFFECTIVE_ROTOR_COUNT>
9

> <PUBCHEM_PHARMACOPHORE_FEATURES>
8
1 2 acceptor
1 3 cation
3 13 18 19 hydrophobe
3 7 8 31 cation
5 1 5 6 25 27 rings
5 7 8 29 30 31 rings
6 3 4 20 21 23 24 rings
6 9 10 11 12 15 16 rings

> <PUBCHEM_HEAVY_ATOM_COUNT>
32

> <PUBCHEM_ATOM_DEF_STEREO_COUNT>
3

> <PUBCHEM_ATOM_UDEF_STEREO_COUNT>
0

> <PUBCHEM_BOND_DEF_STEREO_COUNT>
0

> <PUBCHEM_BOND_UDEF_STEREO_COUNT>
0

> <PUBCHEM_ISOTOPIC_ATOM_COUNT>
0

> <PUBCHEM_COMPONENT_COUNT>
1

> <PUBCHEM_CACTVS_TAUTO_COUNT>
1

> <PUBCHEM_CONFORMER_ID>
02BA9BEC00000007

> <PUBCHEM_MMFF94_ENERGY>
53.9626

> <PUBCHEM_FEATURE_SELFOVERLAP>
40.597

> <PUBCHEM_SHAPE_FINGERPRINT>
10165383 225 17677625172460602510
10675989 125 18338800013907010360
10928967 22 9869542449805267180
10937287 8 18335138730296056626
11505856 67 18267859674196616463
12422481 6 16226044479145543119
1361 2 18335139778236967193
13944108 23 18052823546271442241
14142895 15 18337950101105802693
14251764 75 18409736161866297553
14705955 166 17244715790357714208
14849402 71 18118401748177291914
15082195 135 17845932919102624765
15142526 21 18260829301995131739
15198563 99 17694500747137507199
15575132 122 18272652393984168797
17980427 26 18262503840961516278
20775530 9 8899230498896863632
21223535 225 18197221563072072772
21475661 188 18410576158626845326
21716022 299 14690613732643962079
22122407 14 18336553715956324705
23559900 14 16697507188994032839
23845131 108 18113902649987040171
27425 322 18411136913994858583
2838139 119 18412262822469880175
3388396 114 16685968316344190548
3472631 163 18339924797485878255
376196 1 18410577292377197578
469060 322 15793122912822737106
508706 21 17907858762546212872
57527585 21 17907568478523175358
5951187 136 18197507224902593463
6036956 94 17614002214943646725
7288768 16 17823413980078096530
9849439 229 18260831530961357905

> <PUBCHEM_SHAPE_MULTIPOLES>
616.92
14.79
6.27
1.9
10.48
1.36
1.27
24.1
1.67
-2.64
-1.39
0.14
-2.08
-1.39

> <PUBCHEM_SHAPE_SELFOVERLAP>
1295.43

> <PUBCHEM_SHAPE_VOLUME>
349.6

> <PUBCHEM_COORDINATE_TYPE>
2
5
10

$$$$
