11865954
  -OEChem-12032416373D

 60 64  0     1  0  0  0  0  0999 V2000
   -4.1262    3.9239    1.2739 S   0  0  0  0  0  0  0  0  0  0  0  0
   -1.1887    0.1583   -1.4295 O   0  0  0  0  0  0  0  0  0  0  0  0
   -1.5104   -5.0461    0.9327 O   0  0  0  0  0  0  0  0  0  0  0  0
   -2.2024    1.6679    1.4444 O   0  0  0  0  0  0  0  0  0  0  0  0
    4.2223   -1.4507   -1.1195 O   0  0  0  0  0  0  0  0  0  0  0  0
    2.9576    2.1152    0.4717 O   0  0  0  0  0  0  0  0  0  0  0  0
   -0.4989   -1.9146   -0.6457 N   0  0  0  0  0  0  0  0  0  0  0  0
   -3.4509    0.1918    0.1537 N   0  0  0  0  0  0  0  0  0  0  0  0
   -2.9502   -3.3996    0.3646 N   0  0  0  0  0  0  0  0  0  0  0  0
    2.4091   -1.8746    0.2672 N   0  0  0  0  0  0  0  0  0  0  0  0
   -2.5306   -0.9395    0.2490 C   0  0  1  0  0  0  0  0  0  0  0  0
   -3.3416   -2.1433   -0.2369 C   0  0  2  0  0  0  0  0  0  0  0  0
   -0.4800   -2.9370    0.4057 C   0  0  2  0  0  0  0  0  0  0  0  0
    0.8105   -3.7319    0.1227 C   0  0  0  0  0  0  0  0  0  0  0  0
    1.7011   -2.7514   -0.6347 C   0  0  1  0  0  0  0  0  0  0  0  0
    0.6939   -1.9870   -1.4813 C   0  0  0  0  0  0  0  0  0  0  0  0
   -4.7796   -1.7437    0.0827 C   0  0  0  0  0  0  0  0  0  0  0  0
   -1.3435   -0.8103   -0.6874 C   0  0  0  0  0  0  0  0  0  0  0  0
   -4.7849   -0.2574   -0.2425 C   0  0  0  0  0  0  0  0  0  0  0  0
   -1.6748   -3.8924    0.5184 C   0  0  0  0  0  0  0  0  0  0  0  0
   -3.1225    1.4453    0.6591 C   0  0  0  0  0  0  0  0  0  0  0  0
    3.6265   -1.2910   -0.0573 C   0  0  0  0  0  0  0  0  0  0  0  0
   -3.9238    2.5989    0.2133 C   0  0  0  0  0  0  0  0  0  0  0  0
    4.1420   -0.4148    1.0682 C   0  0  0  0  0  0  0  0  0  0  0  0
   -4.5673    2.7841   -0.9859 C   0  0  0  0  0  0  0  0  0  0  0  0
    4.9373    0.7693    0.5860 C   0  0  0  0  0  0  0  0  0  0  0  0
   -5.2407    4.0387   -1.0380 C   0  0  0  0  0  0  0  0  0  0  0  0
   -5.0828    4.7593    0.1254 C   0  0  0  0  0  0  0  0  0  0  0  0
    4.3034    1.9738    0.3125 C   0  0  0  0  0  0  0  0  0  0  0  0
    6.3094    0.6317    0.4220 C   0  0  0  0  0  0  0  0  0  0  0  0
    5.0550    3.0609   -0.1337 C   0  0  0  0  0  0  0  0  0  0  0  0
    7.0611    1.7188   -0.0240 C   0  0  0  0  0  0  0  0  0  0  0  0
    6.4338    2.9333   -0.3020 C   0  0  0  0  0  0  0  0  0  0  0  0
    2.1367    1.8141   -0.6550 C   0  0  0  0  0  0  0  0  0  0  0  0
   -2.1975   -1.0164    1.2898 H   0  0  0  0  0  0  0  0  0  0  0  0
   -3.2470   -2.2775   -1.3236 H   0  0  0  0  0  0  0  0  0  0  0  0
   -0.3899   -2.4144    1.3663 H   0  0  0  0  0  0  0  0  0  0  0  0
    0.5982   -4.5934   -0.5240 H   0  0  0  0  0  0  0  0  0  0  0  0
    1.2661   -4.1111    1.0438 H   0  0  0  0  0  0  0  0  0  0  0  0
    2.4329   -3.2713   -1.2618 H   0  0  0  0  0  0  0  0  0  0  0  0
    0.4185   -2.5597   -2.3741 H   0  0  0  0  0  0  0  0  0  0  0  0
    1.0335   -0.9939   -1.7892 H   0  0  0  0  0  0  0  0  0  0  0  0
   -5.5184   -2.3048   -0.4971 H   0  0  0  0  0  0  0  0  0  0  0  0
   -4.9952   -1.9003    1.1473 H   0  0  0  0  0  0  0  0  0  0  0  0
   -5.5695    0.2886    0.2881 H   0  0  0  0  0  0  0  0  0  0  0  0
   -4.8884   -0.1076   -1.3218 H   0  0  0  0  0  0  0  0  0  0  0  0
   -3.6961   -4.0736    0.5104 H   0  0  0  0  0  0  0  0  0  0  0  0
    1.9700   -1.6473    1.1547 H   0  0  0  0  0  0  0  0  0  0  0  0
    3.3179   -0.0739    1.7066 H   0  0  0  0  0  0  0  0  0  0  0  0
    4.7663   -1.0476    1.7126 H   0  0  0  0  0  0  0  0  0  0  0  0
   -4.5484    2.0840   -1.8102 H   0  0  0  0  0  0  0  0  0  0  0  0
   -5.8066    4.3973   -1.8879 H   0  0  0  0  0  0  0  0  0  0  0  0
   -5.4822    5.7371    0.3551 H   0  0  0  0  0  0  0  0  0  0  0  0
    6.8087   -0.3098    0.6331 H   0  0  0  0  0  0  0  0  0  0  0  0
    4.5733    4.0103   -0.3517 H   0  0  0  0  0  0  0  0  0  0  0  0
    8.1346    1.6196   -0.1556 H   0  0  0  0  0  0  0  0  0  0  0  0
    7.0191    3.7796   -0.6494 H   0  0  0  0  0  0  0  0  0  0  0  0
    1.1789    1.4345   -0.2898 H   0  0  0  0  0  0  0  0  0  0  0  0
    1.9576    2.7318   -1.2230 H   0  0  0  0  0  0  0  0  0  0  0  0
    2.5882    1.0644   -1.3120 H   0  0  0  0  0  0  0  0  0  0  0  0
  1 23  1  0  0  0  0
  1 28  1  0  0  0  0
  2 18  2  0  0  0  0
  3 20  2  0  0  0  0
  4 21  2  0  0  0  0
  5 22  2  0  0  0  0
  6 29  1  0  0  0  0
  6 34  1  0  0  0  0
  7 13  1  0  0  0  0
  7 16  1  0  0  0  0
  7 18  1  0  0  0  0
  8 11  1  0  0  0  0
  8 19  1  0  0  0  0
  8 21  1  0  0  0  0
  9 12  1  0  0  0  0
  9 20  1  0  0  0  0
  9 47  1  0  0  0  0
 10 15  1  0  0  0  0
 10 22  1  0  0  0  0
 10 48  1  0  0  0  0
 11 12  1  0  0  0  0
 11 18  1  0  0  0  0
 11 35  1  0  0  0  0
 12 17  1  0  0  0  0
 12 36  1  0  0  0  0
 13 14  1  0  0  0  0
 13 20  1  0  0  0  0
 13 37  1  0  0  0  0
 14 15  1  0  0  0  0
 14 38  1  0  0  0  0
 14 39  1  0  0  0  0
 15 16  1  0  0  0  0
 15 40  1  0  0  0  0
 16 41  1  0  0  0  0
 16 42  1  0  0  0  0
 17 19  1  0  0  0  0
 17 43  1  0  0  0  0
 17 44  1  0  0  0  0
 19 45  1  0  0  0  0
 19 46  1  0  0  0  0
 21 23  1  0  0  0  0
 22 24  1  0  0  0  0
 23 25  2  0  0  0  0
 24 26  1  0  0  0  0
 24 49  1  0  0  0  0
 24 50  1  0  0  0  0
 25 27  1  0  0  0  0
 25 51  1  0  0  0  0
 26 29  1  0  0  0  0
 26 30  2  0  0  0  0
 27 28  2  0  0  0  0
 27 52  1  0  0  0  0
 28 53  1  0  0  0  0
 29 31  2  0  0  0  0
 30 32  1  0  0  0  0
 30 54  1  0  0  0  0
 31 33  1  0  0  0  0
 31 55  1  0  0  0  0
 32 33  2  0  0  0  0
 32 56  1  0  0  0  0
 33 57  1  0  0  0  0
 34 58  1  0  0  0  0
 34 59  1  0  0  0  0
 34 60  1  0  0  0  0
M  END
> <PUBCHEM_COMPOUND_CID>
11865954

> <PUBCHEM_CONFORMER_RMSD>
1

> <PUBCHEM_CONFORMER_DIVERSEORDER>
1
161
127
167
129
62
131
100
42
117
32
168
163
91
15
87
24
128
68
164
16
134
123
33
133
110
57
188
187
93
85
190
71
82
75
159
10
3
122
137
156
76
5
118
14
36
72
104
184
153
86
142
132
170
38
81
29
165
102
99
21
130
155
124
27
18
105
139
7
28
191
143
95
90
148
78
9
112
51
171
65
125
108
121
149
60
25
182
111
59
20
138
180
146
185
77
58
23
88
179
22
101
26
47
158
189
46
48
4
106
74
175
34
151
114
31
52
8
30
98
53
97
115
44
154
37
176
40
120
113
2
177
144
11
107
73
181
152
94
6
39
136
69
55
116
157
96
49
172
17
147
194
61
169
140
162
79
186
63
145
80
19
173
83
54
193
64
109
174
84
45
178
35
166
13
50
70
89
41
43
56
192
92
160
141
150
12
126
103
135
66
67
183
119

> <PUBCHEM_MMFF94_PARTIAL_CHARGES>
41
1 -0.08
10 -0.73
11 0.36
12 0.3
13 0.36
15 0.3
16 0.3
18 0.57
19 0.3
2 -0.57
20 0.57
21 0.71
22 0.57
23 -0.05
24 0.2
25 -0.15
26 -0.14
27 -0.15
28 -0.11
29 0.08
3 -0.57
30 -0.15
31 -0.15
32 -0.15
33 -0.15
34 0.28
4 -0.57
47 0.37
48 0.37
5 -0.57
51 0.15
52 0.15
53 0.15
54 0.15
55 0.15
56 0.15
57 0.15
6 -0.36
7 -0.66
8 -0.66
9 -0.73

> <PUBCHEM_EFFECTIVE_ROTOR_COUNT>
8.4

> <PUBCHEM_PHARMACOPHORE_FEATURES>
12
1 10 donor
1 2 acceptor
1 3 acceptor
1 4 acceptor
1 5 acceptor
1 6 acceptor
1 9 donor
5 1 23 25 27 28 rings
5 7 13 14 15 16 rings
5 8 11 12 17 19 rings
6 26 29 30 31 32 33 rings
7 7 9 11 12 13 18 20 rings

> <PUBCHEM_HEAVY_ATOM_COUNT>
34

> <PUBCHEM_ATOM_DEF_STEREO_COUNT>
4

> <PUBCHEM_ATOM_UDEF_STEREO_COUNT>
0

> <PUBCHEM_BOND_DEF_STEREO_COUNT>
0

> <PUBCHEM_BOND_UDEF_STEREO_COUNT>
0

> <PUBCHEM_ISOTOPIC_ATOM_COUNT>
0

> <PUBCHEM_COMPONENT_COUNT>
1

> <PUBCHEM_CACTVS_TAUTO_COUNT>
4

> <PUBCHEM_CONFORMER_ID>
00B50F6200000001

> <PUBCHEM_MMFF94_ENERGY>
111.4194

> <PUBCHEM_FEATURE_SELFOVERLAP>
60.982

> <PUBCHEM_SHAPE_FINGERPRINT>
10439779 11 18410564111797552920
10675989 125 18053381007361992088
10864689 126 18121789322654698734
11513181 2 18131637811477269934
12107183 9 18262503798823772458
12925494 130 18340199700872852465
13965767 371 17823978931112003886
14415360 78 18190171296038182229
14705955 166 17823429360092279002
14790565 3 18410011009438782052
15001296 14 18050283971206940136
15320467 1 18338797952259339304
15351339 4 18199177404751726761
15400415 2 18337952294637033856
16728433 281 18267603432743977300
19053607 189 18269541785195041216
19309040 13 17273708559263309253
20580484 21 17257654413819653161
21475661 188 18268427932275226926
23522609 53 17676780872622190020
24771293 8 18200047269432776083
3380486 145 18048332329667711235
376196 1 18268712710393875583
4058900 60 18336828593715503832
4144715 1 18335991947662949418
508706 21 18340494464425174686
550186 72 17906451378508059863
57527585 21 18199731691302100190
5951187 136 17768816364369403269
6036956 94 18191028004870939509
6608658 132 18055906842989248895
9849439 229 18336271132798943045
9961470 85 18340765932454990384
9981440 41 18335145272047946785

> <PUBCHEM_SHAPE_MULTIPOLES>
654.28
15.43
6.95
1.09
15.95
0.56
0.07
-19.29
-0.28
-7.23
-0.74
-0.38
-0.18
0.41

> <PUBCHEM_SHAPE_SELFOVERLAP>
1408.161

> <PUBCHEM_SHAPE_VOLUME>
360.4

> <PUBCHEM_COORDINATE_TYPE>
2
5
10

$$$$
