28962883
  -OEChem-12032416343D

 69 72  0     1  0  0  0  0  0999 V2000
   -1.5656   -1.6232   -1.0373 O   0  0  0  0  0  0  0  0  0  0  0  0
   -6.4340    0.4347   -0.7871 O   0  0  0  0  0  0  0  0  0  0  0  0
    4.1887    0.8564    1.7855 O   0  0  0  0  0  0  0  0  0  0  0  0
    3.0744    1.0560   -0.2407 N   0  0  0  0  0  0  0  0  0  0  0  0
   -5.9945   -1.6281    0.1780 N   0  0  0  0  0  0  0  0  0  0  0  0
   -1.1129    1.9708    0.1682 C   0  0  1  0  0  0  0  0  0  0  0  0
   -0.7370    0.4800   -0.1234 C   0  0  2  0  0  0  0  0  0  0  0  0
    0.7260    0.3719   -0.6852 C   0  0  1  0  0  0  0  0  0  0  0  0
   -1.8337   -0.2217   -0.9753 C   0  0  2  0  0  0  0  0  0  0  0  0
   -2.5126    2.0313    0.8241 C   0  0  0  0  0  0  0  0  0  0  0  0
   -3.2475   -0.0685   -0.3676 C   0  0  1  0  0  0  0  0  0  0  0  0
   -0.0963    2.5598    1.1734 C   0  0  0  0  0  0  0  0  0  0  0  0
    1.7310    1.0341    0.2988 C   0  0  2  0  0  0  0  0  0  0  0  0
   -3.5958    1.3800   -0.0255 C   0  0  0  0  0  0  0  0  0  0  0  0
    1.3448    2.4592    0.6942 C   0  0  0  0  0  0  0  0  0  0  0  0
   -1.1259    2.8418   -1.1137 C   0  0  0  0  0  0  0  0  0  0  0  0
   -4.3280   -0.6521   -1.2862 C   0  0  2  0  0  0  0  0  0  0  0  0
    1.1722   -1.0728   -0.9675 C   0  0  0  0  0  0  0  0  0  0  0  0
   -4.3047    0.0530   -2.6378 C   0  0  0  0  0  0  0  0  0  0  0  0
   -5.6956   -0.5338   -0.6207 C   0  0  0  0  0  0  0  0  0  0  0  0
   -7.2327   -1.7441    0.9130 C   0  0  0  0  0  0  0  0  0  0  0  0
    4.2001    0.9638    0.5619 C   0  0  0  0  0  0  0  0  0  0  0  0
   -7.3969   -1.1079    2.2619 C   0  0  0  0  0  0  0  0  0  0  0  0
   -7.3305   -2.6020    2.1402 C   0  0  0  0  0  0  0  0  0  0  0  0
    5.4723    1.0060   -0.2626 C   0  0  0  0  0  0  0  0  0  0  0  0
    6.3202   -0.2296   -0.1150 C   0  0  0  0  0  0  0  0  0  0  0  0
    7.2962   -0.2907    0.8795 C   0  0  0  0  0  0  0  0  0  0  0  0
    6.1298   -1.3130   -0.9728 C   0  0  0  0  0  0  0  0  0  0  0  0
    8.0818   -1.4352    1.0166 C   0  0  0  0  0  0  0  0  0  0  0  0
    6.9152   -2.4574   -0.8358 C   0  0  0  0  0  0  0  0  0  0  0  0
    7.8913   -2.5185    0.1588 C   0  0  0  0  0  0  0  0  0  0  0  0
   -0.7186   -0.0498    0.8427 H   0  0  0  0  0  0  0  0  0  0  0  0
    0.7768    0.9001   -1.6457 H   0  0  0  0  0  0  0  0  0  0  0  0
   -1.7682    0.1675   -1.9931 H   0  0  0  0  0  0  0  0  0  0  0  0
   -2.7930    3.0731    1.0266 H   0  0  0  0  0  0  0  0  0  0  0  0
   -2.4847    1.5276    1.7999 H   0  0  0  0  0  0  0  0  0  0  0  0
   -3.2720   -0.6412    0.5717 H   0  0  0  0  0  0  0  0  0  0  0  0
   -0.1793    2.0327    2.1334 H   0  0  0  0  0  0  0  0  0  0  0  0
   -0.3319    3.6116    1.3801 H   0  0  0  0  0  0  0  0  0  0  0  0
    1.7520    0.4292    1.2160 H   0  0  0  0  0  0  0  0  0  0  0  0
   -4.5222    1.4268    0.5580 H   0  0  0  0  0  0  0  0  0  0  0  0
   -3.7590    2.0012   -0.9082 H   0  0  0  0  0  0  0  0  0  0  0  0
    1.5106    3.1431   -0.1471 H   0  0  0  0  0  0  0  0  0  0  0  0
    2.0080    2.8158    1.4929 H   0  0  0  0  0  0  0  0  0  0  0  0
   -0.1452    2.9088   -1.5914 H   0  0  0  0  0  0  0  0  0  0  0  0
   -1.4368    3.8667   -0.8795 H   0  0  0  0  0  0  0  0  0  0  0  0
   -1.8142    2.4595   -1.8725 H   0  0  0  0  0  0  0  0  0  0  0  0
   -4.1297   -1.7169   -1.4651 H   0  0  0  0  0  0  0  0  0  0  0  0
    0.9968   -1.7194   -0.1017 H   0  0  0  0  0  0  0  0  0  0  0  0
    2.2373   -1.1314   -1.2139 H   0  0  0  0  0  0  0  0  0  0  0  0
    0.6497   -1.4849   -1.8354 H   0  0  0  0  0  0  0  0  0  0  0  0
    3.1784    1.2075   -1.2397 H   0  0  0  0  0  0  0  0  0  0  0  0
   -1.5702   -1.9721   -0.1297 H   0  0  0  0  0  0  0  0  0  0  0  0
   -4.4639    1.1322   -2.5901 H   0  0  0  0  0  0  0  0  0  0  0  0
   -5.1266   -0.3340   -3.2543 H   0  0  0  0  0  0  0  0  0  0  0  0
   -3.3929   -0.1467   -3.2059 H   0  0  0  0  0  0  0  0  0  0  0  0
   -8.0986   -1.7437    0.2582 H   0  0  0  0  0  0  0  0  0  0  0  0
   -5.3264   -2.3890    0.2661 H   0  0  0  0  0  0  0  0  0  0  0  0
   -8.3556   -0.6618    2.4958 H   0  0  0  0  0  0  0  0  0  0  0  0
   -6.5462   -0.6004    2.7002 H   0  0  0  0  0  0  0  0  0  0  0  0
   -6.4358   -3.0961    2.4986 H   0  0  0  0  0  0  0  0  0  0  0  0
   -8.2449   -3.1619    2.2936 H   0  0  0  0  0  0  0  0  0  0  0  0
    6.0385    1.8900    0.0582 H   0  0  0  0  0  0  0  0  0  0  0  0
    5.2583    1.1726   -1.3254 H   0  0  0  0  0  0  0  0  0  0  0  0
    7.4531    0.5460    1.5551 H   0  0  0  0  0  0  0  0  0  0  0  0
    5.3708   -1.2778   -1.7498 H   0  0  0  0  0  0  0  0  0  0  0  0
    8.8414   -1.4830    1.7914 H   0  0  0  0  0  0  0  0  0  0  0  0
    6.7665   -3.3012   -1.5031 H   0  0  0  0  0  0  0  0  0  0  0  0
    8.5028   -3.4098    0.2655 H   0  0  0  0  0  0  0  0  0  0  0  0
  1  9  1  0  0  0  0
  1 53  1  0  0  0  0
  2 20  2  0  0  0  0
  3 22  2  0  0  0  0
  4 13  1  0  0  0  0
  4 22  1  0  0  0  0
  4 52  1  0  0  0  0
  5 20  1  0  0  0  0
  5 21  1  0  0  0  0
  5 58  1  0  0  0  0
  6  7  1  0  0  0  0
  6 10  1  0  0  0  0
  6 12  1  0  0  0  0
  6 16  1  0  0  0  0
  7  8  1  0  0  0  0
  7  9  1  0  0  0  0
  7 32  1  0  0  0  0
  8 13  1  0  0  0  0
  8 18  1  0  0  0  0
  8 33  1  0  0  0  0
  9 11  1  0  0  0  0
  9 34  1  0  0  0  0
 10 14  1  0  0  0  0
 10 35  1  0  0  0  0
 10 36  1  0  0  0  0
 11 14  1  0  0  0  0
 11 17  1  0  0  0  0
 11 37  1  0  0  0  0
 12 15  1  0  0  0  0
 12 38  1  0  0  0  0
 12 39  1  0  0  0  0
 13 15  1  0  0  0  0
 13 40  1  0  0  0  0
 14 41  1  0  0  0  0
 14 42  1  0  0  0  0
 15 43  1  0  0  0  0
 15 44  1  0  0  0  0
 16 45  1  0  0  0  0
 16 46  1  0  0  0  0
 16 47  1  0  0  0  0
 17 19  1  0  0  0  0
 17 20  1  0  0  0  0
 17 48  1  0  0  0  0
 18 49  1  0  0  0  0
 18 50  1  0  0  0  0
 18 51  1  0  0  0  0
 19 54  1  0  0  0  0
 19 55  1  0  0  0  0
 19 56  1  0  0  0  0
 21 23  1  0  0  0  0
 21 24  1  0  0  0  0
 21 57  1  0  0  0  0
 22 25  1  0  0  0  0
 23 24  1  0  0  0  0
 23 59  1  0  0  0  0
 23 60  1  0  0  0  0
 24 61  1  0  0  0  0
 24 62  1  0  0  0  0
 25 26  1  0  0  0  0
 25 63  1  0  0  0  0
 25 64  1  0  0  0  0
 26 27  2  0  0  0  0
 26 28  1  0  0  0  0
 27 29  1  0  0  0  0
 27 65  1  0  0  0  0
 28 30  2  0  0  0  0
 28 66  1  0  0  0  0
 29 31  2  0  0  0  0
 29 67  1  0  0  0  0
 30 31  1  0  0  0  0
 30 68  1  0  0  0  0
 31 69  1  0  0  0  0
M  END
> <PUBCHEM_COMPOUND_CID>
28962883

> <PUBCHEM_CONFORMER_RMSD>
1

> <PUBCHEM_CONFORMER_DIVERSEORDER>
1
120
131
12
154
85
124
70
134
137
51
92
152
38
107
136
108
141
101
36
8
13
34
60
127
98
156
160
68
113
19
22
121
105
90
146
61
64
24
114
133
97
46
81
48
155
80
122
21
37
157
52
110
140
93
89
123
95
135
49
6
2
94
109
69
18
159
45
42
144
119
116
153
28
72
39
31
29
63
87
147
150
143
47
14
148
91
67
27
55
43
74
9
71
158
138
83
4
126
32
3
111
115
10
50
57
100
86
58
104
125
62
15
142
149
59
5
130
41
84
79
53
76
20
102
118
33
17
145
56
139
7
11
82
25
103
44
35
23
117
151
73
132
128
77
54
78
65
40
112
99
96
75
129
106
88
30
26
16
66

> <PUBCHEM_MMFF94_PARTIAL_CHARGES>
33
1 -0.68
13 0.3
17 0.06
2 -0.57
20 0.57
21 0.05
22 0.57
23 -0.2
24 -0.2
25 0.2
26 -0.14
27 -0.15
28 -0.15
29 -0.15
3 -0.57
30 -0.15
31 -0.15
4 -0.73
5 -0.58
52 0.37
53 0.4
57 0.1
58 0.37
59 0.1
60 0.1
61 0.1
62 0.1
65 0.15
66 0.15
67 0.15
68 0.15
69 0.15
9 0.28

> <PUBCHEM_EFFECTIVE_ROTOR_COUNT>
10.2

> <PUBCHEM_PHARMACOPHORE_FEATURES>
10
1 1 acceptor
1 1 donor
1 19 hydrophobe
1 2 acceptor
1 3 acceptor
1 4 donor
1 5 donor
6 26 27 28 29 30 31 rings
6 6 7 8 12 13 15 rings
6 6 7 9 10 11 14 rings

> <PUBCHEM_HEAVY_ATOM_COUNT>
31

> <PUBCHEM_ATOM_DEF_STEREO_COUNT>
7

> <PUBCHEM_ATOM_UDEF_STEREO_COUNT>
0

> <PUBCHEM_BOND_DEF_STEREO_COUNT>
0

> <PUBCHEM_BOND_UDEF_STEREO_COUNT>
0

> <PUBCHEM_ISOTOPIC_ATOM_COUNT>
0

> <PUBCHEM_COMPONENT_COUNT>
1

> <PUBCHEM_CACTVS_TAUTO_COUNT>
4

> <PUBCHEM_CONFORMER_ID>
01B9F04300000001

> <PUBCHEM_MMFF94_ENERGY>
88.8322

> <PUBCHEM_FEATURE_SELFOVERLAP>
50.76

> <PUBCHEM_SHAPE_FINGERPRINT>
11007060 377 11314308326235769221
11387372 6 18261394520314192883
11456790 92 17203613700475128770
11578821 258 10447923983876180738
11991303 11 15430332329903775130
12166972 35 18260547831756591164
12539747 164 18113908117928722489
12760667 363 18201993322522512428
13668630 136 17967531276850706992
13782708 43 18333724740919916780
14028597 1 16558759974797136954
14344974 204 17971763417841245787
14347332 77 18341326687859835356
14400156 162 18336557070922154827
15183329 4 18131913754725363646
15350500 55 11240003338709702690
15510800 12 18335708243086132754
18335252 98 18409450323888317248
19246450 95 17560811983641572401
20982279 24 18262254239195572538
21033648 29 12823302294673374289
21130935 74 17845648286882301199
21150785 3 14851603293079820803
21267235 1 18413390938664256388
21424621 283 10952050056910750332
21781051 124 18187656829168680818
21792934 111 17917422112372992793
21792961 116 18334285445343881885
23522609 53 17416140601116576953
23559900 14 18198609102931268392
23569943 247 17988354884572992423
23576562 1 8646189425578252851
3178227 256 18271533086335323043
3383291 50 18410571799246187458
34797466 226 17458345294945342804
393628 179 12319466442212850819
4149490 64 17968656138240848600
4169191 19 8142091978742342239
44880568 143 17095518479271568172
5104073 3 17845945013108148819
5283384 27 10231761076138980155
5470011 282 17968099750406586020
58083652 198 17489577992042195801
6009941 240 18261673689198862069
6058803 2 16841337981267484061
636775 8 18260272936796254346
9980921 7 9655280528236701338
999808 66 18408606985262943451

> <PUBCHEM_SHAPE_MULTIPOLES>
610.4
24.38
2.92
1.73
14.9
0.23
0.05
-23.5
7.52
-0.06
0.77
-2.82
-0.46
2.66

> <PUBCHEM_SHAPE_SELFOVERLAP>
1273.199

> <PUBCHEM_SHAPE_VOLUME>
342.9

> <PUBCHEM_COORDINATE_TYPE>
2
5
10

$$$$
