75536343
  -OEChem-12032416303D

 59 62  0     1  0  0  0  0  0999 V2000
    3.1653   -0.7069    0.9747 O   0  0  0  0  0  0  0  0  0  0  0  0
    5.8936   -0.1753    1.9557 O   0  0  0  0  0  0  0  0  0  0  0  0
   -1.5319    3.5191   -1.3458 O   0  0  0  0  0  0  0  0  0  0  0  0
   -0.6294   -2.3206   -1.6780 O   0  0  0  0  0  0  0  0  0  0  0  0
   -2.7960   -0.8843   -0.1659 O   0  0  0  0  0  0  0  0  0  0  0  0
    1.5395    1.6266    0.8014 N   0  0  0  0  0  0  0  0  0  0  0  0
    0.7449   -2.4176   -1.8589 N   0  0  0  0  0  0  0  0  0  0  0  0
    3.7216    0.5875    1.2396 C   0  0  1  0  0  0  0  0  0  0  0  0
    5.2306    0.6138    0.9643 C   0  0  2  0  0  0  0  0  0  0  0  0
    3.4041   -1.2139   -0.3405 C   0  0  1  0  0  0  0  0  0  0  0  0
    5.5822    0.0345   -0.4033 C   0  0  0  0  0  0  0  0  0  0  0  0
    4.9037   -1.3159   -0.6148 C   0  0  0  0  0  0  0  0  0  0  0  0
    2.9595    1.6779    0.4895 C   0  0  0  0  0  0  0  0  0  0  0  0
    0.8112    2.6830    0.1030 C   0  0  0  0  0  0  0  0  0  0  0  0
    2.7416   -2.5833   -0.4311 C   0  0  0  0  0  0  0  0  0  0  0  0
   -0.5191    2.9880    0.7987 C   0  0  0  0  0  0  0  0  0  0  0  0
    0.5611    2.2839   -1.3541 C   0  0  0  0  0  0  0  0  0  0  0  0
   -1.3244    3.9946   -0.0157 C   0  0  0  0  0  0  0  0  0  0  0  0
   -0.3042    3.3293   -2.0492 C   0  0  0  0  0  0  0  0  0  0  0  0
    1.2532   -2.4709   -0.6245 C   0  0  0  0  0  0  0  0  0  0  0  0
    0.2573   -2.4121    0.3657 C   0  0  0  0  0  0  0  0  0  0  0  0
   -0.9074   -2.3182   -0.3492 C   0  0  0  0  0  0  0  0  0  0  0  0
   -2.3237   -2.2210    0.0239 C   0  0  0  0  0  0  0  0  0  0  0  0
   -4.0875   -0.6363    0.2061 C   0  0  0  0  0  0  0  0  0  0  0  0
   -4.8691   -1.6615    0.7386 C   0  0  0  0  0  0  0  0  0  0  0  0
   -4.6238    0.6422    0.0533 C   0  0  0  0  0  0  0  0  0  0  0  0
   -6.1873   -1.4083    1.1182 C   0  0  0  0  0  0  0  0  0  0  0  0
   -5.9418    0.8955    0.4329 C   0  0  0  0  0  0  0  0  0  0  0  0
   -6.7237   -0.1298    0.9653 C   0  0  0  0  0  0  0  0  0  0  0  0
    3.5754    0.7457    2.3163 H   0  0  0  0  0  0  0  0  0  0  0  0
    5.6180    1.6344    1.0579 H   0  0  0  0  0  0  0  0  0  0  0  0
    2.9479   -0.5435   -1.0788 H   0  0  0  0  0  0  0  0  0  0  0  0
    6.6666   -0.0938   -0.5000 H   0  0  0  0  0  0  0  0  0  0  0  0
    5.2657    0.7264   -1.1925 H   0  0  0  0  0  0  0  0  0  0  0  0
    5.0861   -1.6663   -1.6370 H   0  0  0  0  0  0  0  0  0  0  0  0
    5.3555   -2.0481    0.0665 H   0  0  0  0  0  0  0  0  0  0  0  0
    3.1177    1.5705   -0.5867 H   0  0  0  0  0  0  0  0  0  0  0  0
    3.3730    2.6524    0.7791 H   0  0  0  0  0  0  0  0  0  0  0  0
    1.3956    3.6139    0.1223 H   0  0  0  0  0  0  0  0  0  0  0  0
    1.4192    1.7350    1.8085 H   0  0  0  0  0  0  0  0  0  0  0  0
    2.9366   -3.1673    0.4775 H   0  0  0  0  0  0  0  0  0  0  0  0
    3.1535   -3.1517   -1.2750 H   0  0  0  0  0  0  0  0  0  0  0  0
   -0.3510    3.3751    1.8102 H   0  0  0  0  0  0  0  0  0  0  0  0
   -1.1018    2.0618    0.8912 H   0  0  0  0  0  0  0  0  0  0  0  0
    0.0392    1.3179   -1.3823 H   0  0  0  0  0  0  0  0  0  0  0  0
    1.4953    2.1697   -1.9133 H   0  0  0  0  0  0  0  0  0  0  0  0
   -0.8264    4.9707   -0.0504 H   0  0  0  0  0  0  0  0  0  0  0  0
   -2.3078    4.1409    0.4424 H   0  0  0  0  0  0  0  0  0  0  0  0
   -0.5497    2.9948   -3.0622 H   0  0  0  0  0  0  0  0  0  0  0  0
    0.2196    4.2886   -2.1350 H   0  0  0  0  0  0  0  0  0  0  0  0
    6.8501   -0.1081    1.7936 H   0  0  0  0  0  0  0  0  0  0  0  0
    0.3684   -2.4337    1.4397 H   0  0  0  0  0  0  0  0  0  0  0  0
   -2.8960   -2.9177   -0.6018 H   0  0  0  0  0  0  0  0  0  0  0  0
   -2.4066   -2.5071    1.0804 H   0  0  0  0  0  0  0  0  0  0  0  0
   -4.5249   -2.6798    0.8813 H   0  0  0  0  0  0  0  0  0  0  0  0
   -4.0189    1.4448   -0.3601 H   0  0  0  0  0  0  0  0  0  0  0  0
   -6.7976   -2.2061    1.5316 H   0  0  0  0  0  0  0  0  0  0  0  0
   -6.3593    1.8910    0.3141 H   0  0  0  0  0  0  0  0  0  0  0  0
   -7.7501    0.0675    1.2606 H   0  0  0  0  0  0  0  0  0  0  0  0
  1  8  1  0  0  0  0
  1 10  1  0  0  0  0
  2  9  1  0  0  0  0
  2 51  1  0  0  0  0
  3 18  1  0  0  0  0
  3 19  1  0  0  0  0
  4  7  1  0  0  0  0
  4 22  1  0  0  0  0
  5 23  1  0  0  0  0
  5 24  1  0  0  0  0
  6 13  1  0  0  0  0
  6 14  1  0  0  0  0
  6 40  1  0  0  0  0
  7 20  2  0  0  0  0
  8  9  1  0  0  0  0
  8 13  1  0  0  0  0
  8 30  1  0  0  0  0
  9 11  1  0  0  0  0
  9 31  1  0  0  0  0
 10 12  1  0  0  0  0
 10 15  1  0  0  0  0
 10 32  1  0  0  0  0
 11 12  1  0  0  0  0
 11 33  1  0  0  0  0
 11 34  1  0  0  0  0
 12 35  1  0  0  0  0
 12 36  1  0  0  0  0
 13 37  1  0  0  0  0
 13 38  1  0  0  0  0
 14 16  1  0  0  0  0
 14 17  1  0  0  0  0
 14 39  1  0  0  0  0
 15 20  1  0  0  0  0
 15 41  1  0  0  0  0
 15 42  1  0  0  0  0
 16 18  1  0  0  0  0
 16 43  1  0  0  0  0
 16 44  1  0  0  0  0
 17 19  1  0  0  0  0
 17 45  1  0  0  0  0
 17 46  1  0  0  0  0
 18 47  1  0  0  0  0
 18 48  1  0  0  0  0
 19 49  1  0  0  0  0
 19 50  1  0  0  0  0
 20 21  1  0  0  0  0
 21 22  2  0  0  0  0
 21 52  1  0  0  0  0
 22 23  1  0  0  0  0
 23 53  1  0  0  0  0
 23 54  1  0  0  0  0
 24 25  2  0  0  0  0
 24 26  1  0  0  0  0
 25 27  1  0  0  0  0
 25 55  1  0  0  0  0
 26 28  2  0  0  0  0
 26 56  1  0  0  0  0
 27 29  2  0  0  0  0
 27 57  1  0  0  0  0
 28 29  1  0  0  0  0
 28 58  1  0  0  0  0
 29 59  1  0  0  0  0
M  END
> <PUBCHEM_COMPOUND_CID>
75536343

> <PUBCHEM_CONFORMER_RMSD>
1.2

> <PUBCHEM_CONFORMER_DIVERSEORDER>
1
78
73
38
6
51
42
83
56
15
25
72
27
47
58
66
84
68
74
33
80
20
28
90
13
69
18
5
92
49
57
81
89
30
53
43
59
7
60
45
61
21
44
8
75
87
52
93
67
26
12
37
79
62
34
35
23
16
48
91
32
88
40
29
76
55
85
71
46
19
54
77
50
24
41
70
10
82
31
63
65
39
3
22
14
86
17
64
36
11
4
2
9

> <PUBCHEM_MMFF94_PARTIAL_CHARGES>
33
1 -0.56
10 0.28
13 0.27
14 0.27
15 0.18
18 0.28
19 0.28
2 -0.68
20 0.11
21 -0.15
22 -0.04
23 0.46
24 0.08
25 -0.15
26 -0.15
27 -0.15
28 -0.15
29 -0.15
3 -0.56
4 -0.02
40 0.36
5 -0.36
51 0.4
52 0.15
55 0.15
56 0.15
57 0.15
58 0.15
59 0.15
6 -0.9
7 -0.41
8 0.28
9 0.28

> <PUBCHEM_EFFECTIVE_ROTOR_COUNT>
10.4

> <PUBCHEM_PHARMACOPHORE_FEATURES>
12
1 1 acceptor
1 2 acceptor
1 2 donor
1 3 acceptor
1 5 acceptor
1 6 cation
1 6 donor
1 7 acceptor
5 4 7 20 21 22 rings
6 1 8 9 10 11 12 rings
6 24 25 26 27 28 29 rings
6 3 14 16 17 18 19 rings

> <PUBCHEM_HEAVY_ATOM_COUNT>
29

> <PUBCHEM_ATOM_DEF_STEREO_COUNT>
3

> <PUBCHEM_ATOM_UDEF_STEREO_COUNT>
0

> <PUBCHEM_BOND_DEF_STEREO_COUNT>
0

> <PUBCHEM_BOND_UDEF_STEREO_COUNT>
0

> <PUBCHEM_ISOTOPIC_ATOM_COUNT>
0

> <PUBCHEM_COMPONENT_COUNT>
1

> <PUBCHEM_CACTVS_TAUTO_COUNT>
1

> <PUBCHEM_CONFORMER_ID>
048097D700000001

> <PUBCHEM_MMFF94_ENERGY>
54.6449

> <PUBCHEM_FEATURE_SELFOVERLAP>
60.9

> <PUBCHEM_SHAPE_FINGERPRINT>
10006869 2 18266448807182690103
10688039 33 18187647985550832900
10939801 23 18337107994777587104
11513181 2 17702946903556423055
11646440 116 18340497724389579835
12156800 1 18052571826853954684
12422481 6 18340477902704032611
13075007 39 18115323300904044939
13402501 40 18412545392552273547
13561361 72 18336543802997874552
14020679 6 17968662743025311595
14028597 1 17531515513235567402
14790565 3 17401766818945988112
14840074 17 18410020948062066696
150020 26 18122353642634284777
15238133 3 18261679272229072446
15475509 84 17972591083117450163
1601671 61 18413388760989405698
16110190 28 18265328589401483680
17852330 162 18339099120979167790
17974551 9 17979914140011568801
21033648 29 17774432914583253746
21360442 67 17322944548385300613
24941158 1 13529437485482630901
469060 322 17750243520968828156
484989 97 18197505017854314950
513532 50 17560534953143694990
550186 83 18042106773770020280
653340 110 18196093248522982817

> <PUBCHEM_SHAPE_MULTIPOLES>
557.5
13.79
4.67
1.47
9.73
3.51
0.31
-4.05
-6.57
0.75
1.81
-0.81
0.37
1.2

> <PUBCHEM_SHAPE_SELFOVERLAP>
1169.563

> <PUBCHEM_SHAPE_VOLUME>
313.6

> <PUBCHEM_COORDINATE_TYPE>
2
5
10

$$$$
