11884549
  -OEChem-12032416363D

 53 56  0     1  0  0  0  0  0999 V2000
    0.4629   -1.2689    2.0834 O   0  0  0  0  0  0  0  0  0  0  0  0
    3.3293    2.4538   -0.9443 O   0  0  0  0  0  0  0  0  0  0  0  0
    4.2482    4.0746    0.5025 O   0  0  0  0  0  0  0  0  0  0  0  0
    5.6537    2.5415    1.4832 O   0  0  0  0  0  0  0  0  0  0  0  0
   -2.3639    0.1682   -1.5571 O   0  0  0  0  0  0  0  0  0  0  0  0
   -6.0647   -0.5921    1.8536 O   0  0  0  0  0  0  0  0  0  0  0  0
    2.0947   -1.4311    0.4186 N   0  0  0  0  0  0  0  0  0  0  0  0
    4.5260    0.5527   -0.3003 N   0  0  0  0  0  0  0  0  0  0  0  0
   -1.5837   -1.0351    0.2650 N   0  0  0  0  0  0  0  0  0  0  0  0
   -3.7831   -0.3803    0.2300 N   0  0  0  0  0  0  0  0  0  0  0  0
    4.5926   -1.6200    0.9417 C   0  0  2  0  0  0  0  0  0  0  0  0
    3.8365   -1.5749   -1.3960 C   0  0  2  0  0  0  0  0  0  0  0  0
    4.6769   -2.3563   -0.3891 C   0  0  0  0  0  0  0  0  0  0  0  0
    3.1388   -1.6435    1.4291 C   0  0  0  0  0  0  0  0  0  0  0  0
    5.1327   -0.1839    0.8103 C   0  0  0  0  0  0  0  0  0  0  0  0
    4.4318   -0.1672   -1.5729 C   0  0  0  0  0  0  0  0  0  0  0  0
    2.3913   -1.4725   -0.9471 C   0  0  0  0  0  0  0  0  0  0  0  0
    1.4039   -1.3948   -1.8551 C   0  0  0  0  0  0  0  0  0  0  0  0
    0.7741   -1.2926    0.8917 C   0  0  0  0  0  0  0  0  0  0  0  0
    4.1676    1.8951   -0.2468 C   0  0  0  0  0  0  0  0  0  0  0  0
   -0.2940   -1.1842   -0.1520 C   0  0  0  0  0  0  0  0  0  0  0  0
    0.0355   -1.2464   -1.4465 C   0  0  0  0  0  0  0  0  0  0  0  0
    4.7892    2.8641    0.6930 C   0  0  0  0  0  0  0  0  0  0  0  0
   -2.5693   -0.3579   -0.4655 C   0  0  0  0  0  0  0  0  0  0  0  0
   -5.0187    0.1867   -0.1605 C   0  0  0  0  0  0  0  0  0  0  0  0
   -6.1282    0.0661    0.6616 C   0  0  0  0  0  0  0  0  0  0  0  0
   -5.0904    0.8577   -1.3716 C   0  0  0  0  0  0  0  0  0  0  0  0
   -7.3398    0.6307    0.2627 C   0  0  0  0  0  0  0  0  0  0  0  0
   -6.3021    1.4221   -1.7703 C   0  0  0  0  0  0  0  0  0  0  0  0
   -7.4268    1.3085   -0.9532 C   0  0  0  0  0  0  0  0  0  0  0  0
   -5.7211    0.1800    3.0019 C   0  0  0  0  0  0  0  0  0  0  0  0
    5.2095   -2.1366    1.6875 H   0  0  0  0  0  0  0  0  0  0  0  0
    3.8869   -2.0957   -2.3611 H   0  0  0  0  0  0  0  0  0  0  0  0
    5.7188   -2.4216   -0.7255 H   0  0  0  0  0  0  0  0  0  0  0  0
    4.3066   -3.3841   -0.2869 H   0  0  0  0  0  0  0  0  0  0  0  0
    2.9925   -0.9207    2.2415 H   0  0  0  0  0  0  0  0  0  0  0  0
    2.9309   -2.6307    1.8644 H   0  0  0  0  0  0  0  0  0  0  0  0
    6.2133   -0.2044    0.6258 H   0  0  0  0  0  0  0  0  0  0  0  0
    4.9617    0.3432    1.7527 H   0  0  0  0  0  0  0  0  0  0  0  0
    5.4518   -0.2386   -1.9708 H   0  0  0  0  0  0  0  0  0  0  0  0
    3.8515    0.4188   -2.2950 H   0  0  0  0  0  0  0  0  0  0  0  0
    1.6092   -1.4184   -2.9204 H   0  0  0  0  0  0  0  0  0  0  0  0
   -0.6834   -1.2350   -2.2569 H   0  0  0  0  0  0  0  0  0  0  0  0
   -1.7723   -1.2069    1.2488 H   0  0  0  0  0  0  0  0  0  0  0  0
    4.6302    4.7510    1.1015 H   0  0  0  0  0  0  0  0  0  0  0  0
   -3.7884   -0.8677    1.1224 H   0  0  0  0  0  0  0  0  0  0  0  0
   -4.2714    0.9915   -2.0616 H   0  0  0  0  0  0  0  0  0  0  0  0
   -8.2205    0.5457    0.8936 H   0  0  0  0  0  0  0  0  0  0  0  0
   -6.3715    1.9504   -2.7170 H   0  0  0  0  0  0  0  0  0  0  0  0
   -8.3702    1.7479   -1.2638 H   0  0  0  0  0  0  0  0  0  0  0  0
   -5.6704   -0.4915    3.8633 H   0  0  0  0  0  0  0  0  0  0  0  0
   -4.7447    0.6577    2.8734 H   0  0  0  0  0  0  0  0  0  0  0  0
   -6.4866    0.9383    3.1945 H   0  0  0  0  0  0  0  0  0  0  0  0
  1 19  2  0  0  0  0
  2 20  2  0  0  0  0
  3 23  1  0  0  0  0
  3 45  1  0  0  0  0
  4 23  2  0  0  0  0
  5 24  2  0  0  0  0
  6 26  1  0  0  0  0
  6 31  1  0  0  0  0
  7 14  1  0  0  0  0
  7 17  1  0  0  0  0
  7 19  1  0  0  0  0
  8 15  1  0  0  0  0
  8 16  1  0  0  0  0
  8 20  1  0  0  0  0
  9 21  1  0  0  0  0
  9 24  1  0  0  0  0
  9 44  1  0  0  0  0
 10 24  1  0  0  0  0
 10 25  1  0  0  0  0
 10 46  1  0  0  0  0
 11 13  1  0  0  0  0
 11 14  1  0  0  0  0
 11 15  1  0  0  0  0
 11 32  1  0  0  0  0
 12 13  1  0  0  0  0
 12 16  1  0  0  0  0
 12 17  1  0  0  0  0
 12 33  1  0  0  0  0
 13 34  1  0  0  0  0
 13 35  1  0  0  0  0
 14 36  1  0  0  0  0
 14 37  1  0  0  0  0
 15 38  1  0  0  0  0
 15 39  1  0  0  0  0
 16 40  1  0  0  0  0
 16 41  1  0  0  0  0
 17 18  2  0  0  0  0
 18 22  1  0  0  0  0
 18 42  1  0  0  0  0
 19 21  1  0  0  0  0
 20 23  1  0  0  0  0
 21 22  2  0  0  0  0
 22 43  1  0  0  0  0
 25 26  1  0  0  0  0
 25 27  2  0  0  0  0
 26 28  2  0  0  0  0
 27 29  1  0  0  0  0
 27 47  1  0  0  0  0
 28 30  1  0  0  0  0
 28 48  1  0  0  0  0
 29 30  2  0  0  0  0
 29 49  1  0  0  0  0
 30 50  1  0  0  0  0
 31 51  1  0  0  0  0
 31 52  1  0  0  0  0
 31 53  1  0  0  0  0
M  END
> <PUBCHEM_COMPOUND_CID>
11884549

> <PUBCHEM_CONFORMER_RMSD>
1

> <PUBCHEM_CONFORMER_DIVERSEORDER>
1
17
33
29
34
13
21
9
25
28
24
30
6
11
18
3
20
10
32
22
7
36
38
16
5
35
2
31
19
27
15
26
14
23
12
4
37
8

> <PUBCHEM_MMFF94_PARTIAL_CHARGES>
38
1 -0.57
10 -0.55
12 0.14
14 0.3
15 0.3
16 0.3
17 -0.03
18 -0.15
19 0.62
2 -0.57
20 0.63
21 0.12
22 -0.15
23 0.72
24 0.69
25 0.12
26 0.08
27 -0.15
28 -0.15
29 -0.15
3 -0.65
30 -0.15
31 0.28
4 -0.57
42 0.15
43 0.15
44 0.37
45 0.5
46 0.37
47 0.15
48 0.15
49 0.15
5 -0.57
50 0.15
6 -0.36
7 -0.47
8 -0.66
9 -0.54

> <PUBCHEM_EFFECTIVE_ROTOR_COUNT>
8

> <PUBCHEM_PHARMACOPHORE_FEATURES>
13
1 1 acceptor
1 10 donor
1 2 acceptor
1 3 acceptor
1 4 acceptor
1 5 acceptor
1 6 acceptor
1 9 donor
3 3 4 23 anion
6 25 26 27 28 29 30 rings
6 7 11 12 13 14 17 rings
6 7 17 18 19 21 22 rings
6 8 11 12 13 15 16 rings

> <PUBCHEM_HEAVY_ATOM_COUNT>
31

> <PUBCHEM_ATOM_DEF_STEREO_COUNT>
2

> <PUBCHEM_ATOM_UDEF_STEREO_COUNT>
0

> <PUBCHEM_BOND_DEF_STEREO_COUNT>
0

> <PUBCHEM_BOND_UDEF_STEREO_COUNT>
0

> <PUBCHEM_ISOTOPIC_ATOM_COUNT>
0

> <PUBCHEM_COMPONENT_COUNT>
1

> <PUBCHEM_CACTVS_TAUTO_COUNT>
3

> <PUBCHEM_CONFORMER_ID>
00B5580500000001

> <PUBCHEM_MMFF94_ENERGY>
107.162

> <PUBCHEM_FEATURE_SELFOVERLAP>
67.665

> <PUBCHEM_SHAPE_FINGERPRINT>
10319926 262 17022627477178918629
10554248 39 17775566407912732231
10638233 991 17989211438896261321
10673678 19 18060138794746081830
10675989 125 18058449983884585024
11135609 127 18201987846233754204
11479125 193 18195522821142815145
11505856 67 17326908768812136254
11578080 2 18115881869985731330
11719270 70 16008751286631015667
11796584 16 12031782552808107319
12166972 35 17774443768249946458
13692114 37 17095809914330328635
13878862 14 18337373994559421188
14251764 75 18126004012607082288
14904525 67 18271807870508270657
15183329 4 14692567702741130159
15348495 7 18114185250413525635
15799311 1 15123512502060828375
18335252 114 18202283594114497876
19319366 153 17560794382080298887
20715895 44 18272646879204059860
21033648 29 17749107815672318825
21475661 188 18262233451943561012
21641784 216 16630537210707412353
21792934 111 17458614572388765813
22122407 14 18339081489279158177
23081809 10 16702020842786207191
23522609 53 16414938395423033091
23569914 2 17611415962106441949
249057 3 18343021065216779326
25269216 80 15123225602735770293
3004659 81 13830125087859043446
328310 630 17775006799965787713
3411729 13 18337387244707725468
34797466 226 18273498957760717023
394071 54 18343025501210867116
397830 11 18262524800928869971
4073 2 15069207618438394611
4112364 45 18199732783025568384
44317340 157 18411139147245398551
5364581 5 17604438530457388429
9658208 31 17676778638216050026

> <PUBCHEM_SHAPE_MULTIPOLES>
582.83
19.83
2.83
2.05
31.24
3.16
-0.74
9.07
-2.11
-6.9
-0.31
1.89
-0.24
1.94

> <PUBCHEM_SHAPE_SELFOVERLAP>
1268.299

> <PUBCHEM_SHAPE_VOLUME>
308.3

> <PUBCHEM_COORDINATE_TYPE>
2
5
10

$$$$
