11913105
  -OEChem-12032416153D

 59 64  0     1  0  0  0  0  0999 V2000
   -1.8750    0.3359    1.6947 O   0  0  0  0  0  0  0  0  0  0  0  0
    0.3018   -1.7299    1.0566 O   0  0  0  0  0  0  0  0  0  0  0  0
   -3.2606   -1.8525    0.6986 O   0  0  0  0  0  0  0  0  0  0  0  0
   -3.9751   -1.5088   -1.4569 O   0  0  0  0  0  0  0  0  0  0  0  0
    5.9697   -2.6024   -1.2778 O   0  0  0  0  0  0  0  0  0  0  0  0
    8.0541   -2.0355   -0.2095 O   0  0  0  0  0  0  0  0  0  0  0  0
    0.6878    1.9108    0.9087 N   0  0  0  0  0  0  0  0  0  0  0  0
    2.8736    1.3763    0.3349 N   0  0  0  0  0  0  0  0  0  0  0  0
    1.9104    3.5044   -0.2569 N   0  0  0  0  0  0  0  0  0  0  0  0
   -5.4777   -1.9599    0.2521 N   0  0  0  0  0  0  0  0  0  0  0  0
    0.0589   -0.4047    0.5394 C   0  0  1  0  0  0  0  0  0  0  0  0
   -1.4449   -0.2376    0.4493 C   0  0  1  0  0  0  0  0  0  0  0  0
    0.4817    0.6318    1.5538 C   0  0  2  0  0  0  0  0  0  0  0  0
   -1.9237   -1.6611    0.2945 C   0  0  1  0  0  0  0  0  0  0  0  0
   -0.7243    0.6945    2.4750 C   0  0  0  0  0  0  0  0  0  0  0  0
   -0.9508   -2.4212    1.1675 C   0  0  0  0  0  0  0  0  0  0  0  0
    1.8756    2.2798    0.3023 C   0  0  0  0  0  0  0  0  0  0  0  0
   -4.2228   -1.7514   -0.2804 C   0  0  0  0  0  0  0  0  0  0  0  0
    4.0167    1.7687   -0.2648 C   0  0  0  0  0  0  0  0  0  0  0  0
    3.0831    3.8316   -0.8386 C   0  0  0  0  0  0  0  0  0  0  0  0
   -6.6952   -1.9189   -0.5245 C   0  0  0  0  0  0  0  0  0  0  0  0
    4.1807    2.9962   -0.8738 C   0  0  0  0  0  0  0  0  0  0  0  0
    5.0885    0.8026   -0.2329 C   0  0  0  0  0  0  0  0  0  0  0  0
   -7.2865   -0.5396   -0.5701 C   0  0  0  0  0  0  0  0  0  0  0  0
    4.9088   -0.4518   -0.8208 C   0  0  0  0  0  0  0  0  0  0  0  0
    6.3046    1.1332    0.3905 C   0  0  0  0  0  0  0  0  0  0  0  0
    5.9616   -1.3420   -0.7646 C   0  0  0  0  0  0  0  0  0  0  0  0
    7.1519   -1.0183   -0.1546 C   0  0  0  0  0  0  0  0  0  0  0  0
    7.3551    0.2133    0.4331 C   0  0  0  0  0  0  0  0  0  0  0  0
   -8.2029   -0.1410    0.4032 C   0  0  0  0  0  0  0  0  0  0  0  0
   -6.9190    0.3438   -1.5853 C   0  0  0  0  0  0  0  0  0  0  0  0
    7.2988   -3.0356   -0.9228 C   0  0  0  0  0  0  0  0  0  0  0  0
   -8.7520    1.1405    0.3611 C   0  0  0  0  0  0  0  0  0  0  0  0
   -7.4681    1.6253   -1.6272 C   0  0  0  0  0  0  0  0  0  0  0  0
   -8.3846    2.0236   -0.6539 C   0  0  0  0  0  0  0  0  0  0  0  0
    0.5574   -0.3353   -0.4326 H   0  0  0  0  0  0  0  0  0  0  0  0
   -1.7743    0.4273   -0.3543 H   0  0  0  0  0  0  0  0  0  0  0  0
    1.3627    0.3437    2.1387 H   0  0  0  0  0  0  0  0  0  0  0  0
   -1.7591   -1.9905   -0.7408 H   0  0  0  0  0  0  0  0  0  0  0  0
   -0.8868    1.6774    2.9282 H   0  0  0  0  0  0  0  0  0  0  0  0
   -0.6393   -0.0435    3.2804 H   0  0  0  0  0  0  0  0  0  0  0  0
   -1.2569   -2.4327    2.2197 H   0  0  0  0  0  0  0  0  0  0  0  0
   -0.8268   -3.4598    0.8462 H   0  0  0  0  0  0  0  0  0  0  0  0
   -0.0837    2.5651    0.8422 H   0  0  0  0  0  0  0  0  0  0  0  0
   -5.5497   -2.1389    1.2492 H   0  0  0  0  0  0  0  0  0  0  0  0
    3.1165    4.8164   -1.2921 H   0  0  0  0  0  0  0  0  0  0  0  0
   -6.4908   -2.2796   -1.5396 H   0  0  0  0  0  0  0  0  0  0  0  0
   -7.3998   -2.6253   -0.0710 H   0  0  0  0  0  0  0  0  0  0  0  0
    5.1008    3.3008   -1.3573 H   0  0  0  0  0  0  0  0  0  0  0  0
    3.9796   -0.7280   -1.3093 H   0  0  0  0  0  0  0  0  0  0  0  0
    6.4461    2.1071    0.8545 H   0  0  0  0  0  0  0  0  0  0  0  0
    8.2937    0.4637    0.9140 H   0  0  0  0  0  0  0  0  0  0  0  0
   -8.4957   -0.8192    1.2004 H   0  0  0  0  0  0  0  0  0  0  0  0
   -6.2081    0.0464   -2.3514 H   0  0  0  0  0  0  0  0  0  0  0  0
    7.8396   -3.2961   -1.8399 H   0  0  0  0  0  0  0  0  0  0  0  0
    7.2201   -3.9304   -0.2945 H   0  0  0  0  0  0  0  0  0  0  0  0
   -9.4652    1.4510    1.1191 H   0  0  0  0  0  0  0  0  0  0  0  0
   -7.1826    2.3129   -2.4179 H   0  0  0  0  0  0  0  0  0  0  0  0
   -8.8121    3.0215   -0.6867 H   0  0  0  0  0  0  0  0  0  0  0  0
  1 12  1  0  0  0  0
  1 15  1  0  0  0  0
  2 11  1  0  0  0  0
  2 16  1  0  0  0  0
  3 14  1  0  0  0  0
  3 18  1  0  0  0  0
  4 18  2  0  0  0  0
  5 27  1  0  0  0  0
  5 32  1  0  0  0  0
  6 28  1  0  0  0  0
  6 32  1  0  0  0  0
  7 13  1  0  0  0  0
  7 17  1  0  0  0  0
  7 44  1  0  0  0  0
  8 17  1  0  0  0  0
  8 19  2  0  0  0  0
  9 17  2  0  0  0  0
  9 20  1  0  0  0  0
 10 18  1  0  0  0  0
 10 21  1  0  0  0  0
 10 45  1  0  0  0  0
 11 12  1  0  0  0  0
 11 13  1  0  0  0  0
 11 36  1  0  0  0  0
 12 14  1  0  0  0  0
 12 37  1  0  0  0  0
 13 15  1  0  0  0  0
 13 38  1  0  0  0  0
 14 16  1  0  0  0  0
 14 39  1  0  0  0  0
 15 40  1  0  0  0  0
 15 41  1  0  0  0  0
 16 42  1  0  0  0  0
 16 43  1  0  0  0  0
 19 22  1  0  0  0  0
 19 23  1  0  0  0  0
 20 22  2  0  0  0  0
 20 46  1  0  0  0  0
 21 24  1  0  0  0  0
 21 47  1  0  0  0  0
 21 48  1  0  0  0  0
 22 49  1  0  0  0  0
 23 25  2  0  0  0  0
 23 26  1  0  0  0  0
 24 30  2  0  0  0  0
 24 31  1  0  0  0  0
 25 27  1  0  0  0  0
 25 50  1  0  0  0  0
 26 29  2  0  0  0  0
 26 51  1  0  0  0  0
 27 28  2  0  0  0  0
 28 29  1  0  0  0  0
 29 52  1  0  0  0  0
 30 33  1  0  0  0  0
 30 53  1  0  0  0  0
 31 34  2  0  0  0  0
 31 54  1  0  0  0  0
 32 55  1  0  0  0  0
 32 56  1  0  0  0  0
 33 35  2  0  0  0  0
 33 57  1  0  0  0  0
 34 35  1  0  0  0  0
 34 58  1  0  0  0  0
 35 59  1  0  0  0  0
M  END
> <PUBCHEM_COMPOUND_CID>
11913105

> <PUBCHEM_CONFORMER_RMSD>
1.2

> <PUBCHEM_CONFORMER_DIVERSEORDER>
1
15
47
96
68
65
9
128
90
53
133
20
143
89
19
4
134
129
144
101
142
60
75
63
42
61
122
146
99
98
119
17
46
23
83
16
74
102
95
97
115
58
24
45
88
48
111
135
14
70
109
41
147
117
18
67
8
80
13
78
127
105
125
148
44
37
108
12
153
81
59
33
154
149
93
56
11
28
112
124
35
79
76
10
104
150
137
86
121
26
85
40
32
43
51
84
54
138
110
116
131
22
113
50
49
62
120
73
69
72
130
57
25
139
145
151
39
136
82
38
77
141
55
34
126
31
123
21
94
71
152
27
114
30
87
36
64
103
3
132
107
29
100
5
66
140
7
106
2
92
118
52
91
6

> <PUBCHEM_MMFF94_PARTIAL_CHARGES>
46
1 -0.56
10 -0.73
11 0.28
12 0.28
13 0.37
14 0.28
15 0.28
16 0.28
17 0.72
18 0.78
19 0.31
2 -0.56
20 0.16
21 0.44
22 -0.15
24 -0.14
25 -0.15
26 -0.15
27 0.08
28 0.08
29 -0.15
3 -0.43
30 -0.15
31 -0.15
32 0.56
33 -0.15
34 -0.15
35 -0.15
4 -0.57
44 0.4
45 0.37
46 0.15
49 0.15
5 -0.36
50 0.15
51 0.15
52 0.15
53 0.15
54 0.15
57 0.15
58 0.15
59 0.15
6 -0.36
7 -0.87
8 -0.62
9 -0.62

> <PUBCHEM_EFFECTIVE_ROTOR_COUNT>
9.8

> <PUBCHEM_PHARMACOPHORE_FEATURES>
15
1 1 acceptor
1 10 donor
1 2 acceptor
1 4 acceptor
1 5 acceptor
1 6 acceptor
1 7 donor
1 8 acceptor
4 7 8 9 17 cation
5 1 11 12 13 15 rings
5 2 11 12 14 16 rings
5 5 6 27 28 32 rings
6 23 25 26 27 28 29 rings
6 24 30 31 33 34 35 rings
6 8 9 17 19 20 22 rings

> <PUBCHEM_HEAVY_ATOM_COUNT>
35

> <PUBCHEM_ATOM_DEF_STEREO_COUNT>
4

> <PUBCHEM_ATOM_UDEF_STEREO_COUNT>
0

> <PUBCHEM_BOND_DEF_STEREO_COUNT>
0

> <PUBCHEM_BOND_UDEF_STEREO_COUNT>
0

> <PUBCHEM_ISOTOPIC_ATOM_COUNT>
0

> <PUBCHEM_COMPONENT_COUNT>
1

> <PUBCHEM_CACTVS_TAUTO_COUNT>
6

> <PUBCHEM_CONFORMER_ID>
00B5C79100000001

> <PUBCHEM_MMFF94_ENERGY>
102.9466

> <PUBCHEM_FEATURE_SELFOVERLAP>
76.997

> <PUBCHEM_SHAPE_FINGERPRINT>
10 15 11746934287751350267
10049733 35 18409174286513809358
10049733 71 18057047913254006766
10055352 69 11530779110155118702
10483366 6 18408885105363689811
10580692 12 18409448120163483703
10674148 151 17968089846090876776
10917259 69 18267020553704088641
11115154 58 18335421266499337744
11181472 205 18410019861852643860
11374522 175 18339361851216365175
11720765 8 18201716318597052176
11828042 163 18124601877873715917
12098696 120 18260259738509323517
12144600 37 18262523727403694011
12857493 111 18342177739239306845
13914758 101 18335139799774275515
13947947 140 17844819084107960102
14117953 113 18272095985398386718
14168556 18 9799688203795995159
14664723 55 18409167693914018397
15183329 4 18335417984726883945
15357212 105 15142391223603773124
15475509 8 17676205788351961549
15684389 69 10881406435131824309
15728490 51 8862940581046947801
17852330 162 18260272984273361316
19301676 85 18409174281803578474
19841028 212 18341894078920613082
21133410 58 18338232764950158654
21458453 9 9943808906388333245
21814621 53 18115593784832416403
3633792 109 18410857676858781658
3711267 37 15068339016509775559
4098825 35 18409445917014208935
4144715 1 17751932568877506139
4394409 98 16773794831553903927
474113 269 17561083566791706902
4756261 7 9583515425993133345
4760202 70 10737582652091935625
5223283 242 17240197734261217364
59682541 35 9727628414871510479
6126387 218 18343294903498459768
6697151 62 16343697798574814233
9689198 14 17458344161184616021

> <PUBCHEM_SHAPE_MULTIPOLES>
665.14
28.34
3.73
1.45
25.53
1.47
-0.36
-4.59
10.48
-4.19
0.97
0.92
0.05
1.61

> <PUBCHEM_SHAPE_SELFOVERLAP>
1475.139

> <PUBCHEM_SHAPE_VOLUME>
354.3

> <PUBCHEM_COORDINATE_TYPE>
2
5
10

$$$$
