7164746
  -OEChem-12032416403D

 63 67  0     1  0  0  0  0  0999 V2000
   -0.9629    2.4701    1.8996 O   0  0  0  0  0  0  0  0  0  0  0  0
   -2.7149   -2.2990    1.7892 O   0  0  0  0  0  0  0  0  0  0  0  0
    2.0076    1.6852   -1.8423 O   0  0  0  0  0  0  0  0  0  0  0  0
    3.2337   -3.7984   -0.4047 O   0  0  0  0  0  0  0  0  0  0  0  0
   -3.9843   -1.1129    0.2653 N   0  0  0  0  0  0  0  0  0  0  0  0
   -2.6156    1.7162    0.4298 N   0  0  0  0  0  0  0  0  0  0  0  0
   -2.1587   -2.4162   -0.4605 N   0  0  0  0  0  0  0  0  0  0  0  0
    0.8965    2.7622   -0.1022 N   0  0  0  0  0  0  0  0  0  0  0  0
   -4.9367    0.9742    1.2210 C   0  0  1  0  0  0  0  0  0  0  0  0
   -4.3646    0.8674   -1.1737 C   0  0  2  0  0  0  0  0  0  0  0  0
   -5.3891    1.4018   -0.1720 C   0  0  0  0  0  0  0  0  0  0  0  0
   -4.8450   -0.5622    1.3148 C   0  0  0  0  0  0  0  0  0  0  0  0
   -3.5940    1.6514    1.5257 C   0  0  0  0  0  0  0  0  0  0  0  0
   -4.3375   -0.6713   -1.0948 C   0  0  0  0  0  0  0  0  0  0  0  0
   -2.9818    1.4219   -0.8884 C   0  0  0  0  0  0  0  0  0  0  0  0
   -2.1014    1.5921   -1.8889 C   0  0  0  0  0  0  0  0  0  0  0  0
   -1.3261    2.1810    0.7585 C   0  0  0  0  0  0  0  0  0  0  0  0
   -2.9334   -1.9863    0.6161 C   0  0  0  0  0  0  0  0  0  0  0  0
   -0.3670    2.3316   -0.3815 C   0  0  0  0  0  0  0  0  0  0  0  0
   -0.7680    2.0547   -1.6267 C   0  0  0  0  0  0  0  0  0  0  0  0
   -0.7863   -2.7668   -0.4462 C   0  0  0  0  0  0  0  0  0  0  0  0
    2.0135    2.4119   -0.8515 C   0  0  0  0  0  0  0  0  0  0  0  0
   -0.1599   -3.1797   -1.6222 C   0  0  0  0  0  0  0  0  0  0  0  0
   -0.0616   -2.7003    0.7438 C   0  0  0  0  0  0  0  0  0  0  0  0
    3.2733    3.0471   -0.2924 C   0  0  0  0  0  0  0  0  0  0  0  0
    1.1911   -3.5261   -1.6082 C   0  0  0  0  0  0  0  0  0  0  0  0
    1.2896   -3.0468    0.7578 C   0  0  0  0  0  0  0  0  0  0  0  0
    4.3128    2.0421    0.1281 C   0  0  0  0  0  0  0  0  0  0  0  0
    1.9158   -3.4597   -0.4183 C   0  0  0  0  0  0  0  0  0  0  0  0
    4.3165    1.5465    1.4322 C   0  0  0  0  0  0  0  0  0  0  0  0
    5.2718    1.6060   -0.7862 C   0  0  0  0  0  0  0  0  0  0  0  0
    5.2794    0.6155    1.8218 C   0  0  0  0  0  0  0  0  0  0  0  0
    6.2344    0.6748   -0.3965 C   0  0  0  0  0  0  0  0  0  0  0  0
    6.2381    0.1795    0.9075 C   0  0  0  0  0  0  0  0  0  0  0  0
    3.9148   -3.7078    0.8458 C   0  0  0  0  0  0  0  0  0  0  0  0
   -5.6698    1.3091    1.9651 H   0  0  0  0  0  0  0  0  0  0  0  0
   -4.6852    1.1609   -2.1817 H   0  0  0  0  0  0  0  0  0  0  0  0
   -6.3853    0.9984   -0.3906 H   0  0  0  0  0  0  0  0  0  0  0  0
   -5.4636    2.4946   -0.2364 H   0  0  0  0  0  0  0  0  0  0  0  0
   -4.4944   -0.8569    2.3091 H   0  0  0  0  0  0  0  0  0  0  0  0
   -5.8390   -1.0056    1.1789 H   0  0  0  0  0  0  0  0  0  0  0  0
   -3.1160    1.1813    2.3944 H   0  0  0  0  0  0  0  0  0  0  0  0
   -3.7836    2.6946    1.8136 H   0  0  0  0  0  0  0  0  0  0  0  0
   -5.3289   -1.0833   -1.3196 H   0  0  0  0  0  0  0  0  0  0  0  0
   -3.6560   -1.0552   -1.8547 H   0  0  0  0  0  0  0  0  0  0  0  0
   -2.3587    1.3603   -2.9173 H   0  0  0  0  0  0  0  0  0  0  0  0
   -0.1506    2.1920   -2.5064 H   0  0  0  0  0  0  0  0  0  0  0  0
   -2.5983   -2.4883   -1.3709 H   0  0  0  0  0  0  0  0  0  0  0  0
    1.0415    3.1662    0.8198 H   0  0  0  0  0  0  0  0  0  0  0  0
   -0.7130   -3.2355   -2.5563 H   0  0  0  0  0  0  0  0  0  0  0  0
   -0.4810   -2.3608    1.6823 H   0  0  0  0  0  0  0  0  0  0  0  0
    3.0484    3.7127    0.5501 H   0  0  0  0  0  0  0  0  0  0  0  0
    3.6803    3.7021   -1.0737 H   0  0  0  0  0  0  0  0  0  0  0  0
    1.6736   -3.8468   -2.5274 H   0  0  0  0  0  0  0  0  0  0  0  0
    1.7953   -2.9663    1.7141 H   0  0  0  0  0  0  0  0  0  0  0  0
    3.5728    1.8768    2.1525 H   0  0  0  0  0  0  0  0  0  0  0  0
    5.2783    1.9828   -1.8056 H   0  0  0  0  0  0  0  0  0  0  0  0
    5.2814    0.2285    2.8366 H   0  0  0  0  0  0  0  0  0  0  0  0
    6.9805    0.3344   -1.1086 H   0  0  0  0  0  0  0  0  0  0  0  0
    6.9867   -0.5466    1.2105 H   0  0  0  0  0  0  0  0  0  0  0  0
    3.9437   -2.6767    1.2143 H   0  0  0  0  0  0  0  0  0  0  0  0
    3.4961   -4.4008    1.5835 H   0  0  0  0  0  0  0  0  0  0  0  0
    4.9517   -4.0135    0.6721 H   0  0  0  0  0  0  0  0  0  0  0  0
  1 17  2  0  0  0  0
  2 18  2  0  0  0  0
  3 22  2  0  0  0  0
  4 29  1  0  0  0  0
  4 35  1  0  0  0  0
  5 12  1  0  0  0  0
  5 14  1  0  0  0  0
  5 18  1  0  0  0  0
  6 13  1  0  0  0  0
  6 15  1  0  0  0  0
  6 17  1  0  0  0  0
  7 18  1  0  0  0  0
  7 21  1  0  0  0  0
  7 48  1  0  0  0  0
  8 19  1  0  0  0  0
  8 22  1  0  0  0  0
  8 49  1  0  0  0  0
  9 11  1  0  0  0  0
  9 12  1  0  0  0  0
  9 13  1  0  0  0  0
  9 36  1  0  0  0  0
 10 11  1  0  0  0  0
 10 14  1  0  0  0  0
 10 15  1  0  0  0  0
 10 37  1  0  0  0  0
 11 38  1  0  0  0  0
 11 39  1  0  0  0  0
 12 40  1  0  0  0  0
 12 41  1  0  0  0  0
 13 42  1  0  0  0  0
 13 43  1  0  0  0  0
 14 44  1  0  0  0  0
 14 45  1  0  0  0  0
 15 16  2  0  0  0  0
 16 20  1  0  0  0  0
 16 46  1  0  0  0  0
 17 19  1  0  0  0  0
 19 20  2  0  0  0  0
 20 47  1  0  0  0  0
 21 23  2  0  0  0  0
 21 24  1  0  0  0  0
 22 25  1  0  0  0  0
 23 26  1  0  0  0  0
 23 50  1  0  0  0  0
 24 27  2  0  0  0  0
 24 51  1  0  0  0  0
 25 28  1  0  0  0  0
 25 52  1  0  0  0  0
 25 53  1  0  0  0  0
 26 29  2  0  0  0  0
 26 54  1  0  0  0  0
 27 29  1  0  0  0  0
 27 55  1  0  0  0  0
 28 30  2  0  0  0  0
 28 31  1  0  0  0  0
 30 32  1  0  0  0  0
 30 56  1  0  0  0  0
 31 33  2  0  0  0  0
 31 57  1  0  0  0  0
 32 34  2  0  0  0  0
 32 58  1  0  0  0  0
 33 34  1  0  0  0  0
 33 59  1  0  0  0  0
 34 60  1  0  0  0  0
 35 61  1  0  0  0  0
 35 62  1  0  0  0  0
 35 63  1  0  0  0  0
M  END
> <PUBCHEM_COMPOUND_CID>
7164746

> <PUBCHEM_CONFORMER_RMSD>
1

> <PUBCHEM_CONFORMER_DIVERSEORDER>
1
43
75
74
24
79
29
111
76
17
87
102
105
44
48
38
3
46
110
59
101
18
94
57
49
64
108
65
93
15
37
39
60
89
26
41
106
84
67
36
109
54
22
98
25
97
51
96
81
85
42
103
66
55
99
83
32
90
91
13
35
95
28
61
100
53
56
92
107
62
58
71
63
33
20
34
9
52
16
27
31
10
6
86
77
73
82
14
78
30
12
68
47
88
70
45
80
50
23
8
40
104
72
19
4
2
69
11
21
7
5

> <PUBCHEM_MMFF94_PARTIAL_CHARGES>
46
1 -0.57
10 0.14
12 0.3
13 0.3
14 0.3
15 -0.03
16 -0.15
17 0.62
18 0.69
19 0.12
2 -0.57
20 -0.15
21 0.12
22 0.57
23 -0.15
24 -0.15
25 0.2
26 -0.15
27 -0.15
28 -0.14
29 0.08
3 -0.57
30 -0.15
31 -0.15
32 -0.15
33 -0.15
34 -0.15
35 0.28
4 -0.36
46 0.15
47 0.15
48 0.37
49 0.37
5 -0.66
50 0.15
51 0.15
54 0.15
55 0.15
56 0.15
57 0.15
58 0.15
59 0.15
6 -0.47
60 0.15
7 -0.55
8 -0.54

> <PUBCHEM_EFFECTIVE_ROTOR_COUNT>
9

> <PUBCHEM_PHARMACOPHORE_FEATURES>
11
1 1 acceptor
1 2 acceptor
1 3 acceptor
1 4 acceptor
1 7 donor
1 8 donor
6 21 23 24 26 27 29 rings
6 28 30 31 32 33 34 rings
6 5 9 10 11 12 14 rings
6 6 15 16 17 19 20 rings
6 6 9 10 11 13 15 rings

> <PUBCHEM_HEAVY_ATOM_COUNT>
35

> <PUBCHEM_ATOM_DEF_STEREO_COUNT>
2

> <PUBCHEM_ATOM_UDEF_STEREO_COUNT>
0

> <PUBCHEM_BOND_DEF_STEREO_COUNT>
0

> <PUBCHEM_BOND_UDEF_STEREO_COUNT>
0

> <PUBCHEM_ISOTOPIC_ATOM_COUNT>
0

> <PUBCHEM_COMPONENT_COUNT>
1

> <PUBCHEM_CACTVS_TAUTO_COUNT>
4

> <PUBCHEM_CONFORMER_ID>
006D534A00000001

> <PUBCHEM_MMFF94_ENERGY>
111.9258

> <PUBCHEM_FEATURE_SELFOVERLAP>
57.423

> <PUBCHEM_SHAPE_FINGERPRINT>
11513181 2 18059574659145051247
11524674 6 18272086123651990117
12422481 6 18260548935066800304
13165054 342 18046075019595335604
14040221 222 17843948257369684666
14840074 17 18113336431357439656
15001296 14 18045777055684910336
15264996 154 18041858293381527330
15274700 242 17170087452847285424
15297060 5 18131632292253877090
20721686 56 18334293132739749147
20764821 26 18339089305881714828
21344244 246 18338504306178261919
21623110 236 18340202982227275499
229767 44 18337666546578384994
23516275 137 18117588200499891128
3298306 158 18409444808369204260
338550 245 18261677077532173076
373842 8 18337103467860711226
4093350 32 17417822686323299279
5265222 85 18046922733637238972
6287921 2 17985261872384876186

> <PUBCHEM_SHAPE_MULTIPOLES>
676.88
12.69
5.51
1.79
8.67
5.12
-0.03
-4.81
-3.38
3.68
0.76
-0.4
-0.18
0.01

> <PUBCHEM_SHAPE_SELFOVERLAP>
1474.789

> <PUBCHEM_SHAPE_VOLUME>
360.7

> <PUBCHEM_COORDINATE_TYPE>
2
5
10

$$$$
