11867242
  -OEChem-12032416343D

 57 60  0     1  0  0  0  0  0999 V2000
   -2.1990    2.7246    0.4407 S   0  0  0  0  0  0  0  0  0  0  0  0
    1.1724    2.7743   -1.8190 O   0  0  0  0  0  0  0  0  0  0  0  0
    1.6602   -2.5605   -1.9444 O   0  0  0  0  0  0  0  0  0  0  0  0
   -2.2655    2.2330    1.8037 O   0  0  0  0  0  0  0  0  0  0  0  0
   -3.2496    3.5605   -0.1073 O   0  0  0  0  0  0  0  0  0  0  0  0
   -2.3112   -4.5843    0.1143 O   0  0  0  0  0  0  0  0  0  0  0  0
   -1.1412   -3.7431    1.8715 O   0  0  0  0  0  0  0  0  0  0  0  0
    3.0338   -1.6477   -0.3076 N   0  0  0  0  0  0  0  0  0  0  0  0
    2.4535    1.4955   -0.3312 N   0  0  0  0  0  0  0  0  0  0  0  0
   -0.6878    3.4668    0.1701 N   0  0  0  0  0  0  0  0  0  0  0  0
    4.5433    0.2019   -1.0431 C   0  0  1  0  0  0  0  0  0  0  0  0
    3.7843    0.1025    1.2942 C   0  0  2  0  0  0  0  0  0  0  0  0
    4.9873    0.3989    0.4012 C   0  0  0  0  0  0  0  0  0  0  0  0
    4.0625   -1.2424   -1.2675 C   0  0  0  0  0  0  0  0  0  0  0  0
    3.4541    1.2295   -1.3723 C   0  0  0  0  0  0  0  0  0  0  0  0
    3.3456   -1.3624    1.1009 C   0  0  0  0  0  0  0  0  0  0  0  0
    2.6269    1.0322    0.9800 C   0  0  0  0  0  0  0  0  0  0  0  0
    1.7597    1.3834    1.9472 C   0  0  0  0  0  0  0  0  0  0  0  0
    1.3695    2.3235   -0.6913 C   0  0  0  0  0  0  0  0  0  0  0  0
    1.9037   -2.3310   -0.7569 C   0  0  0  0  0  0  0  0  0  0  0  0
    0.4351    2.6568    0.4131 C   0  0  0  0  0  0  0  0  0  0  0  0
    0.6267    2.2204    1.6583 C   0  0  0  0  0  0  0  0  0  0  0  0
    0.9334   -2.7992    0.2981 C   0  0  0  0  0  0  0  0  0  0  0  0
   -0.2297   -3.5181   -0.3551 C   0  0  0  0  0  0  0  0  0  0  0  0
   -2.0306    1.3111   -0.6206 C   0  0  0  0  0  0  0  0  0  0  0  0
   -1.2548   -3.9396    0.6685 C   0  0  0  0  0  0  0  0  0  0  0  0
   -3.2926    0.5113   -0.5186 C   0  0  0  0  0  0  0  0  0  0  0  0
   -4.3488    0.7726   -1.3866 C   0  0  0  0  0  0  0  0  0  0  0  0
   -3.4015   -0.4890    0.4433 C   0  0  0  0  0  0  0  0  0  0  0  0
   -5.5242    0.0277   -1.2918 C   0  0  0  0  0  0  0  0  0  0  0  0
   -4.5770   -1.2339    0.5378 C   0  0  0  0  0  0  0  0  0  0  0  0
   -5.6383   -0.9756   -0.3297 C   0  0  0  0  0  0  0  0  0  0  0  0
    5.3927    0.3754   -1.7154 H   0  0  0  0  0  0  0  0  0  0  0  0
    4.0933    0.2362    2.3391 H   0  0  0  0  0  0  0  0  0  0  0  0
    5.8190   -0.2744    0.6417 H   0  0  0  0  0  0  0  0  0  0  0  0
    5.3470    1.4234    0.5592 H   0  0  0  0  0  0  0  0  0  0  0  0
    3.7040   -1.3658   -2.2950 H   0  0  0  0  0  0  0  0  0  0  0  0
    4.9022   -1.9364   -1.1375 H   0  0  0  0  0  0  0  0  0  0  0  0
    2.9318    0.9547   -2.2973 H   0  0  0  0  0  0  0  0  0  0  0  0
    3.9341    2.1970   -1.5738 H   0  0  0  0  0  0  0  0  0  0  0  0
    4.1612   -2.0388    1.3854 H   0  0  0  0  0  0  0  0  0  0  0  0
    2.5046   -1.5909    1.7591 H   0  0  0  0  0  0  0  0  0  0  0  0
    1.8723    1.0295    2.9667 H   0  0  0  0  0  0  0  0  0  0  0  0
    0.0040    2.4921    2.5016 H   0  0  0  0  0  0  0  0  0  0  0  0
    1.4500   -3.4687    0.9949 H   0  0  0  0  0  0  0  0  0  0  0  0
    0.5626   -1.9275    0.8496 H   0  0  0  0  0  0  0  0  0  0  0  0
   -0.6256    3.9731   -0.7237 H   0  0  0  0  0  0  0  0  0  0  0  0
    0.1189   -4.4166   -0.8771 H   0  0  0  0  0  0  0  0  0  0  0  0
   -0.7328   -2.8621   -1.0755 H   0  0  0  0  0  0  0  0  0  0  0  0
   -1.8612    1.6583   -1.6448 H   0  0  0  0  0  0  0  0  0  0  0  0
   -1.1802    0.6995   -0.3081 H   0  0  0  0  0  0  0  0  0  0  0  0
   -4.2717    1.5508   -2.1411 H   0  0  0  0  0  0  0  0  0  0  0  0
   -2.5810   -0.7017    1.1233 H   0  0  0  0  0  0  0  0  0  0  0  0
   -2.9671   -4.8600    0.7897 H   0  0  0  0  0  0  0  0  0  0  0  0
   -6.3504    0.2286   -1.9675 H   0  0  0  0  0  0  0  0  0  0  0  0
   -4.6649   -2.0164    1.2860 H   0  0  0  0  0  0  0  0  0  0  0  0
   -6.5533   -1.5561   -0.2563 H   0  0  0  0  0  0  0  0  0  0  0  0
  1  4  2  0  0  0  0
  1  5  2  0  0  0  0
  1 10  1  0  0  0  0
  1 25  1  0  0  0  0
  2 19  2  0  0  0  0
  3 20  2  0  0  0  0
  6 26  1  0  0  0  0
  6 54  1  0  0  0  0
  7 26  2  0  0  0  0
  8 14  1  0  0  0  0
  8 16  1  0  0  0  0
  8 20  1  0  0  0  0
  9 15  1  0  0  0  0
  9 17  1  0  0  0  0
  9 19  1  0  0  0  0
 10 21  1  0  0  0  0
 10 47  1  0  0  0  0
 11 13  1  0  0  0  0
 11 14  1  0  0  0  0
 11 15  1  0  0  0  0
 11 33  1  0  0  0  0
 12 13  1  0  0  0  0
 12 16  1  0  0  0  0
 12 17  1  0  0  0  0
 12 34  1  0  0  0  0
 13 35  1  0  0  0  0
 13 36  1  0  0  0  0
 14 37  1  0  0  0  0
 14 38  1  0  0  0  0
 15 39  1  0  0  0  0
 15 40  1  0  0  0  0
 16 41  1  0  0  0  0
 16 42  1  0  0  0  0
 17 18  2  0  0  0  0
 18 22  1  0  0  0  0
 18 43  1  0  0  0  0
 19 21  1  0  0  0  0
 20 23  1  0  0  0  0
 21 22  2  0  0  0  0
 22 44  1  0  0  0  0
 23 24  1  0  0  0  0
 23 45  1  0  0  0  0
 23 46  1  0  0  0  0
 24 26  1  0  0  0  0
 24 48  1  0  0  0  0
 24 49  1  0  0  0  0
 25 27  1  0  0  0  0
 25 50  1  0  0  0  0
 25 51  1  0  0  0  0
 27 28  2  0  0  0  0
 27 29  1  0  0  0  0
 28 30  1  0  0  0  0
 28 52  1  0  0  0  0
 29 31  2  0  0  0  0
 29 53  1  0  0  0  0
 30 32  2  0  0  0  0
 30 55  1  0  0  0  0
 31 32  1  0  0  0  0
 31 56  1  0  0  0  0
 32 57  1  0  0  0  0
M  END
> <PUBCHEM_COMPOUND_CID>
11867242

> <PUBCHEM_CONFORMER_RMSD>
1

> <PUBCHEM_CONFORMER_DIVERSEORDER>
1
27
143
145
173
49
66
117
185
108
30
124
166
91
13
175
34
118
163
165
65
156
172
9
134
26
95
68
150
186
53
148
6
58
41
110
81
137
176
51
128
73
96
133
24
74
140
103
56
100
160
84
76
40
167
7
75
2
139
43
8
146
120
67
182
184
171
16
4
158
88
12
63
37
70
168
97
125
22
135
155
57
151
61
82
23
181
178
144
170
153
64
157
15
130
28
42
44
152
109
19
50
21
169
46
47
78
3
115
48
101
119
25
141
102
38
31
69
131
71
187
138
5
147
112
179
136
39
129
126
77
104
94
87
99
60
18
54
29
80
17
55
162
79
36
86
85
92
35
32
10
116
122
98
114
89
83
180
177
106
14
164
33
62
113
159
11
174
123
161
183
52
105
111
93
188
90
132
127
121
142
45
59
107
72
149
20
154

> <PUBCHEM_MMFF94_PARTIAL_CHARGES>
39
1 1.33
10 -0.75
12 0.14
14 0.3
15 0.3
16 0.3
17 -0.03
18 -0.15
19 0.62
2 -0.57
20 0.57
21 0.21
22 -0.15
23 0.06
24 0.06
25 0.25
26 0.66
27 -0.14
28 -0.15
29 -0.15
3 -0.57
30 -0.15
31 -0.15
32 -0.15
4 -0.65
43 0.15
44 0.15
47 0.42
5 -0.65
52 0.15
53 0.15
54 0.5
55 0.15
56 0.15
57 0.15
6 -0.65
7 -0.57
8 -0.66
9 -0.47

> <PUBCHEM_EFFECTIVE_ROTOR_COUNT>
9

> <PUBCHEM_PHARMACOPHORE_FEATURES>
12
1 10 donor
1 2 acceptor
1 3 acceptor
1 4 acceptor
1 5 acceptor
1 6 acceptor
1 7 acceptor
3 6 7 26 anion
6 27 28 29 30 31 32 rings
6 8 11 12 13 14 16 rings
6 9 11 12 13 15 17 rings
6 9 17 18 19 21 22 rings

> <PUBCHEM_HEAVY_ATOM_COUNT>
32

> <PUBCHEM_ATOM_DEF_STEREO_COUNT>
2

> <PUBCHEM_ATOM_UDEF_STEREO_COUNT>
0

> <PUBCHEM_BOND_DEF_STEREO_COUNT>
0

> <PUBCHEM_BOND_UDEF_STEREO_COUNT>
0

> <PUBCHEM_ISOTOPIC_ATOM_COUNT>
0

> <PUBCHEM_COMPONENT_COUNT>
1

> <PUBCHEM_CACTVS_TAUTO_COUNT>
1

> <PUBCHEM_CONFORMER_ID>
00B5146A00000001

> <PUBCHEM_MMFF94_ENERGY>
74.8088

> <PUBCHEM_FEATURE_SELFOVERLAP>
62.54

> <PUBCHEM_SHAPE_FINGERPRINT>
10316853 100 18336824307887294543
108634 29 18342184362495154150
11285246 1 17048845133974654366
11513181 2 17986678056162309342
12838863 1 18266718277541490858
13122387 1 18195248815034415387
13140716 1 18123464153092932970
13383661 66 17702690781571687862
13402501 40 18411699915397793731
13561361 72 18047750687847812379
14251757 5 18263370346323038046
14725015 67 18338502080720609747
16114785 44 15615770742580914136
17093844 170 18411693322701778016
17492 54 18041858276243090228
17909252 39 17559682724643484710
17921350 177 18189056563073052858
20764821 26 18194412314471977231
20775530 9 17981049608973924774
21133410 90 17058370525243891067
23559900 14 18335412487717819597
25265897 201 13480269164145732651
3027735 51 18341049623703631657
3298306 158 18335687357076760479
463206 1 18271235140649538839
508706 21 18338527356455472627
5309563 4 18342172319548825997
66674814 147 18337389344498138834
86090 222 18271234006541036267

> <PUBCHEM_SHAPE_MULTIPOLES>
612.24
10.12
5.35
1.67
6.28
3.6
0.11
0.71
-2.43
2.4
0.85
-0.67
-0.19
0.67

> <PUBCHEM_SHAPE_SELFOVERLAP>
1304.399

> <PUBCHEM_SHAPE_VOLUME>
338.9

> <PUBCHEM_COORDINATE_TYPE>
2
5
10

$$$$
