26745446
  -OEChem-12032416183D

 64 68  0     1  0  0  0  0  0999 V2000
    1.1104    2.5490   -0.7867 S   0  0  0  0  0  0  0  0  0  0  0  0
    1.7174    2.6183   -2.0984 O   0  0  0  0  0  0  0  0  0  0  0  0
    1.1569    3.6776    0.1176 O   0  0  0  0  0  0  0  0  0  0  0  0
    5.2649    1.6438    0.6051 O   0  0  0  0  0  0  0  0  0  0  0  0
    4.0307    1.3252   -1.3214 O   0  0  0  0  0  0  0  0  0  0  0  0
    1.6972    1.1604    0.0274 N   0  0  2  0  0  0  0  0  0  0  0  0
    1.8958   -2.5738   -0.0569 N   0  0  0  0  0  0  0  0  0  0  0  0
    3.0658   -2.3284    1.8305 N   0  0  0  0  0  0  0  0  0  0  0  0
   -5.0857    1.1840    0.6901 N   0  0  0  0  0  0  0  0  0  0  0  0
    2.9604    1.3338    0.8318 C   0  0  1  0  0  0  0  0  0  0  0  0
    1.5595   -0.1376   -0.7303 C   0  0  0  0  0  0  0  0  0  0  0  0
    3.1422    0.2030    1.8675 C   0  0  0  0  0  0  0  0  0  0  0  0
    2.0443   -1.2325    0.1319 C   0  0  0  0  0  0  0  0  0  0  0  0
    2.7681   -1.1079    1.2919 C   0  0  0  0  0  0  0  0  0  0  0  0
   -0.5811    2.0905   -0.9972 C   0  0  0  0  0  0  0  0  0  0  0  0
    4.1215    1.4285   -0.1057 C   0  0  0  0  0  0  0  0  0  0  0  0
    1.2171   -3.2327   -1.1462 C   0  0  0  0  0  0  0  0  0  0  0  0
    2.5272   -3.1921    0.9930 C   0  0  0  0  0  0  0  0  0  0  0  0
   -1.4866    2.0096    0.0733 C   0  0  0  0  0  0  0  0  0  0  0  0
   -0.9917    1.8059   -2.2998 C   0  0  0  0  0  0  0  0  0  0  0  0
   -2.8274    1.6347   -0.1811 C   0  0  0  0  0  0  0  0  0  0  0  0
   -0.1535   -3.7423   -0.7757 C   0  0  0  0  0  0  0  0  0  0  0  0
   -1.0907    2.2923    1.3907 C   0  0  0  0  0  0  0  0  0  0  0  0
   -3.7328    1.5537    0.8894 C   0  0  0  0  0  0  0  0  0  0  0  0
   -2.3102    1.4374   -2.5500 C   0  0  0  0  0  0  0  0  0  0  0  0
   -3.2233    1.3519   -1.4986 C   0  0  0  0  0  0  0  0  0  0  0  0
   -2.0037    2.2068    2.4422 C   0  0  0  0  0  0  0  0  0  0  0  0
   -3.3221    1.8382    2.1921 C   0  0  0  0  0  0  0  0  0  0  0  0
   -0.2840   -4.9204   -0.0404 C   0  0  0  0  0  0  0  0  0  0  0  0
   -1.2903   -3.0356   -1.1681 C   0  0  0  0  0  0  0  0  0  0  0  0
    6.4608    1.7557   -0.1730 C   0  0  0  0  0  0  0  0  0  0  0  0
   -1.5514   -5.3919    0.3024 C   0  0  0  0  0  0  0  0  0  0  0  0
   -2.5575   -3.5070   -0.8254 C   0  0  0  0  0  0  0  0  0  0  0  0
   -6.0844    2.1949    0.4213 C   0  0  0  0  0  0  0  0  0  0  0  0
   -5.4758   -0.2076    0.7468 C   0  0  0  0  0  0  0  0  0  0  0  0
   -2.6881   -4.6852   -0.0901 C   0  0  0  0  0  0  0  0  0  0  0  0
    2.9009    2.2835    1.3772 H   0  0  0  0  0  0  0  0  0  0  0  0
    2.1124   -0.1101   -1.6727 H   0  0  0  0  0  0  0  0  0  0  0  0
    0.5040   -0.3165   -0.9501 H   0  0  0  0  0  0  0  0  0  0  0  0
    2.4747    0.3957    2.7171 H   0  0  0  0  0  0  0  0  0  0  0  0
    4.1625    0.1642    2.2629 H   0  0  0  0  0  0  0  0  0  0  0  0
    1.8503   -4.0673   -1.4732 H   0  0  0  0  0  0  0  0  0  0  0  0
    1.1637   -2.5439   -1.9970 H   0  0  0  0  0  0  0  0  0  0  0  0
    2.5724   -4.2679    1.0926 H   0  0  0  0  0  0  0  0  0  0  0  0
   -0.3132    1.8562   -3.1458 H   0  0  0  0  0  0  0  0  0  0  0  0
   -0.0783    2.5456    1.6776 H   0  0  0  0  0  0  0  0  0  0  0  0
   -4.2425    1.0619   -1.7416 H   0  0  0  0  0  0  0  0  0  0  0  0
   -2.6292    1.2149   -3.5642 H   0  0  0  0  0  0  0  0  0  0  0  0
   -1.6833    2.4187    3.4582 H   0  0  0  0  0  0  0  0  0  0  0  0
   -4.0220    1.7737    3.0216 H   0  0  0  0  0  0  0  0  0  0  0  0
    0.5902   -5.4887    0.2642 H   0  0  0  0  0  0  0  0  0  0  0  0
   -1.2036   -2.1157   -1.7402 H   0  0  0  0  0  0  0  0  0  0  0  0
    7.2966    1.9263    0.5106 H   0  0  0  0  0  0  0  0  0  0  0  0
    6.3882    2.6054   -0.8585 H   0  0  0  0  0  0  0  0  0  0  0  0
    6.6414    0.8279   -0.7244 H   0  0  0  0  0  0  0  0  0  0  0  0
   -1.6532   -6.3104    0.8729 H   0  0  0  0  0  0  0  0  0  0  0  0
   -3.4425   -2.9557   -1.1299 H   0  0  0  0  0  0  0  0  0  0  0  0
   -6.9998    1.7607    0.0058 H   0  0  0  0  0  0  0  0  0  0  0  0
   -5.7183    2.9320   -0.3019 H   0  0  0  0  0  0  0  0  0  0  0  0
   -6.3486    2.7212    1.3444 H   0  0  0  0  0  0  0  0  0  0  0  0
   -6.5647   -0.3246    0.7606 H   0  0  0  0  0  0  0  0  0  0  0  0
   -5.0870   -0.6845    1.6532 H   0  0  0  0  0  0  0  0  0  0  0  0
   -5.0913   -0.7536   -0.1208 H   0  0  0  0  0  0  0  0  0  0  0  0
   -3.6749   -5.0521    0.1767 H   0  0  0  0  0  0  0  0  0  0  0  0
  1  2  2  0  0  0  0
  1  3  2  0  0  0  0
  1  6  1  0  0  0  0
  1 15  1  0  0  0  0
  4 16  1  0  0  0  0
  4 31  1  0  0  0  0
  5 16  2  0  0  0  0
  6 10  1  0  0  0  0
  6 11  1  0  0  0  0
  7 13  1  0  0  0  0
  7 17  1  0  0  0  0
  7 18  1  0  0  0  0
  8 14  1  0  0  0  0
  8 18  2  0  0  0  0
  9 24  1  0  0  0  0
  9 34  1  0  0  0  0
  9 35  1  0  0  0  0
 10 12  1  0  0  0  0
 10 16  1  0  0  0  0
 10 37  1  0  0  0  0
 11 13  1  0  0  0  0
 11 38  1  0  0  0  0
 11 39  1  0  0  0  0
 12 14  1  0  0  0  0
 12 40  1  0  0  0  0
 12 41  1  0  0  0  0
 13 14  2  0  0  0  0
 15 19  1  0  0  0  0
 15 20  2  0  0  0  0
 17 22  1  0  0  0  0
 17 42  1  0  0  0  0
 17 43  1  0  0  0  0
 18 44  1  0  0  0  0
 19 21  2  0  0  0  0
 19 23  1  0  0  0  0
 20 25  1  0  0  0  0
 20 45  1  0  0  0  0
 21 24  1  0  0  0  0
 21 26  1  0  0  0  0
 22 29  2  0  0  0  0
 22 30  1  0  0  0  0
 23 27  2  0  0  0  0
 23 46  1  0  0  0  0
 24 28  2  0  0  0  0
 25 26  2  0  0  0  0
 25 48  1  0  0  0  0
 26 47  1  0  0  0  0
 27 28  1  0  0  0  0
 27 49  1  0  0  0  0
 28 50  1  0  0  0  0
 29 32  1  0  0  0  0
 29 51  1  0  0  0  0
 30 33  2  0  0  0  0
 30 52  1  0  0  0  0
 31 53  1  0  0  0  0
 31 54  1  0  0  0  0
 31 55  1  0  0  0  0
 32 36  2  0  0  0  0
 32 56  1  0  0  0  0
 33 36  1  0  0  0  0
 33 57  1  0  0  0  0
 34 58  1  0  0  0  0
 34 59  1  0  0  0  0
 34 60  1  0  0  0  0
 35 61  1  0  0  0  0
 35 62  1  0  0  0  0
 35 63  1  0  0  0  0
 36 64  1  0  0  0  0
M  END
> <PUBCHEM_COMPOUND_CID>
26745446

> <PUBCHEM_CONFORMER_RMSD>
1

> <PUBCHEM_CONFORMER_DIVERSEORDER>
1
93
134
40
61
109
84
37
140
51
36
130
21
146
114
143
139
68
52
83
147
121
75
45
126
44
48
13
29
18
49
142
67
17
55
105
151
74
27
33
122
23
54
85
66
111
78
20
118
137
120
57
136
144
150
77
28
103
82
81
43
148
31
60
115
8
91
113
80
133
15
112
71
125
63
39
53
86
100
59
34
92
98
99
16
24
35
50
124
38
119
95
117
25
96
79
70
141
32
14
73
76
47
138
26
72
107
62
97
127
12
65
22
90
88
89
102
104
132
129
123
128
46
131
116
56
2
108
5
69
110
106
30
101
94
6
11
42
64
9
87
7
145
41
10
135
4
149
19
3
58

> <PUBCHEM_MMFF94_PARTIAL_CHARGES>
46
1 1.45
10 0.42
11 0.54
12 0.18
13 -0.33
14 0.05
15 -0.01
16 0.66
17 0.4
18 0.04
2 -0.65
20 -0.15
22 -0.14
23 -0.15
24 0.1
25 -0.15
26 -0.15
27 -0.15
28 -0.15
29 -0.15
3 -0.65
30 -0.15
31 0.28
32 -0.15
33 -0.15
34 0.37
35 0.37
36 -0.15
4 -0.43
44 0.15
45 0.15
46 0.15
47 0.15
48 0.15
49 0.15
5 -0.57
50 0.15
51 0.15
52 0.15
56 0.15
57 0.15
6 -0.85
64 0.15
7 0.05
8 -0.57
9 -0.84

> <PUBCHEM_EFFECTIVE_ROTOR_COUNT>
7.8

> <PUBCHEM_PHARMACOPHORE_FEATURES>
10
1 2 acceptor
1 3 acceptor
1 5 acceptor
1 9 cation
3 7 8 18 cation
5 7 8 13 14 18 rings
6 15 19 20 21 25 26 rings
6 19 21 23 24 27 28 rings
6 22 29 30 32 33 36 rings
6 6 10 11 12 13 14 rings

> <PUBCHEM_HEAVY_ATOM_COUNT>
36

> <PUBCHEM_ATOM_DEF_STEREO_COUNT>
1

> <PUBCHEM_ATOM_UDEF_STEREO_COUNT>
0

> <PUBCHEM_BOND_DEF_STEREO_COUNT>
0

> <PUBCHEM_BOND_UDEF_STEREO_COUNT>
0

> <PUBCHEM_ISOTOPIC_ATOM_COUNT>
0

> <PUBCHEM_COMPONENT_COUNT>
1

> <PUBCHEM_CACTVS_TAUTO_COUNT>
1

> <PUBCHEM_CONFORMER_ID>
01981A6600000001

> <PUBCHEM_MMFF94_ENERGY>
115.9534

> <PUBCHEM_FEATURE_SELFOVERLAP>
50.899

> <PUBCHEM_SHAPE_FINGERPRINT>
10049733 16 18268159819442960372
11513181 2 18059863869917252263
12156800 1 18051444999286852102
12788726 201 17690574395725319892
1361 2 18411139091969811043
14466204 15 15746968966431255056
15264996 142 17970083333454591722
15297060 5 18059864999108028530
16112460 7 18341886372862664455
19315092 285 16185724125123867079
20764821 26 18267848532861468511
20775530 9 16970278336579011627
23536364 44 15088644075887135949
404807 14 16610545586139775017
469060 322 17605539149722230628
5309563 4 17619068326896203263
59755656 520 18341897398671434948
6287921 2 17983866588171877867

> <PUBCHEM_SHAPE_MULTIPOLES>
701.31
9.67
6.96
2.04
0.39
12.04
0.11
-7.28
-2.72
-2.03
0.54
-0.7
-1.29
-1.57

> <PUBCHEM_SHAPE_SELFOVERLAP>
1524.285

> <PUBCHEM_SHAPE_VOLUME>
384

> <PUBCHEM_COORDINATE_TYPE>
2
5
10

$$$$
