11943194
  -OEChem-12032416263D

 53 55  0     1  0  0  0  0  0999 V2000
    0.8760   -0.4796    0.5940 O   0  0  0  0  0  0  0  0  0  0  0  0
   -0.4451    1.3569    0.9288 O   0  0  0  0  0  0  0  0  0  0  0  0
   -5.0404    2.3506    0.5245 O   0  0  0  0  0  0  0  0  0  0  0  0
   -5.7726   -2.1463   -0.8980 O   0  0  0  0  0  0  0  0  0  0  0  0
    4.4707    0.0177    1.4133 N   0  0  2  0  0  0  0  0  0  0  0  0
   -1.3312   -0.6839    0.2004 N   0  0  0  0  0  0  0  0  0  0  0  0
    4.9504   -1.1098   -0.8814 C   0  0  2  0  0  0  0  0  0  0  0  0
    5.3938    0.3709   -0.8908 C   0  0  2  0  0  0  0  0  0  0  0  0
    3.4547   -1.1918   -0.5249 C   0  0  0  0  0  0  0  0  0  0  0  0
    3.2392   -0.6433    0.9032 C   0  0  2  0  0  0  0  0  0  0  0  0
    4.9554    1.0249    0.4388 C   0  0  0  0  0  0  0  0  0  0  0  0
    5.7284   -1.8027    0.2535 C   0  0  0  0  0  0  0  0  0  0  0  0
    5.5183   -1.0218    1.5628 C   0  0  0  0  0  0  0  0  0  0  0  0
    4.8746    1.1478   -2.0986 C   0  0  0  0  0  0  0  0  0  0  0  0
    2.0123    0.2677    0.9829 C   0  0  0  0  0  0  0  0  0  0  0  0
    5.4182    2.5632   -2.1212 C   0  0  0  0  0  0  0  0  0  0  0  0
   -0.3326    0.1812    0.6038 C   0  0  0  0  0  0  0  0  0  0  0  0
   -2.7131   -0.4173    0.0690 C   0  0  0  0  0  0  0  0  0  0  0  0
   -3.5623   -1.4274   -0.3540 C   0  0  0  0  0  0  0  0  0  0  0  0
   -3.1916    0.8488    0.3661 C   0  0  0  0  0  0  0  0  0  0  0  0
   -4.5554    1.1118    0.2369 C   0  0  0  0  0  0  0  0  0  0  0  0
   -4.9260   -1.1643   -0.4835 C   0  0  0  0  0  0  0  0  0  0  0  0
   -5.4225    0.1053   -0.1880 C   0  0  0  0  0  0  0  0  0  0  0  0
   -6.4448    2.5498    0.3705 C   0  0  0  0  0  0  0  0  0  0  0  0
   -7.1543   -1.8083   -1.0082 C   0  0  0  0  0  0  0  0  0  0  0  0
    5.1519   -1.5968   -1.8412 H   0  0  0  0  0  0  0  0  0  0  0  0
    6.4926    0.3857   -0.9353 H   0  0  0  0  0  0  0  0  0  0  0  0
    3.1271   -2.2385   -0.5640 H   0  0  0  0  0  0  0  0  0  0  0  0
    2.8579   -0.6502   -1.2664 H   0  0  0  0  0  0  0  0  0  0  0  0
    3.0181   -1.5020    1.5544 H   0  0  0  0  0  0  0  0  0  0  0  0
    5.8077    1.5620    0.8757 H   0  0  0  0  0  0  0  0  0  0  0  0
    4.1861    1.7899    0.2936 H   0  0  0  0  0  0  0  0  0  0  0  0
    6.7972   -1.8453    0.0131 H   0  0  0  0  0  0  0  0  0  0  0  0
    5.3801   -2.8361    0.3701 H   0  0  0  0  0  0  0  0  0  0  0  0
    5.2458   -1.7132    2.3698 H   0  0  0  0  0  0  0  0  0  0  0  0
    6.4598   -0.5566    1.8814 H   0  0  0  0  0  0  0  0  0  0  0  0
    5.1785    0.6358   -3.0194 H   0  0  0  0  0  0  0  0  0  0  0  0
    3.7803    1.1922   -2.1048 H   0  0  0  0  0  0  0  0  0  0  0  0
    2.1117    1.1333    0.3190 H   0  0  0  0  0  0  0  0  0  0  0  0
    1.8791    0.6237    2.0118 H   0  0  0  0  0  0  0  0  0  0  0  0
    5.0550    3.1627   -1.2817 H   0  0  0  0  0  0  0  0  0  0  0  0
    6.5129    2.5671   -2.0985 H   0  0  0  0  0  0  0  0  0  0  0  0
    5.1033    3.0679   -3.0408 H   0  0  0  0  0  0  0  0  0  0  0  0
   -1.0383   -1.6300   -0.0312 H   0  0  0  0  0  0  0  0  0  0  0  0
   -3.1801   -2.4184   -0.5853 H   0  0  0  0  0  0  0  0  0  0  0  0
   -2.5778    1.6732    0.6995 H   0  0  0  0  0  0  0  0  0  0  0  0
   -6.4781    0.3088   -0.2883 H   0  0  0  0  0  0  0  0  0  0  0  0
   -7.0204    1.9224    1.0596 H   0  0  0  0  0  0  0  0  0  0  0  0
   -6.6528    3.5900    0.6425 H   0  0  0  0  0  0  0  0  0  0  0  0
   -6.7589    2.4273   -0.6717 H   0  0  0  0  0  0  0  0  0  0  0  0
   -7.6781   -2.7074   -1.3497 H   0  0  0  0  0  0  0  0  0  0  0  0
   -7.5846   -1.5424   -0.0366 H   0  0  0  0  0  0  0  0  0  0  0  0
   -7.3229   -1.0373   -1.7678 H   0  0  0  0  0  0  0  0  0  0  0  0
  1 15  1  0  0  0  0
  1 17  1  0  0  0  0
  2 17  2  0  0  0  0
  3 21  1  0  0  0  0
  3 24  1  0  0  0  0
  4 22  1  0  0  0  0
  4 25  1  0  0  0  0
  5 10  1  0  0  0  0
  5 11  1  0  0  0  0
  5 13  1  0  0  0  0
  6 17  1  0  0  0  0
  6 18  1  0  0  0  0
  6 44  1  0  0  0  0
  7  8  1  0  0  0  0
  7  9  1  0  0  0  0
  7 12  1  0  0  0  0
  7 26  1  0  0  0  0
  8 11  1  0  0  0  0
  8 14  1  0  0  0  0
  8 27  1  0  0  0  0
  9 10  1  0  0  0  0
  9 28  1  0  0  0  0
  9 29  1  0  0  0  0
 10 15  1  0  0  0  0
 10 30  1  0  0  0  0
 11 31  1  0  0  0  0
 11 32  1  0  0  0  0
 12 13  1  0  0  0  0
 12 33  1  0  0  0  0
 12 34  1  0  0  0  0
 13 35  1  0  0  0  0
 13 36  1  0  0  0  0
 14 16  1  0  0  0  0
 14 37  1  0  0  0  0
 14 38  1  0  0  0  0
 15 39  1  0  0  0  0
 15 40  1  0  0  0  0
 16 41  1  0  0  0  0
 16 42  1  0  0  0  0
 16 43  1  0  0  0  0
 18 19  2  0  0  0  0
 18 20  1  0  0  0  0
 19 22  1  0  0  0  0
 19 45  1  0  0  0  0
 20 21  2  0  0  0  0
 20 46  1  0  0  0  0
 21 23  1  0  0  0  0
 22 23  2  0  0  0  0
 23 47  1  0  0  0  0
 24 48  1  0  0  0  0
 24 49  1  0  0  0  0
 24 50  1  0  0  0  0
 25 51  1  0  0  0  0
 25 52  1  0  0  0  0
 25 53  1  0  0  0  0
M  END
> <PUBCHEM_COMPOUND_CID>
11943194

> <PUBCHEM_CONFORMER_RMSD>
1

> <PUBCHEM_CONFORMER_DIVERSEORDER>
1
67
26
7
68
19
58
15
54
40
20
44
65
64
21
56
4
60
27
3
17
47
52
48
63
36
9
39
42
38
30
6
66
28
12
41
5
53
61
10
43
14
69
22
2
24
57
23
59
32
45
49
13
29
11
46
35
31
34
25
16
37
33
62
55
50
18
51
8

> <PUBCHEM_MMFF94_PARTIAL_CHARGES>
23
1 -0.43
10 0.27
11 0.27
13 0.27
15 0.28
17 0.78
18 0.12
19 -0.15
2 -0.57
20 -0.15
21 0.08
22 0.08
23 -0.15
24 0.28
25 0.28
3 -0.36
4 -0.36
44 0.37
45 0.15
46 0.15
47 0.15
5 -0.81
6 -0.55

> <PUBCHEM_EFFECTIVE_ROTOR_COUNT>
9.2

> <PUBCHEM_PHARMACOPHORE_FEATURES>
8
1 16 hydrophobe
1 2 acceptor
1 3 acceptor
1 4 acceptor
1 5 cation
1 6 donor
6 18 19 20 21 22 23 rings
8 5 7 8 9 10 11 12 13 rings

> <PUBCHEM_HEAVY_ATOM_COUNT>
25

> <PUBCHEM_ATOM_DEF_STEREO_COUNT>
3

> <PUBCHEM_ATOM_UDEF_STEREO_COUNT>
0

> <PUBCHEM_BOND_DEF_STEREO_COUNT>
0

> <PUBCHEM_BOND_UDEF_STEREO_COUNT>
0

> <PUBCHEM_ISOTOPIC_ATOM_COUNT>
0

> <PUBCHEM_COMPONENT_COUNT>
1

> <PUBCHEM_CACTVS_TAUTO_COUNT>
2

> <PUBCHEM_CONFORMER_ID>
00B63D1A00000001

> <PUBCHEM_MMFF94_ENERGY>
86.3352

> <PUBCHEM_FEATURE_SELFOVERLAP>
40.596

> <PUBCHEM_SHAPE_FINGERPRINT>
10595046 47 18410012134714938854
10638233 991 18113622313097196869
10835480 77 17846767503635454656
11524674 6 15410894102749744847
12236239 1 18334012778622388955
12516196 113 17203323433536501195
12616971 3 17968096395762729824
13533116 47 16443343127422914576
13685833 64 17775001323555801459
13782708 43 17489298741974465119
13785724 45 9005410899912773664
14347332 77 18201434826940754749
14528608 73 18334297591205452380
15183329 4 18114181942776784132
15419008 42 17559113155913137445
1577012 14 18333736814083769221
17844677 252 18059856190045520049
18927931 339 18202279243666262655
20157964 124 17458341979283064494
21150785 3 18260547883074262407
21267235 1 18342173410898066435
21298829 104 18041572437601297276
21623969 137 16343702140496924214
22061861 79 16128658539428628124
2215653 11 17060335189171218889
2303208 19 17060623312788887319
23081809 10 18333731312325303219
23522609 53 18265075594585430609
23559900 14 17774990289816337441
239999 70 16487538061973922850
3004659 81 18410576154959554122
34797466 226 18113623412550692046
394071 54 16588313834187419252
4073 2 18408604772738062674
5104073 3 16732989768845654480
513532 50 18202009867554753364
542803 24 17895195480406021346
86090 222 15841007649292284942
960060 61 18335989735595828128

> <PUBCHEM_SHAPE_MULTIPOLES>
481.05
21.02
2.35
1.47
12.18
1.04
0.4
0.03
4.77
1.53
0.66
-2.3
0.4
-3.88

> <PUBCHEM_SHAPE_SELFOVERLAP>
1007.336

> <PUBCHEM_SHAPE_VOLUME>
268.6

> <PUBCHEM_COORDINATE_TYPE>
2
5
10

$$$$
