75536252
  -OEChem-12032416303D

 54 57  0     1  0  0  0  0  0999 V2000
   -6.4319   -0.8193    0.9169 F   0  0  0  0  0  0  0  0  0  0  0  0
    3.0999   -0.4657    0.8626 O   0  0  0  0  0  0  0  0  0  0  0  0
    5.8595    0.0471    1.7624 O   0  0  0  0  0  0  0  0  0  0  0  0
   -0.8129   -2.3367   -1.4219 O   0  0  0  0  0  0  0  0  0  0  0  0
    1.6990    1.8880    0.0777 N   0  0  0  0  0  0  0  0  0  0  0  0
    0.5469   -2.5990   -1.5354 N   0  0  0  0  0  0  0  0  0  0  0  0
    3.7723    0.7996    0.8192 C   0  0  1  0  0  0  0  0  0  0  0  0
    5.2790    0.6237    0.5895 C   0  0  2  0  0  0  0  0  0  0  0  0
    3.2987   -1.2997   -0.2815 C   0  0  1  0  0  0  0  0  0  0  0  0
    5.5837   -0.3029   -0.5844 C   0  0  0  0  0  0  0  0  0  0  0  0
    4.7840   -1.5983   -0.4791 C   0  0  0  0  0  0  0  0  0  0  0  0
    3.1195    1.7352   -0.1961 C   0  0  0  0  0  0  0  0  0  0  0  0
    2.5125   -2.5851   -0.0539 C   0  0  0  0  0  0  0  0  0  0  0  0
    1.0421   -2.3924   -0.3118 C   0  0  0  0  0  0  0  0  0  0  0  0
    1.0751    2.7885   -0.8833 C   0  0  0  0  0  0  0  0  0  0  0  0
    0.0516   -2.0019    0.6059 C   0  0  0  0  0  0  0  0  0  0  0  0
   -0.3940    2.9710   -0.6089 C   0  0  0  0  0  0  0  0  0  0  0  0
   -1.0957   -1.9821   -0.1422 C   0  0  0  0  0  0  0  0  0  0  0  0
   -2.4710   -1.6813    0.1307 C   0  0  0  0  0  0  0  0  0  0  0  0
   -1.3256    2.1163   -1.1982 C   0  0  0  0  0  0  0  0  0  0  0  0
   -0.8233    3.9947    0.2356 C   0  0  0  0  0  0  0  0  0  0  0  0
   -2.6865    2.2855   -0.9432 C   0  0  0  0  0  0  0  0  0  0  0  0
   -2.1842    4.1638    0.4909 C   0  0  0  0  0  0  0  0  0  0  0  0
   -2.8619   -1.3095    1.4171 C   0  0  0  0  0  0  0  0  0  0  0  0
   -3.4182   -1.7616   -0.8901 C   0  0  0  0  0  0  0  0  0  0  0  0
   -3.1157    3.3092   -0.0988 C   0  0  0  0  0  0  0  0  0  0  0  0
   -4.1998   -1.0182    1.6827 C   0  0  0  0  0  0  0  0  0  0  0  0
   -4.7562   -1.4703   -0.6245 C   0  0  0  0  0  0  0  0  0  0  0  0
   -5.1469   -1.0986    0.6619 C   0  0  0  0  0  0  0  0  0  0  0  0
    3.6328    1.2307    1.8194 H   0  0  0  0  0  0  0  0  0  0  0  0
    5.7588    1.5976    0.4422 H   0  0  0  0  0  0  0  0  0  0  0  0
    2.9117   -0.7936   -1.1740 H   0  0  0  0  0  0  0  0  0  0  0  0
    6.6521   -0.5463   -0.6158 H   0  0  0  0  0  0  0  0  0  0  0  0
    5.3371    0.1992   -1.5272 H   0  0  0  0  0  0  0  0  0  0  0  0
    4.9394   -2.2040   -1.3791 H   0  0  0  0  0  0  0  0  0  0  0  0
    5.1616   -2.1776    0.3731 H   0  0  0  0  0  0  0  0  0  0  0  0
    3.2575    1.3615   -1.2165 H   0  0  0  0  0  0  0  0  0  0  0  0
    3.6147    2.7125   -0.1404 H   0  0  0  0  0  0  0  0  0  0  0  0
    2.6468   -2.9428    0.9749 H   0  0  0  0  0  0  0  0  0  0  0  0
    2.8748   -3.3776   -0.7213 H   0  0  0  0  0  0  0  0  0  0  0  0
    1.2474    0.9743    0.0369 H   0  0  0  0  0  0  0  0  0  0  0  0
    6.8191   -0.0126    1.6164 H   0  0  0  0  0  0  0  0  0  0  0  0
    1.2024    2.4093   -1.9059 H   0  0  0  0  0  0  0  0  0  0  0  0
    1.5635    3.7713   -0.8580 H   0  0  0  0  0  0  0  0  0  0  0  0
    0.1670   -1.7703    1.6547 H   0  0  0  0  0  0  0  0  0  0  0  0
   -1.0037    1.3127   -1.8554 H   0  0  0  0  0  0  0  0  0  0  0  0
   -0.1075    4.6661    0.7025 H   0  0  0  0  0  0  0  0  0  0  0  0
   -3.4120    1.6205   -1.4022 H   0  0  0  0  0  0  0  0  0  0  0  0
   -2.5186    4.9604    1.1490 H   0  0  0  0  0  0  0  0  0  0  0  0
   -2.1470   -1.2373    2.2327 H   0  0  0  0  0  0  0  0  0  0  0  0
   -3.1530   -2.0465   -1.9050 H   0  0  0  0  0  0  0  0  0  0  0  0
   -4.1753    3.4403    0.1002 H   0  0  0  0  0  0  0  0  0  0  0  0
   -4.5047   -0.7283    2.6839 H   0  0  0  0  0  0  0  0  0  0  0  0
   -5.4943   -1.5321   -1.4187 H   0  0  0  0  0  0  0  0  0  0  0  0
  1 29  1  0  0  0  0
  2  7  1  0  0  0  0
  2  9  1  0  0  0  0
  3  8  1  0  0  0  0
  3 42  1  0  0  0  0
  4  6  1  0  0  0  0
  4 18  1  0  0  0  0
  5 12  1  0  0  0  0
  5 15  1  0  0  0  0
  5 41  1  0  0  0  0
  6 14  2  0  0  0  0
  7  8  1  0  0  0  0
  7 12  1  0  0  0  0
  7 30  1  0  0  0  0
  8 10  1  0  0  0  0
  8 31  1  0  0  0  0
  9 11  1  0  0  0  0
  9 13  1  0  0  0  0
  9 32  1  0  0  0  0
 10 11  1  0  0  0  0
 10 33  1  0  0  0  0
 10 34  1  0  0  0  0
 11 35  1  0  0  0  0
 11 36  1  0  0  0  0
 12 37  1  0  0  0  0
 12 38  1  0  0  0  0
 13 14  1  0  0  0  0
 13 39  1  0  0  0  0
 13 40  1  0  0  0  0
 14 16  1  0  0  0  0
 15 17  1  0  0  0  0
 15 43  1  0  0  0  0
 15 44  1  0  0  0  0
 16 18  2  0  0  0  0
 16 45  1  0  0  0  0
 17 20  2  0  0  0  0
 17 21  1  0  0  0  0
 18 19  1  0  0  0  0
 19 24  2  0  0  0  0
 19 25  1  0  0  0  0
 20 22  1  0  0  0  0
 20 46  1  0  0  0  0
 21 23  2  0  0  0  0
 21 47  1  0  0  0  0
 22 26  2  0  0  0  0
 22 48  1  0  0  0  0
 23 26  1  0  0  0  0
 23 49  1  0  0  0  0
 24 27  1  0  0  0  0
 24 50  1  0  0  0  0
 25 28  2  0  0  0  0
 25 51  1  0  0  0  0
 26 52  1  0  0  0  0
 27 29  2  0  0  0  0
 27 53  1  0  0  0  0
 28 29  1  0  0  0  0
 28 54  1  0  0  0  0
M  END
> <PUBCHEM_COMPOUND_CID>
75536252

> <PUBCHEM_CONFORMER_RMSD>
1

> <PUBCHEM_CONFORMER_DIVERSEORDER>
1
90
14
22
74
39
43
106
50
162
121
21
19
133
73
129
102
45
84
9
87
155
44
138
151
142
100
4
110
32
62
131
117
93
25
20
15
120
34
161
157
31
41
70
143
96
130
95
103
152
124
158
18
104
149
64
91
92
108
37
55
119
42
16
99
79
69
132
29
150
88
66
146
65
135
82
114
7
122
97
58
148
60
128
67
23
33
26
154
125
57
94
28
59
116
136
51
126
107
140
63
109
113
144
75
163
12
123
77
38
111
156
115
11
80
8
145
76
101
72
147
56
46
118
35
159
137
141
127
48
36
49
153
83
78
2
68
85
71
52
10
13
89
139
17
105
160
112
98
5
86
61
24
53
6
81
30
47
54
27
40
134
3

> <PUBCHEM_MMFF94_PARTIAL_CHARGES>
39
1 -0.19
12 0.27
13 0.18
14 0.11
15 0.41
16 -0.15
17 -0.14
18 0.09
19 0.05
2 -0.56
20 -0.15
21 -0.15
22 -0.15
23 -0.15
24 -0.15
25 -0.15
26 -0.15
27 -0.15
28 -0.15
29 0.19
3 -0.68
4 -0.02
41 0.36
42 0.4
45 0.15
46 0.15
47 0.15
48 0.15
49 0.15
5 -0.9
50 0.15
51 0.15
52 0.15
53 0.15
54 0.15
6 -0.41
7 0.28
8 0.28
9 0.28

> <PUBCHEM_EFFECTIVE_ROTOR_COUNT>
8.2

> <PUBCHEM_PHARMACOPHORE_FEATURES>
10
1 2 acceptor
1 3 acceptor
1 3 donor
1 5 cation
1 5 donor
1 6 acceptor
5 4 6 14 16 18 rings
6 17 20 21 22 23 26 rings
6 19 24 25 27 28 29 rings
6 2 7 8 9 10 11 rings

> <PUBCHEM_HEAVY_ATOM_COUNT>
29

> <PUBCHEM_ATOM_DEF_STEREO_COUNT>
3

> <PUBCHEM_ATOM_UDEF_STEREO_COUNT>
0

> <PUBCHEM_BOND_DEF_STEREO_COUNT>
0

> <PUBCHEM_BOND_UDEF_STEREO_COUNT>
0

> <PUBCHEM_ISOTOPIC_ATOM_COUNT>
0

> <PUBCHEM_COMPONENT_COUNT>
1

> <PUBCHEM_CACTVS_TAUTO_COUNT>
1

> <PUBCHEM_CONFORMER_ID>
0480977C00000001

> <PUBCHEM_MMFF94_ENERGY>
54.8158

> <PUBCHEM_FEATURE_SELFOVERLAP>
50.748

> <PUBCHEM_SHAPE_FINGERPRINT>
10006869 2 18192138310014942767
10670039 82 18261971669555316510
10688039 33 18040714774921731084
10864689 126 17185044865048953069
10939801 23 18263923418669837024
11513181 2 17986663779717241895
12107698 1 18260828211447484570
12156800 1 18050603700860848588
12293681 4 18114468967368596018
12422481 6 18266763328070040249
12655364 131 16835410569236801824
12788726 201 18261106379035678856
13075007 39 17752504297744113035
13140716 1 18120093046369166306
13402501 40 18409728448109743101
14363568 33 17902813073004567648
14394314 77 18195532721015882769
14790565 3 17110446844805286564
14840074 17 18340214101528287523
14955137 171 18193003831718911923
150020 26 17684384119454253065
15840311 113 17415309177742936227
15968369 153 18130211697060228269
17852330 162 18195275299174011166
20764821 26 18264776466991777309
21033648 144 18130500911953576662
21133410 90 17489295357334657809
21360443 126 18115020784666741069
21796203 349 17974321942079190896
22113638 7 18053099807025077207
3052486 1 18261396607646277492
338550 245 18334301958839507460
463206 1 18193556890045957303
469060 322 16805889493889435591
474 4 18340490083300661059
508706 21 18335423430560740178
5283268 108 18335989730857658290
6004065 56 18337107986461971819
653340 110 18341047419974068912

> <PUBCHEM_SHAPE_MULTIPOLES>
561.96
11.75
5.12
1.29
4.63
5.13
0.15
-4.1
3.46
-3.43
-0.76
-0.29
-0.32
0.81

> <PUBCHEM_SHAPE_SELFOVERLAP>
1205.953

> <PUBCHEM_SHAPE_VOLUME>
310.7

> <PUBCHEM_COORDINATE_TYPE>
2
5
10

$$$$
