45784062
  -OEChem-12032416243D

 44 47  0     1  0  0  0  0  0999 V2000
   -6.9754    0.7935   -1.3678 F   0  0  0  0  0  0  0  0  0  0  0  0
   -6.7582    2.4227    0.0556 F   0  0  0  0  0  0  0  0  0  0  0  0
   -7.2662    0.4256    0.7497 F   0  0  0  0  0  0  0  0  0  0  0  0
    3.4942   -0.7865    1.7469 O   0  0  0  0  0  0  0  0  0  0  0  0
    2.1212   -1.5277    0.0633 N   0  0  0  0  0  0  0  0  0  0  0  0
   -2.4406   -1.8723   -0.0961 N   0  0  0  0  0  0  0  0  0  0  0  0
   -1.0187   -0.2330    0.3845 N   0  0  0  0  0  0  0  0  0  0  0  0
    3.9738   -0.1980   -0.4594 N   0  0  0  0  0  0  0  0  0  0  0  0
   -0.0261   -2.5496    0.1197 C   0  0  1  0  0  0  0  0  0  0  0  0
    0.5730   -2.6993   -1.2864 C   0  0  0  0  0  0  0  0  0  0  0  0
    1.2171   -2.2378    0.9616 C   0  0  0  0  0  0  0  0  0  0  0  0
    1.6893   -1.6623   -1.3260 C   0  0  0  0  0  0  0  0  0  0  0  0
   -1.1419   -1.5192    0.1442 C   0  0  0  0  0  0  0  0  0  0  0  0
    3.2337   -0.8259    0.5431 C   0  0  0  0  0  0  0  0  0  0  0  0
   -3.2065   -0.7385   -0.0046 C   0  0  0  0  0  0  0  0  0  0  0  0
   -2.2960    0.2708    0.2960 C   0  0  0  0  0  0  0  0  0  0  0  0
   -4.5756   -0.5159   -0.1544 C   0  0  0  0  0  0  0  0  0  0  0  0
   -2.7615    1.5863    0.4602 C   0  0  0  0  0  0  0  0  0  0  0  0
   -5.0216    0.7993    0.0124 C   0  0  0  0  0  0  0  0  0  0  0  0
   -4.1323    1.8333    0.3143 C   0  0  0  0  0  0  0  0  0  0  0  0
    5.1455    0.5848   -0.3136 C   0  0  0  0  0  0  0  0  0  0  0  0
   -6.4768    1.1017   -0.1351 C   0  0  0  0  0  0  0  0  0  0  0  0
    5.7434    1.1606   -1.4346 C   0  0  0  0  0  0  0  0  0  0  0  0
    5.7013    0.7798    0.9507 C   0  0  0  0  0  0  0  0  0  0  0  0
    6.8972    1.9312   -1.2913 C   0  0  0  0  0  0  0  0  0  0  0  0
    6.8550    1.5504    1.0942 C   0  0  0  0  0  0  0  0  0  0  0  0
    7.4530    2.1261   -0.0270 C   0  0  0  0  0  0  0  0  0  0  0  0
   -0.4568   -3.5025    0.4533 H   0  0  0  0  0  0  0  0  0  0  0  0
    1.0099   -3.7013   -1.3860 H   0  0  0  0  0  0  0  0  0  0  0  0
   -0.1455   -2.5647   -2.1010 H   0  0  0  0  0  0  0  0  0  0  0  0
    1.0097   -1.6402    1.8549 H   0  0  0  0  0  0  0  0  0  0  0  0
    1.7278   -3.1588    1.2660 H   0  0  0  0  0  0  0  0  0  0  0  0
    1.3247   -0.6861   -1.6631 H   0  0  0  0  0  0  0  0  0  0  0  0
    2.5194   -1.9785   -1.9644 H   0  0  0  0  0  0  0  0  0  0  0  0
   -2.7786   -2.8023   -0.3054 H   0  0  0  0  0  0  0  0  0  0  0  0
   -5.2576   -1.3261   -0.3889 H   0  0  0  0  0  0  0  0  0  0  0  0
    3.6429   -0.2807   -1.4153 H   0  0  0  0  0  0  0  0  0  0  0  0
   -2.0783    2.3963    0.6949 H   0  0  0  0  0  0  0  0  0  0  0  0
   -4.4867    2.8532    0.4426 H   0  0  0  0  0  0  0  0  0  0  0  0
    5.3206    1.0166   -2.4256 H   0  0  0  0  0  0  0  0  0  0  0  0
    5.3045    0.3661    1.8663 H   0  0  0  0  0  0  0  0  0  0  0  0
    7.3629    2.3795   -2.1641 H   0  0  0  0  0  0  0  0  0  0  0  0
    7.2897    1.7022    2.0780 H   0  0  0  0  0  0  0  0  0  0  0  0
    8.3515    2.7259    0.0846 H   0  0  0  0  0  0  0  0  0  0  0  0
  1 22  1  0  0  0  0
  2 22  1  0  0  0  0
  3 22  1  0  0  0  0
  4 14  2  0  0  0  0
  5 11  1  0  0  0  0
  5 12  1  0  0  0  0
  5 14  1  0  0  0  0
  6 13  1  0  0  0  0
  6 15  1  0  0  0  0
  6 35  1  0  0  0  0
  7 13  2  0  0  0  0
  7 16  1  0  0  0  0
  8 14  1  0  0  0  0
  8 21  1  0  0  0  0
  8 37  1  0  0  0  0
  9 10  1  0  0  0  0
  9 11  1  0  0  0  0
  9 13  1  0  0  0  0
  9 28  1  0  0  0  0
 10 12  1  0  0  0  0
 10 29  1  0  0  0  0
 10 30  1  0  0  0  0
 11 31  1  0  0  0  0
 11 32  1  0  0  0  0
 12 33  1  0  0  0  0
 12 34  1  0  0  0  0
 15 16  2  0  0  0  0
 15 17  1  0  0  0  0
 16 18  1  0  0  0  0
 17 19  2  0  0  0  0
 17 36  1  0  0  0  0
 18 20  2  0  0  0  0
 18 38  1  0  0  0  0
 19 20  1  0  0  0  0
 19 22  1  0  0  0  0
 20 39  1  0  0  0  0
 21 23  2  0  0  0  0
 21 24  1  0  0  0  0
 23 25  1  0  0  0  0
 23 40  1  0  0  0  0
 24 26  2  0  0  0  0
 24 41  1  0  0  0  0
 25 27  2  0  0  0  0
 25 42  1  0  0  0  0
 26 27  1  0  0  0  0
 26 43  1  0  0  0  0
 27 44  1  0  0  0  0
M  END
> <PUBCHEM_COMPOUND_CID>
45784062

> <PUBCHEM_CONFORMER_RMSD>
0.8

> <PUBCHEM_CONFORMER_DIVERSEORDER>
1
75
82
71
45
49
8
32
69
44
76
90
91
11
20
83
40
94
52
66
41
74
4
73
68
56
46
92
70
33
88
63
39
65
54
93
85
35
89
24
60
31
59
6
67
26
77
42
14
57
43
80
7
22
3
95
55
25
62
29
13
36
87
72
30
58
17
48
23
12
78
2
38
79
5
21
84
64
10
81
37
16
51
53
47
50
28
86
9
34
19
27
18
15
61

> <PUBCHEM_MMFF94_PARTIAL_CHARGES>
36
1 -0.34
11 0.3
12 0.3
13 0.01
14 0.69
15 -0.15
16 0.23
17 -0.15
18 -0.15
19 -0.14
2 -0.34
20 -0.15
21 0.12
22 1.16
23 -0.15
24 -0.15
25 -0.15
26 -0.15
27 -0.15
3 -0.34
35 0.27
36 0.15
37 0.37
38 0.15
39 0.15
4 -0.57
40 0.15
41 0.15
42 0.15
43 0.15
44 0.15
5 -0.66
6 0.03
7 -0.57
8 -0.55
9 0.18

> <PUBCHEM_EFFECTIVE_ROTOR_COUNT>
6

> <PUBCHEM_PHARMACOPHORE_FEATURES>
8
1 4 acceptor
1 6 donor
1 8 donor
3 6 7 13 cation
5 5 9 10 11 12 rings
5 6 7 13 15 16 rings
6 15 16 17 18 19 20 rings
6 21 23 24 25 26 27 rings

> <PUBCHEM_HEAVY_ATOM_COUNT>
27

> <PUBCHEM_ATOM_DEF_STEREO_COUNT>
1

> <PUBCHEM_ATOM_UDEF_STEREO_COUNT>
0

> <PUBCHEM_BOND_DEF_STEREO_COUNT>
0

> <PUBCHEM_BOND_UDEF_STEREO_COUNT>
0

> <PUBCHEM_ISOTOPIC_ATOM_COUNT>
0

> <PUBCHEM_COMPONENT_COUNT>
1

> <PUBCHEM_CACTVS_TAUTO_COUNT>
4

> <PUBCHEM_CONFORMER_ID>
02BA9BFE00000001

> <PUBCHEM_MMFF94_ENERGY>
58.5426

> <PUBCHEM_FEATURE_SELFOVERLAP>
40.704

> <PUBCHEM_SHAPE_FINGERPRINT>
10 15 17821732744888717417
10280341 67 18341879788910467488
10554248 39 18267849614871461246
10753850 27 10519989253536338046
10906281 52 18341619179285073115
10939801 23 17822579416857743276
11823591 26 18411130351389882974
12342043 65 13624347038189207962
12592606 108 9295280634989892553
12596602 18 17530683225302719458
12633257 1 15936413385847123666
12760667 363 8574712390848603003
12838862 33 18337938065526049932
13150687 139 18131359596422720406
13673619 4 9295291629546994662
13685833 64 8646768893748605438
13782708 43 9439398017292454523
14123256 34 9295291651068920532
14216079 64 8646773287379070337
14257110 125 18410576180185753034
14294032 229 18200879607290974879
14565420 104 17894910702900634706
14617042 71 18341337687540625641
14739800 52 18339067268789653970
14931854 50 17775006760689051496
15183329 4 15769784550299077830
15198563 99 17696748140219931310
15519825 34 15936987356628566505
1577012 14 18261107517771821386
15961568 22 18408606933132914749
16992752 21 18200868608997821935
16994733 274 18261108544016220329
17134984 74 14189573044751377108
1768 4 18341341062946395049
17980427 23 17968379047423830391
18608769 82 18341053020975367979
19427546 20 18339921640648414871
1979834 28 14273453648514853490
20982279 24 12318867294813564341
21298829 104 18410015412007945453
21304304 249 8502653714136538928
21344244 181 13326847855417537708
21344244 78 15068631465212472743
21585481 104 15195023621197043608
21585481 151 11818992955004419696
21637258 2 10592047946917426466
21756936 100 18336824320819643338
22122407 14 17895485842240338016
23522609 53 17130723682283633475
23559900 14 18130780213602781321
23569943 247 9871752386625758845
24771293 8 18409168793061331117
270888 7 18409729564827568326
2748736 6 18409162212543634060
2838139 119 18271800251034748338
3103668 31 17629185298429925951
312425 54 15430035483081024816
3472631 163 18410296925807406990
34797466 226 17703515402396554839
3627633 1 17690280838642790686
3918712 181 18341607153387889144
406291 66 11599465559447674940
4098825 35 13973694905319200155
4107672 100 12823031793749575115
44249763 50 17559943485166375726
44802255 64 17701833305032138678
46194498 28 17631178467690817782
474113 269 10881686853831677289
5219985 13 18411980265288394902
5283384 27 18040989636102551773
543368 44 18342458119684353649
54583773 228 18411412909679534509
5470011 282 13686298006774946496
59682541 35 18334586763401829219
59682541 52 16988853748554535646
6327066 14 18413107286170619550
6438161 24 10159692469667774405
6712543 237 14851883677335689088
7808743 9 18411417345383699314
7970288 3 10015588289983839252
9981440 41 18335426793800591930

> <PUBCHEM_SHAPE_MULTIPOLES>
508.03
21.26
2.82
1.2
2.8
0.84
0.12
-21.09
1.6
0.17
0.27
1.5
0.09
-0.47

> <PUBCHEM_SHAPE_SELFOVERLAP>
1117.164

> <PUBCHEM_SHAPE_VOLUME>
276.7

> <PUBCHEM_COORDINATE_TYPE>
2
5
10

$$$$
