26742486
  -OEChem-12032416213D

 71 75  0     1  0  0  0  0  0999 V2000
   -4.8509   -1.1813    2.3259 O   0  0  0  0  0  0  0  0  0  0  0  0
   -8.4860    3.0435   -0.6718 O   0  0  0  0  0  0  0  0  0  0  0  0
   -0.8478   -3.0257    1.1023 N   0  0  2  0  0  0  0  0  0  0  0  0
   -3.2222   -0.1117    1.0655 N   0  0  0  0  0  0  0  0  0  0  0  0
    1.0956   -0.3820   -2.0688 N   0  0  0  0  0  0  0  0  0  0  0  0
    3.0436    1.0196   -1.8491 N   0  0  0  0  0  0  0  0  0  0  0  0
    8.4780    1.5659    1.3621 N   0  0  0  0  0  0  0  0  0  0  0  0
   -0.5646   -2.6377   -1.4575 C   0  0  2  0  0  0  0  0  0  0  0  0
    0.7811   -2.3972   -0.7188 C   0  0  2  0  0  0  0  0  0  0  0  0
   -1.9159   -2.1194    0.6043 C   0  0  2  0  0  0  0  0  0  0  0  0
   -1.6464   -1.7130   -0.8605 C   0  0  0  0  0  0  0  0  0  0  0  0
   -0.9884   -4.0897   -1.1491 C   0  0  0  0  0  0  0  0  0  0  0  0
    0.4873   -2.4480    0.8078 C   0  0  0  0  0  0  0  0  0  0  0  0
   -0.9666   -4.3113    0.3735 C   0  0  0  0  0  0  0  0  0  0  0  0
   -2.1133   -0.8999    1.5073 C   0  0  0  0  0  0  0  0  0  0  0  0
    1.6066   -1.1791   -1.1077 C   0  0  0  0  0  0  0  0  0  0  0  0
    2.8130   -0.9461   -0.4795 C   0  0  0  0  0  0  0  0  0  0  0  0
    3.4950    0.1795   -0.8949 C   0  0  0  0  0  0  0  0  0  0  0  0
    1.8552    0.6839   -2.3860 C   0  0  0  0  0  0  0  0  0  0  0  0
   -4.5251   -0.3171    1.5163 C   0  0  0  0  0  0  0  0  0  0  0  0
    4.7694    0.5343   -0.3174 C   0  0  0  0  0  0  0  0  0  0  0  0
    1.3241    1.5881   -3.4464 C   0  0  0  0  0  0  0  0  0  0  0  0
   -5.5693    0.5692    0.9410 C   0  0  0  0  0  0  0  0  0  0  0  0
    4.8694    0.7862    1.0509 C   0  0  0  0  0  0  0  0  0  0  0  0
    5.9012    0.6246   -1.1278 C   0  0  0  0  0  0  0  0  0  0  0  0
   -6.8903    0.1287    0.8594 C   0  0  0  0  0  0  0  0  0  0  0  0
   -5.2285    1.8411    0.4807 C   0  0  0  0  0  0  0  0  0  0  0  0
    6.1010    1.1289    1.6088 C   0  0  0  0  0  0  0  0  0  0  0  0
    7.1328    0.9672   -0.5698 C   0  0  0  0  0  0  0  0  0  0  0  0
    7.2327    1.2194    0.7984 C   0  0  0  0  0  0  0  0  0  0  0  0
   -7.8705    0.9599    0.3174 C   0  0  0  0  0  0  0  0  0  0  0  0
   -6.2087    2.6723   -0.0615 C   0  0  0  0  0  0  0  0  0  0  0  0
   -7.5296    2.2317   -0.1432 C   0  0  0  0  0  0  0  0  0  0  0  0
    8.5927    1.8301    2.7827 C   0  0  0  0  0  0  0  0  0  0  0  0
    9.6613    1.6551    0.5298 C   0  0  0  0  0  0  0  0  0  0  0  0
   -9.8162    2.5300   -0.7244 C   0  0  0  0  0  0  0  0  0  0  0  0
   -0.4729   -2.4877   -2.5383 H   0  0  0  0  0  0  0  0  0  0  0  0
    1.4261   -3.2551   -0.9649 H   0  0  0  0  0  0  0  0  0  0  0  0
   -2.8635   -2.6779    0.6306 H   0  0  0  0  0  0  0  0  0  0  0  0
   -1.3260   -0.6683   -0.9394 H   0  0  0  0  0  0  0  0  0  0  0  0
   -2.5725   -1.8080   -1.4411 H   0  0  0  0  0  0  0  0  0  0  0  0
   -0.3100   -4.7987   -1.6380 H   0  0  0  0  0  0  0  0  0  0  0  0
   -1.9941   -4.2766   -1.5448 H   0  0  0  0  0  0  0  0  0  0  0  0
    1.2537   -3.0607    1.3013 H   0  0  0  0  0  0  0  0  0  0  0  0
    0.5756   -1.4598    1.2736 H   0  0  0  0  0  0  0  0  0  0  0  0
   -1.8771   -4.8370    0.6865 H   0  0  0  0  0  0  0  0  0  0  0  0
   -0.1359   -4.9733    0.6496 H   0  0  0  0  0  0  0  0  0  0  0  0
   -1.2391   -0.2412    1.5037 H   0  0  0  0  0  0  0  0  0  0  0  0
   -2.2881   -1.2178    2.5418 H   0  0  0  0  0  0  0  0  0  0  0  0
   -3.0324    0.5803    0.3486 H   0  0  0  0  0  0  0  0  0  0  0  0
    3.2020   -1.6122    0.2816 H   0  0  0  0  0  0  0  0  0  0  0  0
    1.7078    1.2773   -4.4226 H   0  0  0  0  0  0  0  0  0  0  0  0
    0.2304    1.5567   -3.4733 H   0  0  0  0  0  0  0  0  0  0  0  0
    1.6292    2.6229   -3.2619 H   0  0  0  0  0  0  0  0  0  0  0  0
    3.9979    0.7262    1.6988 H   0  0  0  0  0  0  0  0  0  0  0  0
    5.8432    0.4280   -2.1959 H   0  0  0  0  0  0  0  0  0  0  0  0
   -7.1736   -0.8608    1.2086 H   0  0  0  0  0  0  0  0  0  0  0  0
   -4.2188    2.2339    0.5534 H   0  0  0  0  0  0  0  0  0  0  0  0
    6.1265    1.3163    2.6777 H   0  0  0  0  0  0  0  0  0  0  0  0
    7.9833    1.0239   -1.2420 H   0  0  0  0  0  0  0  0  0  0  0  0
   -8.8760    0.5547    0.2831 H   0  0  0  0  0  0  0  0  0  0  0  0
   -5.9390    3.6647   -0.4126 H   0  0  0  0  0  0  0  0  0  0  0  0
    9.6197    2.0875    3.0650 H   0  0  0  0  0  0  0  0  0  0  0  0
    8.3194    0.9482    3.3726 H   0  0  0  0  0  0  0  0  0  0  0  0
    7.9669    2.6792    3.0794 H   0  0  0  0  0  0  0  0  0  0  0  0
   10.5468    1.9312    1.1132 H   0  0  0  0  0  0  0  0  0  0  0  0
    9.5454    2.4241   -0.2421 H   0  0  0  0  0  0  0  0  0  0  0  0
    9.8872    0.6921    0.0583 H   0  0  0  0  0  0  0  0  0  0  0  0
  -10.4449    3.3064   -1.1725 H   0  0  0  0  0  0  0  0  0  0  0  0
  -10.2129    2.3368    0.2781 H   0  0  0  0  0  0  0  0  0  0  0  0
   -9.8828    1.6507   -1.3740 H   0  0  0  0  0  0  0  0  0  0  0  0
  1 20  2  0  0  0  0
  2 33  1  0  0  0  0
  2 36  1  0  0  0  0
  3 10  1  0  0  0  0
  3 13  1  0  0  0  0
  3 14  1  0  0  0  0
  4 15  1  0  0  0  0
  4 20  1  0  0  0  0
  4 50  1  0  0  0  0
  5 16  2  0  0  0  0
  5 19  1  0  0  0  0
  6 18  1  0  0  0  0
  6 19  2  0  0  0  0
  7 30  1  0  0  0  0
  7 34  1  0  0  0  0
  7 35  1  0  0  0  0
  8  9  1  0  0  0  0
  8 11  1  0  0  0  0
  8 12  1  0  0  0  0
  8 37  1  0  0  0  0
  9 13  1  0  0  0  0
  9 16  1  0  0  0  0
  9 38  1  0  0  0  0
 10 11  1  0  0  0  0
 10 15  1  0  0  0  0
 10 39  1  0  0  0  0
 11 40  1  0  0  0  0
 11 41  1  0  0  0  0
 12 14  1  0  0  0  0
 12 42  1  0  0  0  0
 12 43  1  0  0  0  0
 13 44  1  0  0  0  0
 13 45  1  0  0  0  0
 14 46  1  0  0  0  0
 14 47  1  0  0  0  0
 15 48  1  0  0  0  0
 15 49  1  0  0  0  0
 16 17  1  0  0  0  0
 17 18  2  0  0  0  0
 17 51  1  0  0  0  0
 18 21  1  0  0  0  0
 19 22  1  0  0  0  0
 20 23  1  0  0  0  0
 21 24  2  0  0  0  0
 21 25  1  0  0  0  0
 22 52  1  0  0  0  0
 22 53  1  0  0  0  0
 22 54  1  0  0  0  0
 23 26  2  0  0  0  0
 23 27  1  0  0  0  0
 24 28  1  0  0  0  0
 24 55  1  0  0  0  0
 25 29  2  0  0  0  0
 25 56  1  0  0  0  0
 26 31  1  0  0  0  0
 26 57  1  0  0  0  0
 27 32  2  0  0  0  0
 27 58  1  0  0  0  0
 28 30  2  0  0  0  0
 28 59  1  0  0  0  0
 29 30  1  0  0  0  0
 29 60  1  0  0  0  0
 31 33  2  0  0  0  0
 31 61  1  0  0  0  0
 32 33  1  0  0  0  0
 32 62  1  0  0  0  0
 34 63  1  0  0  0  0
 34 64  1  0  0  0  0
 34 65  1  0  0  0  0
 35 66  1  0  0  0  0
 35 67  1  0  0  0  0
 35 68  1  0  0  0  0
 36 69  1  0  0  0  0
 36 70  1  0  0  0  0
 36 71  1  0  0  0  0
M  END
> <PUBCHEM_COMPOUND_CID>
26742486

> <PUBCHEM_CONFORMER_RMSD>
1

> <PUBCHEM_CONFORMER_DIVERSEORDER>
1
101
77
148
45
12
87
132
27
24
100
22
53
154
69
99
129
17
152
76
72
128
74
43
85
94
144
93
131
98
5
153
62
119
147
61
141
81
39
111
89
3
92
57
107
26
138
38
78
102
108
115
146
122
104
142
145
64
105
82
65
66
135
136
52
150
7
109
14
36
75
18
120
50
84
140
113
127
118
149
13
112
121
103
44
126
31
51
130
73
58
124
21
40
25
15
30
29
56
60
67
71
19
48
79
151
37
80
28
117
86
139
116
143
96
47
88
95
46
133
54
114
34
137
33
41
59
4
123
70
11
97
134
9
49
10
83
6
2
42
106
55
20
68
90
63
32
23
35
16
91
125
110
8

> <PUBCHEM_MMFF94_PARTIAL_CHARGES>
42
1 -0.57
10 0.27
13 0.27
14 0.27
15 0.3
16 0.17
17 -0.15
18 0.31
19 0.48
2 -0.36
20 0.54
22 0.14
23 0.09
24 -0.15
25 -0.15
26 -0.15
27 -0.15
28 -0.15
29 -0.15
3 -0.81
30 0.1
31 -0.15
32 -0.15
33 0.08
34 0.37
35 0.37
36 0.28
4 -0.73
5 -0.62
50 0.37
51 0.15
55 0.15
56 0.15
57 0.15
58 0.15
59 0.15
6 -0.62
60 0.15
61 0.15
62 0.15
7 -0.84
9 0.14

> <PUBCHEM_EFFECTIVE_ROTOR_COUNT>
9.2

> <PUBCHEM_PHARMACOPHORE_FEATURES>
11
1 1 acceptor
1 2 acceptor
1 3 cation
1 4 donor
1 5 acceptor
1 7 cation
3 5 6 19 cation
6 21 24 25 28 29 30 rings
6 23 26 27 31 32 33 rings
6 5 6 16 17 18 19 rings
8 3 8 9 10 11 12 13 14 rings

> <PUBCHEM_HEAVY_ATOM_COUNT>
36

> <PUBCHEM_ATOM_DEF_STEREO_COUNT>
3

> <PUBCHEM_ATOM_UDEF_STEREO_COUNT>
0

> <PUBCHEM_BOND_DEF_STEREO_COUNT>
0

> <PUBCHEM_BOND_UDEF_STEREO_COUNT>
0

> <PUBCHEM_ISOTOPIC_ATOM_COUNT>
0

> <PUBCHEM_COMPONENT_COUNT>
1

> <PUBCHEM_CACTVS_TAUTO_COUNT>
2

> <PUBCHEM_CONFORMER_ID>
01980ED600000001

> <PUBCHEM_MMFF94_ENERGY>
129.9694

> <PUBCHEM_FEATURE_SELFOVERLAP>
55.822

> <PUBCHEM_SHAPE_FINGERPRINT>
10190108 129 16732979805038193104
10305334 12 17095529525995706779
10533779 1 18335134242883881317
11478447 183 13183020697103332049
11621639 208 12100979265115726181
117089 54 8862941697627785473
12539747 363 14779267536070401038
12838862 33 18341887489596457081
13150687 139 17846227617804086367
13560911 23 17313675961551140475
14040221 275 14924773494622901189
14767858 380 13110970816304278214
14950920 106 16734687478775128187
15274700 208 17703494593781867560
15289351 153 18129666292765343786
15350500 185 18273493468312646441
15350500 55 18408041792993617865
15419008 145 16370721496810913309
15669420 48 16271929337677745927
16120349 189 18410862070330964991
19053607 189 18116168687859852829
19246450 95 18041000669462370898
19304144 158 18336268960468585647
19315958 150 18411140230294432238
195137 95 18408884027216434185
20554085 129 18412542089885953611
20567600 254 18343026575300480315
20715895 44 17968391044063370877
21033648 29 18409733958637284038
21304303 282 18272085058770100751
23522609 53 16807314607573997390
25269216 80 17131534130122918133
255183 451 8610988019469971566
393628 179 18272366468947463041
4112364 45 18188203183426506171
4330586 98 13614228330455983597
4366758 6 18412265021445500343
44575985 128 13613942461954751077
4756326 101 18201711855867204681
5372103 7 17775846809079189625
54039377 194 8646768898054220064
54728670 133 17096345299130474492
57527293 21 15575295288705675359
57676310 108 10663522864454954733
58083652 198 16806717572944211388
6009941 240 18130227177224819082
6058803 2 17100888700214755190
6201320 77 14056986196915774842
636775 8 8862949385845813144
6695519 79 18124067622797513483
6697151 62 16771018449104673390
9555976 147 16733850686697947667
999808 66 13407067124516424458

> <PUBCHEM_SHAPE_MULTIPOLES>
704.22
28.35
4.09
2.35
1.18
3.95
-0.8
-38.42
10.92
5.06
-0.24
-2.57
-0.64
3.18

> <PUBCHEM_SHAPE_SELFOVERLAP>
1523.531

> <PUBCHEM_SHAPE_VOLUME>
381.8

> <PUBCHEM_COORDINATE_TYPE>
2
5
10

$$$$
