71694125
  -OEChem-12032416293D

 39 42  0     1  0  0  0  0  0999 V2000
   -6.3675   -0.1444    1.9582 Cl  0  0  0  0  0  0  0  0  0  0  0  0
   -3.5034    0.2047    1.2564 S   0  0  0  0  0  0  0  0  0  0  0  0
    3.6681    2.5100    0.6561 O   0  0  0  0  0  0  0  0  0  0  0  0
    2.8807   -0.1845    0.1088 N   0  0  1  0  0  0  0  0  0  0  0  0
   -0.6224    0.5362    0.2612 N   0  0  0  0  0  0  0  0  0  0  0  0
    0.4132    0.5569   -1.7031 N   0  0  0  0  0  0  0  0  0  0  0  0
    2.4146   -1.4623    0.6272 C   0  0  0  0  0  0  0  0  0  0  0  0
    3.4766   -2.5460    0.3405 C   0  0  0  0  0  0  0  0  0  0  0  0
    1.5312   -2.1514   -0.4354 C   0  0  0  0  0  0  0  0  0  0  0  0
    2.3066   -3.4489   -0.1122 C   0  0  0  0  0  0  0  0  0  0  0  0
    1.8724    0.8784    0.3494 C   0  0  1  0  0  0  0  0  0  0  0  0
    4.1459    0.1476    0.7865 C   0  0  0  0  0  0  0  0  0  0  0  0
    2.4525    2.2506   -0.0463 C   0  0  0  0  0  0  0  0  0  0  0  0
    4.6446    1.5177    0.3475 C   0  0  0  0  0  0  0  0  0  0  0  0
    0.5673    0.6570   -0.4015 C   0  0  0  0  0  0  0  0  0  0  0  0
   -1.5971    0.3471   -0.6777 C   0  0  0  0  0  0  0  0  0  0  0  0
   -0.9337    0.3636   -1.8819 C   0  0  0  0  0  0  0  0  0  0  0  0
   -2.9646    0.1794   -0.3687 C   0  0  0  0  0  0  0  0  0  0  0  0
   -4.0015   -0.0167   -1.2541 C   0  0  0  0  0  0  0  0  0  0  0  0
   -5.2550   -0.1478   -0.5895 C   0  0  0  0  0  0  0  0  0  0  0  0
   -5.1284   -0.0471    0.7785 C   0  0  0  0  0  0  0  0  0  0  0  0
    2.0180   -1.4789    1.6499 H   0  0  0  0  0  0  0  0  0  0  0  0
    4.0354   -2.9106    1.2070 H   0  0  0  0  0  0  0  0  0  0  0  0
    4.1760   -2.3584   -0.4844 H   0  0  0  0  0  0  0  0  0  0  0  0
    1.6774   -1.8390   -1.4766 H   0  0  0  0  0  0  0  0  0  0  0  0
    0.4615   -2.2108   -0.2190 H   0  0  0  0  0  0  0  0  0  0  0  0
    2.5112   -4.1063   -0.9607 H   0  0  0  0  0  0  0  0  0  0  0  0
    1.8638   -4.0379    0.6994 H   0  0  0  0  0  0  0  0  0  0  0  0
    1.6584    0.9129    1.4283 H   0  0  0  0  0  0  0  0  0  0  0  0
    4.0013    0.1512    1.8755 H   0  0  0  0  0  0  0  0  0  0  0  0
    4.9419   -0.5675    0.5567 H   0  0  0  0  0  0  0  0  0  0  0  0
    2.6357    2.3243   -1.1265 H   0  0  0  0  0  0  0  0  0  0  0  0
    1.7479    3.0487    0.2143 H   0  0  0  0  0  0  0  0  0  0  0  0
    5.5601    1.7733    0.8907 H   0  0  0  0  0  0  0  0  0  0  0  0
    4.8762    1.5443   -0.7243 H   0  0  0  0  0  0  0  0  0  0  0  0
   -0.7552    0.5776    1.2634 H   0  0  0  0  0  0  0  0  0  0  0  0
   -1.3477    0.2466   -2.8735 H   0  0  0  0  0  0  0  0  0  0  0  0
   -3.8842   -0.0664   -2.3297 H   0  0  0  0  0  0  0  0  0  0  0  0
   -6.1988   -0.3078   -1.0956 H   0  0  0  0  0  0  0  0  0  0  0  0
  1 21  1  0  0  0  0
  2 18  1  0  0  0  0
  2 21  1  0  0  0  0
  3 13  1  0  0  0  0
  3 14  1  0  0  0  0
  4  7  1  0  0  0  0
  4 11  1  0  0  0  0
  4 12  1  0  0  0  0
  5 15  1  0  0  0  0
  5 16  1  0  0  0  0
  5 36  1  0  0  0  0
  6 15  2  0  0  0  0
  6 17  1  0  0  0  0
  7  8  1  0  0  0  0
  7  9  1  0  0  0  0
  7 22  1  0  0  0  0
  8 10  1  0  0  0  0
  8 23  1  0  0  0  0
  8 24  1  0  0  0  0
  9 10  1  0  0  0  0
  9 25  1  0  0  0  0
  9 26  1  0  0  0  0
 10 27  1  0  0  0  0
 10 28  1  0  0  0  0
 11 13  1  0  0  0  0
 11 15  1  0  0  0  0
 11 29  1  0  0  0  0
 12 14  1  0  0  0  0
 12 30  1  0  0  0  0
 12 31  1  0  0  0  0
 13 32  1  0  0  0  0
 13 33  1  0  0  0  0
 14 34  1  0  0  0  0
 14 35  1  0  0  0  0
 16 17  2  0  0  0  0
 16 18  1  0  0  0  0
 17 37  1  0  0  0  0
 18 19  2  0  0  0  0
 19 20  1  0  0  0  0
 19 38  1  0  0  0  0
 20 21  2  0  0  0  0
 20 39  1  0  0  0  0
M  END
> <PUBCHEM_COMPOUND_CID>
71694125

> <PUBCHEM_CONFORMER_RMSD>
0.8

> <PUBCHEM_CONFORMER_DIVERSEORDER>
1
26
7
5
4
9
23
19
16
22
3
17
15
13
10
6
21
12
18
8
20
11
2
25
14
24

> <PUBCHEM_MMFF94_PARTIAL_CHARGES>
22
1 -0.12
11 0.45
12 0.27
13 0.28
14 0.28
15 0.01
16 -0.15
17 0.08
18 0.04
19 -0.15
2 -0.08
20 -0.15
21 0.16
3 -0.56
36 0.27
37 0.15
38 0.15
39 0.15
4 -0.75
5 0.03
6 -0.57
7 0.21

> <PUBCHEM_EFFECTIVE_ROTOR_COUNT>
5

> <PUBCHEM_PHARMACOPHORE_FEATURES>
8
1 3 acceptor
1 4 cation
1 5 donor
3 5 6 15 cation
4 7 8 9 10 rings
5 2 18 19 20 21 rings
5 5 6 15 16 17 rings
6 3 4 11 12 13 14 rings

> <PUBCHEM_HEAVY_ATOM_COUNT>
21

> <PUBCHEM_ATOM_DEF_STEREO_COUNT>
1

> <PUBCHEM_ATOM_UDEF_STEREO_COUNT>
0

> <PUBCHEM_BOND_DEF_STEREO_COUNT>
0

> <PUBCHEM_BOND_UDEF_STEREO_COUNT>
0

> <PUBCHEM_ISOTOPIC_ATOM_COUNT>
0

> <PUBCHEM_COMPONENT_COUNT>
1

> <PUBCHEM_CACTVS_TAUTO_COUNT>
2

> <PUBCHEM_CONFORMER_ID>
0445F72D00000001

> <PUBCHEM_MMFF94_ENERGY>
38.8388

> <PUBCHEM_FEATURE_SELFOVERLAP>
40.598

> <PUBCHEM_SHAPE_FINGERPRINT>
10912923 1 17846776321946597855
10981352 41 17243330329141558507
11370993 144 18335981953147002813
114674 6 18114465548168842698
11552529 35 17986104335127221575
11595378 159 17560807585125588897
12035758 1 18337092511747214810
12107183 9 17767692650790896369
12236239 1 17632857546495006264
12507560 40 18334854979376958533
12596602 18 17917998308474858603
12633257 1 18336532876632949802
12644460 14 18342736312662322518
12670546 56 18060412500274958753
12730499 353 18334862740255936994
12892183 10 18410862036345869997
13140716 1 18194383701842456480
13533116 47 18410582760508323443
13544653 18 18261110734338141085
13583140 156 18341886412134503309
13631057 29 17841138167900907175
13675066 3 18113054931248897669
13911882 115 18113908173114074123
13955234 65 18411415107774199874
14251764 30 17699016089411186718
14252887 29 18040998431799850001
14289901 80 18342165657685414641
14341114 176 18341900666766669497
14341114 328 17847062186163782651
14386348 63 17458345225951234323
146900 427 18201439215753811873
14863182 85 18261401052710854942
15142526 21 17770489043504270200
15238133 3 16630525102946918323
15375358 24 17603860113719565873
15475509 84 17915461584182516601
17138139 8 17412144992977681751
17844677 252 18339924810286325549
17859628 70 18338800005227404418
1813 80 17772476686197891422
19377110 9 17917997213616880835
193927 3 16878240709836432425
1979834 28 18260269684957339764
20645477 70 18263065678427938183
21065198 48 18131350796086977315
21065199 12 18334858286443786381
21065201 7 16805877386740644109
21197605 99 18118691152059627243
21421861 104 17987810604857366499
21521721 280 18337958986960231496
21623969 137 18261114088570702731
22182313 1 17749937882859194319
22224240 67 18336819905339587896
23557571 272 17096075892552760300
23559900 14 18265321833385882149
239999 70 17675926503792545960
31174 14 18336539413789192134
312425 54 18189071871301457803
3178227 256 18408041827986411208
33824 294 18408316688280949442
341906 21 15769774620419150683
3421961 26 18337669698768089970
3633792 109 18339627972696686487
42630746 31 18413102870859921014
4340502 62 18341053011683559794
458136 41 18409726296737218910
465052 167 17603860105562336768
474 4 18270113651278905408
5104073 3 18189331282277255697
5352402 22 18260554390076277235
5758199 1 18272367637721503144
621550 34 18187637012147041508
633830 44 11959721647524447395
8272917 22 18343021081783925804

> <PUBCHEM_SHAPE_MULTIPOLES>
417.08
12.01
2.53
1.44
14.65
1.7
-0.14
-0.36
5.33
-5.31
0.17
1.86
-0.13
0.45

> <PUBCHEM_SHAPE_SELFOVERLAP>
879.647

> <PUBCHEM_SHAPE_VOLUME>
238.1

> <PUBCHEM_COORDINATE_TYPE>
2
5
10

$$$$
