38028448
  -OEChem-12032416253D

 69 71  0     1  0  0  0  0  0999 V2000
    0.3251    3.2575   -1.2867 O   0  0  0  0  0  0  0  0  0  0  0  0
   -2.8627   -2.9038   -0.2182 O   0  0  0  0  0  0  0  0  0  0  0  0
   -3.2870   -1.3494    1.4538 N   0  0  0  0  0  0  0  0  0  0  0  0
    1.7966    1.6225   -0.5367 N   0  0  0  0  0  0  0  0  0  0  0  0
   -1.4257   -2.7135    1.5954 N   0  0  0  0  0  0  0  0  0  0  0  0
    5.2797    0.6149    1.9651 N   0  0  0  0  0  0  0  0  0  0  0  0
   -3.1575    1.3402    0.6264 C   0  0  1  0  0  0  0  0  0  0  0  0
   -4.1745    0.3722   -0.0285 C   0  0  1  0  0  0  0  0  0  0  0  0
   -2.5348    2.2613   -0.4338 C   0  0  0  0  0  0  0  0  0  0  0  0
   -1.8127    1.4706   -1.5410 C   0  0  2  0  0  0  0  0  0  0  0  0
   -3.8039    2.1828    1.7304 C   0  0  0  0  0  0  0  0  0  0  0  0
   -2.6569    0.3218   -2.0544 C   0  0  0  0  0  0  0  0  0  0  0  0
   -3.7164   -0.1467   -1.3713 C   0  0  0  0  0  0  0  0  0  0  0  0
   -4.4873   -0.8098    0.8961 C   0  0  0  0  0  0  0  0  0  0  0  0
   -0.4438    0.9745   -1.0623 C   0  0  0  0  0  0  0  0  0  0  0  0
   -2.7497    2.6522    2.7278 C   0  0  0  0  0  0  0  0  0  0  0  0
   -4.5454    3.3715    1.1272 C   0  0  0  0  0  0  0  0  0  0  0  0
   -2.2825   -0.2473   -3.3947 C   0  0  0  0  0  0  0  0  0  0  0  0
    0.5711    2.0927   -0.9855 C   0  0  0  0  0  0  0  0  0  0  0  0
   -2.5493   -2.3736    0.8468 C   0  0  0  0  0  0  0  0  0  0  0  0
    2.9536    2.4713   -0.3677 C   0  0  0  0  0  0  0  0  0  0  0  0
   -0.4913   -3.7406    1.1971 C   0  0  0  0  0  0  0  0  0  0  0  0
    4.1450    1.7049    0.1296 C   0  0  0  0  0  0  0  0  0  0  0  0
    0.6202   -3.1913    0.3502 C   0  0  0  0  0  0  0  0  0  0  0  0
    5.1927    1.3757   -0.7232 C   0  0  0  0  0  0  0  0  0  0  0  0
    4.2359    1.3048    1.4530 C   0  0  0  0  0  0  0  0  0  0  0  0
    0.4832   -3.1454   -1.0372 C   0  0  0  0  0  0  0  0  0  0  0  0
    1.7901   -2.7271    0.9511 C   0  0  0  0  0  0  0  0  0  0  0  0
    6.2839    0.6665   -0.2335 C   0  0  0  0  0  0  0  0  0  0  0  0
    6.2792    0.3130    1.1062 C   0  0  0  0  0  0  0  0  0  0  0  0
    1.5161   -2.6352   -1.8237 C   0  0  0  0  0  0  0  0  0  0  0  0
    2.8230   -2.2165    0.1648 C   0  0  0  0  0  0  0  0  0  0  0  0
    2.6859   -2.1707   -1.2226 C   0  0  0  0  0  0  0  0  0  0  0  0
   -2.3328    0.7737    1.0702 H   0  0  0  0  0  0  0  0  0  0  0  0
   -5.1200    0.8940   -0.2234 H   0  0  0  0  0  0  0  0  0  0  0  0
   -1.8526    2.9844    0.0239 H   0  0  0  0  0  0  0  0  0  0  0  0
   -3.3121    2.8435   -0.9455 H   0  0  0  0  0  0  0  0  0  0  0  0
   -1.6675    2.1658   -2.3799 H   0  0  0  0  0  0  0  0  0  0  0  0
   -4.5242    1.5789    2.2930 H   0  0  0  0  0  0  0  0  0  0  0  0
   -4.3163   -0.9394   -1.8141 H   0  0  0  0  0  0  0  0  0  0  0  0
   -5.0387   -1.5997    0.3726 H   0  0  0  0  0  0  0  0  0  0  0  0
   -5.1123   -0.4884    1.7355 H   0  0  0  0  0  0  0  0  0  0  0  0
   -0.0335    0.2387   -1.7642 H   0  0  0  0  0  0  0  0  0  0  0  0
   -0.5044    0.4798   -0.0868 H   0  0  0  0  0  0  0  0  0  0  0  0
   -1.9949    3.2951    2.2645 H   0  0  0  0  0  0  0  0  0  0  0  0
   -2.2351    1.7996    3.1842 H   0  0  0  0  0  0  0  0  0  0  0  0
   -3.2171    3.2244    3.5367 H   0  0  0  0  0  0  0  0  0  0  0  0
   -3.8749    4.1516    0.7516 H   0  0  0  0  0  0  0  0  0  0  0  0
   -5.1515    3.8499    1.9065 H   0  0  0  0  0  0  0  0  0  0  0  0
   -5.2390    3.0780    0.3337 H   0  0  0  0  0  0  0  0  0  0  0  0
   -2.2515    0.5453   -4.1493 H   0  0  0  0  0  0  0  0  0  0  0  0
   -3.0030   -0.9977   -3.7379 H   0  0  0  0  0  0  0  0  0  0  0  0
   -1.3021   -0.7306   -3.3559 H   0  0  0  0  0  0  0  0  0  0  0  0
   -2.9659   -0.9921    2.3487 H   0  0  0  0  0  0  0  0  0  0  0  0
    1.8870    0.6348   -0.3152 H   0  0  0  0  0  0  0  0  0  0  0  0
    2.6952    3.2726    0.3348 H   0  0  0  0  0  0  0  0  0  0  0  0
    3.1639    2.9533   -1.3297 H   0  0  0  0  0  0  0  0  0  0  0  0
   -1.2383   -2.1985    2.4502 H   0  0  0  0  0  0  0  0  0  0  0  0
   -1.0263   -4.5314    0.6580 H   0  0  0  0  0  0  0  0  0  0  0  0
   -0.0908   -4.1937    2.1110 H   0  0  0  0  0  0  0  0  0  0  0  0
    5.1697    1.6640   -1.7705 H   0  0  0  0  0  0  0  0  0  0  0  0
    3.4494    1.5318    2.1662 H   0  0  0  0  0  0  0  0  0  0  0  0
   -0.4217   -3.5045   -1.5196 H   0  0  0  0  0  0  0  0  0  0  0  0
    1.9086   -2.7559    2.0310 H   0  0  0  0  0  0  0  0  0  0  0  0
    7.1114    0.3983   -0.8802 H   0  0  0  0  0  0  0  0  0  0  0  0
    7.1064   -0.2413    1.5371 H   0  0  0  0  0  0  0  0  0  0  0  0
    1.4086   -2.5978   -2.9037 H   0  0  0  0  0  0  0  0  0  0  0  0
    3.7345   -1.8578    0.6327 H   0  0  0  0  0  0  0  0  0  0  0  0
    3.4898   -1.7718   -1.8343 H   0  0  0  0  0  0  0  0  0  0  0  0
  1 19  2  0  0  0  0
  2 20  2  0  0  0  0
  3 14  1  0  0  0  0
  3 20  1  0  0  0  0
  3 54  1  0  0  0  0
  4 19  1  0  0  0  0
  4 21  1  0  0  0  0
  4 55  1  0  0  0  0
  5 20  1  0  0  0  0
  5 22  1  0  0  0  0
  5 58  1  0  0  0  0
  6 26  1  0  0  0  0
  6 30  2  0  0  0  0
  7  8  1  0  0  0  0
  7  9  1  0  0  0  0
  7 11  1  0  0  0  0
  7 34  1  0  0  0  0
  8 13  1  0  0  0  0
  8 14  1  0  0  0  0
  8 35  1  0  0  0  0
  9 10  1  0  0  0  0
  9 36  1  0  0  0  0
  9 37  1  0  0  0  0
 10 12  1  0  0  0  0
 10 15  1  0  0  0  0
 10 38  1  0  0  0  0
 11 16  1  0  0  0  0
 11 17  1  0  0  0  0
 11 39  1  0  0  0  0
 12 13  2  0  0  0  0
 12 18  1  0  0  0  0
 13 40  1  0  0  0  0
 14 41  1  0  0  0  0
 14 42  1  0  0  0  0
 15 19  1  0  0  0  0
 15 43  1  0  0  0  0
 15 44  1  0  0  0  0
 16 45  1  0  0  0  0
 16 46  1  0  0  0  0
 16 47  1  0  0  0  0
 17 48  1  0  0  0  0
 17 49  1  0  0  0  0
 17 50  1  0  0  0  0
 18 51  1  0  0  0  0
 18 52  1  0  0  0  0
 18 53  1  0  0  0  0
 21 23  1  0  0  0  0
 21 56  1  0  0  0  0
 21 57  1  0  0  0  0
 22 24  1  0  0  0  0
 22 59  1  0  0  0  0
 22 60  1  0  0  0  0
 23 25  1  0  0  0  0
 23 26  2  0  0  0  0
 24 27  2  0  0  0  0
 24 28  1  0  0  0  0
 25 29  2  0  0  0  0
 25 61  1  0  0  0  0
 26 62  1  0  0  0  0
 27 31  1  0  0  0  0
 27 63  1  0  0  0  0
 28 32  2  0  0  0  0
 28 64  1  0  0  0  0
 29 30  1  0  0  0  0
 29 65  1  0  0  0  0
 30 66  1  0  0  0  0
 31 33  2  0  0  0  0
 31 67  1  0  0  0  0
 32 33  1  0  0  0  0
 32 68  1  0  0  0  0
 33 69  1  0  0  0  0
M  END
> <PUBCHEM_COMPOUND_CID>
38028448

> <PUBCHEM_CONFORMER_RMSD>
1.2

> <PUBCHEM_CONFORMER_DIVERSEORDER>
1
151
68
78
130
128
10
193
4
122
113
163
109
173
121
134
66
143
125
60
139
58
117
107
93
5
114
123
42
129
27
40
63
154
43
189
185
132
184
181
116
82
56
39
112
67
3
110
188
190
47
83
111
2
73
19
30
75
97
176
51
168
150
167
179
177
25
76
11
28
165
41
88
153
95
32
141
13
183
84
36
49
127
187
194
164
159
174
186
46
35
191
85
157
91
17
74
16
146
137
44
102
94
65
160
57
90
24
104
162
70
172
72
62
133
61
26
166
180
12
138
38
77
170
89
98
124
161
108
31
50
99
148
120
136
192
81
18
52
118
15
115
142
126
119
23
53
175
182
155
33
171
69
71
152
48
22
147
156
96
169
64
103
145
45
20
9
21
135
105
86
106
34
55
100
101
144
8
140
178
59
54
80
149
29
92
131
158
37
7
6
14
79
87

> <PUBCHEM_MMFF94_PARTIAL_CHARGES>
41
1 -0.57
10 0.14
12 -0.28
13 -0.29
14 0.3
15 0.06
18 0.14
19 0.57
2 -0.57
20 0.69
21 0.44
22 0.44
23 -0.14
24 -0.14
25 -0.15
26 0.16
27 -0.15
28 -0.15
29 -0.15
3 -0.73
30 0.16
31 -0.15
32 -0.15
33 -0.15
4 -0.73
40 0.15
5 -0.73
54 0.37
55 0.37
58 0.37
6 -0.62
61 0.15
62 0.15
63 0.15
64 0.15
65 0.15
66 0.15
67 0.15
68 0.15
69 0.15
8 0.14

> <PUBCHEM_EFFECTIVE_ROTOR_COUNT>
12.8

> <PUBCHEM_PHARMACOPHORE_FEATURES>
10
1 1 acceptor
1 2 acceptor
1 3 donor
1 4 donor
1 5 donor
1 6 acceptor
3 11 16 17 hydrophobe
6 24 27 28 31 32 33 rings
6 6 23 25 26 29 30 rings
6 7 8 9 10 12 13 rings

> <PUBCHEM_HEAVY_ATOM_COUNT>
33

> <PUBCHEM_ATOM_DEF_STEREO_COUNT>
3

> <PUBCHEM_ATOM_UDEF_STEREO_COUNT>
0

> <PUBCHEM_BOND_DEF_STEREO_COUNT>
0

> <PUBCHEM_BOND_UDEF_STEREO_COUNT>
0

> <PUBCHEM_ISOTOPIC_ATOM_COUNT>
0

> <PUBCHEM_COMPONENT_COUNT>
1

> <PUBCHEM_CACTVS_TAUTO_COUNT>
6

> <PUBCHEM_CONFORMER_ID>
024444A000000001

> <PUBCHEM_MMFF94_ENERGY>
64.4552

> <PUBCHEM_FEATURE_SELFOVERLAP>
50.795

> <PUBCHEM_SHAPE_FINGERPRINT>
10675989 125 16744487073679140636
12422481 6 18335427910549454778
12633257 1 18186241753234328692
12788726 201 17763198220707874820
13402501 40 18261111906511122662
13642711 20 16773798147131850274
13726171 33 17974317557851277788
14904385 31 18271239543297368752
15799311 1 18188221935501386468
16067690 210 16772403815747516352
16112460 7 18338518513223175762
20764821 26 18187939369317931846
238918 7 18342176687520328574
3633792 109 18265605495477445141
392239 28 18189046496039047314
4093350 32 17703518701005544375
4112364 45 17623312476572473777
469060 322 17023195937243487043
508706 21 18336834173200144918
9981440 41 17274555221982243649

> <PUBCHEM_SHAPE_MULTIPOLES>
647.46
11.53
4.99
2.39
13.34
2.55
0.61
-7.25
-4
-0.98
-1.21
-1.71
-0.26
-0.42

> <PUBCHEM_SHAPE_SELFOVERLAP>
1348.006

> <PUBCHEM_SHAPE_VOLUME>
364.5

> <PUBCHEM_COORDINATE_TYPE>
2
5
10

$$$$
