56775516
  -OEChem-12032416343D

 48 50  0     0  0  0  0  0  0999 V2000
    0.3833    3.8587    0.8989 O   0  0  0  0  0  0  0  0  0  0  0  0
   -4.2664    0.5900    0.2283 O   0  0  0  0  0  0  0  0  0  0  0  0
   -3.7475   -3.0381    0.0324 O   0  0  0  0  0  0  0  0  0  0  0  0
    5.8919   -0.0278    0.4305 O   0  0  0  0  0  0  0  0  0  0  0  0
    0.5658    0.8992    0.2666 N   0  0  0  0  0  0  0  0  0  0  0  0
   -3.4130    1.6103   -0.1740 N   0  0  0  0  0  0  0  0  0  0  0  0
   -0.1833    2.0873   -0.1487 C   0  0  0  0  0  0  0  0  0  0  0  0
   -0.6299    2.8462    1.0958 C   0  0  0  0  0  0  0  0  0  0  0  0
    0.7943    3.2411   -0.3421 C   0  0  0  0  0  0  0  0  0  0  0  0
   -1.1864    1.7989   -1.2232 C   0  0  0  0  0  0  0  0  0  0  0  0
   -2.3428    0.9879   -0.6764 C   0  0  0  0  0  0  0  0  0  0  0  0
    1.2036    0.2995   -0.9067 C   0  0  0  0  0  0  0  0  0  0  0  0
   -2.4630   -0.4113   -0.6183 C   0  0  0  0  0  0  0  0  0  0  0  0
    2.4006   -0.5145   -0.5485 C   0  0  0  0  0  0  0  0  0  0  0  0
   -3.6896   -0.6091   -0.0414 C   0  0  0  0  0  0  0  0  0  0  0  0
   -4.4608   -1.8038    0.3223 C   0  0  0  0  0  0  0  0  0  0  0  0
    3.6008    0.1168   -0.2217 C   0  0  0  0  0  0  0  0  0  0  0  0
    2.3205   -1.9071   -0.5408 C   0  0  0  0  0  0  0  0  0  0  0  0
   -5.7978   -1.9273   -0.4651 C   0  0  0  0  0  0  0  0  0  0  0  0
   -4.7800   -1.8809    1.8439 C   0  0  0  0  0  0  0  0  0  0  0  0
    4.7209   -0.6443    0.1128 C   0  0  0  0  0  0  0  0  0  0  0  0
    3.4405   -2.6684   -0.2066 C   0  0  0  0  0  0  0  0  0  0  0  0
    4.6407   -2.0370    0.1204 C   0  0  0  0  0  0  0  0  0  0  0  0
    6.9979   -0.8664    0.7615 C   0  0  0  0  0  0  0  0  0  0  0  0
   -1.6229    3.3051    1.0586 H   0  0  0  0  0  0  0  0  0  0  0  0
   -0.5130    2.3450    2.0626 H   0  0  0  0  0  0  0  0  0  0  0  0
    1.8670    3.0241   -0.3325 H   0  0  0  0  0  0  0  0  0  0  0  0
    0.5817    3.9025   -1.1891 H   0  0  0  0  0  0  0  0  0  0  0  0
   -0.7737    1.3130   -2.1134 H   0  0  0  0  0  0  0  0  0  0  0  0
   -1.6019    2.7446   -1.6007 H   0  0  0  0  0  0  0  0  0  0  0  0
    0.0201    0.1936    0.7598 H   0  0  0  0  0  0  0  0  0  0  0  0
    1.5383    1.0498   -1.6361 H   0  0  0  0  0  0  0  0  0  0  0  0
    0.4904   -0.3376   -1.4430 H   0  0  0  0  0  0  0  0  0  0  0  0
   -1.7658   -1.1668   -0.9483 H   0  0  0  0  0  0  0  0  0  0  0  0
    3.6716    1.2016   -0.2268 H   0  0  0  0  0  0  0  0  0  0  0  0
    1.3917   -2.4132   -0.7907 H   0  0  0  0  0  0  0  0  0  0  0  0
   -6.4546   -1.0720   -0.2736 H   0  0  0  0  0  0  0  0  0  0  0  0
   -5.6026   -1.9739   -1.5430 H   0  0  0  0  0  0  0  0  0  0  0  0
   -6.3333   -2.8459   -0.2000 H   0  0  0  0  0  0  0  0  0  0  0  0
   -3.8521   -1.8905    2.4279 H   0  0  0  0  0  0  0  0  0  0  0  0
   -5.3805   -1.0253    2.1707 H   0  0  0  0  0  0  0  0  0  0  0  0
   -5.3199   -2.8018    2.0917 H   0  0  0  0  0  0  0  0  0  0  0  0
   -4.3120   -3.7849    0.2959 H   0  0  0  0  0  0  0  0  0  0  0  0
    3.3769   -3.7527   -0.2004 H   0  0  0  0  0  0  0  0  0  0  0  0
    5.4710   -2.6885    0.3704 H   0  0  0  0  0  0  0  0  0  0  0  0
    7.8451   -0.2101    0.9865 H   0  0  0  0  0  0  0  0  0  0  0  0
    7.2955   -1.4932   -0.0860 H   0  0  0  0  0  0  0  0  0  0  0  0
    6.8008   -1.4547    1.6640 H   0  0  0  0  0  0  0  0  0  0  0  0
  1  8  1  0  0  0  0
  1  9  1  0  0  0  0
  2  6  1  0  0  0  0
  2 15  1  0  0  0  0
  3 16  1  0  0  0  0
  3 43  1  0  0  0  0
  4 21  1  0  0  0  0
  4 24  1  0  0  0  0
  5  7  1  0  0  0  0
  5 12  1  0  0  0  0
  5 31  1  0  0  0  0
  6 11  2  0  0  0  0
  7  8  1  0  0  0  0
  7  9  1  0  0  0  0
  7 10  1  0  0  0  0
  8 25  1  0  0  0  0
  8 26  1  0  0  0  0
  9 27  1  0  0  0  0
  9 28  1  0  0  0  0
 10 11  1  0  0  0  0
 10 29  1  0  0  0  0
 10 30  1  0  0  0  0
 11 13  1  0  0  0  0
 12 14  1  0  0  0  0
 12 32  1  0  0  0  0
 12 33  1  0  0  0  0
 13 15  2  0  0  0  0
 13 34  1  0  0  0  0
 14 17  2  0  0  0  0
 14 18  1  0  0  0  0
 15 16  1  0  0  0  0
 16 19  1  0  0  0  0
 16 20  1  0  0  0  0
 17 21  1  0  0  0  0
 17 35  1  0  0  0  0
 18 22  2  0  0  0  0
 18 36  1  0  0  0  0
 19 37  1  0  0  0  0
 19 38  1  0  0  0  0
 19 39  1  0  0  0  0
 20 40  1  0  0  0  0
 20 41  1  0  0  0  0
 20 42  1  0  0  0  0
 21 23  2  0  0  0  0
 22 23  1  0  0  0  0
 22 44  1  0  0  0  0
 23 45  1  0  0  0  0
 24 46  1  0  0  0  0
 24 47  1  0  0  0  0
 24 48  1  0  0  0  0
M  END
> <PUBCHEM_COMPOUND_CID>
56775516

> <PUBCHEM_CONFORMER_RMSD>
1

> <PUBCHEM_CONFORMER_DIVERSEORDER>
1
91
24
42
119
133
164
117
115
124
161
138
86
128
159
35
152
165
82
172
110
20
101
45
139
40
146
90
94
51
116
129
97
30
153
169
171
65
105
75
43
158
57
140
95
78
122
69
134
157
163
103
121
52
151
131
144
85
123
33
49
166
149
72
10
107
162
76
50
92
135
156
59
54
12
83
127
136
7
29
89
113
79
154
100
47
9
145
120
167
84
22
137
21
106
98
88
70
130
142
28
168
66
126
15
64
77
13
147
80
108
37
150
111
23
34
63
148
26
102
73
31
62
112
36
96
118
109
60
143
87
48
56
160
114
99
58
25
55
81
170
125
155
17
44
71
141
104
38
74
132
5
11
41
14
53
16
46
68
61
27
6
18
93
4
3
67
19
8
2
32
39

> <PUBCHEM_MMFF94_PARTIAL_CHARGES>
29
1 -0.52
10 0.18
11 0.11
12 0.41
13 -0.15
14 -0.14
15 -0.04
16 0.46
17 -0.15
18 -0.15
2 -0.02
21 0.08
22 -0.15
23 -0.15
24 0.28
3 -0.68
31 0.36
34 0.15
35 0.15
36 0.15
4 -0.36
43 0.4
44 0.15
45 0.15
5 -0.84
6 -0.41
7 0.21
8 0.26
9 0.26

> <PUBCHEM_EFFECTIVE_ROTOR_COUNT>
7.8

> <PUBCHEM_PHARMACOPHORE_FEATURES>
11
1 1 acceptor
1 3 acceptor
1 3 donor
1 4 acceptor
1 5 cation
1 5 donor
1 6 acceptor
3 16 19 20 hydrophobe
4 1 7 8 9 rings
5 2 6 11 13 15 rings
6 14 17 18 21 22 23 rings

> <PUBCHEM_HEAVY_ATOM_COUNT>
24

> <PUBCHEM_ATOM_DEF_STEREO_COUNT>
0

> <PUBCHEM_ATOM_UDEF_STEREO_COUNT>
0

> <PUBCHEM_BOND_DEF_STEREO_COUNT>
0

> <PUBCHEM_BOND_UDEF_STEREO_COUNT>
0

> <PUBCHEM_ISOTOPIC_ATOM_COUNT>
0

> <PUBCHEM_COMPONENT_COUNT>
1

> <PUBCHEM_CACTVS_TAUTO_COUNT>
1

> <PUBCHEM_CONFORMER_ID>
0362535C00000001

> <PUBCHEM_MMFF94_ENERGY>
66.7569

> <PUBCHEM_FEATURE_SELFOVERLAP>
55.821

> <PUBCHEM_SHAPE_FINGERPRINT>
10591671 39 18408610250007631950
10675989 125 17038088525889321117
11045515 52 18041562430042608804
12516196 113 18342455945718732479
12596602 18 16988847206618347139
12633257 1 18057906791012085855
12969540 37 18192428791068276173
13103583 49 17917727789864488787
13402501 40 18409729573159650738
13533116 47 18126008406922680283
13544653 18 18409453574344772773
13631057 29 18336262367081927982
13911882 115 18130510739149739486
14347329 18 9511458909881564742
14429380 30 18192429894907506943
14787075 74 18261394477157784628
14863182 85 17469612170951868413
15352361 1 18409449193678870215
15927050 60 17550105209782680756
16110190 28 18342463650953449399
17349148 13 17604439496692686854
17492 89 18267020545166862686
19315092 285 17557709350643506147
20567600 70 18336545014147029658
20600515 1 18265627489445766701
21033650 10 16009012983478227965
21796203 349 18122094092938326730
23559900 14 18410000040161529453
314194 84 18338802328862233815
329604 57 18261115196666886134
3421961 26 18267304407881099989
392239 28 18411703171209383642
4015057 19 14851905650820391804
463206 1 18335989765144420803
5104073 3 18055907690031183930
5486654 36 18335712645759673593
6431902 208 18335137596219253947
9709674 26 17911519783815716030

> <PUBCHEM_SHAPE_MULTIPOLES>
460.47
13.61
3.93
1.05
7.82
2.24
0.23
-12.6
3.02
-1.57
0.67
-0.63
0.07
0.63

> <PUBCHEM_SHAPE_SELFOVERLAP>
972.867

> <PUBCHEM_SHAPE_VOLUME>
261.8

> <PUBCHEM_COORDINATE_TYPE>
2
5
10

$$$$
