51136832
  -OEChem-12032416223D

 67 71  0     1  0  0  0  0  0999 V2000
   -3.9196   -0.1907    1.9788 O   0  0  0  0  0  0  0  0  0  0  0  0
    6.1054   -3.1943   -1.7846 O   0  0  0  0  0  0  0  0  0  0  0  0
    1.8329    2.5441   -1.5456 O   0  0  0  0  0  0  0  0  0  0  0  0
   -3.8960   -1.5992   -1.4154 N   0  0  1  0  0  0  0  0  0  0  0  0
    2.9457   -0.5040    1.1070 N   0  0  0  0  0  0  0  0  0  0  0  0
   -2.1007   -0.8443    0.8470 N   0  0  0  0  0  0  0  0  0  0  0  0
    5.0428   -1.4770   -0.6349 N   0  0  0  0  0  0  0  0  0  0  0  0
   -2.8192    0.3006    2.6927 N   0  0  0  0  0  0  0  0  0  0  0  0
    2.2321    0.6848    3.0186 N   0  0  0  0  0  0  0  0  0  0  0  0
   -0.2167    3.5986   -1.0498 N   0  0  0  0  0  0  0  0  0  0  0  0
   -4.4098   -1.4845   -0.0359 C   0  0  1  0  0  0  0  0  0  0  0  0
   -4.7773   -2.9250    0.3657 C   0  0  0  0  0  0  0  0  0  0  0  0
   -4.4938   -3.7671   -0.8702 C   0  0  0  0  0  0  0  0  0  0  0  0
   -4.5534   -2.7654   -2.0057 C   0  0  0  0  0  0  0  0  0  0  0  0
   -4.1030   -0.3937   -2.2075 C   0  0  0  0  0  0  0  0  0  0  0  0
   -3.4083   -0.8521    0.9077 C   0  0  0  0  0  0  0  0  0  0  0  0
   -3.0745    0.6622   -1.9008 C   0  0  0  0  0  0  0  0  0  0  0  0
    2.7985   -1.7633    0.3719 C   0  0  0  0  0  0  0  0  0  0  0  0
    4.2172    0.2157    0.9993 C   0  0  0  0  0  0  0  0  0  0  0  0
    4.1637   -2.3882    0.0933 C   0  0  0  0  0  0  0  0  0  0  0  0
    4.8776   -0.0492   -0.3538 C   0  0  0  0  0  0  0  0  0  0  0  0
   -1.7841   -0.1255    1.9629 C   0  0  0  0  0  0  0  0  0  0  0  0
    1.9154   -0.0271    1.9138 C   0  0  0  0  0  0  0  0  0  0  0  0
   -3.4782    1.9151   -1.4391 C   0  0  0  0  0  0  0  0  0  0  0  0
   -1.7185    0.3881   -2.0784 C   0  0  0  0  0  0  0  0  0  0  0  0
   -0.4212    0.1484    2.3217 C   0  0  0  0  0  0  0  0  0  0  0  0
    0.6180   -0.3197    1.5252 C   0  0  0  0  0  0  0  0  0  0  0  0
    5.9649   -1.9925   -1.5465 C   0  0  0  0  0  0  0  0  0  0  0  0
   -2.5259    2.8939   -1.1555 C   0  0  0  0  0  0  0  0  0  0  0  0
   -0.7661    1.3669   -1.7948 C   0  0  0  0  0  0  0  0  0  0  0  0
   -1.1698    2.6197   -1.3333 C   0  0  0  0  0  0  0  0  0  0  0  0
   -0.1353    0.8844    3.4663 C   0  0  0  0  0  0  0  0  0  0  0  0
    1.1957    1.1232    3.7681 C   0  0  0  0  0  0  0  0  0  0  0  0
    6.8290   -0.9839   -2.2629 C   0  0  0  0  0  0  0  0  0  0  0  0
    1.1768    3.5085   -1.1658 C   0  0  0  0  0  0  0  0  0  0  0  0
    1.8557    4.7924   -0.7594 C   0  0  0  0  0  0  0  0  0  0  0  0
   -5.3326   -0.8878   -0.0126 H   0  0  0  0  0  0  0  0  0  0  0  0
   -4.2174   -3.3003    1.2290 H   0  0  0  0  0  0  0  0  0  0  0  0
   -5.8457   -2.9786    0.6085 H   0  0  0  0  0  0  0  0  0  0  0  0
   -5.2144   -4.5813   -0.9903 H   0  0  0  0  0  0  0  0  0  0  0  0
   -3.4910   -4.2064   -0.7997 H   0  0  0  0  0  0  0  0  0  0  0  0
   -4.0265   -3.1311   -2.8924 H   0  0  0  0  0  0  0  0  0  0  0  0
   -5.5968   -2.5535   -2.2717 H   0  0  0  0  0  0  0  0  0  0  0  0
   -3.9896   -0.6257   -3.2760 H   0  0  0  0  0  0  0  0  0  0  0  0
   -5.1243   -0.0057   -2.0983 H   0  0  0  0  0  0  0  0  0  0  0  0
    2.2826   -1.5731   -0.5775 H   0  0  0  0  0  0  0  0  0  0  0  0
    2.2087   -2.4877    0.9469 H   0  0  0  0  0  0  0  0  0  0  0  0
    4.8793   -0.1047    1.8127 H   0  0  0  0  0  0  0  0  0  0  0  0
    4.0607    1.2964    1.1017 H   0  0  0  0  0  0  0  0  0  0  0  0
    4.6715   -2.6347    1.0339 H   0  0  0  0  0  0  0  0  0  0  0  0
    4.0422   -3.3219   -0.4662 H   0  0  0  0  0  0  0  0  0  0  0  0
    4.2594    0.3604   -1.1622 H   0  0  0  0  0  0  0  0  0  0  0  0
    5.8472    0.4557   -0.3905 H   0  0  0  0  0  0  0  0  0  0  0  0
   -4.5310    2.1417   -1.2941 H   0  0  0  0  0  0  0  0  0  0  0  0
   -1.3897   -0.5824   -2.4411 H   0  0  0  0  0  0  0  0  0  0  0  0
    0.4050   -0.8771    0.6189 H   0  0  0  0  0  0  0  0  0  0  0  0
   -2.8546    3.8655   -0.7955 H   0  0  0  0  0  0  0  0  0  0  0  0
    0.2638    1.0800   -1.9552 H   0  0  0  0  0  0  0  0  0  0  0  0
   -0.9038    1.2754    4.1249 H   0  0  0  0  0  0  0  0  0  0  0  0
    1.4724    1.6923    4.6495 H   0  0  0  0  0  0  0  0  0  0  0  0
    7.3891   -1.4858   -3.0579 H   0  0  0  0  0  0  0  0  0  0  0  0
    6.2149   -0.2052   -2.7224 H   0  0  0  0  0  0  0  0  0  0  0  0
    7.5429   -0.5414   -1.5633 H   0  0  0  0  0  0  0  0  0  0  0  0
   -0.5905    4.4851   -0.7174 H   0  0  0  0  0  0  0  0  0  0  0  0
    2.9407    4.6764   -0.8308 H   0  0  0  0  0  0  0  0  0  0  0  0
    1.5397    5.6031   -1.4218 H   0  0  0  0  0  0  0  0  0  0  0  0
    1.5936    5.0401    0.2732 H   0  0  0  0  0  0  0  0  0  0  0  0
  1  8  1  0  0  0  0
  1 16  1  0  0  0  0
  2 28  2  0  0  0  0
  3 35  2  0  0  0  0
  4 11  1  0  0  0  0
  4 14  1  0  0  0  0
  4 15  1  0  0  0  0
  5 18  1  0  0  0  0
  5 19  1  0  0  0  0
  5 23  1  0  0  0  0
  6 16  2  0  0  0  0
  6 22  1  0  0  0  0
  7 20  1  0  0  0  0
  7 21  1  0  0  0  0
  7 28  1  0  0  0  0
  8 22  2  0  0  0  0
  9 23  2  0  0  0  0
  9 33  1  0  0  0  0
 10 31  1  0  0  0  0
 10 35  1  0  0  0  0
 10 64  1  0  0  0  0
 11 12  1  0  0  0  0
 11 16  1  0  0  0  0
 11 37  1  0  0  0  0
 12 13  1  0  0  0  0
 12 38  1  0  0  0  0
 12 39  1  0  0  0  0
 13 14  1  0  0  0  0
 13 40  1  0  0  0  0
 13 41  1  0  0  0  0
 14 42  1  0  0  0  0
 14 43  1  0  0  0  0
 15 17  1  0  0  0  0
 15 44  1  0  0  0  0
 15 45  1  0  0  0  0
 17 24  2  0  0  0  0
 17 25  1  0  0  0  0
 18 20  1  0  0  0  0
 18 46  1  0  0  0  0
 18 47  1  0  0  0  0
 19 21  1  0  0  0  0
 19 48  1  0  0  0  0
 19 49  1  0  0  0  0
 20 50  1  0  0  0  0
 20 51  1  0  0  0  0
 21 52  1  0  0  0  0
 21 53  1  0  0  0  0
 22 26  1  0  0  0  0
 23 27  1  0  0  0  0
 24 29  1  0  0  0  0
 24 54  1  0  0  0  0
 25 30  2  0  0  0  0
 25 55  1  0  0  0  0
 26 27  2  0  0  0  0
 26 32  1  0  0  0  0
 27 56  1  0  0  0  0
 28 34  1  0  0  0  0
 29 31  2  0  0  0  0
 29 57  1  0  0  0  0
 30 31  1  0  0  0  0
 30 58  1  0  0  0  0
 32 33  2  0  0  0  0
 32 59  1  0  0  0  0
 33 60  1  0  0  0  0
 34 61  1  0  0  0  0
 34 62  1  0  0  0  0
 34 63  1  0  0  0  0
 35 36  1  0  0  0  0
 36 65  1  0  0  0  0
 36 66  1  0  0  0  0
 36 67  1  0  0  0  0
M  END
> <PUBCHEM_COMPOUND_CID>
51136832

> <PUBCHEM_CONFORMER_RMSD>
1.2

> <PUBCHEM_CONFORMER_DIVERSEORDER>
1
19
135
32
81
73
75
94
59
108
118
109
68
50
72
85
35
77
128
80
113
115
96
74
28
132
83
82
20
142
119
86
33
136
62
141
43
125
10
116
133
111
140
144
122
70
52
112
117
107
49
104
100
120
14
124
31
126
39
29
57
88
7
64
121
27
95
12
65
24
48
66
134
63
47
114
40
93
105
34
4
110
78
60
127
30
102
56
71
84
5
103
91
106
3
139
44
92
138
17
89
69
8
9
130
42
143
15
97
13
16
76
18
55
98
79
22
137
41
2
101
36
26
46
129
131
37
90
23
61
38
67
51
99
54
6
45
21
123
87
53
58
11
25

> <PUBCHEM_MMFF94_PARTIAL_CHARGES>
42
1 -0.02
10 -0.55
11 0.45
14 0.27
15 0.41
16 0.3
17 -0.14
18 0.37
19 0.37
2 -0.57
20 0.3
21 0.3
22 0.46
23 0.41
24 -0.15
25 -0.15
26 0.05
27 -0.15
28 0.57
29 -0.15
3 -0.57
30 -0.15
31 0.12
32 -0.15
33 0.16
34 0.06
35 0.57
36 0.06
4 -0.81
5 -0.84
54 0.15
55 0.15
56 0.15
57 0.15
58 0.15
59 0.15
6 -0.57
60 0.15
64 0.37
7 -0.66
8 -0.41
9 -0.62

> <PUBCHEM_EFFECTIVE_ROTOR_COUNT>
10.2

> <PUBCHEM_PHARMACOPHORE_FEATURES>
11
1 10 donor
1 2 acceptor
1 3 acceptor
1 4 cation
3 5 9 23 cation
3 6 8 22 cation
5 1 6 8 16 22 rings
5 4 11 12 13 14 rings
6 17 24 25 29 30 31 rings
6 5 7 18 19 20 21 rings
6 9 23 26 27 32 33 rings

> <PUBCHEM_HEAVY_ATOM_COUNT>
36

> <PUBCHEM_ATOM_DEF_STEREO_COUNT>
1

> <PUBCHEM_ATOM_UDEF_STEREO_COUNT>
0

> <PUBCHEM_BOND_DEF_STEREO_COUNT>
0

> <PUBCHEM_BOND_UDEF_STEREO_COUNT>
0

> <PUBCHEM_ISOTOPIC_ATOM_COUNT>
0

> <PUBCHEM_COMPONENT_COUNT>
1

> <PUBCHEM_CACTVS_TAUTO_COUNT>
3

> <PUBCHEM_CONFORMER_ID>
030C494000000001

> <PUBCHEM_MMFF94_ENERGY>
93.913

> <PUBCHEM_FEATURE_SELFOVERLAP>
55.823

> <PUBCHEM_SHAPE_FINGERPRINT>
11387372 6 16698952002717031350
11607047 141 18048614891703677507
12633046 712 17775281672865699089
12655387 17 16916523544648457251
12788726 201 17606941928859356365
13383661 66 16891476896430211347
13636023 20 18408876348605751706
13761468 95 17028242480639514790
14040221 310 18265904549918198582
15219462 58 17557424585351958697
17909252 39 18263641942970095476
20028762 73 15298601289517058275
46194498 28 18117550945199177699
484985 159 16701728342485705239
6523845 18 13914310153649587786

> <PUBCHEM_SHAPE_MULTIPOLES>
688.39
12.48
4.55
3.65
13.04
3
3.06
-14.05
-8.69
-0.2
-3.39
0.44
0.59
1.47

> <PUBCHEM_SHAPE_SELFOVERLAP>
1480.647

> <PUBCHEM_SHAPE_VOLUME>
379.2

> <PUBCHEM_COORDINATE_TYPE>
2
5
10

$$$$
