71693171
  -OEChem-12032416303D

 65 68  0     1  0  0  0  0  0999 V2000
    4.5074   -0.3995   -2.1075 O   0  0  0  0  0  0  0  0  0  0  0  0
   -7.3782    0.1583    0.4619 O   0  0  0  0  0  0  0  0  0  0  0  0
   -7.5563   -1.8030   -0.7298 O   0  0  0  0  0  0  0  0  0  0  0  0
    4.2961    0.6420   -0.0444 N   0  0  0  0  0  0  0  0  0  0  0  0
   -2.3369    0.2486    1.4909 N   0  0  0  0  0  0  0  0  0  0  0  0
   -1.2683   -0.6379   -0.2446 N   0  0  0  0  0  0  0  0  0  0  0  0
    4.3559   -1.8035    1.1207 N   0  0  0  0  0  0  0  0  0  0  0  0
    4.6227   -4.1675   -0.3647 N   0  0  0  0  0  0  0  0  0  0  0  0
    1.7017    1.9540   -0.8133 C   0  0  1  0  0  0  0  0  0  0  0  0
    2.9057    2.6442   -0.1250 C   0  0  1  0  0  0  0  0  0  0  0  0
    0.3927    2.3201   -0.0973 C   0  0  0  0  0  0  0  0  0  0  0  0
    0.4065    1.9107    1.3876 C   0  0  2  0  0  0  0  0  0  0  0  0
    1.6038    2.3267   -2.2958 C   0  0  0  0  0  0  0  0  0  0  0  0
    1.6922    2.3255    2.0741 C   0  0  0  0  0  0  0  0  0  0  0  0
    2.7946    2.6627    1.3815 C   0  0  0  0  0  0  0  0  0  0  0  0
    4.2283    1.9841   -0.5314 C   0  0  0  0  0  0  0  0  0  0  0  0
    0.1593    0.4066    1.5482 C   0  0  0  0  0  0  0  0  0  0  0  0
    0.9202    3.6803   -2.4601 C   0  0  0  0  0  0  0  0  0  0  0  0
    0.8548    1.2452   -3.0681 C   0  0  0  0  0  0  0  0  0  0  0  0
    1.6680    2.3878    3.5760 C   0  0  0  0  0  0  0  0  0  0  0  0
   -1.1307   -0.0095    0.9013 C   0  0  0  0  0  0  0  0  0  0  0  0
    4.4327   -0.4635   -0.8833 C   0  0  0  0  0  0  0  0  0  0  0  0
   -3.3183   -0.2460    0.6705 C   0  0  0  0  0  0  0  0  0  0  0  0
   -2.6258   -0.7943   -0.4056 C   0  0  0  0  0  0  0  0  0  0  0  0
   -4.7094   -0.2604    0.7742 C   0  0  0  0  0  0  0  0  0  0  0  0
   -3.3481   -1.3970   -1.4493 C   0  0  0  0  0  0  0  0  0  0  0  0
    4.4616   -1.7939   -0.2230 C   0  0  0  0  0  0  0  0  0  0  0  0
   -5.4125   -0.8644   -0.2734 C   0  0  0  0  0  0  0  0  0  0  0  0
   -4.7459   -1.4232   -1.3663 C   0  0  0  0  0  0  0  0  0  0  0  0
    4.5927   -2.9551   -0.9524 C   0  0  0  0  0  0  0  0  0  0  0  0
   -6.8660   -0.9104   -0.2213 C   0  0  0  0  0  0  0  0  0  0  0  0
    4.3859   -3.0160    1.7085 C   0  0  0  0  0  0  0  0  0  0  0  0
    4.5170   -4.1772    0.9790 C   0  0  0  0  0  0  0  0  0  0  0  0
   -8.8032    0.2255    0.5822 C   0  0  0  0  0  0  0  0  0  0  0  0
    1.8277    0.8669   -0.7408 H   0  0  0  0  0  0  0  0  0  0  0  0
    2.9559    3.6940   -0.4402 H   0  0  0  0  0  0  0  0  0  0  0  0
   -0.4816    1.9205   -0.6178 H   0  0  0  0  0  0  0  0  0  0  0  0
    0.2602    3.4108   -0.0922 H   0  0  0  0  0  0  0  0  0  0  0  0
   -0.4208    2.4536    1.8670 H   0  0  0  0  0  0  0  0  0  0  0  0
    2.6025    2.3955   -2.7390 H   0  0  0  0  0  0  0  0  0  0  0  0
    3.6751    2.9980    1.9262 H   0  0  0  0  0  0  0  0  0  0  0  0
    5.0717    2.5223   -0.0820 H   0  0  0  0  0  0  0  0  0  0  0  0
    4.3833    2.0116   -1.6133 H   0  0  0  0  0  0  0  0  0  0  0  0
    0.1163    0.1331    2.6098 H   0  0  0  0  0  0  0  0  0  0  0  0
    0.9798   -0.1791    1.1158 H   0  0  0  0  0  0  0  0  0  0  0  0
    1.3733    4.4605   -1.8414 H   0  0  0  0  0  0  0  0  0  0  0  0
    1.0246    4.0117   -3.5008 H   0  0  0  0  0  0  0  0  0  0  0  0
   -0.1571    3.6457   -2.2666 H   0  0  0  0  0  0  0  0  0  0  0  0
    1.3585    0.2771   -2.9742 H   0  0  0  0  0  0  0  0  0  0  0  0
   -0.1766    1.1252   -2.7224 H   0  0  0  0  0  0  0  0  0  0  0  0
    0.8172    1.4935   -4.1345 H   0  0  0  0  0  0  0  0  0  0  0  0
    0.8603    3.0439    3.9162 H   0  0  0  0  0  0  0  0  0  0  0  0
    2.6046    2.7795    3.9872 H   0  0  0  0  0  0  0  0  0  0  0  0
    1.5128    1.3927    4.0031 H   0  0  0  0  0  0  0  0  0  0  0  0
    4.2833    0.4893    0.9602 H   0  0  0  0  0  0  0  0  0  0  0  0
   -2.4822    0.7206    2.3736 H   0  0  0  0  0  0  0  0  0  0  0  0
   -5.1994    0.1706    1.6405 H   0  0  0  0  0  0  0  0  0  0  0  0
   -2.8392   -1.8329   -2.3030 H   0  0  0  0  0  0  0  0  0  0  0  0
   -5.3041   -1.8873   -2.1766 H   0  0  0  0  0  0  0  0  0  0  0  0
    4.6795   -2.9661   -2.0325 H   0  0  0  0  0  0  0  0  0  0  0  0
    4.3008   -3.0243    2.7881 H   0  0  0  0  0  0  0  0  0  0  0  0
    4.5409   -5.1510    1.4521 H   0  0  0  0  0  0  0  0  0  0  0  0
   -9.0551    1.1263    1.1479 H   0  0  0  0  0  0  0  0  0  0  0  0
   -9.1772   -0.6478    1.1248 H   0  0  0  0  0  0  0  0  0  0  0  0
   -9.2625    0.2911   -0.4085 H   0  0  0  0  0  0  0  0  0  0  0  0
  1 22  2  0  0  0  0
  2 31  1  0  0  0  0
  2 34  1  0  0  0  0
  3 31  2  0  0  0  0
  4 16  1  0  0  0  0
  4 22  1  0  0  0  0
  4 55  1  0  0  0  0
  5 21  1  0  0  0  0
  5 23  1  0  0  0  0
  5 56  1  0  0  0  0
  6 21  2  0  0  0  0
  6 24  1  0  0  0  0
  7 27  2  0  0  0  0
  7 32  1  0  0  0  0
  8 30  2  0  0  0  0
  8 33  1  0  0  0  0
  9 10  1  0  0  0  0
  9 11  1  0  0  0  0
  9 13  1  0  0  0  0
  9 35  1  0  0  0  0
 10 15  1  0  0  0  0
 10 16  1  0  0  0  0
 10 36  1  0  0  0  0
 11 12  1  0  0  0  0
 11 37  1  0  0  0  0
 11 38  1  0  0  0  0
 12 14  1  0  0  0  0
 12 17  1  0  0  0  0
 12 39  1  0  0  0  0
 13 18  1  0  0  0  0
 13 19  1  0  0  0  0
 13 40  1  0  0  0  0
 14 15  2  0  0  0  0
 14 20  1  0  0  0  0
 15 41  1  0  0  0  0
 16 42  1  0  0  0  0
 16 43  1  0  0  0  0
 17 21  1  0  0  0  0
 17 44  1  0  0  0  0
 17 45  1  0  0  0  0
 18 46  1  0  0  0  0
 18 47  1  0  0  0  0
 18 48  1  0  0  0  0
 19 49  1  0  0  0  0
 19 50  1  0  0  0  0
 19 51  1  0  0  0  0
 20 52  1  0  0  0  0
 20 53  1  0  0  0  0
 20 54  1  0  0  0  0
 22 27  1  0  0  0  0
 23 24  2  0  0  0  0
 23 25  1  0  0  0  0
 24 26  1  0  0  0  0
 25 28  2  0  0  0  0
 25 57  1  0  0  0  0
 26 29  2  0  0  0  0
 26 58  1  0  0  0  0
 27 30  1  0  0  0  0
 28 29  1  0  0  0  0
 28 31  1  0  0  0  0
 29 59  1  0  0  0  0
 30 60  1  0  0  0  0
 32 33  2  0  0  0  0
 32 61  1  0  0  0  0
 33 62  1  0  0  0  0
 34 63  1  0  0  0  0
 34 64  1  0  0  0  0
 34 65  1  0  0  0  0
M  END
> <PUBCHEM_COMPOUND_CID>
71693171

> <PUBCHEM_CONFORMER_RMSD>
1

> <PUBCHEM_CONFORMER_DIVERSEORDER>
1
39
115
82
126
20
80
105
85
64
70
125
83
127
116
7
95
49
26
73
21
120
106
112
89
16
34
113
118
124
56
53
63
77
93
65
84
117
59
19
58
69
123
46
74
2
57
91
86
103
27
79
97
108
122
55
87
66
88
54
18
81
67
36
98
30
68
60
119
23
15
96
47
13
22
17
45
51
75
111
104
92
32
4
109
8
44
25
121
40
99
33
100
31
5
35
41
52
61
11
48
110
114
37
78
76
28
72
9
71
12
90
14
102
107
94
3
10
43
62
42
38
24
29
50
101
6

> <PUBCHEM_MMFF94_PARTIAL_CHARGES>
38
1 -0.57
10 0.14
12 0.14
14 -0.28
15 -0.29
16 0.3
17 0.18
2 -0.43
20 0.14
21 0.01
22 0.54
23 -0.15
24 0.23
25 -0.15
26 -0.15
27 0.4
28 0.09
29 -0.15
3 -0.57
30 0.16
31 0.63
32 0.16
33 0.16
34 0.28
4 -0.73
41 0.15
5 0.03
55 0.37
56 0.27
57 0.15
58 0.15
59 0.15
6 -0.57
60 0.15
61 0.15
62 0.15
7 -0.62
8 -0.62

> <PUBCHEM_EFFECTIVE_ROTOR_COUNT>
9.8

> <PUBCHEM_PHARMACOPHORE_FEATURES>
12
1 1 acceptor
1 3 acceptor
1 4 donor
1 5 donor
1 7 acceptor
1 8 acceptor
3 13 18 19 hydrophobe
3 5 6 21 cation
5 5 6 21 23 24 rings
6 23 24 25 26 28 29 rings
6 7 8 27 30 32 33 rings
6 9 10 11 12 14 15 rings

> <PUBCHEM_HEAVY_ATOM_COUNT>
34

> <PUBCHEM_ATOM_DEF_STEREO_COUNT>
3

> <PUBCHEM_ATOM_UDEF_STEREO_COUNT>
0

> <PUBCHEM_BOND_DEF_STEREO_COUNT>
0

> <PUBCHEM_BOND_UDEF_STEREO_COUNT>
0

> <PUBCHEM_ISOTOPIC_ATOM_COUNT>
0

> <PUBCHEM_COMPONENT_COUNT>
1

> <PUBCHEM_CACTVS_TAUTO_COUNT>
14

> <PUBCHEM_CONFORMER_ID>
0445F37300000001

> <PUBCHEM_MMFF94_ENERGY>
77.0254

> <PUBCHEM_FEATURE_SELFOVERLAP>
61.007

> <PUBCHEM_SHAPE_FINGERPRINT>
10622 236 18121502354457780762
11135609 149 18189875596208960310
12047536 79 16486966276465809489
12156800 1 16810629403250466768
12539765 74 18054222404488146632
131258 38 18058718230371995190
13165053 137 14223329811885478539
13533116 47 18341894121131002355
13947947 73 18338229367593214511
14068700 675 18059022670828558334
14347332 77 18342173341661560257
14537116 161 16877940547230254967
14705955 166 15122958270701601122
15183329 4 17561094635370879953
18681886 176 15266509598349172656
19315092 285 18341333293524304586
20567600 234 10879988060731680443
20775530 9 18191597346199485466
23559900 14 18040437728795021299
25222932 49 16984049105293723823
3004659 81 17988932188248093887
345986 75 18130788906837517152
34797466 226 16370729248825539615
4073 2 18054504983223082659
4093350 32 17968943131132728973
5081480 168 17968087591116560103
513532 50 17458899448367696556
70251023 43 18042684997291875018
9831232 110 18041279967545029975

> <PUBCHEM_SHAPE_MULTIPOLES>
657.19
16.9
4.55
2.59
39.5
2.13
0.13
13.49
-0.36
-9.79
-0.02
-2.15
-2.18
-1.26

> <PUBCHEM_SHAPE_SELFOVERLAP>
1409.4

> <PUBCHEM_SHAPE_VOLUME>
361.5

> <PUBCHEM_COORDINATE_TYPE>
2
5
10

$$$$
