7051976
  -OEChem-12032416403D

 65 70  0     1  0  0  0  0  0999 V2000
   -0.1319   -3.0334    1.4957 O   0  0  0  0  0  0  0  0  0  0  0  0
   -2.3850    0.3057   -1.1648 O   0  0  0  0  0  0  0  0  0  0  0  0
    4.2873   -0.8324    0.6269 N   0  0  2  0  0  0  0  0  0  0  0  0
    1.6724   -2.5788    0.0829 N   0  0  0  0  0  0  0  0  0  0  0  0
    4.3323    3.6596   -0.0989 N   0  0  0  0  0  0  0  0  0  0  0  0
   -1.9214   -1.7103   -0.1170 N   0  0  0  0  0  0  0  0  0  0  0  0
   -4.0470   -0.8551    0.0179 N   0  0  0  0  0  0  0  0  0  0  0  0
   -9.7562   -0.2612    1.3791 N   0  0  0  0  0  0  0  0  0  0  0  0
    4.0677   -3.3298    0.5980 C   0  0  1  0  0  0  0  0  0  0  0  0
    3.6066   -2.0565   -1.4424 C   0  0  2  0  0  0  0  0  0  0  0  0
    4.2300   -3.3464   -0.9162 C   0  0  0  0  0  0  0  0  0  0  0  0
    4.7782   -2.0952    1.1923 C   0  0  0  0  0  0  0  0  0  0  0  0
    4.3499   -0.8412   -0.8424 C   0  0  0  0  0  0  0  0  0  0  0  0
    2.5712   -3.3682    0.9363 C   0  0  0  0  0  0  0  0  0  0  0  0
    2.1285   -1.9955   -1.1036 C   0  0  0  0  0  0  0  0  0  0  0  0
    5.0193    0.3068    1.1748 C   0  0  0  0  0  0  0  0  0  0  0  0
    1.2677   -1.3707   -1.9244 C   0  0  0  0  0  0  0  0  0  0  0  0
    0.3181   -2.5225    0.4691 C   0  0  0  0  0  0  0  0  0  0  0  0
    4.4596    1.6183    0.6912 C   0  0  0  0  0  0  0  0  0  0  0  0
   -0.6047   -1.7975   -0.4610 C   0  0  0  0  0  0  0  0  0  0  0  0
   -0.1257   -1.2701   -1.5927 C   0  0  0  0  0  0  0  0  0  0  0  0
    3.0951    1.9526    0.6309 C   0  0  0  0  0  0  0  0  0  0  0  0
    5.2059    2.6632    0.2449 C   0  0  0  0  0  0  0  0  0  0  0  0
    3.0362    3.2534    0.1262 C   0  0  0  0  0  0  0  0  0  0  0  0
    1.8911    1.2938    0.9500 C   0  0  0  0  0  0  0  0  0  0  0  0
    1.8287    3.9311   -0.0762 C   0  0  0  0  0  0  0  0  0  0  0  0
    4.7303    4.9482   -0.6239 C   0  0  0  0  0  0  0  0  0  0  0  0
    0.6757    1.9593    0.7528 C   0  0  0  0  0  0  0  0  0  0  0  0
   -2.7591   -0.6505   -0.4892 C   0  0  0  0  0  0  0  0  0  0  0  0
    0.6473    3.2576    0.2475 C   0  0  0  0  0  0  0  0  0  0  0  0
   -5.1815   -0.0237   -0.1308 C   0  0  0  0  0  0  0  0  0  0  0  0
   -6.3808   -0.4014    0.4507 C   0  0  0  0  0  0  0  0  0  0  0  0
   -5.0701    1.1515   -0.8558 C   0  0  0  0  0  0  0  0  0  0  0  0
   -7.4995    0.4186    0.3032 C   0  0  0  0  0  0  0  0  0  0  0  0
   -6.1888    1.9717   -1.0034 C   0  0  0  0  0  0  0  0  0  0  0  0
   -7.4034    1.6052   -0.4239 C   0  0  0  0  0  0  0  0  0  0  0  0
   -8.7441    0.0438    0.8966 C   0  0  0  0  0  0  0  0  0  0  0  0
    4.5411   -4.2216    1.0273 H   0  0  0  0  0  0  0  0  0  0  0  0
    3.7366   -2.0367   -2.5326 H   0  0  0  0  0  0  0  0  0  0  0  0
    3.7411   -4.2267   -1.3518 H   0  0  0  0  0  0  0  0  0  0  0  0
    5.2912   -3.3994   -1.1884 H   0  0  0  0  0  0  0  0  0  0  0  0
    4.6270   -2.0930    2.2790 H   0  0  0  0  0  0  0  0  0  0  0  0
    5.8586   -2.1947    1.0201 H   0  0  0  0  0  0  0  0  0  0  0  0
    5.3963   -0.8672   -1.1776 H   0  0  0  0  0  0  0  0  0  0  0  0
    3.9051    0.0615   -1.2759 H   0  0  0  0  0  0  0  0  0  0  0  0
    2.2209   -4.4062    0.8525 H   0  0  0  0  0  0  0  0  0  0  0  0
    2.4042   -3.0780    1.9813 H   0  0  0  0  0  0  0  0  0  0  0  0
    6.0877    0.2420    0.9281 H   0  0  0  0  0  0  0  0  0  0  0  0
    4.9426    0.3046    2.2702 H   0  0  0  0  0  0  0  0  0  0  0  0
    1.5985   -0.9066   -2.8476 H   0  0  0  0  0  0  0  0  0  0  0  0
   -0.7380   -0.7827   -2.3417 H   0  0  0  0  0  0  0  0  0  0  0  0
    6.2752    2.7907    0.1398 H   0  0  0  0  0  0  0  0  0  0  0  0
   -2.2400   -2.3088    0.6403 H   0  0  0  0  0  0  0  0  0  0  0  0
    1.8850    0.2888    1.3601 H   0  0  0  0  0  0  0  0  0  0  0  0
    1.7997    4.9418   -0.4692 H   0  0  0  0  0  0  0  0  0  0  0  0
    4.3728    5.7237    0.0583 H   0  0  0  0  0  0  0  0  0  0  0  0
    5.8197    4.9941   -0.6981 H   0  0  0  0  0  0  0  0  0  0  0  0
    4.2866    5.0685   -1.6155 H   0  0  0  0  0  0  0  0  0  0  0  0
   -0.2559    1.4571    1.0000 H   0  0  0  0  0  0  0  0  0  0  0  0
   -0.3082    3.7555    0.1026 H   0  0  0  0  0  0  0  0  0  0  0  0
   -4.1932   -1.7046    0.5575 H   0  0  0  0  0  0  0  0  0  0  0  0
   -6.4510   -1.3276    1.0168 H   0  0  0  0  0  0  0  0  0  0  0  0
   -4.1682    1.5042   -1.3333 H   0  0  0  0  0  0  0  0  0  0  0  0
   -6.1153    2.8960   -1.5692 H   0  0  0  0  0  0  0  0  0  0  0  0
   -8.2665    2.2550   -0.5477 H   0  0  0  0  0  0  0  0  0  0  0  0
  1 18  2  0  0  0  0
  2 29  2  0  0  0  0
  3 12  1  0  0  0  0
  3 13  1  0  0  0  0
  3 16  1  0  0  0  0
  4 14  1  0  0  0  0
  4 15  1  0  0  0  0
  4 18  1  0  0  0  0
  5 23  1  0  0  0  0
  5 24  1  0  0  0  0
  5 27  1  0  0  0  0
  6 20  1  0  0  0  0
  6 29  1  0  0  0  0
  6 53  1  0  0  0  0
  7 29  1  0  0  0  0
  7 31  1  0  0  0  0
  7 61  1  0  0  0  0
  8 37  3  0  0  0  0
  9 11  1  0  0  0  0
  9 12  1  0  0  0  0
  9 14  1  0  0  0  0
  9 38  1  0  0  0  0
 10 11  1  0  0  0  0
 10 13  1  0  0  0  0
 10 15  1  0  0  0  0
 10 39  1  0  0  0  0
 11 40  1  0  0  0  0
 11 41  1  0  0  0  0
 12 42  1  0  0  0  0
 12 43  1  0  0  0  0
 13 44  1  0  0  0  0
 13 45  1  0  0  0  0
 14 46  1  0  0  0  0
 14 47  1  0  0  0  0
 15 17  2  0  0  0  0
 16 19  1  0  0  0  0
 16 48  1  0  0  0  0
 16 49  1  0  0  0  0
 17 21  1  0  0  0  0
 17 50  1  0  0  0  0
 18 20  1  0  0  0  0
 19 22  1  0  0  0  0
 19 23  2  0  0  0  0
 20 21  2  0  0  0  0
 21 51  1  0  0  0  0
 22 24  1  0  0  0  0
 22 25  2  0  0  0  0
 23 52  1  0  0  0  0
 24 26  2  0  0  0  0
 25 28  1  0  0  0  0
 25 54  1  0  0  0  0
 26 30  1  0  0  0  0
 26 55  1  0  0  0  0
 27 56  1  0  0  0  0
 27 57  1  0  0  0  0
 27 58  1  0  0  0  0
 28 30  2  0  0  0  0
 28 59  1  0  0  0  0
 30 60  1  0  0  0  0
 31 32  1  0  0  0  0
 31 33  2  0  0  0  0
 32 34  2  0  0  0  0
 32 62  1  0  0  0  0
 33 35  1  0  0  0  0
 33 63  1  0  0  0  0
 34 36  1  0  0  0  0
 34 37  1  0  0  0  0
 35 36  2  0  0  0  0
 35 64  1  0  0  0  0
 36 65  1  0  0  0  0
M  END
> <PUBCHEM_COMPOUND_CID>
7051976

> <PUBCHEM_CONFORMER_RMSD>
1

> <PUBCHEM_CONFORMER_DIVERSEORDER>
1
53
81
63
68
78
22
90
55
46
21
87
77
66
62
52
71
61
64
74
45
20
82
73
75
67
8
43
94
50
59
97
19
79
80
88
65
70
15
58
51
56
72
38
17
48
95
47
76
40
25
49
91
18
84
16
93
44
57
27
14
69
89
83
31
24
12
60
35
96
86
2
9
39
30
92
7
54
23
4
85
32
11
33
28
34
10
13
3
41
29
5
42
26
6
37
36

> <PUBCHEM_MMFF94_PARTIAL_CHARGES>
47
1 -0.57
10 0.14
12 0.27
13 0.27
14 0.3
15 -0.03
16 0.45
17 -0.15
18 0.62
19 -0.18
2 -0.57
20 0.12
21 -0.15
23 -0.3
24 -0.15
25 -0.15
26 -0.15
27 0.26
28 -0.15
29 0.69
3 -0.81
30 -0.15
31 0.12
32 -0.15
33 -0.15
34 0.07
35 -0.15
36 -0.15
37 0.48
4 -0.47
5 0.05
50 0.15
51 0.15
52 0.15
53 0.37
54 0.15
55 0.15
59 0.15
6 -0.54
60 0.15
61 0.37
62 0.15
63 0.15
64 0.15
65 0.15
7 -0.55
8 -0.56

> <PUBCHEM_EFFECTIVE_ROTOR_COUNT>
7

> <PUBCHEM_PHARMACOPHORE_FEATURES>
13
1 1 acceptor
1 2 acceptor
1 3 cation
1 5 cation
1 6 donor
1 7 donor
1 8 acceptor
5 5 19 22 23 24 rings
6 22 24 25 26 28 30 rings
6 3 9 10 11 12 13 rings
6 31 32 33 34 35 36 rings
6 4 15 17 18 20 21 rings
6 4 9 10 11 14 15 rings

> <PUBCHEM_HEAVY_ATOM_COUNT>
37

> <PUBCHEM_ATOM_DEF_STEREO_COUNT>
2

> <PUBCHEM_ATOM_UDEF_STEREO_COUNT>
0

> <PUBCHEM_BOND_DEF_STEREO_COUNT>
0

> <PUBCHEM_BOND_UDEF_STEREO_COUNT>
0

> <PUBCHEM_ISOTOPIC_ATOM_COUNT>
0

> <PUBCHEM_COMPONENT_COUNT>
1

> <PUBCHEM_CACTVS_TAUTO_COUNT>
3

> <PUBCHEM_CONFORMER_ID>
006B9AC800000001

> <PUBCHEM_MMFF94_ENERGY>
97.0581

> <PUBCHEM_FEATURE_SELFOVERLAP>
67.668

> <PUBCHEM_SHAPE_FINGERPRINT>
10050765 1 18339923826997849351
10411042 1 18051976922956338502
10675989 125 18341893052033123880
10816530 90 18411987970854960300
11456790 92 18115015299840328602
11578080 2 18262807396375378754
11828042 279 18116975880224268183
11966995 178 18201732764353187117
12925494 130 18266174109743097851
13383668 362 17896335778209363267
13560911 43 18336825282554376560
13751561 76 18334024903795107387
13944108 23 18411139143415155124
14117953 113 18341894104747965036
14790565 3 17905042913362982340
15145343 34 17701533137930572097
15264996 151 18262516983576948120
15400415 2 17977942711311100380
15439362 3 18338517542413198168
15927050 60 18196653110326262439
15968369 153 17773014389626885320
16760501 71 18411978070612444655
19304671 126 17488191572404793208
22223350 30 17968957378151062579
244849 19 17968678093580766851
24771293 8 18057862767333460730
24893992 56 18409450305901560339
3044373 193 18272093773157873919
3411729 13 18340768229650564133
373842 8 18340767057520696249
394071 54 18201440250925442719
397830 11 18335991960663649187
4093350 32 17346600759334256959
4144715 1 18260554429131896857
4173938 306 17168129154140155199
5109719 28 18410299120862814419
5265222 85 17905334283496171132
60111433 81 16844147138517719384
68570916 9 18201715185506063343
9896288 288 17398671689338963040

> <PUBCHEM_SHAPE_MULTIPOLES>
719.82
19.81
5.57
1.34
60.15
3.68
0.2
5.81
-4.56
-11.69
0.08
-0.22
-0.65
0.76

> <PUBCHEM_SHAPE_SELFOVERLAP>
1597.156

> <PUBCHEM_SHAPE_VOLUME>
376.3

> <PUBCHEM_COORDINATE_TYPE>
2
5
10

$$$$
