11942333
  -OEChem-12032416153D

 57 61  0     1  0  0  0  0  0999 V2000
    2.8085   -3.8148   -0.4648 F   0  0  0  0  0  0  0  0  0  0  0  0
   -2.8961   -0.8044    1.9469 O   0  0  0  0  0  0  0  0  0  0  0  0
   -3.4050    2.6639    0.0870 N   0  0  2  0  0  0  0  0  0  0  0  0
    0.3445    2.6445    0.6318 N   0  0  0  0  0  0  0  0  0  0  0  0
   -3.2372   -2.0999    0.0430 N   0  0  0  0  0  0  0  0  0  0  0  0
    0.9816    3.7680    0.2889 N   0  0  0  0  0  0  0  0  0  0  0  0
    2.2381    3.4299    0.0209 N   0  0  0  0  0  0  0  0  0  0  0  0
   -3.0716    0.4716   -1.2747 C   0  0  2  0  0  0  0  0  0  0  0  0
   -1.9645    2.4805   -0.2344 C   0  0  2  0  0  0  0  0  0  0  0  0
   -3.8692    0.2098    0.0173 C   0  0  2  0  0  0  0  0  0  0  0  0
   -1.7182    1.1129   -0.9084 C   0  0  0  0  0  0  0  0  0  0  0  0
   -3.8669    1.5112   -2.0846 C   0  0  0  0  0  0  0  0  0  0  0  0
   -3.9132    1.5003    0.8548 C   0  0  0  0  0  0  0  0  0  0  0  0
   -4.1522    2.7348   -1.1937 C   0  0  0  0  0  0  0  0  0  0  0  0
   -1.0646    2.6828    0.9866 C   0  0  0  0  0  0  0  0  0  0  0  0
   -3.2881   -0.9357    0.7902 C   0  0  0  0  0  0  0  0  0  0  0  0
    1.1517    1.5592    0.5986 C   0  0  0  0  0  0  0  0  0  0  0  0
   -2.6994   -3.3416    0.5499 C   0  0  0  0  0  0  0  0  0  0  0  0
    2.3588    2.0806    0.2057 C   0  0  0  0  0  0  0  0  0  0  0  0
   -1.2281   -3.4688    0.2789 C   0  0  0  0  0  0  0  0  0  0  0  0
    3.5635    1.3386    0.0152 C   0  0  0  0  0  0  0  0  0  0  0  0
   -0.7950   -4.0617   -0.9012 C   0  0  0  0  0  0  0  0  0  0  0  0
   -0.3141   -2.9916    1.2109 C   0  0  0  0  0  0  0  0  0  0  0  0
    3.5118   -0.0001   -0.3888 C   0  0  0  0  0  0  0  0  0  0  0  0
    4.8067    1.9432    0.2305 C   0  0  0  0  0  0  0  0  0  0  0  0
    0.5719   -4.1791   -1.1529 C   0  0  0  0  0  0  0  0  0  0  0  0
    1.0528   -3.1090    0.9591 C   0  0  0  0  0  0  0  0  0  0  0  0
    1.4959   -3.7027   -0.2227 C   0  0  0  0  0  0  0  0  0  0  0  0
    4.6888   -0.7250   -0.5751 C   0  0  0  0  0  0  0  0  0  0  0  0
    5.9837    1.2183    0.0440 C   0  0  0  0  0  0  0  0  0  0  0  0
    5.9248   -0.1158   -0.3588 C   0  0  0  0  0  0  0  0  0  0  0  0
   -2.9089   -0.4233   -1.8821 H   0  0  0  0  0  0  0  0  0  0  0  0
   -1.6865    3.2639   -0.9552 H   0  0  0  0  0  0  0  0  0  0  0  0
   -4.8975   -0.0755   -0.2467 H   0  0  0  0  0  0  0  0  0  0  0  0
   -1.1162    1.2514   -1.8149 H   0  0  0  0  0  0  0  0  0  0  0  0
   -1.1765    0.4173   -0.2612 H   0  0  0  0  0  0  0  0  0  0  0  0
   -4.8104    1.0798   -2.4386 H   0  0  0  0  0  0  0  0  0  0  0  0
   -3.2944    1.8151   -2.9693 H   0  0  0  0  0  0  0  0  0  0  0  0
   -4.9558    1.7012    1.1367 H   0  0  0  0  0  0  0  0  0  0  0  0
   -3.3862    1.4382    1.8112 H   0  0  0  0  0  0  0  0  0  0  0  0
   -3.8887    3.6553   -1.7293 H   0  0  0  0  0  0  0  0  0  0  0  0
   -5.2280    2.8122   -0.9914 H   0  0  0  0  0  0  0  0  0  0  0  0
   -1.2537    3.6542    1.4595 H   0  0  0  0  0  0  0  0  0  0  0  0
   -1.2160    1.9102    1.7488 H   0  0  0  0  0  0  0  0  0  0  0  0
   -3.6303   -2.1157   -0.8929 H   0  0  0  0  0  0  0  0  0  0  0  0
    0.8231    0.5635    0.8628 H   0  0  0  0  0  0  0  0  0  0  0  0
   -2.8972   -3.4110    1.6262 H   0  0  0  0  0  0  0  0  0  0  0  0
   -3.2517   -4.1595    0.0731 H   0  0  0  0  0  0  0  0  0  0  0  0
   -1.5059   -4.4340   -1.6336 H   0  0  0  0  0  0  0  0  0  0  0  0
   -0.6456   -2.5286    2.1358 H   0  0  0  0  0  0  0  0  0  0  0  0
    2.5656   -0.5012   -0.5784 H   0  0  0  0  0  0  0  0  0  0  0  0
    4.8778    2.9810    0.5481 H   0  0  0  0  0  0  0  0  0  0  0  0
    0.9174   -4.6404   -2.0733 H   0  0  0  0  0  0  0  0  0  0  0  0
    1.7726   -2.7368    1.6822 H   0  0  0  0  0  0  0  0  0  0  0  0
    4.6438   -1.7628   -0.8919 H   0  0  0  0  0  0  0  0  0  0  0  0
    6.9463    1.6922    0.2131 H   0  0  0  0  0  0  0  0  0  0  0  0
    6.8412   -0.6800   -0.5046 H   0  0  0  0  0  0  0  0  0  0  0  0
  1 28  1  0  0  0  0
  2 16  2  0  0  0  0
  3  9  1  0  0  0  0
  3 13  1  0  0  0  0
  3 14  1  0  0  0  0
  4  6  1  0  0  0  0
  4 15  1  0  0  0  0
  4 17  1  0  0  0  0
  5 16  1  0  0  0  0
  5 18  1  0  0  0  0
  5 45  1  0  0  0  0
  6  7  2  0  0  0  0
  7 19  1  0  0  0  0
  8 10  1  0  0  0  0
  8 11  1  0  0  0  0
  8 12  1  0  0  0  0
  8 32  1  0  0  0  0
  9 11  1  0  0  0  0
  9 15  1  0  0  0  0
  9 33  1  0  0  0  0
 10 13  1  0  0  0  0
 10 16  1  0  0  0  0
 10 34  1  0  0  0  0
 11 35  1  0  0  0  0
 11 36  1  0  0  0  0
 12 14  1  0  0  0  0
 12 37  1  0  0  0  0
 12 38  1  0  0  0  0
 13 39  1  0  0  0  0
 13 40  1  0  0  0  0
 14 41  1  0  0  0  0
 14 42  1  0  0  0  0
 15 43  1  0  0  0  0
 15 44  1  0  0  0  0
 17 19  2  0  0  0  0
 17 46  1  0  0  0  0
 18 20  1  0  0  0  0
 18 47  1  0  0  0  0
 18 48  1  0  0  0  0
 19 21  1  0  0  0  0
 20 22  2  0  0  0  0
 20 23  1  0  0  0  0
 21 24  2  0  0  0  0
 21 25  1  0  0  0  0
 22 26  1  0  0  0  0
 22 49  1  0  0  0  0
 23 27  2  0  0  0  0
 23 50  1  0  0  0  0
 24 29  1  0  0  0  0
 24 51  1  0  0  0  0
 25 30  2  0  0  0  0
 25 52  1  0  0  0  0
 26 28  2  0  0  0  0
 26 53  1  0  0  0  0
 27 28  1  0  0  0  0
 27 54  1  0  0  0  0
 29 31  2  0  0  0  0
 29 55  1  0  0  0  0
 30 31  1  0  0  0  0
 30 56  1  0  0  0  0
 31 57  1  0  0  0  0
M  END
> <PUBCHEM_COMPOUND_CID>
11942333

> <PUBCHEM_CONFORMER_RMSD>
1

> <PUBCHEM_CONFORMER_DIVERSEORDER>
1
11
64
38
44
33
17
50
20
36
67
48
46
39
53
41
59
8
31
56
61
37
29
60
10
42
63
62
52
9
35
21
13
19
15
43
45
49
3
28
55
54
16
66
51
27
5
2
65
6
40
18
12
47
22
26
30
24
7
4
58
57
14
25
32
23
34

> <PUBCHEM_MMFF94_PARTIAL_CHARGES>
39
1 -0.19
10 0.06
13 0.27
14 0.27
15 0.26
16 0.57
17 -0.3
18 0.44
19 0.17
2 -0.57
20 -0.14
21 0.05
22 -0.15
23 -0.15
24 -0.15
25 -0.15
26 -0.15
27 -0.15
28 0.19
29 -0.15
3 -0.81
30 -0.15
31 -0.15
4 0.31
45 0.37
46 0.15
49 0.15
5 -0.73
50 0.15
51 0.15
52 0.15
53 0.15
54 0.15
55 0.15
56 0.15
57 0.15
6 -0.42
7 -0.23
9 0.27

> <PUBCHEM_EFFECTIVE_ROTOR_COUNT>
8.2

> <PUBCHEM_PHARMACOPHORE_FEATURES>
7
1 2 acceptor
1 3 cation
1 5 donor
5 4 6 7 17 19 rings
6 20 22 23 26 27 28 rings
6 21 24 25 29 30 31 rings
8 3 8 9 10 11 12 13 14 rings

> <PUBCHEM_HEAVY_ATOM_COUNT>
31

> <PUBCHEM_ATOM_DEF_STEREO_COUNT>
3

> <PUBCHEM_ATOM_UDEF_STEREO_COUNT>
0

> <PUBCHEM_BOND_DEF_STEREO_COUNT>
0

> <PUBCHEM_BOND_UDEF_STEREO_COUNT>
0

> <PUBCHEM_ISOTOPIC_ATOM_COUNT>
0

> <PUBCHEM_COMPONENT_COUNT>
1

> <PUBCHEM_CACTVS_TAUTO_COUNT>
2

> <PUBCHEM_CONFORMER_ID>
00B639BD00000001

> <PUBCHEM_MMFF94_ENERGY>
71.1503

> <PUBCHEM_FEATURE_SELFOVERLAP>
35.522

> <PUBCHEM_SHAPE_FINGERPRINT>
10675989 125 17542212468024993757
107951 10 17458340819599710105
11014199 57 17402614546578928410
11200772 71 17972340653145108652
11285246 1 17909230871353085413
11513181 2 18129658582788098558
11828422 8 15436191412688380389
12422481 6 17976567192647920787
13122387 1 18338517546502248754
13402501 40 18338803428089063818
14251751 93 18335979882387145290
14251757 5 18120109526648856524
14466204 15 18338515352591878538
14647877 51 18196942072058918582
14725015 67 18192706971626249082
14747281 78 16738876296714485533
15320467 1 18339645663013233582
15927050 60 18340482271640470077
16067689 391 17340718235563013398
17627616 140 18261385603481830938
19930381 70 18267024943112620835
20764821 26 18195532716720168606
20775530 9 17330273282334400139
21796203 349 16827318761078110050
3027735 51 18340194306783864127
325973 47 18195529182231420842
3298306 158 18336260163257283719
373842 8 18192705645357275338
3882209 13 16832026286021920326
463206 1 17474685953378873070
5085150 59 18339623595376094226
508706 21 18336261357363940190
5265222 85 18261968456276726684

> <PUBCHEM_SHAPE_MULTIPOLES>
599.92
10.35
6.6
1.28
11.43
5.75
0.14
-5.68
1.58
-0.83
0.21
-1.3
0.12
1.5

> <PUBCHEM_SHAPE_SELFOVERLAP>
1310.729

> <PUBCHEM_SHAPE_VOLUME>
326.2

> <PUBCHEM_COORDINATE_TYPE>
2
5
10

$$$$
