75536722
  -OEChem-12032416323D

 44 45  0     1  0  0  0  0  0999 V2000
   -0.3556    0.9513   -0.4916 O   0  0  0  0  0  0  0  0  0  0  0  0
   -1.1841   -2.3786    0.5718 O   0  0  0  0  0  0  0  0  0  0  0  0
    3.3510   -1.2929    0.6584 O   0  0  0  0  0  0  0  0  0  0  0  0
   -3.6465   -0.5537   -0.1230 N   0  0  0  0  0  0  0  0  0  0  0  0
    2.2874   -0.0626   -1.0004 N   0  0  0  0  0  0  0  0  0  0  0  0
    4.3522    0.6081   -0.2175 N   0  0  0  0  0  0  0  0  0  0  0  0
   -4.5737    0.3086    0.5948 C   0  0  0  0  0  0  0  0  0  0  0  0
   -2.2821   -0.2214    0.2533 C   0  0  1  0  0  0  0  0  0  0  0  0
   -5.9850   -0.3169    0.5554 C   0  0  0  0  0  0  0  0  0  0  0  0
   -5.1078    1.3934   -0.3656 C   0  0  0  0  0  0  0  0  0  0  0  0
   -6.5077    1.0985    0.2199 C   0  0  0  0  0  0  0  0  0  0  0  0
   -1.2535   -1.2222   -0.2397 C   0  0  1  0  0  0  0  0  0  0  0  0
    0.0225   -0.3951   -0.1594 C   0  0  1  0  0  0  0  0  0  0  0  0
   -1.7862    1.0622   -0.3921 C   0  0  0  0  0  0  0  0  0  0  0  0
    1.1080   -0.8722   -1.1077 C   0  0  0  0  0  0  0  0  0  0  0  0
    3.3337   -0.3361   -0.1147 C   0  0  0  0  0  0  0  0  0  0  0  0
    5.5501    0.5576    0.5872 C   0  0  0  0  0  0  0  0  0  0  0  0
    6.0616    1.9654    0.8639 C   0  0  0  0  0  0  0  0  0  0  0  0
    6.6155   -0.2932   -0.0928 C   0  0  0  0  0  0  0  0  0  0  0  0
   -4.2837    0.6572    1.5931 H   0  0  0  0  0  0  0  0  0  0  0  0
   -2.1934   -0.1580    1.3473 H   0  0  0  0  0  0  0  0  0  0  0  0
   -6.3443   -0.7366    1.4990 H   0  0  0  0  0  0  0  0  0  0  0  0
   -6.1704   -1.0422   -0.2469 H   0  0  0  0  0  0  0  0  0  0  0  0
   -5.0343    1.1678   -1.4368 H   0  0  0  0  0  0  0  0  0  0  0  0
   -4.7346    2.4065   -0.1922 H   0  0  0  0  0  0  0  0  0  0  0  0
   -1.4629   -1.5272   -1.2727 H   0  0  0  0  0  0  0  0  0  0  0  0
   -7.3394    1.1443   -0.4874 H   0  0  0  0  0  0  0  0  0  0  0  0
   -6.7534    1.7000    1.1028 H   0  0  0  0  0  0  0  0  0  0  0  0
   -3.7975   -1.5450    0.0671 H   0  0  0  0  0  0  0  0  0  0  0  0
    0.4123   -0.3810    0.8670 H   0  0  0  0  0  0  0  0  0  0  0  0
   -2.1685    1.1923   -1.4111 H   0  0  0  0  0  0  0  0  0  0  0  0
   -2.0407    1.9535    0.1894 H   0  0  0  0  0  0  0  0  0  0  0  0
    0.7740   -0.7919   -2.1479 H   0  0  0  0  0  0  0  0  0  0  0  0
    1.3668   -1.9168   -0.9045 H   0  0  0  0  0  0  0  0  0  0  0  0
   -0.9988   -2.1009    1.4848 H   0  0  0  0  0  0  0  0  0  0  0  0
    2.3588    0.7612   -1.5898 H   0  0  0  0  0  0  0  0  0  0  0  0
    4.2803    1.3188   -0.9395 H   0  0  0  0  0  0  0  0  0  0  0  0
    5.2973    0.0885    1.5457 H   0  0  0  0  0  0  0  0  0  0  0  0
    6.3241    2.4839   -0.0651 H   0  0  0  0  0  0  0  0  0  0  0  0
    5.2961    2.5639    1.3700 H   0  0  0  0  0  0  0  0  0  0  0  0
    6.9500    1.9408    1.5035 H   0  0  0  0  0  0  0  0  0  0  0  0
    6.8913    0.1218   -1.0688 H   0  0  0  0  0  0  0  0  0  0  0  0
    6.2544   -1.3138   -0.2601 H   0  0  0  0  0  0  0  0  0  0  0  0
    7.5203   -0.3521    0.5211 H   0  0  0  0  0  0  0  0  0  0  0  0
  1 13  1  0  0  0  0
  1 14  1  0  0  0  0
  2 12  1  0  0  0  0
  2 35  1  0  0  0  0
  3 16  2  0  0  0  0
  4  7  1  0  0  0  0
  4  8  1  0  0  0  0
  4 29  1  0  0  0  0
  5 15  1  0  0  0  0
  5 16  1  0  0  0  0
  5 36  1  0  0  0  0
  6 16  1  0  0  0  0
  6 17  1  0  0  0  0
  6 37  1  0  0  0  0
  7  9  1  0  0  0  0
  7 10  1  0  0  0  0
  7 20  1  0  0  0  0
  8 12  1  0  0  0  0
  8 14  1  0  0  0  0
  8 21  1  0  0  0  0
  9 11  1  0  0  0  0
  9 22  1  0  0  0  0
  9 23  1  0  0  0  0
 10 11  1  0  0  0  0
 10 24  1  0  0  0  0
 10 25  1  0  0  0  0
 11 27  1  0  0  0  0
 11 28  1  0  0  0  0
 12 13  1  0  0  0  0
 12 26  1  0  0  0  0
 13 15  1  0  0  0  0
 13 30  1  0  0  0  0
 14 31  1  0  0  0  0
 14 32  1  0  0  0  0
 15 33  1  0  0  0  0
 15 34  1  0  0  0  0
 17 18  1  0  0  0  0
 17 19  1  0  0  0  0
 17 38  1  0  0  0  0
 18 39  1  0  0  0  0
 18 40  1  0  0  0  0
 18 41  1  0  0  0  0
 19 42  1  0  0  0  0
 19 43  1  0  0  0  0
 19 44  1  0  0  0  0
M  END
> <PUBCHEM_COMPOUND_CID>
75536722

> <PUBCHEM_CONFORMER_RMSD>
1

> <PUBCHEM_CONFORMER_DIVERSEORDER>
1
35
52
4
6
78
64
28
23
30
21
53
56
59
13
62
77
71
70
48
14
68
60
44
3
75
24
10
18
74
57
22
26
58
47
63
25
20
39
45
54
67
79
51
8
33
12
81
19
36
46
50
16
11
72
31
66
80
37
5
42
65
15
34
29
2
49
27
38
17
32
7
69
40
76
61
55
43
41
9
73
82

> <PUBCHEM_MMFF94_PARTIAL_CHARGES>
18
1 -0.56
12 0.28
13 0.28
14 0.28
15 0.3
16 0.69
17 0.3
2 -0.68
29 0.36
3 -0.57
35 0.4
36 0.37
37 0.37
4 -0.84
5 -0.73
6 -0.73
7 0.21
8 0.27

> <PUBCHEM_EFFECTIVE_ROTOR_COUNT>
8.8

> <PUBCHEM_PHARMACOPHORE_FEATURES>
11
1 1 acceptor
1 2 acceptor
1 2 donor
1 3 acceptor
1 4 cation
1 4 donor
1 5 donor
1 6 donor
3 17 18 19 hydrophobe
4 7 9 10 11 rings
5 1 8 12 13 14 rings

> <PUBCHEM_HEAVY_ATOM_COUNT>
19

> <PUBCHEM_ATOM_DEF_STEREO_COUNT>
3

> <PUBCHEM_ATOM_UDEF_STEREO_COUNT>
0

> <PUBCHEM_BOND_DEF_STEREO_COUNT>
0

> <PUBCHEM_BOND_UDEF_STEREO_COUNT>
0

> <PUBCHEM_ISOTOPIC_ATOM_COUNT>
0

> <PUBCHEM_COMPONENT_COUNT>
1

> <PUBCHEM_CACTVS_TAUTO_COUNT>
3

> <PUBCHEM_CONFORMER_ID>
0480995200000001

> <PUBCHEM_MMFF94_ENERGY>
35.6962

> <PUBCHEM_FEATURE_SELFOVERLAP>
55.87

> <PUBCHEM_SHAPE_FINGERPRINT>
10 15 18187642544550410208
10354089 29 18333450946062110404
106641 1 18335706083012553155
11401426 45 18410014321591809959
117890 112 18342176665380580684
12236239 1 17385446522423516254
12596602 18 18113898251713039177
12616971 3 16226052227144932983
12670543 26 10087648087059810961
12714333 28 16630526228159413871
13288520 33 8358258142527449599
13403585 85 18260828189952062093
13533116 47 18188205395571962346
13668630 136 8935001481571481177
13685833 64 12179845000602361532
14123256 10 13902188179792350061
14251764 18 17531251681620465343
14341114 176 18334857230214030468
14347332 77 10159439590915610396
14350574 20 10665229263213401814
15048467 5 17632860811139493777
15183329 4 11383841471699232996
17834072 8 12031785868227505592
17834076 25 16988843869354242237
17980427 23 18338514265205049964
18006028 8 13118002205827430535
19489759 90 17022905636383094933
19784866 240 11169908360237319782
200 152 12612749120978883878
20281389 69 18410572885893375368
20767249 213 17988925582583195656
21150785 3 15051727599548987877
21637258 2 13767923554770131977
221357 26 9799695896320046010
22224240 67 18408886235647035323
23402539 116 18410852174879198375
23559900 14 18266763327774959574
23622692 88 17603588538558330206
246663 6 10663813097207182901
26918003 58 16660651760387003537
2838139 119 17703784812610034280
28498 318 11458418042866122265
2916195 48 18413107260427338673
300161 21 18413103961470488247
33382 64 12107777498286099120
3545911 37 18408323276992792678
4340502 62 18040433287487574882
465052 167 11674886579984521200
5104073 3 18117004291116439185
59755656 520 18411414016420392615

> <PUBCHEM_SHAPE_MULTIPOLES>
358.46
17.59
1.6
0.87
6.03
0.05
0.04
-7.54
-3.6
0.37
-0.24
0.21
0.03
0.8

> <PUBCHEM_SHAPE_SELFOVERLAP>
715.954

> <PUBCHEM_SHAPE_VOLUME>
214.7

> <PUBCHEM_COORDINATE_TYPE>
2
5
10

$$$$
