11911984
  -OEChem-12032416163D

 55 57  0     1  0  0  0  0  0999 V2000
    5.8486   -3.5638    0.6516 F   0  0  0  0  0  0  0  0  0  0  0  0
   -2.4432   -2.6541    0.8832 O   0  0  0  0  0  0  0  0  0  0  0  0
    2.4834    2.4236    1.0499 O   0  0  0  0  0  0  0  0  0  0  0  0
   -1.8740   -0.5266    0.0961 N   0  0  0  0  0  0  0  0  0  0  0  0
    2.8987    1.7178   -1.1251 N   0  0  0  0  0  0  0  0  0  0  0  0
   -0.3115    1.8718    0.6755 C   0  0  1  0  0  0  0  0  0  0  0  0
   -1.8152    1.9350    0.3008 C   0  0  2  0  0  0  0  0  0  0  0  0
    0.0086    0.4991    1.2993 C   0  0  0  0  0  0  0  0  0  0  0  0
   -2.2342    0.7361   -0.5636 C   0  0  0  0  0  0  0  0  0  0  0  0
   -0.4564   -0.6649    0.4262 C   0  0  0  0  0  0  0  0  0  0  0  0
   -2.2114    3.2485   -0.3717 C   0  0  0  0  0  0  0  0  0  0  0  0
    0.6356    2.1744   -0.4914 C   0  0  0  0  0  0  0  0  0  0  0  0
   -1.7744    4.4390    0.4553 C   0  0  0  0  0  0  0  0  0  0  0  0
   -2.7513   -1.5788    0.3712 C   0  0  0  0  0  0  0  0  0  0  0  0
    2.0901    2.1287   -0.0754 C   0  0  0  0  0  0  0  0  0  0  0  0
   -4.1711   -1.4022    0.0414 C   0  0  0  0  0  0  0  0  0  0  0  0
    4.3334    1.5862   -1.0121 C   0  0  0  0  0  0  0  0  0  0  0  0
   -4.6414   -1.7730   -1.2158 C   0  0  0  0  0  0  0  0  0  0  0  0
   -5.0405   -0.8652    0.9875 C   0  0  0  0  0  0  0  0  0  0  0  0
    4.7380    0.2104   -0.5675 C   0  0  0  0  0  0  0  0  0  0  0  0
   -5.9904   -1.6054   -1.5291 C   0  0  0  0  0  0  0  0  0  0  0  0
   -6.3893   -0.6979    0.6741 C   0  0  0  0  0  0  0  0  0  0  0  0
   -6.8642   -1.0680   -0.5841 C   0  0  0  0  0  0  0  0  0  0  0  0
    4.8649   -0.0640    0.7888 C   0  0  0  0  0  0  0  0  0  0  0  0
    4.9816   -0.7747   -1.5173 C   0  0  0  0  0  0  0  0  0  0  0  0
    5.2409   -1.3422    1.2017 C   0  0  0  0  0  0  0  0  0  0  0  0
    5.3574   -2.0529   -1.1045 C   0  0  0  0  0  0  0  0  0  0  0  0
    5.4870   -2.3368    0.2551 C   0  0  0  0  0  0  0  0  0  0  0  0
   -0.1192    2.6109    1.4648 H   0  0  0  0  0  0  0  0  0  0  0  0
   -2.3789    1.8631    1.2433 H   0  0  0  0  0  0  0  0  0  0  0  0
   -0.5165    0.4351    2.2624 H   0  0  0  0  0  0  0  0  0  0  0  0
    1.0708    0.3785    1.5314 H   0  0  0  0  0  0  0  0  0  0  0  0
   -1.7320    0.7491   -1.5378 H   0  0  0  0  0  0  0  0  0  0  0  0
   -3.3071    0.7875   -0.7631 H   0  0  0  0  0  0  0  0  0  0  0  0
    0.1033   -0.7044   -0.5147 H   0  0  0  0  0  0  0  0  0  0  0  0
   -0.2735   -1.6089    0.9499 H   0  0  0  0  0  0  0  0  0  0  0  0
   -1.7933    3.3228   -1.3819 H   0  0  0  0  0  0  0  0  0  0  0  0
   -3.3021    3.2781   -0.4860 H   0  0  0  0  0  0  0  0  0  0  0  0
    0.4688    3.1786   -0.8937 H   0  0  0  0  0  0  0  0  0  0  0  0
    0.4630    1.4737   -1.3153 H   0  0  0  0  0  0  0  0  0  0  0  0
   -2.1233    4.3556    1.4899 H   0  0  0  0  0  0  0  0  0  0  0  0
   -0.6908    4.5797    0.4648 H   0  0  0  0  0  0  0  0  0  0  0  0
   -2.2064    5.3545    0.0365 H   0  0  0  0  0  0  0  0  0  0  0  0
    2.4791    1.4882   -2.0212 H   0  0  0  0  0  0  0  0  0  0  0  0
    4.7636    1.8167   -1.9934 H   0  0  0  0  0  0  0  0  0  0  0  0
    4.7143    2.3411   -0.3139 H   0  0  0  0  0  0  0  0  0  0  0  0
   -3.9684   -2.1921   -1.9590 H   0  0  0  0  0  0  0  0  0  0  0  0
   -4.6797   -0.5727    1.9701 H   0  0  0  0  0  0  0  0  0  0  0  0
   -6.3602   -1.8933   -2.5088 H   0  0  0  0  0  0  0  0  0  0  0  0
   -7.0698   -0.2789    1.4096 H   0  0  0  0  0  0  0  0  0  0  0  0
   -7.9145   -0.9374   -0.8281 H   0  0  0  0  0  0  0  0  0  0  0  0
    4.6788    0.7019    1.5362 H   0  0  0  0  0  0  0  0  0  0  0  0
    4.8818   -0.5650   -2.5787 H   0  0  0  0  0  0  0  0  0  0  0  0
    5.3426   -1.5634    2.2600 H   0  0  0  0  0  0  0  0  0  0  0  0
    5.5488   -2.8275   -1.8412 H   0  0  0  0  0  0  0  0  0  0  0  0
  1 28  1  0  0  0  0
  2 14  2  0  0  0  0
  3 15  2  0  0  0  0
  4  9  1  0  0  0  0
  4 10  1  0  0  0  0
  4 14  1  0  0  0  0
  5 15  1  0  0  0  0
  5 17  1  0  0  0  0
  5 44  1  0  0  0  0
  6  7  1  0  0  0  0
  6  8  1  0  0  0  0
  6 12  1  0  0  0  0
  6 29  1  0  0  0  0
  7  9  1  0  0  0  0
  7 11  1  0  0  0  0
  7 30  1  0  0  0  0
  8 10  1  0  0  0  0
  8 31  1  0  0  0  0
  8 32  1  0  0  0  0
  9 33  1  0  0  0  0
  9 34  1  0  0  0  0
 10 35  1  0  0  0  0
 10 36  1  0  0  0  0
 11 13  1  0  0  0  0
 11 37  1  0  0  0  0
 11 38  1  0  0  0  0
 12 15  1  0  0  0  0
 12 39  1  0  0  0  0
 12 40  1  0  0  0  0
 13 41  1  0  0  0  0
 13 42  1  0  0  0  0
 13 43  1  0  0  0  0
 14 16  1  0  0  0  0
 16 18  2  0  0  0  0
 16 19  1  0  0  0  0
 17 20  1  0  0  0  0
 17 45  1  0  0  0  0
 17 46  1  0  0  0  0
 18 21  1  0  0  0  0
 18 47  1  0  0  0  0
 19 22  2  0  0  0  0
 19 48  1  0  0  0  0
 20 24  2  0  0  0  0
 20 25  1  0  0  0  0
 21 23  2  0  0  0  0
 21 49  1  0  0  0  0
 22 23  1  0  0  0  0
 22 50  1  0  0  0  0
 23 51  1  0  0  0  0
 24 26  1  0  0  0  0
 24 52  1  0  0  0  0
 25 27  2  0  0  0  0
 25 53  1  0  0  0  0
 26 28  2  0  0  0  0
 26 54  1  0  0  0  0
 27 28  1  0  0  0  0
 27 55  1  0  0  0  0
M  END
> <PUBCHEM_COMPOUND_CID>
11911984

> <PUBCHEM_CONFORMER_RMSD>
1

> <PUBCHEM_CONFORMER_DIVERSEORDER>
1
157
177
16
141
146
279
205
186
101
221
234
174
169
81
50
124
8
83
159
249
193
121
175
269
149
74
64
259
116
151
253
73
236
257
225
207
164
41
255
28
89
220
223
103
112
75
76
71
278
137
85
150
148
70
14
138
271
46
132
196
211
17
66
135
19
187
231
95
248
61
217
273
166
168
12
23
202
228
277
93
79
107
35
147
229
34
134
203
5
140
98
21
78
59
142
239
97
244
29
90
30
238
53
127
52
58
242
214
254
237
216
267
197
113
167
18
272
215
57
100
160
88
182
144
115
189
39
170
120
102
165
195
128
210
243
204
224
213
44
91
45
6
199
268
42
114
38
49
153
109
60
200
261
13
265
264
145
209
110
256
84
176
123
230
190
178
2
258
206
180
194
48
131
37
69
125
246
27
119
65
62
24
143
47
4
262
274
72
139
33
129
77
118
130
179
201
92
133
43
184
108
233
9
241
86
155
173
227
106
183
188
162
260
192
56
25
156
198
7
263
117
266
80
96
51
181
245
252
275
122
104
232
222
111
99
94
171
212
158
185
20
276
172
240
10
32
15
163
87
31
63
247
22
218
26
235
82
67
54
105
36
251
161
270
136
68
55
208
126
226
152
250
219
40
191
3
154
11

> <PUBCHEM_MMFF94_PARTIAL_CHARGES>
33
1 -0.19
10 0.3
12 0.06
14 0.54
15 0.57
16 0.09
17 0.44
18 -0.15
19 -0.15
2 -0.57
20 -0.14
21 -0.15
22 -0.15
23 -0.15
24 -0.15
25 -0.15
26 -0.15
27 -0.15
28 0.19
3 -0.57
4 -0.66
44 0.37
47 0.15
48 0.15
49 0.15
5 -0.73
50 0.15
51 0.15
52 0.15
53 0.15
54 0.15
55 0.15
9 0.3

> <PUBCHEM_EFFECTIVE_ROTOR_COUNT>
9.2

> <PUBCHEM_PHARMACOPHORE_FEATURES>
7
1 13 hydrophobe
1 2 acceptor
1 3 acceptor
1 5 donor
6 16 18 19 21 22 23 rings
6 20 24 25 26 27 28 rings
6 4 6 7 8 9 10 rings

> <PUBCHEM_HEAVY_ATOM_COUNT>
28

> <PUBCHEM_ATOM_DEF_STEREO_COUNT>
2

> <PUBCHEM_ATOM_UDEF_STEREO_COUNT>
0

> <PUBCHEM_BOND_DEF_STEREO_COUNT>
0

> <PUBCHEM_BOND_UDEF_STEREO_COUNT>
0

> <PUBCHEM_ISOTOPIC_ATOM_COUNT>
0

> <PUBCHEM_COMPONENT_COUNT>
1

> <PUBCHEM_CACTVS_TAUTO_COUNT>
2

> <PUBCHEM_CONFORMER_ID>
00B5C33000000001

> <PUBCHEM_MMFF94_ENERGY>
67.0501

> <PUBCHEM_FEATURE_SELFOVERLAP>
35.522

> <PUBCHEM_SHAPE_FINGERPRINT>
10622 236 18189329074964843002
10675989 125 18189053260665175616
10693767 8 18270103756075396807
12422481 6 17560809818239388581
12760667 363 18411983572238587013
12788726 201 18334286540223036467
13008946 267 16253924469116418320
13533116 47 18410856594484980580
13782708 43 17847058904755806509
14118638 360 18334299764849580364
14347332 77 18411136909409168661
14866123 147 18339367336411185529
14931854 50 18113629967388444342
15183329 4 18336266829299793095
16120349 21 18199199390277325249
17492 89 18411983525458423860
17857418 61 18341897419449536232
19311894 1 18120372064672725484
19958102 18 18040990743961326015
20403669 9 18412831291530214318
20567600 234 12319738081033392571
21279426 13 18335412474801041789
21315764 119 17530963592304760367
21478907 32 18410857650651816193
21703447 108 18341608278632254256
23536364 44 18261940878692340621
23559900 14 18189617313849854144
23569943 247 18413108343060648467
24771750 20 17105104287951992965
2838139 119 8502386494039686342
3004659 81 18260832631021625012
3459 83 18411983589740560475
34797466 226 16153992473038810885
3534868 343 18263938781335806364
3729539 64 18040994025280131363
38695281 34 17615974304927828953
44062 13 18266181634768620684
463206 1 18267020742228806678
5104073 3 18131068191481686088
513202 73 18409731747172446013
6201320 77 17243053144283015843
8988823 20 17489586826747303128

> <PUBCHEM_SHAPE_MULTIPOLES>
547.25
16.87
4.17
1.3
0.36
2.92
0.16
-15.87
2.48
-1
-0.28
-0.32
-0.33
-1.06

> <PUBCHEM_SHAPE_SELFOVERLAP>
1154.587

> <PUBCHEM_SHAPE_VOLUME>
306.3

> <PUBCHEM_COORDINATE_TYPE>
2
5
10

$$$$
