25389016
  -OEChem-12032416163D

 55 58  0     1  0  0  0  0  0999 V2000
    6.2749   -3.9041    0.1308 F   0  0  0  0  0  0  0  0  0  0  0  0
   -5.5160   -0.9969   -0.9451 O   0  0  0  0  0  0  0  0  0  0  0  0
   -6.0504   -3.3987    0.1473 O   0  0  0  0  0  0  0  0  0  0  0  0
   -2.4974    2.4650   -0.6655 N   0  0  2  0  0  0  0  0  0  0  0  0
    2.2544    2.4840   -0.4062 N   0  0  0  0  0  0  0  0  0  0  0  0
   -3.2262   -1.2220   -0.5947 N   0  0  0  0  0  0  0  0  0  0  0  0
    3.3324    1.6890   -0.5160 N   0  0  0  0  0  0  0  0  0  0  0  0
   -1.0817    2.0767    1.4858 C   0  0  2  0  0  0  0  0  0  0  0  0
   -0.1764    2.5593    0.3189 C   0  0  2  0  0  0  0  0  0  0  0  0
   -2.7993    1.1266   -0.0931 C   0  0  2  0  0  0  0  0  0  0  0  0
   -1.8253    0.7940    1.0577 C   0  0  0  0  0  0  0  0  0  0  0  0
   -2.1503    3.1698    1.7016 C   0  0  0  0  0  0  0  0  0  0  0  0
   -1.0485    2.5731   -0.9690 C   0  0  0  0  0  0  0  0  0  0  0  0
   -2.8328    3.4833    0.3586 C   0  0  0  0  0  0  0  0  0  0  0  0
    1.1568    1.8567    0.1058 C   0  0  0  0  0  0  0  0  0  0  0  0
   -2.8197    0.0283   -1.1583 C   0  0  0  0  0  0  0  0  0  0  0  0
    1.5435    0.5611    0.3475 C   0  0  0  0  0  0  0  0  0  0  0  0
    2.8920    0.5157   -0.0539 C   0  0  0  0  0  0  0  0  0  0  0  0
    2.3502    3.8640   -0.8226 C   0  0  0  0  0  0  0  0  0  0  0  0
   -4.5545   -1.6396   -0.5321 C   0  0  0  0  0  0  0  0  0  0  0  0
    3.7666   -0.6270   -0.0061 C   0  0  0  0  0  0  0  0  0  0  0  0
   -4.6960   -3.0019    0.1125 C   0  0  0  0  0  0  0  0  0  0  0  0
    3.2427   -1.9125   -0.1431 C   0  0  0  0  0  0  0  0  0  0  0  0
    5.1379   -0.4485    0.1768 C   0  0  0  0  0  0  0  0  0  0  0  0
    4.0900   -3.0195   -0.0968 C   0  0  0  0  0  0  0  0  0  0  0  0
    5.9852   -1.5555    0.2231 C   0  0  0  0  0  0  0  0  0  0  0  0
    5.4613   -2.8410    0.0863 C   0  0  0  0  0  0  0  0  0  0  0  0
   -6.2135   -4.6794    0.7498 C   0  0  0  0  0  0  0  0  0  0  0  0
   -0.5046    1.9068    2.4009 H   0  0  0  0  0  0  0  0  0  0  0  0
    0.0714    3.6045    0.5576 H   0  0  0  0  0  0  0  0  0  0  0  0
   -3.8160    1.1666    0.3257 H   0  0  0  0  0  0  0  0  0  0  0  0
   -1.1252    0.0077    0.7726 H   0  0  0  0  0  0  0  0  0  0  0  0
   -2.3970    0.4067    1.9108 H   0  0  0  0  0  0  0  0  0  0  0  0
   -1.6920    4.0791    2.1076 H   0  0  0  0  0  0  0  0  0  0  0  0
   -2.8923    2.8265    2.4327 H   0  0  0  0  0  0  0  0  0  0  0  0
   -0.8721    3.5110   -1.5119 H   0  0  0  0  0  0  0  0  0  0  0  0
   -0.7463    1.7860   -1.6695 H   0  0  0  0  0  0  0  0  0  0  0  0
   -3.9200    3.5330    0.4959 H   0  0  0  0  0  0  0  0  0  0  0  0
   -2.5359    4.4787    0.0043 H   0  0  0  0  0  0  0  0  0  0  0  0
   -1.8317   -0.1325   -1.6011 H   0  0  0  0  0  0  0  0  0  0  0  0
   -3.5096    0.2967   -1.9668 H   0  0  0  0  0  0  0  0  0  0  0  0
    0.9531   -0.2370    0.7694 H   0  0  0  0  0  0  0  0  0  0  0  0
   -2.5040   -1.8307   -0.2199 H   0  0  0  0  0  0  0  0  0  0  0  0
    2.2449    4.4993    0.0601 H   0  0  0  0  0  0  0  0  0  0  0  0
    3.3252    4.0370   -1.2864 H   0  0  0  0  0  0  0  0  0  0  0  0
    1.5614    4.0685   -1.5496 H   0  0  0  0  0  0  0  0  0  0  0  0
   -4.1100   -3.7231   -0.4691 H   0  0  0  0  0  0  0  0  0  0  0  0
   -4.2965   -2.9450    1.1318 H   0  0  0  0  0  0  0  0  0  0  0  0
    2.1804   -2.0837   -0.2975 H   0  0  0  0  0  0  0  0  0  0  0  0
    5.5750    0.5400    0.2949 H   0  0  0  0  0  0  0  0  0  0  0  0
    3.6831   -4.0205   -0.2056 H   0  0  0  0  0  0  0  0  0  0  0  0
    7.0528   -1.4175    0.3675 H   0  0  0  0  0  0  0  0  0  0  0  0
   -7.2781   -4.9274    0.7463 H   0  0  0  0  0  0  0  0  0  0  0  0
   -5.8606   -4.6619    1.7854 H   0  0  0  0  0  0  0  0  0  0  0  0
   -5.6738   -5.4414    0.1792 H   0  0  0  0  0  0  0  0  0  0  0  0
  1 27  1  0  0  0  0
  2 20  2  0  0  0  0
  3 22  1  0  0  0  0
  3 28  1  0  0  0  0
  4 10  1  0  0  0  0
  4 13  1  0  0  0  0
  4 14  1  0  0  0  0
  5  7  1  0  0  0  0
  5 15  1  0  0  0  0
  5 19  1  0  0  0  0
  6 16  1  0  0  0  0
  6 20  1  0  0  0  0
  6 43  1  0  0  0  0
  7 18  2  0  0  0  0
  8  9  1  0  0  0  0
  8 11  1  0  0  0  0
  8 12  1  0  0  0  0
  8 29  1  0  0  0  0
  9 13  1  0  0  0  0
  9 15  1  0  0  0  0
  9 30  1  0  0  0  0
 10 11  1  0  0  0  0
 10 16  1  0  0  0  0
 10 31  1  0  0  0  0
 11 32  1  0  0  0  0
 11 33  1  0  0  0  0
 12 14  1  0  0  0  0
 12 34  1  0  0  0  0
 12 35  1  0  0  0  0
 13 36  1  0  0  0  0
 13 37  1  0  0  0  0
 14 38  1  0  0  0  0
 14 39  1  0  0  0  0
 15 17  2  0  0  0  0
 16 40  1  0  0  0  0
 16 41  1  0  0  0  0
 17 18  1  0  0  0  0
 17 42  1  0  0  0  0
 18 21  1  0  0  0  0
 19 44  1  0  0  0  0
 19 45  1  0  0  0  0
 19 46  1  0  0  0  0
 20 22  1  0  0  0  0
 21 23  2  0  0  0  0
 21 24  1  0  0  0  0
 22 47  1  0  0  0  0
 22 48  1  0  0  0  0
 23 25  1  0  0  0  0
 23 49  1  0  0  0  0
 24 26  2  0  0  0  0
 24 50  1  0  0  0  0
 25 27  2  0  0  0  0
 25 51  1  0  0  0  0
 26 27  1  0  0  0  0
 26 52  1  0  0  0  0
 28 53  1  0  0  0  0
 28 54  1  0  0  0  0
 28 55  1  0  0  0  0
M  END
> <PUBCHEM_COMPOUND_CID>
25389016

> <PUBCHEM_CONFORMER_RMSD>
1

> <PUBCHEM_CONFORMER_DIVERSEORDER>
1
4
17
21
10
9
12
19
5
2
20
6
15
22
11
18
8
3
7
13
23
14
16

> <PUBCHEM_MMFF94_PARTIAL_CHARGES>
31
1 -0.19
10 0.27
13 0.27
14 0.27
15 -0.33
16 0.3
17 -0.15
18 0.23
19 0.26
2 -0.57
20 0.57
21 0.05
22 0.34
23 -0.15
24 -0.15
25 -0.15
26 -0.15
27 0.19
28 0.28
3 -0.56
4 -0.81
42 0.15
43 0.37
49 0.15
5 0.31
50 0.15
51 0.15
52 0.15
6 -0.73
7 -0.71
9 0.18

> <PUBCHEM_EFFECTIVE_ROTOR_COUNT>
8.2

> <PUBCHEM_PHARMACOPHORE_FEATURES>
8
1 2 acceptor
1 3 acceptor
1 4 cation
1 6 donor
1 7 acceptor
5 5 7 15 17 18 rings
6 21 23 24 25 26 27 rings
8 4 8 9 10 11 12 13 14 rings

> <PUBCHEM_HEAVY_ATOM_COUNT>
28

> <PUBCHEM_ATOM_DEF_STEREO_COUNT>
3

> <PUBCHEM_ATOM_UDEF_STEREO_COUNT>
0

> <PUBCHEM_BOND_DEF_STEREO_COUNT>
0

> <PUBCHEM_BOND_UDEF_STEREO_COUNT>
0

> <PUBCHEM_ISOTOPIC_ATOM_COUNT>
0

> <PUBCHEM_COMPONENT_COUNT>
1

> <PUBCHEM_CACTVS_TAUTO_COUNT>
2

> <PUBCHEM_CONFORMER_ID>
018367D800000001

> <PUBCHEM_MMFF94_ENERGY>
64.3116

> <PUBCHEM_FEATURE_SELFOVERLAP>
40.604

> <PUBCHEM_SHAPE_FINGERPRINT>
10319688 140 17975977880047299685
10622 236 18410846638503245534
11014199 57 18410294683697646460
11135609 12 18410847780837647080
11409948 35 18265613377112211107
117089 54 18336834216208515811
12107183 9 18342753918624644147
12760667 363 18272363158064818823
13631057 29 18341890784263082178
13911852 28 18268425918748455039
13911987 19 17395875604883365501
13989917 61 17975980083224351539
14251764 30 18336828718829198715
14429380 30 18409730655813299050
14866123 147 18341615855243896233
15019793 15 17763462125138011927
15475509 35 17910676789510444667
15728490 83 18337958874595341043
15803439 3 17102249517710745197
16120349 21 18270689641206490769
16728300 4 18200318844456907199
17492 89 18410854377917755030
17909252 39 18341048618290784042
19141452 34 18124599669875325688
19311894 1 18192431862054867082
19319366 153 17764870586251886252
20775530 9 18341320188846296735
23466295 7 18410575046541168705
23559900 14 18341316825855742688
25222932 49 17839182162215664463
2835820 90 17099476906010828003
314194 84 18053661662447887239
345986 75 17631183055374921849
44062 13 18264769865653495253
4435113 14 17390517638209718227
4461854 278 17846502582149044438
46194498 28 17678165203771642069
463206 1 18191590752960105144
484985 159 18265046925872973317
5104073 3 17987789706121426896
513202 73 18261686913371362521
5309563 4 18340488979900052887
6058803 2 18267325216697995296
6431902 208 18341603802854078878
70251023 43 18337111275588671969
7970288 3 18339359789963923963
88748 71 18410855486161781271

> <PUBCHEM_SHAPE_MULTIPOLES>
537.29
14.57
6.31
1.06
1.23
2.95
-0.18
23.92
-0.02
-4.39
-0.73
-0.86
-0.65
-0.59

> <PUBCHEM_SHAPE_SELFOVERLAP>
1148.895

> <PUBCHEM_SHAPE_VOLUME>
299.6

> <PUBCHEM_COORDINATE_TYPE>
2
5
10

$$$$
