45783300
  -OEChem-12032416203D

 57 61  0     1  0  0  0  0  0999 V2000
    1.7115    2.8468    0.6236 F   0  0  0  0  0  0  0  0  0  0  0  0
    0.3886    4.4942    1.1370 F   0  0  0  0  0  0  0  0  0  0  0  0
    1.2328    4.3528   -0.8617 F   0  0  0  0  0  0  0  0  0  0  0  0
   -2.7819   -1.0569    2.2169 O   0  0  0  0  0  0  0  0  0  0  0  0
    5.3279   -1.2008   -2.6612 O   0  0  0  0  0  0  0  0  0  0  0  0
   -3.6897   -0.9255   -1.3417 N   0  0  1  0  0  0  0  0  0  0  0  0
   -1.3568   -1.2230    0.4969 N   0  0  0  0  0  0  0  0  0  0  0  0
    3.6250   -1.1412   -0.4260 N   0  0  0  0  0  0  0  0  0  0  0  0
   -1.4976   -0.9334    2.7620 N   0  0  0  0  0  0  0  0  0  0  0  0
    3.5060   -0.8387    1.9181 N   0  0  0  0  0  0  0  0  0  0  0  0
   -3.8662   -1.3832    0.0510 C   0  0  1  0  0  0  0  0  0  0  0  0
   -4.3148   -2.8510   -0.0735 C   0  0  0  0  0  0  0  0  0  0  0  0
   -4.4210   -3.1089   -1.5698 C   0  0  0  0  0  0  0  0  0  0  0  0
   -4.6037   -1.7244   -2.1583 C   0  0  0  0  0  0  0  0  0  0  0  0
   -3.9129    0.5048   -1.5090 C   0  0  0  0  0  0  0  0  0  0  0  0
   -2.6087   -1.2246    0.8797 C   0  0  0  0  0  0  0  0  0  0  0  0
   -2.7169    1.3128   -1.0805 C   0  0  0  0  0  0  0  0  0  0  0  0
   -0.7125   -1.0414    1.6859 C   0  0  0  0  0  0  0  0  0  0  0  0
   -2.8463    2.2691   -0.0732 C   0  0  0  0  0  0  0  0  0  0  0  0
   -1.4795    1.1047   -1.6897 C   0  0  0  0  0  0  0  0  0  0  0  0
    4.9689   -1.7259   -0.3207 C   0  0  0  0  0  0  0  0  0  0  0  0
    3.4463   -0.1798   -1.5196 C   0  0  0  0  0  0  0  0  0  0  0  0
    0.7183   -0.9739    1.7648 C   0  0  0  0  0  0  0  0  0  0  0  0
    2.8649   -1.0188    0.7416 C   0  0  0  0  0  0  0  0  0  0  0  0
   -1.7385    3.0175    0.3244 C   0  0  0  0  0  0  0  0  0  0  0  0
   -0.3716    1.8530   -1.2921 C   0  0  0  0  0  0  0  0  0  0  0  0
    5.4158   -2.2385   -1.6851 C   0  0  0  0  0  0  0  0  0  0  0  0
    3.9752   -0.7744   -2.8201 C   0  0  0  0  0  0  0  0  0  0  0  0
    1.4872   -1.0923    0.6123 C   0  0  0  0  0  0  0  0  0  0  0  0
   -0.5011    2.8093   -0.2850 C   0  0  0  0  0  0  0  0  0  0  0  0
    1.3415   -0.7879    2.9938 C   0  0  0  0  0  0  0  0  0  0  0  0
    2.7256   -0.7278    3.0164 C   0  0  0  0  0  0  0  0  0  0  0  0
    0.6840    3.6073    0.1426 C   0  0  0  0  0  0  0  0  0  0  0  0
   -4.6777   -0.8287    0.5430 H   0  0  0  0  0  0  0  0  0  0  0  0
   -3.6295   -3.5647    0.3966 H   0  0  0  0  0  0  0  0  0  0  0  0
   -5.3007   -2.9757    0.3908 H   0  0  0  0  0  0  0  0  0  0  0  0
   -5.2474   -3.7821   -1.8160 H   0  0  0  0  0  0  0  0  0  0  0  0
   -3.4914   -3.5612   -1.9370 H   0  0  0  0  0  0  0  0  0  0  0  0
   -5.6447   -1.3965   -2.0436 H   0  0  0  0  0  0  0  0  0  0  0  0
   -4.3371   -1.7003   -3.2194 H   0  0  0  0  0  0  0  0  0  0  0  0
   -4.0694    0.7358   -2.5722 H   0  0  0  0  0  0  0  0  0  0  0  0
   -4.8271    0.8361   -0.9991 H   0  0  0  0  0  0  0  0  0  0  0  0
   -3.8036    2.4400    0.4118 H   0  0  0  0  0  0  0  0  0  0  0  0
   -1.3638    0.3672   -2.4796 H   0  0  0  0  0  0  0  0  0  0  0  0
    4.9830   -2.5589    0.3922 H   0  0  0  0  0  0  0  0  0  0  0  0
    5.6650   -0.9555    0.0332 H   0  0  0  0  0  0  0  0  0  0  0  0
    4.0015    0.7340   -1.2745 H   0  0  0  0  0  0  0  0  0  0  0  0
    2.3966    0.0939   -1.6611 H   0  0  0  0  0  0  0  0  0  0  0  0
    4.8110   -3.0946   -2.0080 H   0  0  0  0  0  0  0  0  0  0  0  0
    6.4584   -2.5685   -1.6369 H   0  0  0  0  0  0  0  0  0  0  0  0
    3.3619   -1.6216   -3.1504 H   0  0  0  0  0  0  0  0  0  0  0  0
    3.9515   -0.0192   -3.6122 H   0  0  0  0  0  0  0  0  0  0  0  0
   -1.8601    3.7562    1.1117 H   0  0  0  0  0  0  0  0  0  0  0  0
    0.5865    1.6888   -1.7763 H   0  0  0  0  0  0  0  0  0  0  0  0
    1.0283   -1.2546   -0.3585 H   0  0  0  0  0  0  0  0  0  0  0  0
    0.7940   -0.6885    3.9252 H   0  0  0  0  0  0  0  0  0  0  0  0
    3.2605   -0.5839    3.9495 H   0  0  0  0  0  0  0  0  0  0  0  0
  1 33  1  0  0  0  0
  2 33  1  0  0  0  0
  3 33  1  0  0  0  0
  4  9  1  0  0  0  0
  4 16  1  0  0  0  0
  5 27  1  0  0  0  0
  5 28  1  0  0  0  0
  6 11  1  0  0  0  0
  6 14  1  0  0  0  0
  6 15  1  0  0  0  0
  7 16  2  0  0  0  0
  7 18  1  0  0  0  0
  8 21  1  0  0  0  0
  8 22  1  0  0  0  0
  8 24  1  0  0  0  0
  9 18  2  0  0  0  0
 10 24  2  0  0  0  0
 10 32  1  0  0  0  0
 11 12  1  0  0  0  0
 11 16  1  0  0  0  0
 11 34  1  0  0  0  0
 12 13  1  0  0  0  0
 12 35  1  0  0  0  0
 12 36  1  0  0  0  0
 13 14  1  0  0  0  0
 13 37  1  0  0  0  0
 13 38  1  0  0  0  0
 14 39  1  0  0  0  0
 14 40  1  0  0  0  0
 15 17  1  0  0  0  0
 15 41  1  0  0  0  0
 15 42  1  0  0  0  0
 17 19  2  0  0  0  0
 17 20  1  0  0  0  0
 18 23  1  0  0  0  0
 19 25  1  0  0  0  0
 19 43  1  0  0  0  0
 20 26  2  0  0  0  0
 20 44  1  0  0  0  0
 21 27  1  0  0  0  0
 21 45  1  0  0  0  0
 21 46  1  0  0  0  0
 22 28  1  0  0  0  0
 22 47  1  0  0  0  0
 22 48  1  0  0  0  0
 23 29  2  0  0  0  0
 23 31  1  0  0  0  0
 24 29  1  0  0  0  0
 25 30  2  0  0  0  0
 25 53  1  0  0  0  0
 26 30  1  0  0  0  0
 26 54  1  0  0  0  0
 27 49  1  0  0  0  0
 27 50  1  0  0  0  0
 28 51  1  0  0  0  0
 28 52  1  0  0  0  0
 29 55  1  0  0  0  0
 30 33  1  0  0  0  0
 31 32  2  0  0  0  0
 31 56  1  0  0  0  0
 32 57  1  0  0  0  0
M  END
> <PUBCHEM_COMPOUND_CID>
45783300

> <PUBCHEM_CONFORMER_RMSD>
1

> <PUBCHEM_CONFORMER_DIVERSEORDER>
1
79
19
74
28
105
99
68
88
85
83
103
29
4
24
75
40
84
80
94
54
63
10
14
90
48
93
82
12
15
77
33
62
55
73
100
42
47
98
45
59
86
31
39
89
13
58
30
70
38
71
36
41
37
65
97
22
101
35
34
104
76
3
102
95
56
67
43
91
57
81
17
2
61
25
46
21
18
23
16
78
5
53
72
66
27
11
96
49
52
64
87
20
26
32
60
50
92
7
44
8
6
69
51
9

> <PUBCHEM_MMFF94_PARTIAL_CHARGES>
38
1 -0.34
10 -0.62
11 0.45
14 0.27
15 0.41
16 0.3
17 -0.14
18 0.46
19 -0.15
2 -0.34
20 -0.15
21 0.37
22 0.37
23 0.05
24 0.41
25 -0.15
26 -0.15
27 0.28
28 0.28
29 -0.15
3 -0.34
30 -0.14
31 -0.15
32 0.16
33 1.16
4 -0.02
43 0.15
44 0.15
5 -0.56
53 0.15
54 0.15
55 0.15
56 0.15
57 0.15
6 -0.81
7 -0.57
8 -0.84
9 -0.41

> <PUBCHEM_EFFECTIVE_ROTOR_COUNT>
8.2

> <PUBCHEM_PHARMACOPHORE_FEATURES>
9
1 5 acceptor
1 6 cation
3 7 9 18 cation
3 8 10 24 cation
5 4 7 9 16 18 rings
5 6 11 12 13 14 rings
6 10 23 24 29 31 32 rings
6 17 19 20 25 26 30 rings
6 5 8 21 22 27 28 rings

> <PUBCHEM_HEAVY_ATOM_COUNT>
33

> <PUBCHEM_ATOM_DEF_STEREO_COUNT>
1

> <PUBCHEM_ATOM_UDEF_STEREO_COUNT>
0

> <PUBCHEM_BOND_DEF_STEREO_COUNT>
0

> <PUBCHEM_BOND_UDEF_STEREO_COUNT>
0

> <PUBCHEM_ISOTOPIC_ATOM_COUNT>
0

> <PUBCHEM_COMPONENT_COUNT>
1

> <PUBCHEM_CACTVS_TAUTO_COUNT>
1

> <PUBCHEM_CONFORMER_ID>
02BA990400000001

> <PUBCHEM_MMFF94_ENERGY>
76.3488

> <PUBCHEM_FEATURE_SELFOVERLAP>
45.674

> <PUBCHEM_SHAPE_FINGERPRINT>
1100329 8 18118373234828280101
11513181 2 18126551547647766511
11607047 141 17983878932583685179
1200032 147 14490741309481100127
12596599 1 18270664395051251337
12788726 201 18044373825081131797
13009979 54 17462822316840267474
13383661 66 16538787702428957102
13761468 95 17537446111088011166
14114206 34 17968382255716648052
14910302 57 18059842935766349215
14932702 115 17458893886411201815
15513586 35 12472639513925162806
17909252 39 18123195868034914551
19319366 153 17388808679359033401
20691752 17 17024840798343864209
20764821 26 18186511095039425944
20775438 99 17689139536951466023
238918 7 17323512368203023705
469060 322 18058748934750283374
484985 159 15337707137600785364
50150288 127 16606120326231353908
6786 2 17049668620922821561
70251023 43 18339087115390617935

> <PUBCHEM_SHAPE_MULTIPOLES>
620.66
9.93
4.44
3.06
5.53
5.83
0.8
-9.74
-7.3
-2.06
-0.41
2.43
-1.6
0.26

> <PUBCHEM_SHAPE_SELFOVERLAP>
1351.983

> <PUBCHEM_SHAPE_VOLUME>
340.3

> <PUBCHEM_COORDINATE_TYPE>
2
5
10

$$$$
