40776907
  -OEChem-12032416413D

 62 65  0     1  0  0  0  0  0999 V2000
    5.1524    0.4297    1.8686 O   0  0  0  0  0  0  0  0  0  0  0  0
   -3.9757   -2.7628    0.5118 O   0  0  0  0  0  0  0  0  0  0  0  0
    9.1644   -1.9775   -0.0594 O   0  0  0  0  0  0  0  0  0  0  0  0
    7.4071   -2.8353   -1.2143 O   0  0  0  0  0  0  0  0  0  0  0  0
    1.1242    2.5894    1.3178 N   0  0  2  0  0  0  0  0  0  0  0  0
    3.3259   -0.3911    0.6854 N   0  0  0  0  0  0  0  0  0  0  0  0
   -1.2634    0.4370   -1.9208 N   0  0  0  0  0  0  0  0  0  0  0  0
   -3.2509   -0.9015   -1.6640 N   0  0  0  0  0  0  0  0  0  0  0  0
    0.5662    2.5315   -1.2255 C   0  0  2  0  0  0  0  0  0  0  0  0
   -0.7096    2.2561   -0.3825 C   0  0  2  0  0  0  0  0  0  0  0  0
    2.0878    1.7091    0.6060 C   0  0  2  0  0  0  0  0  0  0  0  0
    1.6521    1.4975   -0.8600 C   0  0  0  0  0  0  0  0  0  0  0  0
    1.0948    3.9162   -0.7938 C   0  0  0  0  0  0  0  0  0  0  0  0
   -0.2623    2.1065    1.0998 C   0  0  0  0  0  0  0  0  0  0  0  0
    1.2372    3.9492    0.7379 C   0  0  0  0  0  0  0  0  0  0  0  0
    2.3099    0.3806    1.3322 C   0  0  0  0  0  0  0  0  0  0  0  0
   -1.6330    1.1295   -0.8234 C   0  0  0  0  0  0  0  0  0  0  0  0
   -2.7811    0.8695   -0.1033 C   0  0  0  0  0  0  0  0  0  0  0  0
   -3.5596   -0.1679   -0.5747 C   0  0  0  0  0  0  0  0  0  0  0  0
    4.6812   -0.3065    1.0060 C   0  0  0  0  0  0  0  0  0  0  0  0
   -2.1060   -0.5502   -2.2800 C   0  0  0  0  0  0  0  0  0  0  0  0
    5.5270   -1.2385    0.1571 C   0  0  0  0  0  0  0  0  0  0  0  0
   -4.7868   -0.5396    0.0881 C   0  0  0  0  0  0  0  0  0  0  0  0
   -1.7322   -1.3374   -3.4901 C   0  0  0  0  0  0  0  0  0  0  0  0
    7.0109   -1.1537    0.4999 C   0  0  0  0  0  0  0  0  0  0  0  0
   -4.9580   -1.8218    0.6099 C   0  0  0  0  0  0  0  0  0  0  0  0
   -5.8090    0.4024    0.2031 C   0  0  0  0  0  0  0  0  0  0  0  0
   -6.1514   -2.1619    1.2469 C   0  0  0  0  0  0  0  0  0  0  0  0
   -7.0025    0.0623    0.8401 C   0  0  0  0  0  0  0  0  0  0  0  0
    7.8424   -2.0802   -0.3562 C   0  0  0  0  0  0  0  0  0  0  0  0
   -7.1738   -1.2198    1.3620 C   0  0  0  0  0  0  0  0  0  0  0  0
   -3.0282   -2.8212    1.5755 C   0  0  0  0  0  0  0  0  0  0  0  0
    0.3591    2.5197   -2.3008 H   0  0  0  0  0  0  0  0  0  0  0  0
   -1.3299    3.1631   -0.4556 H   0  0  0  0  0  0  0  0  0  0  0  0
    3.0616    2.2213    0.5979 H   0  0  0  0  0  0  0  0  0  0  0  0
    1.2711    0.4841   -1.0277 H   0  0  0  0  0  0  0  0  0  0  0  0
    2.5191    1.6263   -1.5198 H   0  0  0  0  0  0  0  0  0  0  0  0
    0.4093    4.7067   -1.1209 H   0  0  0  0  0  0  0  0  0  0  0  0
    2.0643    4.1099   -1.2687 H   0  0  0  0  0  0  0  0  0  0  0  0
   -0.9421    2.6841    1.7406 H   0  0  0  0  0  0  0  0  0  0  0  0
   -0.3557    1.0727    1.4520 H   0  0  0  0  0  0  0  0  0  0  0  0
    2.2009    4.3952    1.0131 H   0  0  0  0  0  0  0  0  0  0  0  0
    0.4743    4.6049    1.1768 H   0  0  0  0  0  0  0  0  0  0  0  0
    1.4063   -0.2369    1.3449 H   0  0  0  0  0  0  0  0  0  0  0  0
    2.6071    0.5616    2.3717 H   0  0  0  0  0  0  0  0  0  0  0  0
    3.0379   -1.0310   -0.0493 H   0  0  0  0  0  0  0  0  0  0  0  0
   -3.0510    1.4454    0.7741 H   0  0  0  0  0  0  0  0  0  0  0  0
    5.1640   -2.2630    0.3045 H   0  0  0  0  0  0  0  0  0  0  0  0
    5.3685   -0.9816   -0.8975 H   0  0  0  0  0  0  0  0  0  0  0  0
   -2.2299   -0.9202   -4.3704 H   0  0  0  0  0  0  0  0  0  0  0  0
   -0.6503   -1.3118   -3.6542 H   0  0  0  0  0  0  0  0  0  0  0  0
   -2.0336   -2.3836   -3.3783 H   0  0  0  0  0  0  0  0  0  0  0  0
    7.1677   -1.4248    1.5500 H   0  0  0  0  0  0  0  0  0  0  0  0
    7.3705   -0.1300    0.3453 H   0  0  0  0  0  0  0  0  0  0  0  0
   -5.7001    1.4061   -0.2015 H   0  0  0  0  0  0  0  0  0  0  0  0
   -6.2927   -3.1589    1.6554 H   0  0  0  0  0  0  0  0  0  0  0  0
   -7.7991    0.7952    0.9285 H   0  0  0  0  0  0  0  0  0  0  0  0
   -8.1032   -1.4847    1.8575 H   0  0  0  0  0  0  0  0  0  0  0  0
   -2.2914   -3.5925    1.3348 H   0  0  0  0  0  0  0  0  0  0  0  0
   -3.5236   -3.0926    2.5131 H   0  0  0  0  0  0  0  0  0  0  0  0
   -2.5071   -1.8659    1.6907 H   0  0  0  0  0  0  0  0  0  0  0  0
    9.7106   -2.5762   -0.6122 H   0  0  0  0  0  0  0  0  0  0  0  0
  1 20  2  0  0  0  0
  2 26  1  0  0  0  0
  2 32  1  0  0  0  0
  3 30  1  0  0  0  0
  3 62  1  0  0  0  0
  4 30  2  0  0  0  0
  5 11  1  0  0  0  0
  5 14  1  0  0  0  0
  5 15  1  0  0  0  0
  6 16  1  0  0  0  0
  6 20  1  0  0  0  0
  6 46  1  0  0  0  0
  7 17  2  0  0  0  0
  7 21  1  0  0  0  0
  8 19  1  0  0  0  0
  8 21  2  0  0  0  0
  9 10  1  0  0  0  0
  9 12  1  0  0  0  0
  9 13  1  0  0  0  0
  9 33  1  0  0  0  0
 10 14  1  0  0  0  0
 10 17  1  0  0  0  0
 10 34  1  0  0  0  0
 11 12  1  0  0  0  0
 11 16  1  0  0  0  0
 11 35  1  0  0  0  0
 12 36  1  0  0  0  0
 12 37  1  0  0  0  0
 13 15  1  0  0  0  0
 13 38  1  0  0  0  0
 13 39  1  0  0  0  0
 14 40  1  0  0  0  0
 14 41  1  0  0  0  0
 15 42  1  0  0  0  0
 15 43  1  0  0  0  0
 16 44  1  0  0  0  0
 16 45  1  0  0  0  0
 17 18  1  0  0  0  0
 18 19  2  0  0  0  0
 18 47  1  0  0  0  0
 19 23  1  0  0  0  0
 20 22  1  0  0  0  0
 21 24  1  0  0  0  0
 22 25  1  0  0  0  0
 22 48  1  0  0  0  0
 22 49  1  0  0  0  0
 23 26  1  0  0  0  0
 23 27  2  0  0  0  0
 24 50  1  0  0  0  0
 24 51  1  0  0  0  0
 24 52  1  0  0  0  0
 25 30  1  0  0  0  0
 25 53  1  0  0  0  0
 25 54  1  0  0  0  0
 26 28  2  0  0  0  0
 27 29  1  0  0  0  0
 27 55  1  0  0  0  0
 28 31  1  0  0  0  0
 28 56  1  0  0  0  0
 29 31  2  0  0  0  0
 29 57  1  0  0  0  0
 31 58  1  0  0  0  0
 32 59  1  0  0  0  0
 32 60  1  0  0  0  0
 32 61  1  0  0  0  0
M  END
> <PUBCHEM_COMPOUND_CID>
40776907

> <PUBCHEM_CONFORMER_RMSD>
1

> <PUBCHEM_CONFORMER_DIVERSEORDER>
1
179
45
95
98
120
139
159
72
108
166
115
145
138
79
19
46
69
161
125
126
66
106
172
73
107
99
114
110
13
111
135
59
96
156
80
151
7
121
184
97
154
91
70
146
169
56
153
182
77
144
118
61
164
136
37
17
129
82
86
109
122
143
89
141
181
134
14
41
183
81
176
65
171
58
71
119
100
54
75
87
36
78
152
49
83
167
116
150
148
51
39
40
130
68
170
42
103
25
140
6
44
92
62
29
48
168
27
8
20
165
180
132
74
38
85
101
177
43
142
162
60
133
147
23
117
94
26
163
84
160
124
102
178
113
30
52
5
63
22
67
24
155
112
11
157
9
149
18
174
21
105
53
158
15
4
10
173
104
2
64
32
28
93
33
90
34
57
175
128
137
55
131
3
35
123
127
47
76
88
50
16
12
31

> <PUBCHEM_MMFF94_PARTIAL_CHARGES>
35
1 -0.57
10 0.14
11 0.27
14 0.27
15 0.27
16 0.3
17 0.17
18 -0.15
19 0.31
2 -0.36
20 0.57
21 0.48
22 0.06
24 0.14
25 0.06
26 0.08
27 -0.15
28 -0.15
29 -0.15
3 -0.65
30 0.66
31 -0.15
32 0.28
4 -0.57
46 0.37
47 0.15
5 -0.81
55 0.15
56 0.15
57 0.15
58 0.15
6 -0.73
62 0.5
7 -0.62
8 -0.62

> <PUBCHEM_EFFECTIVE_ROTOR_COUNT>
10.2

> <PUBCHEM_PHARMACOPHORE_FEATURES>
12
1 1 acceptor
1 2 acceptor
1 3 acceptor
1 4 acceptor
1 5 cation
1 6 donor
1 7 acceptor
3 3 4 30 anion
3 7 8 21 cation
6 23 26 27 28 29 31 rings
6 7 8 17 18 19 21 rings
8 5 9 10 11 12 13 14 15 rings

> <PUBCHEM_HEAVY_ATOM_COUNT>
32

> <PUBCHEM_ATOM_DEF_STEREO_COUNT>
3

> <PUBCHEM_ATOM_UDEF_STEREO_COUNT>
0

> <PUBCHEM_BOND_DEF_STEREO_COUNT>
0

> <PUBCHEM_BOND_UDEF_STEREO_COUNT>
0

> <PUBCHEM_ISOTOPIC_ATOM_COUNT>
0

> <PUBCHEM_COMPONENT_COUNT>
1

> <PUBCHEM_CACTVS_TAUTO_COUNT>
2

> <PUBCHEM_CONFORMER_ID>
026E34CB00000001

> <PUBCHEM_MMFF94_ENERGY>
92.9201

> <PUBCHEM_FEATURE_SELFOVERLAP>
60.955

> <PUBCHEM_SHAPE_FINGERPRINT>
10010297 198 17831306369290126237
10692045 39 16702031872013901127
10928967 22 16734365275171883979
11135926 11 18048865588369900724
11505856 67 13769303330785199471
11513181 2 17684379737944714915
11621639 254 15068635863506825646
117089 54 18262523731071154347
12422481 6 17917425445114179045
12633257 1 16414912066952020905
13103583 49 16702009933384379732
13583140 156 17977369862322614701
13673619 4 17821726152404152885
13690498 29 17603580807606628573
13726171 33 11242236430584395247
14251764 30 18335136484312789106
14420673 8 18334579062182984995
14767858 380 13190336868147412549
14955137 171 18343020016790649224
15289351 153 9439135226056334702
15350500 185 9007053535666021602
15669420 48 15357702985339676002
15684393 108 18336553738270334254
16120349 189 9943514229225310984
16120349 21 18335988597471784065
16991981 162 15143179371540619710
19246450 95 17489314023399273025
208703 8 18334577915600368116
21344244 246 17967823799386091788
21403212 168 16702303421574372087
21716022 299 18114760320939425556
22122407 14 13110668506510247730
23559900 14 18188489219879822709
25269216 80 15430037652276567049
2838139 119 10663814178589057488
3737641 26 18199459983687817710
4107672 100 17386562454096725213
437815 12 18409450297158262018
44880168 125 17774428405168201742
474113 269 18269545204711935671
5372103 7 9007060149451674474
54039377 194 18410295792363529542
54728670 133 15912206383004742048
57816373 69 18263359364656145375
6058803 2 17127595815972901773
6371380 46 18187353325837088493
6679774 75 18059029370144825775
9896288 288 17914620453529119712
999808 66 18343019965462018726

> <PUBCHEM_SHAPE_MULTIPOLES>
615.14
20.19
3.99
2.07
26.63
2.35
-1.65
-23.98
5.54
3
0.39
-1.11
-0.58
2.01

> <PUBCHEM_SHAPE_SELFOVERLAP>
1313.445

> <PUBCHEM_SHAPE_VOLUME>
335.3

> <PUBCHEM_COORDINATE_TYPE>
2
5
10

$$$$
