26742833
  -OEChem-12032416173D

 53 57  0     1  0  0  0  0  0999 V2000
   -0.2444    3.2576   -1.6029 O   0  0  0  0  0  0  0  0  0  0  0  0
   -1.5318   -3.6048   -1.0268 O   0  0  0  0  0  0  0  0  0  0  0  0
    4.0257    0.2872    1.1036 O   0  0  0  0  0  0  0  0  0  0  0  0
    4.1593    0.3886   -1.3004 O   0  0  0  0  0  0  0  0  0  0  0  0
   -1.9876    2.0433   -0.6501 N   0  0  0  0  0  0  0  0  0  0  0  0
   -1.0067   -2.4638    0.9238 N   0  0  0  0  0  0  0  0  0  0  0  0
   -2.8221    0.2310    0.8350 C   0  0  2  0  0  0  0  0  0  0  0  0
   -3.1368   -0.6020   -0.4303 C   0  0  1  0  0  0  0  0  0  0  0  0
   -2.8619    1.7332    0.4875 C   0  0  0  0  0  0  0  0  0  0  0  0
   -2.2226   -0.2134   -1.6074 C   0  0  0  0  0  0  0  0  0  0  0  0
   -0.7152    3.7242    0.6380 C   0  0  0  0  0  0  0  0  0  0  0  0
   -1.4918   -0.1123    1.5319 C   0  0  0  0  0  0  0  0  0  0  0  0
   -2.2740    1.2900   -1.8700 C   0  0  0  0  0  0  0  0  0  0  0  0
    0.6474    4.2932    0.9051 C   0  0  0  0  0  0  0  0  0  0  0  0
    0.1665    3.1021    1.6809 C   0  0  0  0  0  0  0  0  0  0  0  0
   -3.1872   -2.1159   -0.1874 C   0  0  0  0  0  0  0  0  0  0  0  0
   -0.9590    2.9899   -0.6404 C   0  0  0  0  0  0  0  0  0  0  0  0
   -1.4086   -1.5608    2.0001 C   0  0  0  0  0  0  0  0  0  0  0  0
   -1.8353   -2.8023   -0.1402 C   0  0  0  0  0  0  0  0  0  0  0  0
    0.3415   -3.0103    1.0009 C   0  0  0  0  0  0  0  0  0  0  0  0
    1.3512   -2.1094    0.3507 C   0  0  0  0  0  0  0  0  0  0  0  0
    2.2061   -1.3398    1.1435 C   0  0  0  0  0  0  0  0  0  0  0  0
    1.4291   -2.0500   -1.0519 C   0  0  0  0  0  0  0  0  0  0  0  0
    3.1188   -0.5289    0.5005 C   0  0  0  0  0  0  0  0  0  0  0  0
    2.3628   -1.2206   -1.6779 C   0  0  0  0  0  0  0  0  0  0  0  0
    3.1951   -0.4710   -0.8722 C   0  0  0  0  0  0  0  0  0  0  0  0
    4.6816    0.8651   -0.0436 C   0  0  0  0  0  0  0  0  0  0  0  0
   -3.6243    0.0490    1.5639 H   0  0  0  0  0  0  0  0  0  0  0  0
   -4.1598   -0.3215   -0.7249 H   0  0  0  0  0  0  0  0  0  0  0  0
   -3.8786    2.0205    0.1916 H   0  0  0  0  0  0  0  0  0  0  0  0
   -2.6116    2.3313    1.3666 H   0  0  0  0  0  0  0  0  0  0  0  0
   -2.5265   -0.7509   -2.5132 H   0  0  0  0  0  0  0  0  0  0  0  0
   -1.1858   -0.4968   -1.3974 H   0  0  0  0  0  0  0  0  0  0  0  0
   -1.5468    4.3339    0.9794 H   0  0  0  0  0  0  0  0  0  0  0  0
   -1.4043    0.5276    2.4195 H   0  0  0  0  0  0  0  0  0  0  0  0
   -0.6401    0.1283    0.8869 H   0  0  0  0  0  0  0  0  0  0  0  0
   -1.5667    1.5503   -2.6637 H   0  0  0  0  0  0  0  0  0  0  0  0
   -3.2728    1.5862   -2.2115 H   0  0  0  0  0  0  0  0  0  0  0  0
    0.7047    5.2420    1.4252 H   0  0  0  0  0  0  0  0  0  0  0  0
    1.4457    4.1315    0.1914 H   0  0  0  0  0  0  0  0  0  0  0  0
    0.6413    2.1520    1.4704 H   0  0  0  0  0  0  0  0  0  0  0  0
   -0.1020    3.2488    2.7198 H   0  0  0  0  0  0  0  0  0  0  0  0
   -3.7448   -2.5783   -1.0133 H   0  0  0  0  0  0  0  0  0  0  0  0
   -3.7538   -2.3548    0.7192 H   0  0  0  0  0  0  0  0  0  0  0  0
   -0.6793   -1.6325    2.8151 H   0  0  0  0  0  0  0  0  0  0  0  0
   -2.3667   -1.8978    2.4100 H   0  0  0  0  0  0  0  0  0  0  0  0
    0.3687   -3.9839    0.4949 H   0  0  0  0  0  0  0  0  0  0  0  0
    0.5950   -3.2175    2.0475 H   0  0  0  0  0  0  0  0  0  0  0  0
    2.1579   -1.3718    2.2266 H   0  0  0  0  0  0  0  0  0  0  0  0
    0.7751   -2.6554   -1.6721 H   0  0  0  0  0  0  0  0  0  0  0  0
    2.4274   -1.1735   -2.7590 H   0  0  0  0  0  0  0  0  0  0  0  0
    5.7502    0.6263    0.0058 H   0  0  0  0  0  0  0  0  0  0  0  0
    4.5618    1.9539   -0.0042 H   0  0  0  0  0  0  0  0  0  0  0  0
  1 17  2  0  0  0  0
  2 19  2  0  0  0  0
  3 24  1  0  0  0  0
  3 27  1  0  0  0  0
  4 26  1  0  0  0  0
  4 27  1  0  0  0  0
  5  9  1  0  0  0  0
  5 13  1  0  0  0  0
  5 17  1  0  0  0  0
  6 18  1  0  0  0  0
  6 19  1  0  0  0  0
  6 20  1  0  0  0  0
  7  8  1  0  0  0  0
  7  9  1  0  0  0  0
  7 12  1  0  0  0  0
  7 28  1  0  0  0  0
  8 10  1  0  0  0  0
  8 16  1  0  0  0  0
  8 29  1  0  0  0  0
  9 30  1  0  0  0  0
  9 31  1  0  0  0  0
 10 13  1  0  0  0  0
 10 32  1  0  0  0  0
 10 33  1  0  0  0  0
 11 14  1  0  0  0  0
 11 15  1  0  0  0  0
 11 17  1  0  0  0  0
 11 34  1  0  0  0  0
 12 18  1  0  0  0  0
 12 35  1  0  0  0  0
 12 36  1  0  0  0  0
 13 37  1  0  0  0  0
 13 38  1  0  0  0  0
 14 15  1  0  0  0  0
 14 39  1  0  0  0  0
 14 40  1  0  0  0  0
 15 41  1  0  0  0  0
 15 42  1  0  0  0  0
 16 19  1  0  0  0  0
 16 43  1  0  0  0  0
 16 44  1  0  0  0  0
 18 45  1  0  0  0  0
 18 46  1  0  0  0  0
 20 21  1  0  0  0  0
 20 47  1  0  0  0  0
 20 48  1  0  0  0  0
 21 22  2  0  0  0  0
 21 23  1  0  0  0  0
 22 24  1  0  0  0  0
 22 49  1  0  0  0  0
 23 25  2  0  0  0  0
 23 50  1  0  0  0  0
 24 26  2  0  0  0  0
 25 26  1  0  0  0  0
 25 51  1  0  0  0  0
 27 52  1  0  0  0  0
 27 53  1  0  0  0  0
M  END
> <PUBCHEM_COMPOUND_CID>
26742833

> <PUBCHEM_CONFORMER_RMSD>
0.8

> <PUBCHEM_CONFORMER_DIVERSEORDER>
1
156
137
74
75
166
155
27
50
97
81
94
95
51
165
46
18
178
26
145
169
130
38
149
106
82
172
83
150
124
35
168
109
108
15
3
160
7
11
58
175
6
135
144
138
40
170
21
32
143
71
37
157
63
5
57
123
142
104
99
53
29
19
2
140
13
91
128
42
119
85
118
76
174
22
73
151
79
86
64
60
70
25
98
61
84
125
122
43
129
112
89
134
162
105
67
153
92
78
55
33
148
173
17
161
139
121
126
72
164
101
131
152
107
34
177
88
127
117
62
154
110
176
14
96
54
136
30
16
77
159
116
132
23
141
36
100
87
20
111
68
113
49
39
114
59
41
48
120
12
47
93
10
146
80
147
8
103
167
24
31
4
171
69
102
115
66
90
65
133
44
56
52
9
28
158
163
45

> <PUBCHEM_MMFF94_PARTIAL_CHARGES>
31
1 -0.57
11 -0.1
13 0.3
14 -0.2
15 -0.2
16 0.06
17 0.63
18 0.3
19 0.57
2 -0.57
20 0.44
21 -0.14
22 -0.15
23 -0.15
24 0.08
25 -0.15
26 0.08
27 0.56
3 -0.36
34 0.1
39 0.1
4 -0.36
40 0.1
41 0.1
42 0.1
49 0.15
5 -0.66
50 0.15
51 0.15
6 -0.66
9 0.3

> <PUBCHEM_EFFECTIVE_ROTOR_COUNT>
6.8

> <PUBCHEM_PHARMACOPHORE_FEATURES>
8
1 1 acceptor
1 2 acceptor
1 3 acceptor
1 4 acceptor
5 3 4 24 26 27 rings
6 21 22 23 24 25 26 rings
6 5 7 8 9 10 13 rings
7 6 7 8 12 16 18 19 rings

> <PUBCHEM_HEAVY_ATOM_COUNT>
27

> <PUBCHEM_ATOM_DEF_STEREO_COUNT>
2

> <PUBCHEM_ATOM_UDEF_STEREO_COUNT>
0

> <PUBCHEM_BOND_DEF_STEREO_COUNT>
0

> <PUBCHEM_BOND_UDEF_STEREO_COUNT>
0

> <PUBCHEM_ISOTOPIC_ATOM_COUNT>
0

> <PUBCHEM_COMPONENT_COUNT>
1

> <PUBCHEM_CACTVS_TAUTO_COUNT>
2

> <PUBCHEM_CONFORMER_ID>
0198103100000001

> <PUBCHEM_MMFF94_ENERGY>
64.4724

> <PUBCHEM_FEATURE_SELFOVERLAP>
40.78

> <PUBCHEM_SHAPE_FINGERPRINT>
10498660 4 18408886204880728783
10675989 125 17472676058518753180
11578080 2 12572729728507366971
12156800 1 15581401958430623975
12788726 201 18339084769911453161
128993 33 17761230820516515300
13122387 1 18410008857908417940
133893 2 17326353506312571859
13402501 40 18194956568432713776
14081887 123 18410854330989853300
14123250 116 17980482252363147008
14142880 1 18411710884992148987
151778 21 17041783992901811760
15664445 248 17480528916935511133
17492 54 18336248116317273239
17818456 19 18192691385875721402
19930381 70 17621596546187948641
20465049 17 16688252508484288276
20715895 44 17464511136973389789
20764821 26 18265605675180074248
21344244 246 16901857407098823199
22749437 52 17828194398726482152
23419403 2 17830430023973120679
238 59 17397827882377622005
3493558 16 17620717654562524954
35225 105 17693404151470205669
469060 322 17532399558790682937
6287921 2 17699574950117060042

> <PUBCHEM_SHAPE_MULTIPOLES>
522.21
6.17
5.24
1.82
6.24
3.41
-0.12
0
-1.07
-2.08
0.78
-0.2
0.14
0.29

> <PUBCHEM_SHAPE_SELFOVERLAP>
1126.272

> <PUBCHEM_SHAPE_VOLUME>
285

> <PUBCHEM_COORDINATE_TYPE>
2
5
10

$$$$
