75536824
  -OEChem-12032416313D

 51 53  0     1  0  0  0  0  0999 V2000
    7.9840    2.1747   -0.1635 F   0  0  0  0  0  0  0  0  0  0  0  0
   -0.0628    0.2208   -0.9969 O   0  0  0  0  0  0  0  0  0  0  0  0
   -1.3425   -2.4486    1.0383 O   0  0  0  0  0  0  0  0  0  0  0  0
    3.2027   -1.6054    1.4542 O   0  0  0  0  0  0  0  0  0  0  0  0
   -3.5029   -0.9077   -0.6453 N   0  0  0  0  0  0  0  0  0  0  0  0
   -7.1588    0.9333    0.4987 N   0  0  0  0  0  0  0  0  0  0  0  0
    2.5145   -1.0162   -0.6817 N   0  0  0  0  0  0  0  0  0  0  0  0
   -2.1754   -0.5164   -0.1999 C   0  0  1  0  0  0  0  0  0  0  0  0
   -4.4760    0.1455   -0.3647 C   0  0  0  0  0  0  0  0  0  0  0  0
   -1.1912   -1.6695   -0.1324 C   0  0  1  0  0  0  0  0  0  0  0  0
    0.1362   -0.9236   -0.1503 C   0  0  1  0  0  0  0  0  0  0  0  0
   -4.9123    0.0868    1.1015 C   0  0  0  0  0  0  0  0  0  0  0  0
   -5.6983    0.0200   -1.2788 C   0  0  0  0  0  0  0  0  0  0  0  0
   -1.4765    0.4189   -1.1730 C   0  0  0  0  0  0  0  0  0  0  0  0
   -6.0055    1.1189    1.3903 C   0  0  0  0  0  0  0  0  0  0  0  0
   -6.7659    1.0542   -0.9122 C   0  0  0  0  0  0  0  0  0  0  0  0
    1.2877   -1.7597   -0.6796 C   0  0  0  0  0  0  0  0  0  0  0  0
   -8.2141    1.8936    0.8201 C   0  0  0  0  0  0  0  0  0  0  0  0
    3.3869   -0.9988    0.4023 C   0  0  0  0  0  0  0  0  0  0  0  0
    4.6030   -0.1586    0.2525 C   0  0  0  0  0  0  0  0  0  0  0  0
    5.2224    0.3790    1.3809 C   0  0  0  0  0  0  0  0  0  0  0  0
    5.1258    0.0922   -1.0161 C   0  0  0  0  0  0  0  0  0  0  0  0
    6.3643    1.1675    1.2405 C   0  0  0  0  0  0  0  0  0  0  0  0
    6.2677    0.8808   -1.1565 C   0  0  0  0  0  0  0  0  0  0  0  0
    6.8870    1.4184   -0.0282 C   0  0  0  0  0  0  0  0  0  0  0  0
   -2.2069   -0.0567    0.7957 H   0  0  0  0  0  0  0  0  0  0  0  0
   -4.0379    1.1327   -0.5638 H   0  0  0  0  0  0  0  0  0  0  0  0
   -1.2889   -2.3237   -1.0077 H   0  0  0  0  0  0  0  0  0  0  0  0
    0.3848   -0.5493    0.8516 H   0  0  0  0  0  0  0  0  0  0  0  0
   -3.7866   -1.7737   -0.1884 H   0  0  0  0  0  0  0  0  0  0  0  0
   -4.0742    0.2778    1.7802 H   0  0  0  0  0  0  0  0  0  0  0  0
   -5.2941   -0.9142    1.3457 H   0  0  0  0  0  0  0  0  0  0  0  0
   -6.1288   -0.9876   -1.2003 H   0  0  0  0  0  0  0  0  0  0  0  0
   -5.4020    0.1580   -2.3260 H   0  0  0  0  0  0  0  0  0  0  0  0
   -1.7166    1.4718   -0.9979 H   0  0  0  0  0  0  0  0  0  0  0  0
   -1.7077    0.1812   -2.2179 H   0  0  0  0  0  0  0  0  0  0  0  0
   -6.3215    0.9977    2.4337 H   0  0  0  0  0  0  0  0  0  0  0  0
   -5.5921    2.1313    1.2906 H   0  0  0  0  0  0  0  0  0  0  0  0
   -6.3914    2.0634   -1.1292 H   0  0  0  0  0  0  0  0  0  0  0  0
   -7.6381    0.8857   -1.5556 H   0  0  0  0  0  0  0  0  0  0  0  0
    1.1047   -2.0524   -1.7193 H   0  0  0  0  0  0  0  0  0  0  0  0
    1.4135   -2.6676   -0.0801 H   0  0  0  0  0  0  0  0  0  0  0  0
   -1.2575   -1.8624    1.8091 H   0  0  0  0  0  0  0  0  0  0  0  0
   -9.0942    1.7236    0.1900 H   0  0  0  0  0  0  0  0  0  0  0  0
   -7.8865    2.9305    0.6828 H   0  0  0  0  0  0  0  0  0  0  0  0
   -8.5436    1.7704    1.8578 H   0  0  0  0  0  0  0  0  0  0  0  0
    2.6926   -0.4358   -1.4943 H   0  0  0  0  0  0  0  0  0  0  0  0
    4.8280    0.1988    2.3774 H   0  0  0  0  0  0  0  0  0  0  0  0
    4.6930   -0.3320   -1.9172 H   0  0  0  0  0  0  0  0  0  0  0  0
    6.8464    1.5871    2.1185 H   0  0  0  0  0  0  0  0  0  0  0  0
    6.6794    1.0709   -2.1433 H   0  0  0  0  0  0  0  0  0  0  0  0
  1 25  1  0  0  0  0
  2 11  1  0  0  0  0
  2 14  1  0  0  0  0
  3 10  1  0  0  0  0
  3 43  1  0  0  0  0
  4 19  2  0  0  0  0
  5  8  1  0  0  0  0
  5  9  1  0  0  0  0
  5 30  1  0  0  0  0
  6 15  1  0  0  0  0
  6 16  1  0  0  0  0
  6 18  1  0  0  0  0
  7 17  1  0  0  0  0
  7 19  1  0  0  0  0
  7 47  1  0  0  0  0
  8 10  1  0  0  0  0
  8 14  1  0  0  0  0
  8 26  1  0  0  0  0
  9 12  1  0  0  0  0
  9 13  1  0  0  0  0
  9 27  1  0  0  0  0
 10 11  1  0  0  0  0
 10 28  1  0  0  0  0
 11 17  1  0  0  0  0
 11 29  1  0  0  0  0
 12 15  1  0  0  0  0
 12 31  1  0  0  0  0
 12 32  1  0  0  0  0
 13 16  1  0  0  0  0
 13 33  1  0  0  0  0
 13 34  1  0  0  0  0
 14 35  1  0  0  0  0
 14 36  1  0  0  0  0
 15 37  1  0  0  0  0
 15 38  1  0  0  0  0
 16 39  1  0  0  0  0
 16 40  1  0  0  0  0
 17 41  1  0  0  0  0
 17 42  1  0  0  0  0
 18 44  1  0  0  0  0
 18 45  1  0  0  0  0
 18 46  1  0  0  0  0
 19 20  1  0  0  0  0
 20 21  2  0  0  0  0
 20 22  1  0  0  0  0
 21 23  1  0  0  0  0
 21 48  1  0  0  0  0
 22 24  2  0  0  0  0
 22 49  1  0  0  0  0
 23 25  2  0  0  0  0
 23 50  1  0  0  0  0
 24 25  1  0  0  0  0
 24 51  1  0  0  0  0
M  END
> <PUBCHEM_COMPOUND_CID>
75536824

> <PUBCHEM_CONFORMER_RMSD>
0.8

> <PUBCHEM_CONFORMER_DIVERSEORDER>
1
16
140
143
100
154
183
94
14
76
167
92
116
185
177
56
36
151
111
96
31
88
52
66
135
73
62
187
86
112
162
71
192
193
184
128
87
159
120
65
82
57
104
181
189
186
30
180
196
125
17
91
63
99
39
28
156
81
117
118
105
48
175
188
163
5
46
194
141
10
23
115
51
132
42
166
160
106
168
149
53
195
12
171
67
155
129
90
134
164
147
41
107
74
179
142
150
93
70
89
137
127
45
174
69
190
95
182
77
80
124
64
126
68
58
131
172
75
139
40
22
38
144
146
173
103
148
97
108
43
59
33
109
145
11
152
133
121
49
55
50
123
161
136
178
170
24
165
158
84
7
110
113
29
197
102
47
54
98
138
6
119
37
176
122
78
191
153
169
4
27
72
18
21
157
85
19
35
13
2
44
8
101
114
15
34
3
25
83
32
61
26
9
20
60
79
130

> <PUBCHEM_MMFF94_PARTIAL_CHARGES>
30
1 -0.19
10 0.28
11 0.28
14 0.28
15 0.27
16 0.27
17 0.3
18 0.27
19 0.54
2 -0.56
20 0.09
21 -0.15
22 -0.15
23 -0.15
24 -0.15
25 0.19
3 -0.68
30 0.36
4 -0.57
43 0.4
47 0.37
48 0.15
49 0.15
5 -0.9
50 0.15
51 0.15
6 -0.81
7 -0.73
8 0.27
9 0.27

> <PUBCHEM_EFFECTIVE_ROTOR_COUNT>
8.2

> <PUBCHEM_PHARMACOPHORE_FEATURES>
11
1 2 acceptor
1 3 acceptor
1 3 donor
1 4 acceptor
1 5 cation
1 5 donor
1 6 cation
1 7 donor
5 2 8 10 11 14 rings
6 20 21 22 23 24 25 rings
6 6 9 12 13 15 16 rings

> <PUBCHEM_HEAVY_ATOM_COUNT>
25

> <PUBCHEM_ATOM_DEF_STEREO_COUNT>
3

> <PUBCHEM_ATOM_UDEF_STEREO_COUNT>
0

> <PUBCHEM_BOND_DEF_STEREO_COUNT>
0

> <PUBCHEM_BOND_UDEF_STEREO_COUNT>
0

> <PUBCHEM_ISOTOPIC_ATOM_COUNT>
0

> <PUBCHEM_COMPONENT_COUNT>
1

> <PUBCHEM_CACTVS_TAUTO_COUNT>
2

> <PUBCHEM_CONFORMER_ID>
048099B800000001

> <PUBCHEM_MMFF94_ENERGY>
44.1152

> <PUBCHEM_FEATURE_SELFOVERLAP>
55.821

> <PUBCHEM_SHAPE_FINGERPRINT>
10 15 17385162844144387575
106641 1 18113904879691536731
10670039 82 14548746079626822787
10753850 27 7925912577804048854
10906281 52 18409456894249316039
11315181 36 18413666921300792927
11991303 11 13973669655539699117
12166972 35 13614234918914704171
12596602 18 15502372322675411340
12760667 363 9223235156410849335
13533116 47 18338795594533322842
13668630 136 9799687091526195909
13673619 4 8646772192099431190
13685833 64 11314027972245574134
13782708 43 8430598310436693590
13862211 1 8935000373612012255
14251757 52 18342739602465113104
14251764 18 18259704519296380007
14347332 77 10519718773428348962
14849402 71 18410576214968238105
15048467 5 18344145886606067567
15183329 4 14476967778558506202
15188451 53 10953454137796636070
15690457 1 8142086446877205700
15706992 2 18271257075021334153
1577012 14 18131346389471812623
16994733 274 18342736283040839193
1768 124 12179836196152040088
17980427 23 18041840735148579222
190975 80 16153432778570327529
2026 5 8286204937920653849
20281389 69 18412260597634525193
21033648 29 18129931399800985488
21130935 74 17968380027536275475
21150785 3 15985383399964313997
21267235 1 11167940286253469407
21344244 246 10879727463475711556
21424621 283 18341899541833417171
21637258 2 11241973685316893087
221357 26 15410897362397566666
2215653 11 12967129423882702974
22224240 67 18113338596738303947
23081809 10 18059563668819430615
23576562 1 15481802702868312449
24771293 8 18335419088544204325
3004659 81 12679460894057347462
3383291 50 7853569110923143653
406291 66 9510922353162001780
4073 2 18342741815012119671
4107672 100 16200143327248967613
4340502 62 16370442242025806594
445580 37 16702306733052257713
5104073 3 17459196350655769105
5718773 13 8718558207445546512
5758199 1 18410856547488325067
59682541 35 18040160634616224881
59682541 52 14764351527036772452
59755656 215 11959734858443410884
6438161 24 9583516499655816164

> <PUBCHEM_SHAPE_MULTIPOLES>
474.66
24.53
1.88
1.38
4.51
0.16
0.14
-19.55
1.56
-0.5
0.39
-0.03
-0.07
-0.83

> <PUBCHEM_SHAPE_SELFOVERLAP>
989.286

> <PUBCHEM_SHAPE_VOLUME>
271.2

> <PUBCHEM_COORDINATE_TYPE>
2
5
10

$$$$
