45783446
  -OEChem-12032416263D

 56 59  0     1  0  0  0  0  0999 V2000
   -2.6871    2.3389   -0.2502 O   0  0  0  0  0  0  0  0  0  0  0  0
    0.9654   -2.4633   -1.1705 O   0  0  0  0  0  0  0  0  0  0  0  0
    3.9053    0.2409    0.3083 O   0  0  0  0  0  0  0  0  0  0  0  0
    5.5760   -1.6582    1.5120 O   0  0  0  0  0  0  0  0  0  0  0  0
   -3.3629   -0.9096    1.3294 N   0  0  1  0  0  0  0  0  0  0  0  0
   -1.1416    0.9155    0.5258 N   0  0  0  0  0  0  0  0  0  0  0  0
   -1.4562    2.7971   -0.7370 N   0  0  0  0  0  0  0  0  0  0  0  0
    1.2269    3.0093   -1.2512 N   0  0  0  0  0  0  0  0  0  0  0  0
   -3.5943    0.5345    1.1260 C   0  0  1  0  0  0  0  0  0  0  0  0
   -3.9132    1.0811    2.5298 C   0  0  0  0  0  0  0  0  0  0  0  0
   -3.8981   -0.1362    3.4435 C   0  0  0  0  0  0  0  0  0  0  0  0
   -4.1526   -1.2940    2.4995 C   0  0  0  0  0  0  0  0  0  0  0  0
   -3.6897   -1.7141    0.1591 C   0  0  0  0  0  0  0  0  0  0  0  0
   -2.4120    1.2287    0.4831 C   0  0  0  0  0  0  0  0  0  0  0  0
   -2.5944   -1.6730   -0.8731 C   0  0  0  0  0  0  0  0  0  0  0  0
   -1.3064   -2.0929   -0.5402 C   0  0  0  0  0  0  0  0  0  0  0  0
   -2.8671   -1.2143   -2.1619 C   0  0  0  0  0  0  0  0  0  0  0  0
   -0.5949    1.9062   -0.2369 C   0  0  0  0  0  0  0  0  0  0  0  0
   -0.2913   -2.0544   -1.4961 C   0  0  0  0  0  0  0  0  0  0  0  0
   -1.8519   -1.1755   -3.1177 C   0  0  0  0  0  0  0  0  0  0  0  0
   -0.5640   -1.5957   -2.7850 C   0  0  0  0  0  0  0  0  0  0  0  0
    0.8172    1.9781   -0.4789 C   0  0  0  0  0  0  0  0  0  0  0  0
    1.6688    1.0295    0.0642 C   0  0  0  0  0  0  0  0  0  0  0  0
    3.0284    1.1469   -0.2023 C   0  0  0  0  0  0  0  0  0  0  0  0
    2.5554    3.0907   -1.4887 C   0  0  0  0  0  0  0  0  0  0  0  0
    1.9558   -2.3964   -2.1955 C   0  0  0  0  0  0  0  0  0  0  0  0
    3.4884    2.1943   -0.9928 C   0  0  0  0  0  0  0  0  0  0  0  0
    3.5621   -0.3646    1.5543 C   0  0  0  0  0  0  0  0  0  0  0  0
    4.8347   -0.7298    2.2941 C   0  0  0  0  0  0  0  0  0  0  0  0
    6.7936   -2.0199    2.1488 C   0  0  0  0  0  0  0  0  0  0  0  0
   -4.4792    0.7019    0.4958 H   0  0  0  0  0  0  0  0  0  0  0  0
   -3.2053    1.8397    2.8808 H   0  0  0  0  0  0  0  0  0  0  0  0
   -4.9146    1.5288    2.5322 H   0  0  0  0  0  0  0  0  0  0  0  0
   -4.6490   -0.0679    4.2362 H   0  0  0  0  0  0  0  0  0  0  0  0
   -2.9124   -0.2362    3.9148 H   0  0  0  0  0  0  0  0  0  0  0  0
   -5.2221   -1.3646    2.2637 H   0  0  0  0  0  0  0  0  0  0  0  0
   -3.8186   -2.2436    2.9288 H   0  0  0  0  0  0  0  0  0  0  0  0
   -4.6596   -1.4315   -0.2708 H   0  0  0  0  0  0  0  0  0  0  0  0
   -3.7931   -2.7693    0.4492 H   0  0  0  0  0  0  0  0  0  0  0  0
   -1.0851   -2.4560    0.4605 H   0  0  0  0  0  0  0  0  0  0  0  0
   -3.8650   -0.8819   -2.4346 H   0  0  0  0  0  0  0  0  0  0  0  0
   -2.0650   -0.8168   -4.1206 H   0  0  0  0  0  0  0  0  0  0  0  0
    0.1769   -1.5384   -3.5750 H   0  0  0  0  0  0  0  0  0  0  0  0
    1.2744    0.2088    0.6537 H   0  0  0  0  0  0  0  0  0  0  0  0
    2.8627    3.9252   -2.1103 H   0  0  0  0  0  0  0  0  0  0  0  0
    4.5430    2.3104   -1.2169 H   0  0  0  0  0  0  0  0  0  0  0  0
    1.7149   -3.0614   -3.0317 H   0  0  0  0  0  0  0  0  0  0  0  0
    2.1287   -1.3651   -2.5214 H   0  0  0  0  0  0  0  0  0  0  0  0
    2.8948   -2.7548   -1.7608 H   0  0  0  0  0  0  0  0  0  0  0  0
    2.9782   -1.2691    1.3482 H   0  0  0  0  0  0  0  0  0  0  0  0
    2.9880    0.3155    2.1957 H   0  0  0  0  0  0  0  0  0  0  0  0
    5.4431    0.1687    2.4504 H   0  0  0  0  0  0  0  0  0  0  0  0
    4.5889   -1.1757    3.2641 H   0  0  0  0  0  0  0  0  0  0  0  0
    7.4313   -1.1412    2.2851 H   0  0  0  0  0  0  0  0  0  0  0  0
    6.5953   -2.4956    3.1141 H   0  0  0  0  0  0  0  0  0  0  0  0
    7.3176   -2.7348    1.5088 H   0  0  0  0  0  0  0  0  0  0  0  0
  1  7  1  0  0  0  0
  1 14  1  0  0  0  0
  2 19  1  0  0  0  0
  2 26  1  0  0  0  0
  3 24  1  0  0  0  0
  3 28  1  0  0  0  0
  4 29  1  0  0  0  0
  4 30  1  0  0  0  0
  5  9  1  0  0  0  0
  5 12  1  0  0  0  0
  5 13  1  0  0  0  0
  6 14  2  0  0  0  0
  6 18  1  0  0  0  0
  7 18  2  0  0  0  0
  8 22  2  0  0  0  0
  8 25  1  0  0  0  0
  9 10  1  0  0  0  0
  9 14  1  0  0  0  0
  9 31  1  0  0  0  0
 10 11  1  0  0  0  0
 10 32  1  0  0  0  0
 10 33  1  0  0  0  0
 11 12  1  0  0  0  0
 11 34  1  0  0  0  0
 11 35  1  0  0  0  0
 12 36  1  0  0  0  0
 12 37  1  0  0  0  0
 13 15  1  0  0  0  0
 13 38  1  0  0  0  0
 13 39  1  0  0  0  0
 15 16  2  0  0  0  0
 15 17  1  0  0  0  0
 16 19  1  0  0  0  0
 16 40  1  0  0  0  0
 17 20  2  0  0  0  0
 17 41  1  0  0  0  0
 18 22  1  0  0  0  0
 19 21  2  0  0  0  0
 20 21  1  0  0  0  0
 20 42  1  0  0  0  0
 21 43  1  0  0  0  0
 22 23  1  0  0  0  0
 23 24  2  0  0  0  0
 23 44  1  0  0  0  0
 24 27  1  0  0  0  0
 25 27  2  0  0  0  0
 25 45  1  0  0  0  0
 26 47  1  0  0  0  0
 26 48  1  0  0  0  0
 26 49  1  0  0  0  0
 27 46  1  0  0  0  0
 28 29  1  0  0  0  0
 28 50  1  0  0  0  0
 28 51  1  0  0  0  0
 29 52  1  0  0  0  0
 29 53  1  0  0  0  0
 30 54  1  0  0  0  0
 30 55  1  0  0  0  0
 30 56  1  0  0  0  0
M  END
> <PUBCHEM_COMPOUND_CID>
45783446

> <PUBCHEM_CONFORMER_RMSD>
1

> <PUBCHEM_CONFORMER_DIVERSEORDER>
1
100
127
136
81
155
145
30
43
118
158
116
38
123
49
109
105
13
156
103
159
37
84
125
151
157
153
77
132
124
137
46
48
96
20
54
58
133
113
150
89
104
146
32
108
112
117
2
35
98
97
16
4
71
80
34
3
45
130
102
73
129
36
120
53
60
9
50
138
82
39
51
101
21
76
10
139
64
106
91
94
47
27
70
42
28
107
63
154
41
56
17
55
31
122
119
114
69
66
79
65
149
152
126
78
67
33
110
115
8
99
25
74
72
121
44
11
40
141
135
88
59
95
5
75
61
142
87
7
68
52
6
92
12
143
148
23
131
19
62
134
111
85
147
18
14
128
83
93
26
24
15
22
144
90
57
140
29
86

> <PUBCHEM_MMFF94_PARTIAL_CHARGES>
35
1 -0.02
12 0.27
13 0.41
14 0.3
15 -0.14
16 -0.15
17 -0.15
18 0.46
19 0.08
2 -0.36
20 -0.15
21 -0.15
22 0.36
23 -0.15
24 0.08
25 0.16
26 0.28
27 -0.15
28 0.28
29 0.28
3 -0.36
30 0.28
4 -0.56
40 0.15
41 0.15
42 0.15
43 0.15
44 0.15
45 0.15
46 0.15
5 -0.81
6 -0.57
7 -0.41
8 -0.62
9 0.45

> <PUBCHEM_EFFECTIVE_ROTOR_COUNT>
10

> <PUBCHEM_PHARMACOPHORE_FEATURES>
10
1 2 acceptor
1 3 acceptor
1 4 acceptor
1 5 cation
1 8 acceptor
3 6 7 18 cation
5 1 6 7 14 18 rings
5 5 9 10 11 12 rings
6 15 16 17 19 20 21 rings
6 8 22 23 24 25 27 rings

> <PUBCHEM_HEAVY_ATOM_COUNT>
30

> <PUBCHEM_ATOM_DEF_STEREO_COUNT>
1

> <PUBCHEM_ATOM_UDEF_STEREO_COUNT>
0

> <PUBCHEM_BOND_DEF_STEREO_COUNT>
0

> <PUBCHEM_BOND_UDEF_STEREO_COUNT>
0

> <PUBCHEM_ISOTOPIC_ATOM_COUNT>
0

> <PUBCHEM_COMPONENT_COUNT>
1

> <PUBCHEM_CACTVS_TAUTO_COUNT>
1

> <PUBCHEM_CONFORMER_ID>
02BA999600000001

> <PUBCHEM_MMFF94_ENERGY>
78.3776

> <PUBCHEM_FEATURE_SELFOVERLAP>
50.752

> <PUBCHEM_SHAPE_FINGERPRINT>
11135926 11 17968939842231966452
11578080 2 16199044983862974580
11607047 141 14564824286280456345
12422481 6 18200599090460736074
12633257 1 18261965127460722939
12655387 17 17751383737199077025
12788726 201 16910613836519363525
15219462 58 17024903517192644836
19319366 153 17610920254181618092
20554085 129 17131285558363550409
20691752 17 18122375546978069711
20775438 99 11392028688926175393
21796203 349 18265920050022991216
3380486 77 17840845675810278061
3411729 13 17554376572017075705
484985 159 18041821936013439923
513202 73 18046897192247503322
5265222 85 16912885337311860108
581034 39 17775280603988938038
7064713 232 17846225444370831274
9862522 239 18130801057437491457

> <PUBCHEM_SHAPE_MULTIPOLES>
573.98
10.26
3.6
3.37
12.82
0.59
-1.64
1.44
-11.65
0.03
2.59
0.23
0.24
-3.51

> <PUBCHEM_SHAPE_SELFOVERLAP>
1227.816

> <PUBCHEM_SHAPE_VOLUME>
319.6

> <PUBCHEM_COORDINATE_TYPE>
2
5
10

$$$$
