7127938
  -OEChem-12032416123D

 64 66  0     1  0  0  0  0  0999 V2000
   -2.5157    4.6541    2.0061 S   0  0  0  0  0  0  0  0  0  0  0  0
   -4.5616   -4.8706    0.6805 S   0  0  0  0  0  0  0  0  0  0  0  0
   -1.8953    0.5725    1.0432 O   0  0  0  0  0  0  0  0  0  0  0  0
   -4.2837    2.4178    0.2598 O   0  0  0  0  0  0  0  0  0  0  0  0
    2.6226    1.2430   -2.0599 O   0  0  0  0  0  0  0  0  0  0  0  0
    0.5868   -2.1713   -0.4276 O   0  0  0  0  0  0  0  0  0  0  0  0
    7.8619   -1.4717    0.6862 O   0  0  0  0  0  0  0  0  0  0  0  0
   -2.1639    2.5694   -0.6571 N   0  0  0  0  0  0  0  0  0  0  0  0
    0.8880    1.7446   -0.6155 N   0  0  0  0  0  0  0  0  0  0  0  0
   -1.9232   -1.0663   -0.6100 N   0  0  0  0  0  0  0  0  0  0  0  0
    2.7945    0.7839    0.2360 N   0  0  0  0  0  0  0  0  0  0  0  0
    0.0763   -2.8135    1.7180 N   0  0  0  0  0  0  0  0  0  0  0  0
   -0.0038    2.2935   -1.6061 C   0  0  1  0  0  0  0  0  0  0  0  0
   -2.1438    1.2345   -1.2369 C   0  0  1  0  0  0  0  0  0  0  0  0
   -0.9426    1.2288   -2.1798 C   0  0  0  0  0  0  0  0  0  0  0  0
   -0.9575    3.3206   -1.0039 C   0  0  0  0  0  0  0  0  0  0  0  0
   -1.9819    0.2323   -0.1338 C   0  0  0  0  0  0  0  0  0  0  0  0
   -3.2828    3.0809   -0.0174 C   0  0  0  0  0  0  0  0  0  0  0  0
   -1.7472   -2.2157    0.2480 C   0  0  1  0  0  0  0  0  0  0  0  0
   -3.2111    4.5413    0.3512 C   0  0  0  0  0  0  0  0  0  0  0  0
    2.1624    1.2492   -0.9206 C   0  0  0  0  0  0  0  0  0  0  0  0
   -2.3728   -3.4848   -0.3436 C   0  0  0  0  0  0  0  0  0  0  0  0
   -0.2495   -2.4031    0.4422 C   0  0  0  0  0  0  0  0  0  0  0  0
   -3.8685   -3.5364   -0.1392 C   0  0  0  0  0  0  0  0  0  0  0  0
    4.0830    0.2120    0.3506 C   0  0  0  0  0  0  0  0  0  0  0  0
   -2.5391    6.4538    2.1971 C   0  0  0  0  0  0  0  0  0  0  0  0
   -4.8197   -2.6217   -0.5346 C   0  0  0  0  0  0  0  0  0  0  0  0
    4.5545   -0.2007    1.5969 C   0  0  0  0  0  0  0  0  0  0  0  0
    4.8817    0.0593   -0.7827 C   0  0  0  0  0  0  0  0  0  0  0  0
   -6.1348   -3.0213   -0.1593 C   0  0  0  0  0  0  0  0  0  0  0  0
   -6.1387   -4.2263    0.5084 C   0  0  0  0  0  0  0  0  0  0  0  0
    5.8247   -0.7659    1.7098 C   0  0  0  0  0  0  0  0  0  0  0  0
    6.1519   -0.5058   -0.6698 C   0  0  0  0  0  0  0  0  0  0  0  0
    6.6234   -0.9184    0.5764 C   0  0  0  0  0  0  0  0  0  0  0  0
    8.6255   -1.5980   -0.5126 C   0  0  0  0  0  0  0  0  0  0  0  0
    0.6063    2.7455   -2.3958 H   0  0  0  0  0  0  0  0  0  0  0  0
   -3.0866    1.0362   -1.7592 H   0  0  0  0  0  0  0  0  0  0  0  0
   -0.4539    0.2582   -2.3068 H   0  0  0  0  0  0  0  0  0  0  0  0
   -1.2785    1.5604   -3.1711 H   0  0  0  0  0  0  0  0  0  0  0  0
   -1.2421    4.0596   -1.7615 H   0  0  0  0  0  0  0  0  0  0  0  0
   -0.5488    3.8390   -0.1327 H   0  0  0  0  0  0  0  0  0  0  0  0
    0.5537    1.6552    0.3392 H   0  0  0  0  0  0  0  0  0  0  0  0
   -1.9746   -1.2279   -1.6117 H   0  0  0  0  0  0  0  0  0  0  0  0
   -2.2005   -1.9844    1.2208 H   0  0  0  0  0  0  0  0  0  0  0  0
   -4.2309    4.9408    0.3522 H   0  0  0  0  0  0  0  0  0  0  0  0
   -2.6322    5.1258   -0.3660 H   0  0  0  0  0  0  0  0  0  0  0  0
   -1.9054   -4.3682    0.1110 H   0  0  0  0  0  0  0  0  0  0  0  0
   -2.1638   -3.5525   -1.4196 H   0  0  0  0  0  0  0  0  0  0  0  0
    2.2717    0.8622    1.1046 H   0  0  0  0  0  0  0  0  0  0  0  0
   -1.9164    6.9250    1.4323 H   0  0  0  0  0  0  0  0  0  0  0  0
   -2.1409    6.7166    3.1807 H   0  0  0  0  0  0  0  0  0  0  0  0
   -3.5625    6.8306    2.1236 H   0  0  0  0  0  0  0  0  0  0  0  0
    1.0439   -2.9605    1.9854 H   0  0  0  0  0  0  0  0  0  0  0  0
   -0.6245   -2.9981    2.4286 H   0  0  0  0  0  0  0  0  0  0  0  0
   -4.5976   -1.7105   -1.0741 H   0  0  0  0  0  0  0  0  0  0  0  0
    3.9419   -0.0882    2.4877 H   0  0  0  0  0  0  0  0  0  0  0  0
    4.5859    0.3539   -1.7797 H   0  0  0  0  0  0  0  0  0  0  0  0
   -7.0325   -2.4548   -0.3700 H   0  0  0  0  0  0  0  0  0  0  0  0
   -6.9923   -4.7592    0.9028 H   0  0  0  0  0  0  0  0  0  0  0  0
    6.1865   -1.0861    2.6831 H   0  0  0  0  0  0  0  0  0  0  0  0
    6.7203   -0.5957   -1.5893 H   0  0  0  0  0  0  0  0  0  0  0  0
    9.5818   -2.0561   -0.2398 H   0  0  0  0  0  0  0  0  0  0  0  0
    8.8529   -0.6198   -0.9498 H   0  0  0  0  0  0  0  0  0  0  0  0
    8.1417   -2.2707   -1.2288 H   0  0  0  0  0  0  0  0  0  0  0  0
  1 20  1  0  0  0  0
  1 26  1  0  0  0  0
  2 24  1  0  0  0  0
  2 31  1  0  0  0  0
  3 17  2  0  0  0  0
  4 18  2  0  0  0  0
  5 21  2  0  0  0  0
  6 23  2  0  0  0  0
  7 34  1  0  0  0  0
  7 35  1  0  0  0  0
  8 14  1  0  0  0  0
  8 16  1  0  0  0  0
  8 18  1  0  0  0  0
  9 13  1  0  0  0  0
  9 21  1  0  0  0  0
  9 42  1  0  0  0  0
 10 17  1  0  0  0  0
 10 19  1  0  0  0  0
 10 43  1  0  0  0  0
 11 21  1  0  0  0  0
 11 25  1  0  0  0  0
 11 49  1  0  0  0  0
 12 23  1  0  0  0  0
 12 53  1  0  0  0  0
 12 54  1  0  0  0  0
 13 15  1  0  0  0  0
 13 16  1  0  0  0  0
 13 36  1  0  0  0  0
 14 15  1  0  0  0  0
 14 17  1  0  0  0  0
 14 37  1  0  0  0  0
 15 38  1  0  0  0  0
 15 39  1  0  0  0  0
 16 40  1  0  0  0  0
 16 41  1  0  0  0  0
 18 20  1  0  0  0  0
 19 22  1  0  0  0  0
 19 23  1  0  0  0  0
 19 44  1  0  0  0  0
 20 45  1  0  0  0  0
 20 46  1  0  0  0  0
 22 24  1  0  0  0  0
 22 47  1  0  0  0  0
 22 48  1  0  0  0  0
 24 27  2  0  0  0  0
 25 28  2  0  0  0  0
 25 29  1  0  0  0  0
 26 50  1  0  0  0  0
 26 51  1  0  0  0  0
 26 52  1  0  0  0  0
 27 30  1  0  0  0  0
 27 55  1  0  0  0  0
 28 32  1  0  0  0  0
 28 56  1  0  0  0  0
 29 33  2  0  0  0  0
 29 57  1  0  0  0  0
 30 31  2  0  0  0  0
 30 58  1  0  0  0  0
 31 59  1  0  0  0  0
 32 34  2  0  0  0  0
 32 60  1  0  0  0  0
 33 34  1  0  0  0  0
 33 61  1  0  0  0  0
 35 62  1  0  0  0  0
 35 63  1  0  0  0  0
 35 64  1  0  0  0  0
M  END
> <PUBCHEM_COMPOUND_CID>
7127938

> <PUBCHEM_CONFORMER_RMSD>
1.2

> <PUBCHEM_CONFORMER_DIVERSEORDER>
1
24
7
21
25
9
33
11
16
26
22
29
8
6
31
14
30
5
15
27
10
12
18
2
23
28
17
3
13
19
4
20
32

> <PUBCHEM_MMFF94_PARTIAL_CHARGES>
46
1 -0.46
10 -0.73
11 -0.55
12 -0.8
13 0.3
14 0.36
16 0.3
17 0.57
18 0.57
19 0.36
2 -0.08
20 0.29
21 0.69
22 0.18
23 0.57
24 -0.14
25 0.12
26 0.23
27 -0.15
28 -0.15
29 -0.15
3 -0.57
30 -0.15
31 -0.11
32 -0.15
33 -0.15
34 0.08
35 0.28
4 -0.57
42 0.37
43 0.37
49 0.37
5 -0.57
53 0.37
54 0.37
55 0.15
56 0.15
57 0.15
58 0.15
59 0.15
6 -0.57
60 0.15
61 0.15
7 -0.36
8 -0.66
9 -0.73

> <PUBCHEM_EFFECTIVE_ROTOR_COUNT>
15

> <PUBCHEM_PHARMACOPHORE_FEATURES>
13
1 10 donor
1 11 donor
1 12 donor
1 26 hydrophobe
1 3 acceptor
1 4 acceptor
1 5 acceptor
1 6 acceptor
1 7 acceptor
1 9 donor
5 2 24 27 30 31 rings
5 8 13 14 15 16 rings
6 25 28 29 32 33 34 rings

> <PUBCHEM_HEAVY_ATOM_COUNT>
35

> <PUBCHEM_ATOM_DEF_STEREO_COUNT>
3

> <PUBCHEM_ATOM_UDEF_STEREO_COUNT>
0

> <PUBCHEM_BOND_DEF_STEREO_COUNT>
0

> <PUBCHEM_BOND_UDEF_STEREO_COUNT>
0

> <PUBCHEM_ISOTOPIC_ATOM_COUNT>
0

> <PUBCHEM_COMPONENT_COUNT>
1

> <PUBCHEM_CACTVS_TAUTO_COUNT>
12

> <PUBCHEM_CONFORMER_ID>
006CC38200000001

> <PUBCHEM_MMFF94_ENERGY>
93.3918

> <PUBCHEM_FEATURE_SELFOVERLAP>
66.025

> <PUBCHEM_SHAPE_FINGERPRINT>
10622 236 18114461270312031766
11135609 149 17620732309238715567
11331351 85 18268992162224315839
12166972 35 17386281133380550350
12788726 201 18193011515167302997
13004483 165 18196090169199717351
13540713 5 18115604737063130548
14068700 675 18262798591760461159
14395042 24 18261105275909546091
14856354 85 18340485544232243292
14866123 147 18408605864218463231
14955137 171 18048596212384588987
15347590 135 17986402083957057385
15420108 30 18119808011096364137
16120349 21 18408606976488632751
16992752 21 18263936604081675524
21639891 77 18201999945557658377
22223350 30 18052556382204838038
22889206 1 17187561084044246849
22899556 56 18130508530892541960
244849 19 17488758770000625902
4144715 1 18272369725313329968
484985 159 18260819385057686807
6691757 9 18266740181980104604
79837 15 18268998583712015505
9896288 288 18271246010863631343

> <PUBCHEM_SHAPE_MULTIPOLES>
673.73
16.67
8.08
1.72
34.85
8.04
0.15
-19.43
2.93
-18.75
4.41
0.48
1.72
-1.51

> <PUBCHEM_SHAPE_SELFOVERLAP>
1384.853

> <PUBCHEM_SHAPE_VOLUME>
389.7

> <PUBCHEM_COORDINATE_TYPE>
2
5
10

$$$$
