75536852
  -OEChem-12032416303D

 46 48  0     1  0  0  0  0  0999 V2000
    3.9111   -0.1178   -2.5474 F   0  0  0  0  0  0  0  0  0  0  0  0
    5.5575   -0.4964   -1.1876 F   0  0  0  0  0  0  0  0  0  0  0  0
    3.7656   -1.7240   -1.0892 F   0  0  0  0  0  0  0  0  0  0  0  0
   -1.5469   -2.7501   -0.2647 O   0  0  0  0  0  0  0  0  0  0  0  0
   -2.1516    0.8195   -0.4286 O   0  0  0  0  0  0  0  0  0  0  0  0
    3.9716    1.7971   -0.3569 O   0  0  0  0  0  0  0  0  0  0  0  0
    2.8461   -1.8380    1.5174 O   0  0  0  0  0  0  0  0  0  0  0  0
    0.6761   -1.0400    1.1342 N   0  0  0  0  0  0  0  0  0  0  0  0
   -4.2330   -0.1935   -0.3070 N   0  0  0  0  0  0  0  0  0  0  0  0
   -1.5818   -0.3483    0.1642 C   0  0  2  0  0  0  0  0  0  0  0  0
   -0.1957    0.0497    0.6794 C   0  0  0  0  0  0  0  0  0  0  0  0
    0.0573   -2.3061    1.5305 C   0  0  0  0  0  0  0  0  0  0  0  0
   -1.5384   -1.4644   -0.8775 C   0  0  0  0  0  0  0  0  0  0  0  0
   -0.3057   -3.1436    0.3110 C   0  0  0  0  0  0  0  0  0  0  0  0
    2.0767   -0.9412    1.1738 C   0  0  0  0  0  0  0  0  0  0  0  0
    2.6982    0.3319    0.7764 C   0  0  0  0  0  0  0  0  0  0  0  0
    3.5900    0.4965   -0.2579 C   0  0  0  0  0  0  0  0  0  0  0  0
    2.5201    1.6136    1.3495 C   0  0  0  0  0  0  0  0  0  0  0  0
   -3.5102    0.9483   -0.3408 C   0  0  0  0  0  0  0  0  0  0  0  0
    3.3161    2.4702    0.6249 C   0  0  0  0  0  0  0  0  0  0  0  0
    4.1862   -0.4256   -1.2369 C   0  0  0  0  0  0  0  0  0  0  0  0
   -4.0630    2.2181   -0.2935 C   0  0  0  0  0  0  0  0  0  0  0  0
    3.5772    3.9140    0.7083 C   0  0  0  0  0  0  0  0  0  0  0  0
   -5.5748   -0.0526   -0.2214 C   0  0  0  0  0  0  0  0  0  0  0  0
   -5.4468    2.3223   -0.2056 C   0  0  0  0  0  0  0  0  0  0  0  0
   -6.2243    1.1701   -0.1683 C   0  0  0  0  0  0  0  0  0  0  0  0
   -6.3779   -1.3099   -0.1865 C   0  0  0  0  0  0  0  0  0  0  0  0
   -2.1767   -0.6635    1.0329 H   0  0  0  0  0  0  0  0  0  0  0  0
    0.3177    0.6160   -0.1062 H   0  0  0  0  0  0  0  0  0  0  0  0
   -0.3146    0.7414    1.5226 H   0  0  0  0  0  0  0  0  0  0  0  0
   -0.8111   -2.0928    2.1623 H   0  0  0  0  0  0  0  0  0  0  0  0
    0.7714   -2.8708    2.1398 H   0  0  0  0  0  0  0  0  0  0  0  0
   -0.6713   -1.3637   -1.5428 H   0  0  0  0  0  0  0  0  0  0  0  0
   -2.4116   -1.4304   -1.5359 H   0  0  0  0  0  0  0  0  0  0  0  0
    0.4817   -3.1330   -0.4519 H   0  0  0  0  0  0  0  0  0  0  0  0
   -0.4373   -4.1835    0.6284 H   0  0  0  0  0  0  0  0  0  0  0  0
    1.8947    1.8824    2.1892 H   0  0  0  0  0  0  0  0  0  0  0  0
   -3.4425    3.1069   -0.3236 H   0  0  0  0  0  0  0  0  0  0  0  0
    4.6403    4.1028    0.8870 H   0  0  0  0  0  0  0  0  0  0  0  0
    3.2909    4.4109   -0.2238 H   0  0  0  0  0  0  0  0  0  0  0  0
    3.0097    4.3716    1.5246 H   0  0  0  0  0  0  0  0  0  0  0  0
   -5.9183    3.2997   -0.1663 H   0  0  0  0  0  0  0  0  0  0  0  0
   -7.3047    1.2389   -0.1002 H   0  0  0  0  0  0  0  0  0  0  0  0
   -7.0622   -1.3484   -1.0400 H   0  0  0  0  0  0  0  0  0  0  0  0
   -5.7299   -2.1914   -0.2333 H   0  0  0  0  0  0  0  0  0  0  0  0
   -6.9575   -1.3660    0.7403 H   0  0  0  0  0  0  0  0  0  0  0  0
  1 21  1  0  0  0  0
  2 21  1  0  0  0  0
  3 21  1  0  0  0  0
  4 13  1  0  0  0  0
  4 14  1  0  0  0  0
  5 10  1  0  0  0  0
  5 19  1  0  0  0  0
  6 17  1  0  0  0  0
  6 20  1  0  0  0  0
  7 15  2  0  0  0  0
  8 11  1  0  0  0  0
  8 12  1  0  0  0  0
  8 15  1  0  0  0  0
  9 19  1  0  0  0  0
  9 24  2  0  0  0  0
 10 11  1  0  0  0  0
 10 13  1  0  0  0  0
 10 28  1  0  0  0  0
 11 29  1  0  0  0  0
 11 30  1  0  0  0  0
 12 14  1  0  0  0  0
 12 31  1  0  0  0  0
 12 32  1  0  0  0  0
 13 33  1  0  0  0  0
 13 34  1  0  0  0  0
 14 35  1  0  0  0  0
 14 36  1  0  0  0  0
 15 16  1  0  0  0  0
 16 17  2  0  0  0  0
 16 18  1  0  0  0  0
 17 21  1  0  0  0  0
 18 20  2  0  0  0  0
 18 37  1  0  0  0  0
 19 22  2  0  0  0  0
 20 23  1  0  0  0  0
 22 25  1  0  0  0  0
 22 38  1  0  0  0  0
 23 39  1  0  0  0  0
 23 40  1  0  0  0  0
 23 41  1  0  0  0  0
 24 26  1  0  0  0  0
 24 27  1  0  0  0  0
 25 26  2  0  0  0  0
 25 42  1  0  0  0  0
 26 43  1  0  0  0  0
 27 44  1  0  0  0  0
 27 45  1  0  0  0  0
 27 46  1  0  0  0  0
M  END
> <PUBCHEM_COMPOUND_CID>
75536852

> <PUBCHEM_CONFORMER_RMSD>
1

> <PUBCHEM_CONFORMER_DIVERSEORDER>
1
29
11
226
168
170
191
36
150
4
23
234
45
111
190
177
213
89
112
10
176
196
5
108
69
192
41
212
145
119
117
161
33
133
197
107
163
140
241
127
224
220
95
159
124
65
173
42
198
231
138
203
104
77
79
46
182
24
123
180
142
18
98
26
227
60
178
208
57
207
25
165
171
232
199
71
122
183
202
16
101
158
131
61
185
6
80
135
217
66
195
239
215
152
93
14
174
58
134
70
51
230
205
169
210
186
242
125
31
200
172
21
155
126
136
115
129
223
137
164
151
63
157
206
27
94
189
50
187
228
148
100
59
240
90
12
88
218
105
179
97
167
181
146
76
193
28
216
143
67
209
149
81
72
44
188
154
87
13
68
130
78
34
47
238
62
15
96
160
236
56
109
144
201
110
43
8
64
221
162
219
99
141
153
86
237
55
204
166
184
9
120
156
233
214
37
39
128
3
121
49
229
118
2
73
17
222
132
32
211
139
20
106
7
52
116
114
54
102
30
92
91
35
82
84
147
19
53
175
22
85
225
194
103
83
75
113
38
40
48
235
74

> <PUBCHEM_MMFF94_PARTIAL_CHARGES>
31
1 -0.34
10 0.28
11 0.3
12 0.3
13 0.28
14 0.28
15 0.72
16 -0.09
17 -0.04
18 -0.15
19 0.39
2 -0.34
20 -0.04
21 1.2
22 -0.15
23 0.18
24 0.17
25 -0.15
26 -0.15
27 0.14
3 -0.34
37 0.15
38 0.15
4 -0.56
42 0.15
43 0.15
5 -0.36
6 -0.28
7 -0.57
8 -0.66
9 -0.62

> <PUBCHEM_EFFECTIVE_ROTOR_COUNT>
6.4

> <PUBCHEM_PHARMACOPHORE_FEATURES>
8
1 4 acceptor
1 5 acceptor
1 6 acceptor
1 7 acceptor
1 9 acceptor
5 6 16 17 18 20 rings
6 9 19 22 24 25 26 rings
7 4 8 10 11 12 13 14 rings

> <PUBCHEM_HEAVY_ATOM_COUNT>
27

> <PUBCHEM_ATOM_DEF_STEREO_COUNT>
1

> <PUBCHEM_ATOM_UDEF_STEREO_COUNT>
0

> <PUBCHEM_BOND_DEF_STEREO_COUNT>
0

> <PUBCHEM_BOND_UDEF_STEREO_COUNT>
0

> <PUBCHEM_ISOTOPIC_ATOM_COUNT>
0

> <PUBCHEM_COMPONENT_COUNT>
1

> <PUBCHEM_CACTVS_TAUTO_COUNT>
1

> <PUBCHEM_CONFORMER_ID>
048099D400000001

> <PUBCHEM_MMFF94_ENERGY>
64.106

> <PUBCHEM_FEATURE_SELFOVERLAP>
40.647

> <PUBCHEM_SHAPE_FINGERPRINT>
10165383 225 17894356549298243206
10670039 82 18260268512325734357
11488393 25 17984999102392465447
11720765 8 17774440482747658400
11796584 16 12895064129105816957
12403259 118 18191844774748602697
14429115 67 9799699181336732540
14528608 73 18335697239643332649
1454969 45 18340479072180413695
14790565 3 18411133650182995401
14840074 17 16878233029960264655
14955137 171 18046047273494933514
15183329 4 17988086590644255349
17844677 252 18343024389399789337
17980427 23 17840546523439156434
1813 80 12535347904677621843
20465049 17 18410580543888661786
20567600 9 18268430127357404145
20775530 9 14403244321599830644
221357 26 18343584014463142896
22224240 67 10665526153391980476
22393880 68 18412259502681914089
23559900 14 17917709106482431100
2637199 183 18410011005275885179
2747138 104 18115599287403142355
340366 18 17632291281090349852
34797466 226 18201720687068720005
376196 1 17911225445871273288
4098825 35 18201439241808296164
46194498 28 18202006529753104884
504579 68 18336816512732142895
5104073 3 18187076227352893201
513532 50 18272645724079474994
53794403 172 18044380654021656268
57527585 21 17620180370985348564
5776283 40 18338812212167876108
633830 44 18271232868453648797
6442390 28 18261108586781153315
7399639 24 16979540055447494698
7808743 9 18192982944733964425

> <PUBCHEM_SHAPE_MULTIPOLES>
500.39
13.76
3.49
1.36
14.32
0.93
0.31
6.16
3.85
-1.32
-0.83
-2.08
-0.44
0.88

> <PUBCHEM_SHAPE_SELFOVERLAP>
1068.563

> <PUBCHEM_SHAPE_VOLUME>
278.1

> <PUBCHEM_COORDINATE_TYPE>
2
5
10

$$$$
