11879598
  -OEChem-12032416253D

 61 66  0     1  0  0  0  0  0999 V2000
   -2.0475   -2.7080    0.5662 O   0  0  0  0  0  0  0  0  0  0  0  0
   -2.3105   -0.5950   -1.7483 O   0  0  0  0  0  0  0  0  0  0  0  0
    2.1972    0.2996   -0.4804 O   0  0  0  0  0  0  0  0  0  0  0  0
   -6.8122   -1.8566   -0.8448 O   0  0  0  0  0  0  0  0  0  0  0  0
    9.4497   -1.0667    0.3263 O   0  0  0  0  0  0  0  0  0  0  0  0
    0.3303   -0.4589    0.7709 N   0  0  0  0  0  0  0  0  0  0  0  0
   -4.9652   -0.6321   -0.1611 N   0  0  0  0  0  0  0  0  0  0  0  0
   -0.0864   -0.4181    2.0398 N   0  0  0  0  0  0  0  0  0  0  0  0
    1.8788    0.6137    1.8300 N   0  0  0  0  0  0  0  0  0  0  0  0
    0.8675    0.2408    2.6864 N   0  0  0  0  0  0  0  0  0  0  0  0
    6.9965    0.1796   -0.2457 N   0  0  0  0  0  0  0  0  0  0  0  0
   -1.8652   -0.5280   -0.3813 C   0  0  1  0  0  0  0  0  0  0  0  0
   -2.7476   -1.4621    0.4236 C   0  0  1  0  0  0  0  0  0  0  0  0
   -0.4722   -1.1168   -0.2635 C   0  0  2  0  0  0  0  0  0  0  0  0
   -3.9777   -1.6476   -0.4361 C   0  0  2  0  0  0  0  0  0  0  0  0
   -0.7453   -2.5977   -0.0242 C   0  0  0  0  0  0  0  0  0  0  0  0
   -3.4170   -1.5034   -1.8387 C   0  0  0  0  0  0  0  0  0  0  0  0
    1.5234    0.1681    0.6470 C   0  0  0  0  0  0  0  0  0  0  0  0
   -6.3194   -0.8264   -0.3926 C   0  0  0  0  0  0  0  0  0  0  0  0
   -7.2041    0.3259   -0.0821 C   0  0  0  0  0  0  0  0  0  0  0  0
    3.4185    0.9558   -0.5494 C   0  0  0  0  0  0  0  0  0  0  0  0
   -8.3961    0.4530   -0.7645 C   0  0  0  0  0  0  0  0  0  0  0  0
   -6.8055    1.2317    0.8789 C   0  0  0  0  0  0  0  0  0  0  0  0
    5.8074    0.8922   -0.4318 C   0  0  0  0  0  0  0  0  0  0  0  0
    4.5804    0.2322   -0.3623 C   0  0  0  0  0  0  0  0  0  0  0  0
    7.1975   -0.5116    1.0352 C   0  0  0  0  0  0  0  0  0  0  0  0
    8.2243    0.6168   -0.9188 C   0  0  0  0  0  0  0  0  0  0  0  0
    3.4361    2.3139   -0.8030 C   0  0  0  0  0  0  0  0  0  0  0  0
    8.2455   -1.6064    0.8705 C   0  0  0  0  0  0  0  0  0  0  0  0
    9.2180   -0.5380   -0.9790 C   0  0  0  0  0  0  0  0  0  0  0  0
    5.8486    2.2630   -0.6869 C   0  0  0  0  0  0  0  0  0  0  0  0
   -9.2271    1.5349   -0.4729 C   0  0  0  0  0  0  0  0  0  0  0  0
   -7.6366    2.3135    1.1705 C   0  0  0  0  0  0  0  0  0  0  0  0
    4.6630    2.9738   -0.8725 C   0  0  0  0  0  0  0  0  0  0  0  0
   -8.8473    2.4649    0.4946 C   0  0  0  0  0  0  0  0  0  0  0  0
   -1.9461    0.5174   -0.0663 H   0  0  0  0  0  0  0  0  0  0  0  0
   -2.9600   -1.0893    1.4308 H   0  0  0  0  0  0  0  0  0  0  0  0
    0.0944   -1.0039   -1.1955 H   0  0  0  0  0  0  0  0  0  0  0  0
   -4.4407   -2.6323   -0.3106 H   0  0  0  0  0  0  0  0  0  0  0  0
   -0.7746   -3.1439   -0.9735 H   0  0  0  0  0  0  0  0  0  0  0  0
   -0.0102   -3.0805    0.6269 H   0  0  0  0  0  0  0  0  0  0  0  0
   -3.0250   -2.4588   -2.2046 H   0  0  0  0  0  0  0  0  0  0  0  0
   -4.1379   -1.1242   -2.5692 H   0  0  0  0  0  0  0  0  0  0  0  0
   -4.6187    0.2838    0.1046 H   0  0  0  0  0  0  0  0  0  0  0  0
   -8.7041   -0.2593   -1.5240 H   0  0  0  0  0  0  0  0  0  0  0  0
   -5.8890    1.1309    1.4508 H   0  0  0  0  0  0  0  0  0  0  0  0
    7.5400    0.2216    1.7759 H   0  0  0  0  0  0  0  0  0  0  0  0
    6.2736   -0.9628    1.4130 H   0  0  0  0  0  0  0  0  0  0  0  0
    8.0191    0.9560   -1.9410 H   0  0  0  0  0  0  0  0  0  0  0  0
    8.6688    1.4465   -0.3554 H   0  0  0  0  0  0  0  0  0  0  0  0
    4.5305   -0.8376   -0.1782 H   0  0  0  0  0  0  0  0  0  0  0  0
    8.4838   -2.0446    1.8448 H   0  0  0  0  0  0  0  0  0  0  0  0
    7.8821   -2.4134    0.2228 H   0  0  0  0  0  0  0  0  0  0  0  0
    8.8606   -1.3386   -1.6379 H   0  0  0  0  0  0  0  0  0  0  0  0
   10.1760   -0.1862   -1.3748 H   0  0  0  0  0  0  0  0  0  0  0  0
    2.5143    2.8690   -0.9480 H   0  0  0  0  0  0  0  0  0  0  0  0
    6.7850    2.8115   -0.7340 H   0  0  0  0  0  0  0  0  0  0  0  0
  -10.1695    1.6535   -0.9997 H   0  0  0  0  0  0  0  0  0  0  0  0
   -7.3451    3.0339    1.9294 H   0  0  0  0  0  0  0  0  0  0  0  0
    4.6945    4.0417   -1.0681 H   0  0  0  0  0  0  0  0  0  0  0  0
   -9.4950    3.3064    0.7228 H   0  0  0  0  0  0  0  0  0  0  0  0
  1 13  1  0  0  0  0
  1 16  1  0  0  0  0
  2 12  1  0  0  0  0
  2 17  1  0  0  0  0
  3 18  1  0  0  0  0
  3 21  1  0  0  0  0
  4 19  2  0  0  0  0
  5 29  1  0  0  0  0
  5 30  1  0  0  0  0
  6  8  1  0  0  0  0
  6 14  1  0  0  0  0
  6 18  1  0  0  0  0
  7 15  1  0  0  0  0
  7 19  1  0  0  0  0
  7 44  1  0  0  0  0
  8 10  2  0  0  0  0
  9 10  1  0  0  0  0
  9 18  2  0  0  0  0
 11 24  1  0  0  0  0
 11 26  1  0  0  0  0
 11 27  1  0  0  0  0
 12 13  1  0  0  0  0
 12 14  1  0  0  0  0
 12 36  1  0  0  0  0
 13 15  1  0  0  0  0
 13 37  1  0  0  0  0
 14 16  1  0  0  0  0
 14 38  1  0  0  0  0
 15 17  1  0  0  0  0
 15 39  1  0  0  0  0
 16 40  1  0  0  0  0
 16 41  1  0  0  0  0
 17 42  1  0  0  0  0
 17 43  1  0  0  0  0
 19 20  1  0  0  0  0
 20 22  2  0  0  0  0
 20 23  1  0  0  0  0
 21 25  1  0  0  0  0
 21 28  2  0  0  0  0
 22 32  1  0  0  0  0
 22 45  1  0  0  0  0
 23 33  2  0  0  0  0
 23 46  1  0  0  0  0
 24 25  2  0  0  0  0
 24 31  1  0  0  0  0
 25 51  1  0  0  0  0
 26 29  1  0  0  0  0
 26 47  1  0  0  0  0
 26 48  1  0  0  0  0
 27 30  1  0  0  0  0
 27 49  1  0  0  0  0
 27 50  1  0  0  0  0
 28 34  1  0  0  0  0
 28 56  1  0  0  0  0
 29 52  1  0  0  0  0
 29 53  1  0  0  0  0
 30 54  1  0  0  0  0
 30 55  1  0  0  0  0
 31 34  2  0  0  0  0
 31 57  1  0  0  0  0
 32 35  2  0  0  0  0
 32 58  1  0  0  0  0
 33 35  1  0  0  0  0
 33 59  1  0  0  0  0
 34 60  1  0  0  0  0
 35 61  1  0  0  0  0
M  END
> <PUBCHEM_COMPOUND_CID>
11879598

> <PUBCHEM_CONFORMER_RMSD>
1

> <PUBCHEM_CONFORMER_DIVERSEORDER>
2
196
113
232
3
190
223
28
48
213
83
144
172
200
29
227
187
204
58
23
230
111
104
162
46
75
202
161
112
33
81
168
221
153
37
89
51
175
88
106
94
126
198
229
27
38
148
199
71
154
132
103
107
32
157
197
212
163
137
79
74
149
65
233
145
225
191
84
72
64
155
101
69
17
50
124
87
80
217
122
139
55
105
9
231
210
47
39
170
82
188
59
92
180
226
131
128
63
169
6
40
182
135
102
127
36
7
171
228
184
138
96
22
70
185
108
224
151
206
214
95
15
24
201
147
174
195
189
54
120
115
30
136
125
123
91
60
178
218
203
133
179
181
173
119
167
215
68
114
166
73
8
164
100
99
90
160
35
207
150
52
205
152
44
158
49
186
177
34
13
130
66
146
86
93
57
61
109
192
76
31
18
62
134
56
53
194
10
67
77
141
110
21
42
193
208
129
216
78
220
176
156
98
117
20
142
121
16
5
97
25
219
11
85
14
211
12
116
43
222
41
159
140
165
209
19
183
143
118
26
1
45
4

> <PUBCHEM_MMFF94_PARTIAL_CHARGES>
44
1 -0.56
11 -0.84
12 0.28
13 0.28
14 0.26
15 0.3
16 0.28
17 0.28
18 0.25
19 0.54
2 -0.56
20 0.09
21 0.08
22 -0.15
23 -0.15
24 0.1
25 -0.15
26 0.37
27 0.37
28 -0.15
29 0.28
3 -0.15
30 0.28
31 -0.15
32 -0.15
33 -0.15
34 -0.15
35 -0.15
4 -0.57
44 0.37
45 0.15
46 0.15
5 -0.56
51 0.15
56 0.15
57 0.15
58 0.15
59 0.15
6 0.31
60 0.15
61 0.15
7 -0.73
8 -0.42
9 -0.34

> <PUBCHEM_EFFECTIVE_ROTOR_COUNT>
9.4

> <PUBCHEM_PHARMACOPHORE_FEATURES>
13
1 1 acceptor
1 11 cation
1 2 acceptor
1 4 acceptor
1 5 acceptor
1 7 donor
3 6 9 18 cation
5 1 12 13 14 16 rings
5 2 12 13 15 17 rings
5 6 8 9 10 18 rings
6 20 22 23 32 33 35 rings
6 21 24 25 28 31 34 rings
6 5 11 26 27 29 30 rings

> <PUBCHEM_HEAVY_ATOM_COUNT>
35

> <PUBCHEM_ATOM_DEF_STEREO_COUNT>
4

> <PUBCHEM_ATOM_UDEF_STEREO_COUNT>
0

> <PUBCHEM_BOND_DEF_STEREO_COUNT>
0

> <PUBCHEM_BOND_UDEF_STEREO_COUNT>
0

> <PUBCHEM_ISOTOPIC_ATOM_COUNT>
0

> <PUBCHEM_COMPONENT_COUNT>
1

> <PUBCHEM_CACTVS_TAUTO_COUNT>
2

> <PUBCHEM_CONFORMER_ID>
00B544AE00000002

> <PUBCHEM_MMFF94_ENERGY>
107.8414

> <PUBCHEM_FEATURE_SELFOVERLAP>
66.667

> <PUBCHEM_SHAPE_FINGERPRINT>
10 15 13190334686456916025
10049733 71 17985552148562889686
10190108 129 16732982007333445300
10190206 1 17203336572717270321
10391435 84 13110956552354151773
10577160 183 17988646263865119555
106641 1 10953458535605906798
10670039 82 18202845440504358873
10674148 151 18410289224925861440
11115154 58 18260269660016113676
11135609 99 9078817590264233881
11181472 205 18410865347950388828
11456790 92 18409168826582156648
12120059 9 15410894059298613268
12202916 173 15267345128069004572
12539747 91 16200145487300980624
12559415 135 18059859441948050304
12838862 33 15769770243673409454
13914758 101 18341898497971663226
14040221 8 18412831287900404824
14117953 113 18272097093726464598
14142895 15 10087633811021289002
14150022 121 13407063778943162615
14294032 229 18270122288485070801
14444916 359 16732702748517772386
14747281 78 17023200340233332014
15160629 178 18340477859829499063
15183329 4 18260828224612097426
15326923 82 12103842358770023323
15357212 105 15721387463022676356
15392192 104 11530477827279914240
15444296 9 18410857629292668068
16992727 255 18272939310600664737
19611394 137 13262689140403404253
20105231 36 15574714694646150802
21585482 111 18188205383141124637
21781055 127 18272651199514152443
21792938 703 11599422725785804621
21814621 53 18191028000638542224
249057 3 18409449202479567492
2747138 104 14634866461685507541
3092352 35 18408039624652824947
3178227 256 15140681396986253652
3418910 222 12685087055790809391
3633792 109 18343309150073869694
4098825 35 18411981360082600983
4173938 188 8574422111268343516
4173938 306 16056876918820052286
4339292 15 16772942757904819983
4461854 278 12685104670084725457
474113 269 17274547530048751326
4760202 70 9871455535180091106
57303763 176 17916312623546633792
59682541 35 13190342378664254397
6081469 158 16128657436344667610
6523845 18 16008749100228488540
6698420 124 18040719194469381275
9689198 14 18040157335981159937
99344 41 18342459239927429119

> <PUBCHEM_SHAPE_MULTIPOLES>
661.05
33.12
2.64
1.48
1.01
0.63
0.55
10.92
-2.71
-1.6
-0.25
0.08
-0.02
-3.01

> <PUBCHEM_SHAPE_SELFOVERLAP>
1447.941

> <PUBCHEM_SHAPE_VOLUME>
356.7

> <PUBCHEM_COORDINATE_TYPE>
2
5
10

$$$$
