56774115
  -OEChem-12032416273D

 42 43  0     1  0  0  0  0  0999 V2000
    4.8027    0.4771    0.5118 O   0  0  0  0  0  0  0  0  0  0  0  0
   -4.1896    0.8964    0.6538 O   0  0  0  0  0  0  0  0  0  0  0  0
   -6.0501   -0.8860   -0.1374 O   0  0  0  0  0  0  0  0  0  0  0  0
    6.5997   -1.7137   -0.4955 O   0  0  0  0  0  0  0  0  0  0  0  0
   -2.4717   -0.6530    0.4488 N   0  0  0  0  0  0  0  0  0  0  0  0
    3.7416    1.3090    0.1756 N   0  0  0  0  0  0  0  0  0  0  0  0
   -0.9750    1.3240   -0.1616 C   0  0  0  0  0  0  0  0  0  0  0  0
    0.4902    1.0460    0.2344 C   0  0  1  0  0  0  0  0  0  0  0  0
   -1.3766    0.2417    0.8620 C   0  0  2  0  0  0  0  0  0  0  0  0
    0.0277   -0.3639    0.6576 C   0  0  0  0  0  0  0  0  0  0  0  0
    1.5220    1.0710   -0.8690 C   0  0  0  0  0  0  0  0  0  0  0  0
   -1.4268    2.7347    0.1457 C   0  0  0  0  0  0  0  0  0  0  0  0
   -1.3556    0.9557   -1.5838 C   0  0  0  0  0  0  0  0  0  0  0  0
    2.8314    0.5020   -0.3769 C   0  0  0  0  0  0  0  0  0  0  0  0
   -3.7934   -0.2342    0.3831 C   0  0  0  0  0  0  0  0  0  0  0  0
    3.2585   -0.8365   -0.4160 C   0  0  0  0  0  0  0  0  0  0  0  0
   -4.7169   -1.3451   -0.0673 C   0  0  0  0  0  0  0  0  0  0  0  0
    4.5032   -0.7979    0.1546 C   0  0  0  0  0  0  0  0  0  0  0  0
    5.5224   -1.8150    0.4398 C   0  0  0  0  0  0  0  0  0  0  0  0
   -6.9437   -1.9121   -0.5595 C   0  0  0  0  0  0  0  0  0  0  0  0
    0.8123    1.6454    1.1003 H   0  0  0  0  0  0  0  0  0  0  0  0
   -1.5298    0.6161    1.8829 H   0  0  0  0  0  0  0  0  0  0  0  0
    0.0902   -1.1332   -0.1216 H   0  0  0  0  0  0  0  0  0  0  0  0
    0.4984   -0.7563    1.5643 H   0  0  0  0  0  0  0  0  0  0  0  0
    1.6774    2.0993   -1.2175 H   0  0  0  0  0  0  0  0  0  0  0  0
    1.2146    0.4851   -1.7427 H   0  0  0  0  0  0  0  0  0  0  0  0
   -1.2143    3.0107    1.1846 H   0  0  0  0  0  0  0  0  0  0  0  0
   -0.9154    3.4606   -0.4964 H   0  0  0  0  0  0  0  0  0  0  0  0
   -2.5037    2.8568   -0.0091 H   0  0  0  0  0  0  0  0  0  0  0  0
   -0.8705    1.6253   -2.3041 H   0  0  0  0  0  0  0  0  0  0  0  0
   -1.0787   -0.0679   -1.8586 H   0  0  0  0  0  0  0  0  0  0  0  0
   -2.4340    1.0561   -1.7512 H   0  0  0  0  0  0  0  0  0  0  0  0
   -2.2663   -1.6192    0.2046 H   0  0  0  0  0  0  0  0  0  0  0  0
    2.7403   -1.7022   -0.8013 H   0  0  0  0  0  0  0  0  0  0  0  0
   -4.3885   -1.6901   -1.0547 H   0  0  0  0  0  0  0  0  0  0  0  0
   -4.6429   -2.1701    0.6507 H   0  0  0  0  0  0  0  0  0  0  0  0
    5.9287   -1.6840    1.4478 H   0  0  0  0  0  0  0  0  0  0  0  0
    5.1002   -2.8222    0.3654 H   0  0  0  0  0  0  0  0  0  0  0  0
   -7.9538   -1.4953   -0.5932 H   0  0  0  0  0  0  0  0  0  0  0  0
   -6.9313   -2.7450    0.1500 H   0  0  0  0  0  0  0  0  0  0  0  0
   -6.6758   -2.2639   -1.5604 H   0  0  0  0  0  0  0  0  0  0  0  0
    7.2427   -2.4049   -0.2620 H   0  0  0  0  0  0  0  0  0  0  0  0
  1  6  1  0  0  0  0
  1 18  1  0  0  0  0
  2 15  2  0  0  0  0
  3 17  1  0  0  0  0
  3 20  1  0  0  0  0
  4 19  1  0  0  0  0
  4 42  1  0  0  0  0
  5  9  1  0  0  0  0
  5 15  1  0  0  0  0
  5 33  1  0  0  0  0
  6 14  2  0  0  0  0
  7  8  1  0  0  0  0
  7  9  1  0  0  0  0
  7 12  1  0  0  0  0
  7 13  1  0  0  0  0
  8 10  1  0  0  0  0
  8 11  1  0  0  0  0
  8 21  1  0  0  0  0
  9 10  1  0  0  0  0
  9 22  1  0  0  0  0
 10 23  1  0  0  0  0
 10 24  1  0  0  0  0
 11 14  1  0  0  0  0
 11 25  1  0  0  0  0
 11 26  1  0  0  0  0
 12 27  1  0  0  0  0
 12 28  1  0  0  0  0
 12 29  1  0  0  0  0
 13 30  1  0  0  0  0
 13 31  1  0  0  0  0
 13 32  1  0  0  0  0
 14 16  1  0  0  0  0
 15 17  1  0  0  0  0
 16 18  2  0  0  0  0
 16 34  1  0  0  0  0
 17 35  1  0  0  0  0
 17 36  1  0  0  0  0
 18 19  1  0  0  0  0
 19 37  1  0  0  0  0
 19 38  1  0  0  0  0
 20 39  1  0  0  0  0
 20 40  1  0  0  0  0
 20 41  1  0  0  0  0
M  END
> <PUBCHEM_COMPOUND_CID>
56774115

> <PUBCHEM_CONFORMER_RMSD>
0.8

> <PUBCHEM_CONFORMER_DIVERSEORDER>
1
94
33
93
13
70
64
38
58
55
77
11
85
86
14
41
91
31
49
78
80
65
83
67
7
22
73
60
21
82
75
28
37
92
32
50
12
76
48
81
68
53
69
15
40
45
79
20
27
52
56
25
89
88
24
47
66
23
26
2
61
29
62
18
84
42
17
51
5
74
71
87
46
16
36
43
63
6
30
39
90
3
4
54
35
72
34
19
10
57
9
44
59
8

> <PUBCHEM_MMFF94_PARTIAL_CHARGES>
18
1 -0.02
11 0.18
14 0.11
15 0.57
16 -0.15
17 0.34
18 -0.04
19 0.46
2 -0.57
20 0.28
3 -0.56
33 0.37
34 0.15
4 -0.68
42 0.4
5 -0.65
6 -0.41
9 0.22

> <PUBCHEM_EFFECTIVE_ROTOR_COUNT>
7.8

> <PUBCHEM_PHARMACOPHORE_FEATURES>
9
1 2 acceptor
1 3 acceptor
1 4 acceptor
1 4 donor
1 5 donor
1 6 acceptor
3 7 12 13 hydrophobe
4 7 8 9 10 rings
5 1 6 14 16 18 rings

> <PUBCHEM_HEAVY_ATOM_COUNT>
20

> <PUBCHEM_ATOM_DEF_STEREO_COUNT>
2

> <PUBCHEM_ATOM_UDEF_STEREO_COUNT>
0

> <PUBCHEM_BOND_DEF_STEREO_COUNT>
0

> <PUBCHEM_BOND_UDEF_STEREO_COUNT>
0

> <PUBCHEM_ISOTOPIC_ATOM_COUNT>
0

> <PUBCHEM_COMPONENT_COUNT>
1

> <PUBCHEM_CACTVS_TAUTO_COUNT>
2

> <PUBCHEM_CONFORMER_ID>
03624DE300000001

> <PUBCHEM_MMFF94_ENERGY>
34.9784

> <PUBCHEM_FEATURE_SELFOVERLAP>
45.679

> <PUBCHEM_SHAPE_FINGERPRINT>
10 15 14189569754331901330
10493431 412 11167939160507807249
106641 1 16558745767055279882
10753850 27 18334290985509042475
12236239 1 18341896316307625051
12555020 224 18040718091111718035
12596602 18 17418377999482412427
12670543 26 17458336434401099207
12760667 363 18407763620899589827
12892183 10 15266797528544839733
12916754 54 18408043987943880732
12954195 1 17823125749381690389
13288520 33 18410576167401090869
13533116 47 18410857698260050704
13668630 136 18261109699357141179
13685833 64 18335985359124601339
13862211 1 18411702101710136243
14251752 14 17968365776807756893
14251764 75 14402615628925109114
14347332 77 18114733820589495778
14508225 48 17749391464013901549
15048467 5 8790886280721324087
15183329 4 15791725291725003935
15188451 53 18273210885102374499
15880784 105 18272655649147438242
17492 89 18197215854606751166
17834072 8 16732983141399788579
18222031 100 17748828514561126244
18785283 64 14691709078163860883
19784866 140 18040710373039143059
19784866 240 18334581239182342447
200 152 18409165506482583692
20028762 73 18343300362318243982
20526848 3 9007057976166521791
20645477 70 18334295366586544274
20871999 31 16515972471686390300
21267235 1 18334583451486353155
21637258 2 18202275931739919087
22079108 93 13686299093010898933
22224240 67 12319741376006271965
23402539 116 18409165485345474429
23402655 69 8430306931951057608
23522609 53 18049477831710476700
23559900 14 17822581611358573120
23622692 118 18335987493375213908
2871803 45 17821727230519942138
29717793 49 18186519929818269149
3004659 81 18040714783601485546
3014063 24 18342172276045765535
3286 77 18409731751230055980
3472631 163 9007050279779962442
4340502 62 15052022272706751767
465052 167 18272655692113143079
5104073 3 18272657847959944432
559249 180 18411699860079962667
5718773 13 18335415717486019634
59755656 215 18113616759609836378
59755656 520 17898847951129563037
7495541 125 17632573881079745865
76465 3 18411700988917792257
77188 2 18339643438273577873
8988823 20 18130222773833658224

> <PUBCHEM_SHAPE_MULTIPOLES>
378.15
15.02
2.11
0.94
3.01
0.39
0.18
-13
0.89
0.35
0.11
0.2
0.13
-0.4

> <PUBCHEM_SHAPE_SELFOVERLAP>
774.234

> <PUBCHEM_SHAPE_VOLUME>
220.9

> <PUBCHEM_COORDINATE_TYPE>
2
5
10

$$$$
