28959376
  -OEChem-12032416223D

 56 60  0     1  0  0  0  0  0999 V2000
   -5.2063   -2.7423    0.0374 S   0  0  0  0  0  0  0  0  0  0  0  0
   -4.4440    1.4318   -2.2678 O   0  0  0  0  0  0  0  0  0  0  0  0
    6.0662   -1.5252   -0.6620 O   0  0  0  0  0  0  0  0  0  0  0  0
   -0.6494    2.7727   -0.0765 N   0  0  2  0  0  0  0  0  0  0  0  0
   -2.6696    0.0464   -1.6940 N   0  0  0  0  0  0  0  0  0  0  0  0
    1.6513   -0.9219    1.2937 N   0  0  0  0  0  0  0  0  0  0  0  0
    3.7432   -1.7704    0.4501 N   0  0  0  0  0  0  0  0  0  0  0  0
   -0.2708    1.1178    1.8985 C   0  0  2  0  0  0  0  0  0  0  0  0
    1.0782    1.4545    1.2050 C   0  0  2  0  0  0  0  0  0  0  0  0
   -1.5951    1.6305   -0.1821 C   0  0  2  0  0  0  0  0  0  0  0  0
   -1.2505    0.5403    0.8553 C   0  0  0  0  0  0  0  0  0  0  0  0
   -0.8659    2.4556    2.3878 C   0  0  0  0  0  0  0  0  0  0  0  0
    0.7493    2.2762   -0.0741 C   0  0  0  0  0  0  0  0  0  0  0  0
   -0.9011    3.4529    1.2166 C   0  0  0  0  0  0  0  0  0  0  0  0
   -1.6686    1.0640   -1.6017 C   0  0  0  0  0  0  0  0  0  0  0  0
    2.0469    0.3143    0.9256 C   0  0  0  0  0  0  0  0  0  0  0  0
    3.2589    0.5839    0.3233 C   0  0  0  0  0  0  0  0  0  0  0  0
    4.0747   -0.5081    0.1080 C   0  0  0  0  0  0  0  0  0  0  0  0
   -3.9985    0.3133   -2.0247 C   0  0  0  0  0  0  0  0  0  0  0  0
    2.5351   -1.9033    1.0305 C   0  0  0  0  0  0  0  0  0  0  0  0
   -4.8402   -0.9480   -2.0565 C   0  0  0  0  0  0  0  0  0  0  0  0
    5.3666   -0.3699   -0.5100 C   0  0  0  0  0  0  0  0  0  0  0  0
    2.1328   -3.2850    1.4216 C   0  0  0  0  0  0  0  0  0  0  0  0
   -5.5131   -1.2494   -0.7435 C   0  0  0  0  0  0  0  0  0  0  0  0
    6.0833    0.6970   -0.9999 C   0  0  0  0  0  0  0  0  0  0  0  0
    7.3015    0.1631   -1.4840 C   0  0  0  0  0  0  0  0  0  0  0  0
    7.2423   -1.1921   -1.2554 C   0  0  0  0  0  0  0  0  0  0  0  0
   -6.3910   -0.4635   -0.0297 C   0  0  0  0  0  0  0  0  0  0  0  0
   -6.8172   -1.0953    1.1741 C   0  0  0  0  0  0  0  0  0  0  0  0
   -6.2490   -2.3398    1.3345 C   0  0  0  0  0  0  0  0  0  0  0  0
   -0.1403    0.4275    2.7387 H   0  0  0  0  0  0  0  0  0  0  0  0
    1.6245    2.1148    1.8964 H   0  0  0  0  0  0  0  0  0  0  0  0
   -2.6014    2.0104    0.0495 H   0  0  0  0  0  0  0  0  0  0  0  0
   -0.8105   -0.3448    0.3827 H   0  0  0  0  0  0  0  0  0  0  0  0
   -2.1694    0.2110    1.3563 H   0  0  0  0  0  0  0  0  0  0  0  0
   -0.2643    2.8653    3.2075 H   0  0  0  0  0  0  0  0  0  0  0  0
   -1.8782    2.2929    2.7776 H   0  0  0  0  0  0  0  0  0  0  0  0
    1.4294    3.1365   -0.1338 H   0  0  0  0  0  0  0  0  0  0  0  0
    0.9416    1.7029   -0.9884 H   0  0  0  0  0  0  0  0  0  0  0  0
   -1.8726    3.9617    1.1896 H   0  0  0  0  0  0  0  0  0  0  0  0
   -0.1584    4.2461    1.3700 H   0  0  0  0  0  0  0  0  0  0  0  0
   -0.7242    0.6039   -1.9092 H   0  0  0  0  0  0  0  0  0  0  0  0
   -1.9010    1.8613   -2.3171 H   0  0  0  0  0  0  0  0  0  0  0  0
   -2.3919   -0.9106   -1.4963 H   0  0  0  0  0  0  0  0  0  0  0  0
    3.5446    1.5918    0.0481 H   0  0  0  0  0  0  0  0  0  0  0  0
   -4.2244   -1.7891   -2.3977 H   0  0  0  0  0  0  0  0  0  0  0  0
   -5.6111   -0.8083   -2.8250 H   0  0  0  0  0  0  0  0  0  0  0  0
    2.4659   -3.4912    2.4430 H   0  0  0  0  0  0  0  0  0  0  0  0
    1.0453   -3.4002    1.3769 H   0  0  0  0  0  0  0  0  0  0  0  0
    2.5801   -4.0247    0.7502 H   0  0  0  0  0  0  0  0  0  0  0  0
    5.7791    1.7342   -1.0132 H   0  0  0  0  0  0  0  0  0  0  0  0
    8.1201    0.6988   -1.9422 H   0  0  0  0  0  0  0  0  0  0  0  0
    7.9183   -2.0127   -1.4462 H   0  0  0  0  0  0  0  0  0  0  0  0
   -6.7161    0.5176   -0.3517 H   0  0  0  0  0  0  0  0  0  0  0  0
   -7.5057   -0.6592    1.8862 H   0  0  0  0  0  0  0  0  0  0  0  0
   -6.3964   -3.0320    2.1515 H   0  0  0  0  0  0  0  0  0  0  0  0
  1 24  1  0  0  0  0
  1 30  1  0  0  0  0
  2 19  2  0  0  0  0
  3 22  1  0  0  0  0
  3 27  1  0  0  0  0
  4 10  1  0  0  0  0
  4 13  1  0  0  0  0
  4 14  1  0  0  0  0
  5 15  1  0  0  0  0
  5 19  1  0  0  0  0
  5 44  1  0  0  0  0
  6 16  2  0  0  0  0
  6 20  1  0  0  0  0
  7 18  1  0  0  0  0
  7 20  2  0  0  0  0
  8  9  1  0  0  0  0
  8 11  1  0  0  0  0
  8 12  1  0  0  0  0
  8 31  1  0  0  0  0
  9 13  1  0  0  0  0
  9 16  1  0  0  0  0
  9 32  1  0  0  0  0
 10 11  1  0  0  0  0
 10 15  1  0  0  0  0
 10 33  1  0  0  0  0
 11 34  1  0  0  0  0
 11 35  1  0  0  0  0
 12 14  1  0  0  0  0
 12 36  1  0  0  0  0
 12 37  1  0  0  0  0
 13 38  1  0  0  0  0
 13 39  1  0  0  0  0
 14 40  1  0  0  0  0
 14 41  1  0  0  0  0
 15 42  1  0  0  0  0
 15 43  1  0  0  0  0
 16 17  1  0  0  0  0
 17 18  2  0  0  0  0
 17 45  1  0  0  0  0
 18 22  1  0  0  0  0
 19 21  1  0  0  0  0
 20 23  1  0  0  0  0
 21 24  1  0  0  0  0
 21 46  1  0  0  0  0
 21 47  1  0  0  0  0
 22 25  2  0  0  0  0
 23 48  1  0  0  0  0
 23 49  1  0  0  0  0
 23 50  1  0  0  0  0
 24 28  2  0  0  0  0
 25 26  1  0  0  0  0
 25 51  1  0  0  0  0
 26 27  2  0  0  0  0
 26 52  1  0  0  0  0
 27 53  1  0  0  0  0
 28 29  1  0  0  0  0
 28 54  1  0  0  0  0
 29 30  2  0  0  0  0
 29 55  1  0  0  0  0
 30 56  1  0  0  0  0
M  END
> <PUBCHEM_COMPOUND_CID>
28959376

> <PUBCHEM_CONFORMER_RMSD>
1.2

> <PUBCHEM_CONFORMER_DIVERSEORDER>
1
87
85
88
25
34
86
74
22
76
5
30
69
10
63
65
19
52
81
38
53
14
68
12
54
13
78
82
3
24
79
50
28
49
67
46
83
75
90
89
62
47
39
41
7
45
66
8
2
72
84
55
35
42
37
64
27
58
43
77
15
80
60
21
51
40
4
36
17
33
32
18
73
70
29
44
26
31
20
16
6
23
48
57
9
59
11
71
61
56

> <PUBCHEM_MMFF94_PARTIAL_CHARGES>
35
1 -0.08
10 0.27
13 0.27
14 0.27
15 0.3
16 0.17
17 -0.15
18 0.36
19 0.57
2 -0.57
20 0.48
21 0.24
22 0.09
23 0.14
24 -0.14
25 -0.15
26 -0.15
27 -0.01
28 -0.15
29 -0.15
3 -0.28
30 -0.11
4 -0.81
44 0.37
45 0.15
5 -0.73
51 0.15
52 0.15
53 0.15
54 0.15
55 0.15
56 0.15
6 -0.62
7 -0.62
9 0.14

> <PUBCHEM_EFFECTIVE_ROTOR_COUNT>
8.2

> <PUBCHEM_PHARMACOPHORE_FEATURES>
10
1 2 acceptor
1 3 acceptor
1 4 cation
1 5 donor
1 6 acceptor
3 6 7 20 cation
5 1 24 28 29 30 rings
5 3 22 25 26 27 rings
6 6 7 16 17 18 20 rings
8 4 8 9 10 11 12 13 14 rings

> <PUBCHEM_HEAVY_ATOM_COUNT>
30

> <PUBCHEM_ATOM_DEF_STEREO_COUNT>
3

> <PUBCHEM_ATOM_UDEF_STEREO_COUNT>
0

> <PUBCHEM_BOND_DEF_STEREO_COUNT>
0

> <PUBCHEM_BOND_UDEF_STEREO_COUNT>
0

> <PUBCHEM_ISOTOPIC_ATOM_COUNT>
0

> <PUBCHEM_COMPONENT_COUNT>
1

> <PUBCHEM_CACTVS_TAUTO_COUNT>
2

> <PUBCHEM_CONFORMER_ID>
01B9E29000000001

> <PUBCHEM_MMFF94_ENERGY>
60.0911

> <PUBCHEM_FEATURE_SELFOVERLAP>
50.747

> <PUBCHEM_SHAPE_FINGERPRINT>
10169797 241 18339628040740910706
10319926 262 13182741497915962405
10577160 103 16082513239270881068
10764073 3 13470419854706008465
10794284 68 17916048822529632473
10928967 22 18129356298826668319
11146851 88 9511460039574235039
11377469 6 18272369767413670225
117089 54 17607539217778313011
11961588 58 14418132928699995292
12120059 20 18056458768030646022
12422481 6 16630535024970036445
12539747 363 15554448492661324690
12592606 108 17917426562787124391
12788726 201 18129933469057375947
13103583 49 16845287298147921925
13673619 4 16702016470546156832
13690498 29 18343017761722153797
13726171 33 16154256223339638613
14040221 97 17611478819337686588
14251764 30 18131066065029535327
14251764 38 10447651348727537747
14767858 380 18334862718912962718
15142383 8 12103847848202684678
15238133 3 12103563126072079064
15361156 5 18041267830299287383
15444296 121 17560530491285260641
15537594 2 18342726430001084319
15669420 48 10737286871127729265
16994733 274 15647042747212093605
19304144 158 17459169855419284660
21403212 168 9943533976989325172
21591331 117 17989770011692185445
22440779 20 18341324518801637041
2260408 40 16987418992357996672
22849341 161 17489306438492484785
23569917 315 18188209798404655610
25269216 80 16588021338857252695
2748736 6 12035445025972014822
2838139 119 14851597761546897132
3117164 225 11959719499660933046
3737641 26 18271524200248908927
4098825 35 17458340793186490147
4366758 6 11674875623618095736
437795 51 18264207074640140008
437815 12 18343022237552387939
46194498 28 17604143860998025861
484989 97 18042415784293534170
504843 32 17768540391505353049
57366028 249 18194416691766845396
5912855 24 18197780998776147673
6371009 1 10665225938814393135
999808 66 18201722855378254423

> <PUBCHEM_SHAPE_MULTIPOLES>
589.57
18.46
3.32
2.15
5.16
0.55
-0.37
-13.94
-7.65
-1.35
1.7
-1.64
0.39
0.61

> <PUBCHEM_SHAPE_SELFOVERLAP>
1268.434

> <PUBCHEM_SHAPE_VOLUME>
326.7

> <PUBCHEM_COORDINATE_TYPE>
2
5
10

$$$$
