45783330
  -OEChem-12032416203D

 63 67  0     1  0  0  0  0  0999 V2000
   -3.6045   -2.1037    0.2753 O   0  0  0  0  0  0  0  0  0  0  0  0
    5.8692    2.0777    0.4165 O   0  0  0  0  0  0  0  0  0  0  0  0
   -3.9581    1.1405   -1.4144 N   0  0  1  0  0  0  0  0  0  0  0  0
    3.1341   -0.6226   -0.4099 N   0  0  0  0  0  0  0  0  0  0  0  0
   -1.9274   -0.8693   -0.5496 N   0  0  0  0  0  0  0  0  0  0  0  0
   -2.4238   -2.6659    0.7770 N   0  0  0  0  0  0  0  0  0  0  0  0
    2.6459   -2.4845    0.9687 N   0  0  0  0  0  0  0  0  0  0  0  0
    7.4276    1.0805   -0.9514 N   0  0  0  0  0  0  0  0  0  0  0  0
   -4.3319   -0.2654   -1.1616 C   0  0  1  0  0  0  0  0  0  0  0  0
   -4.7091   -0.8248   -2.5458 C   0  0  0  0  0  0  0  0  0  0  0  0
   -4.5759    0.3531   -3.5006 C   0  0  0  0  0  0  0  0  0  0  0  0
   -4.7097    1.5620   -2.5967 C   0  0  0  0  0  0  0  0  0  0  0  0
    5.1174    1.1072   -1.6363 C   0  0  0  0  0  0  0  0  0  0  0  0
   -4.1984    2.0131   -0.2723 C   0  0  0  0  0  0  0  0  0  0  0  0
    5.1027   -0.4018   -1.8723 C   0  0  0  0  0  0  0  0  0  0  0  0
    3.7350    1.6199   -1.2384 C   0  0  0  0  0  0  0  0  0  0  0  0
    4.4571   -1.1760   -0.7233 C   0  0  0  0  0  0  0  0  0  0  0  0
    3.0860    0.8117   -0.1128 C   0  0  0  0  0  0  0  0  0  0  0  0
   -3.2225   -1.0521   -0.4957 C   0  0  0  0  0  0  0  0  0  0  0  0
   -3.1086    1.8978    0.7603 C   0  0  0  0  0  0  0  0  0  0  0  0
    2.1992   -1.4811    0.1803 C   0  0  0  0  0  0  0  0  0  0  0  0
    6.1535    1.4710   -0.6133 C   0  0  0  0  0  0  0  0  0  0  0  0
   -1.4796   -1.8831    0.2465 C   0  0  0  0  0  0  0  0  0  0  0  0
    0.8608   -1.2423   -0.0876 C   0  0  0  0  0  0  0  0  0  0  0  0
   -0.0796   -2.0879    0.4905 C   0  0  0  0  0  0  0  0  0  0  0  0
   -3.4216    1.5127    2.0641 C   0  0  0  0  0  0  0  0  0  0  0  0
   -1.7870    2.1788    0.4141 C   0  0  0  0  0  0  0  0  0  0  0  0
    0.3411   -3.1314    1.3074 C   0  0  0  0  0  0  0  0  0  0  0  0
   -2.4127    1.4087    3.0215 C   0  0  0  0  0  0  0  0  0  0  0  0
   -0.7782    2.0747    1.3717 C   0  0  0  0  0  0  0  0  0  0  0  0
    1.7027   -3.2857    1.5130 C   0  0  0  0  0  0  0  0  0  0  0  0
   -1.0909    1.6896    2.6754 C   0  0  0  0  0  0  0  0  0  0  0  0
   -0.0126    1.5788    3.6997 C   0  0  0  0  0  0  0  0  0  0  0  0
   -5.2267   -0.3219   -0.5258 H   0  0  0  0  0  0  0  0  0  0  0  0
   -4.0819   -1.6620   -2.8708 H   0  0  0  0  0  0  0  0  0  0  0  0
   -5.7502   -1.1699   -2.5326 H   0  0  0  0  0  0  0  0  0  0  0  0
   -5.3327    0.3334   -4.2902 H   0  0  0  0  0  0  0  0  0  0  0  0
   -3.5869    0.3378   -3.9754 H   0  0  0  0  0  0  0  0  0  0  0  0
   -5.7659    1.7473   -2.3632 H   0  0  0  0  0  0  0  0  0  0  0  0
   -4.2840    2.4582   -3.0584 H   0  0  0  0  0  0  0  0  0  0  0  0
    5.4136    1.6070   -2.5684 H   0  0  0  0  0  0  0  0  0  0  0  0
   -4.1971    3.0628   -0.5983 H   0  0  0  0  0  0  0  0  0  0  0  0
   -5.1900    1.8436    0.1674 H   0  0  0  0  0  0  0  0  0  0  0  0
    4.5185   -0.5942   -2.7828 H   0  0  0  0  0  0  0  0  0  0  0  0
    6.0996   -0.8113   -2.0650 H   0  0  0  0  0  0  0  0  0  0  0  0
    3.7714    2.6788   -0.9550 H   0  0  0  0  0  0  0  0  0  0  0  0
    3.0830    1.5597   -2.1204 H   0  0  0  0  0  0  0  0  0  0  0  0
    5.0946   -1.1428    0.1688 H   0  0  0  0  0  0  0  0  0  0  0  0
    4.3758   -2.2261   -1.0320 H   0  0  0  0  0  0  0  0  0  0  0  0
    2.0564    1.1664    0.0005 H   0  0  0  0  0  0  0  0  0  0  0  0
    3.5864    0.9982    0.8443 H   0  0  0  0  0  0  0  0  0  0  0  0
    0.5616   -0.4302   -0.7437 H   0  0  0  0  0  0  0  0  0  0  0  0
   -4.4466    1.2888    2.3471 H   0  0  0  0  0  0  0  0  0  0  0  0
   -1.5283    2.4858   -0.5958 H   0  0  0  0  0  0  0  0  0  0  0  0
    8.2087    1.2721   -0.3327 H   0  0  0  0  0  0  0  0  0  0  0  0
    7.6531    0.6355   -1.8349 H   0  0  0  0  0  0  0  0  0  0  0  0
   -0.3460   -3.8218    1.7854 H   0  0  0  0  0  0  0  0  0  0  0  0
   -2.6689    1.1052    4.0331 H   0  0  0  0  0  0  0  0  0  0  0  0
    0.2465    2.3018    1.0924 H   0  0  0  0  0  0  0  0  0  0  0  0
    2.0828   -4.0840    2.1419 H   0  0  0  0  0  0  0  0  0  0  0  0
   -0.4017    1.7589    4.7076 H   0  0  0  0  0  0  0  0  0  0  0  0
    0.7753    2.3188    3.5230 H   0  0  0  0  0  0  0  0  0  0  0  0
    0.4315    0.5787    3.6693 H   0  0  0  0  0  0  0  0  0  0  0  0
  1  6  1  0  0  0  0
  1 19  1  0  0  0  0
  2 22  2  0  0  0  0
  3  9  1  0  0  0  0
  3 12  1  0  0  0  0
  3 14  1  0  0  0  0
  4 17  1  0  0  0  0
  4 18  1  0  0  0  0
  4 21  1  0  0  0  0
  5 19  2  0  0  0  0
  5 23  1  0  0  0  0
  6 23  2  0  0  0  0
  7 21  2  0  0  0  0
  7 31  1  0  0  0  0
  8 22  1  0  0  0  0
  8 55  1  0  0  0  0
  8 56  1  0  0  0  0
  9 10  1  0  0  0  0
  9 19  1  0  0  0  0
  9 34  1  0  0  0  0
 10 11  1  0  0  0  0
 10 35  1  0  0  0  0
 10 36  1  0  0  0  0
 11 12  1  0  0  0  0
 11 37  1  0  0  0  0
 11 38  1  0  0  0  0
 12 39  1  0  0  0  0
 12 40  1  0  0  0  0
 13 15  1  0  0  0  0
 13 16  1  0  0  0  0
 13 22  1  0  0  0  0
 13 41  1  0  0  0  0
 14 20  1  0  0  0  0
 14 42  1  0  0  0  0
 14 43  1  0  0  0  0
 15 17  1  0  0  0  0
 15 44  1  0  0  0  0
 15 45  1  0  0  0  0
 16 18  1  0  0  0  0
 16 46  1  0  0  0  0
 16 47  1  0  0  0  0
 17 48  1  0  0  0  0
 17 49  1  0  0  0  0
 18 50  1  0  0  0  0
 18 51  1  0  0  0  0
 20 26  2  0  0  0  0
 20 27  1  0  0  0  0
 21 24  1  0  0  0  0
 23 25  1  0  0  0  0
 24 25  2  0  0  0  0
 24 52  1  0  0  0  0
 25 28  1  0  0  0  0
 26 29  1  0  0  0  0
 26 53  1  0  0  0  0
 27 30  2  0  0  0  0
 27 54  1  0  0  0  0
 28 31  2  0  0  0  0
 28 57  1  0  0  0  0
 29 32  2  0  0  0  0
 29 58  1  0  0  0  0
 30 32  1  0  0  0  0
 30 59  1  0  0  0  0
 31 60  1  0  0  0  0
 32 33  1  0  0  0  0
 33 61  1  0  0  0  0
 33 62  1  0  0  0  0
 33 63  1  0  0  0  0
M  END
> <PUBCHEM_COMPOUND_CID>
45783330

> <PUBCHEM_CONFORMER_RMSD>
1

> <PUBCHEM_CONFORMER_DIVERSEORDER>
1
157
124
46
147
171
65
165
186
83
167
24
166
173
120
50
49
88
187
180
28
164
90
122
38
137
134
155
19
81
161
78
42
72
40
140
104
97
182
112
96
4
162
89
43
91
52
99
48
177
20
185
143
94
103
59
37
21
23
80
163
3
139
73
63
6
87
29
86
58
75
34
158
132
56
53
8
107
55
153
188
144
74
135
110
169
47
61
92
141
68
168
175
108
45
176
25
117
35
106
130
11
129
126
15
62
100
148
142
136
13
146
64
51
121
111
115
95
32
179
33
18
160
85
133
113
183
71
128
119
26
39
69
170
102
123
67
41
79
66
178
5
184
54
131
17
151
189
27
138
145
44
30
70
159
84
57
31
116
156
154
172
127
76
118
22
105
181
152
93
149
16
77
125
10
109
9
150
114
7
14
36
82
2
98
12
174
101
60

> <PUBCHEM_MMFF94_PARTIAL_CHARGES>
38
1 -0.02
12 0.27
13 0.06
14 0.41
17 0.37
18 0.37
19 0.3
2 -0.57
20 -0.14
21 0.41
22 0.57
23 0.46
24 -0.15
25 0.05
26 -0.15
27 -0.15
28 -0.15
29 -0.15
3 -0.81
30 -0.15
31 0.16
32 -0.14
33 0.14
4 -0.84
5 -0.57
52 0.15
53 0.15
54 0.15
55 0.37
56 0.37
57 0.15
58 0.15
59 0.15
6 -0.41
60 0.15
7 -0.62
8 -0.8
9 0.45

> <PUBCHEM_EFFECTIVE_ROTOR_COUNT>
8.2

> <PUBCHEM_PHARMACOPHORE_FEATURES>
10
1 2 acceptor
1 3 cation
1 8 donor
3 4 7 21 cation
3 5 6 23 cation
5 1 5 6 19 23 rings
5 3 9 10 11 12 rings
6 20 26 27 29 30 32 rings
6 4 13 15 16 17 18 rings
6 7 21 24 25 28 31 rings

> <PUBCHEM_HEAVY_ATOM_COUNT>
33

> <PUBCHEM_ATOM_DEF_STEREO_COUNT>
1

> <PUBCHEM_ATOM_UDEF_STEREO_COUNT>
0

> <PUBCHEM_BOND_DEF_STEREO_COUNT>
0

> <PUBCHEM_BOND_UDEF_STEREO_COUNT>
0

> <PUBCHEM_ISOTOPIC_ATOM_COUNT>
0

> <PUBCHEM_COMPONENT_COUNT>
1

> <PUBCHEM_CACTVS_TAUTO_COUNT>
2

> <PUBCHEM_CONFORMER_ID>
02BA992200000001

> <PUBCHEM_MMFF94_ENERGY>
81.7861

> <PUBCHEM_FEATURE_SELFOVERLAP>
50.748

> <PUBCHEM_SHAPE_FINGERPRINT>
10940486 97 16693581871625447134
11477941 20 17203611501668215408
11479125 193 17753602439494509093
1200032 147 17532360981837990437
12422481 6 16298375847763666758
12788726 201 17702104669080990121
13383661 66 15828856121565208351
14114206 34 18131349674721257569
14400156 350 17127912154059582617
14468879 13 17167863028537251191
14931854 50 18341885299342185829
14950920 106 13912612705396302222
15513586 35 16156276179843240484
17138139 8 18130493210765296252
20775438 99 16551946494892847631
21033648 144 18187644682726673294
21033648 29 16588307125131829007
22440779 20 14549025394277408851
22907989 373 17989210296224087275
3459 83 18125737699186556902
3610482 184 17630630971330380840
4112364 45 15432257463269180933
469060 322 17678481824908697635
50150288 127 16547841974673144312
9981440 41 17385722517006607539

> <PUBCHEM_SHAPE_MULTIPOLES>
637.5
13.38
3.51
3.2
17.75
0.94
0
-5.07
12.08
-0.29
-2.53
-3.42
-1.05
-2.18

> <PUBCHEM_SHAPE_SELFOVERLAP>
1382.043

> <PUBCHEM_SHAPE_VOLUME>
348

> <PUBCHEM_COORDINATE_TYPE>
2
5
10

$$$$
