40777341
  -OEChem-12032416173D

 61 63  0     1  0  0  0  0  0999 V2000
   -2.6759   -1.9678   -1.1385 O   0  0  0  0  0  0  0  0  0  0  0  0
    5.0426    0.1049   -1.5226 O   0  0  0  0  0  0  0  0  0  0  0  0
    0.7090    2.7733    0.3904 N   0  0  0  0  0  0  0  0  0  0  0  0
   -1.3132   -1.7872   -1.3423 N   0  0  0  0  0  0  0  0  0  0  0  0
    5.6720   -0.5459    0.6178 N   0  0  0  0  0  0  0  0  0  0  0  0
    0.9198    0.4253   -0.3896 C   0  0  2  0  0  0  0  0  0  0  0  0
    2.4000    0.6557   -0.7771 C   0  0  1  0  0  0  0  0  0  0  0  0
    2.6212    2.1538   -1.0455 C   0  0  0  0  0  0  0  0  0  0  0  0
    0.4739    1.3715    0.7379 C   0  0  0  0  0  0  0  0  0  0  0  0
    0.6155   -1.0279   -0.0233 C   0  0  0  0  0  0  0  0  0  0  0  0
   -5.2761   -0.6246   -0.0115 C   0  0  0  0  0  0  0  0  0  0  0  0
    2.1175    3.0321    0.0990 C   0  0  0  0  0  0  0  0  0  0  0  0
    3.4042    0.1328    0.2570 C   0  0  0  0  0  0  0  0  0  0  0  0
   -4.7683    0.7376    0.4799 C   0  0  0  0  0  0  0  0  0  0  0  0
   -6.7410   -0.8398    0.3923 C   0  0  0  0  0  0  0  0  0  0  0  0
   -5.6624    1.8789    0.0004 C   0  0  0  0  0  0  0  0  0  0  0  0
   -7.6317    0.3041   -0.0873 C   0  0  0  0  0  0  0  0  0  0  0  0
   -4.3975   -1.7533    0.5248 C   0  0  0  0  0  0  0  0  0  0  0  0
   -7.1189    1.6572    0.3958 C   0  0  0  0  0  0  0  0  0  0  0  0
   -0.8459   -1.3358   -0.1749 C   0  0  0  0  0  0  0  0  0  0  0  0
   -2.9880   -1.6222    0.1367 C   0  0  0  0  0  0  0  0  0  0  0  0
   -1.8577   -1.2125    0.7932 C   0  0  0  0  0  0  0  0  0  0  0  0
    4.7769   -0.0925   -0.3401 C   0  0  0  0  0  0  0  0  0  0  0  0
    7.0551   -0.8455    0.3262 C   0  0  0  0  0  0  0  0  0  0  0  0
    7.5522   -1.9739    1.2205 C   0  0  0  0  0  0  0  0  0  0  0  0
    7.9164    0.4017    0.4808 C   0  0  0  0  0  0  0  0  0  0  0  0
    0.3278    0.6848   -1.2815 H   0  0  0  0  0  0  0  0  0  0  0  0
    2.5665    0.1209   -1.7224 H   0  0  0  0  0  0  0  0  0  0  0  0
    2.0861    2.4291   -1.9645 H   0  0  0  0  0  0  0  0  0  0  0  0
    3.6787    2.3710   -1.2324 H   0  0  0  0  0  0  0  0  0  0  0  0
   -0.5986    1.2645    0.9250 H   0  0  0  0  0  0  0  0  0  0  0  0
    0.9862    1.1291    1.6772 H   0  0  0  0  0  0  0  0  0  0  0  0
   -5.2223   -0.6294   -1.1096 H   0  0  0  0  0  0  0  0  0  0  0  0
    0.9204   -1.2517    1.0064 H   0  0  0  0  0  0  0  0  0  0  0  0
    1.1797   -1.7075   -0.6755 H   0  0  0  0  0  0  0  0  0  0  0  0
    2.7240    2.8954    1.0011 H   0  0  0  0  0  0  0  0  0  0  0  0
    2.2244    4.0834   -0.1910 H   0  0  0  0  0  0  0  0  0  0  0  0
    3.0919   -0.8421    0.6460 H   0  0  0  0  0  0  0  0  0  0  0  0
    3.4955    0.8040    1.1170 H   0  0  0  0  0  0  0  0  0  0  0  0
   -4.7258    0.7495    1.5766 H   0  0  0  0  0  0  0  0  0  0  0  0
   -3.7535    0.9349    0.1171 H   0  0  0  0  0  0  0  0  0  0  0  0
   -7.1098   -1.7838   -0.0262 H   0  0  0  0  0  0  0  0  0  0  0  0
   -6.8196   -0.9236    1.4839 H   0  0  0  0  0  0  0  0  0  0  0  0
    0.4098    3.3673    1.1633 H   0  0  0  0  0  0  0  0  0  0  0  0
   -5.5895    1.9659   -1.0907 H   0  0  0  0  0  0  0  0  0  0  0  0
   -5.3071    2.8267    0.4204 H   0  0  0  0  0  0  0  0  0  0  0  0
   -8.6555    0.1487    0.2711 H   0  0  0  0  0  0  0  0  0  0  0  0
   -7.6727    0.2993   -1.1834 H   0  0  0  0  0  0  0  0  0  0  0  0
   -4.7787   -2.7165    0.1620 H   0  0  0  0  0  0  0  0  0  0  0  0
   -4.4694   -1.7933    1.6195 H   0  0  0  0  0  0  0  0  0  0  0  0
   -7.7404    2.4577   -0.0212 H   0  0  0  0  0  0  0  0  0  0  0  0
   -7.2133    1.7146    1.4872 H   0  0  0  0  0  0  0  0  0  0  0  0
   -1.7798   -0.8785    1.8173 H   0  0  0  0  0  0  0  0  0  0  0  0
    5.3629   -0.6193    1.5831 H   0  0  0  0  0  0  0  0  0  0  0  0
    7.1176   -1.1780   -0.7171 H   0  0  0  0  0  0  0  0  0  0  0  0
    7.5045   -1.6942    2.2789 H   0  0  0  0  0  0  0  0  0  0  0  0
    6.9387   -2.8719    1.0892 H   0  0  0  0  0  0  0  0  0  0  0  0
    8.5889   -2.2342    0.9830 H   0  0  0  0  0  0  0  0  0  0  0  0
    7.8723    0.7897    1.5045 H   0  0  0  0  0  0  0  0  0  0  0  0
    7.5743    1.1994   -0.1877 H   0  0  0  0  0  0  0  0  0  0  0  0
    8.9631    0.1870    0.2417 H   0  0  0  0  0  0  0  0  0  0  0  0
  1  4  1  0  0  0  0
  1 21  1  0  0  0  0
  2 23  2  0  0  0  0
  3  9  1  0  0  0  0
  3 12  1  0  0  0  0
  3 44  1  0  0  0  0
  4 20  2  0  0  0  0
  5 23  1  0  0  0  0
  5 24  1  0  0  0  0
  5 54  1  0  0  0  0
  6  7  1  0  0  0  0
  6  9  1  0  0  0  0
  6 10  1  0  0  0  0
  6 27  1  0  0  0  0
  7  8  1  0  0  0  0
  7 13  1  0  0  0  0
  7 28  1  0  0  0  0
  8 12  1  0  0  0  0
  8 29  1  0  0  0  0
  8 30  1  0  0  0  0
  9 31  1  0  0  0  0
  9 32  1  0  0  0  0
 10 20  1  0  0  0  0
 10 34  1  0  0  0  0
 10 35  1  0  0  0  0
 11 14  1  0  0  0  0
 11 15  1  0  0  0  0
 11 18  1  0  0  0  0
 11 33  1  0  0  0  0
 12 36  1  0  0  0  0
 12 37  1  0  0  0  0
 13 23  1  0  0  0  0
 13 38  1  0  0  0  0
 13 39  1  0  0  0  0
 14 16  1  0  0  0  0
 14 40  1  0  0  0  0
 14 41  1  0  0  0  0
 15 17  1  0  0  0  0
 15 42  1  0  0  0  0
 15 43  1  0  0  0  0
 16 19  1  0  0  0  0
 16 45  1  0  0  0  0
 16 46  1  0  0  0  0
 17 19  1  0  0  0  0
 17 47  1  0  0  0  0
 17 48  1  0  0  0  0
 18 21  1  0  0  0  0
 18 49  1  0  0  0  0
 18 50  1  0  0  0  0
 19 51  1  0  0  0  0
 19 52  1  0  0  0  0
 20 22  1  0  0  0  0
 21 22  2  0  0  0  0
 22 53  1  0  0  0  0
 24 25  1  0  0  0  0
 24 26  1  0  0  0  0
 24 55  1  0  0  0  0
 25 56  1  0  0  0  0
 25 57  1  0  0  0  0
 25 58  1  0  0  0  0
 26 59  1  0  0  0  0
 26 60  1  0  0  0  0
 26 61  1  0  0  0  0
M  END
> <PUBCHEM_COMPOUND_CID>
40777341

> <PUBCHEM_CONFORMER_RMSD>
1.4

> <PUBCHEM_CONFORMER_DIVERSEORDER>
1
18
63
40
60
19
24
4
33
53
42
21
25
61
51
28
14
45
64
57
34
52
58
62
27
36
5
13
56
23
35
32
30
15
9
43
54
17
22
20
68
7
3
39
2
47
38
10
31
55
41
6
46
8
50
16
65
67
59
26
44
66
11
49
37
12
48
29

> <PUBCHEM_MMFF94_PARTIAL_CHARGES>
18
1 -0.02
10 0.18
12 0.27
13 0.06
18 0.18
2 -0.57
20 0.11
21 -0.04
22 -0.15
23 0.57
24 0.3
3 -0.9
4 -0.41
44 0.36
5 -0.73
53 0.15
54 0.37
9 0.27

> <PUBCHEM_EFFECTIVE_ROTOR_COUNT>
10.4

> <PUBCHEM_PHARMACOPHORE_FEATURES>
9
1 2 acceptor
1 3 cation
1 3 donor
1 4 acceptor
1 5 donor
3 24 25 26 hydrophobe
5 1 4 20 21 22 rings
6 11 14 15 16 17 19 rings
6 3 6 7 8 9 12 rings

> <PUBCHEM_HEAVY_ATOM_COUNT>
26

> <PUBCHEM_ATOM_DEF_STEREO_COUNT>
2

> <PUBCHEM_ATOM_UDEF_STEREO_COUNT>
0

> <PUBCHEM_BOND_DEF_STEREO_COUNT>
0

> <PUBCHEM_BOND_UDEF_STEREO_COUNT>
0

> <PUBCHEM_ISOTOPIC_ATOM_COUNT>
0

> <PUBCHEM_COMPONENT_COUNT>
1

> <PUBCHEM_CACTVS_TAUTO_COUNT>
2

> <PUBCHEM_CONFORMER_ID>
026E367D00000001

> <PUBCHEM_MMFF94_ENERGY>
23.8685

> <PUBCHEM_FEATURE_SELFOVERLAP>
45.671

> <PUBCHEM_SHAPE_FINGERPRINT>
10050765 1 18124314066996530927
10299344 5 17675926499587593554
10670039 82 18409443662468050049
11089746 13 18410572916432744383
12107183 9 18410573998105178158
12144603 126 18333734637700758622
12592606 108 18335136513861115259
12596602 18 15141257572077831261
14123256 10 10159697997243127147
14251752 14 18407762538235346217
14251764 18 18334013904099200734
14347424 109 18413101784845216064
14466204 15 18412829066473196481
14675019 173 17530685402777883421
15142383 8 18333449846350068252
15183329 4 18411149038428363773
15238133 3 18335427880199541732
15276724 80 17821731662942503980
15461852 350 17060335270828202639
15537594 2 12180122129346534209
15849732 13 18131350808418173366
16087824 20 18338799992801646265
19611394 137 17970645193657061323
20832881 197 18334013925874516362
21150785 3 11312052154114175586
21298829 104 18059300868397114905
21365058 27 14490476374148951657
21792934 111 18411972569160479824
21859007 373 18272928306440712961
22224240 67 12247678271129787446
24893992 56 18408608085391587531
2838139 119 18412825803168567573
3009799 131 16988843873659915131
335352 9 18411419526936708197
4017518 198 17203616986742575038
4258327 124 11743255382175334114
4325135 7 10807937067710138403
4339292 15 17202753935040517783
437795 51 12685387287121114774
5104073 3 18056771050665301267
5207 217 9511460026667623350
559249 180 18411418418998935779
57724786 102 17896885550148202845
59755656 520 17676487281115566579
6081469 158 17489312962980096342
6299153 45 18408888403798340049
6328613 192 18188501279525693101
6371380 46 18335700571952606674
9862260 156 18410854369280373952

> <PUBCHEM_SHAPE_MULTIPOLES>
508.39
22.5
2.64
1.01
5.68
1.31
-0.17
-2.58
4.74
-0.22
0.09
0.71
-0.16
-1.24

> <PUBCHEM_SHAPE_SELFOVERLAP>
1034.982

> <PUBCHEM_SHAPE_VOLUME>
291.9

> <PUBCHEM_COORDINATE_TYPE>
2
5
10

$$$$
