75536621
  -OEChem-12032416383D

 46 48  0     1  0  0  0  0  0999 V2000
   -8.9444   -0.3225    0.5436 F   0  0  0  0  0  0  0  0  0  0  0  0
    0.7824   -0.9116    0.0080 O   0  0  0  0  0  0  0  0  0  0  0  0
   -0.4362    2.4599    0.2390 O   0  0  0  0  0  0  0  0  0  0  0  0
    4.1756    2.0026   -0.0169 O   0  0  0  0  0  0  0  0  0  0  0  0
   -2.6641    0.2500    0.0691 N   0  0  0  0  0  0  0  0  0  0  0  0
    3.2814    0.1155    0.9941 N   0  0  0  0  0  0  0  0  0  0  0  0
   -1.2677    0.2376   -0.3356 C   0  0  1  0  0  0  0  0  0  0  0  0
   -0.3696    1.0817    0.5497 C   0  0  1  0  0  0  0  0  0  0  0  0
    0.9971    0.4926    0.2277 C   0  0  1  0  0  0  0  0  0  0  0  0
   -0.6239   -1.1323   -0.1980 C   0  0  0  0  0  0  0  0  0  0  0  0
    2.0125    0.6888    1.3393 C   0  0  0  0  0  0  0  0  0  0  0  0
   -3.5206   -0.2838   -0.9833 C   0  0  0  0  0  0  0  0  0  0  0  0
   -4.9697   -0.2942   -0.5753 C   0  0  0  0  0  0  0  0  0  0  0  0
    4.2763    0.8298    0.3335 C   0  0  0  0  0  0  0  0  0  0  0  0
   -5.5055   -1.4104    0.0671 C   0  0  0  0  0  0  0  0  0  0  0  0
   -5.7766    0.8124   -0.8397 C   0  0  0  0  0  0  0  0  0  0  0  0
    5.5239    0.0847    0.0245 C   0  0  0  0  0  0  0  0  0  0  0  0
   -6.8482   -1.4201    0.4451 C   0  0  0  0  0  0  0  0  0  0  0  0
   -7.1192    0.8029   -0.4617 C   0  0  0  0  0  0  0  0  0  0  0  0
   -7.6549   -0.3133    0.1806 C   0  0  0  0  0  0  0  0  0  0  0  0
    6.3126    0.4642   -1.0615 C   0  0  0  0  0  0  0  0  0  0  0  0
    5.9071   -0.9938    0.8217 C   0  0  0  0  0  0  0  0  0  0  0  0
    7.4847   -0.2348   -1.3505 C   0  0  0  0  0  0  0  0  0  0  0  0
    7.0791   -1.6927    0.5329 C   0  0  0  0  0  0  0  0  0  0  0  0
    7.8680   -1.3133   -0.5532 C   0  0  0  0  0  0  0  0  0  0  0  0
   -1.1685    0.6035   -1.3674 H   0  0  0  0  0  0  0  0  0  0  0  0
   -0.6193    0.9457    1.6094 H   0  0  0  0  0  0  0  0  0  0  0  0
    1.3906    0.9129   -0.7072 H   0  0  0  0  0  0  0  0  0  0  0  0
   -0.9955   -1.6817    0.6748 H   0  0  0  0  0  0  0  0  0  0  0  0
   -0.7661   -1.7573   -1.0848 H   0  0  0  0  0  0  0  0  0  0  0  0
    1.6854    0.1815    2.2535 H   0  0  0  0  0  0  0  0  0  0  0  0
    2.1425    1.7536    1.5604 H   0  0  0  0  0  0  0  0  0  0  0  0
   -2.9442    1.2108    0.2680 H   0  0  0  0  0  0  0  0  0  0  0  0
   -3.2251   -1.3085   -1.2422 H   0  0  0  0  0  0  0  0  0  0  0  0
   -3.4159    0.3059   -1.9037 H   0  0  0  0  0  0  0  0  0  0  0  0
   -0.2152    2.5725   -0.7010 H   0  0  0  0  0  0  0  0  0  0  0  0
    3.4027   -0.8719    1.1921 H   0  0  0  0  0  0  0  0  0  0  0  0
   -4.8869   -2.2782    0.2803 H   0  0  0  0  0  0  0  0  0  0  0  0
   -5.3707    1.6888   -1.3380 H   0  0  0  0  0  0  0  0  0  0  0  0
   -7.2656   -2.2888    0.9456 H   0  0  0  0  0  0  0  0  0  0  0  0
   -7.7477    1.6644   -0.6670 H   0  0  0  0  0  0  0  0  0  0  0  0
    6.0289    1.2990   -1.6970 H   0  0  0  0  0  0  0  0  0  0  0  0
    5.3390   -1.3024    1.6941 H   0  0  0  0  0  0  0  0  0  0  0  0
    8.0987    0.0602   -2.1964 H   0  0  0  0  0  0  0  0  0  0  0  0
    7.3818   -2.5281    1.1576 H   0  0  0  0  0  0  0  0  0  0  0  0
    8.7813   -1.8566   -0.7771 H   0  0  0  0  0  0  0  0  0  0  0  0
  1 20  1  0  0  0  0
  2  9  1  0  0  0  0
  2 10  1  0  0  0  0
  3  8  1  0  0  0  0
  3 36  1  0  0  0  0
  4 14  2  0  0  0  0
  5  7  1  0  0  0  0
  5 12  1  0  0  0  0
  5 33  1  0  0  0  0
  6 11  1  0  0  0  0
  6 14  1  0  0  0  0
  6 37  1  0  0  0  0
  7  8  1  0  0  0  0
  7 10  1  0  0  0  0
  7 26  1  0  0  0  0
  8  9  1  0  0  0  0
  8 27  1  0  0  0  0
  9 11  1  0  0  0  0
  9 28  1  0  0  0  0
 10 29  1  0  0  0  0
 10 30  1  0  0  0  0
 11 31  1  0  0  0  0
 11 32  1  0  0  0  0
 12 13  1  0  0  0  0
 12 34  1  0  0  0  0
 12 35  1  0  0  0  0
 13 15  2  0  0  0  0
 13 16  1  0  0  0  0
 14 17  1  0  0  0  0
 15 18  1  0  0  0  0
 15 38  1  0  0  0  0
 16 19  2  0  0  0  0
 16 39  1  0  0  0  0
 17 21  2  0  0  0  0
 17 22  1  0  0  0  0
 18 20  2  0  0  0  0
 18 40  1  0  0  0  0
 19 20  1  0  0  0  0
 19 41  1  0  0  0  0
 21 23  1  0  0  0  0
 21 42  1  0  0  0  0
 22 24  2  0  0  0  0
 22 43  1  0  0  0  0
 23 25  2  0  0  0  0
 23 44  1  0  0  0  0
 24 25  1  0  0  0  0
 24 45  1  0  0  0  0
 25 46  1  0  0  0  0
M  END
> <PUBCHEM_COMPOUND_CID>
75536621

> <PUBCHEM_CONFORMER_RMSD>
0.8

> <PUBCHEM_CONFORMER_DIVERSEORDER>
1
287
88
154
120
79
227
89
200
277
164
192
269
94
178
173
187
221
224
70
172
12
262
105
212
161
285
207
28
155
84
186
276
205
21
214
243
193
244
206
72
45
129
114
64
163
138
35
293
145
233
279
297
10
176
268
22
292
152
20
229
256
189
220
73
158
239
80
49
281
294
61
273
231
295
13
249
284
210
5
63
81
55
179
66
184
38
286
121
195
167
177
59
254
251
90
201
271
25
93
9
44
264
123
247
97
75
302
253
109
26
77
238
191
278
58
19
182
304
111
103
153
259
299
53
274
242
190
4
250
137
301
146
43
139
265
91
27
235
31
157
289
124
150
203
188
118
116
85
290
217
37
141
14
140
236
136
204
166
266
305
168
180
282
252
255
194
298
41
39
288
65
106
165
32
47
275
280
92
33
272
160
234
267
23
115
148
128
131
300
261
11
257
240
213
246
29
110
30
223
291
296
226
95
270
86
101
232
108
208
225
171
119
197
50
237
202
69
219
42
133
196
156
96
8
258
151
260
175
134
241
83
248
159
76
209
143
3
263
199
222
185
135
102
303
34
183
46
67
142
60
283
170
104
125
36
57
17
18
149
2
56
24
132
144
71
218
162
48
51
113
100
82
6
174
122
126
127
245
117
99
78
215
87
98
54
52
169
228
74
62
230
211
181
112
16
107
7
130
15
147
216
198
68
40

> <PUBCHEM_MMFF94_PARTIAL_CHARGES>
37
1 -0.19
10 0.28
11 0.3
12 0.41
13 -0.14
14 0.54
15 -0.15
16 -0.15
17 0.09
18 -0.15
19 -0.15
2 -0.56
20 0.19
21 -0.15
22 -0.15
23 -0.15
24 -0.15
25 -0.15
3 -0.68
33 0.36
36 0.4
37 0.37
38 0.15
39 0.15
4 -0.57
40 0.15
41 0.15
42 0.15
43 0.15
44 0.15
45 0.15
46 0.15
5 -0.9
6 -0.73
7 0.27
8 0.28
9 0.28

> <PUBCHEM_EFFECTIVE_ROTOR_COUNT>
8

> <PUBCHEM_PHARMACOPHORE_FEATURES>
10
1 2 acceptor
1 3 acceptor
1 3 donor
1 4 acceptor
1 5 cation
1 5 donor
1 6 donor
5 2 7 8 9 10 rings
6 13 15 16 18 19 20 rings
6 17 21 22 23 24 25 rings

> <PUBCHEM_HEAVY_ATOM_COUNT>
25

> <PUBCHEM_ATOM_DEF_STEREO_COUNT>
3

> <PUBCHEM_ATOM_UDEF_STEREO_COUNT>
0

> <PUBCHEM_BOND_DEF_STEREO_COUNT>
0

> <PUBCHEM_BOND_UDEF_STEREO_COUNT>
0

> <PUBCHEM_ISOTOPIC_ATOM_COUNT>
0

> <PUBCHEM_COMPONENT_COUNT>
1

> <PUBCHEM_CACTVS_TAUTO_COUNT>
2

> <PUBCHEM_CONFORMER_ID>
048098ED00000001

> <PUBCHEM_MMFF94_ENERGY>
57.4298

> <PUBCHEM_FEATURE_SELFOVERLAP>
50.747

> <PUBCHEM_SHAPE_FINGERPRINT>
10 15 10159695798425508916
10162869 55 8790592685663104027
10299344 5 18187082849580604491
11135609 127 17096379479361080028
11135926 11 17418088794318624943
11315181 36 11530480018282453695
11524674 6 17346313825918805031
11638347 137 12535634864823480724
12166972 35 18113337526827542276
125118 31 10231762201494745274
12592606 108 18342453781614508087
13533116 47 16878210979677242720
13673619 4 17989485212801743480
13685833 64 17847059987319621802
13914758 101 14908187442990293555
14216079 64 17846782884519632294
14251752 14 18342453729415361445
14251764 18 11239994555480099882
14344974 204 17984138434175926719
14347424 109 15554440825938751842
14856354 85 18040718091517652847
14933364 13 18186517713536178957
15131766 46 12893345657077964906
15183329 4 17775567533093592086
15461852 350 11819284360488259633
15849732 13 17530685419973309982
16090146 7 16950579743890173704
16120349 18 10303805475800368146
17093844 174 12823294611878565583
18365409 1 15357993303211458307
20157964 124 8070036579627796848
21095086 128 17458061560346238323
21150785 3 17022621974909146078
21267235 1 18411982455357426368
21365058 27 16298104285518637067
21403212 168 14764630798183713397
21781051 124 18409735092551367962
21792934 111 17632286878464476736
21792961 116 18339072701696514029
220451 1 17095232627580237603
221357 26 17676204655261473140
22224240 67 11746936494726620136
23035841 295 18342454855081836779
232437 2 18409167728246863131
246663 6 18341896289899706066
24771293 8 11386363712291884519
249057 3 15502383352230438051
28498 318 17632860806496315004
3004659 81 18412542120457334296
328311 84 18413108372507363687
34797466 226 16515404066997954390
4107672 100 17968651623803258101
4325135 7 16298104294008155495
4339292 15 10015281548622173597
439807 62 18410293584687184974
444769 64 17704068512859703343
5470011 282 17967255299907097166
5758199 1 13767924598758687537
59682541 35 12035456030115953197
59755656 215 18202001005976522310
6394761 36 17775849012629027007
6438161 24 18335413544669950146

> <PUBCHEM_SHAPE_MULTIPOLES>
479.64
27.79
1.59
1.03
9.39
0.26
0.06
-8.92
3.47
-0.69
-0.17
-0.93
0.03
0.33

> <PUBCHEM_SHAPE_SELFOVERLAP>
1019.102

> <PUBCHEM_SHAPE_VOLUME>
268.3

> <PUBCHEM_COORDINATE_TYPE>
2
5
10

$$$$
