11865718
  -OEChem-12032416113D

 45 46  0     1  0  0  0  0  0999 V2000
   -4.1796   -3.2889    0.9751 Br  0  0  0  0  0  0  0  0  0  0  0  0
    0.5214    1.3027    2.1445 O   0  0  0  0  0  0  0  0  0  0  0  0
    1.6909    3.8459   -0.2107 O   0  0  0  0  0  0  0  0  0  0  0  0
    3.6916   -0.5442   -1.9482 O   0  0  0  0  0  0  0  0  0  0  0  0
   -2.5976    1.6781   -0.7111 O   0  0  0  0  0  0  0  0  0  0  0  0
    5.2038   -2.5662    1.2093 O   0  0  0  0  0  0  0  0  0  0  0  0
   -0.8755    0.2980   -0.0220 N   0  0  0  0  0  0  0  0  0  0  0  0
    4.8277   -0.0819    0.0343 N   0  0  0  0  0  0  0  0  0  0  0  0
   -3.0281   -0.4991    0.0541 N   0  0  0  0  0  0  0  0  0  0  0  0
    6.6581   -3.1315   -0.4794 N   0  0  0  0  0  0  0  0  0  0  0  0
    0.4627    2.1186    0.9725 C   0  0  2  0  0  0  0  0  0  0  0  0
    0.1959    1.2340   -0.2604 C   0  0  1  0  0  0  0  0  0  0  0  0
    1.7843    2.8852    0.8392 C   0  0  1  0  0  0  0  0  0  0  0  0
    2.9763    1.9453    0.5898 C   0  0  0  0  0  0  0  0  0  0  0  0
    2.6507    0.7999   -0.3264 C   0  0  0  0  0  0  0  0  0  0  0  0
    1.4107    0.4754   -0.7221 C   0  0  0  0  0  0  0  0  0  0  0  0
    3.7594   -0.0081   -0.8426 C   0  0  0  0  0  0  0  0  0  0  0  0
   -2.2208    0.5949   -0.2701 C   0  0  0  0  0  0  0  0  0  0  0  0
    6.0347   -0.8235   -0.2524 C   0  0  0  0  0  0  0  0  0  0  0  0
   -4.4347   -0.6016   -0.0517 C   0  0  0  0  0  0  0  0  0  0  0  0
    5.8903   -2.2438    0.2434 C   0  0  0  0  0  0  0  0  0  0  0  0
   -5.0961   -1.7641    0.3132 C   0  0  0  0  0  0  0  0  0  0  0  0
   -5.1290    0.4987   -0.5330 C   0  0  0  0  0  0  0  0  0  0  0  0
   -6.4846   -1.8285    0.1945 C   0  0  0  0  0  0  0  0  0  0  0  0
   -6.5174    0.4342   -0.6517 C   0  0  0  0  0  0  0  0  0  0  0  0
   -7.1951   -0.7294   -0.2881 C   0  0  0  0  0  0  0  0  0  0  0  0
   -0.3762    2.8137    1.0984 H   0  0  0  0  0  0  0  0  0  0  0  0
   -0.1051    1.8829   -1.0933 H   0  0  0  0  0  0  0  0  0  0  0  0
    1.9868    3.4442    1.7610 H   0  0  0  0  0  0  0  0  0  0  0  0
    3.8120    2.5255    0.1801 H   0  0  0  0  0  0  0  0  0  0  0  0
    3.2789    1.5426    1.5641 H   0  0  0  0  0  0  0  0  0  0  0  0
    1.2437   -0.3503   -1.4104 H   0  0  0  0  0  0  0  0  0  0  0  0
   -0.6520   -0.6008    0.3953 H   0  0  0  0  0  0  0  0  0  0  0  0
    0.6625    1.8925    2.9046 H   0  0  0  0  0  0  0  0  0  0  0  0
    0.9413    4.4306   -0.0068 H   0  0  0  0  0  0  0  0  0  0  0  0
    4.7821    0.3488    0.9504 H   0  0  0  0  0  0  0  0  0  0  0  0
   -2.5571   -1.3272    0.4096 H   0  0  0  0  0  0  0  0  0  0  0  0
    6.8655   -0.3450    0.2741 H   0  0  0  0  0  0  0  0  0  0  0  0
    6.2258   -0.8034   -1.3300 H   0  0  0  0  0  0  0  0  0  0  0  0
   -4.6927    1.4368   -0.8378 H   0  0  0  0  0  0  0  0  0  0  0  0
   -7.0306   -2.7264    0.4727 H   0  0  0  0  0  0  0  0  0  0  0  0
   -7.0723    1.2891   -1.0272 H   0  0  0  0  0  0  0  0  0  0  0  0
   -8.2761   -0.7794   -0.3806 H   0  0  0  0  0  0  0  0  0  0  0  0
    7.2362   -2.8425   -1.2619 H   0  0  0  0  0  0  0  0  0  0  0  0
    6.6688   -4.1192   -0.2471 H   0  0  0  0  0  0  0  0  0  0  0  0
  1 22  1  0  0  0  0
  2 11  1  0  0  0  0
  2 34  1  0  0  0  0
  3 13  1  0  0  0  0
  3 35  1  0  0  0  0
  4 17  2  0  0  0  0
  5 18  2  0  0  0  0
  6 21  2  0  0  0  0
  7 12  1  0  0  0  0
  7 18  1  0  0  0  0
  7 33  1  0  0  0  0
  8 17  1  0  0  0  0
  8 19  1  0  0  0  0
  8 36  1  0  0  0  0
  9 18  1  0  0  0  0
  9 20  1  0  0  0  0
  9 37  1  0  0  0  0
 10 21  1  0  0  0  0
 10 44  1  0  0  0  0
 10 45  1  0  0  0  0
 11 12  1  0  0  0  0
 11 13  1  0  0  0  0
 11 27  1  0  0  0  0
 12 16  1  0  0  0  0
 12 28  1  0  0  0  0
 13 14  1  0  0  0  0
 13 29  1  0  0  0  0
 14 15  1  0  0  0  0
 14 30  1  0  0  0  0
 14 31  1  0  0  0  0
 15 16  2  0  0  0  0
 15 17  1  0  0  0  0
 16 32  1  0  0  0  0
 19 21  1  0  0  0  0
 19 38  1  0  0  0  0
 19 39  1  0  0  0  0
 20 22  1  0  0  0  0
 20 23  2  0  0  0  0
 22 24  2  0  0  0  0
 23 25  1  0  0  0  0
 23 40  1  0  0  0  0
 24 26  1  0  0  0  0
 24 41  1  0  0  0  0
 25 26  2  0  0  0  0
 25 42  1  0  0  0  0
 26 43  1  0  0  0  0
M  END
> <PUBCHEM_COMPOUND_CID>
11865718

> <PUBCHEM_CONFORMER_RMSD>
1

> <PUBCHEM_CONFORMER_DIVERSEORDER>
1
102
32
48
79
24
9
19
97
63
46
93
44
71
11
101
27
8
57
67
98
33
49
103
6
69
89
95
29
62
14
82
21
66
35
59
28
13
70
38
72
5
92
36
90
31
81
73
91
12
4
80
26
40
15
99
39
88
77
61
18
60
85
75
23
56
64
47
55
87
22
30
83
58
34
100
41
52
10
54
104
20
53
94
43
2
17
78
7
51
86
25
96
45
37
3
50
16
74
84
42
76
65
68

> <PUBCHEM_MMFF94_PARTIAL_CHARGES>
38
1 -0.11
10 -0.8
11 0.28
12 0.44
13 0.28
14 0.14
15 -0.12
16 -0.29
17 0.62
18 0.69
19 0.36
2 -0.68
20 0.12
21 0.57
22 0.11
23 -0.15
24 -0.15
25 -0.15
26 -0.15
3 -0.68
32 0.15
33 0.37
34 0.4
35 0.4
36 0.37
37 0.37
4 -0.57
40 0.15
41 0.15
42 0.15
43 0.15
44 0.37
45 0.37
5 -0.57
6 -0.57
7 -0.73
8 -0.73
9 -0.55

> <PUBCHEM_EFFECTIVE_ROTOR_COUNT>
8.8

> <PUBCHEM_PHARMACOPHORE_FEATURES>
14
1 1 hydrophobe
1 10 donor
1 2 acceptor
1 2 donor
1 3 acceptor
1 3 donor
1 4 acceptor
1 5 acceptor
1 6 acceptor
1 7 donor
1 8 donor
1 9 donor
6 11 12 13 14 15 16 rings
6 20 22 23 24 25 26 rings

> <PUBCHEM_HEAVY_ATOM_COUNT>
26

> <PUBCHEM_ATOM_DEF_STEREO_COUNT>
3

> <PUBCHEM_ATOM_UDEF_STEREO_COUNT>
0

> <PUBCHEM_BOND_DEF_STEREO_COUNT>
0

> <PUBCHEM_BOND_UDEF_STEREO_COUNT>
0

> <PUBCHEM_ISOTOPIC_ATOM_COUNT>
0

> <PUBCHEM_COMPONENT_COUNT>
1

> <PUBCHEM_CACTVS_TAUTO_COUNT>
12

> <PUBCHEM_CONFORMER_ID>
00B50E7600000001

> <PUBCHEM_MMFF94_ENERGY>
59.5527

> <PUBCHEM_FEATURE_SELFOVERLAP>
71.107

> <PUBCHEM_SHAPE_FINGERPRINT>
10673678 19 17829339330035380028
11135609 99 18409446961050718166
11524674 6 17846779620482235575
11796584 16 18335140899085703023
12166972 35 18187369805341539892
12616971 3 17274542135358895877
12760667 363 18413670193316831359
13782708 43 18411417345557642911
13955234 65 18055351598413222576
14251751 18 18409168830813716183
14420673 8 18407762543300985979
15183329 4 17894630331535105747
15510800 12 18130233649113124798
17134984 74 17603587422431621794
17844677 252 18337396045496738837
1979834 28 16845300427604593974
20567600 70 18411136944275536586
21033650 10 16660919977280187509
21130935 74 18196376038740777267
21315764 119 17749106669343624351
21344244 78 16630527344925044048
23522609 53 18121533264863072133
23559900 14 18336824307876504689
23569943 247 18335981983296761691
239999 70 18338234989209694649
29717793 49 17240205430441308486
3004659 81 18040434374093337786
316301 35 18337672034987627906
32027 91 18410571816494030499
4073 2 18044658830689264867
439807 62 18333733502896046919
465052 167 18272370863183491318
5104073 3 17989491822534840273
5718773 13 18339078190628139166
59682541 35 18272638062321932722
636775 8 18198913514194182174
6437827 68 18334577949269854155
6695519 79 17045442604794688497
7495541 125 18410858797339285381
7970288 3 18339079290155838058
8863177 126 18338519762863719887

> <PUBCHEM_SHAPE_MULTIPOLES>
491.74
18.85
3.64
1.15
7.63
0.66
0.18
16.63
-2.18
-3.71
1.1
-0.65
-0.07
1.4

> <PUBCHEM_SHAPE_SELFOVERLAP>
1016.145

> <PUBCHEM_SHAPE_VOLUME>
283.7

> <PUBCHEM_COORDINATE_TYPE>
2
5
10

$$$$
