7142825
  -OEChem-12032416203D

 49 53  0     1  0  0  0  0  0999 V2000
   -0.8331   -1.2454    2.0200 O   0  0  0  0  0  0  0  0  0  0  0  0
   -3.1114    0.7671   -1.7574 O   0  0  0  0  0  0  0  0  0  0  0  0
    3.6339   -0.1094    0.0032 N   0  0  0  0  0  0  0  0  0  0  0  0
    0.8622   -1.6397    0.4610 N   0  0  0  0  0  0  0  0  0  0  0  0
    4.0060    1.9356   -1.1135 N   0  0  0  0  0  0  0  0  0  0  0  0
    3.9774    1.8357    1.2940 N   0  0  0  0  0  0  0  0  0  0  0  0
   -2.6668   -0.5842    0.0829 N   0  0  0  0  0  0  0  0  0  0  0  0
   -7.3609    1.0158    0.7918 N   0  0  0  0  0  0  0  0  0  0  0  0
    3.2435   -2.2897    1.1365 C   0  0  1  0  0  0  0  0  0  0  0  0
    2.6810   -2.0298   -1.2374 C   0  0  2  0  0  0  0  0  0  0  0  0
    3.2968   -2.9822   -0.2175 C   0  0  0  0  0  0  0  0  0  0  0  0
    4.0452   -0.9742    1.1140 C   0  0  0  0  0  0  0  0  0  0  0  0
    1.7764   -2.0693    1.5261 C   0  0  0  0  0  0  0  0  0  0  0  0
    3.5253   -0.7429   -1.3192 C   0  0  0  0  0  0  0  0  0  0  0  0
    1.2461   -1.6873   -0.8821 C   0  0  0  0  0  0  0  0  0  0  0  0
    0.3574   -1.4038   -1.8493 C   0  0  0  0  0  0  0  0  0  0  0  0
   -0.4444   -1.2834    0.8518 C   0  0  0  0  0  0  0  0  0  0  0  0
    3.8808    1.2649    0.0632 C   0  0  0  0  0  0  0  0  0  0  0  0
   -1.3969   -0.9493   -0.2543 C   0  0  0  0  0  0  0  0  0  0  0  0
   -0.9895   -1.0259   -1.5257 C   0  0  0  0  0  0  0  0  0  0  0  0
    4.2431    3.2605   -1.0188 C   0  0  0  0  0  0  0  0  0  0  0  0
    4.2153    3.1636    1.3148 C   0  0  0  0  0  0  0  0  0  0  0  0
   -3.4526    0.2569   -0.6931 C   0  0  0  0  0  0  0  0  0  0  0  0
    4.3589    3.9348    0.1795 C   0  0  0  0  0  0  0  0  0  0  0  0
   -4.8194    0.5225   -0.1738 C   0  0  0  0  0  0  0  0  0  0  0  0
   -5.8196    0.8380   -1.0624 C   0  0  0  0  0  0  0  0  0  0  0  0
   -5.0441    0.4445    1.1800 C   0  0  0  0  0  0  0  0  0  0  0  0
   -7.0758    1.0763   -0.5284 C   0  0  0  0  0  0  0  0  0  0  0  0
   -6.3350    0.7005    1.6137 C   0  0  0  0  0  0  0  0  0  0  0  0
    3.7008   -2.9373    1.8953 H   0  0  0  0  0  0  0  0  0  0  0  0
    2.7072   -2.5204   -2.2195 H   0  0  0  0  0  0  0  0  0  0  0  0
    2.7467   -3.9312   -0.1888 H   0  0  0  0  0  0  0  0  0  0  0  0
    4.3330   -3.2187   -0.4878 H   0  0  0  0  0  0  0  0  0  0  0  0
    3.9148   -0.4787    2.0834 H   0  0  0  0  0  0  0  0  0  0  0  0
    5.1147   -1.1976    1.0098 H   0  0  0  0  0  0  0  0  0  0  0  0
    1.7014   -1.3597    2.3597 H   0  0  0  0  0  0  0  0  0  0  0  0
    1.3669   -3.0175    1.9011 H   0  0  0  0  0  0  0  0  0  0  0  0
    4.5311   -0.9759   -1.6917 H   0  0  0  0  0  0  0  0  0  0  0  0
    3.0552   -0.0739   -2.0514 H   0  0  0  0  0  0  0  0  0  0  0  0
    0.6330   -1.4276   -2.8985 H   0  0  0  0  0  0  0  0  0  0  0  0
   -1.6313   -0.8599   -2.3822 H   0  0  0  0  0  0  0  0  0  0  0  0
   -2.9567   -0.8447    1.0194 H   0  0  0  0  0  0  0  0  0  0  0  0
    4.3408    3.7824   -1.9646 H   0  0  0  0  0  0  0  0  0  0  0  0
    4.2902    3.6055    2.3027 H   0  0  0  0  0  0  0  0  0  0  0  0
    4.5495    4.9985    0.2259 H   0  0  0  0  0  0  0  0  0  0  0  0
   -5.6614    0.8988   -2.1328 H   0  0  0  0  0  0  0  0  0  0  0  0
   -4.2841    0.2406    1.9231 H   0  0  0  0  0  0  0  0  0  0  0  0
   -7.9134    1.3290   -1.1703 H   0  0  0  0  0  0  0  0  0  0  0  0
   -6.5835    0.6672    2.6695 H   0  0  0  0  0  0  0  0  0  0  0  0
  1 17  2  0  0  0  0
  2 23  2  0  0  0  0
  3 12  1  0  0  0  0
  3 14  1  0  0  0  0
  3 18  1  0  0  0  0
  4 13  1  0  0  0  0
  4 15  1  0  0  0  0
  4 17  1  0  0  0  0
  5 18  2  0  0  0  0
  5 21  1  0  0  0  0
  6 18  1  0  0  0  0
  6 22  2  0  0  0  0
  7 19  1  0  0  0  0
  7 23  1  0  0  0  0
  7 42  1  0  0  0  0
  8 28  2  0  0  0  0
  8 29  1  0  0  0  0
  9 11  1  0  0  0  0
  9 12  1  0  0  0  0
  9 13  1  0  0  0  0
  9 30  1  0  0  0  0
 10 11  1  0  0  0  0
 10 14  1  0  0  0  0
 10 15  1  0  0  0  0
 10 31  1  0  0  0  0
 11 32  1  0  0  0  0
 11 33  1  0  0  0  0
 12 34  1  0  0  0  0
 12 35  1  0  0  0  0
 13 36  1  0  0  0  0
 13 37  1  0  0  0  0
 14 38  1  0  0  0  0
 14 39  1  0  0  0  0
 15 16  2  0  0  0  0
 16 20  1  0  0  0  0
 16 40  1  0  0  0  0
 17 19  1  0  0  0  0
 19 20  2  0  0  0  0
 20 41  1  0  0  0  0
 21 24  2  0  0  0  0
 21 43  1  0  0  0  0
 22 24  1  0  0  0  0
 22 44  1  0  0  0  0
 23 25  1  0  0  0  0
 24 45  1  0  0  0  0
 25 26  2  0  0  0  0
 25 27  1  0  0  0  0
 26 28  1  0  0  0  0
 26 46  1  0  0  0  0
 27 29  2  0  0  0  0
 27 47  1  0  0  0  0
 28 48  1  0  0  0  0
 29 49  1  0  0  0  0
M  END
> <PUBCHEM_COMPOUND_CID>
7142825

> <PUBCHEM_CONFORMER_RMSD>
0.8

> <PUBCHEM_CONFORMER_DIVERSEORDER>
1
6
3
2
4
5

> <PUBCHEM_MMFF94_PARTIAL_CHARGES>
37
1 -0.57
10 0.14
12 0.37
13 0.3
14 0.37
15 -0.03
16 -0.15
17 0.62
18 0.72
19 0.12
2 -0.57
20 -0.15
21 0.16
22 0.16
23 0.54
24 -0.15
25 0.09
26 -0.15
27 -0.15
28 0.16
29 0.16
3 -0.84
4 -0.47
40 0.15
41 0.15
42 0.37
43 0.15
44 0.15
45 0.15
46 0.15
47 0.15
48 0.15
49 0.15
5 -0.62
6 -0.62
7 -0.54
8 -0.62

> <PUBCHEM_EFFECTIVE_ROTOR_COUNT>
5

> <PUBCHEM_PHARMACOPHORE_FEATURES>
11
1 1 acceptor
1 2 acceptor
1 6 acceptor
1 7 donor
1 8 acceptor
4 3 5 6 18 cation
6 3 9 10 11 12 14 rings
6 4 15 16 17 19 20 rings
6 4 9 10 11 13 15 rings
6 5 6 18 21 22 24 rings
6 8 25 26 27 28 29 rings

> <PUBCHEM_HEAVY_ATOM_COUNT>
29

> <PUBCHEM_ATOM_DEF_STEREO_COUNT>
2

> <PUBCHEM_ATOM_UDEF_STEREO_COUNT>
0

> <PUBCHEM_BOND_DEF_STEREO_COUNT>
0

> <PUBCHEM_BOND_UDEF_STEREO_COUNT>
0

> <PUBCHEM_ISOTOPIC_ATOM_COUNT>
0

> <PUBCHEM_COMPONENT_COUNT>
1

> <PUBCHEM_CACTVS_TAUTO_COUNT>
2

> <PUBCHEM_CONFORMER_ID>
006CFDA900000001

> <PUBCHEM_MMFF94_ENERGY>
98.1936

> <PUBCHEM_FEATURE_SELFOVERLAP>
57.379

> <PUBCHEM_SHAPE_FINGERPRINT>
10165383 225 17603878801813776982
10638233 991 18202004305334435705
10673678 19 18060142063348108277
10675989 125 18201437047023168528
10816530 23 18411421739088433251
11505856 67 17470742464383298022
11578080 2 18189350102523227483
12166972 35 17844810291650054170
12422481 6 15285624500480898971
12633257 1 16444455979129668052
13878862 14 18263625330015431181
13955234 65 18263079920724848739
14251740 57 11602805896798885584
14251764 75 18196654205770087656
14347332 77 7853580102229146967
14849402 71 18334010593328034448
15183329 4 12823294585824113251
15348495 7 18186526492845120523
15510800 12 10303819795416752660
16992828 155 14028258595372458144
17844677 252 18266459807062887885
18335252 114 18273496750094733860
19438510 23 18198336450202369632
21285901 2 13110958708612421882
21475661 188 18262519311849668236
21641784 216 16343431618124402761
21792934 111 17168432559404560693
22122407 14 18339933602279930153
23522609 53 17131288900175030889
23559900 14 17386300804319982287
23569914 152 10084868397765104281
249057 3 18272373027705389438
2838139 119 18341606036094511573
3004659 81 16486975020813936814
3411729 13 18410855485929990932
34797466 226 18343588413337465623
394071 54 18411142433006442125
397830 11 18261120707663971219
44317340 157 18412831287419876195
4625314 4 18341332202903623327
495365 180 18186522085850342122
5104073 3 18333730243221825491
513532 50 15554437531403488600
57359948 33 13326854418027371626
5951187 136 16558176237660588680
59682541 52 9727630579999108529
9849439 229 18124867117631272584

> <PUBCHEM_SHAPE_MULTIPOLES>
555.18
15.73
3.67
1.78
30.56
2.84
-0.08
12.1
-2.13
-8.55
-0.24
0.12
-0.28
-0.07

> <PUBCHEM_SHAPE_SELFOVERLAP>
1229.796

> <PUBCHEM_SHAPE_VOLUME>
287.3

> <PUBCHEM_COORDINATE_TYPE>
2
5
10

$$$$
