26743330
  -OEChem-12032416263D

 54 56  0     1  0  0  0  0  0999 V2000
   -0.7916    1.5133    1.1103 O   0  0  0  0  0  0  0  0  0  0  0  0
    7.2677    1.1462   -1.8404 O   0  0  0  0  0  0  0  0  0  0  0  0
    7.2141    1.1763    0.4350 O   0  0  0  0  0  0  0  0  0  0  0  0
    3.4150   -2.7435    0.4455 N   0  0  0  0  0  0  0  0  0  0  0  0
    0.5877    1.6747    1.0613 N   0  0  0  0  0  0  0  0  0  0  0  0
    3.1446   -0.2758    0.3893 C   0  0  2  0  0  0  0  0  0  0  0  0
    4.6749   -0.0759    0.5009 C   0  0  1  0  0  0  0  0  0  0  0  0
    5.2953   -1.3143    1.1692 C   0  0  0  0  0  0  0  0  0  0  0  0
    2.7938   -1.6237   -0.2628 C   0  0  0  0  0  0  0  0  0  0  0  0
    2.4418    0.8716   -0.3375 C   0  0  0  0  0  0  0  0  0  0  0  0
    4.8701   -2.6168    0.4927 C   0  0  0  0  0  0  0  0  0  0  0  0
    5.3637    0.2257   -0.8354 C   0  0  0  0  0  0  0  0  0  0  0  0
    0.9854    0.9361    0.0214 C   0  0  0  0  0  0  0  0  0  0  0  0
    6.6965    0.8927   -0.6348 C   0  0  0  0  0  0  0  0  0  0  0  0
   -0.0882    0.2920   -0.6175 C   0  0  0  0  0  0  0  0  0  0  0  0
   -1.1822    0.6879    0.1058 C   0  0  0  0  0  0  0  0  0  0  0  0
   -6.7925   -0.3583   -0.1999 C   0  0  0  0  0  0  0  0  0  0  0  0
   -5.3284   -0.0853   -0.1199 C   0  0  0  0  0  0  0  0  0  0  0  0
   -2.5900    0.4259    0.0289 C   0  0  0  0  0  0  0  0  0  0  0  0
   -7.0928   -1.8818   -0.0487 C   0  0  0  0  0  0  0  0  0  0  0  0
   -7.3801    0.1033   -1.5695 C   0  0  0  0  0  0  0  0  0  0  0  0
   -7.6677    0.3484    0.8879 C   0  0  0  0  0  0  0  0  0  0  0  0
   -4.4594   -0.6659   -1.0436 C   0  0  0  0  0  0  0  0  0  0  0  0
   -4.8283    0.7509    0.8784 C   0  0  0  0  0  0  0  0  0  0  0  0
   -3.0902   -0.4103   -0.9692 C   0  0  0  0  0  0  0  0  0  0  0  0
   -3.4591    1.0064    0.9528 C   0  0  0  0  0  0  0  0  0  0  0  0
    2.7658   -0.3092    1.4231 H   0  0  0  0  0  0  0  0  0  0  0  0
    4.8357    0.7786    1.1731 H   0  0  0  0  0  0  0  0  0  0  0  0
    4.9784   -1.3422    2.2207 H   0  0  0  0  0  0  0  0  0  0  0  0
    6.3890   -1.2513    1.1829 H   0  0  0  0  0  0  0  0  0  0  0  0
    1.7131   -1.7907   -0.2386 H   0  0  0  0  0  0  0  0  0  0  0  0
    3.0941   -1.6373   -1.3179 H   0  0  0  0  0  0  0  0  0  0  0  0
    2.5351    0.7706   -1.4258 H   0  0  0  0  0  0  0  0  0  0  0  0
    2.9052    1.8295   -0.0672 H   0  0  0  0  0  0  0  0  0  0  0  0
    5.2918   -2.6973   -0.5152 H   0  0  0  0  0  0  0  0  0  0  0  0
    5.2734   -3.4590    1.0663 H   0  0  0  0  0  0  0  0  0  0  0  0
    5.5085   -0.6786   -1.4332 H   0  0  0  0  0  0  0  0  0  0  0  0
    4.7710    0.9303   -1.4266 H   0  0  0  0  0  0  0  0  0  0  0  0
    3.1674   -3.6162   -0.0199 H   0  0  0  0  0  0  0  0  0  0  0  0
   -0.0608   -0.3597   -1.4786 H   0  0  0  0  0  0  0  0  0  0  0  0
    8.1414    1.5821   -1.7465 H   0  0  0  0  0  0  0  0  0  0  0  0
   -8.1703   -2.0808   -0.0787 H   0  0  0  0  0  0  0  0  0  0  0  0
   -6.6333   -2.4710   -0.8499 H   0  0  0  0  0  0  0  0  0  0  0  0
   -6.7065   -2.2620    0.9044 H   0  0  0  0  0  0  0  0  0  0  0  0
   -8.4613   -0.0704   -1.6184 H   0  0  0  0  0  0  0  0  0  0  0  0
   -7.2037    1.1738   -1.7277 H   0  0  0  0  0  0  0  0  0  0  0  0
   -6.9284   -0.4338   -2.4107 H   0  0  0  0  0  0  0  0  0  0  0  0
   -8.7288    0.1000    0.7636 H   0  0  0  0  0  0  0  0  0  0  0  0
   -7.3821    0.0354    1.8990 H   0  0  0  0  0  0  0  0  0  0  0  0
   -7.5848    1.4397    0.8235 H   0  0  0  0  0  0  0  0  0  0  0  0
   -4.8220   -1.3208   -1.8308 H   0  0  0  0  0  0  0  0  0  0  0  0
   -5.4586    1.2275    1.6210 H   0  0  0  0  0  0  0  0  0  0  0  0
   -2.4380   -0.8772   -1.7029 H   0  0  0  0  0  0  0  0  0  0  0  0
   -3.1071    1.6630    1.7445 H   0  0  0  0  0  0  0  0  0  0  0  0
  1  5  1  0  0  0  0
  1 16  1  0  0  0  0
  2 14  1  0  0  0  0
  2 41  1  0  0  0  0
  3 14  2  0  0  0  0
  4  9  1  0  0  0  0
  4 11  1  0  0  0  0
  4 39  1  0  0  0  0
  5 13  2  0  0  0  0
  6  7  1  0  0  0  0
  6  9  1  0  0  0  0
  6 10  1  0  0  0  0
  6 27  1  0  0  0  0
  7  8  1  0  0  0  0
  7 12  1  0  0  0  0
  7 28  1  0  0  0  0
  8 11  1  0  0  0  0
  8 29  1  0  0  0  0
  8 30  1  0  0  0  0
  9 31  1  0  0  0  0
  9 32  1  0  0  0  0
 10 13  1  0  0  0  0
 10 33  1  0  0  0  0
 10 34  1  0  0  0  0
 11 35  1  0  0  0  0
 11 36  1  0  0  0  0
 12 14  1  0  0  0  0
 12 37  1  0  0  0  0
 12 38  1  0  0  0  0
 13 15  1  0  0  0  0
 15 16  2  0  0  0  0
 15 40  1  0  0  0  0
 16 19  1  0  0  0  0
 17 18  1  0  0  0  0
 17 20  1  0  0  0  0
 17 21  1  0  0  0  0
 17 22  1  0  0  0  0
 18 23  2  0  0  0  0
 18 24  1  0  0  0  0
 19 25  2  0  0  0  0
 19 26  1  0  0  0  0
 20 42  1  0  0  0  0
 20 43  1  0  0  0  0
 20 44  1  0  0  0  0
 21 45  1  0  0  0  0
 21 46  1  0  0  0  0
 21 47  1  0  0  0  0
 22 48  1  0  0  0  0
 22 49  1  0  0  0  0
 22 50  1  0  0  0  0
 23 25  1  0  0  0  0
 23 51  1  0  0  0  0
 24 26  2  0  0  0  0
 24 52  1  0  0  0  0
 25 53  1  0  0  0  0
 26 54  1  0  0  0  0
M  END
> <PUBCHEM_COMPOUND_CID>
26743330

> <PUBCHEM_CONFORMER_RMSD>
0.8

> <PUBCHEM_CONFORMER_DIVERSEORDER>
1
153
161
82
30
124
98
158
88
87
146
175
73
101
163
81
52
71
149
160
32
42
76
60
133
85
171
130
166
110
106
51
126
128
111
37
33
62
70
147
92
59
91
105
122
25
35
3
28
154
22
56
115
99
134
93
26
83
11
131
57
155
80
108
121
173
41
54
117
23
103
69
90
170
89
78
36
10
144
45
132
65
66
114
58
159
53
169
142
162
15
46
174
176
165
152
38
14
172
44
68
8
95
50
29
100
16
164
119
143
63
139
12
43
39
13
120
157
74
2
135
156
168
7
75
47
61
77
136
102
94
55
148
129
113
97
86
64
125
123
140
9
118
24
151
27
5
112
19
167
40
79
109
150
31
145
107
67
17
49
18
141
137
104
21
6
48
20
127
96
4
34
116
138
72
84

> <PUBCHEM_MMFF94_PARTIAL_CHARGES>
27
1 -0.02
10 0.18
11 0.27
12 0.06
13 0.11
14 0.66
15 -0.15
16 0.09
17 0.14
18 -0.14
19 0.05
2 -0.65
23 -0.15
24 -0.15
25 -0.15
26 -0.15
3 -0.57
39 0.36
4 -0.9
40 0.15
41 0.5
5 -0.41
51 0.15
52 0.15
53 0.15
54 0.15
9 0.27

> <PUBCHEM_EFFECTIVE_ROTOR_COUNT>
7.2

> <PUBCHEM_PHARMACOPHORE_FEATURES>
10
1 2 acceptor
1 3 acceptor
1 4 cation
1 4 donor
1 5 acceptor
3 2 3 14 anion
4 17 20 21 22 hydrophobe
5 1 5 13 15 16 rings
6 18 19 23 24 25 26 rings
6 4 6 7 8 9 11 rings

> <PUBCHEM_HEAVY_ATOM_COUNT>
26

> <PUBCHEM_ATOM_DEF_STEREO_COUNT>
2

> <PUBCHEM_ATOM_UDEF_STEREO_COUNT>
0

> <PUBCHEM_BOND_DEF_STEREO_COUNT>
0

> <PUBCHEM_BOND_UDEF_STEREO_COUNT>
0

> <PUBCHEM_ISOTOPIC_ATOM_COUNT>
0

> <PUBCHEM_COMPONENT_COUNT>
1

> <PUBCHEM_CACTVS_TAUTO_COUNT>
1

> <PUBCHEM_CONFORMER_ID>
0198122200000001

> <PUBCHEM_MMFF94_ENERGY>
55.1735

> <PUBCHEM_FEATURE_SELFOVERLAP>
50.802

> <PUBCHEM_SHAPE_FINGERPRINT>
10299344 5 18342459235542238367
10319688 140 17773887406924681582
10595046 47 18337392643391776808
11045977 3 12895063050535937990
11135609 187 18260544515803980675
11315181 36 18341897411867358785
11638347 137 13254799057915853525
12236239 1 18412263900322003153
12516196 113 18342737416347858312
13533116 47 18411416177173655074
1361 4 18334575746009790139
13668630 136 18040997324115357147
13685833 64 18261110764503242763
14123256 10 18410575098133627748
14251764 18 18273214196938650657
14617045 38 18342458148979121422
14933364 13 11023822890453633691
15119646 104 18408886200495973666
15183329 4 18411696578598218117
15301273 46 15698001829372116000
15352257 5 18259987102470099107
15461852 350 14562824273921980416
15510794 2 17530685416706678859
15537594 2 18273208707744048310
1577012 14 18343305829963696001
17492 89 17981323396365773138
17857418 61 18272929415137938875
20157964 124 17240484706837816338
21049683 271 18338519745636962600
21150785 3 17821446884919280445
21267235 1 17775010119727710985
21781055 127 15697182736939733553
220451 1 18343581841320006351
22224240 67 18335136523320740904
23081809 10 18339082592362729049
23198884 109 16660360356079076141
23522609 53 18198088939384502256
23559900 14 18336261361817286785
3004659 81 18131353028779407437
3009799 131 16153427250826384181
335352 9 18060135445658365933
3411729 13 16772369916108602144
34797466 226 16805608070536747652
397830 11 12966545621841934983
4073 2 18265613367144358419
4098825 35 18040992913120699309
4325135 7 18334575746393931060
44880568 143 17022899004504957765
46194498 28 17385723612212335716
465052 167 18273214192290509055

> <PUBCHEM_SHAPE_MULTIPOLES>
507.5
23.57
1.89
1.21
7.01
1.29
-0.2
2.18
-3.4
-2.44
0.37
0.08
-0.21
-1.77

> <PUBCHEM_SHAPE_SELFOVERLAP>
1070.923

> <PUBCHEM_SHAPE_VOLUME>
284.2

> <PUBCHEM_COORDINATE_TYPE>
2
5
10

$$$$
