26763589
  -OEChem-12032416183D

 55 57  0     1  0  0  0  0  0999 V2000
   -1.1959   -3.9807    0.6049 S   0  0  0  0  0  0  0  0  0  0  0  0
   -0.9020   -0.8398   -1.5950 O   0  0  0  0  0  0  0  0  0  0  0  0
   -1.2984   -5.1056   -0.2991 O   0  0  0  0  0  0  0  0  0  0  0  0
   -2.3681   -3.2801    1.0826 O   0  0  0  0  0  0  0  0  0  0  0  0
    3.1801    3.5555    1.1947 O   0  0  0  0  0  0  0  0  0  0  0  0
    3.4653   -0.1644   -2.1069 O   0  0  0  0  0  0  0  0  0  0  0  0
   -1.2924    2.9943    0.8652 O   0  0  0  0  0  0  0  0  0  0  0  0
   -0.1047   -2.8425   -0.0542 N   0  0  1  0  0  0  0  0  0  0  0  0
    2.1623   -1.0667   -0.4346 N   0  0  0  0  0  0  0  0  0  0  0  0
   -1.6159    0.3449    0.2777 N   0  0  0  0  0  0  0  0  0  0  0  0
    3.0923    1.1334   -0.2445 N   0  0  0  0  0  0  0  0  0  0  0  0
   -3.4526    3.4496    0.2793 N   0  0  0  0  0  0  0  0  0  0  0  0
   -0.0999   -1.4838    0.5555 C   0  0  1  0  0  0  0  0  0  0  0  0
    1.3057   -0.9166    0.7516 C   0  0  0  0  0  0  0  0  0  0  0  0
    1.2318   -3.3644   -0.4431 C   0  0  0  0  0  0  0  0  0  0  0  0
    1.9784   -2.2892   -1.2153 C   0  0  0  0  0  0  0  0  0  0  0  0
   -0.9094   -0.6461   -0.3821 C   0  0  0  0  0  0  0  0  0  0  0  0
   -2.4543    1.2990   -0.4006 C   0  0  1  0  0  0  0  0  0  0  0  0
    2.9447   -0.0419   -0.9903 C   0  0  0  0  0  0  0  0  0  0  0  0
   -3.8763    0.7721   -0.5354 C   0  0  0  0  0  0  0  0  0  0  0  0
   -4.7742    1.8644   -1.0931 C   0  0  0  0  0  0  0  0  0  0  0  0
    3.2563    2.4067   -0.9432 C   0  0  0  0  0  0  0  0  0  0  0  0
    3.5565    1.1667    1.1467 C   0  0  0  0  0  0  0  0  0  0  0  0
   -2.3446    2.6287    0.3376 C   0  0  0  0  0  0  0  0  0  0  0  0
   -0.2520   -4.4959    2.0162 C   0  0  0  0  0  0  0  0  0  0  0  0
   -4.7820    3.0384   -0.1323 C   0  0  0  0  0  0  0  0  0  0  0  0
    2.6352    3.5336   -0.1282 C   0  0  0  0  0  0  0  0  0  0  0  0
    2.9140    2.3304    1.8860 C   0  0  0  0  0  0  0  0  0  0  0  0
   -0.5835   -1.5094    1.5389 H   0  0  0  0  0  0  0  0  0  0  0  0
    1.2137    0.1330    1.0338 H   0  0  0  0  0  0  0  0  0  0  0  0
    1.8068   -1.4515    1.5670 H   0  0  0  0  0  0  0  0  0  0  0  0
    1.1149   -4.2449   -1.0829 H   0  0  0  0  0  0  0  0  0  0  0  0
    1.8084   -3.6480    0.4429 H   0  0  0  0  0  0  0  0  0  0  0  0
    2.9663   -2.6552   -1.5183 H   0  0  0  0  0  0  0  0  0  0  0  0
    1.4401   -2.0212   -2.1324 H   0  0  0  0  0  0  0  0  0  0  0  0
   -2.0432    1.4705   -1.4041 H   0  0  0  0  0  0  0  0  0  0  0  0
   -1.5544    0.4051    1.2903 H   0  0  0  0  0  0  0  0  0  0  0  0
   -4.2578    0.4378    0.4383 H   0  0  0  0  0  0  0  0  0  0  0  0
   -3.8950   -0.1017   -1.1977 H   0  0  0  0  0  0  0  0  0  0  0  0
   -4.4040    2.1838   -2.0749 H   0  0  0  0  0  0  0  0  0  0  0  0
   -5.7931    1.4884   -1.2346 H   0  0  0  0  0  0  0  0  0  0  0  0
    2.8014    2.3503   -1.9378 H   0  0  0  0  0  0  0  0  0  0  0  0
    4.3336    2.5677   -1.0676 H   0  0  0  0  0  0  0  0  0  0  0  0
    4.6427    1.3166    1.0965 H   0  0  0  0  0  0  0  0  0  0  0  0
    3.4030    0.2140    1.6556 H   0  0  0  0  0  0  0  0  0  0  0  0
   -0.8953   -5.1397    2.6217 H   0  0  0  0  0  0  0  0  0  0  0  0
    0.6176   -5.0706    1.6957 H   0  0  0  0  0  0  0  0  0  0  0  0
    0.0379   -3.6258    2.6071 H   0  0  0  0  0  0  0  0  0  0  0  0
   -5.2748    3.9058   -0.5825 H   0  0  0  0  0  0  0  0  0  0  0  0
   -5.3277    2.7800    0.7820 H   0  0  0  0  0  0  0  0  0  0  0  0
   -3.3710    4.3618    0.7179 H   0  0  0  0  0  0  0  0  0  0  0  0
    2.8491    4.4991   -0.5968 H   0  0  0  0  0  0  0  0  0  0  0  0
    1.5460    3.4250   -0.0651 H   0  0  0  0  0  0  0  0  0  0  0  0
    1.8302    2.2034    1.9869 H   0  0  0  0  0  0  0  0  0  0  0  0
    3.3369    2.4160    2.8917 H   0  0  0  0  0  0  0  0  0  0  0  0
  1  3  2  0  0  0  0
  1  4  2  0  0  0  0
  1  8  1  0  0  0  0
  1 25  1  0  0  0  0
  2 17  2  0  0  0  0
  5 27  1  0  0  0  0
  5 28  1  0  0  0  0
  6 19  2  0  0  0  0
  7 24  2  0  0  0  0
  8 13  1  0  0  0  0
  8 15  1  0  0  0  0
  9 14  1  0  0  0  0
  9 16  1  0  0  0  0
  9 19  1  0  0  0  0
 10 17  1  0  0  0  0
 10 18  1  0  0  0  0
 10 37  1  0  0  0  0
 11 19  1  0  0  0  0
 11 22  1  0  0  0  0
 11 23  1  0  0  0  0
 12 24  1  0  0  0  0
 12 26  1  0  0  0  0
 12 51  1  0  0  0  0
 13 14  1  0  0  0  0
 13 17  1  0  0  0  0
 13 29  1  0  0  0  0
 14 30  1  0  0  0  0
 14 31  1  0  0  0  0
 15 16  1  0  0  0  0
 15 32  1  0  0  0  0
 15 33  1  0  0  0  0
 16 34  1  0  0  0  0
 16 35  1  0  0  0  0
 18 20  1  0  0  0  0
 18 24  1  0  0  0  0
 18 36  1  0  0  0  0
 20 21  1  0  0  0  0
 20 38  1  0  0  0  0
 20 39  1  0  0  0  0
 21 26  1  0  0  0  0
 21 40  1  0  0  0  0
 21 41  1  0  0  0  0
 22 27  1  0  0  0  0
 22 42  1  0  0  0  0
 22 43  1  0  0  0  0
 23 28  1  0  0  0  0
 23 44  1  0  0  0  0
 23 45  1  0  0  0  0
 25 46  1  0  0  0  0
 25 47  1  0  0  0  0
 25 48  1  0  0  0  0
 26 49  1  0  0  0  0
 26 50  1  0  0  0  0
 27 52  1  0  0  0  0
 27 53  1  0  0  0  0
 28 54  1  0  0  0  0
 28 55  1  0  0  0  0
M  END
> <PUBCHEM_COMPOUND_CID>
26763589

> <PUBCHEM_CONFORMER_RMSD>
1.2

> <PUBCHEM_CONFORMER_DIVERSEORDER>
1
11
59
36
86
81
63
7
55
50
61
51
14
88
2
39
44
68
89
91
65
90
70
73
17
35
87
49
27
80
84
18
74
19
82
71
62
53
22
29
78
95
30
15
93
85
12
9
41
64
37
13
26
66
6
16
52
45
58
4
42
94
43
54
25
46
57
8
79
28
3
31
40
92
69
48
77
75
83
60
33
47
76
67
72
10
20
5
38
23
34
96
21
56
24
32

> <PUBCHEM_MMFF94_PARTIAL_CHARGES>
28
1 1.33
10 -0.73
11 -0.66
12 -0.73
13 0.42
14 0.3
15 0.36
16 0.3
17 0.57
18 0.36
19 0.69
2 -0.57
22 0.3
23 0.3
24 0.57
25 0.11
26 0.3
27 0.28
28 0.28
3 -0.65
37 0.37
4 -0.65
5 -0.56
51 0.37
6 -0.57
7 -0.57
8 -0.85
9 -0.66

> <PUBCHEM_EFFECTIVE_ROTOR_COUNT>
9.4

> <PUBCHEM_PHARMACOPHORE_FEATURES>
11
1 10 donor
1 12 donor
1 2 acceptor
1 3 acceptor
1 4 acceptor
1 5 acceptor
1 6 acceptor
1 7 acceptor
6 12 18 20 21 24 26 rings
6 5 11 22 23 27 28 rings
6 8 9 13 14 15 16 rings

> <PUBCHEM_HEAVY_ATOM_COUNT>
28

> <PUBCHEM_ATOM_DEF_STEREO_COUNT>
2

> <PUBCHEM_ATOM_UDEF_STEREO_COUNT>
0

> <PUBCHEM_BOND_DEF_STEREO_COUNT>
0

> <PUBCHEM_BOND_UDEF_STEREO_COUNT>
0

> <PUBCHEM_ISOTOPIC_ATOM_COUNT>
0

> <PUBCHEM_COMPONENT_COUNT>
1

> <PUBCHEM_CACTVS_TAUTO_COUNT>
6

> <PUBCHEM_CONFORMER_ID>
0198614500000001

> <PUBCHEM_MMFF94_ENERGY>
65.8152

> <PUBCHEM_FEATURE_SELFOVERLAP>
55.842

> <PUBCHEM_SHAPE_FINGERPRINT>
11014199 57 16897646784812965795
11421498 54 17256537313883113698
12788726 201 17611747108257571336
13583140 156 17687204001929077561
138480 1 17762897662859229776
14955137 171 17903908968486619946
17974551 9 17910070846981727642
18681886 176 17697865987162852207
20600515 1 17030779487783325078
20775438 99 18129079260598335783
21344244 78 17183893676236956841
2255824 54 17831864551592647231
23557571 272 17903642122468368030
23558518 356 18339345427445515287
23559900 14 17905596706513816883
238 59 18339933597230023145
3187 122 17546430641125801993
3886686 26 18191840445653917754
474 4 18263645074112089045
7097593 13 17474099904985825927
7808743 9 18189627209966850708
84936 182 18195810661054316153
90316 7 17403166497057567418
9777508 108 18337961185339811467
9981440 41 17984961920827818394

> <PUBCHEM_SHAPE_MULTIPOLES>
519.96
7.5
7.1
1.51
11.95
4.81
0.11
-6.96
-1.72
-4.5
2.87
-1.17
0.02
0.28

> <PUBCHEM_SHAPE_SELFOVERLAP>
1058.288

> <PUBCHEM_SHAPE_VOLUME>
301.3

> <PUBCHEM_COORDINATE_TYPE>
2
5
10

$$$$
