40777684
  -OEChem-12032416183D

 52 55  0     1  0  0  0  0  0999 V2000
   -7.8386   -2.1797   -0.4310 F   0  0  0  0  0  0  0  0  0  0  0  0
   -8.5477   -0.1251   -0.4903 F   0  0  0  0  0  0  0  0  0  0  0  0
   -8.2218   -1.1139    1.4185 F   0  0  0  0  0  0  0  0  0  0  0  0
    4.8201   -2.3760    0.5475 O   0  0  0  0  0  0  0  0  0  0  0  0
    4.1935   -0.4940   -0.6552 N   0  0  0  0  0  0  0  0  0  0  0  0
   -2.3483    0.9498    0.1827 N   0  0  0  0  0  0  0  0  0  0  0  0
   -2.0690    2.1385    0.7442 N   0  0  0  0  0  0  0  0  0  0  0  0
    8.2026    0.7595   -0.5054 N   0  0  0  0  0  0  0  0  0  0  0  0
    1.2552    0.9256   -0.4765 C   0  0  2  0  0  0  0  0  0  0  0  0
    1.8491   -0.3632    0.1287 C   0  0  0  0  0  0  0  0  0  0  0  0
    2.8376   -0.8992   -0.9142 C   0  0  1  0  0  0  0  0  0  0  0  0
   -0.1919    1.1496   -0.1022 C   0  0  0  0  0  0  0  0  0  0  0  0
    1.5016    0.7351   -1.9450 C   0  0  0  0  0  0  0  0  0  0  0  0
    2.3669   -0.2574   -2.1777 C   0  0  0  0  0  0  0  0  0  0  0  0
   -1.2583    0.3169   -0.3388 C   0  0  0  0  0  0  0  0  0  0  0  0
   -0.7502    2.2550    0.5672 C   0  0  0  0  0  0  0  0  0  0  0  0
   -1.3265   -1.0007   -1.0028 C   0  0  0  0  0  0  0  0  0  0  0  0
   -0.0562    3.4570    1.0623 C   0  0  0  0  0  0  0  0  0  0  0  0
   -3.6617    0.4790    0.1762 C   0  0  0  0  0  0  0  0  0  0  0  0
    5.0866   -1.2782    0.0655 C   0  0  0  0  0  0  0  0  0  0  0  0
   -4.6641    1.2147   -0.4563 C   0  0  0  0  0  0  0  0  0  0  0  0
   -3.9728   -0.7259    0.8061 C   0  0  0  0  0  0  0  0  0  0  0  0
    6.4424   -0.7061    0.2688 C   0  0  0  0  0  0  0  0  0  0  0  0
   -5.9774    0.7452   -0.4589 C   0  0  0  0  0  0  0  0  0  0  0  0
   -5.2862   -1.1953    0.8036 C   0  0  0  0  0  0  0  0  0  0  0  0
   -6.2886   -0.4599    0.1710 C   0  0  0  0  0  0  0  0  0  0  0  0
    7.2149   -1.0654    1.3677 C   0  0  0  0  0  0  0  0  0  0  0  0
    6.9773    0.2021   -0.6307 C   0  0  0  0  0  0  0  0  0  0  0  0
   -7.6932   -0.9610    0.1684 C   0  0  0  0  0  0  0  0  0  0  0  0
    8.4805   -0.5133    1.5313 C   0  0  0  0  0  0  0  0  0  0  0  0
    8.9242    0.3862    0.5752 C   0  0  0  0  0  0  0  0  0  0  0  0
    1.8514    1.7868   -0.1478 H   0  0  0  0  0  0  0  0  0  0  0  0
    2.3242   -0.1597    1.0961 H   0  0  0  0  0  0  0  0  0  0  0  0
    1.0806   -1.1217    0.3187 H   0  0  0  0  0  0  0  0  0  0  0  0
    2.7792   -1.9912   -0.9722 H   0  0  0  0  0  0  0  0  0  0  0  0
    1.0623    1.3482   -2.7195 H   0  0  0  0  0  0  0  0  0  0  0  0
    2.7016   -0.5495   -3.1631 H   0  0  0  0  0  0  0  0  0  0  0  0
    4.4642    0.4406   -0.9450 H   0  0  0  0  0  0  0  0  0  0  0  0
   -1.3312   -1.8067   -0.2620 H   0  0  0  0  0  0  0  0  0  0  0  0
   -2.2228   -1.0959   -1.6247 H   0  0  0  0  0  0  0  0  0  0  0  0
   -0.4773   -1.1732   -1.6679 H   0  0  0  0  0  0  0  0  0  0  0  0
    0.7134    3.1833    1.7914 H   0  0  0  0  0  0  0  0  0  0  0  0
   -0.7452    4.1543    1.5509 H   0  0  0  0  0  0  0  0  0  0  0  0
    0.4265    3.9893    0.2363 H   0  0  0  0  0  0  0  0  0  0  0  0
   -4.4385    2.1542   -0.9551 H   0  0  0  0  0  0  0  0  0  0  0  0
   -3.2102   -1.3071    1.3185 H   0  0  0  0  0  0  0  0  0  0  0  0
   -6.7432    1.3327   -0.9577 H   0  0  0  0  0  0  0  0  0  0  0  0
   -5.5198   -2.1335    1.2999 H   0  0  0  0  0  0  0  0  0  0  0  0
    6.8456   -1.7700    2.1077 H   0  0  0  0  0  0  0  0  0  0  0  0
    6.4544    0.5153   -1.5283 H   0  0  0  0  0  0  0  0  0  0  0  0
    9.0998   -0.7779    2.3806 H   0  0  0  0  0  0  0  0  0  0  0  0
    9.9040    0.8451    0.6569 H   0  0  0  0  0  0  0  0  0  0  0  0
  1 29  1  0  0  0  0
  2 29  1  0  0  0  0
  3 29  1  0  0  0  0
  4 20  2  0  0  0  0
  5 11  1  0  0  0  0
  5 20  1  0  0  0  0
  5 38  1  0  0  0  0
  6  7  1  0  0  0  0
  6 15  1  0  0  0  0
  6 19  1  0  0  0  0
  7 16  2  0  0  0  0
  8 28  1  0  0  0  0
  8 31  2  0  0  0  0
  9 10  1  0  0  0  0
  9 12  1  0  0  0  0
  9 13  1  0  0  0  0
  9 32  1  0  0  0  0
 10 11  1  0  0  0  0
 10 33  1  0  0  0  0
 10 34  1  0  0  0  0
 11 14  1  0  0  0  0
 11 35  1  0  0  0  0
 12 15  2  0  0  0  0
 12 16  1  0  0  0  0
 13 14  2  0  0  0  0
 13 36  1  0  0  0  0
 14 37  1  0  0  0  0
 15 17  1  0  0  0  0
 16 18  1  0  0  0  0
 17 39  1  0  0  0  0
 17 40  1  0  0  0  0
 17 41  1  0  0  0  0
 18 42  1  0  0  0  0
 18 43  1  0  0  0  0
 18 44  1  0  0  0  0
 19 21  2  0  0  0  0
 19 22  1  0  0  0  0
 20 23  1  0  0  0  0
 21 24  1  0  0  0  0
 21 45  1  0  0  0  0
 22 25  2  0  0  0  0
 22 46  1  0  0  0  0
 23 27  1  0  0  0  0
 23 28  2  0  0  0  0
 24 26  2  0  0  0  0
 24 47  1  0  0  0  0
 25 26  1  0  0  0  0
 25 48  1  0  0  0  0
 26 29  1  0  0  0  0
 27 30  2  0  0  0  0
 27 49  1  0  0  0  0
 28 50  1  0  0  0  0
 30 31  1  0  0  0  0
 30 51  1  0  0  0  0
 31 52  1  0  0  0  0
M  END
> <PUBCHEM_COMPOUND_CID>
40777684

> <PUBCHEM_CONFORMER_RMSD>
0.8

> <PUBCHEM_CONFORMER_DIVERSEORDER>
1
59
46
19
58
40
36
17
30
34
35
39
20
50
41
13
7
15
5
47
57
28
31
4
18
37
9
55
38
33
22
45
53
10
54
24
56
21
12
11
29
44
52
43
23
26
2
3
6
16
27
42
8
51
49
14
32
48
25

> <PUBCHEM_MMFF94_PARTIAL_CHARGES>
41
1 -0.34
11 0.44
12 -0.18
13 -0.29
14 -0.29
15 -0.33
16 0.11
17 0.18
18 0.18
19 -0.02
2 -0.34
20 0.54
21 -0.15
22 -0.15
23 0.09
24 -0.15
25 -0.15
26 -0.14
27 -0.15
28 0.16
29 1.16
3 -0.34
30 -0.15
31 0.16
36 0.15
37 0.15
38 0.37
4 -0.57
45 0.15
46 0.15
47 0.15
48 0.15
49 0.15
5 -0.73
50 0.15
51 0.15
52 0.15
6 0.59
7 -0.71
8 -0.62
9 0.32

> <PUBCHEM_EFFECTIVE_ROTOR_COUNT>
6.6

> <PUBCHEM_PHARMACOPHORE_FEATURES>
8
1 4 acceptor
1 5 donor
1 7 acceptor
1 8 acceptor
5 6 7 12 15 16 rings
5 9 10 11 13 14 rings
6 19 21 22 24 25 26 rings
6 8 23 27 28 30 31 rings

> <PUBCHEM_HEAVY_ATOM_COUNT>
31

> <PUBCHEM_ATOM_DEF_STEREO_COUNT>
2

> <PUBCHEM_ATOM_UDEF_STEREO_COUNT>
0

> <PUBCHEM_BOND_DEF_STEREO_COUNT>
0

> <PUBCHEM_BOND_UDEF_STEREO_COUNT>
0

> <PUBCHEM_ISOTOPIC_ATOM_COUNT>
0

> <PUBCHEM_COMPONENT_COUNT>
1

> <PUBCHEM_CACTVS_TAUTO_COUNT>
2

> <PUBCHEM_CONFORMER_ID>
026E37D400000001

> <PUBCHEM_MMFF94_ENERGY>
80.7724

> <PUBCHEM_FEATURE_SELFOVERLAP>
40.598

> <PUBCHEM_SHAPE_FINGERPRINT>
10 15 17988921167873975062
10165383 225 15841550778345953398
106641 1 17275102847122535607
10670039 82 12107778602045378167
10674148 151 15213013852041225029
10883706 17 17386579092900588283
11135609 99 18334297608243351590
11315181 36 18341896277927433921
11408170 108 16443902761835923450
12202916 173 18412265042984530275
12596602 18 18261391088734563050
12643181 29 17894633682285109731
12741549 16 18334575738005535317
12838862 33 18271515438694668087
12977781 61 16880499235327220168
13914758 101 16370723695585865380
14068700 686 17844535396573446532
14150022 121 16917076507932303025
14394314 77 18339083670784954169
14849402 71 14907887319407937762
14856354 85 13829837028850624565
15183329 4 14851604371111207313
15188451 53 18113617863885150106
15301273 46 16773803567000502708
15392192 104 16128654158593830598
15728490 51 18342453759939399926
16992610 120 14764347193831995524
18335252 98 18272090479165695582
18393751 57 17131827673150907294
18603816 31 18114740547147363947
19841028 212 17604705556890140898
20505436 4 11959727149135630276
21049683 271 18343584066593938904
21130935 74 18129667370401825286
21365058 27 15123789582964378676
21792934 111 18201715159066379025
22224240 67 16845572019814135342
23559900 14 17969508285458933261
24771293 8 17561370565359837595
249057 25 17531261525322083580
2747138 104 17703518739438346332
3004659 81 17821729442580969745
3009799 131 15068344506221504604
3092352 35 12823293494448961044
3383291 50 18410860971284268963
34797466 226 17561368379633324164
3711267 37 12175622914332991594
4149490 64 17459483310590618673
45266715 3 14490466436253946968
474113 269 14779813933726233000
5219985 9 18411419522737166873
5758199 1 15267341820991626654
59682541 35 17847058900371291994
6004065 56 17748832925529514556
6126387 218 18409448064619247697
6438161 24 17530966890718239531
9663363 56 18272366469532290869
9689198 14 12607400009889691822
9953998 17 16200430286819728359
9962374 69 18271521018257943255

> <PUBCHEM_SHAPE_MULTIPOLES>
590.35
27.64
2.11
1.35
8.38
1.26
-0.33
-11.89
7.65
-1.22
0.68
1.21
-0.04
-0.27

> <PUBCHEM_SHAPE_SELFOVERLAP>
1293

> <PUBCHEM_SHAPE_VOLUME>
321.8

> <PUBCHEM_COORDINATE_TYPE>
2
5
10

$$$$
