26744421
  -OEChem-12032416193D

 40 43  0     1  0  0  0  0  0999 V2000
    6.2871   -0.7882    1.1259 F   0  0  0  0  0  0  0  0  0  0  0  0
   -4.7912    2.1700    1.7597 O   0  0  0  0  0  0  0  0  0  0  0  0
   -0.3128    1.7409   -1.7401 O   0  0  0  0  0  0  0  0  0  0  0  0
   -2.7947   -0.2704    0.0774 N   0  0  1  0  0  0  0  0  0  0  0  0
    0.1135    0.4035    0.0052 N   0  0  0  0  0  0  0  0  0  0  0  0
    1.0807    1.6141   -1.6779 N   0  0  0  0  0  0  0  0  0  0  0  0
   -2.9714   -2.6876   -0.1778 C   0  0  0  0  0  0  0  0  0  0  0  0
   -2.4673   -3.8887   -0.9230 C   0  0  0  0  0  0  0  0  0  0  0  0
   -1.6491   -3.2961    0.1866 C   0  0  0  0  0  0  0  0  0  0  0  0
   -3.0008   -1.3615   -0.8660 C   0  0  0  0  0  0  0  0  0  0  0  0
   -2.3108    0.9695   -0.5630 C   0  0  1  0  0  0  0  0  0  0  0  0
   -4.0228    0.0823    0.7872 C   0  0  0  0  0  0  0  0  0  0  0  0
   -2.8413    2.1067    0.3298 C   0  0  0  0  0  0  0  0  0  0  0  0
   -3.6483    1.4100    1.4182 C   0  0  1  0  0  0  0  0  0  0  0  0
   -0.8045    0.9979   -0.7143 C   0  0  0  0  0  0  0  0  0  0  0  0
    1.2537    0.8111   -0.6238 C   0  0  0  0  0  0  0  0  0  0  0  0
    2.5515    0.3988   -0.1727 C   0  0  0  0  0  0  0  0  0  0  0  0
    2.6707   -0.4400    0.9355 C   0  0  0  0  0  0  0  0  0  0  0  0
    3.6941    0.8363   -0.8423 C   0  0  0  0  0  0  0  0  0  0  0  0
    3.9325   -0.8410    1.3742 C   0  0  0  0  0  0  0  0  0  0  0  0
    4.9561    0.4354   -0.4037 C   0  0  0  0  0  0  0  0  0  0  0  0
    5.0752   -0.4032    0.7046 C   0  0  0  0  0  0  0  0  0  0  0  0
   -3.8078   -2.8402    0.4934 H   0  0  0  0  0  0  0  0  0  0  0  0
   -2.1076   -3.7633   -1.9367 H   0  0  0  0  0  0  0  0  0  0  0  0
   -2.9547   -4.8381   -0.7373 H   0  0  0  0  0  0  0  0  0  0  0  0
   -1.5877   -3.8459    1.1178 H   0  0  0  0  0  0  0  0  0  0  0  0
   -0.7403   -2.7720   -0.0831 H   0  0  0  0  0  0  0  0  0  0  0  0
   -2.2033   -1.3471   -1.6213 H   0  0  0  0  0  0  0  0  0  0  0  0
   -3.9396   -1.2489   -1.4232 H   0  0  0  0  0  0  0  0  0  0  0  0
   -2.7646    1.0855   -1.5575 H   0  0  0  0  0  0  0  0  0  0  0  0
   -4.8839    0.2034    0.1168 H   0  0  0  0  0  0  0  0  0  0  0  0
   -4.2921   -0.6527    1.5528 H   0  0  0  0  0  0  0  0  0  0  0  0
   -2.0462    2.7144    0.7771 H   0  0  0  0  0  0  0  0  0  0  0  0
   -3.4763    2.7836   -0.2554 H   0  0  0  0  0  0  0  0  0  0  0  0
   -3.0372    1.2558    2.3160 H   0  0  0  0  0  0  0  0  0  0  0  0
   -4.4818    3.0326    2.0849 H   0  0  0  0  0  0  0  0  0  0  0  0
    1.7994   -0.7984    1.4781 H   0  0  0  0  0  0  0  0  0  0  0  0
    3.6407    1.4900   -1.7093 H   0  0  0  0  0  0  0  0  0  0  0  0
    4.0261   -1.4940    2.2368 H   0  0  0  0  0  0  0  0  0  0  0  0
    5.8463    0.7756   -0.9243 H   0  0  0  0  0  0  0  0  0  0  0  0
  1 22  1  0  0  0  0
  2 14  1  0  0  0  0
  2 36  1  0  0  0  0
  3  6  1  0  0  0  0
  3 15  1  0  0  0  0
  4 10  1  0  0  0  0
  4 11  1  0  0  0  0
  4 12  1  0  0  0  0
  5 15  2  0  0  0  0
  5 16  1  0  0  0  0
  6 16  2  0  0  0  0
  7  8  1  0  0  0  0
  7  9  1  0  0  0  0
  7 10  1  0  0  0  0
  7 23  1  0  0  0  0
  8  9  1  0  0  0  0
  8 24  1  0  0  0  0
  8 25  1  0  0  0  0
  9 26  1  0  0  0  0
  9 27  1  0  0  0  0
 10 28  1  0  0  0  0
 10 29  1  0  0  0  0
 11 13  1  0  0  0  0
 11 15  1  0  0  0  0
 11 30  1  0  0  0  0
 12 14  1  0  0  0  0
 12 31  1  0  0  0  0
 12 32  1  0  0  0  0
 13 14  1  0  0  0  0
 13 33  1  0  0  0  0
 13 34  1  0  0  0  0
 14 35  1  0  0  0  0
 16 17  1  0  0  0  0
 17 18  2  0  0  0  0
 17 19  1  0  0  0  0
 18 20  1  0  0  0  0
 18 37  1  0  0  0  0
 19 21  2  0  0  0  0
 19 38  1  0  0  0  0
 20 22  2  0  0  0  0
 20 39  1  0  0  0  0
 21 22  1  0  0  0  0
 21 40  1  0  0  0  0
M  END
> <PUBCHEM_COMPOUND_CID>
26744421

> <PUBCHEM_CONFORMER_RMSD>
0.8

> <PUBCHEM_CONFORMER_DIVERSEORDER>
1
9
18
19
13
15
14
7
4
10
11
6
5
17
8
3
12
2
16

> <PUBCHEM_MMFF94_PARTIAL_CHARGES>
31
1 -0.19
10 0.37
11 0.45
12 0.27
14 0.28
15 0.3
16 0.46
17 0.05
18 -0.15
19 -0.15
2 -0.68
20 -0.15
21 -0.15
22 0.19
23 0.1
24 0.1
25 0.1
26 0.1
27 0.1
3 -0.02
36 0.4
37 0.15
38 0.15
39 0.15
4 -0.81
40 0.15
5 -0.57
6 -0.41
7 -0.19
8 -0.2
9 -0.2

> <PUBCHEM_EFFECTIVE_ROTOR_COUNT>
5.6

> <PUBCHEM_PHARMACOPHORE_FEATURES>
7
1 2 acceptor
1 2 donor
1 4 cation
3 5 6 16 cation
5 3 5 6 15 16 rings
5 4 11 12 13 14 rings
6 17 18 19 20 21 22 rings

> <PUBCHEM_HEAVY_ATOM_COUNT>
22

> <PUBCHEM_ATOM_DEF_STEREO_COUNT>
2

> <PUBCHEM_ATOM_UDEF_STEREO_COUNT>
0

> <PUBCHEM_BOND_DEF_STEREO_COUNT>
0

> <PUBCHEM_BOND_UDEF_STEREO_COUNT>
0

> <PUBCHEM_ISOTOPIC_ATOM_COUNT>
0

> <PUBCHEM_COMPONENT_COUNT>
1

> <PUBCHEM_CACTVS_TAUTO_COUNT>
1

> <PUBCHEM_CONFORMER_ID>
0198166500000001

> <PUBCHEM_MMFF94_ENERGY>
44.6517

> <PUBCHEM_FEATURE_SELFOVERLAP>
35.522

> <PUBCHEM_SHAPE_FINGERPRINT>
10366900 7 17775276179576017021
10616163 171 18410574028402499742
11036077 4 18413103940095989067
11045977 3 17988635320330433048
11370993 144 17988641857354942738
11552529 35 18200021966825074474
12523318 42 18201713002760324018
12549972 3 16484202087079947967
12553582 1 17603577539357899680
12616971 3 17967254196068755812
12633257 1 18342457027976826544
12788726 201 17980504539554854119
13004483 165 17841711009248277007
13583140 156 16845567630289012510
13631057 29 18050287269493214846
14100547 121 18412819179448607127
14178342 30 18341901800543447607
14363568 33 17618227204411475843
14844126 61 18269834371257524979
15099037 8 18191588768600838005
15250474 111 18336259133045803446
15348495 7 18059847381848038448
15537594 2 17894917304465542242
15842332 3 18044957885030850637
16120349 306 18335126575391137066
17780758 139 18412820292002677976
1813 80 17458640968677427540
19141452 34 18408603643234866790
20261772 1 18187366519443709682
20281475 54 18261670467392881604
20554085 129 17844804790329633633
20600515 1 18130520668576382017
20602899 9 18265870541992537813
20681677 274 18127404777113499841
20775438 99 15963963049177200902
212916 134 18130232536842948361
21634736 98 17899414465636249302
23402539 116 16877937197171776060
23503953 91 18411982447010260376
23503958 8 18341609381826464770
23559900 14 18196919179281597313
23728640 28 18412270562333549339
25147074 1 18189347933532970901
312425 54 18271515421894620394
5104073 3 18341887533236843720
5364581 5 17843666993126218928
5385378 56 17909562666599502937
5486654 36 18335704987131312819
57265010 4 18131350812765816593
58807428 26 18268444438536100411
5924683 9 18271238425814483303
602551 16 18342457062816437198
7064713 232 18413386518858098386
90127 26 16845570933435354968
9981440 41 16486701260035650551

> <PUBCHEM_SHAPE_MULTIPOLES>
418.79
11.1
3.25
1.43
12.65
3.5
-0.06
0.43
-4.56
-5.45
0.37
-0.05
-0.53
-2.49

> <PUBCHEM_SHAPE_SELFOVERLAP>
902.512

> <PUBCHEM_SHAPE_VOLUME>
234

> <PUBCHEM_COORDINATE_TYPE>
2
5
10

$$$$
