28960232
  -OEChem-12032416273D

 63 65  0     1  0  0  0  0  0999 V2000
    6.1304   -0.1583    1.5667 O   0  0  0  0  0  0  0  0  0  0  0  0
   -1.8680   -0.7355    0.0429 N   0  0  0  0  0  0  0  0  0  0  0  0
    4.9581   -0.3055   -0.4330 N   0  0  0  0  0  0  0  0  0  0  0  0
   -1.5664   -1.9162    0.6096 N   0  0  0  0  0  0  0  0  0  0  0  0
    6.7448    1.1401   -0.2554 N   0  0  0  0  0  0  0  0  0  0  0  0
    1.7217   -0.6827   -0.6859 C   0  0  2  0  0  0  0  0  0  0  0  0
    2.6992   -0.6802    0.5076 C   0  0  0  0  0  0  0  0  0  0  0  0
    4.0022   -1.2965   -0.0163 C   0  0  1  0  0  0  0  0  0  0  0  0
    0.2845   -0.9166   -0.2806 C   0  0  0  0  0  0  0  0  0  0  0  0
    2.3031   -1.7426   -1.5761 C   0  0  0  0  0  0  0  0  0  0  0  0
    3.5466   -2.0706   -1.2094 C   0  0  0  0  0  0  0  0  0  0  0  0
   -0.7945   -0.0968   -0.5048 C   0  0  0  0  0  0  0  0  0  0  0  0
   -0.2501   -2.0215    0.4087 C   0  0  0  0  0  0  0  0  0  0  0  0
   -7.2259    1.1376    0.1112 C   0  0  0  0  0  0  0  0  0  0  0  0
   -3.1859   -0.2773    0.0576 C   0  0  0  0  0  0  0  0  0  0  0  0
   -0.8887    1.2126   -1.1818 C   0  0  0  0  0  0  0  0  0  0  0  0
   -5.8187    0.6441    0.0927 C   0  0  0  0  0  0  0  0  0  0  0  0
    0.4646   -3.2131    0.8992 C   0  0  0  0  0  0  0  0  0  0  0  0
    5.9609    0.1940    0.4002 C   0  0  0  0  0  0  0  0  0  0  0  0
   -3.6541    0.5355   -0.9747 C   0  0  0  0  0  0  0  0  0  0  0  0
   -4.0340   -0.6294    1.1075 C   0  0  0  0  0  0  0  0  0  0  0  0
   -4.9704    0.9962   -0.9572 C   0  0  0  0  0  0  0  0  0  0  0  0
   -5.3504   -0.1686    1.1251 C   0  0  0  0  0  0  0  0  0  0  0  0
   -8.0115    0.6540   -1.1470 C   0  0  0  0  0  0  0  0  0  0  0  0
   -7.2788    2.6969    0.1280 C   0  0  0  0  0  0  0  0  0  0  0  0
   -8.0822    0.6790    1.3382 C   0  0  0  0  0  0  0  0  0  0  0  0
    7.8530    1.8137    0.3795 C   0  0  0  0  0  0  0  0  0  0  0  0
    7.3714    3.0734    1.0876 C   0  0  0  0  0  0  0  0  0  0  0  0
    8.9389    2.1344   -0.6401 C   0  0  0  0  0  0  0  0  0  0  0  0
    1.8045    0.2719   -1.2197 H   0  0  0  0  0  0  0  0  0  0  0  0
    2.8401    0.3364    0.8951 H   0  0  0  0  0  0  0  0  0  0  0  0
    2.3311   -1.2773    1.3484 H   0  0  0  0  0  0  0  0  0  0  0  0
    4.4499   -1.9487    0.7408 H   0  0  0  0  0  0  0  0  0  0  0  0
    1.7942   -2.1641   -2.4316 H   0  0  0  0  0  0  0  0  0  0  0  0
    4.1579   -2.7969   -1.7262 H   0  0  0  0  0  0  0  0  0  0  0  0
    4.8787    0.0889   -1.3661 H   0  0  0  0  0  0  0  0  0  0  0  0
   -1.1281    1.1056   -2.2438 H   0  0  0  0  0  0  0  0  0  0  0  0
   -1.5593    1.9196   -0.6857 H   0  0  0  0  0  0  0  0  0  0  0  0
    0.0881    1.7109   -1.1531 H   0  0  0  0  0  0  0  0  0  0  0  0
    0.9459   -3.0083    1.8603 H   0  0  0  0  0  0  0  0  0  0  0  0
   -0.2270   -4.0493    1.0543 H   0  0  0  0  0  0  0  0  0  0  0  0
    1.2233   -3.5610    0.1947 H   0  0  0  0  0  0  0  0  0  0  0  0
   -3.1020    0.7476   -1.8795 H   0  0  0  0  0  0  0  0  0  0  0  0
   -3.6953   -1.2518    1.9323 H   0  0  0  0  0  0  0  0  0  0  0  0
   -5.3174    1.6070   -1.7859 H   0  0  0  0  0  0  0  0  0  0  0  0
   -5.9656   -0.4700    1.9656 H   0  0  0  0  0  0  0  0  0  0  0  0
   -8.0127   -0.4407   -1.2081 H   0  0  0  0  0  0  0  0  0  0  0  0
   -7.5734    1.0362   -2.0755 H   0  0  0  0  0  0  0  0  0  0  0  0
   -9.0544    0.9907   -1.1196 H   0  0  0  0  0  0  0  0  0  0  0  0
   -6.8188    3.1313   -0.7664 H   0  0  0  0  0  0  0  0  0  0  0  0
   -6.7466    3.0950    1.0001 H   0  0  0  0  0  0  0  0  0  0  0  0
   -8.3121    3.0605    0.1692 H   0  0  0  0  0  0  0  0  0  0  0  0
   -7.6520    1.0320    2.2827 H   0  0  0  0  0  0  0  0  0  0  0  0
   -8.1703   -0.4130    1.3809 H   0  0  0  0  0  0  0  0  0  0  0  0
   -9.1013    1.0805    1.2807 H   0  0  0  0  0  0  0  0  0  0  0  0
    6.4803    1.4188   -1.1955 H   0  0  0  0  0  0  0  0  0  0  0  0
    8.2768    1.1380    1.1322 H   0  0  0  0  0  0  0  0  0  0  0  0
    6.9180    3.7773    0.3808 H   0  0  0  0  0  0  0  0  0  0  0  0
    6.6154    2.8340    1.8433 H   0  0  0  0  0  0  0  0  0  0  0  0
    8.2010    3.5814    1.5903 H   0  0  0  0  0  0  0  0  0  0  0  0
    9.2918    1.2208   -1.1309 H   0  0  0  0  0  0  0  0  0  0  0  0
    8.5654    2.8051   -1.4219 H   0  0  0  0  0  0  0  0  0  0  0  0
    9.7977    2.6147   -0.1599 H   0  0  0  0  0  0  0  0  0  0  0  0
  1 19  2  0  0  0  0
  2  4  1  0  0  0  0
  2 12  1  0  0  0  0
  2 15  1  0  0  0  0
  3  8  1  0  0  0  0
  3 19  1  0  0  0  0
  3 36  1  0  0  0  0
  4 13  2  0  0  0  0
  5 19  1  0  0  0  0
  5 27  1  0  0  0  0
  5 56  1  0  0  0  0
  6  7  1  0  0  0  0
  6  9  1  0  0  0  0
  6 10  1  0  0  0  0
  6 30  1  0  0  0  0
  7  8  1  0  0  0  0
  7 31  1  0  0  0  0
  7 32  1  0  0  0  0
  8 11  1  0  0  0  0
  8 33  1  0  0  0  0
  9 12  2  0  0  0  0
  9 13  1  0  0  0  0
 10 11  2  0  0  0  0
 10 34  1  0  0  0  0
 11 35  1  0  0  0  0
 12 16  1  0  0  0  0
 13 18  1  0  0  0  0
 14 17  1  0  0  0  0
 14 24  1  0  0  0  0
 14 25  1  0  0  0  0
 14 26  1  0  0  0  0
 15 20  2  0  0  0  0
 15 21  1  0  0  0  0
 16 37  1  0  0  0  0
 16 38  1  0  0  0  0
 16 39  1  0  0  0  0
 17 22  2  0  0  0  0
 17 23  1  0  0  0  0
 18 40  1  0  0  0  0
 18 41  1  0  0  0  0
 18 42  1  0  0  0  0
 20 22  1  0  0  0  0
 20 43  1  0  0  0  0
 21 23  2  0  0  0  0
 21 44  1  0  0  0  0
 22 45  1  0  0  0  0
 23 46  1  0  0  0  0
 24 47  1  0  0  0  0
 24 48  1  0  0  0  0
 24 49  1  0  0  0  0
 25 50  1  0  0  0  0
 25 51  1  0  0  0  0
 25 52  1  0  0  0  0
 26 53  1  0  0  0  0
 26 54  1  0  0  0  0
 26 55  1  0  0  0  0
 27 28  1  0  0  0  0
 27 29  1  0  0  0  0
 27 57  1  0  0  0  0
 28 58  1  0  0  0  0
 28 59  1  0  0  0  0
 28 60  1  0  0  0  0
 29 61  1  0  0  0  0
 29 62  1  0  0  0  0
 29 63  1  0  0  0  0
M  END
> <PUBCHEM_COMPOUND_CID>
28960232

> <PUBCHEM_CONFORMER_RMSD>
1

> <PUBCHEM_CONFORMER_DIVERSEORDER>
4
9
63
19
42
20
97
29
70
61
77
95
47
23
40
94
8
52
39
21
24
75
50
31
88
54
66
33
62
85
7
22
48
58
17
16
73
80
69
44
10
5
64
60
74
65
83
78
68
26
72
28
13
98
55
93
49
6
27
82
37
67
46
36
14
87
43
11
96
41
76
35
15
34
81
2
90
71
89
18
30
25
84
32
45
86
53
38
51
79
91
12
1
56
59
92
57
3

> <PUBCHEM_MMFF94_PARTIAL_CHARGES>
31
1 -0.57
10 -0.29
11 -0.29
12 -0.33
13 0.11
14 0.14
15 -0.02
16 0.18
17 -0.14
18 0.18
19 0.69
2 0.59
20 -0.15
21 -0.15
22 -0.15
23 -0.15
27 0.3
3 -0.73
34 0.15
35 0.15
36 0.37
4 -0.71
43 0.15
44 0.15
45 0.15
46 0.15
5 -0.73
56 0.37
6 0.32
8 0.44
9 -0.18

> <PUBCHEM_EFFECTIVE_ROTOR_COUNT>
7.6

> <PUBCHEM_PHARMACOPHORE_FEATURES>
9
1 1 acceptor
1 3 donor
1 4 acceptor
1 5 donor
3 27 28 29 hydrophobe
4 14 24 25 26 hydrophobe
5 2 4 9 12 13 rings
5 6 7 8 10 11 rings
6 15 17 20 21 22 23 rings

> <PUBCHEM_HEAVY_ATOM_COUNT>
29

> <PUBCHEM_ATOM_DEF_STEREO_COUNT>
2

> <PUBCHEM_ATOM_UDEF_STEREO_COUNT>
0

> <PUBCHEM_BOND_DEF_STEREO_COUNT>
0

> <PUBCHEM_BOND_UDEF_STEREO_COUNT>
0

> <PUBCHEM_ISOTOPIC_ATOM_COUNT>
0

> <PUBCHEM_COMPONENT_COUNT>
1

> <PUBCHEM_CACTVS_TAUTO_COUNT>
3

> <PUBCHEM_CONFORMER_ID>
01B9E5E800000004

> <PUBCHEM_MMFF94_ENERGY>
77.9095

> <PUBCHEM_FEATURE_SELFOVERLAP>
45.72

> <PUBCHEM_SHAPE_FINGERPRINT>
10 15 18113057142502842866
10319688 67 17458062681269074713
106641 1 17967818266892473609
11315181 36 18131350805304607413
11409948 41 15912784782899597276
11578821 258 18202000989594199825
12166972 35 8646473129854252879
12539765 74 18130793339075449238
12838862 33 17458337530145085727
12925494 130 18267300031394321976
13685833 64 7853570214618182910
14216079 64 8790888488714309400
14617042 71 18341899571914707673
14849402 71 18343021112313752353
15183329 4 13470416569556641214
15510800 12 10665219312333781896
15706992 2 18201169814215143177
16994733 274 18059849550157715337
1768 4 18412833495043674761
17686467 74 18335697304463506977
17980427 23 18261671597159464606
1818759 1 11458421315615826048
18335252 114 17632300086607106576
18603816 31 12757441587547290081
19301679 30 13840528624806690498
2026 5 9511199438471158472
21033648 29 18260270754383000042
21033650 10 14189315749950328355
21130935 74 18042410136775972571
21150785 3 16774074064525984503
21307412 95 11455884797513374037
21344244 78 15647053751287759710
21521721 280 18341615888923483731
21792934 111 17749103353317453740
22224240 67 18259703385267037675
23576562 1 14763477454063830729
24771293 8 18408323297987867517
25269216 80 17417519324663104535
306946 40 17894618246241200477
33532 11 8070023367743937224
3383291 50 8574716789107033500
34797466 226 17703232815018124231
4073 2 18413672413689161111
4093350 32 17845938428933989695
4169191 19 18202286892354384761
439807 62 10087644810437951660
4403749 210 18261393390748142483
504579 68 15841552976789076668
5080951 261 17240760744539762459
5104073 3 15792315797951050427
54039377 194 7997978981743151808
5470011 282 13110958760684552040
5718773 13 8718833089525995616
5758199 1 18409167697311511091
5937810 71 17774731866209159929
59682541 35 18113341929242360217
59682541 52 15123516913435398060
6081469 158 10807938162794969336
636775 72 18336827486427292429
6438161 24 9079116644689682660
9962374 69 10881691247403554120

> <PUBCHEM_SHAPE_MULTIPOLES>
571.01
26.66
2.76
1.29
10.59
0.15
-0.02
26.29
3.48
3.78
0.38
-0.25
-0.1
1.42

> <PUBCHEM_SHAPE_SELFOVERLAP>
1204.372

> <PUBCHEM_SHAPE_VOLUME>
326

> <PUBCHEM_COORDINATE_TYPE>
2
5
10

$$$$
