7674050
  -OEChem-12032416233D

 58 61  0     1  0  0  0  0  0999 V2000
   -2.0289   -1.5864   -1.6703 S   0  0  0  0  0  0  0  0  0  0  0  0
   -6.5145   -1.2345    2.1381 F   0  0  0  0  0  0  0  0  0  0  0  0
    1.5702   -0.4070   -1.5084 O   0  0  0  0  0  0  0  0  0  0  0  0
   -1.3630   -2.8532   -1.4529 O   0  0  0  0  0  0  0  0  0  0  0  0
   -2.5272   -1.2219   -2.9797 O   0  0  0  0  0  0  0  0  0  0  0  0
    1.5535    2.5770    2.1658 O   0  0  0  0  0  0  0  0  0  0  0  0
    2.1361   -4.6633    0.0559 O   0  0  0  0  0  0  0  0  0  0  0  0
   -1.0367   -0.3249   -1.0819 N   0  0  2  0  0  0  0  0  0  0  0  0
    0.1544    1.8104    0.4557 N   0  0  0  0  0  0  0  0  0  0  0  0
    1.8147   -1.9536    0.2140 N   0  0  0  0  0  0  0  0  0  0  0  0
    4.3739   -4.4822    0.4764 N   0  0  0  0  0  0  0  0  0  0  0  0
    0.2888    6.3514    0.2582 N   0  0  0  0  0  0  0  0  0  0  0  0
   -0.1791   -0.6379    0.0946 C   0  0  2  0  0  0  0  0  0  0  0  0
   -0.0798    0.5133    1.0913 C   0  0  0  0  0  0  0  0  0  0  0  0
   -1.6378    1.0340   -1.0772 C   0  0  0  0  0  0  0  0  0  0  0  0
   -0.5476    2.0616   -0.8078 C   0  0  0  0  0  0  0  0  0  0  0  0
    1.1556   -0.9646   -0.4958 C   0  0  0  0  0  0  0  0  0  0  0  0
    3.1075   -2.4642   -0.1617 C   0  0  1  0  0  0  0  0  0  0  0  0
    4.2204   -1.6559    0.4910 C   0  0  0  0  0  0  0  0  0  0  0  0
    5.5600   -2.3213    0.2201 C   0  0  0  0  0  0  0  0  0  0  0  0
    0.9530    2.7565    1.1076 C   0  0  0  0  0  0  0  0  0  0  0  0
   -3.3723   -1.4810   -0.5295 C   0  0  0  0  0  0  0  0  0  0  0  0
    3.1376   -3.9532    0.1656 C   0  0  0  0  0  0  0  0  0  0  0  0
    5.5538   -3.7126    0.8247 C   0  0  0  0  0  0  0  0  0  0  0  0
    1.0940    4.0834    0.4878 C   0  0  0  0  0  0  0  0  0  0  0  0
   -4.4628   -0.6577   -0.8106 C   0  0  0  0  0  0  0  0  0  0  0  0
   -3.3432   -2.2208    0.6526 C   0  0  0  0  0  0  0  0  0  0  0  0
   -5.5241   -0.5745    0.0906 C   0  0  0  0  0  0  0  0  0  0  0  0
   -4.4046   -2.1375    1.5537 C   0  0  0  0  0  0  0  0  0  0  0  0
    2.1134    4.3455   -0.4207 C   0  0  0  0  0  0  0  0  0  0  0  0
    0.2155    5.1110    0.7910 C   0  0  0  0  0  0  0  0  0  0  0  0
   -5.4951   -1.3144    1.2727 C   0  0  0  0  0  0  0  0  0  0  0  0
    2.2216    5.6095   -0.9902 C   0  0  0  0  0  0  0  0  0  0  0  0
    1.2926    6.5688   -0.6209 C   0  0  0  0  0  0  0  0  0  0  0  0
   -0.5652   -1.5087    0.6327 H   0  0  0  0  0  0  0  0  0  0  0  0
   -1.0230    0.6094    1.6439 H   0  0  0  0  0  0  0  0  0  0  0  0
    0.7020    0.3154    1.8333 H   0  0  0  0  0  0  0  0  0  0  0  0
   -2.4070    1.1142   -0.3030 H   0  0  0  0  0  0  0  0  0  0  0  0
   -2.0910    1.2482   -2.0503 H   0  0  0  0  0  0  0  0  0  0  0  0
   -0.9880    3.0629   -0.7901 H   0  0  0  0  0  0  0  0  0  0  0  0
    0.2062    2.0450   -1.6036 H   0  0  0  0  0  0  0  0  0  0  0  0
    3.2073   -2.3879   -1.2525 H   0  0  0  0  0  0  0  0  0  0  0  0
    4.0562   -1.5773    1.5738 H   0  0  0  0  0  0  0  0  0  0  0  0
    4.2251   -0.6322    0.0982 H   0  0  0  0  0  0  0  0  0  0  0  0
    1.3883   -2.3227    1.0594 H   0  0  0  0  0  0  0  0  0  0  0  0
    6.3759   -1.7294    0.6486 H   0  0  0  0  0  0  0  0  0  0  0  0
    5.7324   -2.3815   -0.8614 H   0  0  0  0  0  0  0  0  0  0  0  0
    5.5786   -3.6538    1.9186 H   0  0  0  0  0  0  0  0  0  0  0  0
    6.4307   -4.2814    0.5001 H   0  0  0  0  0  0  0  0  0  0  0  0
    4.4162   -5.4836    0.6396 H   0  0  0  0  0  0  0  0  0  0  0  0
   -4.5064   -0.0711   -1.7237 H   0  0  0  0  0  0  0  0  0  0  0  0
   -2.5075   -2.8715    0.8926 H   0  0  0  0  0  0  0  0  0  0  0  0
   -6.3731    0.0668   -0.1274 H   0  0  0  0  0  0  0  0  0  0  0  0
   -4.3828   -2.7138    2.4740 H   0  0  0  0  0  0  0  0  0  0  0  0
    2.8270    3.5720   -0.6915 H   0  0  0  0  0  0  0  0  0  0  0  0
   -0.6004    4.9663    1.4926 H   0  0  0  0  0  0  0  0  0  0  0  0
    3.0080    5.8363   -1.7008 H   0  0  0  0  0  0  0  0  0  0  0  0
    1.3333    7.5703   -1.0366 H   0  0  0  0  0  0  0  0  0  0  0  0
  1  4  2  0  0  0  0
  1  5  2  0  0  0  0
  1  8  1  0  0  0  0
  1 22  1  0  0  0  0
  2 32  1  0  0  0  0
  3 17  2  0  0  0  0
  6 21  2  0  0  0  0
  7 23  2  0  0  0  0
  8 13  1  0  0  0  0
  8 15  1  0  0  0  0
  9 14  1  0  0  0  0
  9 16  1  0  0  0  0
  9 21  1  0  0  0  0
 10 17  1  0  0  0  0
 10 18  1  0  0  0  0
 10 45  1  0  0  0  0
 11 23  1  0  0  0  0
 11 24  1  0  0  0  0
 11 50  1  0  0  0  0
 12 31  1  0  0  0  0
 12 34  2  0  0  0  0
 13 14  1  0  0  0  0
 13 17  1  0  0  0  0
 13 35  1  0  0  0  0
 14 36  1  0  0  0  0
 14 37  1  0  0  0  0
 15 16  1  0  0  0  0
 15 38  1  0  0  0  0
 15 39  1  0  0  0  0
 16 40  1  0  0  0  0
 16 41  1  0  0  0  0
 18 19  1  0  0  0  0
 18 23  1  0  0  0  0
 18 42  1  0  0  0  0
 19 20  1  0  0  0  0
 19 43  1  0  0  0  0
 19 44  1  0  0  0  0
 20 24  1  0  0  0  0
 20 46  1  0  0  0  0
 20 47  1  0  0  0  0
 21 25  1  0  0  0  0
 22 26  2  0  0  0  0
 22 27  1  0  0  0  0
 24 48  1  0  0  0  0
 24 49  1  0  0  0  0
 25 30  1  0  0  0  0
 25 31  2  0  0  0  0
 26 28  1  0  0  0  0
 26 51  1  0  0  0  0
 27 29  2  0  0  0  0
 27 52  1  0  0  0  0
 28 32  2  0  0  0  0
 28 53  1  0  0  0  0
 29 32  1  0  0  0  0
 29 54  1  0  0  0  0
 30 33  2  0  0  0  0
 30 55  1  0  0  0  0
 31 56  1  0  0  0  0
 33 34  1  0  0  0  0
 33 57  1  0  0  0  0
 34 58  1  0  0  0  0
M  END
> <PUBCHEM_COMPOUND_CID>
7674050

> <PUBCHEM_CONFORMER_RMSD>
1

> <PUBCHEM_CONFORMER_DIVERSEORDER>
1
328
158
126
246
176
243
285
152
113
249
312
145
166
101
304
157
27
100
291
254
301
320
192
277
35
284
315
311
240
276
111
21
190
44
265
191
83
51
271
134
305
261
283
181
224
222
228
196
263
202
74
297
155
273
147
267
80
150
282
216
149
185
298
318
255
302
258
325
323
197
337
195
177
237
214
22
223
99
299
269
226
52
260
272
336
46
280
141
62
98
132
146
60
286
293
262
213
48
244
218
194
220
41
256
250
270
229
55
219
310
45
69
68
162
238
148
248
139
97
253
9
173
117
292
319
93
268
295
326
266
290
138
215
300
330
32
109
123
163
142
296
6
160
278
131
227
88
129
174
180
331
259
81
221
3
217
239
233
95
19
119
89
317
38
153
87
186
184
206
106
151
164
303
279
26
188
54
23
133
189
335
231
182
179
327
329
294
252
120
47
287
10
281
64
232
90
203
103
204
154
92
110
24
168
316
193
25
76
36
82
73
274
321
308
15
247
210
78
102
84
172
130
334
211
107
207
75
108
313
187
198
242
230
175
236
16
251
122
59
201
309
28
85
264
169
124
56
66
79
104
34
212
63
127
7
161
257
171
209
128
332
289
205
67
165
72
225
115
49
29
245
144
235
118
275
39
288
61
241
140
234
159
121
42
33
322
2
136
77
112
200
13
11
208
125
183
91
105
96
306
135
314
57
8
170
199
5
58
156
12
30
37
70
167
20
333
178
71
43
4
137
53
17
143
94
65
50
40
114
14
116
307
86
31
324
18

> <PUBCHEM_MMFF94_PARTIAL_CHARGES>
42
1 1.45
10 -0.73
11 -0.73
12 -0.62
13 0.42
14 0.3
15 0.36
16 0.3
17 0.57
18 0.36
2 -0.19
21 0.54
22 -0.01
23 0.57
24 0.3
25 0.09
26 -0.15
27 -0.15
28 -0.15
29 -0.15
3 -0.57
30 -0.15
31 0.16
32 0.19
33 -0.15
34 0.16
4 -0.65
45 0.37
5 -0.65
50 0.37
51 0.15
52 0.15
53 0.15
54 0.15
55 0.15
56 0.15
57 0.15
58 0.15
6 -0.57
7 -0.57
8 -0.85
9 -0.66

> <PUBCHEM_EFFECTIVE_ROTOR_COUNT>
9.2

> <PUBCHEM_PHARMACOPHORE_FEATURES>
12
1 10 donor
1 11 donor
1 12 acceptor
1 3 acceptor
1 4 acceptor
1 5 acceptor
1 6 acceptor
1 7 acceptor
6 11 18 19 20 23 24 rings
6 12 25 30 31 33 34 rings
6 22 26 27 28 29 32 rings
6 8 9 13 14 15 16 rings

> <PUBCHEM_HEAVY_ATOM_COUNT>
34

> <PUBCHEM_ATOM_DEF_STEREO_COUNT>
2

> <PUBCHEM_ATOM_UDEF_STEREO_COUNT>
0

> <PUBCHEM_BOND_DEF_STEREO_COUNT>
0

> <PUBCHEM_BOND_UDEF_STEREO_COUNT>
0

> <PUBCHEM_ISOTOPIC_ATOM_COUNT>
0

> <PUBCHEM_COMPONENT_COUNT>
1

> <PUBCHEM_CACTVS_TAUTO_COUNT>
4

> <PUBCHEM_CONFORMER_ID>
007518C200000001

> <PUBCHEM_MMFF94_ENERGY>
78.5359

> <PUBCHEM_FEATURE_SELFOVERLAP>
60.918

> <PUBCHEM_SHAPE_FINGERPRINT>
10074138 170 17689141323466950472
10319688 77 18265626393922852209
11445158 3 18342734152668579855
11763715 3 18193299407094263590
11991303 11 17187018488183297902
12160290 23 17483122539967978692
12788726 201 17760909767653984131
133893 2 17983833834566643327
14190465 44 17474363805178167914
14790565 3 17689718979467669764
15463212 79 17041182551582995040
15775530 1 17970598940231071389
15878777 1 11183506883647040061
15927050 60 17691695897533098750
17980427 26 18124881419724331207
18393751 57 17255407544943265563
19319366 153 17838626904838612137
20101258 96 18268986501515006410
21120745 212 18122080714631794102
21304303 282 17329125993601050516
21639891 77 18116988897621489893
21796203 349 18193585374137800187
23366157 5 18196925793472853847
3380486 145 18126538207231808750
3418910 222 18335424514163856950
376196 1 16312098942505105349
4058900 60 17763199320072004313
504843 32 17184191643745697708
6058803 2 17843395435360979991
6703917 75 17183364239840090189
79837 15 17401488143564183100
9896288 288 17832982746344479026

> <PUBCHEM_SHAPE_MULTIPOLES>
642.03
10.29
9.9
1.67
14.47
6.97
0.3
-5.86
-3.72
-21.64
-0.69
1.79
0.16
-1.13

> <PUBCHEM_SHAPE_SELFOVERLAP>
1362.459

> <PUBCHEM_SHAPE_VOLUME>
358.7

> <PUBCHEM_COORDINATE_TYPE>
2
5
10

$$$$
