45783463
  -OEChem-12032416263D

 56 59  0     1  0  0  0  0  0999 V2000
    0.5035    1.4015   -0.4650 F   0  0  0  0  0  0  0  0  0  0  0  0
    2.1558    2.6380    0.2538 F   0  0  0  0  0  0  0  0  0  0  0  0
    0.4937    3.5856   -0.8023 F   0  0  0  0  0  0  0  0  0  0  0  0
   -2.5401   -2.1724    0.8577 O   0  0  0  0  0  0  0  0  0  0  0  0
    0.1720    2.7935    1.3193 O   0  0  0  0  0  0  0  0  0  0  0  0
    4.1201   -1.2479   -0.8625 O   0  0  0  0  0  0  0  0  0  0  0  0
    5.5168    1.1803   -0.8344 O   0  0  0  0  0  0  0  0  0  0  0  0
   -3.4139    0.2562   -1.5270 N   0  0  1  0  0  0  0  0  0  0  0  0
   -0.9631   -1.4578   -0.5633 N   0  0  0  0  0  0  0  0  0  0  0  0
   -1.3106   -2.4529    1.4672 N   0  0  0  0  0  0  0  0  0  0  0  0
    1.3827   -2.6447    1.9347 N   0  0  0  0  0  0  0  0  0  0  0  0
   -3.4220   -1.1827   -1.1956 C   0  0  1  0  0  0  0  0  0  0  0  0
   -3.4339   -1.8981   -2.5591 C   0  0  0  0  0  0  0  0  0  0  0  0
   -3.4939   -0.7826   -3.5930 C   0  0  0  0  0  0  0  0  0  0  0  0
   -4.0780    0.3853   -2.8242 C   0  0  0  0  0  0  0  0  0  0  0  0
   -4.0410    1.0846   -0.5052 C   0  0  0  0  0  0  0  0  0  0  0  0
   -2.2452   -1.5881   -0.3330 C   0  0  0  0  0  0  0  0  0  0  0  0
   -3.1177    1.3360    0.6572 C   0  0  0  0  0  0  0  0  0  0  0  0
   -1.8860    1.9565    0.4478 C   0  0  0  0  0  0  0  0  0  0  0  0
   -3.4934    0.9480    1.9433 C   0  0  0  0  0  0  0  0  0  0  0  0
   -0.4300   -2.0023    0.5686 C   0  0  0  0  0  0  0  0  0  0  0  0
   -1.0301    2.1890    1.5244 C   0  0  0  0  0  0  0  0  0  0  0  0
   -2.6374    1.1803    3.0199 C   0  0  0  0  0  0  0  0  0  0  0  0
   -1.4058    1.8010    2.8106 C   0  0  0  0  0  0  0  0  0  0  0  0
    0.9878   -2.0826    0.7703 C   0  0  0  0  0  0  0  0  0  0  0  0
    1.8594   -1.6019   -0.1938 C   0  0  0  0  0  0  0  0  0  0  0  0
    3.2239   -1.7048    0.0532 C   0  0  0  0  0  0  0  0  0  0  0  0
    2.7164   -2.7274    2.1397 C   0  0  0  0  0  0  0  0  0  0  0  0
    0.8170    2.6029    0.0650 C   0  0  0  0  0  0  0  0  0  0  0  0
    3.6689   -2.2769    1.2398 C   0  0  0  0  0  0  0  0  0  0  0  0
    3.7134   -0.1492   -1.6778 C   0  0  0  0  0  0  0  0  0  0  0  0
    4.9315    0.6822   -2.0313 C   0  0  0  0  0  0  0  0  0  0  0  0
    6.6791    1.9512   -1.1050 C   0  0  0  0  0  0  0  0  0  0  0  0
   -4.3507   -1.4570   -0.6753 H   0  0  0  0  0  0  0  0  0  0  0  0
   -2.5654   -2.5427   -2.7319 H   0  0  0  0  0  0  0  0  0  0  0  0
   -4.3338   -2.5202   -2.6403 H   0  0  0  0  0  0  0  0  0  0  0  0
   -4.0978   -1.0567   -4.4630 H   0  0  0  0  0  0  0  0  0  0  0  0
   -2.4816   -0.5432   -3.9418 H   0  0  0  0  0  0  0  0  0  0  0  0
   -5.1666    0.2772   -2.7370 H   0  0  0  0  0  0  0  0  0  0  0  0
   -3.8522    1.3396   -3.3100 H   0  0  0  0  0  0  0  0  0  0  0  0
   -5.0003    0.6653   -0.1744 H   0  0  0  0  0  0  0  0  0  0  0  0
   -4.2806    2.0732   -0.9216 H   0  0  0  0  0  0  0  0  0  0  0  0
   -1.6374    2.2878   -0.5567 H   0  0  0  0  0  0  0  0  0  0  0  0
   -4.4486    0.4615    2.1210 H   0  0  0  0  0  0  0  0  0  0  0  0
   -2.9292    0.8767    4.0210 H   0  0  0  0  0  0  0  0  0  0  0  0
   -0.7428    1.9784    3.6529 H   0  0  0  0  0  0  0  0  0  0  0  0
    1.4798   -1.1880   -1.1219 H   0  0  0  0  0  0  0  0  0  0  0  0
    3.0115   -3.1814    3.0799 H   0  0  0  0  0  0  0  0  0  0  0  0
    4.7269   -2.3697    1.4588 H   0  0  0  0  0  0  0  0  0  0  0  0
    3.0158    0.5053   -1.1408 H   0  0  0  0  0  0  0  0  0  0  0  0
    3.2407   -0.5304   -2.5894 H   0  0  0  0  0  0  0  0  0  0  0  0
    5.6665    0.0576   -2.5522 H   0  0  0  0  0  0  0  0  0  0  0  0
    4.6407    1.5167   -2.6789 H   0  0  0  0  0  0  0  0  0  0  0  0
    7.4401    1.3385   -1.5979 H   0  0  0  0  0  0  0  0  0  0  0  0
    6.4298    2.8161   -1.7273 H   0  0  0  0  0  0  0  0  0  0  0  0
    7.0828    2.3103   -0.1545 H   0  0  0  0  0  0  0  0  0  0  0  0
  1 29  1  0  0  0  0
  2 29  1  0  0  0  0
  3 29  1  0  0  0  0
  4 10  1  0  0  0  0
  4 17  1  0  0  0  0
  5 22  1  0  0  0  0
  5 29  1  0  0  0  0
  6 27  1  0  0  0  0
  6 31  1  0  0  0  0
  7 32  1  0  0  0  0
  7 33  1  0  0  0  0
  8 12  1  0  0  0  0
  8 15  1  0  0  0  0
  8 16  1  0  0  0  0
  9 17  2  0  0  0  0
  9 21  1  0  0  0  0
 10 21  2  0  0  0  0
 11 25  2  0  0  0  0
 11 28  1  0  0  0  0
 12 13  1  0  0  0  0
 12 17  1  0  0  0  0
 12 34  1  0  0  0  0
 13 14  1  0  0  0  0
 13 35  1  0  0  0  0
 13 36  1  0  0  0  0
 14 15  1  0  0  0  0
 14 37  1  0  0  0  0
 14 38  1  0  0  0  0
 15 39  1  0  0  0  0
 15 40  1  0  0  0  0
 16 18  1  0  0  0  0
 16 41  1  0  0  0  0
 16 42  1  0  0  0  0
 18 19  2  0  0  0  0
 18 20  1  0  0  0  0
 19 22  1  0  0  0  0
 19 43  1  0  0  0  0
 20 23  2  0  0  0  0
 20 44  1  0  0  0  0
 21 25  1  0  0  0  0
 22 24  2  0  0  0  0
 23 24  1  0  0  0  0
 23 45  1  0  0  0  0
 24 46  1  0  0  0  0
 25 26  1  0  0  0  0
 26 27  2  0  0  0  0
 26 47  1  0  0  0  0
 27 30  1  0  0  0  0
 28 30  2  0  0  0  0
 28 48  1  0  0  0  0
 30 49  1  0  0  0  0
 31 32  1  0  0  0  0
 31 50  1  0  0  0  0
 31 51  1  0  0  0  0
 32 52  1  0  0  0  0
 32 53  1  0  0  0  0
 33 54  1  0  0  0  0
 33 55  1  0  0  0  0
 33 56  1  0  0  0  0
M  END
> <PUBCHEM_COMPOUND_CID>
45783463

> <PUBCHEM_CONFORMER_RMSD>
1

> <PUBCHEM_CONFORMER_DIVERSEORDER>
1
177
9
66
189
17
181
137
167
141
174
134
131
135
89
21
23
152
10
75
180
168
183
59
133
140
191
46
187
62
190
182
147
166
127
146
109
58
185
143
144
151
35
175
173
195
20
186
170
159
29
165
121
123
53
150
5
129
107
112
161
188
85
101
26
156
82
192
73
162
132
48
39
176
40
98
125
179
149
4
110
76
27
83
153
97
130
108
136
139
117
52
92
44
25
63
18
157
69
142
103
14
22
158
138
28
120
38
164
34
94
106
194
3
43
68
33
118
126
8
78
104
88
154
2
41
163
11
24
96
77
105
178
90
15
31
100
148
55
45
155
16
113
7
36
71
19
169
93
47
42
72
12
74
114
91
37
64
122
119
86
56
61
160
145
184
6
116
49
70
102
50
111
171
124
54
60
13
172
67
95
128
79
65
99
87
193
115
32
84
30
81
51
57
80

> <PUBCHEM_MMFF94_PARTIAL_CHARGES>
38
1 -0.34
10 -0.41
11 -0.62
12 0.45
15 0.27
16 0.41
17 0.3
18 -0.14
19 -0.15
2 -0.34
20 -0.15
21 0.46
22 0.08
23 -0.15
24 -0.15
25 0.36
26 -0.15
27 0.08
28 0.16
29 1.3
3 -0.34
30 -0.15
31 0.28
32 0.28
33 0.28
4 -0.02
43 0.15
44 0.15
45 0.15
46 0.15
47 0.15
48 0.15
49 0.15
5 -0.36
6 -0.36
7 -0.56
8 -0.81
9 -0.57

> <PUBCHEM_EFFECTIVE_ROTOR_COUNT>
11

> <PUBCHEM_PHARMACOPHORE_FEATURES>
10
1 11 acceptor
1 5 acceptor
1 6 acceptor
1 7 acceptor
1 8 cation
3 9 10 21 cation
5 4 9 10 17 21 rings
5 8 12 13 14 15 rings
6 11 25 26 27 28 30 rings
6 18 19 20 22 23 24 rings

> <PUBCHEM_HEAVY_ATOM_COUNT>
33

> <PUBCHEM_ATOM_DEF_STEREO_COUNT>
1

> <PUBCHEM_ATOM_UDEF_STEREO_COUNT>
0

> <PUBCHEM_BOND_DEF_STEREO_COUNT>
0

> <PUBCHEM_BOND_UDEF_STEREO_COUNT>
0

> <PUBCHEM_ISOTOPIC_ATOM_COUNT>
0

> <PUBCHEM_COMPONENT_COUNT>
1

> <PUBCHEM_CACTVS_TAUTO_COUNT>
1

> <PUBCHEM_CONFORMER_ID>
02BA99A700000001

> <PUBCHEM_MMFF94_ENERGY>
81.3878

> <PUBCHEM_FEATURE_SELFOVERLAP>
50.752

> <PUBCHEM_SHAPE_FINGERPRINT>
11578080 2 15793158981625103856
12156800 1 16167150070848157873
12166972 35 17680681779808720883
12596599 1 17702931535741346633
12741549 16 12620850112611020113
12788726 201 18130229233396185569
13583140 156 16516543079060488218
13947920 75 17988928829910729166
14840074 17 18126302864889370489
14931854 50 18410008862060681958
15021287 119 17905051357210852466
15484559 13 15955259706120728708
21033648 29 16298385721561268046
21315764 21 17459731641093748551
23557571 272 16844420805475798067
4409770 3 16612781536464679528
9981440 41 16732976565752455282

> <PUBCHEM_SHAPE_MULTIPOLES>
613.9
10.06
3.92
3.19
13.21
1.33
-0.55
1.37
-7.03
0.95
1.32
-2.25
-0.58
-4.15

> <PUBCHEM_SHAPE_SELFOVERLAP>
1319.662

> <PUBCHEM_SHAPE_VOLUME>
341.8

> <PUBCHEM_COORDINATE_TYPE>
2
5
10

$$$$
