28961971
  -OEChem-12032416353D

 71 74  0     1  0  0  0  0  0999 V2000
    1.3256    2.7268    0.6812 O   0  0  0  0  0  0  0  0  0  0  0  0
   -0.7789    3.5825   -1.2700 O   0  0  0  0  0  0  0  0  0  0  0  0
    2.4544    5.3011    0.7378 O   0  0  0  0  0  0  0  0  0  0  0  0
   -5.0358   -2.3424    1.5555 O   0  0  0  0  0  0  0  0  0  0  0  0
    1.8122   -1.6798    0.2816 O   0  0  0  0  0  0  0  0  0  0  0  0
   -1.9853    1.3023   -0.0181 N   0  0  0  0  0  0  0  0  0  0  0  0
   -4.3721   -0.2561   -0.2022 N   0  0  0  0  0  0  0  0  0  0  0  0
    2.2203    0.4014   -0.6597 N   0  0  0  0  0  0  0  0  0  0  0  0
    8.1693   -1.9648   -0.1256 N   0  0  0  0  0  0  0  0  0  0  0  0
   -0.9703    2.0990    0.6486 C   0  0  1  0  0  0  0  0  0  0  0  0
    0.4674    1.5696    0.5694 C   0  0  1  0  0  0  0  0  0  0  0  0
   -0.8368    3.5295    0.1496 C   0  0  1  0  0  0  0  0  0  0  0  0
    0.5102    3.9124    0.7507 C   0  0  2  0  0  0  0  0  0  0  0  0
   -2.0345   -0.0502    0.5510 C   0  0  0  0  0  0  0  0  0  0  0  0
   -3.3014    1.9416    0.0997 C   0  0  0  0  0  0  0  0  0  0  0  0
    0.8576    0.8396   -0.7109 C   0  0  0  0  0  0  0  0  0  0  0  0
   -3.0611   -0.9171   -0.1815 C   0  0  0  0  0  0  0  0  0  0  0  0
   -4.3712    1.1410   -0.6469 C   0  0  0  0  0  0  0  0  0  0  0  0
    1.2312    5.0570    0.0623 C   0  0  0  0  0  0  0  0  0  0  0  0
   -5.5055   -1.0500   -0.4105 C   0  0  0  0  0  0  0  0  0  0  0  0
    2.5957   -0.8432   -0.1597 C   0  0  0  0  0  0  0  0  0  0  0  0
   -5.8216   -2.0822    0.4728 C   0  0  0  0  0  0  0  0  0  0  0  0
   -6.3231   -0.8003   -1.5126 C   0  0  0  0  0  0  0  0  0  0  0  0
   -6.9554   -2.8647    0.2538 C   0  0  0  0  0  0  0  0  0  0  0  0
    4.0519   -1.1368   -0.1512 C   0  0  0  0  0  0  0  0  0  0  0  0
   -7.4567   -1.5828   -1.7317 C   0  0  0  0  0  0  0  0  0  0  0  0
   -7.7729   -2.6150   -0.8484 C   0  0  0  0  0  0  0  0  0  0  0  0
    4.5781   -2.0274    0.7847 C   0  0  0  0  0  0  0  0  0  0  0  0
    4.8931   -0.5217   -1.0783 C   0  0  0  0  0  0  0  0  0  0  0  0
   -5.3542   -1.6585    2.7657 C   0  0  0  0  0  0  0  0  0  0  0  0
    5.9455   -2.3025    0.7935 C   0  0  0  0  0  0  0  0  0  0  0  0
    6.2605   -0.7966   -1.0694 C   0  0  0  0  0  0  0  0  0  0  0  0
    6.7867   -1.6871   -0.1335 C   0  0  0  0  0  0  0  0  0  0  0  0
    8.7269   -2.8888    0.8421 C   0  0  0  0  0  0  0  0  0  0  0  0
    9.0500   -1.3359   -1.0899 C   0  0  0  0  0  0  0  0  0  0  0  0
   -1.2154    2.1688    1.7212 H   0  0  0  0  0  0  0  0  0  0  0  0
    0.6758    0.9248    1.4323 H   0  0  0  0  0  0  0  0  0  0  0  0
   -1.6358    4.1937    0.4944 H   0  0  0  0  0  0  0  0  0  0  0  0
    0.3987    4.1341    1.8200 H   0  0  0  0  0  0  0  0  0  0  0  0
   -2.3111   -0.0003    1.6140 H   0  0  0  0  0  0  0  0  0  0  0  0
   -1.0777   -0.5750    0.5152 H   0  0  0  0  0  0  0  0  0  0  0  0
   -3.3015    2.9446   -0.3397 H   0  0  0  0  0  0  0  0  0  0  0  0
   -3.5914    2.0453    1.1543 H   0  0  0  0  0  0  0  0  0  0  0  0
    0.8009    1.5171   -1.5696 H   0  0  0  0  0  0  0  0  0  0  0  0
    0.2332   -0.0254   -0.9368 H   0  0  0  0  0  0  0  0  0  0  0  0
   -2.7324   -1.0837   -1.2162 H   0  0  0  0  0  0  0  0  0  0  0  0
   -3.0825   -1.9004    0.2971 H   0  0  0  0  0  0  0  0  0  0  0  0
   -5.3436    1.6106   -0.4527 H   0  0  0  0  0  0  0  0  0  0  0  0
   -4.1781    1.1900   -1.7264 H   0  0  0  0  0  0  0  0  0  0  0  0
    0.6280    5.9697    0.0809 H   0  0  0  0  0  0  0  0  0  0  0  0
    1.4826    4.8050   -0.9729 H   0  0  0  0  0  0  0  0  0  0  0  0
   -0.8022    4.5189   -1.5306 H   0  0  0  0  0  0  0  0  0  0  0  0
    2.9248    1.0734   -0.9442 H   0  0  0  0  0  0  0  0  0  0  0  0
    2.8923    6.0387    0.2798 H   0  0  0  0  0  0  0  0  0  0  0  0
   -6.1014   -0.0157   -2.2303 H   0  0  0  0  0  0  0  0  0  0  0  0
   -7.2076   -3.6712    0.9370 H   0  0  0  0  0  0  0  0  0  0  0  0
   -8.0916   -1.3911   -2.5918 H   0  0  0  0  0  0  0  0  0  0  0  0
   -8.6551   -3.2250   -1.0195 H   0  0  0  0  0  0  0  0  0  0  0  0
    3.9393   -2.5130    1.5177 H   0  0  0  0  0  0  0  0  0  0  0  0
    4.5192    0.1536   -1.8421 H   0  0  0  0  0  0  0  0  0  0  0  0
   -4.6307   -1.9586    3.5286 H   0  0  0  0  0  0  0  0  0  0  0  0
   -6.3574   -1.9318    3.1077 H   0  0  0  0  0  0  0  0  0  0  0  0
   -5.2865   -0.5747    2.6278 H   0  0  0  0  0  0  0  0  0  0  0  0
    6.3064   -3.0015    1.5416 H   0  0  0  0  0  0  0  0  0  0  0  0
    6.8719   -0.2978   -1.8149 H   0  0  0  0  0  0  0  0  0  0  0  0
    9.8106   -2.9966    0.7213 H   0  0  0  0  0  0  0  0  0  0  0  0
    8.2993   -3.8907    0.7245 H   0  0  0  0  0  0  0  0  0  0  0  0
    8.5619   -2.5367    1.8665 H   0  0  0  0  0  0  0  0  0  0  0  0
   10.0903   -1.6527   -0.9549 H   0  0  0  0  0  0  0  0  0  0  0  0
    9.0409   -0.2455   -0.9826 H   0  0  0  0  0  0  0  0  0  0  0  0
    8.7729   -1.6069   -2.1148 H   0  0  0  0  0  0  0  0  0  0  0  0
  1 11  1  0  0  0  0
  1 13  1  0  0  0  0
  2 12  1  0  0  0  0
  2 52  1  0  0  0  0
  3 19  1  0  0  0  0
  3 54  1  0  0  0  0
  4 22  1  0  0  0  0
  4 30  1  0  0  0  0
  5 21  2  0  0  0  0
  6 10  1  0  0  0  0
  6 14  1  0  0  0  0
  6 15  1  0  0  0  0
  7 17  1  0  0  0  0
  7 18  1  0  0  0  0
  7 20  1  0  0  0  0
  8 16  1  0  0  0  0
  8 21  1  0  0  0  0
  8 53  1  0  0  0  0
  9 33  1  0  0  0  0
  9 34  1  0  0  0  0
  9 35  1  0  0  0  0
 10 11  1  0  0  0  0
 10 12  1  0  0  0  0
 10 36  1  0  0  0  0
 11 16  1  0  0  0  0
 11 37  1  0  0  0  0
 12 13  1  0  0  0  0
 12 38  1  0  0  0  0
 13 19  1  0  0  0  0
 13 39  1  0  0  0  0
 14 17  1  0  0  0  0
 14 40  1  0  0  0  0
 14 41  1  0  0  0  0
 15 18  1  0  0  0  0
 15 42  1  0  0  0  0
 15 43  1  0  0  0  0
 16 44  1  0  0  0  0
 16 45  1  0  0  0  0
 17 46  1  0  0  0  0
 17 47  1  0  0  0  0
 18 48  1  0  0  0  0
 18 49  1  0  0  0  0
 19 50  1  0  0  0  0
 19 51  1  0  0  0  0
 20 22  1  0  0  0  0
 20 23  2  0  0  0  0
 21 25  1  0  0  0  0
 22 24  2  0  0  0  0
 23 26  1  0  0  0  0
 23 55  1  0  0  0  0
 24 27  1  0  0  0  0
 24 56  1  0  0  0  0
 25 28  2  0  0  0  0
 25 29  1  0  0  0  0
 26 27  2  0  0  0  0
 26 57  1  0  0  0  0
 27 58  1  0  0  0  0
 28 31  1  0  0  0  0
 28 59  1  0  0  0  0
 29 32  2  0  0  0  0
 29 60  1  0  0  0  0
 30 61  1  0  0  0  0
 30 62  1  0  0  0  0
 30 63  1  0  0  0  0
 31 33  2  0  0  0  0
 31 64  1  0  0  0  0
 32 33  1  0  0  0  0
 32 65  1  0  0  0  0
 34 66  1  0  0  0  0
 34 67  1  0  0  0  0
 34 68  1  0  0  0  0
 35 69  1  0  0  0  0
 35 70  1  0  0  0  0
 35 71  1  0  0  0  0
M  END
> <PUBCHEM_COMPOUND_CID>
28961971

> <PUBCHEM_CONFORMER_RMSD>
1.2

> <PUBCHEM_CONFORMER_DIVERSEORDER>
1
28
33
54
56
20
48
8
47
49
37
16
12
14
55
45
58
13
18
31
17
53
35
46
38
27
44
51
10
59
32
43
36
34
19
57
41
25
24
30
26
5
39
52
7
21
22
9
42
40
50
15
4
29
23
11
6
2
3

> <PUBCHEM_MMFF94_PARTIAL_CHARGES>
46
1 -0.56
10 0.27
11 0.28
12 0.28
13 0.28
14 0.27
15 0.27
16 0.3
17 0.37
18 0.37
19 0.28
2 -0.68
20 0.1
21 0.54
22 0.08
23 -0.15
24 -0.15
25 0.09
26 -0.15
27 -0.15
28 -0.15
29 -0.15
3 -0.68
30 0.28
31 -0.15
32 -0.15
33 0.1
34 0.37
35 0.37
4 -0.36
5 -0.57
52 0.4
53 0.37
54 0.4
55 0.15
56 0.15
57 0.15
58 0.15
59 0.15
6 -0.81
60 0.15
64 0.15
65 0.15
7 -0.84
8 -0.73
9 -0.84

> <PUBCHEM_EFFECTIVE_ROTOR_COUNT>
11.2

> <PUBCHEM_PHARMACOPHORE_FEATURES>
15
1 1 acceptor
1 2 acceptor
1 2 donor
1 3 acceptor
1 3 donor
1 4 acceptor
1 5 acceptor
1 6 cation
1 7 cation
1 8 donor
1 9 cation
5 1 10 11 12 13 rings
6 20 22 23 24 26 27 rings
6 25 28 29 31 32 33 rings
6 6 7 14 15 17 18 rings

> <PUBCHEM_HEAVY_ATOM_COUNT>
35

> <PUBCHEM_ATOM_DEF_STEREO_COUNT>
4

> <PUBCHEM_ATOM_UDEF_STEREO_COUNT>
0

> <PUBCHEM_BOND_DEF_STEREO_COUNT>
0

> <PUBCHEM_BOND_UDEF_STEREO_COUNT>
0

> <PUBCHEM_ISOTOPIC_ATOM_COUNT>
0

> <PUBCHEM_COMPONENT_COUNT>
1

> <PUBCHEM_CACTVS_TAUTO_COUNT>
2

> <PUBCHEM_CONFORMER_ID>
01B9ECB300000001

> <PUBCHEM_MMFF94_ENERGY>
134.8531

> <PUBCHEM_FEATURE_SELFOVERLAP>
76.13

> <PUBCHEM_SHAPE_FINGERPRINT>
10 15 11743840270347014247
10050765 1 18412824716310629433
10100884 174 18334009463858443610
10369192 42 9943804491536674243
10411042 1 18412543210524738444
11204353 107 18048603908612561914
11297750 10 18337099133680066661
11410812 94 16588576514450422766
11475781 23 11602826757718747594
11497681 19 18263364695069769126
11621639 208 17684651321986725075
11756154 67 18411980286758002215
11963148 33 17766552835269454199
12166972 35 18113340825134916148
12522641 126 18188777291895022548
12758862 65 17988646328474446658
12841400 136 18409165515093844722
13248334 5 18051691336899762912
13540713 4 18339342150728788349
13540713 5 18129400314042187209
1361 87 17822297946165041027
13631057 29 18337107861485225546
13673619 4 17989483013836016490
13690498 29 18260259734171879277
13811026 1 18410284831116158856
14068700 675 18202562886920754873
14394314 77 18339645520946808977
15183329 4 16732978708772356875
15351339 4 17895748509165149858
15392192 29 18337402565077343731
15538507 32 18339081596795329958
15803439 3 14779269713007066008
15927050 60 17765434640301383582
16096371 109 17841426243725725425
16990366 60 18336258024643483266
16991971 28 18341899597636545118
16992752 21 18340775858187845100
17686467 74 18343012286640619168
19303781 99 18271512204721808647
19611394 137 18262810673351289810
19841028 212 18198903807304270279
20721686 56 18410291453765779833
20771845 171 18116151259030498716
21344244 246 18337111280443535588
21756936 100 8718532905102096417
21792965 169 18262535727874622422
21796203 349 18196400153963896547
23559900 14 17896037810230791997
23729398 52 18265901439677229784
23729417 116 18410008797574005700
249999 5 18126561460295915120
25019877 29 16559031592775918310
25269216 80 14924231581941924771
255183 451 18341046401992953773
2747138 104 18272646815101213304
32027 91 18337112388439115883
3504750 166 17757264878534670634
3627633 1 18268148665034116760
397638 26 9367338220190031470
4330586 98 17676781975210407538
439807 62 18333734637247435159
4408954 87 17124545414599540049
4461854 278 17703792547772951614
4516262 110 8718558190344772891
5219985 9 18413392033595937296
6057620 51 18334581214409966926
6673363 416 18341060628138052092
6697151 62 18197471061768909373
6700243 42 17699878158372627180
9896288 288 17986675857143690978
9962374 69 17916577778090855223

> <PUBCHEM_SHAPE_MULTIPOLES>
671.01
24.83
5.6
1.4
20.86
9.41
0.39
-36.3
-4.51
1.4
1.27
-1.77
-0.67
-0.01

> <PUBCHEM_SHAPE_SELFOVERLAP>
1419.935

> <PUBCHEM_SHAPE_VOLUME>
375.3

> <PUBCHEM_COORDINATE_TYPE>
2
5
10

$$$$
