75536711
  -OEChem-12032416313D

 51 53  0     1  0  0  0  0  0999 V2000
   -3.9741   -0.5007   -0.2244 S   0  0  0  0  0  0  0  0  0  0  0  0
   -1.1593    2.5606    1.3345 O   0  0  0  0  0  0  0  0  0  0  0  0
   -0.6664    4.8457   -0.8573 O   0  0  0  0  0  0  0  0  0  0  0  0
   -4.4092   -0.4213   -1.6059 O   0  0  0  0  0  0  0  0  0  0  0  0
   -4.9125   -0.8778    0.8152 O   0  0  0  0  0  0  0  0  0  0  0  0
    2.0109   -0.6431    1.6530 O   0  0  0  0  0  0  0  0  0  0  0  0
    1.4067    1.9222   -0.2313 N   0  0  0  0  0  0  0  0  0  0  0  0
   -3.2201    0.9601    0.2138 N   0  0  0  0  0  0  0  0  0  0  0  0
    0.7565    3.1898    0.0941 C   0  0  1  0  0  0  0  0  0  0  0  0
   -0.4638    3.4329   -0.7765 C   0  0  1  0  0  0  0  0  0  0  0  0
   -1.6248    2.8056   -0.0058 C   0  0  1  0  0  0  0  0  0  0  0  0
    0.1428    3.1388    1.4838 C   0  0  0  0  0  0  0  0  0  0  0  0
   -2.1028    1.4868   -0.5941 C   0  0  0  0  0  0  0  0  0  0  0  0
    2.7203    1.8297    0.3946 C   0  0  0  0  0  0  0  0  0  0  0  0
    3.3987    0.5221    0.0838 C   0  0  0  0  0  0  0  0  0  0  0  0
   -2.6268   -1.6420   -0.1423 C   0  0  0  0  0  0  0  0  0  0  0  0
    3.0116   -0.6527    0.7285 C   0  0  0  0  0  0  0  0  0  0  0  0
    4.4247    0.4938   -0.8608 C   0  0  0  0  0  0  0  0  0  0  0  0
   -2.3500   -2.3091    1.0512 C   0  0  0  0  0  0  0  0  0  0  0  0
   -1.8387   -1.8735   -1.2697 C   0  0  0  0  0  0  0  0  0  0  0  0
    3.6508   -1.8557    0.4286 C   0  0  0  0  0  0  0  0  0  0  0  0
    5.0638   -0.7092   -1.1605 C   0  0  0  0  0  0  0  0  0  0  0  0
   -1.2853   -3.2076    1.1171 C   0  0  0  0  0  0  0  0  0  0  0  0
   -0.7739   -2.7721   -1.2037 C   0  0  0  0  0  0  0  0  0  0  0  0
   -0.4973   -3.4392   -0.0104 C   0  0  0  0  0  0  0  0  0  0  0  0
    4.6769   -1.8840   -0.5159 C   0  0  0  0  0  0  0  0  0  0  0  0
    0.6413   -4.4000    0.0603 C   0  0  0  0  0  0  0  0  0  0  0  0
    1.4734    4.0160    0.0126 H   0  0  0  0  0  0  0  0  0  0  0  0
   -0.3630    3.0675   -1.8037 H   0  0  0  0  0  0  0  0  0  0  0  0
   -2.4712    3.4991    0.0716 H   0  0  0  0  0  0  0  0  0  0  0  0
    0.7051    2.5677    2.2268 H   0  0  0  0  0  0  0  0  0  0  0  0
    0.0092    4.1520    1.8812 H   0  0  0  0  0  0  0  0  0  0  0  0
   -1.2781    0.7696   -0.5628 H   0  0  0  0  0  0  0  0  0  0  0  0
   -2.4293    1.6214   -1.6298 H   0  0  0  0  0  0  0  0  0  0  0  0
    1.5206    1.8549   -1.2431 H   0  0  0  0  0  0  0  0  0  0  0  0
    2.6623    1.9294    1.4849 H   0  0  0  0  0  0  0  0  0  0  0  0
    3.3570    2.6568    0.0535 H   0  0  0  0  0  0  0  0  0  0  0  0
   -1.4664    4.9936   -1.3903 H   0  0  0  0  0  0  0  0  0  0  0  0
   -3.1650    1.1681    1.2194 H   0  0  0  0  0  0  0  0  0  0  0  0
    4.7361    1.4000   -1.3737 H   0  0  0  0  0  0  0  0  0  0  0  0
   -2.9456   -2.1382    1.9434 H   0  0  0  0  0  0  0  0  0  0  0  0
   -2.0337   -1.3610   -2.2075 H   0  0  0  0  0  0  0  0  0  0  0  0
    3.3610   -2.7782    0.9243 H   0  0  0  0  0  0  0  0  0  0  0  0
    5.8623   -0.7315   -1.8964 H   0  0  0  0  0  0  0  0  0  0  0  0
   -1.0784   -3.7211    2.0523 H   0  0  0  0  0  0  0  0  0  0  0  0
   -0.1673   -2.9434   -2.0890 H   0  0  0  0  0  0  0  0  0  0  0  0
    5.1745   -2.8207   -0.7493 H   0  0  0  0  0  0  0  0  0  0  0  0
    1.8722   -1.5485    1.9802 H   0  0  0  0  0  0  0  0  0  0  0  0
    0.2840   -5.4194   -0.1155 H   0  0  0  0  0  0  0  0  0  0  0  0
    1.4075   -4.1658   -0.6866 H   0  0  0  0  0  0  0  0  0  0  0  0
    1.1266   -4.3602    1.0414 H   0  0  0  0  0  0  0  0  0  0  0  0
  1  4  2  0  0  0  0
  1  5  2  0  0  0  0
  1  8  1  0  0  0  0
  1 16  1  0  0  0  0
  2 11  1  0  0  0  0
  2 12  1  0  0  0  0
  3 10  1  0  0  0  0
  3 38  1  0  0  0  0
  6 17  1  0  0  0  0
  6 48  1  0  0  0  0
  7  9  1  0  0  0  0
  7 14  1  0  0  0  0
  7 35  1  0  0  0  0
  8 13  1  0  0  0  0
  8 39  1  0  0  0  0
  9 10  1  0  0  0  0
  9 12  1  0  0  0  0
  9 28  1  0  0  0  0
 10 11  1  0  0  0  0
 10 29  1  0  0  0  0
 11 13  1  0  0  0  0
 11 30  1  0  0  0  0
 12 31  1  0  0  0  0
 12 32  1  0  0  0  0
 13 33  1  0  0  0  0
 13 34  1  0  0  0  0
 14 15  1  0  0  0  0
 14 36  1  0  0  0  0
 14 37  1  0  0  0  0
 15 17  1  0  0  0  0
 15 18  2  0  0  0  0
 16 19  2  0  0  0  0
 16 20  1  0  0  0  0
 17 21  2  0  0  0  0
 18 22  1  0  0  0  0
 18 40  1  0  0  0  0
 19 23  1  0  0  0  0
 19 41  1  0  0  0  0
 20 24  2  0  0  0  0
 20 42  1  0  0  0  0
 21 26  1  0  0  0  0
 21 43  1  0  0  0  0
 22 26  2  0  0  0  0
 22 44  1  0  0  0  0
 23 25  2  0  0  0  0
 23 45  1  0  0  0  0
 24 25  1  0  0  0  0
 24 46  1  0  0  0  0
 25 27  1  0  0  0  0
 26 47  1  0  0  0  0
 27 49  1  0  0  0  0
 27 50  1  0  0  0  0
 27 51  1  0  0  0  0
M  END
> <PUBCHEM_COMPOUND_CID>
75536711

> <PUBCHEM_CONFORMER_RMSD>
1.4

> <PUBCHEM_CONFORMER_DIVERSEORDER>
2
44
18
56
49
39
76
20
32
53
10
30
68
58
69
77
74
5
4
65
72
48
60
26
27
55
34
57
80
29
12
62
9
51
21
71
15
33
52
63
81
23
50
42
16
17
78
61
46
14
6
25
7
54
66
67
13
3
1
24
82
28
73
38
84
45
22
31
59
35
47
83
40
75
43
19
64
36
70
41
8
37
11
79

> <PUBCHEM_MMFF94_PARTIAL_CHARGES>
39
1 1.45
10 0.28
11 0.28
12 0.28
13 0.36
14 0.41
15 -0.14
16 -0.01
17 0.08
18 -0.15
19 -0.15
2 -0.56
20 -0.15
21 -0.15
22 -0.15
23 -0.15
24 -0.15
25 -0.14
26 -0.15
27 0.14
3 -0.68
35 0.36
38 0.4
39 0.42
4 -0.65
40 0.15
41 0.15
42 0.15
43 0.15
44 0.15
45 0.15
46 0.15
47 0.15
48 0.45
5 -0.65
6 -0.53
7 -0.9
8 -0.91
9 0.27

> <PUBCHEM_EFFECTIVE_ROTOR_COUNT>
8

> <PUBCHEM_PHARMACOPHORE_FEATURES>
12
1 2 acceptor
1 3 acceptor
1 3 donor
1 4 acceptor
1 5 acceptor
1 6 donor
1 7 cation
1 7 donor
1 8 donor
5 2 9 10 11 12 rings
6 15 17 18 21 22 26 rings
6 16 19 20 23 24 25 rings

> <PUBCHEM_HEAVY_ATOM_COUNT>
27

> <PUBCHEM_ATOM_DEF_STEREO_COUNT>
3

> <PUBCHEM_ATOM_UDEF_STEREO_COUNT>
0

> <PUBCHEM_BOND_DEF_STEREO_COUNT>
0

> <PUBCHEM_BOND_UDEF_STEREO_COUNT>
0

> <PUBCHEM_ISOTOPIC_ATOM_COUNT>
0

> <PUBCHEM_COMPONENT_COUNT>
1

> <PUBCHEM_CACTVS_TAUTO_COUNT>
3

> <PUBCHEM_CONFORMER_ID>
0480994700000002

> <PUBCHEM_MMFF94_ENERGY>
50.6023

> <PUBCHEM_FEATURE_SELFOVERLAP>
60.916

> <PUBCHEM_SHAPE_FINGERPRINT>
10670039 82 18266747883426036022
12038231 1 17401766320185657298
12156800 1 17254059233637862738
12553582 1 18337664312704806480
12788726 201 18338232670354460354
13122387 1 18122622756299510346
13402501 40 18412829079236948030
14251740 79 18127702534796532586
14251757 5 18336839645099094094
14279260 333 18041843909994827242
14363568 33 17904786700866221106
14725015 67 18338223856596408947
15721738 202 16373568299248763498
17627616 140 17687192989269290830
19319366 153 17749106738158293794
19930381 70 18338229461972133923
20600515 1 18270417082001774597
20764821 26 18339358673124474414
20775438 99 17192592380755377007
22113638 7 18339918324426792311
3027735 51 18195802969000179489
3298306 158 17977369543772322461
35225 105 18196922293306506036
463206 1 18119255201450569468
474144 1 17606947413505947338
6433294 58 18194683889501584800

> <PUBCHEM_SHAPE_MULTIPOLES>
520.19
8.44
6.15
1.31
4.18
2.21
0.07
-3.49
-1.71
-1.38
0.13
-0.21
-0.04
0.32

> <PUBCHEM_SHAPE_SELFOVERLAP>
1086.196

> <PUBCHEM_SHAPE_VOLUME>
296.1

> <PUBCHEM_COORDINATE_TYPE>
2
5
10

$$$$
