38345003
  -OEChem-12032416413D

 52 53  0     1  0  0  0  0  0999 V2000
   -0.7546   -1.8614    0.5271 O   0  0  0  0  0  0  0  0  0  0  0  0
   -3.3912   -1.0658   -1.2631 O   0  0  0  0  0  0  0  0  0  0  0  0
    5.3675   -1.2354    1.3187 O   0  0  0  0  0  0  0  0  0  0  0  0
    6.0702   -0.0113   -0.5061 O   0  0  0  0  0  0  0  0  0  0  0  0
    1.3144    1.3794   -0.0259 N   0  0  1  0  0  0  0  0  0  0  0  0
   -2.2735    0.3813    0.1478 N   0  0  0  0  0  0  0  0  0  0  0  0
    0.8267   -1.2439   -1.0201 N   0  0  0  0  0  0  0  0  0  0  0  0
   -4.5893    0.0696    0.3493 N   0  0  0  0  0  0  0  0  0  0  0  0
   -0.1607    1.5010   -0.0387 C   0  0  1  0  0  0  0  0  0  0  0  0
   -0.9950    0.3038   -0.5570 C   0  0  1  0  0  0  0  0  0  0  0  0
   -0.7347    1.6560    1.3904 C   0  0  0  0  0  0  0  0  0  0  0  0
    1.9357    0.9791   -1.3173 C   0  0  2  0  0  0  0  0  0  0  0  0
   -2.2110    1.3365    1.2423 C   0  0  0  0  0  0  0  0  0  0  0  0
    1.3345   -0.2820   -1.9798 C   0  0  0  0  0  0  0  0  0  0  0  0
   -0.3243   -1.0402   -0.2799 C   0  0  0  0  0  0  0  0  0  0  0  0
    3.4490    0.7180   -1.1493 C   0  0  0  0  0  0  0  0  0  0  0  0
    1.9218    2.6169    0.4920 C   0  0  0  0  0  0  0  0  0  0  0  0
   -3.4199   -0.2644   -0.3251 C   0  0  0  0  0  0  0  0  0  0  0  0
    3.7076   -0.1817    0.0455 C   0  0  0  0  0  0  0  0  0  0  0  0
   -5.8836   -0.4862    0.0207 C   0  0  0  0  0  0  0  0  0  0  0  0
    5.1861   -0.4430    0.2207 C   0  0  0  0  0  0  0  0  0  0  0  0
   -6.9832    0.5288    0.3043 C   0  0  0  0  0  0  0  0  0  0  0  0
   -6.1185   -1.7829    0.7856 C   0  0  0  0  0  0  0  0  0  0  0  0
    6.7260   -1.5722    1.6177 C   0  0  0  0  0  0  0  0  0  0  0  0
   -0.4517    2.3850   -0.6249 H   0  0  0  0  0  0  0  0  0  0  0  0
   -1.2108    0.3872   -1.6269 H   0  0  0  0  0  0  0  0  0  0  0  0
   -0.5952    2.6559    1.8118 H   0  0  0  0  0  0  0  0  0  0  0  0
   -0.2675    0.9314    2.0702 H   0  0  0  0  0  0  0  0  0  0  0  0
    1.8298    1.7984   -2.0419 H   0  0  0  0  0  0  0  0  0  0  0  0
   -2.6396    0.9112    2.1543 H   0  0  0  0  0  0  0  0  0  0  0  0
   -2.7850    2.2237    0.9529 H   0  0  0  0  0  0  0  0  0  0  0  0
    0.5220    0.0008   -2.6566 H   0  0  0  0  0  0  0  0  0  0  0  0
    2.0644   -0.8108   -2.6027 H   0  0  0  0  0  0  0  0  0  0  0  0
    3.9891    1.6657   -1.0317 H   0  0  0  0  0  0  0  0  0  0  0  0
    3.8696    0.2741   -2.0612 H   0  0  0  0  0  0  0  0  0  0  0  0
    1.3254   -2.1201   -0.9001 H   0  0  0  0  0  0  0  0  0  0  0  0
    3.0035    2.5383    0.6274 H   0  0  0  0  0  0  0  0  0  0  0  0
    1.5470    2.8639    1.4897 H   0  0  0  0  0  0  0  0  0  0  0  0
    1.7226    3.4678   -0.1694 H   0  0  0  0  0  0  0  0  0  0  0  0
    3.2376   -1.1592   -0.0909 H   0  0  0  0  0  0  0  0  0  0  0  0
    3.3542    0.2569    0.9833 H   0  0  0  0  0  0  0  0  0  0  0  0
   -4.5403    0.6811    1.1563 H   0  0  0  0  0  0  0  0  0  0  0  0
   -5.8932   -0.7141   -1.0519 H   0  0  0  0  0  0  0  0  0  0  0  0
   -6.8160    1.4507   -0.2635 H   0  0  0  0  0  0  0  0  0  0  0  0
   -7.9645    0.1319    0.0246 H   0  0  0  0  0  0  0  0  0  0  0  0
   -7.0138    0.7971    1.3663 H   0  0  0  0  0  0  0  0  0  0  0  0
   -6.0976   -1.6140    1.8680 H   0  0  0  0  0  0  0  0  0  0  0  0
   -5.3428   -2.5207    0.5535 H   0  0  0  0  0  0  0  0  0  0  0  0
   -7.0883   -2.2202    0.5267 H   0  0  0  0  0  0  0  0  0  0  0  0
    6.7313   -2.2033    2.5104 H   0  0  0  0  0  0  0  0  0  0  0  0
    7.3039   -0.6664    1.8245 H   0  0  0  0  0  0  0  0  0  0  0  0
    7.1684   -2.1328    0.7887 H   0  0  0  0  0  0  0  0  0  0  0  0
  1 15  2  0  0  0  0
  2 18  2  0  0  0  0
  3 21  1  0  0  0  0
  3 24  1  0  0  0  0
  4 21  2  0  0  0  0
  5  9  1  0  0  0  0
  5 12  1  0  0  0  0
  5 17  1  0  0  0  0
  6 10  1  0  0  0  0
  6 13  1  0  0  0  0
  6 18  1  0  0  0  0
  7 14  1  0  0  0  0
  7 15  1  0  0  0  0
  7 36  1  0  0  0  0
  8 18  1  0  0  0  0
  8 20  1  0  0  0  0
  8 42  1  0  0  0  0
  9 10  1  0  0  0  0
  9 11  1  0  0  0  0
  9 25  1  0  0  0  0
 10 15  1  0  0  0  0
 10 26  1  0  0  0  0
 11 13  1  0  0  0  0
 11 27  1  0  0  0  0
 11 28  1  0  0  0  0
 12 14  1  0  0  0  0
 12 16  1  0  0  0  0
 12 29  1  0  0  0  0
 13 30  1  0  0  0  0
 13 31  1  0  0  0  0
 14 32  1  0  0  0  0
 14 33  1  0  0  0  0
 16 19  1  0  0  0  0
 16 34  1  0  0  0  0
 16 35  1  0  0  0  0
 17 37  1  0  0  0  0
 17 38  1  0  0  0  0
 17 39  1  0  0  0  0
 19 21  1  0  0  0  0
 19 40  1  0  0  0  0
 19 41  1  0  0  0  0
 20 22  1  0  0  0  0
 20 23  1  0  0  0  0
 20 43  1  0  0  0  0
 22 44  1  0  0  0  0
 22 45  1  0  0  0  0
 22 46  1  0  0  0  0
 23 47  1  0  0  0  0
 23 48  1  0  0  0  0
 23 49  1  0  0  0  0
 24 50  1  0  0  0  0
 24 51  1  0  0  0  0
 24 52  1  0  0  0  0
M  END
> <PUBCHEM_COMPOUND_CID>
38345003

> <PUBCHEM_CONFORMER_RMSD>
0.8

> <PUBCHEM_CONFORMER_DIVERSEORDER>
1
39
56
63
27
44
17
93
101
66
79
91
92
30
78
60
94
32
102
42
100
26
77
13
18
49
76
68
99
67
98
73
55
65
58
53
64
5
41
22
75
3
71
72
54
51
70
61
52
45
97
95
88
7
20
43
62
28
89
86
34
84
21
15
90
2
80
57
85
23
38
10
33
59
96
83
50
47
103
82
87
14
74
40
11
24
4
19
35
25
9
46
69
16
37
31
8
6
81
12
29
36
48

> <PUBCHEM_MMFF94_PARTIAL_CHARGES>
22
1 -0.57
10 0.36
12 0.27
13 0.3
14 0.3
15 0.57
17 0.27
18 0.69
19 0.06
2 -0.57
20 0.3
21 0.66
24 0.28
3 -0.43
36 0.37
4 -0.57
42 0.37
5 -0.81
6 -0.66
7 -0.73
8 -0.73
9 0.27

> <PUBCHEM_EFFECTIVE_ROTOR_COUNT>
8.4

> <PUBCHEM_PHARMACOPHORE_FEATURES>
9
1 1 acceptor
1 2 acceptor
1 4 acceptor
1 5 cation
1 7 donor
1 8 donor
3 20 22 23 hydrophobe
5 6 9 10 11 13 rings
7 5 7 9 10 12 14 15 rings

> <PUBCHEM_HEAVY_ATOM_COUNT>
24

> <PUBCHEM_ATOM_DEF_STEREO_COUNT>
3

> <PUBCHEM_ATOM_UDEF_STEREO_COUNT>
0

> <PUBCHEM_BOND_DEF_STEREO_COUNT>
0

> <PUBCHEM_BOND_UDEF_STEREO_COUNT>
0

> <PUBCHEM_ISOTOPIC_ATOM_COUNT>
0

> <PUBCHEM_COMPONENT_COUNT>
1

> <PUBCHEM_CACTVS_TAUTO_COUNT>
6

> <PUBCHEM_CONFORMER_ID>
0249192B00000001

> <PUBCHEM_MMFF94_ENERGY>
56.8294

> <PUBCHEM_FEATURE_SELFOVERLAP>
45.715

> <PUBCHEM_SHAPE_FINGERPRINT>
10730089 47 18114744936223417995
10753850 27 17530956948506895858
10906281 52 17915764117394070988
11646440 116 17489317407738465675
11796584 16 18040443212814299435
12035758 1 17418370320133575946
12166972 35 18113622304391107420
12236239 1 18260267438715447368
12403260 363 18335145292995781957
12616971 3 18059854017171863365
12788726 201 17988098758329472585
13140716 1 17844524611541274942
13533116 47 18113899373274457120
13540713 4 17129596630708779444
13685833 64 17385442111829797818
13782708 43 18113901619526996483
13862211 1 18272089435404012887
14178342 30 17773892891085863912
14251752 14 18186517675208761333
14251764 18 18408885174389102238
15183329 4 14273451453586357848
16728300 4 18118950404996717874
17349148 13 18412830191986658902
17862501 102 18344145895122194692
17980427 23 16558168528020400188
1813 80 17822581487210567662
19784866 240 17968098603307244216
20567600 247 17749387091831951147
21267235 1 18201732755230242852
21307412 95 15141251975239248370
21637258 2 17385997356828090232
22079108 93 14908175352841549348
2215653 11 15068624885585876794
22224240 67 16128649752009800518
23402539 116 17917706920217451439
23536379 177 17675926499703449877
23557571 272 16702034044951023272
23559900 14 18129099094499026912
3004659 81 18340218461189456724
335352 9 18273217525670434245
3411729 13 17773025574713579560
345986 75 18116414970011209400
3472631 163 9727339269552792610
34797466 226 15285646507914195478
4072396 5 18201720647880978822
439807 62 18115033043189335907
465052 167 18335706061163280334
5104073 3 17773037668998028363
58260988 393 14476699497895753611
7495541 125 18263370338202400525

> <PUBCHEM_SHAPE_MULTIPOLES>
450.51
15.35
1.95
1.42
3.33
0.43
0.12
-7.45
-5.21
-0.46
-0.64
-1.25
-0.13
-1.24

> <PUBCHEM_SHAPE_SELFOVERLAP>
911.62

> <PUBCHEM_SHAPE_VOLUME>
261.8

> <PUBCHEM_COORDINATE_TYPE>
2
5
10

$$$$
