40779549
  -OEChem-12032416163D

 64 68  0     1  0  0  0  0  0999 V2000
   -2.9084    3.7286   -0.5410 S   0  0  0  0  0  0  0  0  0  0  0  0
   -0.3274    2.7432   -1.5211 S   0  0  0  0  0  0  0  0  0  0  0  0
   -3.4726    4.3960    0.6167 O   0  0  0  0  0  0  0  0  0  0  0  0
   -2.9770    4.3530   -1.8482 O   0  0  0  0  0  0  0  0  0  0  0  0
    4.2483    1.4805    1.4700 O   0  0  0  0  0  0  0  0  0  0  0  0
    6.2075    0.6386   -0.3122 O   0  0  0  0  0  0  0  0  0  0  0  0
   -4.1444   -1.0344    1.3010 N   0  0  2  0  0  0  0  0  0  0  0  0
   -0.1078   -3.5685   -0.2347 N   0  0  0  0  0  0  0  0  0  0  0  0
   -3.5402    2.1502   -0.6435 N   0  0  0  0  0  0  0  0  0  0  0  0
    1.2002   -3.3035   -0.3933 N   0  0  0  0  0  0  0  0  0  0  0  0
   -3.2956   -2.2863   -0.8193 C   0  0  2  0  0  0  0  0  0  0  0  0
   -2.3489   -2.5510    0.3840 C   0  0  2  0  0  0  0  0  0  0  0  0
   -4.0915   -0.0998    0.1460 C   0  0  2  0  0  0  0  0  0  0  0  0
   -3.3986   -0.7657   -1.0623 C   0  0  0  0  0  0  0  0  0  0  0  0
   -4.6983   -2.7743   -0.3980 C   0  0  0  0  0  0  0  0  0  0  0  0
   -2.8018   -1.6189    1.5439 C   0  0  0  0  0  0  0  0  0  0  0  0
   -5.0724   -2.1365    0.9514 C   0  0  0  0  0  0  0  0  0  0  0  0
   -3.4440    1.2384    0.5083 C   0  0  0  0  0  0  0  0  0  0  0  0
   -0.8472   -2.4869    0.1446 C   0  0  0  0  0  0  0  0  0  0  0  0
    0.0388   -1.4418    0.2414 C   0  0  0  0  0  0  0  0  0  0  0  0
    1.2836   -2.0029   -0.1011 C   0  0  0  0  0  0  0  0  0  0  0  0
   -0.5891   -4.9107   -0.4671 C   0  0  0  0  0  0  0  0  0  0  0  0
    2.5505   -1.3209   -0.1528 C   0  0  0  0  0  0  0  0  0  0  0  0
   -1.2012    3.4123   -0.2091 C   0  0  0  0  0  0  0  0  0  0  0  0
    2.7943   -0.2374    0.6912 C   0  0  0  0  0  0  0  0  0  0  0  0
    3.5338   -1.7432   -1.0473 C   0  0  0  0  0  0  0  0  0  0  0  0
   -0.4075    3.5926    0.9023 C   0  0  0  0  0  0  0  0  0  0  0  0
    4.0215    0.4236    0.6408 C   0  0  0  0  0  0  0  0  0  0  0  0
    4.7610   -1.0819   -1.0980 C   0  0  0  0  0  0  0  0  0  0  0  0
    0.9358    3.1761    0.6736 C   0  0  0  0  0  0  0  0  0  0  0  0
    5.0049    0.0014   -0.2539 C   0  0  0  0  0  0  0  0  0  0  0  0
    1.1176    2.6933   -0.6036 C   0  0  0  0  0  0  0  0  0  0  0  0
    4.8184    1.1927    2.7454 C   0  0  0  0  0  0  0  0  0  0  0  0
    7.1577    0.1442   -1.2542 C   0  0  0  0  0  0  0  0  0  0  0  0
   -2.9545   -2.8024   -1.7226 H   0  0  0  0  0  0  0  0  0  0  0  0
   -2.5555   -3.5762    0.7268 H   0  0  0  0  0  0  0  0  0  0  0  0
   -5.1274    0.1326   -0.1437 H   0  0  0  0  0  0  0  0  0  0  0  0
   -2.3956   -0.3599   -1.2375 H   0  0  0  0  0  0  0  0  0  0  0  0
   -3.9858   -0.5800   -1.9702 H   0  0  0  0  0  0  0  0  0  0  0  0
   -4.7127   -3.8669   -0.3102 H   0  0  0  0  0  0  0  0  0  0  0  0
   -5.4340   -2.5003   -1.1638 H   0  0  0  0  0  0  0  0  0  0  0  0
   -2.8383   -2.2057    2.4722 H   0  0  0  0  0  0  0  0  0  0  0  0
   -2.0865   -0.8208    1.7618 H   0  0  0  0  0  0  0  0  0  0  0  0
   -6.1024   -1.7610    0.9130 H   0  0  0  0  0  0  0  0  0  0  0  0
   -5.0660   -2.8943    1.7453 H   0  0  0  0  0  0  0  0  0  0  0  0
   -2.3913    1.0990    0.7681 H   0  0  0  0  0  0  0  0  0  0  0  0
   -3.9570    1.6879    1.3656 H   0  0  0  0  0  0  0  0  0  0  0  0
   -0.1902   -0.4196    0.5072 H   0  0  0  0  0  0  0  0  0  0  0  0
   -3.3768    1.6929   -1.5496 H   0  0  0  0  0  0  0  0  0  0  0  0
    0.2019   -5.5048   -0.9328 H   0  0  0  0  0  0  0  0  0  0  0  0
   -0.8638   -5.3481    0.4957 H   0  0  0  0  0  0  0  0  0  0  0  0
   -1.4511   -4.8667   -1.1368 H   0  0  0  0  0  0  0  0  0  0  0  0
    2.0472    0.1018    1.4052 H   0  0  0  0  0  0  0  0  0  0  0  0
    3.3692   -2.5791   -1.7233 H   0  0  0  0  0  0  0  0  0  0  0  0
   -0.7701    4.0025    1.8359 H   0  0  0  0  0  0  0  0  0  0  0  0
    5.4765   -1.4633   -1.8183 H   0  0  0  0  0  0  0  0  0  0  0  0
    1.7284    3.2294    1.4084 H   0  0  0  0  0  0  0  0  0  0  0  0
    2.0297    2.3197   -1.0463 H   0  0  0  0  0  0  0  0  0  0  0  0
    4.9447    2.1355    3.2846 H   0  0  0  0  0  0  0  0  0  0  0  0
    5.7991    0.7201    2.6317 H   0  0  0  0  0  0  0  0  0  0  0  0
    4.1532    0.5444    3.3248 H   0  0  0  0  0  0  0  0  0  0  0  0
    8.0539    0.7669   -1.1646 H   0  0  0  0  0  0  0  0  0  0  0  0
    6.7984    0.2507   -2.2835 H   0  0  0  0  0  0  0  0  0  0  0  0
    7.4598   -0.8827   -1.0218 H   0  0  0  0  0  0  0  0  0  0  0  0
  1  3  2  0  0  0  0
  1  4  2  0  0  0  0
  1  9  1  0  0  0  0
  1 24  1  0  0  0  0
  2 24  1  0  0  0  0
  2 32  1  0  0  0  0
  5 28  1  0  0  0  0
  5 33  1  0  0  0  0
  6 31  1  0  0  0  0
  6 34  1  0  0  0  0
  7 13  1  0  0  0  0
  7 16  1  0  0  0  0
  7 17  1  0  0  0  0
  8 10  1  0  0  0  0
  8 19  1  0  0  0  0
  8 22  1  0  0  0  0
  9 18  1  0  0  0  0
  9 49  1  0  0  0  0
 10 21  2  0  0  0  0
 11 12  1  0  0  0  0
 11 14  1  0  0  0  0
 11 15  1  0  0  0  0
 11 35  1  0  0  0  0
 12 16  1  0  0  0  0
 12 19  1  0  0  0  0
 12 36  1  0  0  0  0
 13 14  1  0  0  0  0
 13 18  1  0  0  0  0
 13 37  1  0  0  0  0
 14 38  1  0  0  0  0
 14 39  1  0  0  0  0
 15 17  1  0  0  0  0
 15 40  1  0  0  0  0
 15 41  1  0  0  0  0
 16 42  1  0  0  0  0
 16 43  1  0  0  0  0
 17 44  1  0  0  0  0
 17 45  1  0  0  0  0
 18 46  1  0  0  0  0
 18 47  1  0  0  0  0
 19 20  2  0  0  0  0
 20 21  1  0  0  0  0
 20 48  1  0  0  0  0
 21 23  1  0  0  0  0
 22 50  1  0  0  0  0
 22 51  1  0  0  0  0
 22 52  1  0  0  0  0
 23 25  2  0  0  0  0
 23 26  1  0  0  0  0
 24 27  2  0  0  0  0
 25 28  1  0  0  0  0
 25 53  1  0  0  0  0
 26 29  2  0  0  0  0
 26 54  1  0  0  0  0
 27 30  1  0  0  0  0
 27 55  1  0  0  0  0
 28 31  2  0  0  0  0
 29 31  1  0  0  0  0
 29 56  1  0  0  0  0
 30 32  2  0  0  0  0
 30 57  1  0  0  0  0
 32 58  1  0  0  0  0
 33 59  1  0  0  0  0
 33 60  1  0  0  0  0
 33 61  1  0  0  0  0
 34 62  1  0  0  0  0
 34 63  1  0  0  0  0
 34 64  1  0  0  0  0
M  END
> <PUBCHEM_COMPOUND_CID>
40779549

> <PUBCHEM_CONFORMER_RMSD>
1

> <PUBCHEM_CONFORMER_DIVERSEORDER>
2
176
116
15
165
137
111
131
85
155
117
12
162
172
135
163
95
158
178
65
142
97
143
148
156
147
41
93
173
159
112
99
10
174
154
150
152
58
56
17
188
38
124
151
51
179
104
171
86
68
101
183
64
16
119
76
157
37
54
60
83
180
61
88
74
149
18
46
35
44
139
22
133
138
107
160
52
66
42
92
123
62
186
90
126
98
177
189
128
130
31
69
184
14
175
21
132
89
63
140
105
75
118
153
161
81
136
3
146
106
164
109
79
182
145
115
100
70
40
53
134
45
122
36
28
47
181
170
129
114
120
6
50
102
13
48
33
27
1
67
30
144
108
39
121
91
32
168
55
26
78
71
82
103
125
169
11
87
77
80
141
9
59
127
49
110
113
185
20
167
29
166
5
24
187
8
23
96
7
84
57
43
4
73
72
34
19
25
94

> <PUBCHEM_MMFF94_PARTIAL_CHARGES>
39
1 1.5
10 -0.71
12 0.18
13 0.27
16 0.27
17 0.27
18 0.36
19 -0.33
2 -0.08
20 -0.15
21 0.23
22 0.26
23 0.05
24 -0.02
25 -0.15
26 -0.15
27 -0.15
28 0.08
29 -0.15
3 -0.65
30 -0.15
31 0.08
32 -0.11
33 0.28
34 0.28
4 -0.65
48 0.15
49 0.42
5 -0.36
53 0.15
54 0.15
55 0.15
56 0.15
57 0.15
58 0.15
6 -0.36
7 -0.81
8 0.31
9 -0.91

> <PUBCHEM_EFFECTIVE_ROTOR_COUNT>
9.2

> <PUBCHEM_PHARMACOPHORE_FEATURES>
11
1 10 acceptor
1 3 acceptor
1 4 acceptor
1 5 acceptor
1 6 acceptor
1 7 cation
1 9 donor
5 2 24 27 30 32 rings
5 8 10 19 20 21 rings
6 23 25 26 28 29 31 rings
8 7 11 12 13 14 15 16 17 rings

> <PUBCHEM_HEAVY_ATOM_COUNT>
34

> <PUBCHEM_ATOM_DEF_STEREO_COUNT>
3

> <PUBCHEM_ATOM_UDEF_STEREO_COUNT>
0

> <PUBCHEM_BOND_DEF_STEREO_COUNT>
0

> <PUBCHEM_BOND_UDEF_STEREO_COUNT>
0

> <PUBCHEM_ISOTOPIC_ATOM_COUNT>
0

> <PUBCHEM_COMPONENT_COUNT>
1

> <PUBCHEM_CACTVS_TAUTO_COUNT>
1

> <PUBCHEM_CONFORMER_ID>
026E3F1D00000002

> <PUBCHEM_MMFF94_ENERGY>
93.8282

> <PUBCHEM_FEATURE_SELFOVERLAP>
55.846

> <PUBCHEM_SHAPE_FINGERPRINT>
10670039 82 18408046212910494014
10864689 126 18270113501176699948
11014199 57 17907014332888862718
11513181 2 18342470235317669742
12166972 35 17986680470039339810
12645989 146 18271248343116036030
12788726 201 18260545658618618522
13122387 1 18409729543437186405
13165053 103 16196521343269748494
13402501 40 18412263951703283689
13561361 72 18411130368643696424
14114211 80 17769100047455520017
14117953 113 18340203102982634967
14725015 67 18262502806300665931
15274700 232 17259632439981304894
15276724 80 18339650057434697460
15297060 5 18270129993914212440
15320467 1 18411421742981492581
15400415 2 17833552297631180468
15721738 15 17110134046531911628
16067689 391 17127341477042536550
16067690 210 18041548264997308664
16112460 7 17263569807491871241
161222 619 17557389310971024080
18336668 15 18114750441907190268
19611394 137 17827092993309247851
20721686 56 18119534481376556538
20764821 26 18122612860557671688
21033648 144 17987795345303209830
21033648 29 18273212036269895474
21796203 349 17829651487872824953
21859007 373 18272357695198916210
238918 7 18271509945378482634
25019877 29 17273710943007466079
25223398 141 18408602531719584348
463206 1 17977104887971380129
469060 322 17095246891040079252
484989 97 18271252621778382686
50150288 127 16341465574705645369
5047190 48 17836917168484491816
508706 21 18410851079261539425
5171179 24 18201146767188874984
653340 110 18411413999308893512

> <PUBCHEM_SHAPE_MULTIPOLES>
664
12.16
6.53
1.51
14.6
3.19
0.5
-1.5
0.12
-7.01
-1.27
1.01
0.73
1.94

> <PUBCHEM_SHAPE_SELFOVERLAP>
1406.474

> <PUBCHEM_SHAPE_VOLUME>
376.1

> <PUBCHEM_COORDINATE_TYPE>
2
5
10

$$$$
