75536846
  -OEChem-12032416343D

 36 36  0     1  0  0  0  0  0999 V2000
   -1.9377   -1.3946    0.0990 O   0  0  0  0  0  0  0  0  0  0  0  0
   -3.0308    1.9928   -0.3868 O   0  0  0  0  0  0  0  0  0  0  0  0
    2.6608   -0.6141    0.4208 O   0  0  0  0  0  0  0  0  0  0  0  0
    1.6206    1.3337   -0.2105 O   0  0  0  0  0  0  0  0  0  0  0  0
   -5.3299   -0.1481   -0.3130 N   0  0  0  0  0  0  0  0  0  0  0  0
    0.5278   -0.2704    1.0632 N   0  0  0  0  0  0  0  0  0  0  0  0
   -3.0419    0.6955    0.1764 C   0  0  2  0  0  0  0  0  0  0  0  0
   -1.6815    0.0194    0.0717 C   0  0  1  0  0  0  0  0  0  0  0  0
   -3.9109   -0.2741   -0.6029 C   0  0  1  0  0  0  0  0  0  0  0  0
   -3.3345   -1.6113   -0.1675 C   0  0  0  0  0  0  0  0  0  0  0  0
   -0.7373    0.3919    1.2009 C   0  0  0  0  0  0  0  0  0  0  0  0
    3.8480   -0.1939   -0.2609 C   0  0  0  0  0  0  0  0  0  0  0  0
    1.6057    0.2525    0.3688 C   0  0  0  0  0  0  0  0  0  0  0  0
    4.3258    1.1186    0.3587 C   0  0  0  0  0  0  0  0  0  0  0  0
    3.5191   -0.0094   -1.7417 C   0  0  0  0  0  0  0  0  0  0  0  0
    4.8966   -1.2886   -0.0762 C   0  0  0  0  0  0  0  0  0  0  0  0
   -3.3689    0.7667    1.2213 H   0  0  0  0  0  0  0  0  0  0  0  0
   -1.2079    0.2470   -0.8925 H   0  0  0  0  0  0  0  0  0  0  0  0
   -3.7572   -0.1311   -1.6801 H   0  0  0  0  0  0  0  0  0  0  0  0
   -3.7874   -1.9772    0.7612 H   0  0  0  0  0  0  0  0  0  0  0  0
   -3.4460   -2.3855   -0.9327 H   0  0  0  0  0  0  0  0  0  0  0  0
   -1.1465    0.0758    2.1667 H   0  0  0  0  0  0  0  0  0  0  0  0
   -0.5756    1.4748    1.2273 H   0  0  0  0  0  0  0  0  0  0  0  0
   -5.8537   -0.8335   -0.8554 H   0  0  0  0  0  0  0  0  0  0  0  0
   -5.6601    0.7699   -0.6072 H   0  0  0  0  0  0  0  0  0  0  0  0
   -2.7477    1.9204   -1.3141 H   0  0  0  0  0  0  0  0  0  0  0  0
    0.6406   -1.1831    1.4940 H   0  0  0  0  0  0  0  0  0  0  0  0
    5.3639    1.3218    0.0693 H   0  0  0  0  0  0  0  0  0  0  0  0
    4.2860    1.0736    1.4533 H   0  0  0  0  0  0  0  0  0  0  0  0
    3.7585    2.0005    0.0509 H   0  0  0  0  0  0  0  0  0  0  0  0
    4.4403    0.0459   -2.3340 H   0  0  0  0  0  0  0  0  0  0  0  0
    2.9639    0.9026   -1.9747 H   0  0  0  0  0  0  0  0  0  0  0  0
    2.9276   -0.8516   -2.1193 H   0  0  0  0  0  0  0  0  0  0  0  0
    5.0997   -1.4560    0.9878 H   0  0  0  0  0  0  0  0  0  0  0  0
    5.8395   -1.0388   -0.5735 H   0  0  0  0  0  0  0  0  0  0  0  0
    4.5360   -2.2432   -0.4763 H   0  0  0  0  0  0  0  0  0  0  0  0
  1  8  1  0  0  0  0
  1 10  1  0  0  0  0
  2  7  1  0  0  0  0
  2 26  1  0  0  0  0
  3 12  1  0  0  0  0
  3 13  1  0  0  0  0
  4 13  2  0  0  0  0
  5  9  1  0  0  0  0
  5 24  1  0  0  0  0
  5 25  1  0  0  0  0
  6 11  1  0  0  0  0
  6 13  1  0  0  0  0
  6 27  1  0  0  0  0
  7  8  1  0  0  0  0
  7  9  1  0  0  0  0
  7 17  1  0  0  0  0
  8 11  1  0  0  0  0
  8 18  1  0  0  0  0
  9 10  1  0  0  0  0
  9 19  1  0  0  0  0
 10 20  1  0  0  0  0
 10 21  1  0  0  0  0
 11 22  1  0  0  0  0
 11 23  1  0  0  0  0
 12 14  1  0  0  0  0
 12 15  1  0  0  0  0
 12 16  1  0  0  0  0
 14 28  1  0  0  0  0
 14 29  1  0  0  0  0
 14 30  1  0  0  0  0
 15 31  1  0  0  0  0
 15 32  1  0  0  0  0
 15 33  1  0  0  0  0
 16 34  1  0  0  0  0
 16 35  1  0  0  0  0
 16 36  1  0  0  0  0
M  END
> <PUBCHEM_COMPOUND_CID>
75536846

> <PUBCHEM_CONFORMER_RMSD>
0.8

> <PUBCHEM_CONFORMER_DIVERSEORDER>
1
58
42
57
12
29
3
17
5
16
20
33
32
39
11
54
26
45
24
14
15
44
37
4
55
41
27
43
7
52
35
31
25
46
18
30
49
50
40
48
47
9
8
51
21
10
6
23
38
22
53
56
19
34
28
2
36
13

> <PUBCHEM_MMFF94_PARTIAL_CHARGES>
17
1 -0.56
10 0.28
11 0.3
12 0.28
13 0.78
2 -0.68
24 0.36
25 0.36
26 0.4
27 0.37
3 -0.43
4 -0.57
5 -0.99
6 -0.73
7 0.28
8 0.28
9 0.27

> <PUBCHEM_EFFECTIVE_ROTOR_COUNT>
6

> <PUBCHEM_PHARMACOPHORE_FEATURES>
9
1 1 acceptor
1 2 acceptor
1 2 donor
1 4 acceptor
1 5 cation
1 5 donor
1 6 donor
4 12 14 15 16 hydrophobe
5 1 7 8 9 10 rings

> <PUBCHEM_HEAVY_ATOM_COUNT>
16

> <PUBCHEM_ATOM_DEF_STEREO_COUNT>
3

> <PUBCHEM_ATOM_UDEF_STEREO_COUNT>
0

> <PUBCHEM_BOND_DEF_STEREO_COUNT>
0

> <PUBCHEM_BOND_UDEF_STEREO_COUNT>
0

> <PUBCHEM_ISOTOPIC_ATOM_COUNT>
0

> <PUBCHEM_COMPONENT_COUNT>
1

> <PUBCHEM_CACTVS_TAUTO_COUNT>
2

> <PUBCHEM_CONFORMER_ID>
048099CE00000001

> <PUBCHEM_MMFF94_ENERGY>
33.2027

> <PUBCHEM_FEATURE_SELFOVERLAP>
45.671

> <PUBCHEM_SHAPE_FINGERPRINT>
10751810 167 18335143093829516723
114248 4 18411980286356555473
11543360 7 18410015476542464544
12186901 62 18336540543681946109
12815109 37 15913326892368456395
12916748 109 18259985985192571801
13296908 3 17989207057723397864
13705890 14 17988926678274590432
14252887 29 14189582923054545534
14386348 63 17275388711228807815
17870717 6 18201168684417159407
1813 80 14620522254311520832
18186145 218 15647061477706901912
1986462 14 18412827971314558141
200 152 17632294570771605890
20279233 1 17632582655951086830
20281475 54 15554450708120351028
20300324 65 18334857225359887497
20374829 77 17917988391258098319
20432913 95 15626227913650253246
20645477 70 17560807602395180662
20671657 53 18059859463048106208
20871999 31 18413386523464321393
21119208 17 18333730230109627955
212847 35 13117997803965785550
22094290 60 18410291411085235833
22485316 2 17703506683359781326
22854114 59 11743839153538978858
22926399 37 16298384665320566013
231179 274 14490187219976105026
23402539 116 18273208673811538501
23402655 69 18113337492314335388
23403322 49 17917994962152022263
23557571 272 18201440263699860752
23559900 14 18273209829210151176
26918003 58 13758351185380473319
3004659 81 18409730621764452750
4028521 119 17749098981341563061
4047638 21 15213021566081959044
42 15 9151179757333188088
4214541 1 18412262804999938448
559249 180 18267017259004950930
58051976 100 18410292540561622375
633830 44 16950569869855162242
77779 3 18411699902333186488
93112 12 18408885174009222417
9882013 296 12031783648161884738
9971528 1 17676487246802716188

> <PUBCHEM_SHAPE_MULTIPOLES>
295.83
10.97
1.43
1.03
0.64
0.07
-0.19
-1.56
-2.21
-0.38
-0.06
0.58
0.03
0.15

> <PUBCHEM_SHAPE_SELFOVERLAP>
588.513

> <PUBCHEM_SHAPE_VOLUME>
177.6

> <PUBCHEM_COORDINATE_TYPE>
2
5
10

$$$$
