45784077
  -OEChem-12032416243D

 36 39  0     1  0  0  0  0  0999 V2000
    2.8093    0.4260   -0.0207 N   0  0  1  0  0  0  0  0  0  0  0  0
   -1.8402    0.9052   -1.0788 N   0  0  0  0  0  0  0  0  0  0  0  0
   -1.2974   -0.2444    0.7498 N   0  0  0  0  0  0  0  0  0  0  0  0
   -3.5126   -1.1210    1.2163 N   0  0  0  0  0  0  0  0  0  0  0  0
    3.7737   -0.6413    0.2701 C   0  0  0  0  0  0  0  0  0  0  0  0
    5.1767   -0.0309    0.4685 C   0  0  0  0  0  0  0  0  0  0  0  0
    4.3026   -1.2348   -1.0523 C   0  0  0  0  0  0  0  0  0  0  0  0
    1.5722   -0.1280   -0.5779 C   0  0  0  0  0  0  0  0  0  0  0  0
    0.5710    1.0197   -0.3902 C   0  0  2  0  0  0  0  0  0  0  0  0
    5.7130   -1.1646   -0.4303 C   0  0  0  0  0  0  0  0  0  0  0  0
    2.3964    1.1015    1.2107 C   0  0  0  0  0  0  0  0  0  0  0  0
    1.1328    1.8382    0.7854 C   0  0  0  0  0  0  0  0  0  0  0  0
   -0.8499    0.5389   -0.2073 C   0  0  0  0  0  0  0  0  0  0  0  0
   -3.0016    0.3190   -0.6545 C   0  0  0  0  0  0  0  0  0  0  0  0
   -2.6357   -0.3897    0.4843 C   0  0  0  0  0  0  0  0  0  0  0  0
   -4.3088    0.3274   -1.1283 C   0  0  0  0  0  0  0  0  0  0  0  0
   -5.2208   -0.4190   -0.3869 C   0  0  0  0  0  0  0  0  0  0  0  0
   -4.7806   -1.1021    0.7419 C   0  0  0  0  0  0  0  0  0  0  0  0
    3.4835   -1.3879    1.0195 H   0  0  0  0  0  0  0  0  0  0  0  0
    5.5522   -0.0318    1.4956 H   0  0  0  0  0  0  0  0  0  0  0  0
    5.3331    0.9659    0.0373 H   0  0  0  0  0  0  0  0  0  0  0  0
    4.2025   -0.6011   -1.9427 H   0  0  0  0  0  0  0  0  0  0  0  0
    3.9493   -2.2408   -1.2954 H   0  0  0  0  0  0  0  0  0  0  0  0
    0.6095    1.6609   -1.2830 H   0  0  0  0  0  0  0  0  0  0  0  0
    1.2522   -1.0285   -0.0363 H   0  0  0  0  0  0  0  0  0  0  0  0
    1.6751   -0.3873   -1.6372 H   0  0  0  0  0  0  0  0  0  0  0  0
    5.9977   -2.0680    0.1212 H   0  0  0  0  0  0  0  0  0  0  0  0
    6.5219   -0.8908   -1.1118 H   0  0  0  0  0  0  0  0  0  0  0  0
    3.1580    1.7950    1.5811 H   0  0  0  0  0  0  0  0  0  0  0  0
    2.1568    0.3876    2.0095 H   0  0  0  0  0  0  0  0  0  0  0  0
    1.3843    2.8483    0.4385 H   0  0  0  0  0  0  0  0  0  0  0  0
    0.4308    1.9392    1.6200 H   0  0  0  0  0  0  0  0  0  0  0  0
   -1.7349    1.5007   -1.8896 H   0  0  0  0  0  0  0  0  0  0  0  0
   -4.6013    0.8769   -2.0145 H   0  0  0  0  0  0  0  0  0  0  0  0
   -6.2627   -0.4669   -0.6866 H   0  0  0  0  0  0  0  0  0  0  0  0
   -5.4858   -1.6871    1.3264 H   0  0  0  0  0  0  0  0  0  0  0  0
  1  5  1  0  0  0  0
  1  8  1  0  0  0  0
  1 11  1  0  0  0  0
  2 13  1  0  0  0  0
  2 14  1  0  0  0  0
  2 33  1  0  0  0  0
  3 13  2  0  0  0  0
  3 15  1  0  0  0  0
  4 15  1  0  0  0  0
  4 18  2  0  0  0  0
  5  6  1  0  0  0  0
  5  7  1  0  0  0  0
  5 19  1  0  0  0  0
  6 10  1  0  0  0  0
  6 20  1  0  0  0  0
  6 21  1  0  0  0  0
  7 10  1  0  0  0  0
  7 22  1  0  0  0  0
  7 23  1  0  0  0  0
  8  9  1  0  0  0  0
  8 25  1  0  0  0  0
  8 26  1  0  0  0  0
  9 12  1  0  0  0  0
  9 13  1  0  0  0  0
  9 24  1  0  0  0  0
 10 27  1  0  0  0  0
 10 28  1  0  0  0  0
 11 12  1  0  0  0  0
 11 29  1  0  0  0  0
 11 30  1  0  0  0  0
 12 31  1  0  0  0  0
 12 32  1  0  0  0  0
 14 15  2  0  0  0  0
 14 16  1  0  0  0  0
 16 17  2  0  0  0  0
 16 34  1  0  0  0  0
 17 18  1  0  0  0  0
 17 35  1  0  0  0  0
 18 36  1  0  0  0  0
M  END
> <PUBCHEM_COMPOUND_CID>
45784077

> <PUBCHEM_CONFORMER_RMSD>
0.6

> <PUBCHEM_CONFORMER_DIVERSEORDER>
1
15
11
18
8
14
10
9
6
17
12
13
7
5
4
16
3
2

> <PUBCHEM_MMFF94_PARTIAL_CHARGES>
18
1 -0.75
11 0.27
13 0.01
14 -0.15
15 0.48
16 -0.15
17 -0.15
18 0.16
2 0.03
3 -0.57
33 0.27
34 0.15
35 0.15
36 0.15
4 -0.57
5 0.21
8 0.27
9 0.18

> <PUBCHEM_EFFECTIVE_ROTOR_COUNT>
3.8

> <PUBCHEM_PHARMACOPHORE_FEATURES>
8
1 1 cation
1 2 donor
1 4 acceptor
3 2 3 13 cation
4 5 6 7 10 rings
5 1 8 9 11 12 rings
5 2 3 13 14 15 rings
6 4 14 15 16 17 18 rings

> <PUBCHEM_HEAVY_ATOM_COUNT>
18

> <PUBCHEM_ATOM_DEF_STEREO_COUNT>
1

> <PUBCHEM_ATOM_UDEF_STEREO_COUNT>
0

> <PUBCHEM_BOND_DEF_STEREO_COUNT>
0

> <PUBCHEM_BOND_UDEF_STEREO_COUNT>
0

> <PUBCHEM_ISOTOPIC_ATOM_COUNT>
0

> <PUBCHEM_COMPONENT_COUNT>
1

> <PUBCHEM_CACTVS_TAUTO_COUNT>
3

> <PUBCHEM_CONFORMER_ID>
02BA9C0D00000001

> <PUBCHEM_MMFF94_ENERGY>
40.4007

> <PUBCHEM_FEATURE_SELFOVERLAP>
40.726

> <PUBCHEM_SHAPE_FINGERPRINT>
10912923 1 16200146637972315712
11128504 68 15357700803201000934
11287383 113 17894912958037746932
11543360 7 16950290606902666700
11796584 16 18187082840943379218
12107183 9 14976617606413428406
12236239 1 16343699945573177549
12251169 10 16343701041032652012
12507557 5 12391508689620180523
12516196 113 18202280312421899264
12596602 18 15841546388351838906
12670546 177 16008752415753525574
13288520 33 18040999540244232407
13544592 145 18261391182617233937
13631057 29 12397166832803208569
13685833 64 18411421726033965963
13760787 19 14996279232502450753
13911852 28 17630613323536771502
13914758 101 17346599622112259801
13955234 65 18200027490659634352
14251718 22 17095526209895688470
14251731 8 17822008701075045767
14252887 29 17775570806412605190
14341114 328 14836402545147622898
14366163 111 14996282526536586404
14386348 63 18408886230719104134
14455015 7 18412548708040373995
14528608 73 13767930139028973270
14617045 38 17894633638997722595
15188451 53 15913030050441769175
15242439 84 18260260850488848949
15527383 91 17632577158524823408
15788980 27 17846495928726762725
17804303 29 18040997366964523701
17834072 33 16153428359027991310
17834072 8 17822003216781630095
17844677 252 18259707800024114652
17862501 102 16343698841829853663
17870717 6 17894353259184703583
17980427 23 13614231612085272449
1813 80 17703804600062482812
18222031 100 17918275338186596540
19050596 39 15841551907447565581
19141452 34 18272088340013584535
193927 3 18341906168709400958
200 152 17917988373956753861
20325693 3 16950564376866297223
20374829 77 18040432196112018819
20432913 95 17917713487343973750
20645477 70 18342733039981600148
20681677 155 16587742032016139273
20871999 31 17168144516013988724
21065201 7 17822562898048778281
21120745 212 14736190181780449217
21150785 3 13118279313729879355
21267235 1 17918279719411921750
2215653 11 18335129887242938239
2297311 6 17749392564047183477
231179 274 9151173151815833564
23175994 123 18412544323280022801
23402539 116 12463562968027550361
23402655 69 13479127990870980116
23559900 14 17968374649340233125
23590187 198 16988843882334232871
239999 70 18407760348725223842
26918003 58 17989488537116518411
2871803 45 18334576798661204258
2916195 48 10015577294440053182
3004659 81 16878216460372315682
314173 85 18202569453878413856
314194 84 18060135440614312406
345986 75 17059492907799449082
34797466 226 17822585970734249662
351380 3 17775283846530724454
4047638 21 8646770002298554100
42 15 16271927108056845980
465052 167 18060140946883666382
4990 188 17749107785892403888
5104073 3 17916582013223598938
59755656 215 18186796959968467575
67856867 119 15912749717457088065
7495541 125 18260268577245907684
9709674 26 17678463193250695331

> <PUBCHEM_SHAPE_MULTIPOLES>
350.51
12.72
1.35
1.14
2.72
0.28
0.04
-5.82
0.01
1.01
0.14
-0.73
-0.03
1.17

> <PUBCHEM_SHAPE_SELFOVERLAP>
765.868

> <PUBCHEM_SHAPE_VOLUME>
190.7

> <PUBCHEM_COORDINATE_TYPE>
2
5
10

$$$$
