26743878
  -OEChem-12032416283D

 36 38  0     1  0  0  0  0  0999 V2000
    4.9382    1.9273    1.1982 O   0  0  0  0  0  0  0  0  0  0  0  0
    0.7473   -2.1747    0.4682 O   0  0  0  0  0  0  0  0  0  0  0  0
    3.0646   -0.0558   -1.1102 N   0  0  1  0  0  0  0  0  0  0  0  0
    0.1448   -0.0577    0.0532 N   0  0  0  0  0  0  0  0  0  0  0  0
   -0.6532   -2.1625    0.4621 N   0  0  0  0  0  0  0  0  0  0  0  0
    2.6278   -0.6417    0.1734 C   0  0  1  0  0  0  0  0  0  0  0  0
    3.0941    0.3626    1.2437 C   0  0  0  0  0  0  0  0  0  0  0  0
    3.8221    1.4545    0.4695 C   0  0  2  0  0  0  0  0  0  0  0  0
    4.2396    0.7615   -0.8134 C   0  0  0  0  0  0  0  0  0  0  0  0
    1.1359   -0.8965    0.2200 C   0  0  0  0  0  0  0  0  0  0  0  0
    3.3364   -1.0554   -2.1349 C   0  0  0  0  0  0  0  0  0  0  0  0
   -0.9327   -0.8801    0.2108 C   0  0  0  0  0  0  0  0  0  0  0  0
   -2.2765   -0.3880    0.1124 C   0  0  0  0  0  0  0  0  0  0  0  0
   -2.5081    0.9618   -0.1520 C   0  0  0  0  0  0  0  0  0  0  0  0
   -3.3520   -1.2606    0.2797 C   0  0  0  0  0  0  0  0  0  0  0  0
   -3.8151    1.4392   -0.2493 C   0  0  0  0  0  0  0  0  0  0  0  0
   -4.6590   -0.7830    0.1828 C   0  0  0  0  0  0  0  0  0  0  0  0
   -4.8907    0.5668   -0.0820 C   0  0  0  0  0  0  0  0  0  0  0  0
   -4.0633    2.8824   -0.5320 C   0  0  0  0  0  0  0  0  0  0  0  0
    3.1539   -1.5887    0.3594 H   0  0  0  0  0  0  0  0  0  0  0  0
    2.2725    0.7938    1.8269 H   0  0  0  0  0  0  0  0  0  0  0  0
    3.7708   -0.1287    1.9544 H   0  0  0  0  0  0  0  0  0  0  0  0
    3.1489    2.2942    0.2571 H   0  0  0  0  0  0  0  0  0  0  0  0
    4.4512    1.4860   -1.6068 H   0  0  0  0  0  0  0  0  0  0  0  0
    5.1441    0.1596   -0.6546 H   0  0  0  0  0  0  0  0  0  0  0  0
    2.4347   -1.6354   -2.3587 H   0  0  0  0  0  0  0  0  0  0  0  0
    4.1283   -1.7521   -1.8373 H   0  0  0  0  0  0  0  0  0  0  0  0
    3.6406   -0.5700   -3.0687 H   0  0  0  0  0  0  0  0  0  0  0  0
    4.6069    2.2887    2.0380 H   0  0  0  0  0  0  0  0  0  0  0  0
   -1.6827    1.6580   -0.2839 H   0  0  0  0  0  0  0  0  0  0  0  0
   -3.2109   -2.3184    0.4867 H   0  0  0  0  0  0  0  0  0  0  0  0
   -5.4967   -1.4620    0.3134 H   0  0  0  0  0  0  0  0  0  0  0  0
   -5.9138    0.9263   -0.1534 H   0  0  0  0  0  0  0  0  0  0  0  0
   -4.0357    3.4576    0.3987 H   0  0  0  0  0  0  0  0  0  0  0  0
   -3.3086    3.2829   -1.2174 H   0  0  0  0  0  0  0  0  0  0  0  0
   -5.0389    3.0339   -1.0063 H   0  0  0  0  0  0  0  0  0  0  0  0
  1  8  1  0  0  0  0
  1 29  1  0  0  0  0
  2  5  1  0  0  0  0
  2 10  1  0  0  0  0
  3  6  1  0  0  0  0
  3  9  1  0  0  0  0
  3 11  1  0  0  0  0
  4 10  2  0  0  0  0
  4 12  1  0  0  0  0
  5 12  2  0  0  0  0
  6  7  1  0  0  0  0
  6 10  1  0  0  0  0
  6 20  1  0  0  0  0
  7  8  1  0  0  0  0
  7 21  1  0  0  0  0
  7 22  1  0  0  0  0
  8  9  1  0  0  0  0
  8 23  1  0  0  0  0
  9 24  1  0  0  0  0
  9 25  1  0  0  0  0
 11 26  1  0  0  0  0
 11 27  1  0  0  0  0
 11 28  1  0  0  0  0
 12 13  1  0  0  0  0
 13 14  1  0  0  0  0
 13 15  2  0  0  0  0
 14 16  2  0  0  0  0
 14 30  1  0  0  0  0
 15 17  1  0  0  0  0
 15 31  1  0  0  0  0
 16 18  1  0  0  0  0
 16 19  1  0  0  0  0
 17 18  2  0  0  0  0
 17 32  1  0  0  0  0
 18 33  1  0  0  0  0
 19 34  1  0  0  0  0
 19 35  1  0  0  0  0
 19 36  1  0  0  0  0
M  END
> <PUBCHEM_COMPOUND_CID>
26743878

> <PUBCHEM_CONFORMER_RMSD>
0.6

> <PUBCHEM_CONFORMER_DIVERSEORDER>
1
10
12
15
3
8
13
16
4
11
21
20
14
2
17
6
9
7
5
18
19

> <PUBCHEM_MMFF94_PARTIAL_CHARGES>
23
1 -0.68
10 0.3
11 0.27
12 0.46
13 0.05
14 -0.15
15 -0.15
16 -0.14
17 -0.15
18 -0.15
19 0.14
2 -0.02
29 0.4
3 -0.81
30 0.15
31 0.15
32 0.15
33 0.15
4 -0.57
5 -0.41
6 0.45
8 0.28
9 0.27

> <PUBCHEM_EFFECTIVE_ROTOR_COUNT>
3

> <PUBCHEM_PHARMACOPHORE_FEATURES>
7
1 1 acceptor
1 1 donor
1 3 cation
3 4 5 12 cation
5 2 4 5 10 12 rings
5 3 6 7 8 9 rings
6 13 14 15 16 17 18 rings

> <PUBCHEM_HEAVY_ATOM_COUNT>
19

> <PUBCHEM_ATOM_DEF_STEREO_COUNT>
2

> <PUBCHEM_ATOM_UDEF_STEREO_COUNT>
0

> <PUBCHEM_BOND_DEF_STEREO_COUNT>
0

> <PUBCHEM_BOND_UDEF_STEREO_COUNT>
0

> <PUBCHEM_ISOTOPIC_ATOM_COUNT>
0

> <PUBCHEM_COMPONENT_COUNT>
1

> <PUBCHEM_CACTVS_TAUTO_COUNT>
1

> <PUBCHEM_CONFORMER_ID>
0198144600000001

> <PUBCHEM_MMFF94_ENERGY>
38.174

> <PUBCHEM_FEATURE_SELFOVERLAP>
35.522

> <PUBCHEM_SHAPE_FINGERPRINT>
10498660 4 18410573942434419521
10646746 165 18408604747099562020
10670039 82 17968672522686443532
11128504 68 14404905838272228824
11132069 177 17967813834275273005
11543360 7 17060333041740195151
11552529 35 14563686312233983641
11715629 250 18410853252673402807
12173636 292 18335699412891704975
12236239 1 17095242561966173838
12390115 104 18269287768413595961
12403259 415 18412833472983034976
12596602 18 16515965972873708137
12633257 1 15213300833097528200
12670546 177 17775280607919479623
12730499 353 17988935512780101918
12769317 202 17846207908536775008
12788726 201 16664609065997602586
12916748 109 18334863839598798571
13081056 2 18413110554419152907
13402501 40 18342731970641037824
14251757 17 18202565068384716505
14341114 328 16588029017135203761
15196674 1 18408882914951571705
15239154 128 18334297531012730197
15885798 251 10015866479009751523
15961568 22 18263645224468164876
1798214 55 18408321064356810241
18186145 218 18200886096853936763
193927 3 10735582635893154053
200 152 15698010617323570514
20645477 56 18271810176018601130
20645477 70 17131846352032359806
21452121 103 18411410697006174018
221357 26 17917715673472011841
22289505 5 17989488502841494448
22646028 1 12103840142624829479
22646028 28 10664098947795186268
23227448 37 18127405867976923941
235170 7 17418375783516554013
23557571 272 18411991277119869868
23559900 14 18051404081128602403
245318 6 16591700450033700796
26918003 58 11386361560544287503
2838139 119 18127961117914489192
2916195 48 18270674380813219824
31174 14 12324240607372704318
3268164 11 18410847785654704559
341906 21 18187081758442678941
34797466 226 17988926678306382077
4028521 119 18272371966415229121
474 4 17240773869141426527
495365 180 17632291290155329770
4990 188 18202290164707793182
5104073 3 18188209789322869971
5281201 14 18060428984127196084
5924683 9 12540995031269632537
633830 44 18130506332132874789
7064713 232 18113899317023586637
7808743 9 18191586569847075296
960060 61 14764347132625981712
9981440 41 18114178631916460995

> <PUBCHEM_SHAPE_MULTIPOLES>
364.33
11.14
2.26
1.15
0.92
0.72
0.41
5.66
0.54
1.08
-0.11
-1.73
-0.04
1.52

> <PUBCHEM_SHAPE_SELFOVERLAP>
782.339

> <PUBCHEM_SHAPE_VOLUME>
204.7

> <PUBCHEM_COORDINATE_TYPE>
2
5
10

$$$$
