25338363
  -OEChem-12032416213D

 49 51  0     1  0  0  0  0  0999 V2000
   -3.6386    1.4616   -0.3187 S   0  0  0  0  0  0  0  0  0  0  0  0
    1.5941   -2.6886   -0.9663 O   0  0  0  0  0  0  0  0  0  0  0  0
   -3.6807    1.2221   -1.7480 O   0  0  0  0  0  0  0  0  0  0  0  0
   -3.1375    2.7162    0.2088 O   0  0  0  0  0  0  0  0  0  0  0  0
   -1.2441   -2.3061    1.0886 N   0  0  1  0  0  0  0  0  0  0  0  0
   -2.8166    0.1922    0.4614 N   0  0  0  0  0  0  0  0  0  0  0  0
    1.2485   -0.6982    0.0011 N   0  0  0  0  0  0  0  0  0  0  0  0
    2.8377   -2.0446   -0.9454 N   0  0  0  0  0  0  0  0  0  0  0  0
   -2.8802   -1.1705   -0.1255 C   0  0  1  0  0  0  0  0  0  0  0  0
   -0.7212   -2.2961   -0.2909 C   0  0  1  0  0  0  0  0  0  0  0  0
   -1.6958   -1.3866   -1.0641 C   0  0  0  0  0  0  0  0  0  0  0  0
   -2.7025   -2.2149    0.9644 C   0  0  0  0  0  0  0  0  0  0  0  0
    0.7146   -1.8274   -0.3908 C   0  0  0  0  0  0  0  0  0  0  0  0
   -0.8365   -3.4815    1.8491 C   0  0  0  0  0  0  0  0  0  0  0  0
   -5.2815    1.2343    0.3227 C   0  0  0  0  0  0  0  0  0  0  0  0
   -6.2416    2.2723   -0.2345 C   0  0  0  0  0  0  0  0  0  0  0  0
    2.5521   -0.8776   -0.3601 C   0  0  0  0  0  0  0  0  0  0  0  0
   -7.6419    2.0924    0.3273 C   0  0  0  0  0  0  0  0  0  0  0  0
    3.5450    0.1302   -0.1231 C   0  0  0  0  0  0  0  0  0  0  0  0
    3.1879    1.3308    0.4909 C   0  0  0  0  0  0  0  0  0  0  0  0
    4.8677   -0.0901   -0.5077 C   0  0  0  0  0  0  0  0  0  0  0  0
    4.1535    2.3108    0.7208 C   0  0  0  0  0  0  0  0  0  0  0  0
    5.8332    0.8900   -0.2780 C   0  0  0  0  0  0  0  0  0  0  0  0
    5.4762    2.0905    0.3363 C   0  0  0  0  0  0  0  0  0  0  0  0
    6.5081    3.1388    0.5814 C   0  0  0  0  0  0  0  0  0  0  0  0
   -3.8363   -1.3097   -0.6402 H   0  0  0  0  0  0  0  0  0  0  0  0
   -0.7933   -3.3037   -0.7255 H   0  0  0  0  0  0  0  0  0  0  0  0
   -1.2411   -0.4414   -1.3831 H   0  0  0  0  0  0  0  0  0  0  0  0
   -2.0330   -1.9093   -1.9678 H   0  0  0  0  0  0  0  0  0  0  0  0
   -3.1747   -1.9299    1.9105 H   0  0  0  0  0  0  0  0  0  0  0  0
   -3.1297   -3.1704    0.6329 H   0  0  0  0  0  0  0  0  0  0  0  0
   -2.5903    0.2678    1.4604 H   0  0  0  0  0  0  0  0  0  0  0  0
    0.2530   -3.5160    1.9547 H   0  0  0  0  0  0  0  0  0  0  0  0
   -1.1662   -4.4161    1.3815 H   0  0  0  0  0  0  0  0  0  0  0  0
   -1.2509   -3.4407    2.8625 H   0  0  0  0  0  0  0  0  0  0  0  0
   -5.2198    1.3090    1.4132 H   0  0  0  0  0  0  0  0  0  0  0  0
   -5.6094    0.2268    0.0494 H   0  0  0  0  0  0  0  0  0  0  0  0
   -5.8860    3.2816    0.0034 H   0  0  0  0  0  0  0  0  0  0  0  0
   -6.2801    2.2019   -1.3277 H   0  0  0  0  0  0  0  0  0  0  0  0
   -8.0421    1.1052    0.0747 H   0  0  0  0  0  0  0  0  0  0  0  0
   -7.6436    2.1956    1.4172 H   0  0  0  0  0  0  0  0  0  0  0  0
   -8.3166    2.8484   -0.0864 H   0  0  0  0  0  0  0  0  0  0  0  0
    2.1659    1.5322    0.8021 H   0  0  0  0  0  0  0  0  0  0  0  0
    5.1833   -1.0128   -0.9884 H   0  0  0  0  0  0  0  0  0  0  0  0
    3.8637    3.2415    1.2017 H   0  0  0  0  0  0  0  0  0  0  0  0
    6.8608    0.7062   -0.5804 H   0  0  0  0  0  0  0  0  0  0  0  0
    6.9626    2.9953    1.5667 H   0  0  0  0  0  0  0  0  0  0  0  0
    7.2969    3.1023   -0.1776 H   0  0  0  0  0  0  0  0  0  0  0  0
    6.0699    4.1418    0.5395 H   0  0  0  0  0  0  0  0  0  0  0  0
  1  3  2  0  0  0  0
  1  4  2  0  0  0  0
  1  6  1  0  0  0  0
  1 15  1  0  0  0  0
  2  8  1  0  0  0  0
  2 13  1  0  0  0  0
  5 10  1  0  0  0  0
  5 12  1  0  0  0  0
  5 14  1  0  0  0  0
  6  9  1  0  0  0  0
  6 32  1  0  0  0  0
  7 13  2  0  0  0  0
  7 17  1  0  0  0  0
  8 17  2  0  0  0  0
  9 11  1  0  0  0  0
  9 12  1  0  0  0  0
  9 26  1  0  0  0  0
 10 11  1  0  0  0  0
 10 13  1  0  0  0  0
 10 27  1  0  0  0  0
 11 28  1  0  0  0  0
 11 29  1  0  0  0  0
 12 30  1  0  0  0  0
 12 31  1  0  0  0  0
 14 33  1  0  0  0  0
 14 34  1  0  0  0  0
 14 35  1  0  0  0  0
 15 16  1  0  0  0  0
 15 36  1  0  0  0  0
 15 37  1  0  0  0  0
 16 18  1  0  0  0  0
 16 38  1  0  0  0  0
 16 39  1  0  0  0  0
 17 19  1  0  0  0  0
 18 40  1  0  0  0  0
 18 41  1  0  0  0  0
 18 42  1  0  0  0  0
 19 20  2  0  0  0  0
 19 21  1  0  0  0  0
 20 22  1  0  0  0  0
 20 43  1  0  0  0  0
 21 23  2  0  0  0  0
 21 44  1  0  0  0  0
 22 24  2  0  0  0  0
 22 45  1  0  0  0  0
 23 24  1  0  0  0  0
 23 46  1  0  0  0  0
 24 25  1  0  0  0  0
 25 47  1  0  0  0  0
 25 48  1  0  0  0  0
 25 49  1  0  0  0  0
M  END
> <PUBCHEM_COMPOUND_CID>
25338363

> <PUBCHEM_CONFORMER_RMSD>
1

> <PUBCHEM_CONFORMER_DIVERSEORDER>
1
81
6
73
32
79
42
75
16
49
17
69
72
28
53
41
61
21
76
15
11
52
30
55
19
46
18
14
57
47
44
62
67
23
13
29
26
65
78
56
37
64
82
60
54
43
34
20
33
36
77
51
39
3
12
58
8
9
63
24
45
50
22
59
38
31
48
83
40
80
5
71
35
25
27
4
7
68
66
74
10
70
2

> <PUBCHEM_MMFF94_PARTIAL_CHARGES>
27
1 1.33
10 0.45
12 0.27
13 0.3
14 0.27
15 0.11
17 0.46
19 0.05
2 -0.02
20 -0.15
21 -0.15
22 -0.15
23 -0.15
24 -0.14
25 0.14
3 -0.65
32 0.42
4 -0.65
43 0.15
44 0.15
45 0.15
46 0.15
5 -0.81
6 -0.91
7 -0.57
8 -0.41
9 0.36

> <PUBCHEM_EFFECTIVE_ROTOR_COUNT>
7

> <PUBCHEM_PHARMACOPHORE_FEATURES>
9
1 18 hydrophobe
1 3 acceptor
1 4 acceptor
1 5 cation
1 6 donor
3 7 8 17 cation
5 2 7 8 13 17 rings
5 5 9 10 11 12 rings
6 19 20 21 22 23 24 rings

> <PUBCHEM_HEAVY_ATOM_COUNT>
25

> <PUBCHEM_ATOM_DEF_STEREO_COUNT>
2

> <PUBCHEM_ATOM_UDEF_STEREO_COUNT>
0

> <PUBCHEM_BOND_DEF_STEREO_COUNT>
0

> <PUBCHEM_BOND_UDEF_STEREO_COUNT>
0

> <PUBCHEM_ISOTOPIC_ATOM_COUNT>
0

> <PUBCHEM_COMPONENT_COUNT>
1

> <PUBCHEM_CACTVS_TAUTO_COUNT>
1

> <PUBCHEM_CONFORMER_ID>
0182A1FB00000001

> <PUBCHEM_MMFF94_ENERGY>
37.6365

> <PUBCHEM_FEATURE_SELFOVERLAP>
45.688

> <PUBCHEM_SHAPE_FINGERPRINT>
10074138 170 17313397776672691075
11211813 74 18120650233579737941
11273773 42 17703799093951488921
12107183 9 18189602875035371874
12403259 415 18341343283365319758
12549972 3 18042428871038468698
13402501 40 18412545426717430713
13540713 4 18339380624586753638
14251764 75 18199477575747450425
14347329 18 18341887550337864360
14565420 104 18115307770360266251
15519825 34 16443921595088220385
17980427 26 18264473023295044439
18608769 82 18340769338585504867
19438510 23 18408600374806966080
20567600 254 18188207611742827581
20642791 13 18262801890791801303
20715895 44 18413952784911472008
21033648 29 18187372038128505802
21049683 118 18040708152488700579
21279426 13 18272380784942963012
21401589 2 18334008411004632811
21521721 280 18269844134440147881
23559900 14 18341333271997642854
23845131 108 18186523168651664667
270888 7 18412542123850370880
2838139 119 18340762646361800103
3014063 24 11025807504842325393
3246875 12 18409168823104444451
46194498 28 17701825380084020607
5104073 3 18113892784710567466
56616090 13 18413387618665326503
59682541 35 18261125063182724649
6327066 14 18413105082525732229
7288768 16 18260265252735453379
7808743 9 18410288146488006976
9981440 41 18337670922813060538

> <PUBCHEM_SHAPE_MULTIPOLES>
480.81
16.47
4.21
1.13
3.86
0.81
0.08
-21.49
0.91
0.92
1.11
0.37
0.64
1.87

> <PUBCHEM_SHAPE_SELFOVERLAP>
994.611

> <PUBCHEM_SHAPE_VOLUME>
278.8

> <PUBCHEM_COORDINATE_TYPE>
2
5
10

$$$$
