45361382
  -OEChem-12032416203D

 80 83  0     1  0  0  0  0  0999 V2000
    0.4973   -2.6948   -1.3229 O   0  0  0  0  0  0  0  0  0  0  0  0
    5.3735   -2.8583    0.8605 O   0  0  0  0  0  0  0  0  0  0  0  0
   -4.5198    1.9918   -1.2918 O   0  0  0  0  0  0  0  0  0  0  0  0
  -10.2485   -0.2164    0.2429 O   0  0  0  0  0  0  0  0  0  0  0  0
    7.1671    3.7922    0.6208 O   0  0  0  0  0  0  0  0  0  0  0  0
   -3.9039    0.1706    0.0042 N   0  0  0  0  0  0  0  0  0  0  0  0
    4.9313   -1.8547   -1.1833 N   0  0  0  0  0  0  0  0  0  0  0  0
    0.2462    0.2032    1.1498 C   0  0  1  0  0  0  0  0  0  0  0  0
   -0.1518   -0.7187   -0.0505 C   0  0  2  0  0  0  0  0  0  0  0  0
   -1.7009   -0.9793   -0.0655 C   0  0  1  0  0  0  0  0  0  0  0  0
    0.7407   -1.9921   -0.1034 C   0  0  2  0  0  0  0  0  0  0  0  0
    1.7559    0.5314    1.0699 C   0  0  0  0  0  0  0  0  0  0  0  0
   -0.5312    1.5354    1.0418 C   0  0  0  0  0  0  0  0  0  0  0  0
    2.2511   -1.6611   -0.0780 C   0  0  1  0  0  0  0  0  0  0  0  0
   -2.4735    0.3694   -0.0983 C   0  0  2  0  0  0  0  0  0  0  0  0
    2.6346   -0.7125    1.0577 C   0  0  0  0  0  0  0  0  0  0  0  0
   -2.0405    1.3444    0.9963 C   0  0  0  0  0  0  0  0  0  0  0  0
   -0.0491   -0.4499    2.5239 C   0  0  0  0  0  0  0  0  0  0  0  0
    3.1102   -2.9290    0.0013 C   0  0  2  0  0  0  0  0  0  0  0  0
   -2.1664   -1.8573   -1.2394 C   0  0  0  0  0  0  0  0  0  0  0  0
    2.7676   -3.7172    1.2607 C   0  0  0  0  0  0  0  0  0  0  0  0
    4.5894   -2.5580   -0.0373 C   0  0  0  0  0  0  0  0  0  0  0  0
   -4.8143    1.0126   -0.6112 C   0  0  0  0  0  0  0  0  0  0  0  0
   -6.2468    0.6884   -0.3877 C   0  0  0  0  0  0  0  0  0  0  0  0
    6.2747   -1.3927   -1.4449 C   0  0  0  0  0  0  0  0  0  0  0  0
   -7.2076    1.6980   -0.4458 C   0  0  0  0  0  0  0  0  0  0  0  0
   -6.6308   -0.6251   -0.1177 C   0  0  0  0  0  0  0  0  0  0  0  0
    6.5117   -0.0152   -0.8967 C   0  0  0  0  0  0  0  0  0  0  0  0
   -8.5522    1.3942   -0.2337 C   0  0  0  0  0  0  0  0  0  0  0  0
   -7.9754   -0.9290    0.0944 C   0  0  0  0  0  0  0  0  0  0  0  0
   -8.9361    0.0806    0.0364 C   0  0  0  0  0  0  0  0  0  0  0  0
    5.9804    1.0970   -1.5497 C   0  0  0  0  0  0  0  0  0  0  0  0
    7.2635    0.1522    0.2663 C   0  0  0  0  0  0  0  0  0  0  0  0
    6.2008    2.3765   -1.0400 C   0  0  0  0  0  0  0  0  0  0  0  0
    7.4841    1.4317    0.7761 C   0  0  0  0  0  0  0  0  0  0  0  0
    6.9528    2.5438    0.1229 C   0  0  0  0  0  0  0  0  0  0  0  0
  -11.1778    0.8637    0.1685 C   0  0  0  0  0  0  0  0  0  0  0  0
    6.5940    4.8843   -0.0968 C   0  0  0  0  0  0  0  0  0  0  0  0
    0.0594   -0.1616   -0.9775 H   0  0  0  0  0  0  0  0  0  0  0  0
   -1.9784   -1.5195    0.8484 H   0  0  0  0  0  0  0  0  0  0  0  0
    0.4367   -2.6463    0.7154 H   0  0  0  0  0  0  0  0  0  0  0  0
    1.9606    1.1116    0.1599 H   0  0  0  0  0  0  0  0  0  0  0  0
    2.0510    1.1707    1.9119 H   0  0  0  0  0  0  0  0  0  0  0  0
   -0.2224    2.0699    0.1333 H   0  0  0  0  0  0  0  0  0  0  0  0
   -0.2789    2.1921    1.8841 H   0  0  0  0  0  0  0  0  0  0  0  0
    2.4691   -1.1416   -1.0207 H   0  0  0  0  0  0  0  0  0  0  0  0
   -2.2732    0.8478   -1.0671 H   0  0  0  0  0  0  0  0  0  0  0  0
    2.5722   -1.1839    2.0407 H   0  0  0  0  0  0  0  0  0  0  0  0
    3.6724   -0.3759    0.9511 H   0  0  0  0  0  0  0  0  0  0  0  0
   -2.5149    2.3208    0.8331 H   0  0  0  0  0  0  0  0  0  0  0  0
   -2.4068    1.0041    1.9725 H   0  0  0  0  0  0  0  0  0  0  0  0
   -1.1136   -0.6389    2.6839 H   0  0  0  0  0  0  0  0  0  0  0  0
    0.2847    0.2021    3.3397 H   0  0  0  0  0  0  0  0  0  0  0  0
    0.4576   -1.4109    2.6486 H   0  0  0  0  0  0  0  0  0  0  0  0
    2.9209   -3.5683   -0.8705 H   0  0  0  0  0  0  0  0  0  0  0  0
   -1.8429   -2.8939   -1.1096 H   0  0  0  0  0  0  0  0  0  0  0  0
   -3.2580   -1.8997   -1.3106 H   0  0  0  0  0  0  0  0  0  0  0  0
   -1.7866   -1.4789   -2.1940 H   0  0  0  0  0  0  0  0  0  0  0  0
   -4.2214   -0.5497    0.6444 H   0  0  0  0  0  0  0  0  0  0  0  0
    0.7110   -2.1006   -2.0623 H   0  0  0  0  0  0  0  0  0  0  0  0
    1.7444   -4.0992    1.2638 H   0  0  0  0  0  0  0  0  0  0  0  0
    3.4086   -4.6073    1.3112 H   0  0  0  0  0  0  0  0  0  0  0  0
    2.9497   -3.1764    2.1922 H   0  0  0  0  0  0  0  0  0  0  0  0
    4.2358   -1.6916   -1.9041 H   0  0  0  0  0  0  0  0  0  0  0  0
    6.4206   -1.3928   -2.5312 H   0  0  0  0  0  0  0  0  0  0  0  0
    6.9911   -2.1095   -1.0267 H   0  0  0  0  0  0  0  0  0  0  0  0
   -6.9267    2.7279   -0.6501 H   0  0  0  0  0  0  0  0  0  0  0  0
   -5.9192   -1.4452   -0.0941 H   0  0  0  0  0  0  0  0  0  0  0  0
   -9.2457    2.2262   -0.2921 H   0  0  0  0  0  0  0  0  0  0  0  0
   -8.2700   -1.9551    0.2977 H   0  0  0  0  0  0  0  0  0  0  0  0
    5.3923    0.9774   -2.4560 H   0  0  0  0  0  0  0  0  0  0  0  0
    7.6818   -0.7053    0.7864 H   0  0  0  0  0  0  0  0  0  0  0  0
    5.7588    3.1956   -1.5968 H   0  0  0  0  0  0  0  0  0  0  0  0
    8.0699    1.5558    1.6828 H   0  0  0  0  0  0  0  0  0  0  0  0
  -12.1728    0.4475    0.3574 H   0  0  0  0  0  0  0  0  0  0  0  0
  -10.9904    1.6101    0.9479 H   0  0  0  0  0  0  0  0  0  0  0  0
  -11.2013    1.3062   -0.8331 H   0  0  0  0  0  0  0  0  0  0  0  0
    6.8638    5.8002    0.4392 H   0  0  0  0  0  0  0  0  0  0  0  0
    5.5000    4.8299   -0.1060 H   0  0  0  0  0  0  0  0  0  0  0  0
    7.0141    4.9683   -1.1048 H   0  0  0  0  0  0  0  0  0  0  0  0
  1 11  1  0  0  0  0
  1 60  1  0  0  0  0
  2 22  2  0  0  0  0
  3 23  2  0  0  0  0
  4 31  1  0  0  0  0
  4 37  1  0  0  0  0
  5 36  1  0  0  0  0
  5 38  1  0  0  0  0
  6 15  1  0  0  0  0
  6 23  1  0  0  0  0
  6 59  1  0  0  0  0
  7 22  1  0  0  0  0
  7 25  1  0  0  0  0
  7 64  1  0  0  0  0
  8  9  1  0  0  0  0
  8 12  1  0  0  0  0
  8 13  1  0  0  0  0
  8 18  1  0  0  0  0
  9 10  1  0  0  0  0
  9 11  1  0  0  0  0
  9 39  1  0  0  0  0
 10 15  1  0  0  0  0
 10 20  1  0  0  0  0
 10 40  1  0  0  0  0
 11 14  1  0  0  0  0
 11 41  1  0  0  0  0
 12 16  1  0  0  0  0
 12 42  1  0  0  0  0
 12 43  1  0  0  0  0
 13 17  1  0  0  0  0
 13 44  1  0  0  0  0
 13 45  1  0  0  0  0
 14 16  1  0  0  0  0
 14 19  1  0  0  0  0
 14 46  1  0  0  0  0
 15 17  1  0  0  0  0
 15 47  1  0  0  0  0
 16 48  1  0  0  0  0
 16 49  1  0  0  0  0
 17 50  1  0  0  0  0
 17 51  1  0  0  0  0
 18 52  1  0  0  0  0
 18 53  1  0  0  0  0
 18 54  1  0  0  0  0
 19 21  1  0  0  0  0
 19 22  1  0  0  0  0
 19 55  1  0  0  0  0
 20 56  1  0  0  0  0
 20 57  1  0  0  0  0
 20 58  1  0  0  0  0
 21 61  1  0  0  0  0
 21 62  1  0  0  0  0
 21 63  1  0  0  0  0
 23 24  1  0  0  0  0
 24 26  2  0  0  0  0
 24 27  1  0  0  0  0
 25 28  1  0  0  0  0
 25 65  1  0  0  0  0
 25 66  1  0  0  0  0
 26 29  1  0  0  0  0
 26 67  1  0  0  0  0
 27 30  2  0  0  0  0
 27 68  1  0  0  0  0
 28 32  2  0  0  0  0
 28 33  1  0  0  0  0
 29 31  2  0  0  0  0
 29 69  1  0  0  0  0
 30 31  1  0  0  0  0
 30 70  1  0  0  0  0
 32 34  1  0  0  0  0
 32 71  1  0  0  0  0
 33 35  2  0  0  0  0
 33 72  1  0  0  0  0
 34 36  2  0  0  0  0
 34 73  1  0  0  0  0
 35 36  1  0  0  0  0
 35 74  1  0  0  0  0
 37 75  1  0  0  0  0
 37 76  1  0  0  0  0
 37 77  1  0  0  0  0
 38 78  1  0  0  0  0
 38 79  1  0  0  0  0
 38 80  1  0  0  0  0
M  END
> <PUBCHEM_COMPOUND_CID>
45361382

> <PUBCHEM_CONFORMER_RMSD>
1.2

> <PUBCHEM_CONFORMER_DIVERSEORDER>
1
2
96
85
68
14
37
28
63
43
90
80
119
62
4
45
26
88
102
57
22
98
7
60
105
64
108
38
35
53
17
65
46
19
42
15
109
93
71
118
94
103
69
110
100
89
114
120
81
83
49
27
47
56
50
107
3
24
52
70
101
73
95
76
117
79
5
21
91
11
44
111
115
30
116
48
20
61
86
113
87
34
41
6
39
67
9
33
97
78
72
51
23
92
66
13
16
31
75
74
104
59
84
54
112
99
106
8
77
36
25
58
12
55
82
29
18
10
40
32

> <PUBCHEM_MMFF94_PARTIAL_CHARGES>
38
1 -0.68
11 0.28
15 0.3
19 0.06
2 -0.57
22 0.57
23 0.54
24 0.09
25 0.44
26 -0.15
27 -0.15
28 -0.14
29 -0.15
3 -0.57
30 -0.15
31 0.08
32 -0.15
33 -0.15
34 -0.15
35 -0.15
36 0.08
37 0.28
38 0.28
4 -0.36
5 -0.36
59 0.37
6 -0.73
60 0.4
64 0.37
67 0.15
68 0.15
69 0.15
7 -0.73
70 0.15
71 0.15
72 0.15
73 0.15
74 0.15

> <PUBCHEM_EFFECTIVE_ROTOR_COUNT>
11.6

> <PUBCHEM_PHARMACOPHORE_FEATURES>
13
1 1 acceptor
1 1 donor
1 2 acceptor
1 21 hydrophobe
1 3 acceptor
1 4 acceptor
1 5 acceptor
1 6 donor
1 7 donor
6 24 26 27 29 30 31 rings
6 28 32 33 34 35 36 rings
6 8 9 10 13 15 17 rings
6 8 9 11 12 14 16 rings

> <PUBCHEM_HEAVY_ATOM_COUNT>
38

> <PUBCHEM_ATOM_DEF_STEREO_COUNT>
6

> <PUBCHEM_ATOM_UDEF_STEREO_COUNT>
1

> <PUBCHEM_BOND_DEF_STEREO_COUNT>
0

> <PUBCHEM_BOND_UDEF_STEREO_COUNT>
0

> <PUBCHEM_ISOTOPIC_ATOM_COUNT>
0

> <PUBCHEM_COMPONENT_COUNT>
1

> <PUBCHEM_CACTVS_TAUTO_COUNT>
4

> <PUBCHEM_CONFORMER_ID>
02B428E600000001

> <PUBCHEM_MMFF94_ENERGY>
128.7232

> <PUBCHEM_FEATURE_SELFOVERLAP>
65.988

> <PUBCHEM_SHAPE_FINGERPRINT>
10391435 84 17603591846479889195
10533779 47 10303813220396504253
10673678 19 18412548708652479534
11007060 377 18261120651586498019
11135609 187 18198623427396124736
11211813 74 18411699889522572845
11409948 35 9943535102313260033
11693224 71 18127961113688204376
11966995 178 18410299090819031948
13165053 371 18335702723732079653
13617811 41 18342736321743608760
13782708 43 11815895643717707368
13947947 19 17846773032128581607
14142895 15 18410574011322149333
15361156 5 18413103975400057607
15840311 113 18409733950247816478
15890870 6 18409169948781956372
16728300 4 10737547446139482344
16992787 43 18343304794565640041
17686467 74 18040720265077033773
19302320 297 18261385690204063716
20715895 44 18410291454878862568
21049683 271 18342738503454931097
21781055 127 15554462794981216083
23522609 53 17631753576765219425
23569914 2 17027078269867635284
24893992 56 18334858308372446674
3552219 110 17917718972529310673
4073 2 18260550031080682819
4098825 35 18262236621523819893
4112364 45 18187351157036665048
4149490 64 18113898234887429322
45270241 37 18411424981545544622
4625314 4 18337675209132340991
474113 269 8574720104536214917
5109719 28 18335708273340846728
5265222 85 18413107273592374351
57634706 280 18040151833911776594
6081469 158 11384113042740049683
636783 89 10663553560644027852

> <PUBCHEM_SHAPE_MULTIPOLES>
742.71
31.24
3.99
1.36
59.66
1.46
-0.26
19.22
4.31
-11.22
-0.07
-1.31
-0.22
0.28

> <PUBCHEM_SHAPE_SELFOVERLAP>
1568.968

> <PUBCHEM_SHAPE_VOLUME>
413.5

> <PUBCHEM_COORDINATE_TYPE>
2
5
10

$$$$
