75536536
  -OEChem-12032416303D

 46 48  0     1  0  0  0  0  0999 V2000
   -5.5527   -0.3906    1.1715 F   0  0  0  0  0  0  0  0  0  0  0  0
   -6.3298   -0.6941   -0.8367 F   0  0  0  0  0  0  0  0  0  0  0  0
    1.8510    0.8969   -1.4292 O   0  0  0  0  0  0  0  0  0  0  0  0
    0.6417    2.5717    1.5099 O   0  0  0  0  0  0  0  0  0  0  0  0
    4.6697   -0.2386   -1.4539 O   0  0  0  0  0  0  0  0  0  0  0  0
   -1.0167    0.0476    0.6412 N   0  0  0  0  0  0  0  0  0  0  0  0
    3.8703    0.6203    0.5590 N   0  0  0  0  0  0  0  0  0  0  0  0
   -0.1249    0.9150   -0.1112 C   0  0  1  0  0  0  0  0  0  0  0  0
   -2.2658   -0.1680   -0.0870 C   0  0  0  0  0  0  0  0  0  0  0  0
    1.0238    1.4684    0.7116 C   0  0  1  0  0  0  0  0  0  0  0  0
    2.0015    1.8719   -0.3838 C   0  0  1  0  0  0  0  0  0  0  0  0
    4.8144   -1.6073    0.4539 C   0  0  0  0  0  0  0  0  0  0  0  0
   -2.9253   -1.4695    0.3856 C   0  0  0  0  0  0  0  0  0  0  0  0
   -3.1990    1.0323    0.1137 C   0  0  0  0  0  0  0  0  0  0  0  0
    0.6210    0.1829   -1.2147 C   0  0  0  0  0  0  0  0  0  0  0  0
    4.2749   -2.8979   -0.0664 C   0  0  0  0  0  0  0  0  0  0  0  0
    3.7545   -2.3276    1.2189 C   0  0  0  0  0  0  0  0  0  0  0  0
   -4.2705   -1.6921   -0.3032 C   0  0  0  0  0  0  0  0  0  0  0  0
   -4.5442    0.8109   -0.5754 C   0  0  0  0  0  0  0  0  0  0  0  0
   -5.1878   -0.4926   -0.1333 C   0  0  0  0  0  0  0  0  0  0  0  0
    3.4459    1.9052    0.0830 C   0  0  0  0  0  0  0  0  0  0  0  0
    4.4480   -0.3450   -0.2534 C   0  0  0  0  0  0  0  0  0  0  0  0
   -0.6624    1.7718   -0.5360 H   0  0  0  0  0  0  0  0  0  0  0  0
   -2.0689   -0.2880   -1.1607 H   0  0  0  0  0  0  0  0  0  0  0  0
    1.4295    0.6911    1.3690 H   0  0  0  0  0  0  0  0  0  0  0  0
    1.7415    2.8532   -0.8002 H   0  0  0  0  0  0  0  0  0  0  0  0
    5.8230   -1.6286    0.8530 H   0  0  0  0  0  0  0  0  0  0  0  0
   -1.2129    0.4524    1.5560 H   0  0  0  0  0  0  0  0  0  0  0  0
   -3.0794   -1.4417    1.4725 H   0  0  0  0  0  0  0  0  0  0  0  0
   -2.2679   -2.3233    0.1801 H   0  0  0  0  0  0  0  0  0  0  0  0
   -2.7632    1.9562   -0.2809 H   0  0  0  0  0  0  0  0  0  0  0  0
   -3.3744    1.2000    1.1849 H   0  0  0  0  0  0  0  0  0  0  0  0
    0.8891   -0.8407   -0.9278 H   0  0  0  0  0  0  0  0  0  0  0  0
    0.0603    0.1421   -2.1532 H   0  0  0  0  0  0  0  0  0  0  0  0
    4.9111   -3.7726   -0.0084 H   0  0  0  0  0  0  0  0  0  0  0  0
    3.6143   -2.8832   -0.9248 H   0  0  0  0  0  0  0  0  0  0  0  0
    2.7413   -1.9438    1.2174 H   0  0  0  0  0  0  0  0  0  0  0  0
    4.0422   -2.8175    2.1412 H   0  0  0  0  0  0  0  0  0  0  0  0
   -4.7505   -2.5836    0.1160 H   0  0  0  0  0  0  0  0  0  0  0  0
   -4.1167   -1.8899   -1.3708 H   0  0  0  0  0  0  0  0  0  0  0  0
   -4.4114    0.8059   -1.6640 H   0  0  0  0  0  0  0  0  0  0  0  0
   -5.2139    1.6469   -0.3437 H   0  0  0  0  0  0  0  0  0  0  0  0
    3.5780    2.6252    0.8968 H   0  0  0  0  0  0  0  0  0  0  0  0
    4.0981    2.1964   -0.7479 H   0  0  0  0  0  0  0  0  0  0  0  0
    3.7514    0.4204    1.5480 H   0  0  0  0  0  0  0  0  0  0  0  0
    0.2629    3.2530    0.9290 H   0  0  0  0  0  0  0  0  0  0  0  0
  1 20  1  0  0  0  0
  2 20  1  0  0  0  0
  3 11  1  0  0  0  0
  3 15  1  0  0  0  0
  4 10  1  0  0  0  0
  4 46  1  0  0  0  0
  5 22  2  0  0  0  0
  6  8  1  0  0  0  0
  6  9  1  0  0  0  0
  6 28  1  0  0  0  0
  7 21  1  0  0  0  0
  7 22  1  0  0  0  0
  7 45  1  0  0  0  0
  8 10  1  0  0  0  0
  8 15  1  0  0  0  0
  8 23  1  0  0  0  0
  9 13  1  0  0  0  0
  9 14  1  0  0  0  0
  9 24  1  0  0  0  0
 10 11  1  0  0  0  0
 10 25  1  0  0  0  0
 11 21  1  0  0  0  0
 11 26  1  0  0  0  0
 12 16  1  0  0  0  0
 12 17  1  0  0  0  0
 12 22  1  0  0  0  0
 12 27  1  0  0  0  0
 13 18  1  0  0  0  0
 13 29  1  0  0  0  0
 13 30  1  0  0  0  0
 14 19  1  0  0  0  0
 14 31  1  0  0  0  0
 14 32  1  0  0  0  0
 15 33  1  0  0  0  0
 15 34  1  0  0  0  0
 16 17  1  0  0  0  0
 16 35  1  0  0  0  0
 16 36  1  0  0  0  0
 17 37  1  0  0  0  0
 17 38  1  0  0  0  0
 18 20  1  0  0  0  0
 18 39  1  0  0  0  0
 18 40  1  0  0  0  0
 19 20  1  0  0  0  0
 19 41  1  0  0  0  0
 19 42  1  0  0  0  0
 21 43  1  0  0  0  0
 21 44  1  0  0  0  0
M  END
> <PUBCHEM_COMPOUND_CID>
75536536

> <PUBCHEM_CONFORMER_RMSD>
0.8

> <PUBCHEM_CONFORMER_DIVERSEORDER>
1
132
187
36
181
61
99
216
77
213
180
192
92
205
166
81
136
215
113
214
127
152
174
168
104
63
144
91
158
20
150
159
143
28
42
59
85
179
135
53
151
3
193
75
176
202
25
170
200
218
191
34
163
26
134
219
43
156
145
76
84
106
109
211
182
209
54
117
14
60
185
212
195
172
8
58
125
115
114
139
24
141
161
154
37
196
87
70
165
173
94
88
204
217
89
93
51
210
105
206
4
199
98
49
138
208
30
142
119
11
29
169
96
128
62
108
175
82
56
41
146
112
38
31
55
147
2
57
149
155
137
69
12
15
44
133
186
17
102
197
68
164
120
97
72
50
65
126
122
67
153
47
86
95
46
6
194
183
18
48
32
107
124
22
80
131
198
23
116
177
45
73
39
123
5
9
171
188
74
35
27
71
201
111
40
129
78
178
66
190
220
148
13
167
140
110
189
21
19
207
103
130
7
118
52
83
33
16
101
203
121
64
100
160
162
90
184
79
157
10

> <PUBCHEM_MMFF94_PARTIAL_CHARGES>
26
1 -0.34
10 0.28
11 0.28
12 -0.1
15 0.28
16 -0.2
17 -0.2
2 -0.34
20 0.68
21 0.3
22 0.63
27 0.1
28 0.36
3 -0.56
35 0.1
36 0.1
37 0.1
38 0.1
4 -0.68
45 0.37
46 0.4
5 -0.57
6 -0.9
7 -0.73
8 0.27
9 0.27

> <PUBCHEM_EFFECTIVE_ROTOR_COUNT>
8.8

> <PUBCHEM_PHARMACOPHORE_FEATURES>
9
1 3 acceptor
1 4 acceptor
1 4 donor
1 5 acceptor
1 6 cation
1 6 donor
1 7 donor
5 3 8 10 11 15 rings
6 9 13 14 18 19 20 rings

> <PUBCHEM_HEAVY_ATOM_COUNT>
22

> <PUBCHEM_ATOM_DEF_STEREO_COUNT>
3

> <PUBCHEM_ATOM_UDEF_STEREO_COUNT>
0

> <PUBCHEM_BOND_DEF_STEREO_COUNT>
0

> <PUBCHEM_BOND_UDEF_STEREO_COUNT>
0

> <PUBCHEM_ISOTOPIC_ATOM_COUNT>
0

> <PUBCHEM_COMPONENT_COUNT>
1

> <PUBCHEM_CACTVS_TAUTO_COUNT>
2

> <PUBCHEM_CONFORMER_ID>
0480989800000001

> <PUBCHEM_MMFF94_ENERGY>
33.8974

> <PUBCHEM_FEATURE_SELFOVERLAP>
45.672

> <PUBCHEM_SHAPE_FINGERPRINT>
11595378 159 14764355894396416483
11796584 16 18272376398821667183
12107183 9 18051416162633982713
12596602 18 17131548435847129922
12617007 42 16515408482271691060
13073987 5 18342740732463648161
13167823 11 18411135861542591503
13533116 47 18412261757038285977
13583140 156 18056197109847994161
13911852 28 18265609879990116502
13955234 65 18267867370514299480
14251740 57 17988647329212434934
14251751 18 17968927579741354442
14347332 77 18409441471680814061
14429115 67 18270685247270531974
14573314 32 18040994033769260957
14866123 147 17691686684416584416
15183329 4 18409729539274061917
15324115 91 15357973409392259434
15664445 248 17240484732539419116
15788980 27 18409450306233415045
17349148 13 17704076187575597709
17844677 252 18409169917678247597
17857418 61 18410852161794017999
1813 80 16877942728577834084
18222031 100 17775850103476834940
1979834 28 17775282717044496694
200 152 16773804740222887085
20369508 70 18272367598718481568
20567600 234 14764051398494998811
20645477 70 18334856117500703900
21250096 35 18343019978098799474
21279426 13 18263919952055677069
21285901 2 17458340806456455774
220451 1 18340215179913212653
22079108 93 12535341311781509509
2215653 11 18187359930942992927
22224240 67 18268419300514978112
23402539 116 18201999933026164237
23559900 14 18263643029475540873
239999 70 18272657874631541844
3004659 81 18114180796780437370
3421961 26 18410287004802198696
345986 75 18271237210575849762
4072396 5 17346600759576875885
4340502 62 18340761650657647344
46194498 28 17095527322455625798
463206 1 18410572933101521154
465052 167 18273498949165559542
5104073 3 18059581334177655251
5207 123 18262799562681643198
59682541 52 18261100873093586943
59755656 215 17603857867900238415
633830 44 15791735225773441085
6443956 14 18334294241220541364
8509985 295 18130786780274882300
960060 61 17822017497421353670

> <PUBCHEM_SHAPE_MULTIPOLES>
410.63
13.55
2.57
1.13
10.19
0.62
-0.03
7.19
-0.76
-3.06
0.6
-0.45
-0.17
-0.38

> <PUBCHEM_SHAPE_SELFOVERLAP>
847.074

> <PUBCHEM_SHAPE_VOLUME>
238.2

> <PUBCHEM_COORDINATE_TYPE>
2
5
10

$$$$
