75536969
  -OEChem-12032416313D

 39 41  0     1  0  0  0  0  0999 V2000
    5.8861    0.3802   -0.0683 O   0  0  0  0  0  0  0  0  0  0  0  0
   -0.7154    2.4333   -0.3856 O   0  0  0  0  0  0  0  0  0  0  0  0
   -2.8294   -2.1444   -0.6451 O   0  0  0  0  0  0  0  0  0  0  0  0
    3.5388    0.2540   -0.1912 N   0  0  0  0  0  0  0  0  0  0  0  0
    0.8823    0.9092    0.2930 N   0  0  0  0  0  0  0  0  0  0  0  0
    4.7074   -1.6388    0.1314 N   0  0  0  0  0  0  0  0  0  0  0  0
   -1.2858    0.1865   -0.2856 N   0  0  0  0  0  0  0  0  0  0  0  0
    2.5460   -0.8071   -0.2403 C   0  0  2  0  0  0  0  0  0  0  0  0
    1.3533   -0.4481    0.6391 C   0  0  0  0  0  0  0  0  0  0  0  0
    3.3218   -2.0434    0.2027 C   0  0  0  0  0  0  0  0  0  0  0  0
    3.1366    1.6357   -0.3921 C   0  0  0  0  0  0  0  0  0  0  0  0
    1.9059    1.9542    0.4574 C   0  0  0  0  0  0  0  0  0  0  0  0
    4.8370   -0.2492   -0.0493 C   0  0  0  0  0  0  0  0  0  0  0  0
   -0.4122    1.2631   -0.1389 C   0  0  0  0  0  0  0  0  0  0  0  0
   -2.6935    0.1934   -0.1215 C   0  0  0  0  0  0  0  0  0  0  0  0
   -3.4369   -0.9723   -0.3058 C   0  0  0  0  0  0  0  0  0  0  0  0
   -3.3351    1.3823    0.2255 C   0  0  0  0  0  0  0  0  0  0  0  0
   -4.8219   -0.9492   -0.1428 C   0  0  0  0  0  0  0  0  0  0  0  0
   -4.7202    1.4055    0.3885 C   0  0  0  0  0  0  0  0  0  0  0  0
   -5.4638    0.2398    0.2043 C   0  0  0  0  0  0  0  0  0  0  0  0
   -2.4011   -2.9845    0.4245 C   0  0  0  0  0  0  0  0  0  0  0  0
    2.2357   -0.9026   -1.2886 H   0  0  0  0  0  0  0  0  0  0  0  0
    0.5753   -1.2077    0.5598 H   0  0  0  0  0  0  0  0  0  0  0  0
    1.6469   -0.4100    1.6960 H   0  0  0  0  0  0  0  0  0  0  0  0
    3.1111   -2.3349    1.2363 H   0  0  0  0  0  0  0  0  0  0  0  0
    3.1574   -2.9008   -0.4555 H   0  0  0  0  0  0  0  0  0  0  0  0
    2.9024    1.7462   -1.4570 H   0  0  0  0  0  0  0  0  0  0  0  0
    3.9704    2.3033   -0.1544 H   0  0  0  0  0  0  0  0  0  0  0  0
    2.1724    1.9752    1.5209 H   0  0  0  0  0  0  0  0  0  0  0  0
    1.5162    2.9420    0.1945 H   0  0  0  0  0  0  0  0  0  0  0  0
    5.4937   -2.2638    0.2777 H   0  0  0  0  0  0  0  0  0  0  0  0
   -0.8936   -0.7192   -0.5190 H   0  0  0  0  0  0  0  0  0  0  0  0
   -2.8145    2.3132    0.4114 H   0  0  0  0  0  0  0  0  0  0  0  0
   -5.4079   -1.8533   -0.2849 H   0  0  0  0  0  0  0  0  0  0  0  0
   -5.2201    2.3292    0.6653 H   0  0  0  0  0  0  0  0  0  0  0  0
   -6.5421    0.2574    0.3327 H   0  0  0  0  0  0  0  0  0  0  0  0
   -1.8640   -3.8358   -0.0027 H   0  0  0  0  0  0  0  0  0  0  0  0
   -3.2655   -3.3598    0.9813 H   0  0  0  0  0  0  0  0  0  0  0  0
   -1.7261   -2.4484    1.0990 H   0  0  0  0  0  0  0  0  0  0  0  0
  1 13  2  0  0  0  0
  2 14  2  0  0  0  0
  3 16  1  0  0  0  0
  3 21  1  0  0  0  0
  4  8  1  0  0  0  0
  4 11  1  0  0  0  0
  4 13  1  0  0  0  0
  5  9  1  0  0  0  0
  5 12  1  0  0  0  0
  5 14  1  0  0  0  0
  6 10  1  0  0  0  0
  6 13  1  0  0  0  0
  6 31  1  0  0  0  0
  7 14  1  0  0  0  0
  7 15  1  0  0  0  0
  7 32  1  0  0  0  0
  8  9  1  0  0  0  0
  8 10  1  0  0  0  0
  8 22  1  0  0  0  0
  9 23  1  0  0  0  0
  9 24  1  0  0  0  0
 10 25  1  0  0  0  0
 10 26  1  0  0  0  0
 11 12  1  0  0  0  0
 11 27  1  0  0  0  0
 11 28  1  0  0  0  0
 12 29  1  0  0  0  0
 12 30  1  0  0  0  0
 15 16  1  0  0  0  0
 15 17  2  0  0  0  0
 16 18  2  0  0  0  0
 17 19  1  0  0  0  0
 17 33  1  0  0  0  0
 18 20  1  0  0  0  0
 18 34  1  0  0  0  0
 19 20  2  0  0  0  0
 19 35  1  0  0  0  0
 20 36  1  0  0  0  0
 21 37  1  0  0  0  0
 21 38  1  0  0  0  0
 21 39  1  0  0  0  0
M  END
> <PUBCHEM_COMPOUND_CID>
75536969

> <PUBCHEM_CONFORMER_RMSD>
0.8

> <PUBCHEM_CONFORMER_DIVERSEORDER>
1
49
8
42
34
51
40
35
31
30
64
10
65
39
60
17
15
32
9
43
55
25
13
11
12
20
48
28
53
61
54
19
67
66
56
36
24
27
18
6
45
46
62
33
26
63
59
38
52
50
37
58
41
23
14
44
22
5
2
16
57
47
29
7
21
3
4

> <PUBCHEM_MMFF94_PARTIAL_CHARGES>
27
1 -0.57
10 0.3
11 0.3
12 0.3
13 0.69
14 0.69
15 0.12
16 0.08
17 -0.15
18 -0.15
19 -0.15
2 -0.57
20 -0.15
21 0.28
3 -0.36
31 0.37
32 0.37
33 0.15
34 0.15
35 0.15
36 0.15
4 -0.66
5 -0.66
6 -0.73
7 -0.55
8 0.3
9 0.3

> <PUBCHEM_EFFECTIVE_ROTOR_COUNT>
5.2

> <PUBCHEM_PHARMACOPHORE_FEATURES>
8
1 1 acceptor
1 2 acceptor
1 3 acceptor
1 6 donor
1 7 donor
5 4 6 8 10 13 rings
6 15 16 17 18 19 20 rings
6 4 5 8 9 11 12 rings

> <PUBCHEM_HEAVY_ATOM_COUNT>
21

> <PUBCHEM_ATOM_DEF_STEREO_COUNT>
1

> <PUBCHEM_ATOM_UDEF_STEREO_COUNT>
0

> <PUBCHEM_BOND_DEF_STEREO_COUNT>
0

> <PUBCHEM_BOND_UDEF_STEREO_COUNT>
0

> <PUBCHEM_ISOTOPIC_ATOM_COUNT>
0

> <PUBCHEM_COMPONENT_COUNT>
1

> <PUBCHEM_CACTVS_TAUTO_COUNT>
4

> <PUBCHEM_CONFORMER_ID>
04809A4900000001

> <PUBCHEM_MMFF94_ENERGY>
70.5859

> <PUBCHEM_FEATURE_SELFOVERLAP>
40.694

> <PUBCHEM_SHAPE_FINGERPRINT>
10366900 7 16845288315469777611
10616163 171 18341051908004033055
11405975 8 18343302608363820649
12107183 9 17764876788263334705
12166972 35 12535329208890704331
12236239 1 18202284684276697840
12553582 1 18336531742650456267
12555020 224 18411127048960783991
12596602 18 14045731638616822054
12633257 1 18131079212209115425
12788726 201 17703233892833467185
13167823 11 18410855468971297497
13402501 40 18341615888665202919
13533116 47 18199463441262532815
13551218 46 18340771447093141839
14251764 18 18201722851747879521
14341114 176 18341618096409780884
14617045 38 18409737252582021631
15196674 1 18411418414492796359
15242433 33 18410013217057357430
15352361 1 18411136939405121022
17492 89 18122062272000630603
17804303 29 18344145904102590825
17834072 33 18412826897414718901
17857418 61 18412821395714346781
1813 80 17530401737293751517
19141452 34 18411982459963389701
200 152 18272369763033761288
20281475 54 18411133645181302141
20681677 155 18409729547610763251
21065198 57 18341611572523529785
21267235 1 18410863178675087587
221490 88 18264774444346790306
22950370 63 18410857637734798016
23402539 116 17967811643942295516
23557571 272 18059299751806065276
23559900 14 18270954756093855345
23622692 118 17916010460134445303
239999 70 18202569471585472782
3004659 81 18334578989194888374
335352 9 18411981352310473885
3680242 22 18261952930085911970
4073 2 18261958569493392322
4214541 1 18412545409959229769
4325135 7 18333734620120157780
4921388 177 16805612524592206163
5104073 3 18341612650269944137
559249 180 18411979122715882255
633830 44 17167863101219801409
77779 3 18411419531421702617
9709674 26 18193836166284242651
9981440 41 17255400943036206753

> <PUBCHEM_SHAPE_MULTIPOLES>
394.64
12.39
2.58
0.69
2.31
0.9
-0.02
1.64
-0.06
-0.59
-0.1
-0.09
0.02
-0.37

> <PUBCHEM_SHAPE_SELFOVERLAP>
836.909

> <PUBCHEM_SHAPE_VOLUME>
219.5

> <PUBCHEM_COORDINATE_TYPE>
2
5
10

$$$$
