51136858
  -OEChem-12032416223D

 57 61  0     1  0  0  0  0  0999 V2000
   -2.6665   -0.3314    2.0134 O   0  0  0  0  0  0  0  0  0  0  0  0
   -4.6176   -0.8525   -0.8625 N   0  0  1  0  0  0  0  0  0  0  0  0
    4.6633   -0.1809   -0.0490 N   0  0  0  0  0  0  0  0  0  0  0  0
    7.4992   -0.0410   -0.3616 N   0  0  0  0  0  0  0  0  0  0  0  0
   -1.6638   -1.1238    0.1740 N   0  0  0  0  0  0  0  0  0  0  0  0
   -1.3056   -0.0304    2.1514 N   0  0  0  0  0  0  0  0  0  0  0  0
    2.8330    0.2641    1.3848 N   0  0  0  0  0  0  0  0  0  0  0  0
   -3.1917    3.3652    0.6454 N   0  0  0  0  0  0  0  0  0  0  0  0
   -4.1878   -1.4118    0.4347 C   0  0  1  0  0  0  0  0  0  0  0  0
   -4.3068   -2.9372    0.2616 C   0  0  0  0  0  0  0  0  0  0  0  0
   -4.8679   -3.1360   -1.1393 C   0  0  0  0  0  0  0  0  0  0  0  0
   -5.5529   -1.8182   -1.4396 C   0  0  0  0  0  0  0  0  0  0  0  0
   -5.2028    0.4773   -0.7493 C   0  0  0  0  0  0  0  0  0  0  0  0
   -2.7908   -0.9748    0.8229 C   0  0  0  0  0  0  0  0  0  0  0  0
    5.4068    0.9682    0.4829 C   0  0  0  0  0  0  0  0  0  0  0  0
    5.4427   -1.4083   -0.2378 C   0  0  0  0  0  0  0  0  0  0  0  0
    6.6965    1.1872   -0.3113 C   0  0  0  0  0  0  0  0  0  0  0  0
    6.7321   -1.1126   -1.0080 C   0  0  0  0  0  0  0  0  0  0  0  0
   -4.1485    1.5451   -0.6259 C   0  0  0  0  0  0  0  0  0  0  0  0
    3.2945   -0.2638    0.2288 C   0  0  0  0  0  0  0  0  0  0  0  0
   -0.7812   -0.5290    1.0279 C   0  0  0  0  0  0  0  0  0  0  0  0
    8.7535    0.1949   -1.0757 C   0  0  0  0  0  0  0  0  0  0  0  0
   -3.1828    1.7162   -1.6117 C   0  0  0  0  0  0  0  0  0  0  0  0
    0.6184   -0.4508    0.7294 C   0  0  0  0  0  0  0  0  0  0  0  0
   -4.1098    2.3879    0.4732 C   0  0  0  0  0  0  0  0  0  0  0  0
    2.4931   -0.8909   -0.7117 C   0  0  0  0  0  0  0  0  0  0  0  0
    1.1307   -0.9819   -0.4492 C   0  0  0  0  0  0  0  0  0  0  0  0
    1.5035    0.1565    1.6055 C   0  0  0  0  0  0  0  0  0  0  0  0
   -2.2216    2.7109   -1.4701 C   0  0  0  0  0  0  0  0  0  0  0  0
   -2.2692    3.5016   -0.3333 C   0  0  0  0  0  0  0  0  0  0  0  0
   -4.8831   -1.1191    1.2342 H   0  0  0  0  0  0  0  0  0  0  0  0
   -5.0143   -3.3369    0.9986 H   0  0  0  0  0  0  0  0  0  0  0  0
   -3.3601   -3.4747    0.3818 H   0  0  0  0  0  0  0  0  0  0  0  0
   -4.0484   -3.3114   -1.8473 H   0  0  0  0  0  0  0  0  0  0  0  0
   -5.5528   -3.9872   -1.1938 H   0  0  0  0  0  0  0  0  0  0  0  0
   -6.5336   -1.7786   -0.9487 H   0  0  0  0  0  0  0  0  0  0  0  0
   -5.6866   -1.6707   -2.5157 H   0  0  0  0  0  0  0  0  0  0  0  0
   -5.9286    0.5346    0.0724 H   0  0  0  0  0  0  0  0  0  0  0  0
   -5.7690    0.7147   -1.6609 H   0  0  0  0  0  0  0  0  0  0  0  0
    4.8036    1.8824    0.4154 H   0  0  0  0  0  0  0  0  0  0  0  0
    5.6390    0.7984    1.5422 H   0  0  0  0  0  0  0  0  0  0  0  0
    4.8791   -2.1666   -0.7931 H   0  0  0  0  0  0  0  0  0  0  0  0
    5.6798   -1.8383    0.7439 H   0  0  0  0  0  0  0  0  0  0  0  0
    7.2662    1.9888    0.1745 H   0  0  0  0  0  0  0  0  0  0  0  0
    6.4494    1.5304   -1.3252 H   0  0  0  0  0  0  0  0  0  0  0  0
    6.4867   -0.8435   -2.0444 H   0  0  0  0  0  0  0  0  0  0  0  0
    7.3289   -2.0322   -1.0422 H   0  0  0  0  0  0  0  0  0  0  0  0
    9.3684   -0.7119   -1.0817 H   0  0  0  0  0  0  0  0  0  0  0  0
    8.5887    0.5068   -2.1134 H   0  0  0  0  0  0  0  0  0  0  0  0
    9.3423    0.9697   -0.5721 H   0  0  0  0  0  0  0  0  0  0  0  0
   -3.1697    1.0849   -2.4959 H   0  0  0  0  0  0  0  0  0  0  0  0
   -4.8344    2.3032    1.2771 H   0  0  0  0  0  0  0  0  0  0  0  0
    2.8890   -1.2920   -1.6390 H   0  0  0  0  0  0  0  0  0  0  0  0
    0.4918   -1.4682   -1.1819 H   0  0  0  0  0  0  0  0  0  0  0  0
    1.1847    0.5959    2.5460 H   0  0  0  0  0  0  0  0  0  0  0  0
   -1.4592    2.8623   -2.2255 H   0  0  0  0  0  0  0  0  0  0  0  0
   -1.5416    4.2908   -0.1751 H   0  0  0  0  0  0  0  0  0  0  0  0
  1  6  1  0  0  0  0
  1 14  1  0  0  0  0
  2  9  1  0  0  0  0
  2 12  1  0  0  0  0
  2 13  1  0  0  0  0
  3 15  1  0  0  0  0
  3 16  1  0  0  0  0
  3 20  1  0  0  0  0
  4 17  1  0  0  0  0
  4 18  1  0  0  0  0
  4 22  1  0  0  0  0
  5 14  2  0  0  0  0
  5 21  1  0  0  0  0
  6 21  2  0  0  0  0
  7 20  2  0  0  0  0
  7 28  1  0  0  0  0
  8 25  1  0  0  0  0
  8 30  2  0  0  0  0
  9 10  1  0  0  0  0
  9 14  1  0  0  0  0
  9 31  1  0  0  0  0
 10 11  1  0  0  0  0
 10 32  1  0  0  0  0
 10 33  1  0  0  0  0
 11 12  1  0  0  0  0
 11 34  1  0  0  0  0
 11 35  1  0  0  0  0
 12 36  1  0  0  0  0
 12 37  1  0  0  0  0
 13 19  1  0  0  0  0
 13 38  1  0  0  0  0
 13 39  1  0  0  0  0
 15 17  1  0  0  0  0
 15 40  1  0  0  0  0
 15 41  1  0  0  0  0
 16 18  1  0  0  0  0
 16 42  1  0  0  0  0
 16 43  1  0  0  0  0
 17 44  1  0  0  0  0
 17 45  1  0  0  0  0
 18 46  1  0  0  0  0
 18 47  1  0  0  0  0
 19 23  1  0  0  0  0
 19 25  2  0  0  0  0
 20 26  1  0  0  0  0
 21 24  1  0  0  0  0
 22 48  1  0  0  0  0
 22 49  1  0  0  0  0
 22 50  1  0  0  0  0
 23 29  2  0  0  0  0
 23 51  1  0  0  0  0
 24 27  1  0  0  0  0
 24 28  2  0  0  0  0
 25 52  1  0  0  0  0
 26 27  2  0  0  0  0
 26 53  1  0  0  0  0
 27 54  1  0  0  0  0
 28 55  1  0  0  0  0
 29 30  1  0  0  0  0
 29 56  1  0  0  0  0
 30 57  1  0  0  0  0
M  END
> <PUBCHEM_COMPOUND_CID>
51136858

> <PUBCHEM_CONFORMER_RMSD>
1

> <PUBCHEM_CONFORMER_DIVERSEORDER>
1
38
21
111
76
42
18
65
134
20
91
69
72
45
13
40
44
131
3
104
4
89
132
68
60
96
75
130
99
64
29
10
126
133
108
11
120
32
63
121
50
113
26
6
36
118
94
25
106
116
81
92
74
85
2
93
107
101
112
117
24
43
119
54
48
97
79
57
84
123
122
30
114
31
51
5
83
124
46
28
9
62
14
135
33
15
73
98
34
27
53
80
17
22
23
109
110
88
78
19
87
61
129
127
103
12
95
52
71
55
59
49
41
56
82
37
7
39
77
100
35
67
128
86
58
90
16
115
102
8
105
66
47
125
70

> <PUBCHEM_MMFF94_PARTIAL_CHARGES>
35
1 -0.02
12 0.27
13 0.41
14 0.3
15 0.37
16 0.37
17 0.27
18 0.27
19 -0.14
2 -0.81
20 0.41
21 0.46
22 0.27
23 -0.15
24 0.05
25 0.16
26 -0.15
27 -0.15
28 0.16
29 -0.15
3 -0.84
30 0.16
4 -0.81
5 -0.57
51 0.15
52 0.15
53 0.15
54 0.15
55 0.15
56 0.15
57 0.15
6 -0.41
7 -0.62
8 -0.62
9 0.45

> <PUBCHEM_EFFECTIVE_ROTOR_COUNT>
7.2

> <PUBCHEM_PHARMACOPHORE_FEATURES>
10
1 2 cation
1 4 cation
1 8 acceptor
3 3 7 20 cation
3 5 6 21 cation
5 1 5 6 14 21 rings
5 2 9 10 11 12 rings
6 3 4 15 16 17 18 rings
6 7 20 24 26 27 28 rings
6 8 19 23 25 29 30 rings

> <PUBCHEM_HEAVY_ATOM_COUNT>
30

> <PUBCHEM_ATOM_DEF_STEREO_COUNT>
1

> <PUBCHEM_ATOM_UDEF_STEREO_COUNT>
0

> <PUBCHEM_BOND_DEF_STEREO_COUNT>
0

> <PUBCHEM_BOND_UDEF_STEREO_COUNT>
0

> <PUBCHEM_ISOTOPIC_ATOM_COUNT>
0

> <PUBCHEM_COMPONENT_COUNT>
1

> <PUBCHEM_CACTVS_TAUTO_COUNT>
1

> <PUBCHEM_CONFORMER_ID>
030C495A00000001

> <PUBCHEM_MMFF94_ENERGY>
74.6538

> <PUBCHEM_FEATURE_SELFOVERLAP>
50.75

> <PUBCHEM_SHAPE_FINGERPRINT>
10 15 12035447242481028974
10087517 78 18040716944133774036
10165383 225 18129948867649503217
10291535 26 18186526488349491777
10454371 7 18408605851048997948
10670039 82 18259700099484817032
11007060 377 13696448745335312928
11101153 10 18263649626767074740
11315181 36 17168148974617355206
11477941 20 18336538399834357213
11524674 6 7997973466029710833
11991303 11 17703225239128708342
12082328 90 18343019974378754630
12166972 35 18130226064221764280
13690498 29 18271802471190605311
13761468 95 17753324266945994733
13782708 43 18131634500094257542
13947920 75 17967810544008596591
14713325 29 18412263905165739355
15183329 4 18186517683998831162
15461852 350 18412269446010895614
15876981 60 18333736844670604973
17093844 174 11891330984636387670
17686467 74 18190179173446208232
17780758 139 9943803391850712979
17913733 40 13262401038413780496
17980427 23 17676498241301828934
20771845 65 17842562023191075699
21033650 10 18334012761585062113
21236236 1 18334295348873983708
21756936 100 17385448683340764169
21927370 108 17896052069527574107
23081809 10 17749388153395566338
23198884 109 18335138652743603393
23516275 100 17899124194995188188
23522609 53 16556249931774171450
23557571 272 18412538826074857031
23559900 14 17703220844707121091
255183 451 17905319986262088655
4098825 35 18342179908154761802
4169191 19 16660943178935633414
445580 37 18114187432499349340
484985 159 14548724119928627805
497634 4 17917717911160094105
531348 171 18339923701620721971
563151 97 18040995103253443714
58260988 114 14764053636826861061
5969126 39 18411135870137638599
6086070 43 18409722938394956544
6608658 132 17894903010281676821
7237137 82 18410011035224631065

> <PUBCHEM_SHAPE_MULTIPOLES>
576.65
19.32
3.23
1.54
41.42
1.68
0.32
-3.05
-7.77
-6.98
-0.83
-0.88
0.03
0.04

> <PUBCHEM_SHAPE_SELFOVERLAP>
1246.369

> <PUBCHEM_SHAPE_VOLUME>
316.3

> <PUBCHEM_COORDINATE_TYPE>
2
5
10

$$$$
