45783758
  -OEChem-12032416263D

 48 51  0     1  0  0  0  0  0999 V2000
    2.5772    3.2332   -0.0363 S   0  0  0  0  0  0  0  0  0  0  0  0
   -1.1521   -0.7298    2.0404 O   0  0  0  0  0  0  0  0  0  0  0  0
    3.0382    3.4943   -1.3931 O   0  0  0  0  0  0  0  0  0  0  0  0
    2.7167    4.2616    0.9848 O   0  0  0  0  0  0  0  0  0  0  0  0
   -3.3761    0.1541   -0.5327 N   0  0  1  0  0  0  0  0  0  0  0  0
   -0.8423   -1.6230    0.0098 N   0  0  0  0  0  0  0  0  0  0  0  0
    0.1898   -1.1284    1.9908 N   0  0  0  0  0  0  0  0  0  0  0  0
    3.0276   -2.7006   -1.5489 N   0  0  0  0  0  0  0  0  0  0  0  0
    0.9817   -1.6064   -2.0124 N   0  0  0  0  0  0  0  0  0  0  0  0
    3.6077   -3.3056    0.7104 N   0  0  0  0  0  0  0  0  0  0  0  0
   -3.1500   -0.7240    0.6327 C   0  0  1  0  0  0  0  0  0  0  0  0
   -4.0111   -1.9703    0.3563 C   0  0  0  0  0  0  0  0  0  0  0  0
   -4.7133   -0.1620   -1.0352 C   0  0  0  0  0  0  0  0  0  0  0  0
   -4.7295   -1.6750   -0.9527 C   0  0  0  0  0  0  0  0  0  0  0  0
   -3.2277    1.5702   -0.2224 C   0  0  0  0  0  0  0  0  0  0  0  0
   -1.6868   -1.0576    0.8350 C   0  0  0  0  0  0  0  0  0  0  0  0
   -1.7812    1.9855   -0.1765 C   0  0  0  0  0  0  0  0  0  0  0  0
   -1.2520    2.5422    0.9879 C   0  0  0  0  0  0  0  0  0  0  0  0
   -0.9701    1.8131   -1.2982 C   0  0  0  0  0  0  0  0  0  0  0  0
    0.2954   -1.6451    0.7629 C   0  0  0  0  0  0  0  0  0  0  0  0
    0.8990    2.7547   -0.0913 C   0  0  0  0  0  0  0  0  0  0  0  0
    0.0880    2.9269    1.0305 C   0  0  0  0  0  0  0  0  0  0  0  0
    0.3699    2.1979   -1.2557 C   0  0  0  0  0  0  0  0  0  0  0  0
    1.5217   -2.1926    0.2590 C   0  0  0  0  0  0  0  0  0  0  0  0
    3.4330    1.7805    0.5303 C   0  0  0  0  0  0  0  0  0  0  0  0
    1.8740   -2.1851   -1.0752 C   0  0  0  0  0  0  0  0  0  0  0  0
    2.4365   -2.7717    1.1147 C   0  0  0  0  0  0  0  0  0  0  0  0
    3.8360   -3.2371   -0.6150 C   0  0  0  0  0  0  0  0  0  0  0  0
   -3.5351   -0.2587    1.5511 H   0  0  0  0  0  0  0  0  0  0  0  0
   -3.4381   -2.9010    0.2846 H   0  0  0  0  0  0  0  0  0  0  0  0
   -4.7492   -2.0928    1.1585 H   0  0  0  0  0  0  0  0  0  0  0  0
   -5.4989    0.2623   -0.3971 H   0  0  0  0  0  0  0  0  0  0  0  0
   -4.8612    0.1863   -2.0621 H   0  0  0  0  0  0  0  0  0  0  0  0
   -5.7434   -2.0856   -0.9702 H   0  0  0  0  0  0  0  0  0  0  0  0
   -4.1706   -2.1099   -1.7907 H   0  0  0  0  0  0  0  0  0  0  0  0
   -3.6919    2.1759   -1.0134 H   0  0  0  0  0  0  0  0  0  0  0  0
   -3.7544    1.8411    0.7021 H   0  0  0  0  0  0  0  0  0  0  0  0
   -1.8712    2.6784    1.8704 H   0  0  0  0  0  0  0  0  0  0  0  0
   -1.3684    1.3828   -2.2132 H   0  0  0  0  0  0  0  0  0  0  0  0
    0.4808    3.3502    1.9506 H   0  0  0  0  0  0  0  0  0  0  0  0
    0.9854    2.0480   -2.1382 H   0  0  0  0  0  0  0  0  0  0  0  0
    4.4971    2.0172    0.5953 H   0  0  0  0  0  0  0  0  0  0  0  0
    3.0519    1.5052    1.5156 H   0  0  0  0  0  0  0  0  0  0  0  0
    3.2742    0.9723   -0.1863 H   0  0  0  0  0  0  0  0  0  0  0  0
    2.2674   -2.8422    2.1852 H   0  0  0  0  0  0  0  0  0  0  0  0
    1.2827   -1.6108   -2.9797 H   0  0  0  0  0  0  0  0  0  0  0  0
   -0.0135   -1.6590   -1.8366 H   0  0  0  0  0  0  0  0  0  0  0  0
    4.7694   -3.6583   -0.9675 H   0  0  0  0  0  0  0  0  0  0  0  0
  1  3  2  0  0  0  0
  1  4  2  0  0  0  0
  1 21  1  0  0  0  0
  1 25  1  0  0  0  0
  2  7  1  0  0  0  0
  2 16  1  0  0  0  0
  5 11  1  0  0  0  0
  5 13  1  0  0  0  0
  5 15  1  0  0  0  0
  6 16  2  0  0  0  0
  6 20  1  0  0  0  0
  7 20  2  0  0  0  0
  8 26  2  0  0  0  0
  8 28  1  0  0  0  0
  9 26  1  0  0  0  0
  9 46  1  0  0  0  0
  9 47  1  0  0  0  0
 10 27  1  0  0  0  0
 10 28  2  0  0  0  0
 11 12  1  0  0  0  0
 11 16  1  0  0  0  0
 11 29  1  0  0  0  0
 12 14  1  0  0  0  0
 12 30  1  0  0  0  0
 12 31  1  0  0  0  0
 13 14  1  0  0  0  0
 13 32  1  0  0  0  0
 13 33  1  0  0  0  0
 14 34  1  0  0  0  0
 14 35  1  0  0  0  0
 15 17  1  0  0  0  0
 15 36  1  0  0  0  0
 15 37  1  0  0  0  0
 17 18  2  0  0  0  0
 17 19  1  0  0  0  0
 18 22  1  0  0  0  0
 18 38  1  0  0  0  0
 19 23  2  0  0  0  0
 19 39  1  0  0  0  0
 20 24  1  0  0  0  0
 21 22  2  0  0  0  0
 21 23  1  0  0  0  0
 22 40  1  0  0  0  0
 23 41  1  0  0  0  0
 24 26  1  0  0  0  0
 24 27  2  0  0  0  0
 25 42  1  0  0  0  0
 25 43  1  0  0  0  0
 25 44  1  0  0  0  0
 27 45  1  0  0  0  0
 28 48  1  0  0  0  0
M  END
> <PUBCHEM_COMPOUND_CID>
45783758

> <PUBCHEM_CONFORMER_RMSD>
0.8

> <PUBCHEM_CONFORMER_DIVERSEORDER>
1
168
99
162
3
8
181
60
142
203
145
118
105
113
212
31
184
152
87
83
140
79
137
68
202
190
74
126
150
171
5
2
134
180
220
211
163
144
188
204
185
44
219
174
157
135
149
176
194
195
25
222
186
146
6
153
117
223
154
65
133
42
46
7
155
177
119
107
161
178
123
100
96
19
147
94
34
128
11
27
47
129
124
182
93
89
136
132
205
17
201
193
172
18
175
199
127
102
24
20
121
84
66
196
198
91
217
75
67
103
179
215
160
111
110
221
143
21
43
106
101
82
169
64
166
187
12
55
78
104
138
151
53
22
92
125
10
97
80
158
114
108
156
50
122
130
115
37
81
148
41
30
200
173
164
16
98
192
54
189
159
29
39
141
167
120
71
70
86
40
9
218
109
183
15
59
73
35
36
28
76
61
210
26
139
51
112
56
32
170
13
207
95
90
165
48
57
131
88
213
62
49
209
206
4
208
72
116
58
33
77
216
191
14
69
197
45
214
23
38
63
52
85

> <PUBCHEM_MMFF94_PARTIAL_CHARGES>
34
1 1.2
10 -0.62
11 0.45
13 0.27
15 0.41
16 0.3
17 -0.14
18 -0.15
19 -0.15
2 -0.02
20 0.46
21 -0.01
22 -0.15
23 -0.15
24 0.05
25 0.11
26 0.41
27 0.16
28 0.47
3 -0.65
38 0.15
39 0.15
4 -0.65
40 0.15
41 0.15
45 0.15
46 0.4
47 0.4
48 0.15
5 -0.81
6 -0.57
7 -0.41
8 -0.62
9 -0.9

> <PUBCHEM_EFFECTIVE_ROTOR_COUNT>
6

> <PUBCHEM_PHARMACOPHORE_FEATURES>
11
1 3 acceptor
1 4 acceptor
1 5 cation
1 9 donor
3 6 7 20 cation
3 8 10 28 cation
3 8 9 26 cation
5 2 6 7 16 20 rings
5 5 11 12 13 14 rings
6 17 18 19 21 22 23 rings
6 8 10 24 26 27 28 rings

> <PUBCHEM_HEAVY_ATOM_COUNT>
28

> <PUBCHEM_ATOM_DEF_STEREO_COUNT>
1

> <PUBCHEM_ATOM_UDEF_STEREO_COUNT>
0

> <PUBCHEM_BOND_DEF_STEREO_COUNT>
0

> <PUBCHEM_BOND_UDEF_STEREO_COUNT>
0

> <PUBCHEM_ISOTOPIC_ATOM_COUNT>
0

> <PUBCHEM_COMPONENT_COUNT>
1

> <PUBCHEM_CACTVS_TAUTO_COUNT>
11

> <PUBCHEM_CONFORMER_ID>
02BA9ACE00000001

> <PUBCHEM_MMFF94_ENERGY>
59.3676

> <PUBCHEM_FEATURE_SELFOVERLAP>
55.976

> <PUBCHEM_SHAPE_FINGERPRINT>
10190108 129 17256814919849210299
107951 10 17025993240489226680
1100329 8 18122908629734643625
12156800 1 15215514059825629382
12173636 292 16755216039433621701
12655364 131 14760741886604730428
12788726 201 17687197395641446798
13149001 5 18046602544220551733
133893 2 18267888192377879427
13761468 95 16601560415176606438
14910302 57 17482264907776775223
15876981 60 18048050579586006798
15961568 22 18338789019402032050
16728300 4 17392732054178802234
19930381 70 18340767155850756656
20028762 73 17188139427698838527
20600515 1 17544994305758027793
20691752 17 17458343005643202061
20764821 26 18192164702694062674
20905425 154 18410009957530659773
21344244 246 18196648716606425543
23419403 2 18042944558712036479
23557571 272 18055064355200188427
23559900 14 18339347583655611121
23728640 28 17400075769449772632
238918 7 17905897233390705906
3027735 51 18269006438648258361
3298306 158 18266455597335873324
4017518 198 18053946436265592484
4280585 95 18120639254460803794
469060 322 13923387974793178686
59755656 215 18047747389581473663
6287921 2 18201436935094425027

> <PUBCHEM_SHAPE_MULTIPOLES>
532.58
7.4
5.7
1.59
4.59
2.35
0.03
-3.66
1.61
-7.22
0.01
-0.3
-0.31
0.34

> <PUBCHEM_SHAPE_SELFOVERLAP>
1143.547

> <PUBCHEM_SHAPE_VOLUME>
297

> <PUBCHEM_COORDINATE_TYPE>
2
5
10

$$$$
