11941369
  -OEChem-12032416213D

 61 65  0     1  0  0  0  0  0999 V2000
   -2.5155   -0.4941    1.9421 O   0  0  0  0  0  0  0  0  0  0  0  0
    5.3903    3.3713    1.2999 O   0  0  0  0  0  0  0  0  0  0  0  0
    1.9721   -1.5466   -0.0329 N   0  0  2  0  0  0  0  0  0  0  0  0
   -1.1770   -1.6898    0.4533 N   0  0  0  0  0  0  0  0  0  0  0  0
    4.8264    1.5701   -0.0550 N   0  0  0  0  0  0  0  0  0  0  0  0
    0.6754   -3.2820    1.2295 C   0  0  1  0  0  0  0  0  0  0  0  0
    0.2620   -2.9743   -1.1643 C   0  0  2  0  0  0  0  0  0  0  0  0
    0.3740   -4.0265   -0.0645 C   0  0  0  0  0  0  0  0  0  0  0  0
    1.9940   -2.4918    1.0902 C   0  0  0  0  0  0  0  0  0  0  0  0
    1.6021   -2.2141   -1.2899 C   0  0  0  0  0  0  0  0  0  0  0  0
    3.2540   -0.8583   -0.1637 C   0  0  0  0  0  0  0  0  0  0  0  0
   -0.5187   -2.3808    1.5713 C   0  0  0  0  0  0  0  0  0  0  0  0
   -0.8707   -2.0077   -0.8719 C   0  0  0  0  0  0  0  0  0  0  0  0
    3.1715    0.2024   -1.2693 C   0  0  0  0  0  0  0  0  0  0  0  0
    3.6430   -0.2112    1.1718 C   0  0  0  0  0  0  0  0  0  0  0  0
    4.4721    1.0002   -1.3609 C   0  0  0  0  0  0  0  0  0  0  0  0
    4.9334    0.5945    1.0318 C   0  0  0  0  0  0  0  0  0  0  0  0
   -1.5623   -1.4467   -1.8764 C   0  0  0  0  0  0  0  0  0  0  0  0
   -2.1949   -0.7744    0.7857 C   0  0  0  0  0  0  0  0  0  0  0  0
   -2.9295   -0.1356   -0.3622 C   0  0  0  0  0  0  0  0  0  0  0  0
   -2.6022   -0.4927   -1.6132 C   0  0  0  0  0  0  0  0  0  0  0  0
    5.0944    2.9162    0.1920 C   0  0  0  0  0  0  0  0  0  0  0  0
   -3.9824    0.8689   -0.1308 C   0  0  0  0  0  0  0  0  0  0  0  0
    5.0066    3.8503   -0.9884 C   0  0  0  0  0  0  0  0  0  0  0  0
   -3.6844    2.2311   -0.0492 C   0  0  0  0  0  0  0  0  0  0  0  0
   -5.3039    0.4392    0.0089 C   0  0  0  0  0  0  0  0  0  0  0  0
   -4.7029    3.1586    0.1708 C   0  0  0  0  0  0  0  0  0  0  0  0
   -2.2827    2.7305   -0.1933 C   0  0  0  0  0  0  0  0  0  0  0  0
   -6.3223    1.3667    0.2289 C   0  0  0  0  0  0  0  0  0  0  0  0
   -6.0218    2.7263    0.3099 C   0  0  0  0  0  0  0  0  0  0  0  0
    0.8065   -4.0043    2.0451 H   0  0  0  0  0  0  0  0  0  0  0  0
    0.0689   -3.4932   -2.1125 H   0  0  0  0  0  0  0  0  0  0  0  0
   -0.5544   -4.6042    0.0244 H   0  0  0  0  0  0  0  0  0  0  0  0
    1.1763   -4.7384   -0.2939 H   0  0  0  0  0  0  0  0  0  0  0  0
    2.1181   -1.9758    2.0472 H   0  0  0  0  0  0  0  0  0  0  0  0
    2.8248   -3.2021    0.9826 H   0  0  0  0  0  0  0  0  0  0  0  0
    2.3865   -2.9174   -1.6008 H   0  0  0  0  0  0  0  0  0  0  0  0
    1.4671   -1.4952   -2.1036 H   0  0  0  0  0  0  0  0  0  0  0  0
    4.0397   -1.5790   -0.4339 H   0  0  0  0  0  0  0  0  0  0  0  0
   -1.2994   -2.9985    2.0364 H   0  0  0  0  0  0  0  0  0  0  0  0
   -0.2375   -1.6349    2.3253 H   0  0  0  0  0  0  0  0  0  0  0  0
    2.3383    0.8903   -1.0731 H   0  0  0  0  0  0  0  0  0  0  0  0
    3.0147   -0.2383   -2.2583 H   0  0  0  0  0  0  0  0  0  0  0  0
    3.8391   -0.9524    1.9529 H   0  0  0  0  0  0  0  0  0  0  0  0
    2.8401    0.4500    1.5238 H   0  0  0  0  0  0  0  0  0  0  0  0
    5.3004    0.3487   -1.6645 H   0  0  0  0  0  0  0  0  0  0  0  0
    4.3696    1.7698   -2.1281 H   0  0  0  0  0  0  0  0  0  0  0  0
    5.1639    1.0908    1.9799 H   0  0  0  0  0  0  0  0  0  0  0  0
    5.7760   -0.0663    0.7954 H   0  0  0  0  0  0  0  0  0  0  0  0
   -1.3404   -1.6714   -2.9144 H   0  0  0  0  0  0  0  0  0  0  0  0
   -3.0997   -0.0608   -2.4767 H   0  0  0  0  0  0  0  0  0  0  0  0
    5.2614    4.8655   -0.6687 H   0  0  0  0  0  0  0  0  0  0  0  0
    3.9877    3.8631   -1.3843 H   0  0  0  0  0  0  0  0  0  0  0  0
    5.7167    3.5500   -1.7634 H   0  0  0  0  0  0  0  0  0  0  0  0
   -5.5564   -0.6170   -0.0503 H   0  0  0  0  0  0  0  0  0  0  0  0
   -4.4875    4.2218    0.2363 H   0  0  0  0  0  0  0  0  0  0  0  0
   -1.6298    2.2777    0.5602 H   0  0  0  0  0  0  0  0  0  0  0  0
   -1.8950    2.5085   -1.1929 H   0  0  0  0  0  0  0  0  0  0  0  0
   -2.2223    3.8160   -0.0570 H   0  0  0  0  0  0  0  0  0  0  0  0
   -7.3492    1.0303    0.3375 H   0  0  0  0  0  0  0  0  0  0  0  0
   -6.8148    3.4483    0.4812 H   0  0  0  0  0  0  0  0  0  0  0  0
  1 19  2  0  0  0  0
  2 22  2  0  0  0  0
  3  9  1  0  0  0  0
  3 10  1  0  0  0  0
  3 11  1  0  0  0  0
  4 12  1  0  0  0  0
  4 13  1  0  0  0  0
  4 19  1  0  0  0  0
  5 16  1  0  0  0  0
  5 17  1  0  0  0  0
  5 22  1  0  0  0  0
  6  8  1  0  0  0  0
  6  9  1  0  0  0  0
  6 12  1  0  0  0  0
  6 31  1  0  0  0  0
  7  8  1  0  0  0  0
  7 10  1  0  0  0  0
  7 13  1  0  0  0  0
  7 32  1  0  0  0  0
  8 33  1  0  0  0  0
  8 34  1  0  0  0  0
  9 35  1  0  0  0  0
  9 36  1  0  0  0  0
 10 37  1  0  0  0  0
 10 38  1  0  0  0  0
 11 14  1  0  0  0  0
 11 15  1  0  0  0  0
 11 39  1  0  0  0  0
 12 40  1  0  0  0  0
 12 41  1  0  0  0  0
 13 18  2  0  0  0  0
 14 16  1  0  0  0  0
 14 42  1  0  0  0  0
 14 43  1  0  0  0  0
 15 17  1  0  0  0  0
 15 44  1  0  0  0  0
 15 45  1  0  0  0  0
 16 46  1  0  0  0  0
 16 47  1  0  0  0  0
 17 48  1  0  0  0  0
 17 49  1  0  0  0  0
 18 21  1  0  0  0  0
 18 50  1  0  0  0  0
 19 20  1  0  0  0  0
 20 21  2  0  0  0  0
 20 23  1  0  0  0  0
 21 51  1  0  0  0  0
 22 24  1  0  0  0  0
 23 25  1  0  0  0  0
 23 26  2  0  0  0  0
 24 52  1  0  0  0  0
 24 53  1  0  0  0  0
 24 54  1  0  0  0  0
 25 27  2  0  0  0  0
 25 28  1  0  0  0  0
 26 29  1  0  0  0  0
 26 55  1  0  0  0  0
 27 30  1  0  0  0  0
 27 56  1  0  0  0  0
 28 57  1  0  0  0  0
 28 58  1  0  0  0  0
 28 59  1  0  0  0  0
 29 30  2  0  0  0  0
 29 60  1  0  0  0  0
 30 61  1  0  0  0  0
M  END
> <PUBCHEM_COMPOUND_CID>
11941369

> <PUBCHEM_CONFORMER_RMSD>
0.8

> <PUBCHEM_CONFORMER_DIVERSEORDER>
1
6
11
8
3
5
9
7
2
12
4
10

> <PUBCHEM_MMFF94_PARTIAL_CHARGES>
32
1 -0.57
10 0.27
11 0.27
12 0.3
13 -0.03
16 0.3
17 0.3
18 -0.15
19 0.62
2 -0.57
20 -0.01
21 -0.15
22 0.57
23 0.03
24 0.06
25 -0.14
26 -0.15
27 -0.15
28 0.14
29 -0.15
3 -0.81
30 -0.15
4 -0.47
5 -0.66
50 0.15
51 0.15
55 0.15
56 0.15
60 0.15
61 0.15
7 0.14
9 0.27

> <PUBCHEM_EFFECTIVE_ROTOR_COUNT>
5.2

> <PUBCHEM_PHARMACOPHORE_FEATURES>
8
1 1 acceptor
1 2 acceptor
1 3 cation
6 23 25 26 27 29 30 rings
6 3 6 7 8 9 10 rings
6 4 13 18 19 20 21 rings
6 4 6 7 8 12 13 rings
6 5 11 14 15 16 17 rings

> <PUBCHEM_HEAVY_ATOM_COUNT>
30

> <PUBCHEM_ATOM_DEF_STEREO_COUNT>
2

> <PUBCHEM_ATOM_UDEF_STEREO_COUNT>
0

> <PUBCHEM_BOND_DEF_STEREO_COUNT>
0

> <PUBCHEM_BOND_UDEF_STEREO_COUNT>
0

> <PUBCHEM_ISOTOPIC_ATOM_COUNT>
0

> <PUBCHEM_COMPONENT_COUNT>
1

> <PUBCHEM_CACTVS_TAUTO_COUNT>
1

> <PUBCHEM_CONFORMER_ID>
00B635F900000001

> <PUBCHEM_MMFF94_ENERGY>
78.8621

> <PUBCHEM_FEATURE_SELFOVERLAP>
42.151

> <PUBCHEM_SHAPE_FINGERPRINT>
10673678 19 18342458093597779097
10675989 125 18270965626756769752
10928967 22 10087103893614278140
10937287 8 18411699902507532710
11112241 14 18334300847202450937
11477941 20 17048514645210280844
11621639 148 17475793629687439851
11720765 8 17701830882591306342
11796584 16 10882555373375137651
12107183 9 18262502755352174978
12107698 1 18050848810539600951
12633257 1 16226054417657160870
12788726 201 17611206122445655326
13590594 115 17403186893730843986
13944108 23 18125163727714265384
13965767 371 18040427790082358286
14251764 38 18122631544029808737
14251764 75 18342745100218677785
14739800 52 18263362504034333643
14790565 3 18411981351656651073
14848178 5 8574712386110504590
14849402 71 18190461558919478194
15142526 21 18333733498659206131
15198563 99 17839460338679052319
15513586 35 16448420938224035596
15979999 66 17623862223295085110
16988056 13 17980765931158948686
17349148 13 15142395437726598059
19438510 23 18410007780114122760
20764821 26 18198596935389314904
21365058 113 17410227105095730519
21475661 188 18337394842304288438
21756936 100 18337672022619788206
22122407 14 18266189327023432409
23559900 14 17624133803052007247
245318 6 18114477741654706244
2838139 119 18413385436626521038
3298306 158 18413386514637250505
3388396 114 16830081292501358988
3411729 13 18339643313866433397
34797466 226 18058453089577319303
376196 1 18413110558899405886
474 4 18262520286554290223
508706 21 17840858900537282624
5219985 13 18341331175477751702
5372103 7 15911893185736686584
550186 72 18339922714674912933
56633871 153 11891330976015253465
57091435 61 18339081484498582249
57724786 102 18334851728181394390
5776283 40 18268731471485569876
6034566 193 18341905141975171777
6036956 94 17471008550166243597
6086070 43 17249472995214825511
613672 6 9150335220707513066
7288768 16 18114179782519153314
7808743 9 18342170119992904834
7970288 3 8862948277180189480
960060 61 12463269415571200539
9849439 229 18410570712581797360
9981440 41 18334299781533597147

> <PUBCHEM_SHAPE_MULTIPOLES>
590.7
13.43
5.19
1.54
3.16
0.95
0.07
18.98
-1.36
-3.59
-0.28
-0.68
-0.68
-0.5

> <PUBCHEM_SHAPE_SELFOVERLAP>
1280.775

> <PUBCHEM_SHAPE_VOLUME>
315.9

> <PUBCHEM_COORDINATE_TYPE>
2
5
10

$$$$
