26742545
  -OEChem-12032416173D

 69 71  0     1  0  0  0  0  0999 V2000
   -0.5488    4.1171   -0.8481 O   0  0  0  0  0  0  0  0  0  0  0  0
    3.3929   -1.5832   -1.8357 O   0  0  0  0  0  0  0  0  0  0  0  0
   -2.7652   -1.4684    1.1152 O   0  0  0  0  0  0  0  0  0  0  0  0
   -5.3229   -2.4187    0.6582 O   0  0  0  0  0  0  0  0  0  0  0  0
    3.6405    0.2979   -0.4952 N   0  0  0  0  0  0  0  0  0  0  0  0
   -0.3992    2.6290    0.9253 N   0  0  0  0  0  0  0  0  0  0  0  0
    2.7657    1.9290    1.1682 C   0  0  2  0  0  0  0  0  0  0  0  0
    2.5860    2.9448    0.0155 C   0  0  1  0  0  0  0  0  0  0  0  0
    2.3740    2.2371   -1.3356 C   0  0  0  0  0  0  0  0  0  0  0  0
    3.8847    0.9307    0.8073 C   0  0  0  0  0  0  0  0  0  0  0  0
    1.4908    1.1658    1.5744 C   0  0  0  0  0  0  0  0  0  0  0  0
    1.5371    4.0293    0.2933 C   0  0  0  0  0  0  0  0  0  0  0  0
    3.4906    1.2324   -1.6106 C   0  0  0  0  0  0  0  0  0  0  0  0
    0.3622    2.0770    2.0437 C   0  0  0  0  0  0  0  0  0  0  0  0
    0.0991    3.6025    0.0670 C   0  0  0  0  0  0  0  0  0  0  0  0
    3.5743   -1.0757   -0.7261 C   0  0  0  0  0  0  0  0  0  0  0  0
   -1.7424    2.1002    0.7273 C   0  0  0  0  0  0  0  0  0  0  0  0
    3.7351   -1.9715    0.4761 C   0  0  0  0  0  0  0  0  0  0  0  0
    3.7010   -3.4676    0.1159 C   0  0  0  0  0  0  0  0  0  0  0  0
   -1.7606    0.8709   -0.1779 C   0  0  0  0  0  0  0  0  0  0  0  0
    2.3692   -3.8476   -0.5535 C   0  0  0  0  0  0  0  0  0  0  0  0
    3.9152   -4.3441    1.3617 C   0  0  0  0  0  0  0  0  0  0  0  0
    4.8452   -3.7400   -0.8786 C   0  0  0  0  0  0  0  0  0  0  0  0
   -3.1507    0.3321   -0.4108 C   0  0  0  0  0  0  0  0  0  0  0  0
   -3.5910   -0.8157    0.2480 C   0  0  0  0  0  0  0  0  0  0  0  0
   -3.9988    0.9965   -1.2970 C   0  0  0  0  0  0  0  0  0  0  0  0
   -4.8795   -1.2993    0.0208 C   0  0  0  0  0  0  0  0  0  0  0  0
   -5.2872    0.5128   -1.5241 C   0  0  0  0  0  0  0  0  0  0  0  0
   -5.7275   -0.6351   -0.8653 C   0  0  0  0  0  0  0  0  0  0  0  0
   -1.9369   -2.4934    0.5714 C   0  0  0  0  0  0  0  0  0  0  0  0
   -6.6529   -2.8450    0.3689 C   0  0  0  0  0  0  0  0  0  0  0  0
    3.1050    2.4846    2.0538 H   0  0  0  0  0  0  0  0  0  0  0  0
    3.5443    3.4814   -0.0610 H   0  0  0  0  0  0  0  0  0  0  0  0
    2.3431    2.9753   -2.1455 H   0  0  0  0  0  0  0  0  0  0  0  0
    1.4139    1.7082   -1.3455 H   0  0  0  0  0  0  0  0  0  0  0  0
    4.8426    1.4597    0.7253 H   0  0  0  0  0  0  0  0  0  0  0  0
    4.0024    0.1993    1.6090 H   0  0  0  0  0  0  0  0  0  0  0  0
    1.7509    0.5030    2.4103 H   0  0  0  0  0  0  0  0  0  0  0  0
    1.1489    0.5162    0.7615 H   0  0  0  0  0  0  0  0  0  0  0  0
    1.7249    4.8716   -0.3866 H   0  0  0  0  0  0  0  0  0  0  0  0
    1.6456    4.4381    1.3039 H   0  0  0  0  0  0  0  0  0  0  0  0
    3.2836    0.6981   -2.5432 H   0  0  0  0  0  0  0  0  0  0  0  0
    4.4495    1.7490   -1.7364 H   0  0  0  0  0  0  0  0  0  0  0  0
   -0.3161    1.5023    2.6848 H   0  0  0  0  0  0  0  0  0  0  0  0
    0.7475    2.8999    2.6552 H   0  0  0  0  0  0  0  0  0  0  0  0
   -2.3595    2.8891    0.2794 H   0  0  0  0  0  0  0  0  0  0  0  0
   -2.1950    1.8818    1.7020 H   0  0  0  0  0  0  0  0  0  0  0  0
    2.9281   -1.7489    1.1847 H   0  0  0  0  0  0  0  0  0  0  0  0
    4.6918   -1.7402    0.9600 H   0  0  0  0  0  0  0  0  0  0  0  0
   -1.3160    1.1194   -1.1513 H   0  0  0  0  0  0  0  0  0  0  0  0
   -1.1014    0.1035    0.2380 H   0  0  0  0  0  0  0  0  0  0  0  0
    1.5200   -3.4906    0.0406 H   0  0  0  0  0  0  0  0  0  0  0  0
    2.2430   -3.4823   -1.5743 H   0  0  0  0  0  0  0  0  0  0  0  0
    2.2763   -4.9389   -0.6195 H   0  0  0  0  0  0  0  0  0  0  0  0
    4.8719   -4.1151    1.8444 H   0  0  0  0  0  0  0  0  0  0  0  0
    3.1213   -4.1744    2.0976 H   0  0  0  0  0  0  0  0  0  0  0  0
    3.9149   -5.4105    1.1099 H   0  0  0  0  0  0  0  0  0  0  0  0
    5.7875   -3.2985   -0.5337 H   0  0  0  0  0  0  0  0  0  0  0  0
    5.0182   -4.8208   -0.9631 H   0  0  0  0  0  0  0  0  0  0  0  0
    4.6651   -3.4023   -1.9011 H   0  0  0  0  0  0  0  0  0  0  0  0
   -3.6673    1.8912   -1.8175 H   0  0  0  0  0  0  0  0  0  0  0  0
   -5.9468    1.0308   -2.2145 H   0  0  0  0  0  0  0  0  0  0  0  0
   -6.7398   -0.9520   -1.0910 H   0  0  0  0  0  0  0  0  0  0  0  0
   -1.1728   -2.7456    1.3120 H   0  0  0  0  0  0  0  0  0  0  0  0
   -1.4387   -2.1675   -0.3474 H   0  0  0  0  0  0  0  0  0  0  0  0
   -2.5354   -3.3869    0.3689 H   0  0  0  0  0  0  0  0  0  0  0  0
   -6.8378   -3.7473    0.9612 H   0  0  0  0  0  0  0  0  0  0  0  0
   -6.7665   -3.1272   -0.6833 H   0  0  0  0  0  0  0  0  0  0  0  0
   -7.3928   -2.1013    0.6840 H   0  0  0  0  0  0  0  0  0  0  0  0
  1 15  2  0  0  0  0
  2 16  2  0  0  0  0
  3 25  1  0  0  0  0
  3 30  1  0  0  0  0
  4 27  1  0  0  0  0
  4 31  1  0  0  0  0
  5 10  1  0  0  0  0
  5 13  1  0  0  0  0
  5 16  1  0  0  0  0
  6 14  1  0  0  0  0
  6 15  1  0  0  0  0
  6 17  1  0  0  0  0
  7  8  1  0  0  0  0
  7 10  1  0  0  0  0
  7 11  1  0  0  0  0
  7 32  1  0  0  0  0
  8  9  1  0  0  0  0
  8 12  1  0  0  0  0
  8 33  1  0  0  0  0
  9 13  1  0  0  0  0
  9 34  1  0  0  0  0
  9 35  1  0  0  0  0
 10 36  1  0  0  0  0
 10 37  1  0  0  0  0
 11 14  1  0  0  0  0
 11 38  1  0  0  0  0
 11 39  1  0  0  0  0
 12 15  1  0  0  0  0
 12 40  1  0  0  0  0
 12 41  1  0  0  0  0
 13 42  1  0  0  0  0
 13 43  1  0  0  0  0
 14 44  1  0  0  0  0
 14 45  1  0  0  0  0
 16 18  1  0  0  0  0
 17 20  1  0  0  0  0
 17 46  1  0  0  0  0
 17 47  1  0  0  0  0
 18 19  1  0  0  0  0
 18 48  1  0  0  0  0
 18 49  1  0  0  0  0
 19 21  1  0  0  0  0
 19 22  1  0  0  0  0
 19 23  1  0  0  0  0
 20 24  1  0  0  0  0
 20 50  1  0  0  0  0
 20 51  1  0  0  0  0
 21 52  1  0  0  0  0
 21 53  1  0  0  0  0
 21 54  1  0  0  0  0
 22 55  1  0  0  0  0
 22 56  1  0  0  0  0
 22 57  1  0  0  0  0
 23 58  1  0  0  0  0
 23 59  1  0  0  0  0
 23 60  1  0  0  0  0
 24 25  2  0  0  0  0
 24 26  1  0  0  0  0
 25 27  1  0  0  0  0
 26 28  2  0  0  0  0
 26 61  1  0  0  0  0
 27 29  2  0  0  0  0
 28 29  1  0  0  0  0
 28 62  1  0  0  0  0
 29 63  1  0  0  0  0
 30 64  1  0  0  0  0
 30 65  1  0  0  0  0
 30 66  1  0  0  0  0
 31 67  1  0  0  0  0
 31 68  1  0  0  0  0
 31 69  1  0  0  0  0
M  END
> <PUBCHEM_COMPOUND_CID>
26742545

> <PUBCHEM_CONFORMER_RMSD>
1.2

> <PUBCHEM_CONFORMER_DIVERSEORDER>
1
92
43
7
155
32
93
147
162
67
135
104
167
164
35
84
157
144
103
89
145
127
81
115
59
77
10
153
96
69
33
98
26
94
95
106
110
46
24
141
143
83
109
154
42
149
14
160
44
72
97
73
148
87
166
158
119
76
28
88
161
123
62
138
19
139
5
23
53
18
41
58
9
57
54
100
37
129
51
128
163
63
120
140
152
68
16
60
30
126
90
116
22
131
47
74
159
38
65
105
124
25
113
111
13
31
49
12
82
91
132
101
133
107
80
56
122
34
8
36
64
134
156
15
66
6
165
121
125
71
39
55
3
29
112
75
17
70
21
20
99
52
118
150
40
130
136
117
108
142
151
45
86
27
114
48
79
4
137
2
11
78
102
50
85
146
61

> <PUBCHEM_MMFF94_PARTIAL_CHARGES>
26
1 -0.57
10 0.3
12 0.06
13 0.3
14 0.3
15 0.57
16 0.57
17 0.3
18 0.06
2 -0.57
20 0.14
24 -0.14
25 0.08
26 -0.15
27 0.08
28 -0.15
29 -0.15
3 -0.36
30 0.28
31 0.28
4 -0.36
5 -0.66
6 -0.66
61 0.15
62 0.15
63 0.15

> <PUBCHEM_EFFECTIVE_ROTOR_COUNT>
9.6

> <PUBCHEM_PHARMACOPHORE_FEATURES>
8
1 1 acceptor
1 2 acceptor
1 3 acceptor
1 4 acceptor
4 19 21 22 23 hydrophobe
6 24 25 26 27 28 29 rings
6 5 7 8 9 10 13 rings
7 6 7 8 11 12 14 15 rings

> <PUBCHEM_HEAVY_ATOM_COUNT>
31

> <PUBCHEM_ATOM_DEF_STEREO_COUNT>
2

> <PUBCHEM_ATOM_UDEF_STEREO_COUNT>
0

> <PUBCHEM_BOND_DEF_STEREO_COUNT>
0

> <PUBCHEM_BOND_UDEF_STEREO_COUNT>
0

> <PUBCHEM_ISOTOPIC_ATOM_COUNT>
0

> <PUBCHEM_COMPONENT_COUNT>
1

> <PUBCHEM_CACTVS_TAUTO_COUNT>
2

> <PUBCHEM_CONFORMER_ID>
01980F1100000001

> <PUBCHEM_MMFF94_ENERGY>
105.3972

> <PUBCHEM_FEATURE_SELFOVERLAP>
40.628

> <PUBCHEM_SHAPE_FINGERPRINT>
10622 236 17538003559426358842
10928967 22 18202567302020827183
11014199 57 18194972833595312758
11285246 1 18046358439195536690
11991303 11 17543633488753168316
12107183 9 18199766764907190825
1361 2 17979635955180520099
14251757 17 18334290981150531233
14429380 30 18267585702575199062
14659021 117 17903632991610522440
14863182 85 18266738172499886568
14866123 147 17981326690705747329
15968369 26 18190159343287135067
17909252 39 18411979165512704984
19315092 285 17489289906725252723
20775530 9 18195256524790452762
21703447 108 18341603781785047440
23559900 14 18336255769838094591
23569914 152 17979036472937017119
25222932 49 17915171540898576375
3298306 158 18337666537888385975
345986 75 17489594458761796105
3729539 64 18409728465843669063
404807 78 17608665142626309650
4280585 95 18047176463409553858
4394409 98 17249751166976141381
4435113 14 17679039311933166707
46194498 28 17898288561587887917
463206 1 17979637836181075496
5309563 4 18413113861401598190
9831232 110 18264766752841695575

> <PUBCHEM_SHAPE_MULTIPOLES>
604.53
12.81
6.31
1.54
16.36
1.4
-0.02
13.78
-2.48
-6.35
0.74
-0.62
-0.31
1.06

> <PUBCHEM_SHAPE_SELFOVERLAP>
1251.723

> <PUBCHEM_SHAPE_VOLUME>
343.1

> <PUBCHEM_COORDINATE_TYPE>
2
5
10

$$$$
