75368475
  -OEChem-12032416393D

 34 36  0     1  0  0  0  0  0999 V2000
   -4.6414   -0.7951   -0.2142 O   0  0  0  0  0  0  0  0  0  0  0  0
    2.1351   -2.4944   -0.2603 O   0  0  0  0  0  0  0  0  0  0  0  0
   -2.3065   -0.5374   -0.2554 N   0  0  0  0  0  0  0  0  0  0  0  0
    0.3502   -1.1064    0.3294 N   0  0  0  0  0  0  0  0  0  0  0  0
   -3.5730    1.2796    0.1236 N   0  0  0  0  0  0  0  0  0  0  0  0
    2.3577    0.7192   -0.9267 N   0  0  0  0  0  0  0  0  0  0  0  0
    4.6135    0.7975    0.7379 N   0  0  0  0  0  0  0  0  0  0  0  0
   -1.3614    0.5655   -0.2117 C   0  0  2  0  0  0  0  0  0  0  0  0
   -0.1875    0.2177    0.6980 C   0  0  0  0  0  0  0  0  0  0  0  0
   -2.2047    1.7485    0.2564 C   0  0  0  0  0  0  0  0  0  0  0  0
   -1.8326   -1.8858   -0.5155 C   0  0  0  0  0  0  0  0  0  0  0  0
   -0.6312   -2.1993    0.3747 C   0  0  0  0  0  0  0  0  0  0  0  0
   -3.6340   -0.1050   -0.1300 C   0  0  0  0  0  0  0  0  0  0  0  0
   -4.7057    2.1449    0.3674 C   0  0  0  0  0  0  0  0  0  0  0  0
    1.6791   -1.3831    0.0041 C   0  0  0  0  0  0  0  0  0  0  0  0
    2.6271   -0.2625   -0.0434 C   0  0  0  0  0  0  0  0  0  0  0  0
    3.7352   -0.2241    0.7741 C   0  0  0  0  0  0  0  0  0  0  0  0
    3.2361    1.7408   -0.9631 C   0  0  0  0  0  0  0  0  0  0  0  0
    4.3441    1.7792   -0.1454 C   0  0  0  0  0  0  0  0  0  0  0  0
   -1.0136    0.7251   -1.2403 H   0  0  0  0  0  0  0  0  0  0  0  0
    0.5632    1.0080    0.6851 H   0  0  0  0  0  0  0  0  0  0  0  0
   -0.5230    0.1267    1.7394 H   0  0  0  0  0  0  0  0  0  0  0  0
   -2.0310    2.0061    1.3062 H   0  0  0  0  0  0  0  0  0  0  0  0
   -2.0514    2.6341   -0.3676 H   0  0  0  0  0  0  0  0  0  0  0  0
   -1.5434   -1.9225   -1.5719 H   0  0  0  0  0  0  0  0  0  0  0  0
   -2.6444   -2.6025   -0.3581 H   0  0  0  0  0  0  0  0  0  0  0  0
   -0.9481   -2.2986    1.4198 H   0  0  0  0  0  0  0  0  0  0  0  0
   -0.1777   -3.1486    0.0735 H   0  0  0  0  0  0  0  0  0  0  0  0
   -4.6644    2.4942    1.4025 H   0  0  0  0  0  0  0  0  0  0  0  0
   -5.6398    1.6016    0.2044 H   0  0  0  0  0  0  0  0  0  0  0  0
   -4.6519    2.9980   -0.3137 H   0  0  0  0  0  0  0  0  0  0  0  0
    3.9588   -1.0082    1.4880 H   0  0  0  0  0  0  0  0  0  0  0  0
    3.0199    2.5300   -1.6723 H   0  0  0  0  0  0  0  0  0  0  0  0
    5.0493    2.6005   -0.1751 H   0  0  0  0  0  0  0  0  0  0  0  0
  1 13  2  0  0  0  0
  2 15  2  0  0  0  0
  3  8  1  0  0  0  0
  3 11  1  0  0  0  0
  3 13  1  0  0  0  0
  4  9  1  0  0  0  0
  4 12  1  0  0  0  0
  4 15  1  0  0  0  0
  5 10  1  0  0  0  0
  5 13  1  0  0  0  0
  5 14  1  0  0  0  0
  6 16  2  0  0  0  0
  6 18  1  0  0  0  0
  7 17  2  0  0  0  0
  7 19  1  0  0  0  0
  8  9  1  0  0  0  0
  8 10  1  0  0  0  0
  8 20  1  0  0  0  0
  9 21  1  0  0  0  0
  9 22  1  0  0  0  0
 10 23  1  0  0  0  0
 10 24  1  0  0  0  0
 11 12  1  0  0  0  0
 11 25  1  0  0  0  0
 11 26  1  0  0  0  0
 12 27  1  0  0  0  0
 12 28  1  0  0  0  0
 14 29  1  0  0  0  0
 14 30  1  0  0  0  0
 14 31  1  0  0  0  0
 15 16  1  0  0  0  0
 16 17  1  0  0  0  0
 17 32  1  0  0  0  0
 18 19  2  0  0  0  0
 18 33  1  0  0  0  0
 19 34  1  0  0  0  0
M  END
> <PUBCHEM_COMPOUND_CID>
75368475

> <PUBCHEM_CONFORMER_RMSD>
0.6

> <PUBCHEM_CONFORMER_DIVERSEORDER>
1
10
29
14
21
4
16
23
25
17
9
20
18
22
24
27
8
15
26
13
28
19
11
5
30
7
12
3
2
6

> <PUBCHEM_MMFF94_PARTIAL_CHARGES>
22
1 -0.57
10 0.3
11 0.3
12 0.3
13 0.69
14 0.3
15 0.54
16 0.4
17 0.16
18 0.16
19 0.16
2 -0.57
3 -0.66
32 0.15
33 0.15
34 0.15
4 -0.66
5 -0.66
6 -0.62
7 -0.62
8 0.3
9 0.3

> <PUBCHEM_EFFECTIVE_ROTOR_COUNT>
3.2

> <PUBCHEM_PHARMACOPHORE_FEATURES>
7
1 1 acceptor
1 2 acceptor
1 6 acceptor
1 7 acceptor
5 3 5 8 10 13 rings
6 3 4 8 9 11 12 rings
6 6 7 16 17 18 19 rings

> <PUBCHEM_HEAVY_ATOM_COUNT>
19

> <PUBCHEM_ATOM_DEF_STEREO_COUNT>
1

> <PUBCHEM_ATOM_UDEF_STEREO_COUNT>
0

> <PUBCHEM_BOND_DEF_STEREO_COUNT>
0

> <PUBCHEM_BOND_UDEF_STEREO_COUNT>
0

> <PUBCHEM_ISOTOPIC_ATOM_COUNT>
0

> <PUBCHEM_COMPONENT_COUNT>
1

> <PUBCHEM_CACTVS_TAUTO_COUNT>
1

> <PUBCHEM_CONFORMER_ID>
047E081B00000001

> <PUBCHEM_MMFF94_ENERGY>
52.4968

> <PUBCHEM_FEATURE_SELFOVERLAP>
35.625

> <PUBCHEM_SHAPE_FINGERPRINT>
10465860 228 18409732816270844142
10498660 4 18342741792956631449
10646746 165 18341330102152866792
12173636 292 18342453746906480303
122479 349 18335143098061317146
12390115 104 18129961000431077689
12403814 3 17894905252681697869
12633257 1 16733253668995595840
12788726 201 17465384523037180378
13380535 76 18408323315225810426
14739800 52 17908128130485642904
14787075 74 18116715308453024763
14790565 3 17984429538479442129
14897335 6 18410573993984271182
15196674 1 18411418388833580473
15342168 16 18260836994291965397
15536298 74 18341334388055494190
1741750 31 18342461443181821875
17492 89 18410291376388796867
17810953 82 18194125118519966813
18186145 218 18265617589218568479
20645477 70 16415214359972358134
20715895 44 17975683992605469981
21524375 3 18334573572845287866
22854114 111 18260831471011131258
23227448 37 18339642351244925333
23402539 116 18340758321150462772
235170 7 15913611665880563685
23557571 272 17988646341047533742
23559900 14 18200873955488176254
4340502 62 17022904545503496443
474 4 17968097555451352908
4921388 177 15625932201141696085
5104073 3 18337111172641338963
58051976 378 18412824711360716071
6333272 397 18334295383365545450
633830 44 18269836415724826207
7064713 232 18410006628752072848
7364860 26 18270400478143576014
960060 61 12031783673615366216
9709674 26 18411987948552409510
9981440 41 18337387248960560250

> <PUBCHEM_SHAPE_MULTIPOLES>
354.37
9.39
2.49
0.81
0.83
0.41
-0.02
-5.31
0.4
0.34
-0.12
-0.4
-0.1
-0.71

> <PUBCHEM_SHAPE_SELFOVERLAP>
755.606

> <PUBCHEM_SHAPE_VOLUME>
196.5

> <PUBCHEM_COORDINATE_TYPE>
2
5
10

$$$$
