56774638
  -OEChem-12032416273D

 59 61  0     1  0  0  0  0  0999 V2000
   -0.9300    2.5208    0.9871 O   0  0  0  0  0  0  0  0  0  0  0  0
   -0.9228   -0.2203   -2.2051 O   0  0  0  0  0  0  0  0  0  0  0  0
   -4.2393    2.4869   -0.4579 O   0  0  0  0  0  0  0  0  0  0  0  0
    6.1776    0.7960   -0.3297 O   0  0  0  0  0  0  0  0  0  0  0  0
   -2.7175    0.7402   -0.2354 N   0  0  0  0  0  0  0  0  0  0  0  0
    4.9017   -1.1439    0.0440 N   0  0  0  0  0  0  0  0  0  0  0  0
    7.1947   -1.1672    0.3446 N   0  0  0  0  0  0  0  0  0  0  0  0
   -4.8735   -0.4436   -0.2333 C   0  0  0  0  0  0  0  0  0  0  0  0
   -5.7389   -1.4565   -0.9952 C   0  0  0  0  0  0  0  0  0  0  0  0
   -4.6403   -0.9025    1.2124 C   0  0  0  0  0  0  0  0  0  0  0  0
   -3.5430   -0.2235   -0.9507 C   0  0  0  0  0  0  0  0  0  0  0  0
   -7.0533   -1.7338   -0.2691 C   0  0  0  0  0  0  0  0  0  0  0  0
   -5.9565   -1.1808    1.9348 C   0  0  0  0  0  0  0  0  0  0  0  0
   -6.8176   -2.1812    1.1702 C   0  0  0  0  0  0  0  0  0  0  0  0
   -1.3457    0.3399    0.1017 C   0  0  1  0  0  0  0  0  0  0  0  0
   -0.4181    0.5260   -1.1027 C   0  0  1  0  0  0  0  0  0  0  0  0
   -0.8508    1.1361    1.3034 C   0  0  0  0  0  0  0  0  0  0  0  0
   -3.1667    2.0450   -0.0420 C   0  0  0  0  0  0  0  0  0  0  0  0
   -2.2706    2.9255    0.8217 C   0  0  0  0  0  0  0  0  0  0  0  0
    0.9905    0.0837   -0.7984 C   0  0  0  0  0  0  0  0  0  0  0  0
    1.2390   -1.2301   -0.4012 C   0  0  0  0  0  0  0  0  0  0  0  0
    2.0457    0.9886   -0.9146 C   0  0  0  0  0  0  0  0  0  0  0  0
    2.5427   -1.6391   -0.1204 C   0  0  0  0  0  0  0  0  0  0  0  0
    3.3494    0.5797   -0.6338 C   0  0  0  0  0  0  0  0  0  0  0  0
    3.5978   -0.7343   -0.2368 C   0  0  0  0  0  0  0  0  0  0  0  0
    6.0898   -0.3879   -0.0130 C   0  0  0  0  0  0  0  0  0  0  0  0
    8.5449   -0.6539    0.3757 C   0  0  0  0  0  0  0  0  0  0  0  0
    8.8110    0.1303    1.6439 C   0  0  0  0  0  0  0  0  0  0  0  0
   -5.4452    0.4904   -0.1970 H   0  0  0  0  0  0  0  0  0  0  0  0
   -5.9550   -1.0808   -2.0025 H   0  0  0  0  0  0  0  0  0  0  0  0
   -5.1903   -2.3992   -1.1183 H   0  0  0  0  0  0  0  0  0  0  0  0
   -4.0255   -1.8118    1.2211 H   0  0  0  0  0  0  0  0  0  0  0  0
   -4.0935   -0.1437    1.7833 H   0  0  0  0  0  0  0  0  0  0  0  0
   -3.7232    0.1745   -1.9565 H   0  0  0  0  0  0  0  0  0  0  0  0
   -3.0107   -1.1760   -1.0519 H   0  0  0  0  0  0  0  0  0  0  0  0
   -7.6155   -2.5052   -0.8073 H   0  0  0  0  0  0  0  0  0  0  0  0
   -7.6709   -0.8272   -0.2733 H   0  0  0  0  0  0  0  0  0  0  0  0
   -6.5101   -0.2420    2.0592 H   0  0  0  0  0  0  0  0  0  0  0  0
   -5.7506   -1.5655    2.9401 H   0  0  0  0  0  0  0  0  0  0  0  0
   -7.7795   -2.3057    1.6801 H   0  0  0  0  0  0  0  0  0  0  0  0
   -6.3257   -3.1617    1.1714 H   0  0  0  0  0  0  0  0  0  0  0  0
   -1.3967   -0.7154    0.3974 H   0  0  0  0  0  0  0  0  0  0  0  0
   -0.4242    1.5753   -1.4225 H   0  0  0  0  0  0  0  0  0  0  0  0
   -1.4638    0.9322    2.1911 H   0  0  0  0  0  0  0  0  0  0  0  0
    0.1816    0.9009    1.5761 H   0  0  0  0  0  0  0  0  0  0  0  0
   -2.2576    3.9264    0.3777 H   0  0  0  0  0  0  0  0  0  0  0  0
   -2.7389    3.0072    1.8097 H   0  0  0  0  0  0  0  0  0  0  0  0
   -0.2362   -0.2503   -2.8932 H   0  0  0  0  0  0  0  0  0  0  0  0
    0.4331   -1.9537   -0.3161 H   0  0  0  0  0  0  0  0  0  0  0  0
    1.8660    2.0154   -1.2221 H   0  0  0  0  0  0  0  0  0  0  0  0
    2.7222   -2.6667    0.1854 H   0  0  0  0  0  0  0  0  0  0  0  0
    4.1121    1.3372   -0.7464 H   0  0  0  0  0  0  0  0  0  0  0  0
    5.0059   -2.1153    0.3268 H   0  0  0  0  0  0  0  0  0  0  0  0
    7.0435   -2.1368    0.6050 H   0  0  0  0  0  0  0  0  0  0  0  0
    9.2235   -1.5097    0.3070 H   0  0  0  0  0  0  0  0  0  0  0  0
    8.7012   -0.0167   -0.5011 H   0  0  0  0  0  0  0  0  0  0  0  0
    8.1479    0.9979    1.7233 H   0  0  0  0  0  0  0  0  0  0  0  0
    8.6501   -0.4927    2.5301 H   0  0  0  0  0  0  0  0  0  0  0  0
    9.8446    0.4892    1.6606 H   0  0  0  0  0  0  0  0  0  0  0  0
  1 17  1  0  0  0  0
  1 19  1  0  0  0  0
  2 16  1  0  0  0  0
  2 48  1  0  0  0  0
  3 18  2  0  0  0  0
  4 26  2  0  0  0  0
  5 11  1  0  0  0  0
  5 15  1  0  0  0  0
  5 18  1  0  0  0  0
  6 25  1  0  0  0  0
  6 26  1  0  0  0  0
  6 53  1  0  0  0  0
  7 26  1  0  0  0  0
  7 27  1  0  0  0  0
  7 54  1  0  0  0  0
  8  9  1  0  0  0  0
  8 10  1  0  0  0  0
  8 11  1  0  0  0  0
  8 29  1  0  0  0  0
  9 12  1  0  0  0  0
  9 30  1  0  0  0  0
  9 31  1  0  0  0  0
 10 13  1  0  0  0  0
 10 32  1  0  0  0  0
 10 33  1  0  0  0  0
 11 34  1  0  0  0  0
 11 35  1  0  0  0  0
 12 14  1  0  0  0  0
 12 36  1  0  0  0  0
 12 37  1  0  0  0  0
 13 14  1  0  0  0  0
 13 38  1  0  0  0  0
 13 39  1  0  0  0  0
 14 40  1  0  0  0  0
 14 41  1  0  0  0  0
 15 16  1  0  0  0  0
 15 17  1  0  0  0  0
 15 42  1  0  0  0  0
 16 20  1  0  0  0  0
 16 43  1  0  0  0  0
 17 44  1  0  0  0  0
 17 45  1  0  0  0  0
 18 19  1  0  0  0  0
 19 46  1  0  0  0  0
 19 47  1  0  0  0  0
 20 21  2  0  0  0  0
 20 22  1  0  0  0  0
 21 23  1  0  0  0  0
 21 49  1  0  0  0  0
 22 24  2  0  0  0  0
 22 50  1  0  0  0  0
 23 25  2  0  0  0  0
 23 51  1  0  0  0  0
 24 25  1  0  0  0  0
 24 52  1  0  0  0  0
 27 28  1  0  0  0  0
 27 55  1  0  0  0  0
 27 56  1  0  0  0  0
 28 57  1  0  0  0  0
 28 58  1  0  0  0  0
 28 59  1  0  0  0  0
M  END
> <PUBCHEM_COMPOUND_CID>
56774638

> <PUBCHEM_CONFORMER_RMSD>
1

> <PUBCHEM_CONFORMER_DIVERSEORDER>
1
37
11
25
15
42
36
44
14
49
30
48
9
63
55
45
26
66
33
56
7
43
10
12
46
5
67
21
32
53
29
16
50
17
22
61
24
59
52
65
38
4
28
51
62
47
58
54
20
19
3
27
35
6
34
40
57
41
39
64
8
60
13
31
18
23
2

> <PUBCHEM_MMFF94_PARTIAL_CHARGES>
28
1 -0.56
11 0.3
15 0.3
16 0.42
17 0.28
18 0.57
19 0.34
2 -0.68
20 -0.14
21 -0.15
22 -0.15
23 -0.15
24 -0.15
25 0.12
26 0.69
27 0.3
3 -0.57
4 -0.57
48 0.4
49 0.15
5 -0.66
50 0.15
51 0.15
52 0.15
53 0.37
54 0.37
6 -0.55
7 -0.73

> <PUBCHEM_EFFECTIVE_ROTOR_COUNT>
10.2

> <PUBCHEM_PHARMACOPHORE_FEATURES>
10
1 1 acceptor
1 2 acceptor
1 2 donor
1 3 acceptor
1 4 acceptor
1 6 donor
1 7 donor
6 1 5 15 17 18 19 rings
6 20 21 22 23 24 25 rings
6 8 9 10 12 13 14 rings

> <PUBCHEM_HEAVY_ATOM_COUNT>
28

> <PUBCHEM_ATOM_DEF_STEREO_COUNT>
2

> <PUBCHEM_ATOM_UDEF_STEREO_COUNT>
0

> <PUBCHEM_BOND_DEF_STEREO_COUNT>
0

> <PUBCHEM_BOND_UDEF_STEREO_COUNT>
0

> <PUBCHEM_ISOTOPIC_ATOM_COUNT>
0

> <PUBCHEM_COMPONENT_COUNT>
1

> <PUBCHEM_CACTVS_TAUTO_COUNT>
6

> <PUBCHEM_CONFORMER_ID>
03624FEE00000001

> <PUBCHEM_MMFF94_ENERGY>
62.4824

> <PUBCHEM_FEATURE_SELFOVERLAP>
50.796

> <PUBCHEM_SHAPE_FINGERPRINT>
10 15 14548742802588010615
10066227 112 10159699079696536418
10369192 42 15123792885535706852
106641 1 16774079604955032343
10674148 151 17240201037475845289
11135609 99 18114467876114943534
11200772 48 13695873657614396673
11315181 36 17821732731924668245
12166972 35 18259989301197981604
12236239 1 18411698751936092180
12596602 18 18335699395801194808
12760667 363 18409735080151307835
13073987 5 18341894027232831798
13540713 4 17344083870028848437
13631057 29 18409446977633721635
14849402 71 17560514136070545488
15183329 4 7853578998010867542
15461852 350 16660364766852526078
17492 89 18269561528980488951
1813 80 18128839567701666541
18608769 82 18202558506075380618
19611394 137 18343022216072251074
20721686 146 12534808006462941051
21130935 74 18263077722540103466
21267235 1 18413112766475114222
23559900 14 17823704246889953781
23569917 315 18333737888760179402
23576562 1 9078532786361094491
3383291 50 18333453161902096530
34797466 226 17203614813747201748
4015057 19 16009329680595808637
5104073 3 18199191685406754602
57527295 17 15502640586807525221
59682541 35 18202280342529089506
6009941 240 18114177498366678909
6328613 192 9079110060003989150
9663363 56 18343016706088152279
9689198 14 14045748135955438266
9953998 17 18272374148807079649

> <PUBCHEM_SHAPE_MULTIPOLES>
537.81
22.39
2.32
1.42
33.5
1.41
0.19
-12.68
8.14
-3.53
0.55
-0.91
-0.09
0.38

> <PUBCHEM_SHAPE_SELFOVERLAP>
1116.548

> <PUBCHEM_SHAPE_VOLUME>
300.6

> <PUBCHEM_COORDINATE_TYPE>
2
5
10

$$$$
