45784085
  -OEChem-12032416283D

 39 42  0     1  0  0  0  0  0999 V2000
    7.2016    1.7695   -0.5243 Cl  0  0  0  0  0  0  0  0  0  0  0  0
    2.5003   -1.5344    0.2953 O   0  0  0  0  0  0  0  0  0  0  0  0
   -2.0272   -0.2582   -0.1267 N   0  0  1  0  0  0  0  0  0  0  0  0
    2.1210    0.6908    0.0905 N   0  0  0  0  0  0  0  0  0  0  0  0
    0.1561   -0.8880    0.4527 C   0  0  1  0  0  0  0  0  0  0  0  0
   -0.5340   -0.2455    1.6686 C   0  0  0  0  0  0  0  0  0  0  0  0
   -0.7206   -0.4954   -0.7440 C   0  0  0  0  0  0  0  0  0  0  0  0
   -1.7364    0.4927    1.0947 C   0  0  0  0  0  0  0  0  0  0  0  0
   -2.9382    0.4534   -1.0110 C   0  0  0  0  0  0  0  0  0  0  0  0
    1.6069   -0.5060    0.2707 C   0  0  0  0  0  0  0  0  0  0  0  0
   -4.3711    0.3130   -0.5705 C   0  0  0  0  0  0  0  0  0  0  0  0
    3.4684    0.4437   -0.0143 C   0  0  0  0  0  0  0  0  0  0  0  0
    3.7045   -0.9174    0.1106 C   0  0  0  0  0  0  0  0  0  0  0  0
   -5.1475   -0.7428   -1.0480 C   0  0  0  0  0  0  0  0  0  0  0  0
   -4.9222    1.2391    0.3149 C   0  0  0  0  0  0  0  0  0  0  0  0
    4.5569    1.3048   -0.2143 C   0  0  0  0  0  0  0  0  0  0  0  0
    4.9589   -1.5119    0.0526 C   0  0  0  0  0  0  0  0  0  0  0  0
   -6.4751   -0.8726   -0.6400 C   0  0  0  0  0  0  0  0  0  0  0  0
   -6.2497    1.1096    0.7230 C   0  0  0  0  0  0  0  0  0  0  0  0
    5.8396    0.7414   -0.2785 C   0  0  0  0  0  0  0  0  0  0  0  0
    6.0339   -0.6392   -0.1474 C   0  0  0  0  0  0  0  0  0  0  0  0
   -7.0262    0.0537    0.2454 C   0  0  0  0  0  0  0  0  0  0  0  0
    0.1041   -1.9787    0.5808 H   0  0  0  0  0  0  0  0  0  0  0  0
   -0.8678   -1.0333    2.3555 H   0  0  0  0  0  0  0  0  0  0  0  0
    0.1181    0.4313    2.2308 H   0  0  0  0  0  0  0  0  0  0  0  0
   -0.7622   -1.2998   -1.4866 H   0  0  0  0  0  0  0  0  0  0  0  0
   -0.3408    0.4091   -1.2378 H   0  0  0  0  0  0  0  0  0  0  0  0
   -2.5665    0.4849    1.8073 H   0  0  0  0  0  0  0  0  0  0  0  0
   -1.4622    1.5340    0.8822 H   0  0  0  0  0  0  0  0  0  0  0  0
   -2.6721    1.5139   -1.1183 H   0  0  0  0  0  0  0  0  0  0  0  0
   -2.8665    0.0390   -2.0265 H   0  0  0  0  0  0  0  0  0  0  0  0
   -4.7300   -1.4727   -1.7366 H   0  0  0  0  0  0  0  0  0  0  0  0
   -4.3310    2.0701    0.6904 H   0  0  0  0  0  0  0  0  0  0  0  0
    4.4023    2.3745   -0.3156 H   0  0  0  0  0  0  0  0  0  0  0  0
    5.0983   -2.5808    0.1551 H   0  0  0  0  0  0  0  0  0  0  0  0
   -7.0796   -1.6949   -1.0113 H   0  0  0  0  0  0  0  0  0  0  0  0
   -6.6792    1.8314    1.4115 H   0  0  0  0  0  0  0  0  0  0  0  0
    7.0373   -1.0574   -0.2001 H   0  0  0  0  0  0  0  0  0  0  0  0
   -8.0599   -0.0471    0.5630 H   0  0  0  0  0  0  0  0  0  0  0  0
  1 20  1  0  0  0  0
  2 10  1  0  0  0  0
  2 13  1  0  0  0  0
  3  7  1  0  0  0  0
  3  8  1  0  0  0  0
  3  9  1  0  0  0  0
  4 10  2  0  0  0  0
  4 12  1  0  0  0  0
  5  6  1  0  0  0  0
  5  7  1  0  0  0  0
  5 10  1  0  0  0  0
  5 23  1  0  0  0  0
  6  8  1  0  0  0  0
  6 24  1  0  0  0  0
  6 25  1  0  0  0  0
  7 26  1  0  0  0  0
  7 27  1  0  0  0  0
  8 28  1  0  0  0  0
  8 29  1  0  0  0  0
  9 11  1  0  0  0  0
  9 30  1  0  0  0  0
  9 31  1  0  0  0  0
 11 14  2  0  0  0  0
 11 15  1  0  0  0  0
 12 13  2  0  0  0  0
 12 16  1  0  0  0  0
 13 17  1  0  0  0  0
 14 18  1  0  0  0  0
 14 32  1  0  0  0  0
 15 19  2  0  0  0  0
 15 33  1  0  0  0  0
 16 20  2  0  0  0  0
 16 34  1  0  0  0  0
 17 21  2  0  0  0  0
 17 35  1  0  0  0  0
 18 22  2  0  0  0  0
 18 36  1  0  0  0  0
 19 22  1  0  0  0  0
 19 37  1  0  0  0  0
 20 21  1  0  0  0  0
 21 38  1  0  0  0  0
 22 39  1  0  0  0  0
M  END
> <PUBCHEM_COMPOUND_CID>
45784085

> <PUBCHEM_CONFORMER_RMSD>
0.6

> <PUBCHEM_CONFORMER_DIVERSEORDER>
1
122
107
124
31
69
92
88
119
30
100
83
81
41
117
96
62
118
102
40
89
82
78
47
39
79
15
29
120
51
90
98
97
123
93
2
25
72
111
114
85
70
106
80
18
95
20
84
87
50
115
12
74
104
101
94
16
121
23
112
24
91
46
116
103
34
10
21
35
99
113
28
32
66
38
36
86
42
75
8
26
37
33
76
53
43
77
49
7
73
67
58
14
109
60
54
44
71
59
68
61
63
19
11
27
3
57
22
6
65
13
4
64
48
110
55
9
17
105
5
45
52
108
56

> <PUBCHEM_MMFF94_PARTIAL_CHARGES>
29
1 -0.18
10 0.3
11 -0.14
12 0.23
13 0.14
14 -0.15
15 -0.15
16 -0.15
17 -0.15
18 -0.15
19 -0.15
2 -0.28
20 0.18
21 -0.15
22 -0.15
3 -0.81
32 0.15
33 0.15
34 0.15
35 0.15
36 0.15
37 0.15
38 0.15
39 0.15
4 -0.57
5 0.18
7 0.27
8 0.27
9 0.41

> <PUBCHEM_EFFECTIVE_ROTOR_COUNT>
4

> <PUBCHEM_PHARMACOPHORE_FEATURES>
5
1 3 cation
5 2 4 10 12 13 rings
5 3 5 6 7 8 rings
6 11 14 15 18 19 22 rings
6 12 13 16 17 20 21 rings

> <PUBCHEM_HEAVY_ATOM_COUNT>
22

> <PUBCHEM_ATOM_DEF_STEREO_COUNT>
1

> <PUBCHEM_ATOM_UDEF_STEREO_COUNT>
0

> <PUBCHEM_BOND_DEF_STEREO_COUNT>
0

> <PUBCHEM_BOND_UDEF_STEREO_COUNT>
0

> <PUBCHEM_ISOTOPIC_ATOM_COUNT>
0

> <PUBCHEM_COMPONENT_COUNT>
1

> <PUBCHEM_CACTVS_TAUTO_COUNT>
1

> <PUBCHEM_CONFORMER_ID>
02BA9C1500000001

> <PUBCHEM_MMFF94_ENERGY>
45.2029

> <PUBCHEM_FEATURE_SELFOVERLAP>
25.492

> <PUBCHEM_SHAPE_FINGERPRINT>
10 15 15430038790374614988
10299344 5 18202001032426749375
10411042 1 17903353711922269514
10595046 47 18412543185065683931
106641 1 14634875279227141236
11315181 36 18411699899166996645
11646440 116 17095529482497647357
11796584 16 14764337258928633798
12166972 35 18409731759461599600
12236239 1 18202282485237403494
12730499 353 17894632526522045546
12788726 201 16773520971253820475
12916748 109 17095241393592696652
13167372 99 18339925909312806120
13533116 47 18272368634090598954
14170010 4 18113900477028525852
1420 363 17240767263882612851
14251752 14 17346880031282706369
14251764 18 18411698798537251524
14617045 38 14476966687774126180
14849402 71 18337677523982881469
14856354 85 17632859755099622879
14933364 13 18413671305444452661
15183329 4 17775568628357933193
15537594 2 15841547462119530799
15716309 27 18410292493738877719
1577012 14 18343301452964759773
18006028 8 11095887068243981347
18335252 98 18335707182266218075
20157964 124 18334013896157943578
20281389 69 17603581924440575988
21150785 3 18131635608031880276
21521721 280 18261114079701043898
220451 1 17632574946564054847
221357 26 18335416855309156332
22224240 67 16732983149847077842
2297311 6 15698004033128033225
23035841 295 17775283859573777639
23081809 10 18201711838955996895
23198884 109 18411702080382629219
23402539 116 17704347758500207237
23424782 7 18261395606681910411
23522609 53 18129403573447396785
23536379 177 18343301444585704787
23559900 14 18336823207847659273
23569943 247 17534334548668736555
23622692 88 14345799357005845834
28498 318 11167950147013019017
2916195 48 17530961371563873533
29717793 49 17846786183281206486
3004659 81 16845290562027875640
335352 9 18335425661004729182
34797466 226 18343871013331584606
3545911 37 18040998440410916066
397830 11 16299531537136483689
4073 2 18114467850413556066
4325135 7 18410855469446064429
4340502 62 16153706514353704794
445580 37 16916796158342355865
4463277 17 16988839484408982595
5283156 175 17132119013973432006
542803 24 18273210889602894751
559249 180 8358255939394245897
5758199 1 18333171669649674163
59682541 35 17095530621428689753
59755656 520 18186797002211668115
9996256 80 18409727348587500933

> <PUBCHEM_SHAPE_MULTIPOLES>
438.79
20.51
1.43
1.02
3.49
0.11
-0.15
4.68
3.07
-1.54
0.03
0.82
0
-1.14

> <PUBCHEM_SHAPE_SELFOVERLAP>
953.937

> <PUBCHEM_SHAPE_VOLUME>
242.2

> <PUBCHEM_COORDINATE_TYPE>
2
5
10

$$$$
