11941643
  -OEChem-12032416163D

 61 64  0     1  0  0  0  0  0999 V2000
   -1.2905   -3.2708   -0.9454 O   0  0  0  0  0  0  0  0  0  0  0  0
   -1.8707   -1.7931    1.7410 O   0  0  0  0  0  0  0  0  0  0  0  0
    2.8326   -2.1443   -0.3151 O   0  0  0  0  0  0  0  0  0  0  0  0
    8.7346    2.6331   -0.0430 O   0  0  0  0  0  0  0  0  0  0  0  0
   -3.4563   -1.1254   -1.4791 N   0  0  0  0  0  0  0  0  0  0  0  0
    1.1236   -1.3588    1.0293 N   0  0  0  0  0  0  0  0  0  0  0  0
   -4.6575    0.4454   -0.2160 N   0  0  0  0  0  0  0  0  0  0  0  0
    3.0660   -0.1410    0.8862 N   0  0  0  0  0  0  0  0  0  0  0  0
   -4.4228    0.6945   -2.6015 N   0  0  0  0  0  0  0  0  0  0  0  0
   -1.9050   -1.3815    0.3640 C   0  0  1  0  0  0  0  0  0  0  0  0
   -0.7592   -2.0791   -0.3427 C   0  0  1  0  0  0  0  0  0  0  0  0
   -3.1416   -1.9227   -0.3139 C   0  0  2  0  0  0  0  0  0  0  0  0
    0.1981   -2.4353    0.7717 C   0  0  2  0  0  0  0  0  0  0  0  0
   -2.7091   -3.3159   -0.7322 C   0  0  0  0  0  0  0  0  0  0  0  0
   -0.7379   -2.6499    1.9478 C   0  0  0  0  0  0  0  0  0  0  0  0
   -4.2011    0.0396   -1.4308 C   0  0  0  0  0  0  0  0  0  0  0  0
    2.3987   -1.2910    0.4552 C   0  0  0  0  0  0  0  0  0  0  0  0
   -5.8883    2.0450    1.1193 C   0  0  0  0  0  0  0  0  0  0  0  0
   -5.3796    1.5850   -0.2055 C   0  0  0  0  0  0  0  0  0  0  0  0
   -5.6611    2.3248   -1.3359 C   0  0  0  0  0  0  0  0  0  0  0  0
   -5.1522    1.8265   -2.5177 C   0  0  0  0  0  0  0  0  0  0  0  0
   -5.5118    1.1351    2.3353 C   0  0  0  0  0  0  0  0  0  0  0  0
   -5.3396    3.4614    1.4751 C   0  0  0  0  0  0  0  0  0  0  0  0
   -7.4461    2.1277    1.1290 C   0  0  0  0  0  0  0  0  0  0  0  0
    4.3673    0.2897    0.5375 C   0  0  0  0  0  0  0  0  0  0  0  0
    5.1249   -0.4759   -0.3338 C   0  0  0  0  0  0  0  0  0  0  0  0
    4.8577    1.4686    1.0749 C   0  0  0  0  0  0  0  0  0  0  0  0
    6.4084   -0.0508   -0.6771 C   0  0  0  0  0  0  0  0  0  0  0  0
    6.1411    1.8937    0.7315 C   0  0  0  0  0  0  0  0  0  0  0  0
    6.9164    1.1340   -0.1445 C   0  0  0  0  0  0  0  0  0  0  0  0
    8.2539    1.5781   -0.5029 C   0  0  0  0  0  0  0  0  0  0  0  0
    9.1070    0.7533   -1.4607 C   0  0  0  0  0  0  0  0  0  0  0  0
   -1.8110   -0.2909    0.3496 H   0  0  0  0  0  0  0  0  0  0  0  0
   -0.3180   -1.4755   -1.1425 H   0  0  0  0  0  0  0  0  0  0  0  0
   -4.0107   -2.0002    0.3495 H   0  0  0  0  0  0  0  0  0  0  0  0
    0.7688   -3.3469    0.5645 H   0  0  0  0  0  0  0  0  0  0  0  0
   -3.2000   -3.6807   -1.6398 H   0  0  0  0  0  0  0  0  0  0  0  0
   -2.8922   -4.0390    0.0703 H   0  0  0  0  0  0  0  0  0  0  0  0
   -0.2864   -2.4265    2.9192 H   0  0  0  0  0  0  0  0  0  0  0  0
   -1.1100   -3.6801    1.9693 H   0  0  0  0  0  0  0  0  0  0  0  0
   -3.0771   -1.3902   -2.3812 H   0  0  0  0  0  0  0  0  0  0  0  0
    0.8119   -0.5803    1.6024 H   0  0  0  0  0  0  0  0  0  0  0  0
    2.5617    0.4638    1.5298 H   0  0  0  0  0  0  0  0  0  0  0  0
   -6.2402    3.2388   -1.3271 H   0  0  0  0  0  0  0  0  0  0  0  0
   -5.3216    2.3392   -3.4586 H   0  0  0  0  0  0  0  0  0  0  0  0
   -4.4236    1.0574    2.4440 H   0  0  0  0  0  0  0  0  0  0  0  0
   -5.9146    1.5288    3.2755 H   0  0  0  0  0  0  0  0  0  0  0  0
   -5.9053    0.1205    2.2019 H   0  0  0  0  0  0  0  0  0  0  0  0
   -4.2432    3.4617    1.4876 H   0  0  0  0  0  0  0  0  0  0  0  0
   -5.6877    3.7872    2.4622 H   0  0  0  0  0  0  0  0  0  0  0  0
   -5.6622    4.2191    0.7526 H   0  0  0  0  0  0  0  0  0  0  0  0
   -7.8887    1.1537    0.8889 H   0  0  0  0  0  0  0  0  0  0  0  0
   -7.8224    2.8512    0.3975 H   0  0  0  0  0  0  0  0  0  0  0  0
   -7.8227    2.4357    2.1112 H   0  0  0  0  0  0  0  0  0  0  0  0
    4.8029   -1.4018   -0.7868 H   0  0  0  0  0  0  0  0  0  0  0  0
    4.2619    2.0677    1.7581 H   0  0  0  0  0  0  0  0  0  0  0  0
    6.9786   -0.6709   -1.3620 H   0  0  0  0  0  0  0  0  0  0  0  0
    6.5146    2.8203    1.1595 H   0  0  0  0  0  0  0  0  0  0  0  0
    8.6188    0.6818   -2.4361 H   0  0  0  0  0  0  0  0  0  0  0  0
    9.2980   -0.2372   -1.0397 H   0  0  0  0  0  0  0  0  0  0  0  0
   10.0712    1.2523   -1.6013 H   0  0  0  0  0  0  0  0  0  0  0  0
  1 11  1  0  0  0  0
  1 14  1  0  0  0  0
  2 10  1  0  0  0  0
  2 15  1  0  0  0  0
  3 17  2  0  0  0  0
  4 31  2  0  0  0  0
  5 12  1  0  0  0  0
  5 16  1  0  0  0  0
  5 41  1  0  0  0  0
  6 13  1  0  0  0  0
  6 17  1  0  0  0  0
  6 42  1  0  0  0  0
  7 16  1  0  0  0  0
  7 19  2  0  0  0  0
  8 17  1  0  0  0  0
  8 25  1  0  0  0  0
  8 43  1  0  0  0  0
  9 16  2  0  0  0  0
  9 21  1  0  0  0  0
 10 11  1  0  0  0  0
 10 12  1  0  0  0  0
 10 33  1  0  0  0  0
 11 13  1  0  0  0  0
 11 34  1  0  0  0  0
 12 14  1  0  0  0  0
 12 35  1  0  0  0  0
 13 15  1  0  0  0  0
 13 36  1  0  0  0  0
 14 37  1  0  0  0  0
 14 38  1  0  0  0  0
 15 39  1  0  0  0  0
 15 40  1  0  0  0  0
 18 19  1  0  0  0  0
 18 22  1  0  0  0  0
 18 23  1  0  0  0  0
 18 24  1  0  0  0  0
 19 20  1  0  0  0  0
 20 21  2  0  0  0  0
 20 44  1  0  0  0  0
 21 45  1  0  0  0  0
 22 46  1  0  0  0  0
 22 47  1  0  0  0  0
 22 48  1  0  0  0  0
 23 49  1  0  0  0  0
 23 50  1  0  0  0  0
 23 51  1  0  0  0  0
 24 52  1  0  0  0  0
 24 53  1  0  0  0  0
 24 54  1  0  0  0  0
 25 26  2  0  0  0  0
 25 27  1  0  0  0  0
 26 28  1  0  0  0  0
 26 55  1  0  0  0  0
 27 29  2  0  0  0  0
 27 56  1  0  0  0  0
 28 30  2  0  0  0  0
 28 57  1  0  0  0  0
 29 30  1  0  0  0  0
 29 58  1  0  0  0  0
 30 31  1  0  0  0  0
 31 32  1  0  0  0  0
 32 59  1  0  0  0  0
 32 60  1  0  0  0  0
 32 61  1  0  0  0  0
M  END
> <PUBCHEM_COMPOUND_CID>
11941643

> <PUBCHEM_CONFORMER_RMSD>
1

> <PUBCHEM_CONFORMER_DIVERSEORDER>
1
7
93
42
88
77
98
27
89
105
90
82
101
65
67
104
137
5
47
141
15
96
24
38
17
69
112
136
33
142
117
51
57
97
80
56
128
143
72
102
74
86
116
60
70
123
95
111
20
59
23
131
9
91
21
134
50
79
43
83
66
45
39
84
120
132
78
58
40
76
87
31
22
16
34
75
119
140
81
29
103
110
92
113
130
129
135
6
61
122
63
125
138
52
115
14
44
26
108
94
71
106
10
12
28
37
48
133
13
114
85
73
2
55
118
49
109
100
126
3
32
139
99
124
107
4
8
11
127
64
18
46
41
121
36
19
30
25
53
54
35
62
68

> <PUBCHEM_MMFF94_PARTIAL_CHARGES>
38
1 -0.56
10 0.28
11 0.28
12 0.37
13 0.3
14 0.28
15 0.28
16 0.72
17 0.69
18 0.14
19 0.17
2 -0.56
20 -0.15
21 0.16
25 0.12
26 -0.15
27 -0.15
28 -0.15
29 -0.15
3 -0.57
30 0.09
31 0.42
32 0.06
4 -0.57
41 0.4
42 0.37
43 0.37
44 0.15
45 0.15
5 -0.87
55 0.15
56 0.15
57 0.15
58 0.15
6 -0.73
7 -0.62
8 -0.55
9 -0.62

> <PUBCHEM_EFFECTIVE_ROTOR_COUNT>
9.2

> <PUBCHEM_PHARMACOPHORE_FEATURES>
14
1 1 acceptor
1 2 acceptor
1 3 acceptor
1 4 acceptor
1 5 donor
1 6 donor
1 7 acceptor
1 8 donor
4 18 22 23 24 hydrophobe
4 5 7 9 16 cation
5 1 10 11 12 14 rings
5 2 10 11 13 15 rings
6 25 26 27 28 29 30 rings
6 7 9 16 19 20 21 rings

> <PUBCHEM_HEAVY_ATOM_COUNT>
32

> <PUBCHEM_ATOM_DEF_STEREO_COUNT>
4

> <PUBCHEM_ATOM_UDEF_STEREO_COUNT>
0

> <PUBCHEM_BOND_DEF_STEREO_COUNT>
0

> <PUBCHEM_BOND_UDEF_STEREO_COUNT>
0

> <PUBCHEM_ISOTOPIC_ATOM_COUNT>
0

> <PUBCHEM_COMPONENT_COUNT>
1

> <PUBCHEM_CACTVS_TAUTO_COUNT>
48

> <PUBCHEM_CONFORMER_ID>
00B6370B00000001

> <PUBCHEM_MMFF94_ENERGY>
100.4998

> <PUBCHEM_FEATURE_SELFOVERLAP>
71.805

> <PUBCHEM_SHAPE_FINGERPRINT>
10 15 17312822662828372609
10049733 167 16734412580437554907
10055352 69 18272649044511629993
10369192 42 18413114948756597063
11135609 201 18186519891396042707
11181472 205 18334577972105362124
11211813 128 8358262549786751480
11273773 118 18334298677531738538
11273773 42 18201433663141969117
11393246 34 10519991460753941194
11410812 94 16200155349031357440
11607047 74 11249770202660255815
1200032 147 18334016069105707394
12120059 9 12678636175138841820
12218070 45 13551485773317176041
12390115 104 18335697252317744651
13627167 48 18198902513769833341
13690498 29 17487605558260552879
14118638 360 18335692875593420643
14150022 121 18042135400513038339
14664723 55 18410577301204398860
14747282 140 18335980883732555421
14765038 42 18411420575172907605
14848178 5 10519686917930123791
15064981 194 18191592062788461359
15183329 4 18131626768588135090
15350500 16 12757443782454536489
15510800 12 10951756487358680277
15519825 34 14346089641224511177
15530120 55 16341990295387818228
15604295 49 18198058287120730512
16120349 67 17917157108975124953
16126227 98 18410296908585352577
17852330 134 17845384262958861270
17899979 129 18272375213933225358
190975 80 8574712391481709774
19304152 47 17240758446251483749
19438510 23 18335703827495775170
20105231 36 12252173054128706184
21033648 29 18040443196088376970
21095123 145 8358262549812676872
21223535 225 17918268723525991576
21307412 95 12751227109145584813
21401589 2 18113897148381457187
21756936 100 17967531302594721971
22864921 47 11887687135184705052
23389318 12 12319731493508076704
25269216 80 17131822193384437685
2838139 119 18341887442330360523
3610482 184 17203037484089889631
38570 142 17917711245935359411
397830 11 11746932101782087494
4098825 35 17846781789213749343
42767 24 10447933875538387656
44880568 143 18267871760825028420
474113 269 11025805318930331777
4756326 101 14563908298626214663
50009960 94 11814524514823821260
5718773 13 9727630605420817476
57634706 229 18334306369718049739
5937810 71 18338520845834080980
6289498 60 17895181265088859708
636775 72 18115582807408314668
636783 161 15911940314850773062
6376802 90 18271534190570154574
6431902 208 9871750217181457293
6691757 9 15936688280876324762
6712543 237 13118275920109648761
9511036 111 13262978372007098049
9953998 17 12685084878700370493

> <PUBCHEM_SHAPE_MULTIPOLES>
610.16
25.58
3.97
2
43.43
1.19
0.39
-28.88
4.03
-3.97
-0.61
-3.72
-0.56
-0.99

> <PUBCHEM_SHAPE_SELFOVERLAP>
1306.986

> <PUBCHEM_SHAPE_VOLUME>
336.9

> <PUBCHEM_COORDINATE_TYPE>
2
5
10

$$$$
