56775832
  -OEChem-12032416323D

 51 54  0     0  0  0  0  0  0999 V2000
   -6.3726    3.4998    0.6151 F   0  0  0  0  0  0  0  0  0  0  0  0
   -1.9902   -3.6793    1.7224 O   0  0  0  0  0  0  0  0  0  0  0  0
    2.8063   -1.5639   -0.5688 O   0  0  0  0  0  0  0  0  0  0  0  0
    3.0859    1.5548   -2.0392 O   0  0  0  0  0  0  0  0  0  0  0  0
   -1.8958   -0.9635    0.3922 N   0  0  0  0  0  0  0  0  0  0  0  0
    4.3666    0.7870   -0.2401 N   0  0  0  0  0  0  0  0  0  0  0  0
    1.7598   -2.4779   -0.5460 N   0  0  0  0  0  0  0  0  0  0  0  0
   -1.4162   -2.3220    0.1783 C   0  0  0  0  0  0  0  0  0  0  0  0
   -0.8316   -2.8479    1.4843 C   0  0  0  0  0  0  0  0  0  0  0  0
   -2.5586   -3.2943    0.4500 C   0  0  0  0  0  0  0  0  0  0  0  0
   -0.6043   -2.4727   -1.1151 C   0  0  0  0  0  0  0  0  0  0  0  0
    0.7015   -1.8030   -1.0036 C   0  0  0  0  0  0  0  0  0  0  0  0
   -2.6822   -0.5299   -0.7602 C   0  0  0  0  0  0  0  0  0  0  0  0
    5.9325    1.8183    1.9550 C   0  0  0  0  0  0  0  0  0  0  0  0
    4.5544    1.1949    2.1776 C   0  0  0  0  0  0  0  0  0  0  0  0
    6.0536    2.3980    0.5455 C   0  0  0  0  0  0  0  0  0  0  0  0
    4.2194    0.1831    1.0845 C   0  0  0  0  0  0  0  0  0  0  0  0
    5.6936    1.3563   -0.5104 C   0  0  0  0  0  0  0  0  0  0  0  0
    1.0165   -0.4721   -1.3278 C   0  0  0  0  0  0  0  0  0  0  0  0
    2.3513   -0.3733   -1.0362 C   0  0  0  0  0  0  0  0  0  0  0  0
    3.3016    0.7410   -1.1424 C   0  0  0  0  0  0  0  0  0  0  0  0
   -3.6681    0.5471   -0.3929 C   0  0  0  0  0  0  0  0  0  0  0  0
   -4.9534    0.2021    0.0254 C   0  0  0  0  0  0  0  0  0  0  0  0
   -3.2967    1.8892   -0.4706 C   0  0  0  0  0  0  0  0  0  0  0  0
   -5.8672    1.1995    0.3657 C   0  0  0  0  0  0  0  0  0  0  0  0
   -4.2104    2.8866   -0.1304 C   0  0  0  0  0  0  0  0  0  0  0  0
   -5.4957    2.5418    0.2878 C   0  0  0  0  0  0  0  0  0  0  0  0
    0.0626   -3.4733    1.4002 H   0  0  0  0  0  0  0  0  0  0  0  0
   -0.6799   -2.1291    2.2967 H   0  0  0  0  0  0  0  0  0  0  0  0
   -3.5680   -2.8910    0.5801 H   0  0  0  0  0  0  0  0  0  0  0  0
   -2.6129   -4.1565   -0.2235 H   0  0  0  0  0  0  0  0  0  0  0  0
   -1.1456   -2.1334   -2.0046 H   0  0  0  0  0  0  0  0  0  0  0  0
   -0.4308   -3.5433   -1.2963 H   0  0  0  0  0  0  0  0  0  0  0  0
   -1.1715   -0.2754    0.5940 H   0  0  0  0  0  0  0  0  0  0  0  0
   -3.2518   -1.3494   -1.2188 H   0  0  0  0  0  0  0  0  0  0  0  0
   -2.0296   -0.1435   -1.5525 H   0  0  0  0  0  0  0  0  0  0  0  0
    6.7062    1.0550    2.1032 H   0  0  0  0  0  0  0  0  0  0  0  0
    6.1093    2.6046    2.6971 H   0  0  0  0  0  0  0  0  0  0  0  0
    4.5191    0.7102    3.1595 H   0  0  0  0  0  0  0  0  0  0  0  0
    3.7992    1.9910    2.1810 H   0  0  0  0  0  0  0  0  0  0  0  0
    5.3794    3.2586    0.4530 H   0  0  0  0  0  0  0  0  0  0  0  0
    7.0725    2.7634    0.3776 H   0  0  0  0  0  0  0  0  0  0  0  0
    3.1989   -0.1560    1.2785 H   0  0  0  0  0  0  0  0  0  0  0  0
    4.8891   -0.6830    1.1370 H   0  0  0  0  0  0  0  0  0  0  0  0
    6.4150    0.5313   -0.5092 H   0  0  0  0  0  0  0  0  0  0  0  0
    5.6949    1.8048   -1.5091 H   0  0  0  0  0  0  0  0  0  0  0  0
    0.3738    0.3033   -1.7173 H   0  0  0  0  0  0  0  0  0  0  0  0
   -5.2552   -0.8397    0.0918 H   0  0  0  0  0  0  0  0  0  0  0  0
   -2.2977    2.1707   -0.7931 H   0  0  0  0  0  0  0  0  0  0  0  0
   -6.8678    0.9315    0.6918 H   0  0  0  0  0  0  0  0  0  0  0  0
   -3.9214    3.9317   -0.1903 H   0  0  0  0  0  0  0  0  0  0  0  0
  1 27  1  0  0  0  0
  2  9  1  0  0  0  0
  2 10  1  0  0  0  0
  3  7  1  0  0  0  0
  3 20  1  0  0  0  0
  4 21  2  0  0  0  0
  5  8  1  0  0  0  0
  5 13  1  0  0  0  0
  5 34  1  0  0  0  0
  6 17  1  0  0  0  0
  6 18  1  0  0  0  0
  6 21  1  0  0  0  0
  7 12  2  0  0  0  0
  8  9  1  0  0  0  0
  8 10  1  0  0  0  0
  8 11  1  0  0  0  0
  9 28  1  0  0  0  0
  9 29  1  0  0  0  0
 10 30  1  0  0  0  0
 10 31  1  0  0  0  0
 11 12  1  0  0  0  0
 11 32  1  0  0  0  0
 11 33  1  0  0  0  0
 12 19  1  0  0  0  0
 13 22  1  0  0  0  0
 13 35  1  0  0  0  0
 13 36  1  0  0  0  0
 14 15  1  0  0  0  0
 14 16  1  0  0  0  0
 14 37  1  0  0  0  0
 14 38  1  0  0  0  0
 15 17  1  0  0  0  0
 15 39  1  0  0  0  0
 15 40  1  0  0  0  0
 16 18  1  0  0  0  0
 16 41  1  0  0  0  0
 16 42  1  0  0  0  0
 17 43  1  0  0  0  0
 17 44  1  0  0  0  0
 18 45  1  0  0  0  0
 18 46  1  0  0  0  0
 19 20  2  0  0  0  0
 19 47  1  0  0  0  0
 20 21  1  0  0  0  0
 22 23  2  0  0  0  0
 22 24  1  0  0  0  0
 23 25  1  0  0  0  0
 23 48  1  0  0  0  0
 24 26  2  0  0  0  0
 24 49  1  0  0  0  0
 25 27  2  0  0  0  0
 25 50  1  0  0  0  0
 26 27  1  0  0  0  0
 26 51  1  0  0  0  0
M  END
> <PUBCHEM_COMPOUND_CID>
56775832

> <PUBCHEM_CONFORMER_RMSD>
1

> <PUBCHEM_CONFORMER_DIVERSEORDER>
1
97
98
107
88
38
51
57
91
29
120
41
22
116
73
58
71
61
124
4
20
80
66
128
55
86
21
18
113
127
5
40
75
72
23
65
102
123
83
27
28
7
36
34
82
125
24
48
53
87
119
43
12
62
46
37
101
109
3
81
17
100
108
111
64
118
19
31
105
117
126
78
70
60
50
42
49
68
30
84
77
69
25
121
44
85
32
95
103
47
16
89
94
63
115
14
106
45
74
122
26
110
67
39
56
92
54
59
96
114
6
79
11
33
35
76
104
93
129
112
8
10
2
90
9
52
99
15
13

> <PUBCHEM_MMFF94_PARTIAL_CHARGES>
30
1 -0.19
10 0.26
11 0.18
12 0.11
13 0.41
17 0.3
18 0.3
19 -0.15
2 -0.52
20 0.05
21 0.71
22 -0.14
23 -0.15
24 -0.15
25 -0.15
26 -0.15
27 0.19
3 -0.02
34 0.36
4 -0.57
47 0.15
48 0.15
49 0.15
5 -0.84
50 0.15
51 0.15
6 -0.66
7 -0.41
8 0.21
9 0.26

> <PUBCHEM_EFFECTIVE_ROTOR_COUNT>
9

> <PUBCHEM_PHARMACOPHORE_FEATURES>
9
1 2 acceptor
1 4 acceptor
1 5 cation
1 5 donor
1 7 acceptor
4 2 8 9 10 rings
5 3 7 12 19 20 rings
6 22 23 24 25 26 27 rings
6 6 14 15 16 17 18 rings

> <PUBCHEM_HEAVY_ATOM_COUNT>
27

> <PUBCHEM_ATOM_DEF_STEREO_COUNT>
0

> <PUBCHEM_ATOM_UDEF_STEREO_COUNT>
0

> <PUBCHEM_BOND_DEF_STEREO_COUNT>
0

> <PUBCHEM_BOND_UDEF_STEREO_COUNT>
0

> <PUBCHEM_ISOTOPIC_ATOM_COUNT>
0

> <PUBCHEM_COMPONENT_COUNT>
1

> <PUBCHEM_CACTVS_TAUTO_COUNT>
1

> <PUBCHEM_CONFORMER_ID>
0362549800000001

> <PUBCHEM_MMFF94_ENERGY>
59.3301

> <PUBCHEM_FEATURE_SELFOVERLAP>
45.672

> <PUBCHEM_SHAPE_FINGERPRINT>
10042902 136 8862935104630926713
10074138 170 18114750455346344091
10692045 39 18263636269534842002
11578080 2 18272936046188071098
11720765 8 17484250651888948566
12107183 9 18187354395157540154
12403259 118 18191868036217592110
12623949 98 11098439004661731049
12633257 1 17676482886835911022
12788726 201 17681291158522090435
12895837 130 17916581076129956957
12988421 55 18114449107270760527
13103583 49 17531515603472006114
13402501 40 18060133271381963200
13540713 4 18269577025238492742
13726171 33 18048058516496171556
14028597 1 17677320753747478699
14347329 18 18342455989217246192
14395042 24 18115597097075432787
14429114 114 18126849300910277433
14565420 104 18191027803434055993
14739800 52 18339346526851323634
14849402 71 18045508503822226938
14950920 106 16805892925499992817
14951699 99 18265892639684508876
15338160 23 18192429890801859364
15484559 13 15398584842063542554
16067690 210 18191286364270418520
19246450 95 17463095021905443080
19438510 23 18343582923619947859
21033648 29 18335712615388914625
21401589 2 18411704283679831211
23522609 53 17387144246752221284
23559900 14 18337119994805416590
23929065 36 18196080261006051499
2748736 6 18341885277751823957
2838139 119 18059845164927559974
3246875 12 18411422800535250329
3459 39 18337655460640494649
376196 1 18270400465058207847
508706 21 17914885667917428354
5104073 3 18260268529627104675
5372103 7 15624783185947687842
56633871 153 12396593948358283833
6086070 43 17132110278215582710
6371009 1 18262230123206899989
7288768 16 18335419054469275983
7808743 9 18410853282711670105
9849439 229 18337950078755116817
9981440 41 18411701010498786587

> <PUBCHEM_SHAPE_MULTIPOLES>
515.82
15.35
4.35
1.64
4.03
1.36
-0.38
-18.92
-4.57
-5.25
-1.32
2.14
0.18
1.31

> <PUBCHEM_SHAPE_SELFOVERLAP>
1101.192

> <PUBCHEM_SHAPE_VOLUME>
287.6

> <PUBCHEM_COORDINATE_TYPE>
2
5
10

$$$$
