75536918
  -OEChem-12032416303D

 45 47  0     1  0  0  0  0  0999 V2000
    3.2701   -2.0626   -1.3125 O   0  0  0  0  0  0  0  0  0  0  0  0
    2.4028    0.7769    0.8601 O   0  0  0  0  0  0  0  0  0  0  0  0
   -4.5963    0.9149   -0.1585 O   0  0  0  0  0  0  0  0  0  0  0  0
    0.7377   -2.3988    0.0140 N   0  0  1  0  0  0  0  0  0  0  0  0
   -2.9623   -0.4641   -1.0606 N   0  0  0  0  0  0  0  0  0  0  0  0
    1.3186   -1.3600    0.8640 C   0  0  0  0  0  0  0  0  0  0  0  0
    2.1115   -0.3467    0.0282 C   0  0  2  0  0  0  0  0  0  0  0  0
    1.6293   -3.5319   -0.2573 C   0  0  0  0  0  0  0  0  0  0  0  0
    3.4209   -0.8632   -0.5628 C   0  0  0  0  0  0  0  0  0  0  0  0
   -0.5352   -2.8810    0.5513 C   0  0  0  0  0  0  0  0  0  0  0  0
    3.1038   -3.2028   -0.4782 C   0  0  0  0  0  0  0  0  0  0  0  0
   -1.6315   -1.8608    0.3965 C   0  0  0  0  0  0  0  0  0  0  0  0
    1.8579    1.9737    0.4838 C   0  0  0  0  0  0  0  0  0  0  0  0
   -2.3175   -1.3724    1.5031 C   0  0  0  0  0  0  0  0  0  0  0  0
   -1.9888   -1.3788   -0.8525 C   0  0  0  0  0  0  0  0  0  0  0  0
   -3.3255   -0.4306    1.3292 C   0  0  0  0  0  0  0  0  0  0  0  0
    0.4729    2.1110    0.3907 C   0  0  0  0  0  0  0  0  0  0  0  0
    2.6873    3.0567    0.1931 C   0  0  0  0  0  0  0  0  0  0  0  0
   -3.6070   -0.0126    0.0385 C   0  0  0  0  0  0  0  0  0  0  0  0
   -0.0827    3.3315    0.0069 C   0  0  0  0  0  0  0  0  0  0  0  0
    2.1318    4.2772   -0.1907 C   0  0  0  0  0  0  0  0  0  0  0  0
    0.7468    4.4147   -0.2839 C   0  0  0  0  0  0  0  0  0  0  0  0
   -4.8448    1.3097   -1.5026 C   0  0  0  0  0  0  0  0  0  0  0  0
    0.5448   -0.7991    1.4008 H   0  0  0  0  0  0  0  0  0  0  0  0
    1.9395   -1.7846    1.6645 H   0  0  0  0  0  0  0  0  0  0  0  0
    1.4771   -0.0505   -0.8211 H   0  0  0  0  0  0  0  0  0  0  0  0
    1.2567   -4.0218   -1.1661 H   0  0  0  0  0  0  0  0  0  0  0  0
    1.5765   -4.2766    0.5480 H   0  0  0  0  0  0  0  0  0  0  0  0
    3.8203   -0.1028   -1.2447 H   0  0  0  0  0  0  0  0  0  0  0  0
    4.1895   -0.9841    0.2117 H   0  0  0  0  0  0  0  0  0  0  0  0
   -0.8691   -3.7738    0.0043 H   0  0  0  0  0  0  0  0  0  0  0  0
   -0.4262   -3.1897    1.5997 H   0  0  0  0  0  0  0  0  0  0  0  0
    3.6339   -3.0829    0.4747 H   0  0  0  0  0  0  0  0  0  0  0  0
    3.5762   -4.0486   -0.9904 H   0  0  0  0  0  0  0  0  0  0  0  0
   -2.0760   -1.7163    2.5049 H   0  0  0  0  0  0  0  0  0  0  0  0
   -1.4945   -1.7231   -1.7557 H   0  0  0  0  0  0  0  0  0  0  0  0
   -3.8696   -0.0395    2.1819 H   0  0  0  0  0  0  0  0  0  0  0  0
   -0.1908    1.2836    0.6216 H   0  0  0  0  0  0  0  0  0  0  0  0
    3.7668    2.9551    0.2635 H   0  0  0  0  0  0  0  0  0  0  0  0
   -1.1613    3.4386   -0.0640 H   0  0  0  0  0  0  0  0  0  0  0  0
    2.7776    5.1205   -0.4172 H   0  0  0  0  0  0  0  0  0  0  0  0
    0.3142    5.3651   -0.5825 H   0  0  0  0  0  0  0  0  0  0  0  0
   -5.6536    2.0464   -1.4928 H   0  0  0  0  0  0  0  0  0  0  0  0
   -5.1718    0.4578   -2.1082 H   0  0  0  0  0  0  0  0  0  0  0  0
   -3.9612    1.7848   -1.9419 H   0  0  0  0  0  0  0  0  0  0  0  0
  1  9  1  0  0  0  0
  1 11  1  0  0  0  0
  2  7  1  0  0  0  0
  2 13  1  0  0  0  0
  3 19  1  0  0  0  0
  3 23  1  0  0  0  0
  4  6  1  0  0  0  0
  4  8  1  0  0  0  0
  4 10  1  0  0  0  0
  5 15  1  0  0  0  0
  5 19  2  0  0  0  0
  6  7  1  0  0  0  0
  6 24  1  0  0  0  0
  6 25  1  0  0  0  0
  7  9  1  0  0  0  0
  7 26  1  0  0  0  0
  8 11  1  0  0  0  0
  8 27  1  0  0  0  0
  8 28  1  0  0  0  0
  9 29  1  0  0  0  0
  9 30  1  0  0  0  0
 10 12  1  0  0  0  0
 10 31  1  0  0  0  0
 10 32  1  0  0  0  0
 11 33  1  0  0  0  0
 11 34  1  0  0  0  0
 12 14  1  0  0  0  0
 12 15  2  0  0  0  0
 13 17  2  0  0  0  0
 13 18  1  0  0  0  0
 14 16  2  0  0  0  0
 14 35  1  0  0  0  0
 15 36  1  0  0  0  0
 16 19  1  0  0  0  0
 16 37  1  0  0  0  0
 17 20  1  0  0  0  0
 17 38  1  0  0  0  0
 18 21  2  0  0  0  0
 18 39  1  0  0  0  0
 20 22  2  0  0  0  0
 20 40  1  0  0  0  0
 21 22  1  0  0  0  0
 21 41  1  0  0  0  0
 22 42  1  0  0  0  0
 23 43  1  0  0  0  0
 23 44  1  0  0  0  0
 23 45  1  0  0  0  0
M  END
> <PUBCHEM_COMPOUND_CID>
75536918

> <PUBCHEM_CONFORMER_RMSD>
0.8

> <PUBCHEM_CONFORMER_DIVERSEORDER>
8
232
82
33
214
185
136
168
212
2
102
225
93
119
123
200
160
157
177
234
20
194
213
176
154
243
23
38
19
11
131
144
1
201
145
181
171
230
227
39
15
218
189
74
114
169
117
231
133
50
165
65
197
206
204
208
91
41
244
187
44
179
37
161
107
115
35
63
25
111
53
193
199
203
150
143
139
246
159
80
245
210
124
236
58
221
211
88
151
247
209
141
64
92
90
202
106
87
196
71
233
70
237
109
182
97
52
186
226
7
45
198
219
207
120
172
10
220
118
173
69
135
178
61
48
224
27
129
116
16
235
31
125
142
127
128
78
54
95
42
60
191
55
46
156
66
241
223
22
4
166
217
56
57
158
40
228
122
222
216
192
77
3
21
205
86
104
132
148
152
51
137
84
83
17
108
146
73
101
121
153
183
110
94
239
162
34
79
29
89
67
96
9
130
188
26
238
76
105
75
195
85
174
100
215
32
138
24
28
18
140
43
72
229
81
99
167
49
163
14
113
147
149
190
6
103
98
12
13
180
164
170
5
112
59
36
240
155
175
242
126
30
184
47
68
134
62

> <PUBCHEM_MMFF94_PARTIAL_CHARGES>
31
1 -0.56
10 0.41
11 0.28
12 -0.14
13 0.08
14 -0.15
15 0.16
16 -0.15
17 -0.15
18 -0.15
19 0.39
2 -0.36
20 -0.15
21 -0.15
22 -0.15
23 0.28
3 -0.36
35 0.15
36 0.15
37 0.15
38 0.15
39 0.15
4 -0.81
40 0.15
41 0.15
42 0.15
5 -0.62
6 0.27
7 0.28
8 0.27
9 0.28

> <PUBCHEM_EFFECTIVE_ROTOR_COUNT>
6.4

> <PUBCHEM_PHARMACOPHORE_FEATURES>
6
1 1 acceptor
1 2 acceptor
1 4 cation
6 13 17 18 20 21 22 rings
6 5 12 14 15 16 19 rings
7 1 4 6 7 8 9 11 rings

> <PUBCHEM_HEAVY_ATOM_COUNT>
23

> <PUBCHEM_ATOM_DEF_STEREO_COUNT>
1

> <PUBCHEM_ATOM_UDEF_STEREO_COUNT>
0

> <PUBCHEM_BOND_DEF_STEREO_COUNT>
0

> <PUBCHEM_BOND_UDEF_STEREO_COUNT>
0

> <PUBCHEM_ISOTOPIC_ATOM_COUNT>
0

> <PUBCHEM_COMPONENT_COUNT>
1

> <PUBCHEM_CACTVS_TAUTO_COUNT>
1

> <PUBCHEM_CONFORMER_ID>
04809A1600000008

> <PUBCHEM_MMFF94_ENERGY>
81.3972

> <PUBCHEM_FEATURE_SELFOVERLAP>
30.447

> <PUBCHEM_SHAPE_FINGERPRINT>
104564 63 17907023880590469294
11221954 11 18046059621219167721
12100795 323 17972589155072558845
12422481 6 18050261934030535600
12553582 1 18265907856024917736
12788726 201 18047760287052142066
13761468 95 16743391375903338764
138480 1 18411139099815966392
14251751 93 17329146283243314992
14363568 33 18265357099520826249
15081414 286 18340494373966935488
151778 21 18121515797293629313
15210252 30 18042412330844507396
17093844 170 18411971451994352504
17138139 8 16826673347283431756
18785283 64 18193576651090428875
19930381 70 18266457792675824755
20621476 13 18409724075769979117
21860390 5 18342448240483931630
238 59 17832663067379378509
3014063 31 18122620548770859325
3524813 1 17968653796713558543
463206 1 16898473629830759572
474 4 18269270325844369147
5081480 168 17985298289491512396
5939293 188 18409721863867018610
6287921 2 17903094552381506927
6438718 38 17410772458620262983
7164475 11 17691409607703383534
7226269 152 18261111829966966322
9862522 239 17618493728801558280

> <PUBCHEM_SHAPE_MULTIPOLES>
445.76
7.07
6.03
1.15
6.94
2.71
0.01
2.16
1.53
-6.05
0.83
0.83
-0.21
1.59

> <PUBCHEM_SHAPE_SELFOVERLAP>
938.927

> <PUBCHEM_SHAPE_VOLUME>
248.2

> <PUBCHEM_COORDINATE_TYPE>
2
5
10

$$$$
