75536178
  -OEChem-12032416343D

 64 67  0     1  0  0  0  0  0999 V2000
   -1.7571    2.4850    1.8828 O   0  0  0  0  0  0  0  0  0  0  0  0
   -1.1717    1.7795   -2.2249 O   0  0  0  0  0  0  0  0  0  0  0  0
   -4.9406    2.8785    0.2240 O   0  0  0  0  0  0  0  0  0  0  0  0
    4.6315   -1.8493   -0.6843 O   0  0  0  0  0  0  0  0  0  0  0  0
   -3.1965    1.4203   -0.2747 N   0  0  0  0  0  0  0  0  0  0  0  0
    4.5878    0.4105   -0.0357 N   0  0  0  0  0  0  0  0  0  0  0  0
    7.3118   -2.0223    0.4335 N   0  0  0  0  0  0  0  0  0  0  0  0
    8.6282   -1.8245    0.6182 N   0  0  0  0  0  0  0  0  0  0  0  0
   -1.8023    1.0378   -0.0189 C   0  0  1  0  0  0  0  0  0  0  0  0
   -0.8455    1.9029   -0.8446 C   0  0  1  0  0  0  0  0  0  0  0  0
   -1.4959    1.1489    1.4699 C   0  0  0  0  0  0  0  0  0  0  0  0
   -3.8325    0.8852   -1.4710 C   0  0  0  0  0  0  0  0  0  0  0  0
   -3.8402    2.3914    0.4897 C   0  0  0  0  0  0  0  0  0  0  0  0
   -5.1632    0.1976   -1.1722 C   0  0  0  0  0  0  0  0  0  0  0  0
    0.5934    1.5078   -0.6304 C   0  0  0  0  0  0  0  0  0  0  0  0
   -3.1309    2.7862    1.7802 C   0  0  0  0  0  0  0  0  0  0  0  0
   -5.0582   -1.0069   -0.2274 C   0  0  0  0  0  0  0  0  0  0  0  0
    1.0090    0.2069   -0.9142 C   0  0  0  0  0  0  0  0  0  0  0  0
    1.5091    2.4430   -0.1482 C   0  0  0  0  0  0  0  0  0  0  0  0
   -6.3739   -1.6974    0.0291 C   0  0  0  0  0  0  0  0  0  0  0  0
    2.3403   -0.1588   -0.7161 C   0  0  0  0  0  0  0  0  0  0  0  0
    2.8406    2.0774    0.0500 C   0  0  0  0  0  0  0  0  0  0  0  0
    3.2561    0.7764   -0.2340 C   0  0  0  0  0  0  0  0  0  0  0  0
   -7.1788   -1.2922    1.0938 C   0  0  0  0  0  0  0  0  0  0  0  0
   -6.7860   -2.7417   -0.7986 C   0  0  0  0  0  0  0  0  0  0  0  0
   -8.3958   -1.9312    1.3309 C   0  0  0  0  0  0  0  0  0  0  0  0
   -8.0029   -3.3809   -0.5616 C   0  0  0  0  0  0  0  0  0  0  0  0
   -8.8078   -2.9756    0.5033 C   0  0  0  0  0  0  0  0  0  0  0  0
    5.1825   -0.8379   -0.2633 C   0  0  0  0  0  0  0  0  0  0  0  0
    6.6403   -0.9099    0.0184 C   0  0  0  0  0  0  0  0  0  0  0  0
    7.5829    0.0848   -0.0746 C   0  0  0  0  0  0  0  0  0  0  0  0
    8.7879   -0.5356    0.3062 C   0  0  0  0  0  0  0  0  0  0  0  0
    6.7531   -3.3316    0.6793 C   0  0  0  0  0  0  0  0  0  0  0  0
   10.1253    0.0757    0.3852 C   0  0  0  0  0  0  0  0  0  0  0  0
   -1.7172   -0.0196   -0.2988 H   0  0  0  0  0  0  0  0  0  0  0  0
   -0.9867    2.9622   -0.5988 H   0  0  0  0  0  0  0  0  0  0  0  0
   -2.1221    0.4612    2.0535 H   0  0  0  0  0  0  0  0  0  0  0  0
   -0.4574    0.9073    1.7122 H   0  0  0  0  0  0  0  0  0  0  0  0
   -4.0050    1.7215   -2.1583 H   0  0  0  0  0  0  0  0  0  0  0  0
   -3.1688    0.1688   -1.9662 H   0  0  0  0  0  0  0  0  0  0  0  0
   -5.8944    0.9079   -0.7717 H   0  0  0  0  0  0  0  0  0  0  0  0
   -5.5852   -0.1420   -2.1276 H   0  0  0  0  0  0  0  0  0  0  0  0
   -3.2382    3.8690    1.9027 H   0  0  0  0  0  0  0  0  0  0  0  0
   -3.6606    2.3046    2.6106 H   0  0  0  0  0  0  0  0  0  0  0  0
   -4.3446   -1.7333   -0.6382 H   0  0  0  0  0  0  0  0  0  0  0  0
   -4.6325   -0.6937    0.7345 H   0  0  0  0  0  0  0  0  0  0  0  0
   -1.0318    0.8581   -2.5003 H   0  0  0  0  0  0  0  0  0  0  0  0
    0.3151   -0.5368   -1.2961 H   0  0  0  0  0  0  0  0  0  0  0  0
    1.1997    3.4597    0.0786 H   0  0  0  0  0  0  0  0  0  0  0  0
    2.5841   -1.1831   -0.9600 H   0  0  0  0  0  0  0  0  0  0  0  0
    3.5433    2.8163    0.4265 H   0  0  0  0  0  0  0  0  0  0  0  0
   -6.8692   -0.4782    1.7441 H   0  0  0  0  0  0  0  0  0  0  0  0
   -6.1685   -3.0651   -1.6323 H   0  0  0  0  0  0  0  0  0  0  0  0
    5.1863    1.1509    0.3232 H   0  0  0  0  0  0  0  0  0  0  0  0
   -9.0228   -1.6153    2.1595 H   0  0  0  0  0  0  0  0  0  0  0  0
   -8.3241   -4.1938   -1.2063 H   0  0  0  0  0  0  0  0  0  0  0  0
   -9.7555   -3.4732    0.6876 H   0  0  0  0  0  0  0  0  0  0  0  0
    7.4289    1.1105   -0.3783 H   0  0  0  0  0  0  0  0  0  0  0  0
    6.5103   -3.7882   -0.2831 H   0  0  0  0  0  0  0  0  0  0  0  0
    7.4887   -3.9460    1.2058 H   0  0  0  0  0  0  0  0  0  0  0  0
    5.8612   -3.2254    1.3015 H   0  0  0  0  0  0  0  0  0  0  0  0
   10.0977    1.1330    0.1019 H   0  0  0  0  0  0  0  0  0  0  0  0
   10.5202    0.0123    1.4044 H   0  0  0  0  0  0  0  0  0  0  0  0
   10.8238   -0.4332   -0.2871 H   0  0  0  0  0  0  0  0  0  0  0  0
  1 11  1  0  0  0  0
  1 16  1  0  0  0  0
  2 10  1  0  0  0  0
  2 47  1  0  0  0  0
  3 13  2  0  0  0  0
  4 29  2  0  0  0  0
  5  9  1  0  0  0  0
  5 12  1  0  0  0  0
  5 13  1  0  0  0  0
  6 23  1  0  0  0  0
  6 29  1  0  0  0  0
  6 54  1  0  0  0  0
  7  8  1  0  0  0  0
  7 30  1  0  0  0  0
  7 33  1  0  0  0  0
  8 32  2  0  0  0  0
  9 10  1  0  0  0  0
  9 11  1  0  0  0  0
  9 35  1  0  0  0  0
 10 15  1  0  0  0  0
 10 36  1  0  0  0  0
 11 37  1  0  0  0  0
 11 38  1  0  0  0  0
 12 14  1  0  0  0  0
 12 39  1  0  0  0  0
 12 40  1  0  0  0  0
 13 16  1  0  0  0  0
 14 17  1  0  0  0  0
 14 41  1  0  0  0  0
 14 42  1  0  0  0  0
 15 18  2  0  0  0  0
 15 19  1  0  0  0  0
 16 43  1  0  0  0  0
 16 44  1  0  0  0  0
 17 20  1  0  0  0  0
 17 45  1  0  0  0  0
 17 46  1  0  0  0  0
 18 21  1  0  0  0  0
 18 48  1  0  0  0  0
 19 22  2  0  0  0  0
 19 49  1  0  0  0  0
 20 24  2  0  0  0  0
 20 25  1  0  0  0  0
 21 23  2  0  0  0  0
 21 50  1  0  0  0  0
 22 23  1  0  0  0  0
 22 51  1  0  0  0  0
 24 26  1  0  0  0  0
 24 52  1  0  0  0  0
 25 27  2  0  0  0  0
 25 53  1  0  0  0  0
 26 28  2  0  0  0  0
 26 55  1  0  0  0  0
 27 28  1  0  0  0  0
 27 56  1  0  0  0  0
 28 57  1  0  0  0  0
 29 30  1  0  0  0  0
 30 31  2  0  0  0  0
 31 32  1  0  0  0  0
 31 58  1  0  0  0  0
 32 34  1  0  0  0  0
 33 59  1  0  0  0  0
 33 60  1  0  0  0  0
 33 61  1  0  0  0  0
 34 62  1  0  0  0  0
 34 63  1  0  0  0  0
 34 64  1  0  0  0  0
M  END
> <PUBCHEM_COMPOUND_CID>
75536178

> <PUBCHEM_CONFORMER_RMSD>
1.2

> <PUBCHEM_CONFORMER_DIVERSEORDER>
1
107
83
73
67
51
11
66
69
84
55
62
85
4
48
64
94
77
20
104
88
68
92
81
35
29
56
19
111
102
57
82
40
33
15
8
110
34
80
21
72
53
96
99
58
37
65
25
18
106
30
54
7
49
50
43
63
90
97
103
91
93
101
61
44
45
32
6
86
27
14
78
95
9
52
100
98
2
108
39
70
71
31
74
46
47
60
76
26
87
28
23
109
41
12
42
24
22
5
3
89
75
16
59
105
17
38
36
13
79
10

> <PUBCHEM_MMFF94_PARTIAL_CHARGES>
45
1 -0.56
10 0.42
11 0.28
12 0.3
13 0.57
15 -0.14
16 0.34
17 0.14
18 -0.15
19 -0.15
2 -0.68
20 -0.14
21 -0.15
22 -0.15
23 0.12
24 -0.15
25 -0.15
26 -0.15
27 -0.15
28 -0.15
29 0.71
3 -0.57
30 -0.24
31 -0.15
32 0.11
33 0.26
34 0.18
4 -0.57
47 0.4
48 0.15
49 0.15
5 -0.66
50 0.15
51 0.15
52 0.15
53 0.15
54 0.37
55 0.15
56 0.15
57 0.15
58 0.15
6 -0.55
7 0.31
8 -0.71
9 0.3

> <PUBCHEM_EFFECTIVE_ROTOR_COUNT>
10

> <PUBCHEM_PHARMACOPHORE_FEATURES>
11
1 1 acceptor
1 2 acceptor
1 2 donor
1 3 acceptor
1 4 acceptor
1 6 donor
1 8 acceptor
5 7 8 30 31 32 rings
6 1 5 9 11 13 16 rings
6 15 18 19 21 22 23 rings
6 20 24 25 26 27 28 rings

> <PUBCHEM_HEAVY_ATOM_COUNT>
34

> <PUBCHEM_ATOM_DEF_STEREO_COUNT>
2

> <PUBCHEM_ATOM_UDEF_STEREO_COUNT>
0

> <PUBCHEM_BOND_DEF_STEREO_COUNT>
0

> <PUBCHEM_BOND_UDEF_STEREO_COUNT>
0

> <PUBCHEM_ISOTOPIC_ATOM_COUNT>
0

> <PUBCHEM_COMPONENT_COUNT>
1

> <PUBCHEM_CACTVS_TAUTO_COUNT>
4

> <PUBCHEM_CONFORMER_ID>
0480973200000001

> <PUBCHEM_MMFF94_ENERGY>
89.7573

> <PUBCHEM_FEATURE_SELFOVERLAP>
55.825

> <PUBCHEM_SHAPE_FINGERPRINT>
10100884 174 18338797926642834987
10190206 1 13045933586998922423
11135609 99 18339079405539401566
11386260 185 15647339688387383558
11409948 8 18340758352423308408
12013929 94 18411702106542965810
12120059 9 16732977610346848226
13530399 1 12679170666428516106
14068700 675 18412549842523812905
15347590 135 17775290451758291934
15347591 1 18410856577242866829
15350500 55 10087650294921161195
15510800 12 18041283261446940283
16728433 281 11458690704676203647
17686467 74 18342167878505871000
2026 5 18259982652193234866
20691028 202 10231455420808044778
20721686 146 9583257032645724027
21033648 29 12535355640393945485
21033650 10 16153980245578734253
21130935 74 18268990891752798466
21585482 111 10519717682644234907
23389318 12 17676494969238375726
23569943 247 17828758444625169266
23576562 1 11314607462350693435
3383291 50 18410855477340660658
406291 66 18408321112044925979
4173938 188 18410567410654034042
44280117 145 18259983738867284444
4461854 278 17632296804640729118
44802255 64 11602824592997448745
44880568 143 16805594880782262845
4760202 70 18188219788460675340
54039377 194 18409448120264191343
5718773 13 18407759248554388479
57527295 17 16805869703113431249
58083652 198 17346023563750132065
6691757 9 16128363883651026221
6698420 124 12103554295735623532
9962374 69 18337386162180612622

> <PUBCHEM_SHAPE_MULTIPOLES>
656.3
31.52
3.91
1.33
27.2
0.88
-0.08
35.22
-6.38
-5.31
-0.76
-1.77
-0.59
-1.08

> <PUBCHEM_SHAPE_SELFOVERLAP>
1403.635

> <PUBCHEM_SHAPE_VOLUME>
360.5

> <PUBCHEM_COORDINATE_TYPE>
2
5
10

$$$$
