11884149
  -OEChem-12032416283D

 49 52  0     1  0  0  0  0  0999 V2000
   -1.1633    1.1440    1.1685 O   0  0  0  0  0  0  0  0  0  0  0  0
   -2.6607    3.1983   -0.5466 O   0  0  0  0  0  0  0  0  0  0  0  0
    0.8253    2.4123   -0.2954 O   0  0  0  0  0  0  0  0  0  0  0  0
   -6.0805    0.6303   -0.1582 O   0  0  0  0  0  0  0  0  0  0  0  0
    1.2597    0.3392   -1.1575 O   0  0  0  0  0  0  0  0  0  0  0  0
   -4.7124   -2.5814    0.3153 O   0  0  0  0  0  0  0  0  0  0  0  0
    8.3880   -1.6157    0.6595 O   0  0  0  0  0  0  0  0  0  0  0  0
   -4.0044   -0.0229    0.5776 N   0  0  0  0  0  0  0  0  0  0  0  0
    2.8678    1.5250    0.0625 N   0  0  0  0  0  0  0  0  0  0  0  0
   -2.7337    1.7581   -0.4988 C   0  0  1  0  0  0  0  0  0  0  0  0
   -1.3252    1.2546   -0.2554 C   0  0  1  0  0  0  0  0  0  0  0  0
   -3.4935    1.3175    0.7306 C   0  0  2  0  0  0  0  0  0  0  0  0
   -0.4781    2.3643   -0.8303 C   0  0  1  0  0  0  0  0  0  0  0  0
   -2.4260    1.3823    1.8094 C   0  0  0  0  0  0  0  0  0  0  0  0
   -1.2831    3.5951   -0.4790 C   0  0  0  0  0  0  0  0  0  0  0  0
   -5.3006   -0.2792    0.1306 C   0  0  0  0  0  0  0  0  0  0  0  0
    1.6340    1.3181   -0.5234 C   0  0  0  0  0  0  0  0  0  0  0  0
   -5.6633   -1.6970   -0.0048 C   0  0  0  0  0  0  0  0  0  0  0  0
   -6.8170   -2.2609   -0.4052 C   0  0  0  0  0  0  0  0  0  0  0  0
    3.9846    0.6586    0.0686 C   0  0  0  0  0  0  0  0  0  0  0  0
   -6.5780   -3.6540   -0.3336 C   0  0  0  0  0  0  0  0  0  0  0  0
   -5.2840   -3.7971    0.1100 C   0  0  0  0  0  0  0  0  0  0  0  0
    3.8985   -0.5660   -0.5744 C   0  0  0  0  0  0  0  0  0  0  0  0
    5.1443    1.0511    0.7178 C   0  0  0  0  0  0  0  0  0  0  0  0
    5.0008   -1.4207   -0.5677 C   0  0  0  0  0  0  0  0  0  0  0  0
    6.2468    0.1965    0.7243 C   0  0  0  0  0  0  0  0  0  0  0  0
    6.1749   -1.0394    0.0815 C   0  0  0  0  0  0  0  0  0  0  0  0
    7.3248   -1.9296    0.0878 C   0  0  0  0  0  0  0  0  0  0  0  0
    7.2541   -3.2817   -0.6137 C   0  0  0  0  0  0  0  0  0  0  0  0
   -3.1591    1.4160   -1.4477 H   0  0  0  0  0  0  0  0  0  0  0  0
   -1.1498    0.2665   -0.6888 H   0  0  0  0  0  0  0  0  0  0  0  0
   -4.3231    1.9883    0.9787 H   0  0  0  0  0  0  0  0  0  0  0  0
   -0.4332    2.2767   -1.9243 H   0  0  0  0  0  0  0  0  0  0  0  0
   -2.5667    0.6556    2.6153 H   0  0  0  0  0  0  0  0  0  0  0  0
   -2.3783    2.3831    2.2528 H   0  0  0  0  0  0  0  0  0  0  0  0
   -1.0683    3.9588    0.5321 H   0  0  0  0  0  0  0  0  0  0  0  0
   -1.1047    4.4209   -1.1742 H   0  0  0  0  0  0  0  0  0  0  0  0
   -3.3798   -0.8049    0.7554 H   0  0  0  0  0  0  0  0  0  0  0  0
    2.9901    2.4090    0.5505 H   0  0  0  0  0  0  0  0  0  0  0  0
   -7.7264   -1.7659   -0.7137 H   0  0  0  0  0  0  0  0  0  0  0  0
   -7.2631   -4.4538   -0.5749 H   0  0  0  0  0  0  0  0  0  0  0  0
   -4.6554   -4.6503    0.3196 H   0  0  0  0  0  0  0  0  0  0  0  0
    3.0252   -0.9290   -1.0967 H   0  0  0  0  0  0  0  0  0  0  0  0
    5.2106    2.0115    1.2216 H   0  0  0  0  0  0  0  0  0  0  0  0
    4.9035   -2.3731   -1.0796 H   0  0  0  0  0  0  0  0  0  0  0  0
    7.1503    0.5160    1.2368 H   0  0  0  0  0  0  0  0  0  0  0  0
    8.2129   -3.7968   -0.4953 H   0  0  0  0  0  0  0  0  0  0  0  0
    6.4787   -3.9035   -0.1590 H   0  0  0  0  0  0  0  0  0  0  0  0
    7.0751   -3.1439   -1.6832 H   0  0  0  0  0  0  0  0  0  0  0  0
  1 11  1  0  0  0  0
  1 14  1  0  0  0  0
  2 10  1  0  0  0  0
  2 15  1  0  0  0  0
  3 13  1  0  0  0  0
  3 17  1  0  0  0  0
  4 16  2  0  0  0  0
  5 17  2  0  0  0  0
  6 18  1  0  0  0  0
  6 22  1  0  0  0  0
  7 28  2  0  0  0  0
  8 12  1  0  0  0  0
  8 16  1  0  0  0  0
  8 38  1  0  0  0  0
  9 17  1  0  0  0  0
  9 20  1  0  0  0  0
  9 39  1  0  0  0  0
 10 11  1  0  0  0  0
 10 12  1  0  0  0  0
 10 30  1  0  0  0  0
 11 13  1  0  0  0  0
 11 31  1  0  0  0  0
 12 14  1  0  0  0  0
 12 32  1  0  0  0  0
 13 15  1  0  0  0  0
 13 33  1  0  0  0  0
 14 34  1  0  0  0  0
 14 35  1  0  0  0  0
 15 36  1  0  0  0  0
 15 37  1  0  0  0  0
 16 18  1  0  0  0  0
 18 19  2  0  0  0  0
 19 21  1  0  0  0  0
 19 40  1  0  0  0  0
 20 23  2  0  0  0  0
 20 24  1  0  0  0  0
 21 22  2  0  0  0  0
 21 41  1  0  0  0  0
 22 42  1  0  0  0  0
 23 25  1  0  0  0  0
 23 43  1  0  0  0  0
 24 26  2  0  0  0  0
 24 44  1  0  0  0  0
 25 27  2  0  0  0  0
 25 45  1  0  0  0  0
 26 27  1  0  0  0  0
 26 46  1  0  0  0  0
 27 28  1  0  0  0  0
 28 29  1  0  0  0  0
 29 47  1  0  0  0  0
 29 48  1  0  0  0  0
 29 49  1  0  0  0  0
M  END
> <PUBCHEM_COMPOUND_CID>
11884149

> <PUBCHEM_CONFORMER_RMSD>
1

> <PUBCHEM_CONFORMER_DIVERSEORDER>
1
22
7
56
55
10
40
14
9
33
34
39
36
59
17
30
35
12
24
50
47
57
29
38
48
37
51
25
32
5
16
43
49
21
15
11
54
27
2
44
3
20
8
41
26
13
52
28
31
53
46
19
58
6
4
42
45
18
23

> <PUBCHEM_MMFF94_PARTIAL_CHARGES>
38
1 -0.56
10 0.28
11 0.28
12 0.3
13 0.28
14 0.28
15 0.28
16 0.71
17 0.78
18 0.05
19 -0.15
2 -0.56
20 0.12
21 -0.15
22 -0.01
23 -0.15
24 -0.15
25 -0.15
26 -0.15
27 0.09
28 0.42
29 0.06
3 -0.43
38 0.37
39 0.37
4 -0.57
40 0.15
41 0.15
42 0.15
43 0.15
44 0.15
45 0.15
46 0.15
5 -0.57
6 -0.28
7 -0.57
8 -0.73
9 -0.55

> <PUBCHEM_EFFECTIVE_ROTOR_COUNT>
9.2

> <PUBCHEM_PHARMACOPHORE_FEATURES>
12
1 1 acceptor
1 2 acceptor
1 4 acceptor
1 5 acceptor
1 6 acceptor
1 7 acceptor
1 8 donor
1 9 donor
5 1 10 11 12 14 rings
5 2 10 11 13 15 rings
5 6 18 19 21 22 rings
6 20 23 24 25 26 27 rings

> <PUBCHEM_HEAVY_ATOM_COUNT>
29

> <PUBCHEM_ATOM_DEF_STEREO_COUNT>
4

> <PUBCHEM_ATOM_UDEF_STEREO_COUNT>
0

> <PUBCHEM_BOND_DEF_STEREO_COUNT>
0

> <PUBCHEM_BOND_UDEF_STEREO_COUNT>
0

> <PUBCHEM_ISOTOPIC_ATOM_COUNT>
0

> <PUBCHEM_COMPONENT_COUNT>
1

> <PUBCHEM_CACTVS_TAUTO_COUNT>
18

> <PUBCHEM_CONFORMER_ID>
00B5567500000001

> <PUBCHEM_MMFF94_ENERGY>
74.082

> <PUBCHEM_FEATURE_SELFOVERLAP>
61.617

> <PUBCHEM_SHAPE_FINGERPRINT>
10100884 174 18333728044473402866
10622 236 17697589258621071175
10669705 251 18201444653779280918
10939801 23 18056761159792941964
11135609 201 10375879563292940653
11135609 99 18342175596361167790
11393246 34 18410577245401108322
11410812 94 16443887419711517212
11463208 1 18055925295055794550
11497681 19 18408326614282933628
11761917 116 18338525235269396598
12522641 126 18115035229285420436
12522641 68 17465083952557049749
12645989 146 18408610240789942980
12988421 55 12607122868150543229
13248334 5 17905046211850841149
1361 4 18338517576593348102
13782708 43 18341332219592654626
13885169 86 10159703516561380867
13944108 23 8068102521210021543
14068700 675 18333450949671788973
14178184 131 18202277047962717335
14211702 104 18342747333464398063
14344974 204 18413109442313819950
14556957 393 15502951705511194926
14671636 106 18411139152336937758
15064981 113 14201661053790465282
15152005 304 18265345064997167267
15183329 4 14273453669404328205
15188451 53 18412824702649241041
15274700 208 16700327767258074976
15419008 145 18338226086629304754
15728490 51 18340485685865410460
15803439 3 17100839969753296181
16126227 98 9439405739891773919
16992779 147 16557325254626535336
16994733 274 10303809874326843030
17627616 140 17677321715403395827
19301676 85 18262517134307654627
19438510 23 11527952256990473612
20028762 73 18410857676801499582
2026 5 18340201994950222439
20691028 202 10159692504381096698
208703 8 18336822091251698571
20982279 24 17387984312655376467
21130935 74 18271525283318879706
21197605 99 18343302587596365998
21298829 104 9799690411446569970
21756936 100 9223227434539809281
229767 44 18059574745255543143
23389318 12 18113623417752598622
23522609 53 18048916032112348396
23559900 14 18340480192834841497
23569943 247 18126006208190497811
24983565 74 18118111473604668842
255183 313 17132109177844340303
270888 7 9511471013083034365
2748736 6 9871476374329898531
312425 54 17917162589063322225
32027 91 18196085763180352201
3504750 166 18339647741920102713
3627633 1 18409164377218564845
392239 28 16271924965121496293
397830 11 18341602716965766408
406291 66 18338234968099303267
4280585 95 18408886244157770751
5718773 13 18410291427959260302
5719381 36 18115861915758182618
5874358 3 16806427151746062426
636775 8 18270127799966659446
6376802 137 18060147578281504059
7288768 16 11887963155220464821
7970288 3 18337389447973155135
8863177 126 18412263926671925576
96874 4 18341610490376725407
9689198 14 8935009195706842755

> <PUBCHEM_SHAPE_MULTIPOLES>
545.76
22.99
4.55
0.99
19.42
1.97
-0.2
28.19
-1.4
-5.27
0.78
-0.02
-0.33
0.21

> <PUBCHEM_SHAPE_SELFOVERLAP>
1189.865

> <PUBCHEM_SHAPE_VOLUME>
297.1

> <PUBCHEM_COORDINATE_TYPE>
2
5
10

$$$$
