25314254
  -OEChem-12032416193D

 59 62  0     1  0  0  0  0  0999 V2000
    0.7694   -1.3071   -1.3767 O   0  0  0  0  0  0  0  0  0  0  0  0
    0.3326   -3.5466   -0.9630 O   0  0  0  0  0  0  0  0  0  0  0  0
    0.0574   -3.1707    1.8715 O   0  0  0  0  0  0  0  0  0  0  0  0
   -5.6615    2.1815    1.0832 O   0  0  0  0  0  0  0  0  0  0  0  0
   -1.6717   -0.5780   -0.0143 N   0  0  0  0  0  0  0  0  0  0  0  0
    1.5143    0.0836    1.0723 N   0  0  0  0  0  0  0  0  0  0  0  0
   -3.9035    1.2169   -0.0889 N   0  0  0  0  0  0  0  0  0  0  0  0
   -1.0131   -1.8747    0.1495 C   0  0  2  0  0  0  0  0  0  0  0  0
    1.4006   -1.3742    0.9561 C   0  0  1  0  0  0  0  0  0  0  0  0
   -0.0254   -1.8406    1.3388 C   0  0  2  0  0  0  0  0  0  0  0  0
    1.7881   -1.7743   -0.4860 C   0  0  1  0  0  0  0  0  0  0  0  0
   -0.2784   -2.2591   -1.1484 C   0  0  1  0  0  0  0  0  0  0  0  0
    1.7253   -3.2670   -0.7556 C   0  0  0  0  0  0  0  0  0  0  0  0
    3.1218    1.9463    0.8990 C   0  0  0  0  0  0  0  0  0  0  0  0
    2.9015    0.4737    1.2561 C   0  0  0  0  0  0  0  0  0  0  0  0
   -2.6236   -0.6202   -1.1341 C   0  0  0  0  0  0  0  0  0  0  0  0
   -2.3549   -0.1854    1.2268 C   0  0  0  0  0  0  0  0  0  0  0  0
    4.5864    2.3642    1.0961 C   0  0  0  0  0  0  0  0  0  0  0  0
    2.6525    2.2594   -0.5294 C   0  0  0  0  0  0  0  0  0  0  0  0
   -3.2949    0.7398   -1.3342 C   0  0  0  0  0  0  0  0  0  0  0  0
   -3.0148    1.1843    1.0715 C   0  0  0  0  0  0  0  0  0  0  0  0
    5.5184    1.8053    0.0224 C   0  0  0  0  0  0  0  0  0  0  0  0
    3.5852    1.7003   -1.6024 C   0  0  0  0  0  0  0  0  0  0  0  0
    5.0278    2.1444   -1.3816 C   0  0  0  0  0  0  0  0  0  0  0  0
   -5.1707    1.7871    0.0225 C   0  0  0  0  0  0  0  0  0  0  0  0
   -5.9684    1.9113   -1.2512 C   0  0  0  0  0  0  0  0  0  0  0  0
   -1.7624   -2.6541    0.3525 H   0  0  0  0  0  0  0  0  0  0  0  0
    2.1075   -1.8490    1.6506 H   0  0  0  0  0  0  0  0  0  0  0  0
   -0.3594   -1.2851    2.2109 H   0  0  0  0  0  0  0  0  0  0  0  0
    2.7608   -1.3848   -0.7919 H   0  0  0  0  0  0  0  0  0  0  0  0
   -0.9100   -2.3451   -2.0332 H   0  0  0  0  0  0  0  0  0  0  0  0
    2.2436   -3.5188   -1.6872 H   0  0  0  0  0  0  0  0  0  0  0  0
    2.1281   -3.8844    0.0518 H   0  0  0  0  0  0  0  0  0  0  0  0
    0.9660    0.4271    1.8598 H   0  0  0  0  0  0  0  0  0  0  0  0
    2.5121    2.5469    1.5886 H   0  0  0  0  0  0  0  0  0  0  0  0
    3.1818    0.3101    2.3050 H   0  0  0  0  0  0  0  0  0  0  0  0
    3.5855   -0.1434    0.6673 H   0  0  0  0  0  0  0  0  0  0  0  0
   -2.1374   -0.8301   -2.0892 H   0  0  0  0  0  0  0  0  0  0  0  0
   -3.3902   -1.3881   -0.9660 H   0  0  0  0  0  0  0  0  0  0  0  0
   -3.1108   -0.9304    1.5081 H   0  0  0  0  0  0  0  0  0  0  0  0
   -1.6869   -0.0449    2.0756 H   0  0  0  0  0  0  0  0  0  0  0  0
    4.9398    2.0560    2.0871 H   0  0  0  0  0  0  0  0  0  0  0  0
    4.6448    3.4603    1.0730 H   0  0  0  0  0  0  0  0  0  0  0  0
    2.6163    3.3513   -0.6450 H   0  0  0  0  0  0  0  0  0  0  0  0
    1.6300    1.9110   -0.7107 H   0  0  0  0  0  0  0  0  0  0  0  0
   -2.5575    1.4925   -1.6394 H   0  0  0  0  0  0  0  0  0  0  0  0
   -4.0310    0.6609   -2.1371 H   0  0  0  0  0  0  0  0  0  0  0  0
   -3.5629    1.4386    1.9847 H   0  0  0  0  0  0  0  0  0  0  0  0
   -2.2566    1.9628    0.9192 H   0  0  0  0  0  0  0  0  0  0  0  0
    0.6444   -3.1453    2.6465 H   0  0  0  0  0  0  0  0  0  0  0  0
    5.6096    0.7184    0.1289 H   0  0  0  0  0  0  0  0  0  0  0  0
    6.5245    2.2167    0.1651 H   0  0  0  0  0  0  0  0  0  0  0  0
    3.2482    2.0387   -2.5890 H   0  0  0  0  0  0  0  0  0  0  0  0
    3.5370    0.6073   -1.6150 H   0  0  0  0  0  0  0  0  0  0  0  0
    5.1024    3.2274   -1.5403 H   0  0  0  0  0  0  0  0  0  0  0  0
    5.6781    1.6691   -2.1247 H   0  0  0  0  0  0  0  0  0  0  0  0
   -6.2179    0.9190   -1.6358 H   0  0  0  0  0  0  0  0  0  0  0  0
   -5.4096    2.4825   -1.9972 H   0  0  0  0  0  0  0  0  0  0  0  0
   -6.9017    2.4445   -1.0453 H   0  0  0  0  0  0  0  0  0  0  0  0
  1 11  1  0  0  0  0
  1 12  1  0  0  0  0
  2 12  1  0  0  0  0
  2 13  1  0  0  0  0
  3 10  1  0  0  0  0
  3 50  1  0  0  0  0
  4 25  2  0  0  0  0
  5  8  1  0  0  0  0
  5 16  1  0  0  0  0
  5 17  1  0  0  0  0
  6  9  1  0  0  0  0
  6 15  1  0  0  0  0
  6 34  1  0  0  0  0
  7 20  1  0  0  0  0
  7 21  1  0  0  0  0
  7 25  1  0  0  0  0
  8 10  1  0  0  0  0
  8 12  1  0  0  0  0
  8 27  1  0  0  0  0
  9 10  1  0  0  0  0
  9 11  1  0  0  0  0
  9 28  1  0  0  0  0
 10 29  1  0  0  0  0
 11 13  1  0  0  0  0
 11 30  1  0  0  0  0
 12 31  1  0  0  0  0
 13 32  1  0  0  0  0
 13 33  1  0  0  0  0
 14 15  1  0  0  0  0
 14 18  1  0  0  0  0
 14 19  1  0  0  0  0
 14 35  1  0  0  0  0
 15 36  1  0  0  0  0
 15 37  1  0  0  0  0
 16 20  1  0  0  0  0
 16 38  1  0  0  0  0
 16 39  1  0  0  0  0
 17 21  1  0  0  0  0
 17 40  1  0  0  0  0
 17 41  1  0  0  0  0
 18 22  1  0  0  0  0
 18 42  1  0  0  0  0
 18 43  1  0  0  0  0
 19 23  1  0  0  0  0
 19 44  1  0  0  0  0
 19 45  1  0  0  0  0
 20 46  1  0  0  0  0
 20 47  1  0  0  0  0
 21 48  1  0  0  0  0
 21 49  1  0  0  0  0
 22 24  1  0  0  0  0
 22 51  1  0  0  0  0
 22 52  1  0  0  0  0
 23 24  1  0  0  0  0
 23 53  1  0  0  0  0
 23 54  1  0  0  0  0
 24 55  1  0  0  0  0
 24 56  1  0  0  0  0
 25 26  1  0  0  0  0
 26 57  1  0  0  0  0
 26 58  1  0  0  0  0
 26 59  1  0  0  0  0
M  END
> <PUBCHEM_COMPOUND_CID>
25314254

> <PUBCHEM_CONFORMER_RMSD>
1

> <PUBCHEM_CONFORMER_DIVERSEORDER>
11
45
18
24
77
6
82
14
27
21
17
78
85
2
33
34
23
46
44
56
81
13
25
80
41
79
57
74
40
63
64
16
60
3
31
58
47
26
28
5
37
72
83
1
62
12
7
84
71
52
54
59
87
65
55
53
10
69
36
42
50
48
73
8
32
68
51
4
75
76
70
20
9
67
66
88
49
22
43
30
39
15
61
89
29
35
86
38
19

> <PUBCHEM_MMFF94_PARTIAL_CHARGES>
22
1 -0.56
10 0.28
11 0.28
12 0.56
13 0.28
15 0.27
16 0.27
17 0.27
2 -0.56
20 0.3
21 0.3
25 0.57
26 0.06
3 -0.68
34 0.36
4 -0.57
5 -0.81
50 0.4
6 -0.9
7 -0.66
8 0.27
9 0.27

> <PUBCHEM_EFFECTIVE_ROTOR_COUNT>
8.6

> <PUBCHEM_PHARMACOPHORE_FEATURES>
11
1 1 acceptor
1 2 acceptor
1 3 acceptor
1 3 donor
1 4 acceptor
1 5 cation
1 6 cation
1 6 donor
6 14 18 19 22 23 24 rings
6 5 7 16 17 20 21 rings
8 1 2 8 9 10 11 12 13 rings

> <PUBCHEM_HEAVY_ATOM_COUNT>
26

> <PUBCHEM_ATOM_DEF_STEREO_COUNT>
5

> <PUBCHEM_ATOM_UDEF_STEREO_COUNT>
0

> <PUBCHEM_BOND_DEF_STEREO_COUNT>
0

> <PUBCHEM_BOND_UDEF_STEREO_COUNT>
0

> <PUBCHEM_ISOTOPIC_ATOM_COUNT>
0

> <PUBCHEM_COMPONENT_COUNT>
1

> <PUBCHEM_CACTVS_TAUTO_COUNT>
1

> <PUBCHEM_CONFORMER_ID>
018243CE0000000B

> <PUBCHEM_MMFF94_ENERGY>
60.9389

> <PUBCHEM_FEATURE_SELFOVERLAP>
55.87

> <PUBCHEM_SHAPE_FINGERPRINT>
10498660 4 18201719586924232489
105312 117 18340209712541307076
10730089 43 17749387040387373341
11370993 144 14491562696280359024
11763715 3 16966339362206123838
12633257 1 16443343221184772341
12788726 201 17688029034306193782
13544653 18 9151181947819172030
13828863 39 16009891600231839100
13944108 23 18266458702772295257
14251751 93 18193560193054961142
14251764 38 17836359724642376448
14294032 229 18198348549046101283
14950920 106 14346335927661109988
15052358 14 18200610154750015772
15163728 17 18411141354684379022
15342168 16 18409725141243511637
17980427 26 18189319213140065734
20567600 9 18200603483843235549
21756936 100 18115869779578764520
22907989 373 17760928841313231974
23559900 14 18057318376134458055
2838139 119 18342449378771908472
38570 142 17917447392845811617
392239 28 8934735374878987828
4098825 35 13542468674283526089
46194498 28 18197777692078571677
474 4 18339917126368059635
56616090 278 18190741934125844987
9981440 41 18339920532050824586

> <PUBCHEM_SHAPE_MULTIPOLES>
496.65
11.26
4.09
1.7
5.61
2.69
0.02
-15.81
-1.43
-1.18
-0.38
-0.23
0.11
-0.08

> <PUBCHEM_SHAPE_SELFOVERLAP>
1031.892

> <PUBCHEM_SHAPE_VOLUME>
278.4

> <PUBCHEM_COORDINATE_TYPE>
2
5
10

$$$$
