11866308
  -OEChem-12032416113D

 61 63  0     1  0  0  0  0  0999 V2000
    0.9006    3.6641    1.7019 O   0  0  0  0  0  0  0  0  0  0  0  0
    1.9829    4.6183   -1.6598 O   0  0  0  0  0  0  0  0  0  0  0  0
    4.1343    0.4916   -1.5514 O   0  0  0  0  0  0  0  0  0  0  0  0
   -2.1615    1.2882   -1.4202 O   0  0  0  0  0  0  0  0  0  0  0  0
    5.1174   -0.7634    2.1005 O   0  0  0  0  0  0  0  0  0  0  0  0
   -1.0027    2.1469    0.3867 N   0  0  0  0  0  0  0  0  0  0  0  0
    3.0726   -0.4737    0.2859 N   0  0  0  0  0  0  0  0  0  0  0  0
   -3.0349    1.1419    0.7540 N   0  0  0  0  0  0  0  0  0  0  0  0
    6.1282   -2.2499    0.6704 N   0  0  0  0  0  0  0  0  0  0  0  0
    0.7499    3.8832    0.2976 C   0  0  1  0  0  0  0  0  0  0  0  0
    2.1235    4.2122   -0.3000 C   0  0  1  0  0  0  0  0  0  0  0  0
    0.1336    2.6323   -0.3576 C   0  0  1  0  0  0  0  0  0  0  0  0
    3.0969    3.0250   -0.2019 C   0  0  0  0  0  0  0  0  0  0  0  0
    2.4429    1.6957   -0.4518 C   0  0  0  0  0  0  0  0  0  0  0  0
    1.1172    1.5070   -0.5325 C   0  0  0  0  0  0  0  0  0  0  0  0
    3.3061    0.5263   -0.6419 C   0  0  0  0  0  0  0  0  0  0  0  0
    3.7986   -1.7234    0.2993 C   0  0  2  0  0  0  0  0  0  0  0  0
   -2.0888    1.4971   -0.2116 C   0  0  0  0  0  0  0  0  0  0  0  0
    2.9716   -2.8677    0.8965 C   0  0  0  0  0  0  0  0  0  0  0  0
    5.0615   -1.4990    1.1179 C   0  0  0  0  0  0  0  0  0  0  0  0
    1.6893   -3.1176    0.1407 C   0  0  0  0  0  0  0  0  0  0  0  0
   -4.2660    0.4737    0.5583 C   0  0  0  0  0  0  0  0  0  0  0  0
    1.6709   -4.0205   -0.9223 C   0  0  0  0  0  0  0  0  0  0  0  0
    0.5225   -2.4460    0.5055 C   0  0  0  0  0  0  0  0  0  0  0  0
    0.4857   -4.2517   -1.6206 C   0  0  0  0  0  0  0  0  0  0  0  0
   -0.6628   -2.6772   -0.1926 C   0  0  0  0  0  0  0  0  0  0  0  0
   -4.6546    0.0884   -0.7248 C   0  0  0  0  0  0  0  0  0  0  0  0
   -5.0916    0.2001    1.6489 C   0  0  0  0  0  0  0  0  0  0  0  0
   -0.6811   -3.5801   -1.2556 C   0  0  0  0  0  0  0  0  0  0  0  0
   -5.8688   -0.5706   -0.9172 C   0  0  0  0  0  0  0  0  0  0  0  0
   -6.3058   -0.4589    1.4563 C   0  0  0  0  0  0  0  0  0  0  0  0
   -6.6944   -0.8442    0.1732 C   0  0  0  0  0  0  0  0  0  0  0  0
   -7.9931   -1.5481   -0.0319 C   0  0  0  0  0  0  0  0  0  0  0  0
    0.0603    4.7260    0.1664 H   0  0  0  0  0  0  0  0  0  0  0  0
    2.5625    5.0601    0.2399 H   0  0  0  0  0  0  0  0  0  0  0  0
   -0.2148    2.9031   -1.3628 H   0  0  0  0  0  0  0  0  0  0  0  0
    3.9224    3.1672   -0.9095 H   0  0  0  0  0  0  0  0  0  0  0  0
    3.5282    2.9990    0.8069 H   0  0  0  0  0  0  0  0  0  0  0  0
    0.7166    0.5227   -0.7646 H   0  0  0  0  0  0  0  0  0  0  0  0
   -0.9754    2.2066    1.4001 H   0  0  0  0  0  0  0  0  0  0  0  0
    1.2625    4.4799    2.0879 H   0  0  0  0  0  0  0  0  0  0  0  0
    2.8658    4.8601   -1.9876 H   0  0  0  0  0  0  0  0  0  0  0  0
    4.0775   -1.9617   -0.7351 H   0  0  0  0  0  0  0  0  0  0  0  0
    2.4221   -0.2996    1.0473 H   0  0  0  0  0  0  0  0  0  0  0  0
    3.5673   -3.7899    0.9194 H   0  0  0  0  0  0  0  0  0  0  0  0
    2.7327   -2.6561    1.9480 H   0  0  0  0  0  0  0  0  0  0  0  0
   -2.8206    1.3913    1.7162 H   0  0  0  0  0  0  0  0  0  0  0  0
    2.5741   -4.5480   -1.2170 H   0  0  0  0  0  0  0  0  0  0  0  0
    0.5196   -1.7430    1.3342 H   0  0  0  0  0  0  0  0  0  0  0  0
    7.0284   -2.2048    1.1364 H   0  0  0  0  0  0  0  0  0  0  0  0
    6.0609   -2.8707   -0.1297 H   0  0  0  0  0  0  0  0  0  0  0  0
    0.4715   -4.9540   -2.4489 H   0  0  0  0  0  0  0  0  0  0  0  0
   -1.5712   -2.1535    0.0912 H   0  0  0  0  0  0  0  0  0  0  0  0
   -4.0704    0.2642   -1.6169 H   0  0  0  0  0  0  0  0  0  0  0  0
   -4.8007    0.4952    2.6537 H   0  0  0  0  0  0  0  0  0  0  0  0
   -1.6039   -3.7594   -1.7996 H   0  0  0  0  0  0  0  0  0  0  0  0
   -6.1625   -0.8649   -1.9215 H   0  0  0  0  0  0  0  0  0  0  0  0
   -6.9413   -0.6648    2.3135 H   0  0  0  0  0  0  0  0  0  0  0  0
   -8.7917   -0.8200   -0.2050 H   0  0  0  0  0  0  0  0  0  0  0  0
   -7.9441   -2.2261   -0.8908 H   0  0  0  0  0  0  0  0  0  0  0  0
   -8.2551   -2.1559    0.8409 H   0  0  0  0  0  0  0  0  0  0  0  0
  1 10  1  0  0  0  0
  1 41  1  0  0  0  0
  2 11  1  0  0  0  0
  2 42  1  0  0  0  0
  3 16  2  0  0  0  0
  4 18  2  0  0  0  0
  5 20  2  0  0  0  0
  6 12  1  0  0  0  0
  6 18  1  0  0  0  0
  6 40  1  0  0  0  0
  7 16  1  0  0  0  0
  7 17  1  0  0  0  0
  7 44  1  0  0  0  0
  8 18  1  0  0  0  0
  8 22  1  0  0  0  0
  8 47  1  0  0  0  0
  9 20  1  0  0  0  0
  9 50  1  0  0  0  0
  9 51  1  0  0  0  0
 10 11  1  0  0  0  0
 10 12  1  0  0  0  0
 10 34  1  0  0  0  0
 11 13  1  0  0  0  0
 11 35  1  0  0  0  0
 12 15  1  0  0  0  0
 12 36  1  0  0  0  0
 13 14  1  0  0  0  0
 13 37  1  0  0  0  0
 13 38  1  0  0  0  0
 14 15  2  0  0  0  0
 14 16  1  0  0  0  0
 15 39  1  0  0  0  0
 17 19  1  0  0  0  0
 17 20  1  0  0  0  0
 17 43  1  0  0  0  0
 19 21  1  0  0  0  0
 19 45  1  0  0  0  0
 19 46  1  0  0  0  0
 21 23  2  0  0  0  0
 21 24  1  0  0  0  0
 22 27  2  0  0  0  0
 22 28  1  0  0  0  0
 23 25  1  0  0  0  0
 23 48  1  0  0  0  0
 24 26  2  0  0  0  0
 24 49  1  0  0  0  0
 25 29  2  0  0  0  0
 25 52  1  0  0  0  0
 26 29  1  0  0  0  0
 26 53  1  0  0  0  0
 27 30  1  0  0  0  0
 27 54  1  0  0  0  0
 28 31  2  0  0  0  0
 28 55  1  0  0  0  0
 29 56  1  0  0  0  0
 30 32  2  0  0  0  0
 30 57  1  0  0  0  0
 31 32  1  0  0  0  0
 31 58  1  0  0  0  0
 32 33  1  0  0  0  0
 33 59  1  0  0  0  0
 33 60  1  0  0  0  0
 33 61  1  0  0  0  0
M  END
> <PUBCHEM_COMPOUND_CID>
11866308

> <PUBCHEM_CONFORMER_RMSD>
1.2

> <PUBCHEM_CONFORMER_DIVERSEORDER>
1
41
112
87
48
26
114
84
77
174
147
126
117
57
115
97
165
138
62
9
86
73
50
71
116
173
130
106
53
137
107
162
142
15
155
79
12
89
124
158
64
69
157
30
154
129
110
44
39
10
32
139
55
88
45
128
148
150
81
52
78
4
43
151
96
24
167
108
105
125
35
31
83
140
179
59
16
156
161
58
93
17
76
163
66
146
119
19
47
131
75
133
63
172
113
22
80
65
121
152
40
164
25
14
135
176
33
177
94
8
101
70
109
68
11
159
95
122
136
166
85
92
3
60
134
18
100
46
145
168
169
67
72
23
102
160
28
56
99
61
171
111
5
49
51
13
21
178
127
120
74
103
6
123
82
20
54
36
104
132
91
90
34
42
38
37
153
170
118
7
144
149
141
29
175
143
2
27
98

> <PUBCHEM_MMFF94_PARTIAL_CHARGES>
50
1 -0.68
10 0.28
11 0.28
12 0.44
13 0.14
14 -0.12
15 -0.29
16 0.62
17 0.36
18 0.69
19 0.14
2 -0.68
20 0.57
21 -0.14
22 0.12
23 -0.15
24 -0.15
25 -0.15
26 -0.15
27 -0.15
28 -0.15
29 -0.15
3 -0.57
30 -0.15
31 -0.15
32 -0.14
33 0.14
39 0.15
4 -0.57
40 0.37
41 0.4
42 0.4
44 0.37
47 0.37
48 0.15
49 0.15
5 -0.57
50 0.37
51 0.37
52 0.15
53 0.15
54 0.15
55 0.15
56 0.15
57 0.15
58 0.15
6 -0.73
7 -0.73
8 -0.55
9 -0.8

> <PUBCHEM_EFFECTIVE_ROTOR_COUNT>
10.8

> <PUBCHEM_PHARMACOPHORE_FEATURES>
14
1 1 acceptor
1 1 donor
1 2 acceptor
1 2 donor
1 3 acceptor
1 4 acceptor
1 5 acceptor
1 6 donor
1 7 donor
1 8 donor
1 9 donor
6 10 11 12 13 14 15 rings
6 21 23 24 25 26 29 rings
6 22 27 28 30 31 32 rings

> <PUBCHEM_HEAVY_ATOM_COUNT>
33

> <PUBCHEM_ATOM_DEF_STEREO_COUNT>
4

> <PUBCHEM_ATOM_UDEF_STEREO_COUNT>
0

> <PUBCHEM_BOND_DEF_STEREO_COUNT>
0

> <PUBCHEM_BOND_UDEF_STEREO_COUNT>
0

> <PUBCHEM_ISOTOPIC_ATOM_COUNT>
0

> <PUBCHEM_COMPONENT_COUNT>
1

> <PUBCHEM_CACTVS_TAUTO_COUNT>
12

> <PUBCHEM_CONFORMER_ID>
00B510C400000001

> <PUBCHEM_MMFF94_ENERGY>
80.3159

> <PUBCHEM_FEATURE_SELFOVERLAP>
71.108

> <PUBCHEM_SHAPE_FINGERPRINT>
1100329 8 18339355370326135662
11014199 57 17908149771801772031
12106331 60 17903055765212917002
131258 38 17822004363391017458
13533116 47 18340771554736427721
1361 2 18412268367351780651
14725015 67 18187919534852893579
15001296 14 18266739259099777503
15328829 1 17560785638428028759
15483637 11 17833272295864668707
15927050 60 17980202203568481212
16112460 7 18342740770643223073
19319366 153 18123755510938111540
19611394 137 18261403255919113915
1979834 28 18271811159703522083
20028762 73 18202286913644520623
20764821 26 18268141152977105791
21197605 99 18410014368457460611
21796203 349 18192743127008658568
22113638 7 18410847764037507878
25019877 29 17489295370235487662
3178227 256 18409736183398525969
373842 8 18337674251845400355
397830 11 11599722935488955429
463206 1 18409732863373267611
5047190 2 18199176472944341935
5309563 4 18337108951900620457
563151 40 17686077380098821812
6287921 2 17770508542829892799
9896288 288 17769372721986089048

> <PUBCHEM_SHAPE_MULTIPOLES>
629.85
14.39
6.43
1.46
25.96
1.53
-0.16
-6.27
-4.28
-7.45
1.85
-0.28
-0.16
-1.58

> <PUBCHEM_SHAPE_SELFOVERLAP>
1334.353

> <PUBCHEM_SHAPE_VOLUME>
347.7

> <PUBCHEM_COORDINATE_TYPE>
2
5
10

$$$$
