75536089
  -OEChem-12032416293D

 56 59  0     1  0  0  0  0  0999 V2000
    2.9987   -3.5380   -1.3507 O   0  0  0  0  0  0  0  0  0  0  0  0
    0.4446   -4.4865   -1.0101 O   0  0  0  0  0  0  0  0  0  0  0  0
    1.2595    0.7309   -1.1611 O   0  0  0  0  0  0  0  0  0  0  0  0
   -6.7156    1.8944   -0.4982 O   0  0  0  0  0  0  0  0  0  0  0  0
    2.4921   -0.8155    0.0509 N   0  0  0  0  0  0  0  0  0  0  0  0
   -2.6470   -0.9340   -0.6214 N   0  0  0  0  0  0  0  0  0  0  0  0
   -4.2052    0.7344    0.0027 N   0  0  0  0  0  0  0  0  0  0  0  0
    3.0289    2.8190   -0.0989 N   0  0  0  0  0  0  0  0  0  0  0  0
    4.1302    3.5484    0.1489 N   0  0  0  0  0  0  0  0  0  0  0  0
    0.5841   -2.0719    1.0079 C   0  0  2  0  0  0  0  0  0  0  0  0
    1.6035   -1.9328   -0.1452 C   0  0  2  0  0  0  0  0  0  0  0  0
    2.3499   -3.2660   -0.1230 C   0  0  1  0  0  0  0  0  0  0  0  0
    0.3878   -3.5958    1.2168 C   0  0  0  0  0  0  0  0  0  0  0  0
    1.2432   -4.2774    0.1506 C   0  0  1  0  0  0  0  0  0  0  0  0
   -0.6983   -1.3059    0.7604 C   0  0  0  0  0  0  0  0  0  0  0  0
   -1.1144   -0.3037    1.6298 C   0  0  0  0  0  0  0  0  0  0  0  0
   -1.4931   -1.5803   -0.3409 C   0  0  0  0  0  0  0  0  0  0  0  0
    2.2412    0.4418   -0.4820 C   0  0  0  0  0  0  0  0  0  0  0  0
   -2.2960    0.3836    1.3749 C   0  0  0  0  0  0  0  0  0  0  0  0
   -3.0194    0.0337    0.2462 C   0  0  0  0  0  0  0  0  0  0  0  0
    3.2680    1.4808   -0.2113 C   0  0  0  0  0  0  0  0  0  0  0  0
   -5.2662    0.6760    1.0175 C   0  0  0  0  0  0  0  0  0  0  0  0
   -4.6690    0.9309   -1.3752 C   0  0  0  0  0  0  0  0  0  0  0  0
   -6.2155    1.8553    0.8382 C   0  0  0  0  0  0  0  0  0  0  0  0
   -5.6510    2.0960   -1.4270 C   0  0  0  0  0  0  0  0  0  0  0  0
    4.6196    1.3240   -0.0246 C   0  0  0  0  0  0  0  0  0  0  0  0
    5.0987    2.6296    0.1933 C   0  0  0  0  0  0  0  0  0  0  0  0
    1.7527    3.4853   -0.2179 C   0  0  0  0  0  0  0  0  0  0  0  0
    6.4883    3.0438    0.4496 C   0  0  0  0  0  0  0  0  0  0  0  0
    1.0372   -1.6822    1.9315 H   0  0  0  0  0  0  0  0  0  0  0  0
    1.1185   -1.8035   -1.1207 H   0  0  0  0  0  0  0  0  0  0  0  0
    3.0963   -3.2842    0.6813 H   0  0  0  0  0  0  0  0  0  0  0  0
    0.7722   -3.8603    2.2099 H   0  0  0  0  0  0  0  0  0  0  0  0
   -0.6623   -3.9040    1.1749 H   0  0  0  0  0  0  0  0  0  0  0  0
    1.6359   -5.2476    0.4691 H   0  0  0  0  0  0  0  0  0  0  0  0
    3.3062   -0.9511    0.6431 H   0  0  0  0  0  0  0  0  0  0  0  0
    3.3676   -4.4359   -1.2932 H   0  0  0  0  0  0  0  0  0  0  0  0
   -0.2646   -5.1065   -0.7688 H   0  0  0  0  0  0  0  0  0  0  0  0
   -0.5260   -0.0444    2.5055 H   0  0  0  0  0  0  0  0  0  0  0  0
   -1.2319   -2.3502   -1.0588 H   0  0  0  0  0  0  0  0  0  0  0  0
   -2.6088    1.1777    2.0450 H   0  0  0  0  0  0  0  0  0  0  0  0
   -4.8730    0.6951    2.0394 H   0  0  0  0  0  0  0  0  0  0  0  0
   -5.8163   -0.2646    0.8894 H   0  0  0  0  0  0  0  0  0  0  0  0
   -5.1616    0.0130   -1.7185 H   0  0  0  0  0  0  0  0  0  0  0  0
   -3.8279    1.1425   -2.0458 H   0  0  0  0  0  0  0  0  0  0  0  0
   -7.0704    1.7524    1.5139 H   0  0  0  0  0  0  0  0  0  0  0  0
   -5.7204    2.8060    1.0706 H   0  0  0  0  0  0  0  0  0  0  0  0
   -6.0870    2.1722   -2.4281 H   0  0  0  0  0  0  0  0  0  0  0  0
   -5.1526    3.0483   -1.2086 H   0  0  0  0  0  0  0  0  0  0  0  0
    5.1826    0.4017   -0.0457 H   0  0  0  0  0  0  0  0  0  0  0  0
    1.0199    2.9595    0.3993 H   0  0  0  0  0  0  0  0  0  0  0  0
    1.8477    4.5162    0.1340 H   0  0  0  0  0  0  0  0  0  0  0  0
    1.4580    3.4780   -1.2699 H   0  0  0  0  0  0  0  0  0  0  0  0
    6.8351    3.7356   -0.3250 H   0  0  0  0  0  0  0  0  0  0  0  0
    6.5703    3.5443    1.4200 H   0  0  0  0  0  0  0  0  0  0  0  0
    7.1656    2.1836    0.4581 H   0  0  0  0  0  0  0  0  0  0  0  0
  1 12  1  0  0  0  0
  1 37  1  0  0  0  0
  2 14  1  0  0  0  0
  2 38  1  0  0  0  0
  3 18  2  0  0  0  0
  4 24  1  0  0  0  0
  4 25  1  0  0  0  0
  5 11  1  0  0  0  0
  5 18  1  0  0  0  0
  5 36  1  0  0  0  0
  6 17  1  0  0  0  0
  6 20  2  0  0  0  0
  7 20  1  0  0  0  0
  7 22  1  0  0  0  0
  7 23  1  0  0  0  0
  8  9  1  0  0  0  0
  8 21  1  0  0  0  0
  8 28  1  0  0  0  0
  9 27  2  0  0  0  0
 10 11  1  0  0  0  0
 10 13  1  0  0  0  0
 10 15  1  0  0  0  0
 10 30  1  0  0  0  0
 11 12  1  0  0  0  0
 11 31  1  0  0  0  0
 12 14  1  0  0  0  0
 12 32  1  0  0  0  0
 13 14  1  0  0  0  0
 13 33  1  0  0  0  0
 13 34  1  0  0  0  0
 14 35  1  0  0  0  0
 15 16  1  0  0  0  0
 15 17  2  0  0  0  0
 16 19  2  0  0  0  0
 16 39  1  0  0  0  0
 17 40  1  0  0  0  0
 18 21  1  0  0  0  0
 19 20  1  0  0  0  0
 19 41  1  0  0  0  0
 21 26  2  0  0  0  0
 22 24  1  0  0  0  0
 22 42  1  0  0  0  0
 22 43  1  0  0  0  0
 23 25  1  0  0  0  0
 23 44  1  0  0  0  0
 23 45  1  0  0  0  0
 24 46  1  0  0  0  0
 24 47  1  0  0  0  0
 25 48  1  0  0  0  0
 25 49  1  0  0  0  0
 26 27  1  0  0  0  0
 26 50  1  0  0  0  0
 27 29  1  0  0  0  0
 28 51  1  0  0  0  0
 28 52  1  0  0  0  0
 28 53  1  0  0  0  0
 29 54  1  0  0  0  0
 29 55  1  0  0  0  0
 29 56  1  0  0  0  0
M  END
> <PUBCHEM_COMPOUND_CID>
75536089

> <PUBCHEM_CONFORMER_RMSD>
0.8

> <PUBCHEM_CONFORMER_DIVERSEORDER>
4
158
81
61
144
179
105
86
109
99
74
154
103
128
118
21
170
18
30
147
102
166
91
168
15
79
151
71
183
123
90
176
169
75
93
57
127
83
152
12
161
143
149
124
120
55
111
175
108
43
51
24
104
153
49
134
17
172
59
94
142
52
72
177
138
32
145
96
92
89
98
7
11
146
155
85
60
100
122
1
110
159
113
76
106
84
34
63
82
2
178
125
37
135
48
121
129
173
140
114
112
78
162
33
97
70
45
139
136
119
39
132
181
47
167
174
62
19
150
130
131
157
126
115
40
44
182
163
116
101
31
8
164
53
58
56
26
133
50
67
87
69
38
22
36
73
25
107
13
95
117
77
64
171
3
148
35
46
180
28
66
165
42
160
23
137
27
80
156
88
9
54
141
5
20
65
29
41
68
14
10
6
16

> <PUBCHEM_MMFF94_PARTIAL_CHARGES>
35
1 -0.68
10 0.14
11 0.3
12 0.28
14 0.28
15 -0.14
16 -0.15
17 0.16
18 0.71
19 -0.15
2 -0.68
20 0.41
21 -0.24
22 0.37
23 0.37
24 0.28
25 0.28
26 -0.15
27 0.11
28 0.26
29 0.18
3 -0.57
36 0.37
37 0.4
38 0.4
39 0.15
4 -0.56
40 0.15
41 0.15
5 -0.73
50 0.15
6 -0.62
7 -0.84
8 0.31
9 -0.71

> <PUBCHEM_EFFECTIVE_ROTOR_COUNT>
7.2

> <PUBCHEM_PHARMACOPHORE_FEATURES>
13
1 1 acceptor
1 1 donor
1 2 acceptor
1 2 donor
1 3 acceptor
1 4 acceptor
1 5 donor
1 9 acceptor
3 6 7 20 cation
5 10 11 12 13 14 rings
5 8 9 21 26 27 rings
6 4 7 22 23 24 25 rings
6 6 15 16 17 19 20 rings

> <PUBCHEM_HEAVY_ATOM_COUNT>
29

> <PUBCHEM_ATOM_DEF_STEREO_COUNT>
4

> <PUBCHEM_ATOM_UDEF_STEREO_COUNT>
0

> <PUBCHEM_BOND_DEF_STEREO_COUNT>
0

> <PUBCHEM_BOND_UDEF_STEREO_COUNT>
0

> <PUBCHEM_ISOTOPIC_ATOM_COUNT>
0

> <PUBCHEM_COMPONENT_COUNT>
1

> <PUBCHEM_CACTVS_TAUTO_COUNT>
2

> <PUBCHEM_CONFORMER_ID>
048096D900000004

> <PUBCHEM_MMFF94_ENERGY>
82.7058

> <PUBCHEM_FEATURE_SELFOVERLAP>
65.984

> <PUBCHEM_SHAPE_FINGERPRINT>
10411042 1 17689154513438902538
10675989 125 18341334413857622408
10937287 8 18339641251712380191
12107183 9 18262787601851969048
12293681 160 17917716837255026168
12769317 202 18411695491486572569
12788726 201 17764856284179854814
13540713 4 18263103104784200403
13590594 115 17834401116016333530
15420108 30 18337659927923206858
15439362 3 18412546509824213990
15664445 248 17983586203653169823
17913733 40 18266198243496566043
20511986 3 17775273963679529549
21033648 144 18333726910664307157
21033648 29 18187652456970854388
21304303 282 18055336196807990686
2132832 1 17912927184289549801
21968339 14 18268412586563345565
22122407 14 18051144601481365665
23559900 14 18265336101837543259
23569914 2 17099702082566733285
329604 57 10951783992588187184
376196 1 18337952402189856546
38695281 34 18411135874311383899
474 4 18411420604862989618
5385378 56 18408889507763593337
550186 72 16321185585622830216
57124632 79 18409159996071042400
57724786 102 18197220248732419417
9981440 41 18265899236104962154

> <PUBCHEM_SHAPE_MULTIPOLES>
548.42
13.35
5.82
1.24
11.23
4.52
0.03
-19.05
-0.72
-7.34
-0.64
1.12
0.26
1.28

> <PUBCHEM_SHAPE_SELFOVERLAP>
1172.011

> <PUBCHEM_SHAPE_VOLUME>
304.5

> <PUBCHEM_COORDINATE_TYPE>
2
5
10

$$$$
