45783552
  -OEChem-12032416273D

 49 52  0     1  0  0  0  0  0999 V2000
   -2.1510    0.1042   -1.9751 O   0  0  0  0  0  0  0  0  0  0  0  0
   -3.8045   -2.4620   -0.4378 O   0  0  0  0  0  0  0  0  0  0  0  0
    4.9917    0.0219    0.5739 O   0  0  0  0  0  0  0  0  0  0  0  0
    7.6944    0.6918    0.2899 O   0  0  0  0  0  0  0  0  0  0  0  0
   -4.3002    0.7715    0.7238 N   0  0  1  0  0  0  0  0  0  0  0  0
   -1.2784    0.9858   -0.1101 N   0  0  0  0  0  0  0  0  0  0  0  0
   -0.7853   -0.2057   -1.9999 N   0  0  0  0  0  0  0  0  0  0  0  0
    3.2874   -0.4694   -0.9222 N   0  0  0  0  0  0  0  0  0  0  0  0
   -3.7757    1.2645   -0.5653 C   0  0  1  0  0  0  0  0  0  0  0  0
   -3.8988    2.7970   -0.4773 C   0  0  0  0  0  0  0  0  0  0  0  0
   -4.5577    3.0664    0.8680 C   0  0  0  0  0  0  0  0  0  0  0  0
   -5.2694    1.7664    1.1835 C   0  0  0  0  0  0  0  0  0  0  0  0
   -4.8828   -0.5613    0.6350 C   0  0  0  0  0  0  0  0  0  0  0  0
   -2.3569    0.8063   -0.8301 C   0  0  0  0  0  0  0  0  0  0  0  0
   -3.8280   -1.6358    0.6408 C   0  0  0  0  0  0  0  0  0  0  0  0
   -2.8410   -1.9800    1.5349 C   0  0  0  0  0  0  0  0  0  0  0  0
   -0.3401    0.3475   -0.8678 C   0  0  0  0  0  0  0  0  0  0  0  0
   -2.1675   -3.0888    0.9691 C   0  0  0  0  0  0  0  0  0  0  0  0
    1.0352    0.2819   -0.4658 C   0  0  0  0  0  0  0  0  0  0  0  0
   -2.7913   -3.3433   -0.2302 C   0  0  0  0  0  0  0  0  0  0  0  0
    1.4639    0.8706    0.7188 C   0  0  0  0  0  0  0  0  0  0  0  0
    1.9780   -0.3705   -1.2439 C   0  0  0  0  0  0  0  0  0  0  0  0
    2.8032    0.7901    1.0837 C   0  0  0  0  0  0  0  0  0  0  0  0
    3.6669    0.1150    0.2364 C   0  0  0  0  0  0  0  0  0  0  0  0
    5.8346   -0.6817   -0.3308 C   0  0  0  0  0  0  0  0  0  0  0  0
    7.2561   -0.6582    0.1969 C   0  0  0  0  0  0  0  0  0  0  0  0
    9.0171    0.7757    0.8017 C   0  0  0  0  0  0  0  0  0  0  0  0
   -4.4135    0.9332   -1.3970 H   0  0  0  0  0  0  0  0  0  0  0  0
   -2.9430    3.3262   -0.5557 H   0  0  0  0  0  0  0  0  0  0  0  0
   -4.5495    3.1605   -1.2822 H   0  0  0  0  0  0  0  0  0  0  0  0
   -5.2403    3.9204    0.8309 H   0  0  0  0  0  0  0  0  0  0  0  0
   -3.7901    3.2756    1.6235 H   0  0  0  0  0  0  0  0  0  0  0  0
   -6.2126    1.7039    0.6258 H   0  0  0  0  0  0  0  0  0  0  0  0
   -5.4809    1.6732    2.2532 H   0  0  0  0  0  0  0  0  0  0  0  0
   -5.5071   -0.7490    1.5193 H   0  0  0  0  0  0  0  0  0  0  0  0
   -5.5433   -0.6670   -0.2348 H   0  0  0  0  0  0  0  0  0  0  0  0
   -2.6301   -1.4935    2.4765 H   0  0  0  0  0  0  0  0  0  0  0  0
   -1.3313   -3.6334    1.3829 H   0  0  0  0  0  0  0  0  0  0  0  0
   -2.6413   -4.0750   -1.0105 H   0  0  0  0  0  0  0  0  0  0  0  0
    0.7773    1.3975    1.3764 H   0  0  0  0  0  0  0  0  0  0  0  0
    1.7255   -0.8560   -2.1819 H   0  0  0  0  0  0  0  0  0  0  0  0
    3.1537    1.2438    2.0043 H   0  0  0  0  0  0  0  0  0  0  0  0
    5.5023   -1.7220   -0.4282 H   0  0  0  0  0  0  0  0  0  0  0  0
    5.8096   -0.1880   -1.3103 H   0  0  0  0  0  0  0  0  0  0  0  0
    7.2878   -1.1111    1.1948 H   0  0  0  0  0  0  0  0  0  0  0  0
    7.9150   -1.2171   -0.4767 H   0  0  0  0  0  0  0  0  0  0  0  0
    9.3023    1.8301    0.8471 H   0  0  0  0  0  0  0  0  0  0  0  0
    9.7174    0.2528    0.1431 H   0  0  0  0  0  0  0  0  0  0  0  0
    9.0652    0.3576    1.8118 H   0  0  0  0  0  0  0  0  0  0  0  0
  1  7  1  0  0  0  0
  1 14  1  0  0  0  0
  2 15  1  0  0  0  0
  2 20  1  0  0  0  0
  3 24  1  0  0  0  0
  3 25  1  0  0  0  0
  4 26  1  0  0  0  0
  4 27  1  0  0  0  0
  5  9  1  0  0  0  0
  5 12  1  0  0  0  0
  5 13  1  0  0  0  0
  6 14  2  0  0  0  0
  6 17  1  0  0  0  0
  7 17  2  0  0  0  0
  8 22  1  0  0  0  0
  8 24  2  0  0  0  0
  9 10  1  0  0  0  0
  9 14  1  0  0  0  0
  9 28  1  0  0  0  0
 10 11  1  0  0  0  0
 10 29  1  0  0  0  0
 10 30  1  0  0  0  0
 11 12  1  0  0  0  0
 11 31  1  0  0  0  0
 11 32  1  0  0  0  0
 12 33  1  0  0  0  0
 12 34  1  0  0  0  0
 13 15  1  0  0  0  0
 13 35  1  0  0  0  0
 13 36  1  0  0  0  0
 15 16  2  0  0  0  0
 16 18  1  0  0  0  0
 16 37  1  0  0  0  0
 17 19  1  0  0  0  0
 18 20  2  0  0  0  0
 18 38  1  0  0  0  0
 19 21  1  0  0  0  0
 19 22  2  0  0  0  0
 20 39  1  0  0  0  0
 21 23  2  0  0  0  0
 21 40  1  0  0  0  0
 22 41  1  0  0  0  0
 23 24  1  0  0  0  0
 23 42  1  0  0  0  0
 25 26  1  0  0  0  0
 25 43  1  0  0  0  0
 25 44  1  0  0  0  0
 26 45  1  0  0  0  0
 26 46  1  0  0  0  0
 27 47  1  0  0  0  0
 27 48  1  0  0  0  0
 27 49  1  0  0  0  0
M  END
> <PUBCHEM_COMPOUND_CID>
45783552

> <PUBCHEM_CONFORMER_RMSD>
1

> <PUBCHEM_CONFORMER_DIVERSEORDER>
1
108
107
35
8
112
81
114
20
13
68
45
93
4
32
14
40
43
95
92
86
26
101
47
73
89
105
78
115
75
36
99
16
31
53
77
94
24
46
66
74
42
109
98
62
84
56
41
76
113
18
60
71
82
15
7
102
106
38
104
29
17
103
83
52
3
110
33
67
12
91
57
55
72
90
87
44
111
69
28
11
96
22
100
59
64
2
10
97
65
54
63
5
23
61
21
88
27
48
79
58
30
51
34
9
19
80
6
50
70
85
37
39
49
25

> <PUBCHEM_MMFF94_PARTIAL_CHARGES>
31
1 -0.02
12 0.27
13 0.45
14 0.3
15 -0.04
16 -0.15
17 0.46
18 -0.15
19 0.05
2 -0.28
20 -0.01
21 -0.15
22 0.16
23 -0.15
24 0.39
25 0.28
26 0.28
27 0.28
3 -0.36
37 0.15
38 0.15
39 0.15
4 -0.56
40 0.15
41 0.15
42 0.15
5 -0.81
6 -0.57
7 -0.41
8 -0.62
9 0.45

> <PUBCHEM_EFFECTIVE_ROTOR_COUNT>
9

> <PUBCHEM_PHARMACOPHORE_FEATURES>
8
1 2 acceptor
1 4 acceptor
1 5 cation
3 6 7 17 cation
5 1 6 7 14 17 rings
5 2 15 16 18 20 rings
5 5 9 10 11 12 rings
6 8 19 21 22 23 24 rings

> <PUBCHEM_HEAVY_ATOM_COUNT>
27

> <PUBCHEM_ATOM_DEF_STEREO_COUNT>
1

> <PUBCHEM_ATOM_UDEF_STEREO_COUNT>
0

> <PUBCHEM_BOND_DEF_STEREO_COUNT>
0

> <PUBCHEM_BOND_UDEF_STEREO_COUNT>
0

> <PUBCHEM_ISOTOPIC_ATOM_COUNT>
0

> <PUBCHEM_COMPONENT_COUNT>
1

> <PUBCHEM_CACTVS_TAUTO_COUNT>
1

> <PUBCHEM_CONFORMER_ID>
02BA9A0000000001

> <PUBCHEM_MMFF94_ENERGY>
46.8411

> <PUBCHEM_FEATURE_SELFOVERLAP>
40.598

> <PUBCHEM_SHAPE_FINGERPRINT>
10319926 262 18341320163466506856
11135926 11 15357689778600143240
11315181 36 18335699468161614829
11552529 35 18337950220356973843
12293681 4 18272938184802197241
12616971 3 16732712649060525838
12633257 1 18200050546149087097
13004483 165 18053946440471012079
13583140 156 17846217778081249315
14844126 61 18336270149658127611
14849402 71 17822865294365914324
14856354 85 18334582360242757526
15021287 119 16950289507275209188
15183329 4 16515401877013247554
15348495 7 18342735247974761096
15537594 2 17167860837977440458
17093844 174 18341888597950798264
17780758 139 18334013908483630811
17844677 252 18340772641036001784
20554085 129 18124013669370438817
21236236 1 18333449867661634202
21756936 100 18341326713080856885
220451 1 17894911798765738154
23516275 137 17899433999459353178
23522609 53 17678203579985225660
23559900 14 18263638618528219232
397830 11 18270673307709524112
4073 2 18411420601412040674
4169191 19 14907890635797637448
484985 159 18187075200756085803
4938544 92 18412262835011721577
5104073 3 18338506526386333480
5364581 5 18268146642436459880
58260988 114 16081951350706833651
59755656 520 18335700490321600675
602551 16 18334581256272709519
68570916 9 18187086204841560852
7226269 152 18201438021663564153
9953998 17 18333167280509712632

> <PUBCHEM_SHAPE_MULTIPOLES>
512.25
18.14
2.98
1.39
47.87
1.39
0.3
-4.62
-5.86
-6.83
-0.71
-0.69
0.03
0.48

> <PUBCHEM_SHAPE_SELFOVERLAP>
1098.357

> <PUBCHEM_SHAPE_VOLUME>
286.1

> <PUBCHEM_COORDINATE_TYPE>
2
5
10

$$$$
