75367175
  -OEChem-12032416383D

 45 48  0     1  0  0  0  0  0999 V2000
    5.9187   -3.4374   -0.7268 F   0  0  0  0  0  0  0  0  0  0  0  0
   -5.4934   -1.7308    2.4606 F   0  0  0  0  0  0  0  0  0  0  0  0
    1.7456    4.2061    0.3248 O   0  0  0  0  0  0  0  0  0  0  0  0
    1.8959    1.3470    0.2705 N   0  0  1  0  0  0  0  0  0  0  0  0
   -1.6577    0.9128    0.2081 N   0  0  0  0  0  0  0  0  0  0  0  0
   -0.5292    0.9398   -1.7043 N   0  0  0  0  0  0  0  0  0  0  0  0
    0.5891    2.0523    0.2843 C   0  0  1  0  0  0  0  0  0  0  0  0
    2.9340    2.1848    0.8973 C   0  0  0  0  0  0  0  0  0  0  0  0
    0.7362    3.4514   -0.3453 C   0  0  0  0  0  0  0  0  0  0  0  0
    1.8349    0.0564    0.9663 C   0  0  0  0  0  0  0  0  0  0  0  0
    3.0067    3.5489    0.2247 C   0  0  0  0  0  0  0  0  0  0  0  0
   -0.5177    1.2992   -0.4400 C   0  0  0  0  0  0  0  0  0  0  0  0
    2.9262   -0.8768    0.5133 C   0  0  0  0  0  0  0  0  0  0  0  0
   -2.4465    0.2657   -0.7010 C   0  0  0  0  0  0  0  0  0  0  0  0
   -1.7289    0.2950   -1.8735 C   0  0  0  0  0  0  0  0  0  0  0  0
    2.7049   -1.7407   -0.5593 C   0  0  0  0  0  0  0  0  0  0  0  0
    4.1586   -0.8778    1.1670 C   0  0  0  0  0  0  0  0  0  0  0  0
   -3.7354   -0.2878   -0.3793 C   0  0  0  0  0  0  0  0  0  0  0  0
    3.7161   -2.6053   -0.9787 C   0  0  0  0  0  0  0  0  0  0  0  0
    5.1696   -1.7425    0.7478 C   0  0  0  0  0  0  0  0  0  0  0  0
   -3.9947   -0.7504    0.9109 C   0  0  0  0  0  0  0  0  0  0  0  0
   -4.7260   -0.3612   -1.3587 C   0  0  0  0  0  0  0  0  0  0  0  0
    4.9485   -2.6063   -0.3250 C   0  0  0  0  0  0  0  0  0  0  0  0
   -5.2445   -1.2861    1.2218 C   0  0  0  0  0  0  0  0  0  0  0  0
   -5.9757   -0.8971   -1.0479 C   0  0  0  0  0  0  0  0  0  0  0  0
   -6.2351   -1.3594    0.2424 C   0  0  0  0  0  0  0  0  0  0  0  0
    0.2926    2.1926    1.3345 H   0  0  0  0  0  0  0  0  0  0  0  0
    3.9246    1.7333    0.8003 H   0  0  0  0  0  0  0  0  0  0  0  0
    2.7203    2.3238    1.9653 H   0  0  0  0  0  0  0  0  0  0  0  0
    0.9740    3.3985   -1.4160 H   0  0  0  0  0  0  0  0  0  0  0  0
   -0.2032    4.0086   -0.2530 H   0  0  0  0  0  0  0  0  0  0  0  0
    0.8878   -0.4621    0.7729 H   0  0  0  0  0  0  0  0  0  0  0  0
    1.8605    0.1771    2.0584 H   0  0  0  0  0  0  0  0  0  0  0  0
    3.7489    4.1751    0.7301 H   0  0  0  0  0  0  0  0  0  0  0  0
    3.3021    3.4695   -0.8287 H   0  0  0  0  0  0  0  0  0  0  0  0
   -1.8739    1.0877    1.1808 H   0  0  0  0  0  0  0  0  0  0  0  0
   -2.0047   -0.1154   -2.8346 H   0  0  0  0  0  0  0  0  0  0  0  0
    1.7502   -1.7483   -1.0787 H   0  0  0  0  0  0  0  0  0  0  0  0
    4.3422   -0.2250    2.0161 H   0  0  0  0  0  0  0  0  0  0  0  0
    3.5444   -3.2776   -1.8141 H   0  0  0  0  0  0  0  0  0  0  0  0
    6.1277   -1.7467    1.2590 H   0  0  0  0  0  0  0  0  0  0  0  0
   -3.2409   -0.7173    1.6935 H   0  0  0  0  0  0  0  0  0  0  0  0
   -4.5519   -0.0024   -2.3702 H   0  0  0  0  0  0  0  0  0  0  0  0
   -6.7476   -0.9532   -1.8099 H   0  0  0  0  0  0  0  0  0  0  0  0
   -7.2081   -1.7764    0.4847 H   0  0  0  0  0  0  0  0  0  0  0  0
  1 23  1  0  0  0  0
  2 24  1  0  0  0  0
  3  9  1  0  0  0  0
  3 11  1  0  0  0  0
  4  7  1  0  0  0  0
  4  8  1  0  0  0  0
  4 10  1  0  0  0  0
  5 12  1  0  0  0  0
  5 14  1  0  0  0  0
  5 36  1  0  0  0  0
  6 12  2  0  0  0  0
  6 15  1  0  0  0  0
  7  9  1  0  0  0  0
  7 12  1  0  0  0  0
  7 27  1  0  0  0  0
  8 11  1  0  0  0  0
  8 28  1  0  0  0  0
  8 29  1  0  0  0  0
  9 30  1  0  0  0  0
  9 31  1  0  0  0  0
 10 13  1  0  0  0  0
 10 32  1  0  0  0  0
 10 33  1  0  0  0  0
 11 34  1  0  0  0  0
 11 35  1  0  0  0  0
 13 16  2  0  0  0  0
 13 17  1  0  0  0  0
 14 15  2  0  0  0  0
 14 18  1  0  0  0  0
 15 37  1  0  0  0  0
 16 19  1  0  0  0  0
 16 38  1  0  0  0  0
 17 20  2  0  0  0  0
 17 39  1  0  0  0  0
 18 21  2  0  0  0  0
 18 22  1  0  0  0  0
 19 23  2  0  0  0  0
 19 40  1  0  0  0  0
 20 23  1  0  0  0  0
 20 41  1  0  0  0  0
 21 24  1  0  0  0  0
 21 42  1  0  0  0  0
 22 25  2  0  0  0  0
 22 43  1  0  0  0  0
 24 26  2  0  0  0  0
 25 26  1  0  0  0  0
 25 44  1  0  0  0  0
 26 45  1  0  0  0  0
M  END
> <PUBCHEM_COMPOUND_CID>
75367175

> <PUBCHEM_CONFORMER_RMSD>
0.8

> <PUBCHEM_CONFORMER_DIVERSEORDER>
2
132
90
123
26
170
75
104
43
165
173
145
51
121
73
122
72
139
60
125
131
129
14
34
124
86
164
167
156
134
27
48
56
111
42
13
141
118
159
157
32
140
9
74
107
146
91
99
94
19
130
68
45
155
147
66
149
135
138
39
78
142
126
115
163
50
144
166
17
110
150
44
61
8
162
174
64
106
30
87
52
160
133
168
28
116
103
137
67
62
151
76
11
127
93
113
77
98
4
95
152
22
71
88
85
158
108
172
169
49
143
84
148
161
128
47
136
92
81
102
36
25
20
83
117
35
23
59
120
89
37
80
1
18
119
10
82
70
15
105
171
112
175
57
21
63
24
41
6
69
114
53
97
33
46
154
54
65
153
3
40
79
101
38
31
16
5
96
55
58
12
100
109
7
29

> <PUBCHEM_MMFF94_PARTIAL_CHARGES>
36
1 -0.19
10 0.41
11 0.28
12 0.01
13 -0.14
14 -0.2
15 0.08
16 -0.15
17 -0.15
18 0.05
19 -0.15
2 -0.19
20 -0.15
21 -0.15
22 -0.15
23 0.19
24 0.19
25 -0.15
26 -0.15
3 -0.56
36 0.27
37 0.15
38 0.15
39 0.15
4 -0.81
40 0.15
41 0.15
42 0.15
43 0.15
44 0.15
45 0.15
5 0.03
6 -0.57
7 0.45
8 0.27
9 0.28

> <PUBCHEM_EFFECTIVE_ROTOR_COUNT>
5.2

> <PUBCHEM_PHARMACOPHORE_FEATURES>
8
1 3 acceptor
1 4 cation
1 5 donor
3 5 6 12 cation
5 5 6 12 14 15 rings
6 13 16 17 19 20 23 rings
6 18 21 22 24 25 26 rings
6 3 4 7 8 9 11 rings

> <PUBCHEM_HEAVY_ATOM_COUNT>
26

> <PUBCHEM_ATOM_DEF_STEREO_COUNT>
1

> <PUBCHEM_ATOM_UDEF_STEREO_COUNT>
0

> <PUBCHEM_BOND_DEF_STEREO_COUNT>
0

> <PUBCHEM_BOND_UDEF_STEREO_COUNT>
0

> <PUBCHEM_ISOTOPIC_ATOM_COUNT>
0

> <PUBCHEM_COMPONENT_COUNT>
1

> <PUBCHEM_CACTVS_TAUTO_COUNT>
2

> <PUBCHEM_CONFORMER_ID>
047E030700000002

> <PUBCHEM_MMFF94_ENERGY>
55.4523

> <PUBCHEM_FEATURE_SELFOVERLAP>
40.598

> <PUBCHEM_SHAPE_FINGERPRINT>
10319926 262 14476964505861856143
10369192 42 17535183668404324244
10692045 39 12535355545598320334
10951579 204 16806702051101462831
10981352 41 18043539524280837563
11059845 2 16986611753766104731
114674 6 18187076291023158290
11954058 11 18411981381689403927
12107183 9 18200040517411331737
12403259 327 15553865798057297494
12422481 6 17346041047954825821
12596602 18 16415187997089321331
12623949 98 18262808504814252431
12633257 1 18131069359348845447
13009979 54 17917153801513268736
13103583 49 16487247759837527858
13402501 40 18334858294533119875
13533116 47 18341609382522452681
13540713 4 18265028298347531876
13583140 156 17910954974710991777
13673619 4 18113621162119372815
13785724 45 18272097041195066877
13911882 115 17896038926373916233
13955234 65 18269550714257911112
14251740 57 18041850643991350323
14251764 30 18340207380200583150
17492 89 18412824707566856457
17913733 40 18053095409063612280
1813 80 18130512942124603268
19319366 153 17770215273593717960
193927 3 18335702719599635283
1979834 28 18269540801700206448
20645477 70 18264473130984938549
20693207 138 17749380477750730149
21033650 10 15936960839353261589
21049683 271 18408609184545058372
21365058 113 18409737231507845996
21421861 104 18130797788360854341
23559900 14 18336254713540026717
239999 70 17968086590331625616
329604 57 18261958449493108398
3421961 26 18412258454382774848
345986 75 17847067687537257177
437795 51 18264214767644044308
437815 12 18408882906567241975
44317340 157 9367083146846261171
46194498 28 17822005441464283996
5309563 4 18340764823900182678
5486654 36 18337959969879930177
56633871 153 17988635264216777455
6371380 46 18115304472141964989
6669772 16 18196937897751659900
6695519 79 17404598056859741577
6823239 73 17313100890925832633
7918774 8 18337117773674197878
7970288 3 18340200774546351518
86090 222 17822013150703818203
8863177 126 18114466763992474059

> <PUBCHEM_SHAPE_MULTIPOLES>
499.71
14.31
4.16
1.49
12.51
3.22
-0.14
-14.73
-2.17
-7.73
0.11
1.59
-0.54
2.07

> <PUBCHEM_SHAPE_SELFOVERLAP>
1090.653

> <PUBCHEM_SHAPE_VOLUME>
272.9

> <PUBCHEM_COORDINATE_TYPE>
2
5
10

$$$$
