40724405
  -OEChem-12032416333D

 70 74  0     1  0  0  0  0  0999 V2000
    1.2416    4.1169   -2.3299 O   0  0  0  0  0  0  0  0  0  0  0  0
    6.4075   -3.0157   -1.5645 O   0  0  0  0  0  0  0  0  0  0  0  0
   -4.0204    1.2224   -1.3443 O   0  0  0  0  0  0  0  0  0  0  0  0
    2.2341    0.6146    1.1207 N   0  0  2  0  0  0  0  0  0  0  0  0
    0.6350    2.9104   -0.4163 N   0  0  0  0  0  0  0  0  0  0  0  0
    4.6505   -2.6332   -0.0932 N   0  0  0  0  0  0  0  0  0  0  0  0
   -2.1970    0.6092   -0.0349 N   0  0  0  0  0  0  0  0  0  0  0  0
   -4.1953   -0.4909    0.2103 N   0  0  0  0  0  0  0  0  0  0  0  0
    1.9887    3.0272    1.7574 C   0  0  1  0  0  0  0  0  0  0  0  0
    0.0009    1.6046    1.6368 C   0  0  2  0  0  0  0  0  0  0  0  0
    0.6547    2.7376    2.4246 C   0  0  0  0  0  0  0  0  0  0  0  0
    2.8761    1.7648    1.7685 C   0  0  0  0  0  0  0  0  0  0  0  0
    0.9047    0.3516    1.6914 C   0  0  0  0  0  0  0  0  0  0  0  0
    3.0819   -0.5723    1.2006 C   0  0  0  0  0  0  0  0  0  0  0  0
    1.7190    3.5486    0.3430 C   0  0  0  0  0  0  0  0  0  0  0  0
   -0.2604    2.0087    0.1871 C   0  0  0  0  0  0  0  0  0  0  0  0
    4.4620   -0.2749    0.6003 C   0  0  0  0  0  0  0  0  0  0  0  0
    2.4185   -1.7439    0.4653 C   0  0  0  0  0  0  0  0  0  0  0  0
    5.3327   -1.5302    0.5868 C   0  0  0  0  0  0  0  0  0  0  0  0
    3.3303   -2.9708    0.4536 C   0  0  0  0  0  0  0  0  0  0  0  0
   -1.2939    1.5110   -0.5293 C   0  0  0  0  0  0  0  0  0  0  0  0
    0.4984    3.3213   -1.7549 C   0  0  0  0  0  0  0  0  0  0  0  0
   -1.4804    1.9040   -1.9053 C   0  0  0  0  0  0  0  0  0  0  0  0
   -0.6438    2.7496   -2.5096 C   0  0  0  0  0  0  0  0  0  0  0  0
    5.2811   -3.2954   -1.1460 C   0  0  0  0  0  0  0  0  0  0  0  0
   -5.5831   -0.8105   -0.0405 C   0  0  0  0  0  0  0  0  0  0  0  0
   -5.7163   -1.8372   -1.1703 C   0  0  0  0  0  0  0  0  0  0  0  0
   -6.2760   -1.2972    1.2367 C   0  0  0  0  0  0  0  0  0  0  0  0
   -3.5149    0.5160   -0.4725 C   0  0  0  0  0  0  0  0  0  0  0  0
   -5.2593   -3.2336   -0.7485 C   0  0  0  0  0  0  0  0  0  0  0  0
   -5.8180   -2.6945    1.6545 C   0  0  0  0  0  0  0  0  0  0  0  0
   -5.9707   -3.7004    0.5178 C   0  0  0  0  0  0  0  0  0  0  0  0
    4.5118   -4.4178   -1.7957 C   0  0  0  0  0  0  0  0  0  0  0  0
    2.5173    3.8083    2.3183 H   0  0  0  0  0  0  0  0  0  0  0  0
   -0.9446    1.3762    2.1434 H   0  0  0  0  0  0  0  0  0  0  0  0
    0.0171    3.6306    2.4314 H   0  0  0  0  0  0  0  0  0  0  0  0
    0.8046    2.4413    3.4699 H   0  0  0  0  0  0  0  0  0  0  0  0
    3.7953    2.0554    1.2509 H   0  0  0  0  0  0  0  0  0  0  0  0
    3.1404    1.5256    2.8075 H   0  0  0  0  0  0  0  0  0  0  0  0
    0.9897    0.0135    2.7330 H   0  0  0  0  0  0  0  0  0  0  0  0
    0.3744   -0.4280    1.1372 H   0  0  0  0  0  0  0  0  0  0  0  0
    3.2219   -0.8618    2.2525 H   0  0  0  0  0  0  0  0  0  0  0  0
    1.4450    4.6107    0.4100 H   0  0  0  0  0  0  0  0  0  0  0  0
    2.6351    3.5142   -0.2604 H   0  0  0  0  0  0  0  0  0  0  0  0
    4.3577    0.1042   -0.4248 H   0  0  0  0  0  0  0  0  0  0  0  0
    5.0176    0.4685    1.1802 H   0  0  0  0  0  0  0  0  0  0  0  0
    1.4894   -2.0654    0.9456 H   0  0  0  0  0  0  0  0  0  0  0  0
    2.1821   -1.4590   -0.5685 H   0  0  0  0  0  0  0  0  0  0  0  0
    6.2911   -1.3094    0.1062 H   0  0  0  0  0  0  0  0  0  0  0  0
    5.5481   -1.8604    1.6101 H   0  0  0  0  0  0  0  0  0  0  0  0
    3.4888   -3.3388    1.4745 H   0  0  0  0  0  0  0  0  0  0  0  0
    2.8490   -3.7743   -0.1065 H   0  0  0  0  0  0  0  0  0  0  0  0
   -2.2110    1.4322   -2.5498 H   0  0  0  0  0  0  0  0  0  0  0  0
   -0.7475    3.0053   -3.5576 H   0  0  0  0  0  0  0  0  0  0  0  0
   -1.9705    0.1276    0.8295 H   0  0  0  0  0  0  0  0  0  0  0  0
   -6.0759    0.1152   -0.3630 H   0  0  0  0  0  0  0  0  0  0  0  0
   -5.1440   -1.5189   -2.0498 H   0  0  0  0  0  0  0  0  0  0  0  0
   -6.7680   -1.8905   -1.4799 H   0  0  0  0  0  0  0  0  0  0  0  0
   -7.3604   -1.3176    1.0683 H   0  0  0  0  0  0  0  0  0  0  0  0
   -6.0952   -0.5947    2.0592 H   0  0  0  0  0  0  0  0  0  0  0  0
   -4.1754   -3.2333   -0.5807 H   0  0  0  0  0  0  0  0  0  0  0  0
   -5.4533   -3.9432   -1.5609 H   0  0  0  0  0  0  0  0  0  0  0  0
   -6.4064   -3.0272    2.5175 H   0  0  0  0  0  0  0  0  0  0  0  0
   -4.7721   -2.6658    1.9816 H   0  0  0  0  0  0  0  0  0  0  0  0
   -7.0363   -3.8479    0.3031 H   0  0  0  0  0  0  0  0  0  0  0  0
   -5.5709   -4.6721    0.8288 H   0  0  0  0  0  0  0  0  0  0  0  0
   -3.6674   -1.0707    0.8551 H   0  0  0  0  0  0  0  0  0  0  0  0
    3.5792   -4.0395   -2.2227 H   0  0  0  0  0  0  0  0  0  0  0  0
    4.3090   -5.2082   -1.0682 H   0  0  0  0  0  0  0  0  0  0  0  0
    5.1086   -4.8462   -2.6069 H   0  0  0  0  0  0  0  0  0  0  0  0
  1 22  2  0  0  0  0
  2 25  2  0  0  0  0
  3 29  2  0  0  0  0
  4 12  1  0  0  0  0
  4 13  1  0  0  0  0
  4 14  1  0  0  0  0
  5 15  1  0  0  0  0
  5 16  1  0  0  0  0
  5 22  1  0  0  0  0
  6 19  1  0  0  0  0
  6 20  1  0  0  0  0
  6 25  1  0  0  0  0
  7 21  1  0  0  0  0
  7 29  1  0  0  0  0
  7 55  1  0  0  0  0
  8 26  1  0  0  0  0
  8 29  1  0  0  0  0
  8 67  1  0  0  0  0
  9 11  1  0  0  0  0
  9 12  1  0  0  0  0
  9 15  1  0  0  0  0
  9 34  1  0  0  0  0
 10 11  1  0  0  0  0
 10 13  1  0  0  0  0
 10 16  1  0  0  0  0
 10 35  1  0  0  0  0
 11 36  1  0  0  0  0
 11 37  1  0  0  0  0
 12 38  1  0  0  0  0
 12 39  1  0  0  0  0
 13 40  1  0  0  0  0
 13 41  1  0  0  0  0
 14 17  1  0  0  0  0
 14 18  1  0  0  0  0
 14 42  1  0  0  0  0
 15 43  1  0  0  0  0
 15 44  1  0  0  0  0
 16 21  2  0  0  0  0
 17 19  1  0  0  0  0
 17 45  1  0  0  0  0
 17 46  1  0  0  0  0
 18 20  1  0  0  0  0
 18 47  1  0  0  0  0
 18 48  1  0  0  0  0
 19 49  1  0  0  0  0
 19 50  1  0  0  0  0
 20 51  1  0  0  0  0
 20 52  1  0  0  0  0
 21 23  1  0  0  0  0
 22 24  1  0  0  0  0
 23 24  2  0  0  0  0
 23 53  1  0  0  0  0
 24 54  1  0  0  0  0
 25 33  1  0  0  0  0
 26 27  1  0  0  0  0
 26 28  1  0  0  0  0
 26 56  1  0  0  0  0
 27 30  1  0  0  0  0
 27 57  1  0  0  0  0
 27 58  1  0  0  0  0
 28 31  1  0  0  0  0
 28 59  1  0  0  0  0
 28 60  1  0  0  0  0
 30 32  1  0  0  0  0
 30 61  1  0  0  0  0
 30 62  1  0  0  0  0
 31 32  1  0  0  0  0
 31 63  1  0  0  0  0
 31 64  1  0  0  0  0
 32 65  1  0  0  0  0
 32 66  1  0  0  0  0
 33 68  1  0  0  0  0
 33 69  1  0  0  0  0
 33 70  1  0  0  0  0
M  END
> <PUBCHEM_COMPOUND_CID>
40724405

> <PUBCHEM_CONFORMER_RMSD>
1

> <PUBCHEM_CONFORMER_DIVERSEORDER>
1
63
81
77
48
75
79
49
83
54
88
80
32
11
42
78
58
39
64
73
90
34
47
91
55
28
72
59
23
89
40
7
44
43
82
30
86
45
68
12
84
50
66
53
51
21
52
41
13
70
69
56
71
74
46
26
16
15
61
65
25
85
62
27
14
35
19
18
4
29
6
33
24
10
67
31
3
17
20
57
87
9
37
5
36
60
8
76
22
2
38

> <PUBCHEM_MMFF94_PARTIAL_CHARGES>
28
1 -0.57
10 0.14
12 0.27
13 0.27
14 0.27
15 0.3
16 -0.03
19 0.3
2 -0.57
20 0.3
21 0.11
22 0.62
23 -0.15
24 -0.14
25 0.57
26 0.3
29 0.69
3 -0.57
33 0.06
4 -0.81
5 -0.47
53 0.15
54 0.15
55 0.37
6 -0.66
67 0.37
7 -0.54
8 -0.73

> <PUBCHEM_EFFECTIVE_ROTOR_COUNT>
9.4

> <PUBCHEM_PHARMACOPHORE_FEATURES>
11
1 1 acceptor
1 2 acceptor
1 3 acceptor
1 4 cation
1 7 donor
1 8 donor
6 26 27 28 30 31 32 rings
6 4 9 10 11 12 13 rings
6 5 16 21 22 23 24 rings
6 5 9 10 11 15 16 rings
6 6 14 17 18 19 20 rings

> <PUBCHEM_HEAVY_ATOM_COUNT>
33

> <PUBCHEM_ATOM_DEF_STEREO_COUNT>
2

> <PUBCHEM_ATOM_UDEF_STEREO_COUNT>
0

> <PUBCHEM_BOND_DEF_STEREO_COUNT>
0

> <PUBCHEM_BOND_UDEF_STEREO_COUNT>
0

> <PUBCHEM_ISOTOPIC_ATOM_COUNT>
0

> <PUBCHEM_COMPONENT_COUNT>
1

> <PUBCHEM_CACTVS_TAUTO_COUNT>
9

> <PUBCHEM_CONFORMER_ID>
026D67B500000001

> <PUBCHEM_MMFF94_ENERGY>
73.0097

> <PUBCHEM_FEATURE_SELFOVERLAP>
57.421

> <PUBCHEM_SHAPE_FINGERPRINT>
11059845 2 17915198831970244489
11387372 6 17484253954502202127
11399939 17 18126010596760136583
11513181 2 17756717695021876675
11607047 141 18262820557162385297
117089 54 18201445726972549910
12107183 9 18059584529923409153
12623949 98 18339076106961890854
12633257 1 13756916271446179992
13135754 10 17057533522212203728
13383661 66 18340215089688108578
1361 87 18335413548532556615
14251740 57 18189894404350829547
14251764 30 18343586200759518438
14681488 357 18334571378238468443
14863182 85 17976251653879292409
14904525 67 8429503236703216407
15320291 9 17114372646819757383
15324884 4 18049405284763648524
15669420 48 18409459077221382694
15803439 3 17176899059981888980
16989378 47 18262246628417877039
19319366 153 17269743994942691433
19438510 23 8862940580756518151
1979834 28 18046898557556109753
20587220 46 17903648719665242315
20771845 140 17903634425449987544
20775530 9 18338790122333245187
21365058 27 17836363027313737392
21716022 299 18263667163192397876
21968339 14 11242232074459071280
23559900 14 18261662766906857845
239999 70 17387677543671285809
24893989 43 17245551445271531435
25019877 29 17905878537699565548
3737641 26 18341606027419726123
4017518 198 17758414242054444340
4394409 98 15811991129487845886
4408954 64 17773340996430595099
4435113 14 18189906481704739299
46194498 28 18041554861919381257
484985 159 17767406781619406520
57816373 69 18271802471728357359
6201320 221 17342626146151812951
6823239 73 17967800683233534633
7918774 8 18343021055903806830
7970288 3 18129944464496115202

> <PUBCHEM_SHAPE_MULTIPOLES>
636.61
14.7
6.35
2.3
14.97
1.81
-0.48
24.38
-0.02
-5.22
-2.68
-0.57
-1.65
3.84

> <PUBCHEM_SHAPE_SELFOVERLAP>
1351.242

> <PUBCHEM_SHAPE_VOLUME>
344.9

> <PUBCHEM_COORDINATE_TYPE>
2
5
10

$$$$
