26761859
  -OEChem-12032416333D

 47 51  0     1  0  0  0  0  0999 V2000
   -8.5940    1.4876   -0.4526 Cl  0  0  0  0  0  0  0  0  0  0  0  0
    1.3405    1.5709    1.4258 O   0  0  0  0  0  0  0  0  0  0  0  0
   -2.0657    0.9335    1.6561 O   0  0  0  0  0  0  0  0  0  0  0  0
   -0.8073   -0.5580    0.3964 N   0  0  0  0  0  0  0  0  0  0  0  0
    0.3810   -3.6111   -1.4129 N   0  0  0  0  0  0  0  0  0  0  0  0
    1.2434   -4.1882    0.5652 N   0  0  0  0  0  0  0  0  0  0  0  0
    2.5595   -0.0556    0.4849 N   0  0  0  0  0  0  0  0  0  0  0  0
   -2.7636    0.4196   -0.4998 N   0  0  0  0  0  0  0  0  0  0  0  0
    2.5272    2.1752    0.9916 N   0  0  0  0  0  0  0  0  0  0  0  0
    0.2562   -0.6324    1.4584 C   0  0  1  0  0  0  0  0  0  0  0  0
    0.5893   -2.1042    1.8460 C   0  0  0  0  0  0  0  0  0  0  0  0
   -0.5930   -1.3214   -0.8680 C   0  0  0  0  0  0  0  0  0  0  0  0
    0.6548   -2.9575    0.6412 C   0  0  0  0  0  0  0  0  0  0  0  0
    0.1140   -2.5798   -0.5624 C   0  0  0  0  0  0  0  0  0  0  0  0
    1.4413    0.2584    1.0890 C   0  0  0  0  0  0  0  0  0  0  0  0
   -1.9111    0.3137    0.6014 C   0  0  0  0  0  0  0  0  0  0  0  0
    1.0619   -4.5560   -0.6873 C   0  0  0  0  0  0  0  0  0  0  0  0
    3.1933    1.1523    0.4477 C   0  0  0  0  0  0  0  0  0  0  0  0
   -4.1572    0.6750   -0.4885 C   0  0  0  0  0  0  0  0  0  0  0  0
    4.4934    1.3028   -0.1392 C   0  0  0  0  0  0  0  0  0  0  0  0
   -4.8625    0.7494   -1.6897 C   0  0  0  0  0  0  0  0  0  0  0  0
   -4.8240    0.8522    0.7239 C   0  0  0  0  0  0  0  0  0  0  0  0
    5.1418    0.1979   -0.6909 C   0  0  0  0  0  0  0  0  0  0  0  0
    5.1097    2.5541   -0.1576 C   0  0  0  0  0  0  0  0  0  0  0  0
   -6.2346    1.0005   -1.6787 C   0  0  0  0  0  0  0  0  0  0  0  0
   -6.1961    1.1036    0.7349 C   0  0  0  0  0  0  0  0  0  0  0  0
    6.4064    0.3441   -1.2611 C   0  0  0  0  0  0  0  0  0  0  0  0
    6.3743    2.7004   -0.7278 C   0  0  0  0  0  0  0  0  0  0  0  0
   -6.9014    1.1776   -0.4662 C   0  0  0  0  0  0  0  0  0  0  0  0
    7.0226    1.5954   -1.2797 C   0  0  0  0  0  0  0  0  0  0  0  0
   -0.1501   -0.1833    2.3747 H   0  0  0  0  0  0  0  0  0  0  0  0
   -0.2113   -2.4924    2.4881 H   0  0  0  0  0  0  0  0  0  0  0  0
    1.5256   -2.1546    2.4123 H   0  0  0  0  0  0  0  0  0  0  0  0
   -0.0023   -0.6875   -1.5372 H   0  0  0  0  0  0  0  0  0  0  0  0
   -1.5497   -1.5518   -1.3444 H   0  0  0  0  0  0  0  0  0  0  0  0
    0.1287   -3.6723   -2.3905 H   0  0  0  0  0  0  0  0  0  0  0  0
    1.3944   -5.4837   -1.1308 H   0  0  0  0  0  0  0  0  0  0  0  0
   -2.3670    0.2666   -1.4220 H   0  0  0  0  0  0  0  0  0  0  0  0
   -4.3549    0.6132   -2.6412 H   0  0  0  0  0  0  0  0  0  0  0  0
   -4.3357    0.7805    1.6880 H   0  0  0  0  0  0  0  0  0  0  0  0
    4.6880   -0.7902   -0.6920 H   0  0  0  0  0  0  0  0  0  0  0  0
    4.6357    3.4376    0.2625 H   0  0  0  0  0  0  0  0  0  0  0  0
   -6.7713    1.0555   -2.6223 H   0  0  0  0  0  0  0  0  0  0  0  0
   -6.7045    1.2342    1.6870 H   0  0  0  0  0  0  0  0  0  0  0  0
    6.9116   -0.5160   -1.6908 H   0  0  0  0  0  0  0  0  0  0  0  0
    6.8547    3.6744   -0.7423 H   0  0  0  0  0  0  0  0  0  0  0  0
    8.0072    1.7094   -1.7238 H   0  0  0  0  0  0  0  0  0  0  0  0
  1 29  1  0  0  0  0
  2  9  1  0  0  0  0
  2 15  1  0  0  0  0
  3 16  2  0  0  0  0
  4 10  1  0  0  0  0
  4 12  1  0  0  0  0
  4 16  1  0  0  0  0
  5 14  1  0  0  0  0
  5 17  1  0  0  0  0
  5 36  1  0  0  0  0
  6 13  1  0  0  0  0
  6 17  2  0  0  0  0
  7 15  2  0  0  0  0
  7 18  1  0  0  0  0
  8 16  1  0  0  0  0
  8 19  1  0  0  0  0
  8 38  1  0  0  0  0
  9 18  2  0  0  0  0
 10 11  1  0  0  0  0
 10 15  1  0  0  0  0
 10 31  1  0  0  0  0
 11 13  1  0  0  0  0
 11 32  1  0  0  0  0
 11 33  1  0  0  0  0
 12 14  1  0  0  0  0
 12 34  1  0  0  0  0
 12 35  1  0  0  0  0
 13 14  2  0  0  0  0
 17 37  1  0  0  0  0
 18 20  1  0  0  0  0
 19 21  2  0  0  0  0
 19 22  1  0  0  0  0
 20 23  2  0  0  0  0
 20 24  1  0  0  0  0
 21 25  1  0  0  0  0
 21 39  1  0  0  0  0
 22 26  2  0  0  0  0
 22 40  1  0  0  0  0
 23 27  1  0  0  0  0
 23 41  1  0  0  0  0
 24 28  2  0  0  0  0
 24 42  1  0  0  0  0
 25 29  2  0  0  0  0
 25 43  1  0  0  0  0
 26 29  1  0  0  0  0
 26 44  1  0  0  0  0
 27 30  2  0  0  0  0
 27 45  1  0  0  0  0
 28 30  1  0  0  0  0
 28 46  1  0  0  0  0
 30 47  1  0  0  0  0
M  END
> <PUBCHEM_COMPOUND_CID>
26761859

> <PUBCHEM_CONFORMER_RMSD>
0.8

> <PUBCHEM_CONFORMER_DIVERSEORDER>
1
143
78
142
86
31
116
88
91
63
82
139
55
123
144
57
136
51
100
10
112
84
97
23
110
109
67
107
35
50
81
104
134
54
38
71
32
131
8
69
87
48
128
125
140
64
146
73
99
98
18
118
92
121
33
11
103
25
70
132
106
135
111
120
117
58
16
60
114
29
68
129
9
61
52
122
46
115
27
105
147
76
74
45
95
41
130
90
89
47
96
138
145
6
28
40
53
137
44
22
65
26
36
85
80
119
19
42
72
113
5
94
49
79
14
30
93
39
13
43
101
127
124
62
66
4
75
141
7
77
15
17
108
3
2
56
59
20
133
37
24
21
83
34
126
102
12

> <PUBCHEM_MMFF94_PARTIAL_CHARGES>
42
1 -0.18
10 0.48
11 0.18
12 0.48
13 0.05
14 -0.33
15 0.3
16 0.69
17 0.04
18 0.46
19 0.12
2 -0.02
20 0.05
21 -0.15
22 -0.15
23 -0.15
24 -0.15
25 -0.15
26 -0.15
27 -0.15
28 -0.15
29 0.18
3 -0.57
30 -0.15
36 0.27
37 0.15
38 0.37
39 0.15
4 -0.66
40 0.15
41 0.15
42 0.15
43 0.15
44 0.15
45 0.15
46 0.15
47 0.15
5 0.03
6 -0.57
7 -0.57
8 -0.55
9 -0.41

> <PUBCHEM_EFFECTIVE_ROTOR_COUNT>
5.8

> <PUBCHEM_PHARMACOPHORE_FEATURES>
10
1 3 acceptor
1 5 donor
1 8 donor
3 5 6 17 cation
3 7 9 18 cation
5 2 7 9 15 18 rings
5 5 6 13 14 17 rings
6 19 21 22 25 26 29 rings
6 20 23 24 27 28 30 rings
6 4 10 11 12 13 14 rings

> <PUBCHEM_HEAVY_ATOM_COUNT>
30

> <PUBCHEM_ATOM_DEF_STEREO_COUNT>
1

> <PUBCHEM_ATOM_UDEF_STEREO_COUNT>
0

> <PUBCHEM_BOND_DEF_STEREO_COUNT>
0

> <PUBCHEM_BOND_UDEF_STEREO_COUNT>
0

> <PUBCHEM_ISOTOPIC_ATOM_COUNT>
0

> <PUBCHEM_COMPONENT_COUNT>
1

> <PUBCHEM_CACTVS_TAUTO_COUNT>
4

> <PUBCHEM_CONFORMER_ID>
01985A8300000001

> <PUBCHEM_MMFF94_ENERGY>
70.8486

> <PUBCHEM_FEATURE_SELFOVERLAP>
50.851

> <PUBCHEM_SHAPE_FINGERPRINT>
10165383 225 18407760339470839636
10369192 42 18186802504343908077
10674148 151 15698004028943757603
10675989 125 18413110537877665248
10693767 8 17703508771036037614
11181472 205 18198339547649782189
11445158 3 18052521184768545263
11488393 25 18118678816717717714
11578080 2 17971188119834976357
11621639 336 17842857524703612721
11823591 26 18336255821192975400
11991303 11 18262240044127867374
12218070 45 13118574016204140400
12516196 113 8935003667714985984
12597179 24 18261115175218923987
13150687 139 18341058449576627558
13257819 101 17603297146602138927
13383668 362 8140927548821297317
13540713 4 17627790039912046080
13540713 5 17700141997949356401
13782708 43 12463277134070822469
13911987 19 18411703209674776105
14068700 675 11959743672343562192
14117953 113 18341621370325231198
14910700 183 8502367815760556132
15183329 4 17704357671016142732
15188451 53 12895083894830338020
15961568 22 17748825181640716165
16993427 108 10591775233415881716
17980427 23 13840275822404018131
20105231 36 17060055995961398711
2026 5 12967132709892492333
20465049 17 18130785676747823051
20505436 4 17822568417508794632
20721686 146 16805317777907828549
21033648 29 18265889336274189128
21304303 94 17775284928477738311
21344244 246 18129388099007263958
21756936 100 17459465731621934928
23522609 53 17559128588247388785
23559900 14 12750936863913915529
24180151 248 18192716631308177141
25223398 141 18192156107921587003
3004659 81 15339120160662237936
32027 91 10807639113440123293
3411729 13 18260544481312509875
38570 142 18273493481566599343
4015057 19 16915949650680230720
4058900 60 18336552629092111347
4073 2 18334016069786130547
44802255 64 18115322197318963118
46194498 28 18191297170534150647
504843 32 18189058753353776371
5219985 9 9727638310439165650
563151 40 18342454898237888327
57527306 92 17167863084340970548
58260988 587 18335141943047813523
613672 6 9511186316607337997
6898599 12 18049170161759447924

> <PUBCHEM_SHAPE_MULTIPOLES>
577.63
18.88
4.15
1.56
16.65
6.5
0.07
-21.96
-8.52
-4.46
-0.66
0.32
0.14
-0.16

> <PUBCHEM_SHAPE_SELFOVERLAP>
1268.296

> <PUBCHEM_SHAPE_VOLUME>
311.6

> <PUBCHEM_COORDINATE_TYPE>
2
5
10

$$$$
