45784316
  -OEChem-12032416203D

 47 50  0     1  0  0  0  0  0999 V2000
   -2.4887    1.0890    0.0808 N   0  0  1  0  0  0  0  0  0  0  0  0
    2.0431    0.0690    1.2562 N   0  0  0  0  0  0  0  0  0  0  0  0
    1.6372    0.8034   -0.8019 N   0  0  0  0  0  0  0  0  0  0  0  0
    7.7975   -1.5705    0.5521 N   0  0  0  0  0  0  0  0  0  0  0  0
   -4.3966   -0.3914   -0.3716 C   0  0  0  0  0  0  0  0  0  0  0  0
   -3.5103    0.7375   -0.8944 C   0  0  0  0  0  0  0  0  0  0  0  0
   -0.2765    0.9341    0.8437 C   0  0  2  0  0  0  0  0  0  0  0  0
   -1.3453    0.1745    0.0464 C   0  0  0  0  0  0  0  0  0  0  0  0
   -1.9190    2.4143   -0.1623 C   0  0  0  0  0  0  0  0  0  0  0  0
   -5.4027   -0.8314   -1.4436 C   0  0  0  0  0  0  0  0  0  0  0  0
   -5.1193    0.0374    0.9127 C   0  0  0  0  0  0  0  0  0  0  0  0
   -0.6746    2.4149    0.7161 C   0  0  0  0  0  0  0  0  0  0  0  0
   -6.3362   -1.9235   -0.9264 C   0  0  0  0  0  0  0  0  0  0  0  0
   -6.0532   -1.0562    1.4259 C   0  0  0  0  0  0  0  0  0  0  0  0
   -7.0459   -1.4971    0.3548 C   0  0  0  0  0  0  0  0  0  0  0  0
    1.1310    0.6141    0.3960 C   0  0  0  0  0  0  0  0  0  0  0  0
    3.2160   -0.1051    0.5673 C   0  0  0  0  0  0  0  0  0  0  0  0
    2.9371    0.3608   -0.7145 C   0  0  0  0  0  0  0  0  0  0  0  0
    4.4591   -0.6146    0.9440 C   0  0  0  0  0  0  0  0  0  0  0  0
    3.9463    0.3239   -1.6913 C   0  0  0  0  0  0  0  0  0  0  0  0
    5.4520   -0.6439   -0.0408 C   0  0  0  0  0  0  0  0  0  0  0  0
    5.2023   -0.1834   -1.3356 C   0  0  0  0  0  0  0  0  0  0  0  0
    6.7468   -1.1555    0.2864 C   0  0  0  0  0  0  0  0  0  0  0  0
   -3.7711   -1.2639   -0.1386 H   0  0  0  0  0  0  0  0  0  0  0  0
   -4.1509    1.6099   -1.0840 H   0  0  0  0  0  0  0  0  0  0  0  0
   -3.0677    0.4704   -1.8630 H   0  0  0  0  0  0  0  0  0  0  0  0
   -0.3757    0.6589    1.9039 H   0  0  0  0  0  0  0  0  0  0  0  0
   -1.0094   -0.0187   -0.9810 H   0  0  0  0  0  0  0  0  0  0  0  0
   -1.5705   -0.7876    0.5186 H   0  0  0  0  0  0  0  0  0  0  0  0
   -2.6069    3.2185    0.1170 H   0  0  0  0  0  0  0  0  0  0  0  0
   -1.6329    2.5449   -1.2140 H   0  0  0  0  0  0  0  0  0  0  0  0
   -6.0010    0.0288   -1.7702 H   0  0  0  0  0  0  0  0  0  0  0  0
   -4.8700   -1.2017   -2.3277 H   0  0  0  0  0  0  0  0  0  0  0  0
   -4.3999    0.2743    1.7050 H   0  0  0  0  0  0  0  0  0  0  0  0
   -5.7020    0.9492    0.7284 H   0  0  0  0  0  0  0  0  0  0  0  0
   -0.9151    2.8140    1.7095 H   0  0  0  0  0  0  0  0  0  0  0  0
    0.1145    3.0424    0.2884 H   0  0  0  0  0  0  0  0  0  0  0  0
   -5.7594   -2.8373   -0.7376 H   0  0  0  0  0  0  0  0  0  0  0  0
   -7.0784   -2.1678   -1.6948 H   0  0  0  0  0  0  0  0  0  0  0  0
   -6.5975   -0.6933    2.3051 H   0  0  0  0  0  0  0  0  0  0  0  0
   -5.4597   -1.9195    1.7515 H   0  0  0  0  0  0  0  0  0  0  0  0
   -7.6534   -2.3266    0.7338 H   0  0  0  0  0  0  0  0  0  0  0  0
   -7.7339   -0.6719    0.1334 H   0  0  0  0  0  0  0  0  0  0  0  0
    1.8851   -0.1655    2.2273 H   0  0  0  0  0  0  0  0  0  0  0  0
    4.6372   -0.9686    1.9543 H   0  0  0  0  0  0  0  0  0  0  0  0
    3.7620    0.6793   -2.7000 H   0  0  0  0  0  0  0  0  0  0  0  0
    5.9844   -0.2122   -2.0920 H   0  0  0  0  0  0  0  0  0  0  0  0
  1  6  1  0  0  0  0
  1  8  1  0  0  0  0
  1  9  1  0  0  0  0
  2 16  1  0  0  0  0
  2 17  1  0  0  0  0
  2 44  1  0  0  0  0
  3 16  2  0  0  0  0
  3 18  1  0  0  0  0
  4 23  3  0  0  0  0
  5  6  1  0  0  0  0
  5 10  1  0  0  0  0
  5 11  1  0  0  0  0
  5 24  1  0  0  0  0
  6 25  1  0  0  0  0
  6 26  1  0  0  0  0
  7  8  1  0  0  0  0
  7 12  1  0  0  0  0
  7 16  1  0  0  0  0
  7 27  1  0  0  0  0
  8 28  1  0  0  0  0
  8 29  1  0  0  0  0
  9 12  1  0  0  0  0
  9 30  1  0  0  0  0
  9 31  1  0  0  0  0
 10 13  1  0  0  0  0
 10 32  1  0  0  0  0
 10 33  1  0  0  0  0
 11 14  1  0  0  0  0
 11 34  1  0  0  0  0
 11 35  1  0  0  0  0
 12 36  1  0  0  0  0
 12 37  1  0  0  0  0
 13 15  1  0  0  0  0
 13 38  1  0  0  0  0
 13 39  1  0  0  0  0
 14 15  1  0  0  0  0
 14 40  1  0  0  0  0
 14 41  1  0  0  0  0
 15 42  1  0  0  0  0
 15 43  1  0  0  0  0
 17 18  2  0  0  0  0
 17 19  1  0  0  0  0
 18 20  1  0  0  0  0
 19 21  2  0  0  0  0
 19 45  1  0  0  0  0
 20 22  2  0  0  0  0
 20 46  1  0  0  0  0
 21 22  1  0  0  0  0
 21 23  1  0  0  0  0
 22 47  1  0  0  0  0
M  END
> <PUBCHEM_COMPOUND_CID>
45784316

> <PUBCHEM_CONFORMER_RMSD>
0.8

> <PUBCHEM_CONFORMER_DIVERSEORDER>
1
21
38
30
41
32
27
16
9
7
12
6
31
23
40
14
28
35
25
37
19
36
17
11
2
4
3
18
15
33
5
24
26
10
29
22
39
20
8
34
13

> <PUBCHEM_MMFF94_PARTIAL_CHARGES>
20
1 -0.81
16 0.01
17 -0.15
18 0.23
19 -0.15
2 0.03
20 -0.15
21 0.07
22 -0.15
23 0.48
3 -0.57
4 -0.56
44 0.27
45 0.15
46 0.15
47 0.15
6 0.27
7 0.18
8 0.27
9 0.27

> <PUBCHEM_EFFECTIVE_ROTOR_COUNT>
5.2

> <PUBCHEM_PHARMACOPHORE_FEATURES>
8
1 1 cation
1 2 donor
1 4 acceptor
3 2 3 16 cation
5 1 7 8 9 12 rings
5 2 3 16 17 18 rings
6 17 18 19 20 21 22 rings
6 5 10 11 13 14 15 rings

> <PUBCHEM_HEAVY_ATOM_COUNT>
23

> <PUBCHEM_ATOM_DEF_STEREO_COUNT>
1

> <PUBCHEM_ATOM_UDEF_STEREO_COUNT>
0

> <PUBCHEM_BOND_DEF_STEREO_COUNT>
0

> <PUBCHEM_BOND_UDEF_STEREO_COUNT>
0

> <PUBCHEM_ISOTOPIC_ATOM_COUNT>
0

> <PUBCHEM_COMPONENT_COUNT>
1

> <PUBCHEM_CACTVS_TAUTO_COUNT>
2

> <PUBCHEM_CONFORMER_ID>
02BA9CFC00000001

> <PUBCHEM_MMFF94_ENERGY>
30.4684

> <PUBCHEM_FEATURE_SELFOVERLAP>
40.704

> <PUBCHEM_SHAPE_FINGERPRINT>
10 15 12031790284139616823
10554248 39 13045940171500148650
10693767 8 17169540823801302690
10763959 59 12901551243288244558
11089746 13 10881406456131855054
11963148 33 18412256242364835407
12011746 2 13623532355063717854
12166972 35 17894354388682254492
12236239 1 18113903732534575724
12760667 363 18410575089538438099
13403585 85 14476968874355591251
13668630 136 18040716935818126134
13673619 4 18131068242567547793
13685833 64 18131350825439728323
13862211 1 18412825806867435727
14123256 34 18412829109829174563
14211702 104 18338521816206584822
14251764 30 18342459266171433879
14341114 176 14548744997136560968
14528608 73 14634865375259084967
14556957 393 17313115115789147821
14765038 42 14333119780867724516
14849402 71 15625361567824131122
15003188 100 14707215460506298247
15142383 8 14979964635624205139
15183329 4 16153703211059499979
15238133 3 11599717419996274194
15348495 7 15554159372152319607
15537594 2 18342457045679130071
15716309 27 18201719570092100571
16994733 274 9654704393678199694
17093844 174 17632574921279398377
17780758 139 16988562407953510587
17844677 252 18273779354469008385
1813 80 18272096028247910285
18681886 176 18113333116212165872
190975 80 17632006546265174362
200 152 17967535653222363321
20281389 69 11312059842110637403
21054139 6 18186800245338796546
21150785 3 17675928703322190534
21267235 1 18410013234226573290
21403212 168 17131839747068756423
21521239 73 17313104151017026754
21623969 137 16487256564920996094
21637258 2 18412543228052468637
221357 26 16081082684379908950
22224240 67 14979950372248707884
22288116 15 13695878051677014387
22950370 63 18343308093538217141
23035841 295 18411141342237398283
23402539 116 18260269607542517845
23522609 53 18124910990411426049
23559900 14 17750239264761895145
23576562 1 14635739500226490974
23845131 108 15907176031339846617
2748736 6 8502379927546913463
2767999 5 8430321216869846231
2838139 119 12468631751170496095
29717793 49 17967817120130956854
3004659 81 17748821929822282690
312425 54 16415488151205577295
3178227 256 15841545272509434218
351380 3 18411418432094606791
3663271 9 13542460968906566127
3737641 26 17703239399261199767
393628 194 8358260375980106903
465052 167 18342462590365312535
5104073 3 16056046710537975538
5283156 175 18187085031328856921
543368 44 11747205876183155567
5758199 1 13758062010086589550
59682541 35 17346308320282083066
59682541 52 15068613869168732370
7226269 152 9511464424803993839
7495541 125 18060134345513930376
7970288 3 18341609339262180175
8863177 126 18118972631800309851

> <PUBCHEM_SHAPE_MULTIPOLES>
453.41
20.27
1.83
1.36
1.79
0.69
-0.21
-15.72
0.38
-1.53
0.11
-0.15
-0.15
-0.74

> <PUBCHEM_SHAPE_SELFOVERLAP>
973.633

> <PUBCHEM_SHAPE_VOLUME>
246.7

> <PUBCHEM_COORDINATE_TYPE>
2
5
10

$$$$
