11941648
  -OEChem-12032416383D

 48 51  0     1  0  0  0  0  0999 V2000
   -1.5871   -2.8609    0.5592 O   0  0  0  0  0  0  0  0  0  0  0  0
   -0.4060   -1.2608   -1.8452 O   0  0  0  0  0  0  0  0  0  0  0  0
   -5.1757   -0.4824   -0.0274 O   0  0  0  0  0  0  0  0  0  0  0  0
    3.9319    0.5356   -1.6340 O   0  0  0  0  0  0  0  0  0  0  0  0
    1.0499   -1.5360    1.4915 N   0  0  0  0  0  0  0  0  0  0  0  0
   -3.2001   -0.0743   -1.1774 N   0  0  0  0  0  0  0  0  0  0  0  0
   -4.7342    1.6191   -0.9063 N   0  0  0  0  0  0  0  0  0  0  0  0
    2.7412   -0.2249    0.5282 N   0  0  0  0  0  0  0  0  0  0  0  0
    2.4025   -0.2506    2.9140 N   0  0  0  0  0  0  0  0  0  0  0  0
   -0.3630   -1.0712   -0.4208 C   0  0  1  0  0  0  0  0  0  0  0  0
   -1.7106   -1.4947    0.1302 C   0  0  1  0  0  0  0  0  0  0  0  0
    0.6132   -2.0378    0.2070 C   0  0  2  0  0  0  0  0  0  0  0  0
   -2.6404   -1.3988   -1.0578 C   0  0  2  0  0  0  0  0  0  0  0  0
   -0.2274   -3.2881    0.3901 C   0  0  0  0  0  0  0  0  0  0  0  0
   -1.7156   -1.7126   -2.2204 C   0  0  0  0  0  0  0  0  0  0  0  0
    2.0957   -0.6439    1.6492 C   0  0  0  0  0  0  0  0  0  0  0  0
   -4.4382    0.2833   -0.6467 C   0  0  0  0  0  0  0  0  0  0  0  0
    3.7549    0.6446    0.7189 C   0  0  0  0  0  0  0  0  0  0  0  0
   -5.9571    2.2491   -0.4677 C   0  0  0  0  0  0  0  0  0  0  0  0
    3.4267    0.6198    3.0314 C   0  0  0  0  0  0  0  0  0  0  0  0
    4.1459    1.1064    1.9591 C   0  0  0  0  0  0  0  0  0  0  0  0
    4.4188    1.0691   -0.4848 C   0  0  0  0  0  0  0  0  0  0  0  0
   -5.7445    2.8353    0.8883 C   0  0  0  0  0  0  0  0  0  0  0  0
    5.4666    1.9172   -0.7469 C   0  0  0  0  0  0  0  0  0  0  0  0
    5.6370    1.9054   -2.1519 C   0  0  0  0  0  0  0  0  0  0  0  0
   -6.4639    2.5018    1.9658 C   0  0  0  0  0  0  0  0  0  0  0  0
    4.6794    1.0502   -2.6455 C   0  0  0  0  0  0  0  0  0  0  0  0
   -0.1450   -0.0136   -0.2412 H   0  0  0  0  0  0  0  0  0  0  0  0
   -2.0231   -0.9051    0.9981 H   0  0  0  0  0  0  0  0  0  0  0  0
    1.4733   -2.2734   -0.4304 H   0  0  0  0  0  0  0  0  0  0  0  0
   -3.4611   -2.1228   -1.0129 H   0  0  0  0  0  0  0  0  0  0  0  0
    0.0683   -3.9018    1.2466 H   0  0  0  0  0  0  0  0  0  0  0  0
   -0.1952   -3.9152   -0.5078 H   0  0  0  0  0  0  0  0  0  0  0  0
   -2.0088   -1.2353   -3.1605 H   0  0  0  0  0  0  0  0  0  0  0  0
   -1.6503   -2.7933   -2.3881 H   0  0  0  0  0  0  0  0  0  0  0  0
    0.5427   -1.8005    2.3284 H   0  0  0  0  0  0  0  0  0  0  0  0
   -2.6385    0.6508   -1.6138 H   0  0  0  0  0  0  0  0  0  0  0  0
   -4.0543    2.1807   -1.4099 H   0  0  0  0  0  0  0  0  0  0  0  0
   -6.7700    1.5153   -0.4786 H   0  0  0  0  0  0  0  0  0  0  0  0
   -6.1963    3.0417   -1.1835 H   0  0  0  0  0  0  0  0  0  0  0  0
    3.6609    0.9254    4.0456 H   0  0  0  0  0  0  0  0  0  0  0  0
    4.9599    1.8041    2.1096 H   0  0  0  0  0  0  0  0  0  0  0  0
   -4.9676    3.5882    0.9963 H   0  0  0  0  0  0  0  0  0  0  0  0
    6.0452    2.4801   -0.0281 H   0  0  0  0  0  0  0  0  0  0  0  0
    6.3663    2.4518   -2.7322 H   0  0  0  0  0  0  0  0  0  0  0  0
   -6.2664    2.9692    2.9243 H   0  0  0  0  0  0  0  0  0  0  0  0
   -7.2553    1.7622    1.9130 H   0  0  0  0  0  0  0  0  0  0  0  0
    4.4134    0.7186   -3.6384 H   0  0  0  0  0  0  0  0  0  0  0  0
  1 11  1  0  0  0  0
  1 14  1  0  0  0  0
  2 10  1  0  0  0  0
  2 15  1  0  0  0  0
  3 17  2  0  0  0  0
  4 22  1  0  0  0  0
  4 27  1  0  0  0  0
  5 12  1  0  0  0  0
  5 16  1  0  0  0  0
  5 36  1  0  0  0  0
  6 13  1  0  0  0  0
  6 17  1  0  0  0  0
  6 37  1  0  0  0  0
  7 17  1  0  0  0  0
  7 19  1  0  0  0  0
  7 38  1  0  0  0  0
  8 16  1  0  0  0  0
  8 18  2  0  0  0  0
  9 16  2  0  0  0  0
  9 20  1  0  0  0  0
 10 11  1  0  0  0  0
 10 12  1  0  0  0  0
 10 28  1  0  0  0  0
 11 13  1  0  0  0  0
 11 29  1  0  0  0  0
 12 14  1  0  0  0  0
 12 30  1  0  0  0  0
 13 15  1  0  0  0  0
 13 31  1  0  0  0  0
 14 32  1  0  0  0  0
 14 33  1  0  0  0  0
 15 34  1  0  0  0  0
 15 35  1  0  0  0  0
 18 21  1  0  0  0  0
 18 22  1  0  0  0  0
 19 23  1  0  0  0  0
 19 39  1  0  0  0  0
 19 40  1  0  0  0  0
 20 21  2  0  0  0  0
 20 41  1  0  0  0  0
 21 42  1  0  0  0  0
 22 24  2  0  0  0  0
 23 26  2  0  0  0  0
 23 43  1  0  0  0  0
 24 25  1  0  0  0  0
 24 44  1  0  0  0  0
 25 27  2  0  0  0  0
 25 45  1  0  0  0  0
 26 46  1  0  0  0  0
 26 47  1  0  0  0  0
 27 48  1  0  0  0  0
M  END
> <PUBCHEM_COMPOUND_CID>
11941648

> <PUBCHEM_CONFORMER_RMSD>
1

> <PUBCHEM_CONFORMER_DIVERSEORDER>
1
70
96
66
46
78
57
82
17
84
31
74
102
61
42
58
77
79
30
29
22
68
56
53
45
69
39
100
11
83
85
27
15
93
20
55
49
64
67
95
34
7
47
10
86
38
51
19
71
99
18
28
76
26
62
9
72
63
97
23
87
88
40
5
54
44
94
52
81
80
21
14
6
89
50
24
36
25
101
41
33
60
12
98
43
65
59
73
90
37
35
13
92
8
75
91
48
32
4
16
2
3

> <PUBCHEM_MMFF94_PARTIAL_CHARGES>
38
1 -0.56
10 0.28
11 0.28
12 0.37
13 0.3
14 0.28
15 0.28
16 0.72
17 0.69
18 0.36
19 0.44
2 -0.56
20 0.16
21 -0.15
22 0.09
23 -0.29
24 -0.15
25 -0.15
26 -0.3
27 -0.01
3 -0.57
36 0.4
37 0.37
38 0.37
4 -0.28
41 0.15
42 0.15
43 0.15
44 0.15
45 0.15
46 0.15
47 0.15
48 0.15
5 -0.87
6 -0.73
7 -0.73
8 -0.62
9 -0.62

> <PUBCHEM_EFFECTIVE_ROTOR_COUNT>
9.2

> <PUBCHEM_PHARMACOPHORE_FEATURES>
14
1 1 acceptor
1 2 acceptor
1 26 hydrophobe
1 3 acceptor
1 4 acceptor
1 5 donor
1 6 donor
1 7 donor
1 8 acceptor
4 5 8 9 16 cation
5 1 10 11 12 14 rings
5 2 10 11 13 15 rings
5 4 22 24 25 27 rings
6 8 9 16 18 20 21 rings

> <PUBCHEM_HEAVY_ATOM_COUNT>
27

> <PUBCHEM_ATOM_DEF_STEREO_COUNT>
4

> <PUBCHEM_ATOM_UDEF_STEREO_COUNT>
0

> <PUBCHEM_BOND_DEF_STEREO_COUNT>
0

> <PUBCHEM_BOND_UDEF_STEREO_COUNT>
0

> <PUBCHEM_ISOTOPIC_ATOM_COUNT>
0

> <PUBCHEM_COMPONENT_COUNT>
1

> <PUBCHEM_CACTVS_TAUTO_COUNT>
9

> <PUBCHEM_CONFORMER_ID>
00B6371000000001

> <PUBCHEM_MMFF94_ENERGY>
53.2558

> <PUBCHEM_FEATURE_SELFOVERLAP>
71.816

> <PUBCHEM_SHAPE_FINGERPRINT>
10674148 151 18259994782346034244
11578080 2 18265918911756703499
11720765 8 15625940881571183872
1200032 147 17967829245071527276
12390115 104 18411986866890161071
12892183 10 15792007840506712439
13627167 48 17632303410084009337
13828863 39 17386015004279231101
14114211 68 18200326407345091729
14341114 328 17749101201776149963
14347329 18 18272374152706856065
14765038 42 17241618389178473332
14840074 17 18336271154701846189
14848178 5 11530765877829903889
14950920 106 15575261087369335289
15163728 17 18410860936591688239
15183329 4 16056889030506624207
15238133 3 18337095835460901952
15297060 5 18411145731657161880
15419009 47 13541086485082922025
15684389 69 17968670423296501577
16120349 67 18339936960242267248
1768 23 18259992569330385917
20567600 234 17822000975067125669
20567600 9 17632013027576812505
21033650 10 18200588236714362634
21315763 87 14707218690886713737
21458453 9 15214160741343141965
21585480 29 15285655334177932713
2838139 119 17845919763528080913
312425 83 16844151536389895656
38570 142 18337967700520122789
392239 28 15140955205567536720
437795 70 16773526477238746969
4408954 87 15647637647301325265
444735 79 14057011554207770928
46194498 28 16842182379920805578
57724786 102 17967805025308151666
59025328 239 14764357037400698752
59682541 52 15195563498617785557
7808743 9 18261391195233324726

> <PUBCHEM_SHAPE_MULTIPOLES>
507.27
15.26
3.26
2.81
11.25
0.54
0.6
-18.23
-3.24
4.25
0.39
-4.13
-0.75
-2.31

> <PUBCHEM_SHAPE_SELFOVERLAP>
1092.585

> <PUBCHEM_SHAPE_VOLUME>
278

> <PUBCHEM_COORDINATE_TYPE>
2
5
10

$$$$
