45361091
  -OEChem-12032416253D

 67 70  0     1  0  0  0  0  0999 V2000
    7.2016   -2.0132   -0.1548 S   0  0  0  0  0  0  0  0  0  0  0  0
    0.0160   -0.1136    1.4383 O   0  0  0  0  0  0  0  0  0  0  0  0
   -6.4317    0.4459    0.2320 O   0  0  0  0  0  0  0  0  0  0  0  0
   -5.4191   -4.3417   -0.4848 O   0  0  0  0  0  0  0  0  0  0  0  0
    8.4217   -1.2479   -0.3721 O   0  0  0  0  0  0  0  0  0  0  0  0
    7.1605   -3.0262    0.8903 O   0  0  0  0  0  0  0  0  0  0  0  0
    1.4977    1.5408   -0.0981 N   0  0  1  0  0  0  0  0  0  0  0  0
   -2.0049    2.1557   -0.9610 N   0  0  1  0  0  0  0  0  0  0  0  0
   -1.6626    1.3986    1.8018 N   0  0  0  0  0  0  0  0  0  0  0  0
   -5.3630   -1.6153    0.2252 N   0  0  0  0  0  0  0  0  0  0  0  0
   -0.5809    2.5426   -0.8514 C   0  0  1  0  0  0  0  0  0  0  0  0
    0.2188    2.0795    0.4017 C   0  0  1  0  0  0  0  0  0  0  0  0
    0.2987    2.0220   -2.0035 C   0  0  0  0  0  0  0  0  0  0  0  0
    1.7002    2.0888   -1.4347 C   0  0  0  0  0  0  0  0  0  0  0  0
   -2.8815    2.7240    0.1009 C   0  0  2  0  0  0  0  0  0  0  0  0
   -0.4631    1.0023    1.2413 C   0  0  0  0  0  0  0  0  0  0  0  0
   -2.2922    2.6743    1.5243 C   0  0  0  0  0  0  0  0  0  0  0  0
   -4.2366    1.9866    0.1339 C   0  0  0  0  0  0  0  0  0  0  0  0
    2.6245    1.8163    0.7841 C   0  0  0  0  0  0  0  0  0  0  0  0
   -2.5368    2.4881   -2.2935 C   0  0  0  0  0  0  0  0  0  0  0  0
   -4.0626    0.4804    0.1484 C   0  0  0  0  0  0  0  0  0  0  0  0
    3.7657    0.8624    0.5507 C   0  0  0  0  0  0  0  0  0  0  0  0
   -5.3953   -0.2226    0.2071 C   0  0  0  0  0  0  0  0  0  0  0  0
    3.6953   -0.4421    1.0398 C   0  0  0  0  0  0  0  0  0  0  0  0
    4.8932    1.2828   -0.1547 C   0  0  0  0  0  0  0  0  0  0  0  0
   -6.6113   -2.3761    0.2767 C   0  0  0  0  0  0  0  0  0  0  0  0
   -4.1522   -2.4373    0.3244 C   0  0  0  0  0  0  0  0  0  0  0  0
    4.7524   -1.3260    0.8237 C   0  0  0  0  0  0  0  0  0  0  0  0
    5.9505    0.3990   -0.3708 C   0  0  0  0  0  0  0  0  0  0  0  0
    5.8800   -0.9054    0.1184 C   0  0  0  0  0  0  0  0  0  0  0  0
   -6.5719   -3.5279   -0.7174 C   0  0  0  0  0  0  0  0  0  0  0  0
   -4.2156   -3.5914   -0.6683 C   0  0  0  0  0  0  0  0  0  0  0  0
    6.8045   -2.8035   -1.6980 C   0  0  0  0  0  0  0  0  0  0  0  0
   -0.5198    3.6416   -0.8850 H   0  0  0  0  0  0  0  0  0  0  0  0
    0.4051    2.9521    1.0419 H   0  0  0  0  0  0  0  0  0  0  0  0
    0.0441    0.9840   -2.2562 H   0  0  0  0  0  0  0  0  0  0  0  0
    0.2085    2.6321   -2.9082 H   0  0  0  0  0  0  0  0  0  0  0  0
    2.3969    1.4917   -2.0309 H   0  0  0  0  0  0  0  0  0  0  0  0
    2.0487    3.1292   -1.4124 H   0  0  0  0  0  0  0  0  0  0  0  0
   -3.0820    3.7828   -0.1145 H   0  0  0  0  0  0  0  0  0  0  0  0
   -1.5609    3.4763    1.6661 H   0  0  0  0  0  0  0  0  0  0  0  0
   -3.0639    2.8280    2.2868 H   0  0  0  0  0  0  0  0  0  0  0  0
   -4.8164    2.3108    1.0086 H   0  0  0  0  0  0  0  0  0  0  0  0
   -4.8466    2.2830   -0.7284 H   0  0  0  0  0  0  0  0  0  0  0  0
    2.9600    2.8596    0.7092 H   0  0  0  0  0  0  0  0  0  0  0  0
    2.3237    1.6908    1.8339 H   0  0  0  0  0  0  0  0  0  0  0  0
   -2.1278    0.7559    2.4353 H   0  0  0  0  0  0  0  0  0  0  0  0
   -3.5764    2.1721   -2.4157 H   0  0  0  0  0  0  0  0  0  0  0  0
   -1.9988    1.9573   -3.0852 H   0  0  0  0  0  0  0  0  0  0  0  0
   -2.4808    3.5639   -2.4944 H   0  0  0  0  0  0  0  0  0  0  0  0
   -3.5194    0.1476    1.0305 H   0  0  0  0  0  0  0  0  0  0  0  0
   -3.5477    0.1324   -0.7527 H   0  0  0  0  0  0  0  0  0  0  0  0
    2.8229   -0.7825    1.5910 H   0  0  0  0  0  0  0  0  0  0  0  0
    4.9591    2.2954   -0.5437 H   0  0  0  0  0  0  0  0  0  0  0  0
   -7.4742   -1.7324    0.0816 H   0  0  0  0  0  0  0  0  0  0  0  0
   -6.6984   -2.7614    1.2995 H   0  0  0  0  0  0  0  0  0  0  0  0
   -4.1282   -2.8245    1.3499 H   0  0  0  0  0  0  0  0  0  0  0  0
   -3.2398   -1.8615    0.1629 H   0  0  0  0  0  0  0  0  0  0  0  0
    4.6728   -2.3391    1.2075 H   0  0  0  0  0  0  0  0  0  0  0  0
    6.8159    0.7450   -0.9288 H   0  0  0  0  0  0  0  0  0  0  0  0
   -6.5546   -3.1638   -1.7515 H   0  0  0  0  0  0  0  0  0  0  0  0
   -7.4585   -4.1583   -0.5984 H   0  0  0  0  0  0  0  0  0  0  0  0
   -3.3703   -4.2686   -0.5114 H   0  0  0  0  0  0  0  0  0  0  0  0
   -4.1691   -3.2306   -1.7028 H   0  0  0  0  0  0  0  0  0  0  0  0
    6.7500   -2.0456   -2.4818 H   0  0  0  0  0  0  0  0  0  0  0  0
    5.8512   -3.3251   -1.5947 H   0  0  0  0  0  0  0  0  0  0  0  0
    7.5974   -3.5190   -1.9261 H   0  0  0  0  0  0  0  0  0  0  0  0
  1  5  2  0  0  0  0
  1  6  2  0  0  0  0
  1 30  1  0  0  0  0
  1 33  1  0  0  0  0
  2 16  2  0  0  0  0
  3 23  2  0  0  0  0
  4 31  1  0  0  0  0
  4 32  1  0  0  0  0
  7 12  1  0  0  0  0
  7 14  1  0  0  0  0
  7 19  1  0  0  0  0
  8 11  1  0  0  0  0
  8 15  1  0  0  0  0
  8 20  1  0  0  0  0
  9 16  1  0  0  0  0
  9 17  1  0  0  0  0
  9 47  1  0  0  0  0
 10 23  1  0  0  0  0
 10 26  1  0  0  0  0
 10 27  1  0  0  0  0
 11 12  1  0  0  0  0
 11 13  1  0  0  0  0
 11 34  1  0  0  0  0
 12 16  1  0  0  0  0
 12 35  1  0  0  0  0
 13 14  1  0  0  0  0
 13 36  1  0  0  0  0
 13 37  1  0  0  0  0
 14 38  1  0  0  0  0
 14 39  1  0  0  0  0
 15 17  1  0  0  0  0
 15 18  1  0  0  0  0
 15 40  1  0  0  0  0
 17 41  1  0  0  0  0
 17 42  1  0  0  0  0
 18 21  1  0  0  0  0
 18 43  1  0  0  0  0
 18 44  1  0  0  0  0
 19 22  1  0  0  0  0
 19 45  1  0  0  0  0
 19 46  1  0  0  0  0
 20 48  1  0  0  0  0
 20 49  1  0  0  0  0
 20 50  1  0  0  0  0
 21 23  1  0  0  0  0
 21 51  1  0  0  0  0
 21 52  1  0  0  0  0
 22 24  2  0  0  0  0
 22 25  1  0  0  0  0
 24 28  1  0  0  0  0
 24 53  1  0  0  0  0
 25 29  2  0  0  0  0
 25 54  1  0  0  0  0
 26 31  1  0  0  0  0
 26 55  1  0  0  0  0
 26 56  1  0  0  0  0
 27 32  1  0  0  0  0
 27 57  1  0  0  0  0
 27 58  1  0  0  0  0
 28 30  2  0  0  0  0
 28 59  1  0  0  0  0
 29 30  1  0  0  0  0
 29 60  1  0  0  0  0
 31 61  1  0  0  0  0
 31 62  1  0  0  0  0
 32 63  1  0  0  0  0
 32 64  1  0  0  0  0
 33 65  1  0  0  0  0
 33 66  1  0  0  0  0
 33 67  1  0  0  0  0
M  END
> <PUBCHEM_COMPOUND_CID>
45361091

> <PUBCHEM_CONFORMER_RMSD>
1.2

> <PUBCHEM_CONFORMER_DIVERSEORDER>
1
111
145
56
46
164
96
16
139
77
109
103
84
38
61
40
76
47
87
117
115
101
159
70
172
98
2
52
169
110
155
158
144
88
59
37
34
134
118
50
24
68
129
74
108
86
83
23
64
154
140
7
72
125
17
150
5
167
152
32
48
100
6
162
43
41
168
112
149
163
8
10
137
142
166
160
104
22
114
171
122
95
161
132
97
13
81
28
107
119
65
44
138
105
94
120
99
66
165
12
36
73
141
78
15
93
116
62
20
42
71
31
29
170
126
89
151
133
19
35
136
49
127
130
27
21
80
18
102
92
57
54
131
67
85
30
9
33
55
4
91
14
79
82
26
147
113
60
135
25
146
45
123
3
39
63
153
75
121
148
69
157
143
58
51
124
128
90
156
106
53
11

> <PUBCHEM_MMFF94_PARTIAL_CHARGES>
36
1 1.2
10 -0.66
11 0.27
12 0.33
14 0.27
15 0.27
16 0.57
17 0.3
19 0.41
2 -0.57
20 0.27
21 0.06
22 -0.14
23 0.57
24 -0.15
25 -0.15
26 0.3
27 0.3
28 -0.15
29 -0.15
3 -0.57
30 -0.01
31 0.28
32 0.28
33 0.11
4 -0.56
47 0.37
5 -0.65
53 0.15
54 0.15
59 0.15
6 -0.65
60 0.15
7 -0.81
8 -0.81
9 -0.73

> <PUBCHEM_EFFECTIVE_ROTOR_COUNT>
9.6

> <PUBCHEM_PHARMACOPHORE_FEATURES>
12
1 2 acceptor
1 3 acceptor
1 4 acceptor
1 5 acceptor
1 6 acceptor
1 7 cation
1 8 cation
1 9 donor
5 7 11 12 13 14 rings
6 22 24 25 28 29 30 rings
6 4 10 26 27 31 32 rings
7 8 9 11 12 15 16 17 rings

> <PUBCHEM_HEAVY_ATOM_COUNT>
33

> <PUBCHEM_ATOM_DEF_STEREO_COUNT>
3

> <PUBCHEM_ATOM_UDEF_STEREO_COUNT>
0

> <PUBCHEM_BOND_DEF_STEREO_COUNT>
0

> <PUBCHEM_BOND_UDEF_STEREO_COUNT>
0

> <PUBCHEM_ISOTOPIC_ATOM_COUNT>
0

> <PUBCHEM_COMPONENT_COUNT>
1

> <PUBCHEM_CACTVS_TAUTO_COUNT>
3

> <PUBCHEM_CONFORMER_ID>
02B427C300000001

> <PUBCHEM_MMFF94_ENERGY>
80.7945

> <PUBCHEM_FEATURE_SELFOVERLAP>
60.952

> <PUBCHEM_SHAPE_FINGERPRINT>
10554248 39 14490463133387211224
10622 236 18335414720567783823
11135609 99 18343864420704575358
11393246 34 18411979170071402975
11497681 19 18336266829642833940
117089 54 17899705854015502643
11761917 116 18338802325015984598
12422481 6 17989205983850075879
12522641 68 17320685081585370397
12895837 130 8790591615852477593
13347071 3 18342459261603219086
13383668 90 17677615254699764079
1361 4 18341050813098257898
13690498 29 17749385923579936029
13782708 43 18410573951525124432
13947930 73 17846218890277254838
14068700 675 18411701014687661432
14178184 131 18130782377971126846
14211702 104 18130514046115983358
14856354 85 18201159832384658037
15082195 135 17751090300427573860
15163728 17 10810159164274257577
15352257 5 18413110528971277998
15361156 5 17531540771469385812
15510800 12 18202285792599956391
15705408 1 17385735715947790860
16112460 7 11815314036648418466
16994733 274 9007051340900323332
18608769 82 18410853218973177130
19438510 23 10231763292241852293
20775438 99 17537714778419438537
208703 8 18338229479004277559
21424621 283 10087639299615207036
24983565 74 18120081798367731754
2838139 119 8142091944371839817
32027 91 18271236248930696049
392239 28 14476665387428986240
4017518 198 18339073771670794367
44880168 125 18059285574151079071
474113 269 18058436764565429071
54039377 194 18260557749147021515
5718773 13 18413388752130179418
8863177 126 18341608239744855320
999808 66 17917710154765609972

> <PUBCHEM_SHAPE_MULTIPOLES>
633.7
21.2
4.93
1.52
19.13
3.99
0.45
26.43
1.5
-6.06
1.34
0.2
-0.81
-0.3

> <PUBCHEM_SHAPE_SELFOVERLAP>
1315.656

> <PUBCHEM_SHAPE_VOLUME>
362.1

> <PUBCHEM_COORDINATE_TYPE>
2
5
10

$$$$
