45783966
  -OEChem-12032416263D

 76 79  0     1  0  0  0  0  0999 V2000
    2.1417   -2.1381   -0.3560 O   0  0  0  0  0  0  0  0  0  0  0  0
   -2.9181    6.0107    0.2607 O   0  0  0  0  0  0  0  0  0  0  0  0
   -2.7243    1.0412    0.3318 N   0  0  0  0  0  0  0  0  0  0  0  0
   -3.5163    3.7780    0.0310 N   0  0  0  0  0  0  0  0  0  0  0  0
    1.0591   -2.5479    1.5583 N   0  0  0  0  0  0  0  0  0  0  0  0
    2.0121   -1.5775    1.8058 N   0  0  0  0  0  0  0  0  0  0  0  0
    6.8187    2.1437   -0.6677 N   0  0  0  0  0  0  0  0  0  0  0  0
   -2.7300   -1.5772   -0.9863 C   0  0  1  0  0  0  0  0  0  0  0  0
   -2.9769   -1.4013    0.5302 C   0  0  2  0  0  0  0  0  0  0  0  0
   -1.3370   -2.1708   -1.2391 C   0  0  0  0  0  0  0  0  0  0  0  0
   -1.1070   -3.5182   -0.5216 C   0  0  2  0  0  0  0  0  0  0  0  0
   -3.8247   -2.4347   -1.6356 C   0  0  0  0  0  0  0  0  0  0  0  0
   -2.2917   -0.1429    1.0729 C   0  0  0  0  0  0  0  0  0  0  0  0
   -2.5273   -2.5957    1.3324 C   0  0  0  0  0  0  0  0  0  0  0  0
   -1.7033   -3.5573    0.8774 C   0  0  0  0  0  0  0  0  0  0  0  0
    0.3943   -3.8320   -0.5390 C   0  0  0  0  0  0  0  0  0  0  0  0
   -5.2026   -1.8487   -1.3441 C   0  0  0  0  0  0  0  0  0  0  0  0
   -3.5914   -2.5464   -3.1388 C   0  0  0  0  0  0  0  0  0  0  0  0
   -1.7367    2.1222    0.4641 C   0  0  0  0  0  0  0  0  0  0  0  0
   -4.0437    1.4899    0.8001 C   0  0  0  0  0  0  0  0  0  0  0  0
   -1.3875   -4.7528    1.7339 C   0  0  0  0  0  0  0  0  0  0  0  0
   -2.1676    3.3501   -0.3375 C   0  0  0  0  0  0  0  0  0  0  0  0
   -4.5200    2.7100    0.0097 C   0  0  0  0  0  0  0  0  0  0  0  0
    1.1708   -2.8448    0.2846 C   0  0  0  0  0  0  0  0  0  0  0  0
   -3.7813    5.1294    0.2474 C   0  0  0  0  0  0  0  0  0  0  0  0
    2.6196   -1.3700    0.6609 C   0  0  0  0  0  0  0  0  0  0  0  0
   -5.2229    5.5048    0.4815 C   0  0  0  0  0  0  0  0  0  0  0  0
    3.6884   -0.4756    0.3228 C   0  0  0  0  0  0  0  0  0  0  0  0
    3.9018   -0.1150   -1.0078 C   0  0  0  0  0  0  0  0  0  0  0  0
    4.5144    0.0343    1.3245 C   0  0  0  0  0  0  0  0  0  0  0  0
    4.9411    0.7551   -1.3366 C   0  0  0  0  0  0  0  0  0  0  0  0
    5.5538    0.9044    0.9957 C   0  0  0  0  0  0  0  0  0  0  0  0
    5.7671    1.2648   -0.3348 C   0  0  0  0  0  0  0  0  0  0  0  0
    7.6781    2.6850    0.3665 C   0  0  0  0  0  0  0  0  0  0  0  0
    7.0491    2.5233   -2.0473 C   0  0  0  0  0  0  0  0  0  0  0  0
   -2.7593   -0.6023   -1.4891 H   0  0  0  0  0  0  0  0  0  0  0  0
   -4.0402   -1.2937    0.7471 H   0  0  0  0  0  0  0  0  0  0  0  0
   -1.1251   -2.2791   -2.3082 H   0  0  0  0  0  0  0  0  0  0  0  0
   -0.6075   -1.4245   -0.9008 H   0  0  0  0  0  0  0  0  0  0  0  0
   -1.6087   -4.3025   -1.1046 H   0  0  0  0  0  0  0  0  0  0  0  0
   -3.8193   -3.4528   -1.2282 H   0  0  0  0  0  0  0  0  0  0  0  0
   -2.4746   -0.0269    2.1505 H   0  0  0  0  0  0  0  0  0  0  0  0
   -1.2051   -0.2696    0.9733 H   0  0  0  0  0  0  0  0  0  0  0  0
   -2.9276   -2.6693    2.3415 H   0  0  0  0  0  0  0  0  0  0  0  0
    0.5914   -4.8407   -0.1583 H   0  0  0  0  0  0  0  0  0  0  0  0
    0.7634   -3.8186   -1.5724 H   0  0  0  0  0  0  0  0  0  0  0  0
   -5.2253   -0.7641   -1.4942 H   0  0  0  0  0  0  0  0  0  0  0  0
   -5.5471   -2.0762   -0.3313 H   0  0  0  0  0  0  0  0  0  0  0  0
   -5.9552   -2.2841   -2.0121 H   0  0  0  0  0  0  0  0  0  0  0  0
   -3.4525   -1.5632   -3.6011 H   0  0  0  0  0  0  0  0  0  0  0  0
   -4.4490   -3.0218   -3.6285 H   0  0  0  0  0  0  0  0  0  0  0  0
   -2.7246   -3.1698   -3.3760 H   0  0  0  0  0  0  0  0  0  0  0  0
   -1.6061    2.3975    1.5192 H   0  0  0  0  0  0  0  0  0  0  0  0
   -0.7622    1.7921    0.0844 H   0  0  0  0  0  0  0  0  0  0  0  0
   -4.0076    1.7444    1.8680 H   0  0  0  0  0  0  0  0  0  0  0  0
   -4.7977    0.7063    0.6762 H   0  0  0  0  0  0  0  0  0  0  0  0
   -1.6015   -5.6756    1.1844 H   0  0  0  0  0  0  0  0  0  0  0  0
   -1.9932   -4.7741    2.6467 H   0  0  0  0  0  0  0  0  0  0  0  0
   -0.3391   -4.7669    2.0420 H   0  0  0  0  0  0  0  0  0  0  0  0
   -2.1828    3.1226   -1.4106 H   0  0  0  0  0  0  0  0  0  0  0  0
   -1.4485    4.1617   -0.1871 H   0  0  0  0  0  0  0  0  0  0  0  0
   -5.4759    3.0476    0.4154 H   0  0  0  0  0  0  0  0  0  0  0  0
   -4.6860    2.4455   -1.0420 H   0  0  0  0  0  0  0  0  0  0  0  0
   -5.3081    6.5933    0.5551 H   0  0  0  0  0  0  0  0  0  0  0  0
   -5.8442    5.1721   -0.3543 H   0  0  0  0  0  0  0  0  0  0  0  0
   -5.5764    5.0687    1.4195 H   0  0  0  0  0  0  0  0  0  0  0  0
    3.2710   -0.4888   -1.8107 H   0  0  0  0  0  0  0  0  0  0  0  0
    4.3658   -0.2355    2.3674 H   0  0  0  0  0  0  0  0  0  0  0  0
    5.0650    1.0064   -2.3854 H   0  0  0  0  0  0  0  0  0  0  0  0
    6.1688    1.2731    1.8107 H   0  0  0  0  0  0  0  0  0  0  0  0
    8.4421    3.3512   -0.0496 H   0  0  0  0  0  0  0  0  0  0  0  0
    8.2142    1.8877    0.8932 H   0  0  0  0  0  0  0  0  0  0  0  0
    7.1049    3.2802    1.0862 H   0  0  0  0  0  0  0  0  0  0  0  0
    7.9009    3.2060   -2.1426 H   0  0  0  0  0  0  0  0  0  0  0  0
    6.1818    3.0477   -2.4637 H   0  0  0  0  0  0  0  0  0  0  0  0
    7.2814    1.6487   -2.6653 H   0  0  0  0  0  0  0  0  0  0  0  0
  1 24  1  0  0  0  0
  1 26  1  0  0  0  0
  2 25  2  0  0  0  0
  3 13  1  0  0  0  0
  3 19  1  0  0  0  0
  3 20  1  0  0  0  0
  4 22  1  0  0  0  0
  4 23  1  0  0  0  0
  4 25  1  0  0  0  0
  5  6  1  0  0  0  0
  5 24  2  0  0  0  0
  6 26  2  0  0  0  0
  7 33  1  0  0  0  0
  7 34  1  0  0  0  0
  7 35  1  0  0  0  0
  8  9  1  0  0  0  0
  8 10  1  0  0  0  0
  8 12  1  0  0  0  0
  8 36  1  0  0  0  0
  9 13  1  0  0  0  0
  9 14  1  0  0  0  0
  9 37  1  0  0  0  0
 10 11  1  0  0  0  0
 10 38  1  0  0  0  0
 10 39  1  0  0  0  0
 11 15  1  0  0  0  0
 11 16  1  0  0  0  0
 11 40  1  0  0  0  0
 12 17  1  0  0  0  0
 12 18  1  0  0  0  0
 12 41  1  0  0  0  0
 13 42  1  0  0  0  0
 13 43  1  0  0  0  0
 14 15  2  0  0  0  0
 14 44  1  0  0  0  0
 15 21  1  0  0  0  0
 16 24  1  0  0  0  0
 16 45  1  0  0  0  0
 16 46  1  0  0  0  0
 17 47  1  0  0  0  0
 17 48  1  0  0  0  0
 17 49  1  0  0  0  0
 18 50  1  0  0  0  0
 18 51  1  0  0  0  0
 18 52  1  0  0  0  0
 19 22  1  0  0  0  0
 19 53  1  0  0  0  0
 19 54  1  0  0  0  0
 20 23  1  0  0  0  0
 20 55  1  0  0  0  0
 20 56  1  0  0  0  0
 21 57  1  0  0  0  0
 21 58  1  0  0  0  0
 21 59  1  0  0  0  0
 22 60  1  0  0  0  0
 22 61  1  0  0  0  0
 23 62  1  0  0  0  0
 23 63  1  0  0  0  0
 25 27  1  0  0  0  0
 26 28  1  0  0  0  0
 27 64  1  0  0  0  0
 27 65  1  0  0  0  0
 27 66  1  0  0  0  0
 28 29  2  0  0  0  0
 28 30  1  0  0  0  0
 29 31  1  0  0  0  0
 29 67  1  0  0  0  0
 30 32  2  0  0  0  0
 30 68  1  0  0  0  0
 31 33  2  0  0  0  0
 31 69  1  0  0  0  0
 32 33  1  0  0  0  0
 32 70  1  0  0  0  0
 34 71  1  0  0  0  0
 34 72  1  0  0  0  0
 34 73  1  0  0  0  0
 35 74  1  0  0  0  0
 35 75  1  0  0  0  0
 35 76  1  0  0  0  0
M  END
> <PUBCHEM_COMPOUND_CID>
45783966

> <PUBCHEM_CONFORMER_RMSD>
1

> <PUBCHEM_CONFORMER_DIVERSEORDER>
10
158
231
246
62
41
156
23
57
37
202
43
124
84
217
183
211
9
137
12
224
219
230
160
245
30
13
138
61
146
235
223
139
32
58
31
118
197
59
204
11
35
236
105
195
227
188
144
81
27
89
128
80
191
54
19
24
65
130
47
107
40
221
87
71
122
20
14
205
147
192
53
96
69
181
45
50
78
119
238
172
234
77
115
83
4
200
232
120
7
39
155
190
131
29
169
184
206
244
233
213
152
145
168
163
174
21
186
136
159
177
208
171
92
3
225
154
216
214
79
170
207
33
193
226
165
110
203
75
6
229
114
60
117
239
198
140
91
86
90
142
242
185
167
173
74
153
113
189
94
222
243
49
66
150
98
16
132
129
164
133
63
64
161
112
97
102
48
55
88
228
95
73
8
143
103
34
5
44
52
176
17
175
93
68
127
85
196
18
141
106
46
187
28
76
109
99
2
104
151
178
125
180
157
15
179
210
135
240
215
199
56
209
212
116
162
42
22
121
67
36
82
51
237
123
218
100
38
108
26
241
70
182
25
72
201
148
194
126
134
149
101
220
1
111
166

> <PUBCHEM_MMFF94_PARTIAL_CHARGES>
35
1 -0.28
11 0.14
13 0.27
14 -0.29
15 -0.28
16 0.18
19 0.27
2 -0.57
20 0.27
21 0.14
22 0.3
23 0.3
24 0.3
25 0.57
26 0.43
27 0.06
28 0.05
29 -0.15
3 -0.81
30 -0.15
31 -0.15
32 -0.15
33 0.1
34 0.37
35 0.37
4 -0.66
44 0.15
5 -0.34
6 -0.34
67 0.15
68 0.15
69 0.15
7 -0.84
70 0.15
9 0.14

> <PUBCHEM_EFFECTIVE_ROTOR_COUNT>
10

> <PUBCHEM_PHARMACOPHORE_FEATURES>
8
1 2 acceptor
1 3 cation
1 7 cation
3 12 17 18 hydrophobe
5 1 5 6 24 26 rings
6 28 29 30 31 32 33 rings
6 3 4 19 20 22 23 rings
6 8 9 10 11 14 15 rings

> <PUBCHEM_HEAVY_ATOM_COUNT>
35

> <PUBCHEM_ATOM_DEF_STEREO_COUNT>
3

> <PUBCHEM_ATOM_UDEF_STEREO_COUNT>
0

> <PUBCHEM_BOND_DEF_STEREO_COUNT>
0

> <PUBCHEM_BOND_UDEF_STEREO_COUNT>
0

> <PUBCHEM_ISOTOPIC_ATOM_COUNT>
0

> <PUBCHEM_COMPONENT_COUNT>
1

> <PUBCHEM_CACTVS_TAUTO_COUNT>
1

> <PUBCHEM_CONFORMER_ID>
02BA9B9E0000000A

> <PUBCHEM_MMFF94_ENERGY>
87.9101

> <PUBCHEM_FEATURE_SELFOVERLAP>
40.597

> <PUBCHEM_SHAPE_FINGERPRINT>
10670039 82 18340771546103892190
10673678 19 17550664418930590905
10864689 126 18340775836956432844
10871710 139 18341609335072486919
10937287 8 18265053531110843891
11059845 2 18192405551844172874
11476731 118 17547856713031688384
11477941 20 17984414419771910878
11761917 142 18339918329608756344
12107183 9 18115858608870345450
12788726 201 18339066160324412387
13761468 95 17915485851105915064
13911987 19 18263346148937086255
14251764 75 18195534692247486553
15064981 113 18202278118174172870
15400415 2 18264492780492882064
15448158 71 18267585697804816088
155225 5 18410015468211629472
15575132 122 18412824698665802639
15968369 153 17909549802982475468
16067690 210 17979381933624359996
19053607 189 18267575828334609832
21639891 77 17827077621789957131
21792965 68 18336262466325131572
21927370 108 17905623437869366451
23576562 1 17766557946286175191
3388396 114 18268414892839367422
44249763 50 17988912406082922448
4487111 67 18411138000531945672
497634 4 15841003293805601118
50677037 204 18191306177366004604
508706 21 18269833284682825808
5219985 13 18338801087469070177
53794403 172 17906737994814123509
550186 7 18200606903253895142
550186 72 18410013222244336105
57527585 21 18269534131631878663
6036956 94 18261959660136368197
6176135 31 17975128747649343688
6201320 215 18339924948401123320
6608658 132 18270389628486552542
7288768 16 17894639136165536443
7808743 9 18409732880816627826
9849439 229 18264211318046820473

> <PUBCHEM_SHAPE_MULTIPOLES>
683.64
15.5
8.23
1.84
32.73
9.87
-0.87
17.7
-4.35
-13.94
1.29
-0.29
-1.64
-3.17

> <PUBCHEM_SHAPE_SELFOVERLAP>
1433.285

> <PUBCHEM_SHAPE_VOLUME>
386.2

> <PUBCHEM_COORDINATE_TYPE>
2
5
10

$$$$
