26742480
  -OEChem-12032416213D

 70 74  0     1  0  0  0  0  0999 V2000
   -5.1796   -0.8711    2.2961 O   0  0  0  0  0  0  0  0  0  0  0  0
   -1.2263   -2.8800    1.1740 N   0  0  2  0  0  0  0  0  0  0  0  0
   -3.5081    0.1030    1.0145 N   0  0  0  0  0  0  0  0  0  0  0  0
    0.8246   -0.4100   -2.0686 N   0  0  0  0  0  0  0  0  0  0  0  0
    2.8135    0.9375   -1.8797 N   0  0  0  0  0  0  0  0  0  0  0  0
    8.2360    1.4271    1.3607 N   0  0  0  0  0  0  0  0  0  0  0  0
   -0.9102   -2.5905   -1.3949 C   0  0  2  0  0  0  0  0  0  0  0  0
    0.4362   -2.3662   -0.6526 C   0  0  2  0  0  0  0  0  0  0  0  0
   -2.2615   -1.9590    0.6352 C   0  0  2  0  0  0  0  0  0  0  0  0
   -1.9675   -1.6126   -0.8403 C   0  0  0  0  0  0  0  0  0  0  0  0
   -1.3817   -4.0171   -1.0403 C   0  0  0  0  0  0  0  0  0  0  0  0
    0.1286   -2.3546    0.8721 C   0  0  0  0  0  0  0  0  0  0  0  0
   -1.3793   -4.1860    0.4891 C   0  0  0  0  0  0  0  0  0  0  0  0
   -2.4280   -0.7032    1.4935 C   0  0  0  0  0  0  0  0  0  0  0  0
    1.3026   -1.1885   -1.0758 C   0  0  0  0  0  0  0  0  0  0  0  0
    2.5105   -0.9712   -0.4450 C   0  0  0  0  0  0  0  0  0  0  0  0
    3.2307    0.1175   -0.8928 C   0  0  0  0  0  0  0  0  0  0  0  0
    1.6196    0.6202   -2.4156 C   0  0  0  0  0  0  0  0  0  0  0  0
   -4.8204   -0.0461    1.4600 C   0  0  0  0  0  0  0  0  0  0  0  0
    4.5108    0.4527   -0.3162 C   0  0  0  0  0  0  0  0  0  0  0  0
    1.1257    1.5028   -3.5115 C   0  0  0  0  0  0  0  0  0  0  0  0
   -5.8316    0.8514    0.8448 C   0  0  0  0  0  0  0  0  0  0  0  0
    4.6075    0.7491    1.0433 C   0  0  0  0  0  0  0  0  0  0  0  0
    5.6515    0.4797   -1.1188 C   0  0  0  0  0  0  0  0  0  0  0  0
   -7.1655    0.4507    0.7673 C   0  0  0  0  0  0  0  0  0  0  0  0
   -5.4470    2.0952    0.3441 C   0  0  0  0  0  0  0  0  0  0  0  0
    5.8446    1.0727    1.6004 C   0  0  0  0  0  0  0  0  0  0  0  0
    6.8886    0.8033   -0.5617 C   0  0  0  0  0  0  0  0  0  0  0  0
    6.9851    1.0998    0.7978 C   0  0  0  0  0  0  0  0  0  0  0  0
   -8.1145    1.2934    0.1889 C   0  0  0  0  0  0  0  0  0  0  0  0
   -6.3959    2.9380   -0.2345 C   0  0  0  0  0  0  0  0  0  0  0  0
   -7.7297    2.5371   -0.3120 C   0  0  0  0  0  0  0  0  0  0  0  0
   -8.7449    3.4379   -0.9306 C   0  0  0  0  0  0  0  0  0  0  0  0
    8.3474    1.7370    2.7722 C   0  0  0  0  0  0  0  0  0  0  0  0
    9.4283    1.4505    0.5367 C   0  0  0  0  0  0  0  0  0  0  0  0
   -0.8051   -2.4813   -2.4794 H   0  0  0  0  0  0  0  0  0  0  0  0
    1.0561   -3.2516   -0.8629 H   0  0  0  0  0  0  0  0  0  0  0  0
   -3.2262   -2.4867    0.6720 H   0  0  0  0  0  0  0  0  0  0  0  0
   -1.6140   -0.5816   -0.9524 H   0  0  0  0  0  0  0  0  0  0  0  0
   -2.8913   -1.6991   -1.4258 H   0  0  0  0  0  0  0  0  0  0  0  0
   -0.7219   -4.7633   -1.4982 H   0  0  0  0  0  0  0  0  0  0  0  0
   -2.3895   -4.1865   -1.4386 H   0  0  0  0  0  0  0  0  0  0  0  0
    0.8715   -2.9730    1.3935 H   0  0  0  0  0  0  0  0  0  0  0  0
    0.2439   -1.3539    1.3042 H   0  0  0  0  0  0  0  0  0  0  0  0
   -2.3083   -4.6720    0.8118 H   0  0  0  0  0  0  0  0  0  0  0  0
   -0.5719   -4.8633    0.7957 H   0  0  0  0  0  0  0  0  0  0  0  0
   -1.5336   -0.0724    1.4752 H   0  0  0  0  0  0  0  0  0  0  0  0
   -2.6210   -0.9793    2.5367 H   0  0  0  0  0  0  0  0  0  0  0  0
   -3.2909    0.7631    0.2757 H   0  0  0  0  0  0  0  0  0  0  0  0
    2.8722   -1.6221    0.3423 H   0  0  0  0  0  0  0  0  0  0  0  0
    1.5048    1.1446   -4.4730 H   0  0  0  0  0  0  0  0  0  0  0  0
    0.0317    1.5067   -3.5452 H   0  0  0  0  0  0  0  0  0  0  0  0
    1.4640    2.5328   -3.3619 H   0  0  0  0  0  0  0  0  0  0  0  0
    3.7292    0.7386    1.6849 H   0  0  0  0  0  0  0  0  0  0  0  0
    5.5960    0.2477   -2.1799 H   0  0  0  0  0  0  0  0  0  0  0  0
   -7.4841   -0.5162    1.1481 H   0  0  0  0  0  0  0  0  0  0  0  0
   -4.4259    2.4582    0.4124 H   0  0  0  0  0  0  0  0  0  0  0  0
    5.8673    1.2964    2.6623 H   0  0  0  0  0  0  0  0  0  0  0  0
    7.7458    0.8101   -1.2275 H   0  0  0  0  0  0  0  0  0  0  0  0
   -9.1508    0.9704    0.1348 H   0  0  0  0  0  0  0  0  0  0  0  0
   -6.0859    3.9082   -0.6137 H   0  0  0  0  0  0  0  0  0  0  0  0
   -9.1877    4.0850   -0.1670 H   0  0  0  0  0  0  0  0  0  0  0  0
   -8.2949    4.0673   -1.7059 H   0  0  0  0  0  0  0  0  0  0  0  0
   -9.5441    2.8622   -1.4097 H   0  0  0  0  0  0  0  0  0  0  0  0
    9.3796    1.9722    3.0549 H   0  0  0  0  0  0  0  0  0  0  0  0
    8.0419    0.8851    3.3898 H   0  0  0  0  0  0  0  0  0  0  0  0
    7.7460    2.6149    3.0335 H   0  0  0  0  0  0  0  0  0  0  0  0
   10.3172    1.7193    1.1183 H   0  0  0  0  0  0  0  0  0  0  0  0
    9.3428    2.1953   -0.2624 H   0  0  0  0  0  0  0  0  0  0  0  0
    9.6278    0.4651    0.1010 H   0  0  0  0  0  0  0  0  0  0  0  0
  1 19  2  0  0  0  0
  2  9  1  0  0  0  0
  2 12  1  0  0  0  0
  2 13  1  0  0  0  0
  3 14  1  0  0  0  0
  3 19  1  0  0  0  0
  3 49  1  0  0  0  0
  4 15  2  0  0  0  0
  4 18  1  0  0  0  0
  5 17  1  0  0  0  0
  5 18  2  0  0  0  0
  6 29  1  0  0  0  0
  6 34  1  0  0  0  0
  6 35  1  0  0  0  0
  7  8  1  0  0  0  0
  7 10  1  0  0  0  0
  7 11  1  0  0  0  0
  7 36  1  0  0  0  0
  8 12  1  0  0  0  0
  8 15  1  0  0  0  0
  8 37  1  0  0  0  0
  9 10  1  0  0  0  0
  9 14  1  0  0  0  0
  9 38  1  0  0  0  0
 10 39  1  0  0  0  0
 10 40  1  0  0  0  0
 11 13  1  0  0  0  0
 11 41  1  0  0  0  0
 11 42  1  0  0  0  0
 12 43  1  0  0  0  0
 12 44  1  0  0  0  0
 13 45  1  0  0  0  0
 13 46  1  0  0  0  0
 14 47  1  0  0  0  0
 14 48  1  0  0  0  0
 15 16  1  0  0  0  0
 16 17  2  0  0  0  0
 16 50  1  0  0  0  0
 17 20  1  0  0  0  0
 18 21  1  0  0  0  0
 19 22  1  0  0  0  0
 20 23  2  0  0  0  0
 20 24  1  0  0  0  0
 21 51  1  0  0  0  0
 21 52  1  0  0  0  0
 21 53  1  0  0  0  0
 22 25  2  0  0  0  0
 22 26  1  0  0  0  0
 23 27  1  0  0  0  0
 23 54  1  0  0  0  0
 24 28  2  0  0  0  0
 24 55  1  0  0  0  0
 25 30  1  0  0  0  0
 25 56  1  0  0  0  0
 26 31  2  0  0  0  0
 26 57  1  0  0  0  0
 27 29  2  0  0  0  0
 27 58  1  0  0  0  0
 28 29  1  0  0  0  0
 28 59  1  0  0  0  0
 30 32  2  0  0  0  0
 30 60  1  0  0  0  0
 31 32  1  0  0  0  0
 31 61  1  0  0  0  0
 32 33  1  0  0  0  0
 33 62  1  0  0  0  0
 33 63  1  0  0  0  0
 33 64  1  0  0  0  0
 34 65  1  0  0  0  0
 34 66  1  0  0  0  0
 34 67  1  0  0  0  0
 35 68  1  0  0  0  0
 35 69  1  0  0  0  0
 35 70  1  0  0  0  0
M  END
> <PUBCHEM_COMPOUND_CID>
26742480

> <PUBCHEM_CONFORMER_RMSD>
1

> <PUBCHEM_CONFORMER_DIVERSEORDER>
1
72
98
123
100
81
121
61
2
63
17
20
55
125
128
99
93
124
103
97
105
83
120
43
52
24
106
23
119
113
104
88
26
76
18
126
65
118
44
48
38
33
50
112
49
116
4
84
59
34
28
102
70
74
64
8
56
96
41
131
58
22
95
130
92
91
60
68
85
21
79
80
51
71
69
110
45
78
54
86
37
19
129
114
115
7
127
94
122
53
109
6
90
31
111
82
87
47
46
117
66
75
67
27
40
9
32
10
89
39
101
36
25
3
107
16
12
11
5
62
108
30
15
77
42
29
14
73
13
35
57

> <PUBCHEM_MMFF94_PARTIAL_CHARGES>
41
1 -0.57
12 0.27
13 0.27
14 0.3
15 0.17
16 -0.15
17 0.31
18 0.48
19 0.54
2 -0.81
21 0.14
22 0.09
23 -0.15
24 -0.15
25 -0.15
26 -0.15
27 -0.15
28 -0.15
29 0.1
3 -0.73
30 -0.15
31 -0.15
32 -0.14
33 0.14
34 0.37
35 0.37
4 -0.62
49 0.37
5 -0.62
50 0.15
54 0.15
55 0.15
56 0.15
57 0.15
58 0.15
59 0.15
6 -0.84
60 0.15
61 0.15
8 0.14
9 0.27

> <PUBCHEM_EFFECTIVE_ROTOR_COUNT>
8.2

> <PUBCHEM_PHARMACOPHORE_FEATURES>
10
1 1 acceptor
1 2 cation
1 3 donor
1 4 acceptor
1 6 cation
3 4 5 18 cation
6 20 23 24 27 28 29 rings
6 22 25 26 30 31 32 rings
6 4 5 15 16 17 18 rings
8 2 7 8 9 10 11 12 13 rings

> <PUBCHEM_HEAVY_ATOM_COUNT>
35

> <PUBCHEM_ATOM_DEF_STEREO_COUNT>
3

> <PUBCHEM_ATOM_UDEF_STEREO_COUNT>
0

> <PUBCHEM_BOND_DEF_STEREO_COUNT>
0

> <PUBCHEM_BOND_UDEF_STEREO_COUNT>
0

> <PUBCHEM_ISOTOPIC_ATOM_COUNT>
0

> <PUBCHEM_COMPONENT_COUNT>
1

> <PUBCHEM_CACTVS_TAUTO_COUNT>
5

> <PUBCHEM_CONFORMER_ID>
01980ED000000001

> <PUBCHEM_MMFF94_ENERGY>
118.1673

> <PUBCHEM_FEATURE_SELFOVERLAP>
50.747

> <PUBCHEM_SHAPE_FINGERPRINT>
10190108 129 16660641826871414168
10280341 67 18188767220655954253
10533779 1 18262232211078535325
11146851 88 18272934942286933824
11374522 165 18262514772001353077
11478447 183 13542460939607179793
11621639 208 12244529308583784037
117089 54 9079110081832331577
12107183 9 17385731334552970510
12403259 118 17895772784852613947
12539747 363 16226047812683698132
13150687 139 17845945034836531143
13673619 4 12757146896459920950
13911987 19 14261363483149292194
14040221 275 14780096451931636277
14767858 380 13254802330211330358
14950920 106 16734407099231271403
15289351 153 18129665188921786522
15350500 185 18201997724716551057
15350500 55 18335420141006337657
15669420 48 16343703253520843767
15684973 49 18196097874651680326
19053607 189 18043548135389384309
19246450 95 18040437706592308219
19304144 158 18335704898165964517
19315958 150 18410858746653946946
195137 95 18408601448559793929
20554085 129 18412542085638504537
20567600 254 18342743992348703883
20587220 17 18052533275997989893
20715895 44 17968391031236653717
21033648 29 18409170999851244094
21304303 282 18271522100369130647
23522609 53 16807034219129021614
25269216 80 17131534121580605701
255183 451 8754823931418273030
3918712 181 18343015550246656369
393628 179 18272365365204216985
4330586 98 13542166342751031293
4366758 6 18412827967156669399
44575985 128 13757772876624592517
4756326 101 18201992222795184905
4938544 92 18200875209850514358
5372103 7 17704352156510288953
54039377 194 7925911487204161488
54728670 133 17096626774133584852
58083652 198 16734098124074570604
6009941 240 18201721812634962610
6058803 2 17100326841030052734
6201320 77 13984930788884175858
636775 8 8862947191054266840
6695519 79 18123786139320461067
6697151 62 16842510885465246070
999808 66 15213287630668734010

> <PUBCHEM_SHAPE_MULTIPOLES>
689.51
26.67
4.05
2.38
6.44
3.34
0.9
-34.98
-11.83
-6.35
0.3
2.4
-0.7
3.01

> <PUBCHEM_SHAPE_SELFOVERLAP>
1493.183

> <PUBCHEM_SHAPE_VOLUME>
373.6

> <PUBCHEM_COORDINATE_TYPE>
2
5
10

$$$$
