45361153
  -OEChem-12032416233D

 60 63  0     1  0  0  0  0  0999 V2000
   -6.8300    2.8603    0.0801 S   0  0  0  0  0  0  0  0  0  0  0  0
   -1.3326    0.6817    1.4087 O   0  0  0  0  0  0  0  0  0  0  0  0
    4.6034   -1.9846    0.4148 O   0  0  0  0  0  0  0  0  0  0  0  0
   -0.0804   -2.0846   -0.9934 N   0  0  1  0  0  0  0  0  0  0  0  0
   -3.2111   -0.3480   -0.2355 N   0  0  1  0  0  0  0  0  0  0  0  0
   -0.2742   -1.3130    1.7798 N   0  0  0  0  0  0  0  0  0  0  0  0
    4.2899    0.3167    0.4409 N   0  0  0  0  0  0  0  0  0  0  0  0
    5.3047    2.9195   -0.1947 N   0  0  0  0  0  0  0  0  0  0  0  0
   -4.4245    2.1646   -0.0038 N   0  0  0  0  0  0  0  0  0  0  0  0
   -5.2132    3.2126   -0.1807 N   0  0  0  0  0  0  0  0  0  0  0  0
   -1.5553   -1.9735   -0.9480 C   0  0  1  0  0  0  0  0  0  0  0  0
   -2.2098   -1.2946    0.2909 C   0  0  1  0  0  0  0  0  0  0  0  0
   -2.1571   -1.1646   -2.1122 C   0  0  0  0  0  0  0  0  0  0  0  0
    0.5068   -2.9355    0.0790 C   0  0  2  0  0  0  0  0  0  0  0  0
   -3.5246   -0.7689   -1.5965 C   0  0  0  0  0  0  0  0  0  0  0  0
   -0.0955   -2.7201    1.4812 C   0  0  0  0  0  0  0  0  0  0  0  0
   -1.2456   -0.5260    1.1908 C   0  0  0  0  0  0  0  0  0  0  0  0
    2.0276   -2.6964    0.1856 C   0  0  0  0  0  0  0  0  0  0  0  0
   -4.4038   -0.2476    0.5959 C   0  0  0  0  0  0  0  0  0  0  0  0
    0.3694   -2.5489   -2.3167 C   0  0  0  0  0  0  0  0  0  0  0  0
    2.3667   -1.2197    0.2456 C   0  0  0  0  0  0  0  0  0  0  0  0
   -5.1485    1.0386    0.3549 C   0  0  0  0  0  0  0  0  0  0  0  0
    3.8536   -1.0058    0.3760 C   0  0  0  0  0  0  0  0  0  0  0  0
    5.7175    0.6077    0.5632 C   0  0  0  0  0  0  0  0  0  0  0  0
    3.4198    1.4930    0.5308 C   0  0  0  0  0  0  0  0  0  0  0  0
    6.1395    1.7251   -0.3902 C   0  0  0  0  0  0  0  0  0  0  0  0
    3.8874    2.5983   -0.4179 C   0  0  0  0  0  0  0  0  0  0  0  0
   -6.5138    1.2167    0.4564 C   0  0  0  0  0  0  0  0  0  0  0  0
    5.7335    3.9971   -1.0852 C   0  0  0  0  0  0  0  0  0  0  0  0
   -1.9786   -2.9873   -1.0215 H   0  0  0  0  0  0  0  0  0  0  0  0
   -2.7060   -2.0669    0.8938 H   0  0  0  0  0  0  0  0  0  0  0  0
   -1.5591   -0.2671   -2.3198 H   0  0  0  0  0  0  0  0  0  0  0  0
   -2.2353   -1.7509   -3.0335 H   0  0  0  0  0  0  0  0  0  0  0  0
    0.3513   -3.9956   -0.1654 H   0  0  0  0  0  0  0  0  0  0  0  0
   -3.9574    0.0390   -2.1944 H   0  0  0  0  0  0  0  0  0  0  0  0
   -4.2008   -1.6329   -1.6217 H   0  0  0  0  0  0  0  0  0  0  0  0
   -1.0585   -3.2330    1.5692 H   0  0  0  0  0  0  0  0  0  0  0  0
    0.5451   -3.1393    2.2651 H   0  0  0  0  0  0  0  0  0  0  0  0
    2.5416   -3.1626   -0.6641 H   0  0  0  0  0  0  0  0  0  0  0  0
    2.4255   -3.2142    1.0687 H   0  0  0  0  0  0  0  0  0  0  0  0
   -4.1184   -0.2293    1.6566 H   0  0  0  0  0  0  0  0  0  0  0  0
   -5.0668   -1.1127    0.4675 H   0  0  0  0  0  0  0  0  0  0  0  0
    0.3500   -0.8767    2.4513 H   0  0  0  0  0  0  0  0  0  0  0  0
   -0.0339   -3.5393   -2.5563 H   0  0  0  0  0  0  0  0  0  0  0  0
    0.0761   -1.8524   -3.1084 H   0  0  0  0  0  0  0  0  0  0  0  0
    1.4592   -2.5976   -2.3908 H   0  0  0  0  0  0  0  0  0  0  0  0
    1.9266   -0.7426    1.1190 H   0  0  0  0  0  0  0  0  0  0  0  0
    2.0389   -0.7010   -0.6609 H   0  0  0  0  0  0  0  0  0  0  0  0
    6.3132   -0.2897    0.3668 H   0  0  0  0  0  0  0  0  0  0  0  0
    5.9003    0.9000    1.6046 H   0  0  0  0  0  0  0  0  0  0  0  0
    3.4587    1.8397    1.5708 H   0  0  0  0  0  0  0  0  0  0  0  0
    2.3779    1.2524    0.3115 H   0  0  0  0  0  0  0  0  0  0  0  0
    7.1914    1.9666   -0.1965 H   0  0  0  0  0  0  0  0  0  0  0  0
    6.0673    1.3695   -1.4267 H   0  0  0  0  0  0  0  0  0  0  0  0
    3.7231    2.2812   -1.4565 H   0  0  0  0  0  0  0  0  0  0  0  0
    3.2700    3.4875   -0.2430 H   0  0  0  0  0  0  0  0  0  0  0  0
   -7.2880    0.5090    0.7158 H   0  0  0  0  0  0  0  0  0  0  0  0
    6.7774    4.2654   -0.8888 H   0  0  0  0  0  0  0  0  0  0  0  0
    5.6406    3.7237   -2.1425 H   0  0  0  0  0  0  0  0  0  0  0  0
    5.1390    4.9005   -0.9091 H   0  0  0  0  0  0  0  0  0  0  0  0
  1 10  1  0  0  0  0
  1 28  1  0  0  0  0
  2 17  2  0  0  0  0
  3 23  2  0  0  0  0
  4 11  1  0  0  0  0
  4 14  1  0  0  0  0
  4 20  1  0  0  0  0
  5 12  1  0  0  0  0
  5 15  1  0  0  0  0
  5 19  1  0  0  0  0
  6 16  1  0  0  0  0
  6 17  1  0  0  0  0
  6 43  1  0  0  0  0
  7 23  1  0  0  0  0
  7 24  1  0  0  0  0
  7 25  1  0  0  0  0
  8 26  1  0  0  0  0
  8 27  1  0  0  0  0
  8 29  1  0  0  0  0
  9 10  2  0  0  0  0
  9 22  1  0  0  0  0
 11 12  1  0  0  0  0
 11 13  1  0  0  0  0
 11 30  1  0  0  0  0
 12 17  1  0  0  0  0
 12 31  1  0  0  0  0
 13 15  1  0  0  0  0
 13 32  1  0  0  0  0
 13 33  1  0  0  0  0
 14 16  1  0  0  0  0
 14 18  1  0  0  0  0
 14 34  1  0  0  0  0
 15 35  1  0  0  0  0
 15 36  1  0  0  0  0
 16 37  1  0  0  0  0
 16 38  1  0  0  0  0
 18 21  1  0  0  0  0
 18 39  1  0  0  0  0
 18 40  1  0  0  0  0
 19 22  1  0  0  0  0
 19 41  1  0  0  0  0
 19 42  1  0  0  0  0
 20 44  1  0  0  0  0
 20 45  1  0  0  0  0
 20 46  1  0  0  0  0
 21 23  1  0  0  0  0
 21 47  1  0  0  0  0
 21 48  1  0  0  0  0
 22 28  2  0  0  0  0
 24 26  1  0  0  0  0
 24 49  1  0  0  0  0
 24 50  1  0  0  0  0
 25 27  1  0  0  0  0
 25 51  1  0  0  0  0
 25 52  1  0  0  0  0
 26 53  1  0  0  0  0
 26 54  1  0  0  0  0
 27 55  1  0  0  0  0
 27 56  1  0  0  0  0
 28 57  1  0  0  0  0
 29 58  1  0  0  0  0
 29 59  1  0  0  0  0
 29 60  1  0  0  0  0
M  END
> <PUBCHEM_COMPOUND_CID>
45361153

> <PUBCHEM_CONFORMER_RMSD>
1.2

> <PUBCHEM_CONFORMER_DIVERSEORDER>
1
101
32
28
109
33
162
141
173
73
131
124
116
128
156
51
77
55
14
74
104
139
129
62
2
143
122
16
82
84
91
105
168
35
9
147
115
57
145
170
56
13
175
123
108
178
19
100
136
107
39
121
6
166
172
94
81
106
142
135
160
5
59
179
127
157
50
76
92
137
29
95
138
130
167
68
87
120
86
42
153
80
22
45
102
158
114
144
126
103
83
25
63
119
75
65
154
110
52
133
8
159
161
152
117
169
46
66
163
146
176
64
111
58
48
90
60
177
85
171
78
140
20
151
27
26
47
7
93
3
11
148
134
18
155
17
164
69
125
43
67
96
30
165
21
4
53
10
79
99
23
34
112
49
41
44
24
149
89
174
118
37
38
72
12
36
113
88
31
132
97
150
61
70
40
98
15
71
54

> <PUBCHEM_MMFF94_PARTIAL_CHARGES>
29
1 0.18
10 -0.22
11 0.27
12 0.33
14 0.27
15 0.27
16 0.3
17 0.57
19 0.45
2 -0.57
20 0.27
21 0.06
22 0.05
23 0.57
24 0.3
25 0.3
26 0.27
27 0.27
28 -0.11
29 0.27
3 -0.57
4 -0.81
43 0.37
5 -0.81
57 0.15
6 -0.73
7 -0.66
8 -0.81
9 -0.23

> <PUBCHEM_EFFECTIVE_ROTOR_COUNT>
8.6

> <PUBCHEM_PHARMACOPHORE_FEATURES>
10
1 2 acceptor
1 3 acceptor
1 4 cation
1 5 cation
1 6 donor
1 8 cation
5 1 9 10 22 28 rings
5 5 11 12 13 15 rings
6 7 8 24 25 26 27 rings
7 4 6 11 12 14 16 17 rings

> <PUBCHEM_HEAVY_ATOM_COUNT>
29

> <PUBCHEM_ATOM_DEF_STEREO_COUNT>
3

> <PUBCHEM_ATOM_UDEF_STEREO_COUNT>
0

> <PUBCHEM_BOND_DEF_STEREO_COUNT>
0

> <PUBCHEM_BOND_UDEF_STEREO_COUNT>
0

> <PUBCHEM_ISOTOPIC_ATOM_COUNT>
0

> <PUBCHEM_COMPONENT_COUNT>
1

> <PUBCHEM_CACTVS_TAUTO_COUNT>
3

> <PUBCHEM_CONFORMER_ID>
02B4280100000001

> <PUBCHEM_MMFF94_ENERGY>
65.958

> <PUBCHEM_FEATURE_SELFOVERLAP>
50.783

> <PUBCHEM_SHAPE_FINGERPRINT>
100830 2 18058182630522869249
10673678 19 18343303622292359907
10928967 22 9941320772221786452
12633257 1 16009036136992740430
12788726 201 17561091271472659912
14117953 113 18129943352278349244
14251764 75 18408886269447877364
14739800 52 17897161313371933705
15064981 113 17346053229337211260
15142526 21 18259985951086366227
15163728 17 17917441929188410599
15510800 12 11887661905533718212
15575132 122 18272375312205295717
15840311 113 18336831875661628149
18335252 114 18270391668600805335
20715895 44 18271804558254021627
20771845 171 17630604527802257095
21033648 29 17458356238184331458
21033650 10 14835858239652651995
21298829 104 18412538843302647440
21315764 268 17973159531261402229
21475661 188 18334859376800886379
22122407 14 18335991865261349665
23559900 14 17202765878184141630
23569914 2 16954462085326269445
27425 322 18408884010385153295
2838139 119 18411134762284047782
3388396 114 16757183680211864884
3411729 13 18338518534856260797
3472631 163 18342458123246130775
34797466 226 18128258892386390407
397830 11 18261126166588562067
4258327 124 18272929398448699965
474 4 18409725192788770658
484985 159 9870100906758439442
57724786 102 18260824926045474538
6034566 193 18340780345790300801
6036956 94 17687469383052128020
633830 44 18408878525469115090
7288768 16 17968095386340018138
7970288 3 9511195031549415108

> <PUBCHEM_SHAPE_MULTIPOLES>
554.05
16.18
4.55
1.52
1.96
2.38
0.57
21.66
-0.13
-2.5
0.95
0.47
-1
-1.83

> <PUBCHEM_SHAPE_SELFOVERLAP>
1139.296

> <PUBCHEM_SHAPE_VOLUME>
320.6

> <PUBCHEM_COORDINATE_TYPE>
2
5
10

$$$$
