11882967
  -OEChem-12032416353D

 82 87  0     1  0  0  0  0  0999 V2000
    0.2392   -2.6888   -0.0448 S   0  0  0  0  0  0  0  0  0  0  0  0
    7.4751    0.1711   -1.0882 O   0  0  0  0  0  0  0  0  0  0  0  0
    7.3631   -2.1394   -0.4612 O   0  0  0  0  0  0  0  0  0  0  0  0
   -0.6541    1.8003    2.7967 O   0  0  0  0  0  0  0  0  0  0  0  0
   -3.0558    0.1709    1.6132 O   0  0  0  0  0  0  0  0  0  0  0  0
   -1.4650    0.7077   -3.3788 O   0  0  0  0  0  0  0  0  0  0  0  0
   -3.8375    0.4243   -3.0655 O   0  0  0  0  0  0  0  0  0  0  0  0
   -0.2060   -0.3330    0.9272 N   0  0  0  0  0  0  0  0  0  0  0  0
    0.1719    2.9451    0.9505 N   0  0  0  0  0  0  0  0  0  0  0  0
   -2.1092   -1.7950    0.7048 N   0  0  0  0  0  0  0  0  0  0  0  0
    3.6058    0.2485    0.9195 C   0  0  2  0  0  0  0  0  0  0  0  0
    3.8254   -0.6882   -0.3492 C   0  0  1  0  0  0  0  0  0  0  0  0
    5.3154   -0.9546   -0.7931 C   0  0  1  0  0  0  0  0  0  0  0  0
    2.0819    0.7295    0.9194 C   0  0  1  0  0  0  0  0  0  0  0  0
    4.5134    1.5002    0.7997 C   0  0  0  0  0  0  0  0  0  0  0  0
    6.0917    0.3926   -0.8160 C   0  0  1  0  0  0  0  0  0  0  0  0
    2.9574   -1.9773   -0.2616 C   0  0  0  0  0  0  0  0  0  0  0  0
    5.9674    1.1800    0.4838 C   0  0  0  0  0  0  0  0  0  0  0  0
    3.9198   -0.4668    2.2567 C   0  0  0  0  0  0  0  0  0  0  0  0
    1.1487   -0.4268    0.6670 C   0  0  0  0  0  0  0  0  0  0  0  0
    6.0601   -2.0049    0.0603 C   0  0  0  0  0  0  0  0  0  0  0  0
    5.3198   -1.5154   -2.2434 C   0  0  0  0  0  0  0  0  0  0  0  0
    1.5591   -1.6253    0.1197 C   0  0  0  0  0  0  0  0  0  0  0  0
    1.6647    1.5272    2.1622 C   0  0  0  0  0  0  0  0  0  0  0  0
    0.2659    2.0846    2.0345 C   0  0  0  0  0  0  0  0  0  0  0  0
   -0.7834   -1.4681    0.5981 C   0  0  0  0  0  0  0  0  0  0  0  0
   -3.1425   -0.9783    1.1935 C   0  0  0  0  0  0  0  0  0  0  0  0
   -1.0504    3.6233    0.5841 C   0  0  0  0  0  0  0  0  0  0  0  0
   -4.4685   -1.6781    1.1560 C   0  0  0  0  0  0  0  0  0  0  0  0
   -4.7928   -2.1046   -0.2775 C   0  0  0  0  0  0  0  0  0  0  0  0
   -5.5559   -0.7662    1.7286 C   0  0  0  0  0  0  0  0  0  0  0  0
   -6.1779   -2.7382   -0.3779 C   0  0  0  0  0  0  0  0  0  0  0  0
   -6.9391   -1.4032    1.6236 C   0  0  0  0  0  0  0  0  0  0  0  0
   -7.2581   -1.8238    0.1921 C   0  0  0  0  0  0  0  0  0  0  0  0
   -1.8279    2.7733   -0.3740 C   0  0  0  0  0  0  0  0  0  0  0  0
   -1.1691    2.1559   -1.4359 C   0  0  0  0  0  0  0  0  0  0  0  0
   -3.2091    2.6114   -0.1874 C   0  0  0  0  0  0  0  0  0  0  0  0
   -1.9272    1.3832   -2.2915 C   0  0  0  0  0  0  0  0  0  0  0  0
   -3.9535    1.8233   -1.0685 C   0  0  0  0  0  0  0  0  0  0  0  0
   -3.2820    1.2214   -2.1128 C   0  0  0  0  0  0  0  0  0  0  0  0
   -2.6807    0.1021   -3.8639 C   0  0  0  0  0  0  0  0  0  0  0  0
    3.3983   -0.1063   -1.1846 H   0  0  0  0  0  0  0  0  0  0  0  0
    1.9714    1.3696    0.0331 H   0  0  0  0  0  0  0  0  0  0  0  0
    4.1291    2.1575    0.0084 H   0  0  0  0  0  0  0  0  0  0  0  0
    4.4836    2.0877    1.7249 H   0  0  0  0  0  0  0  0  0  0  0  0
    5.7053    1.0240   -1.6276 H   0  0  0  0  0  0  0  0  0  0  0  0
    2.9479   -2.4928   -1.2276 H   0  0  0  0  0  0  0  0  0  0  0  0
    3.3643   -2.6723    0.4804 H   0  0  0  0  0  0  0  0  0  0  0  0
    6.4443    0.6422    1.3108 H   0  0  0  0  0  0  0  0  0  0  0  0
    6.5333    2.1160    0.3916 H   0  0  0  0  0  0  0  0  0  0  0  0
    3.2744   -1.3323    2.4318 H   0  0  0  0  0  0  0  0  0  0  0  0
    4.9507   -0.8050    2.3274 H   0  0  0  0  0  0  0  0  0  0  0  0
    3.7870    0.2102    3.1078 H   0  0  0  0  0  0  0  0  0  0  0  0
    6.1768   -1.7031    1.0974 H   0  0  0  0  0  0  0  0  0  0  0  0
    5.5724   -2.9846    0.0474 H   0  0  0  0  0  0  0  0  0  0  0  0
    6.3197   -1.5757   -2.6839 H   0  0  0  0  0  0  0  0  0  0  0  0
    4.7245   -0.8786   -2.9085 H   0  0  0  0  0  0  0  0  0  0  0  0
    4.8951   -2.5240   -2.2876 H   0  0  0  0  0  0  0  0  0  0  0  0
    2.3407    2.3687    2.3456 H   0  0  0  0  0  0  0  0  0  0  0  0
    1.6709    0.8951    3.0580 H   0  0  0  0  0  0  0  0  0  0  0  0
    7.5677   -0.0238   -2.0353 H   0  0  0  0  0  0  0  0  0  0  0  0
    7.3384   -2.8089   -1.1656 H   0  0  0  0  0  0  0  0  0  0  0  0
    1.0036    3.1690    0.4126 H   0  0  0  0  0  0  0  0  0  0  0  0
   -2.3280   -2.7461    0.4225 H   0  0  0  0  0  0  0  0  0  0  0  0
   -0.7844    4.5741    0.1109 H   0  0  0  0  0  0  0  0  0  0  0  0
   -1.6239    3.8340    1.4933 H   0  0  0  0  0  0  0  0  0  0  0  0
   -4.3918   -2.5726    1.7888 H   0  0  0  0  0  0  0  0  0  0  0  0
   -4.0649   -2.8257   -0.6643 H   0  0  0  0  0  0  0  0  0  0  0  0
   -4.7480   -1.2361   -0.9449 H   0  0  0  0  0  0  0  0  0  0  0  0
   -5.5719    0.1938    1.1967 H   0  0  0  0  0  0  0  0  0  0  0  0
   -5.3437   -0.5368    2.7802 H   0  0  0  0  0  0  0  0  0  0  0  0
   -6.1829   -3.6916    0.1646 H   0  0  0  0  0  0  0  0  0  0  0  0
   -6.4042   -2.9656   -1.4258 H   0  0  0  0  0  0  0  0  0  0  0  0
   -7.6982   -0.6969    1.9782 H   0  0  0  0  0  0  0  0  0  0  0  0
   -6.9870   -2.2802    2.2808 H   0  0  0  0  0  0  0  0  0  0  0  0
   -8.2267   -2.3352    0.1649 H   0  0  0  0  0  0  0  0  0  0  0  0
   -7.3497   -0.9307   -0.4385 H   0  0  0  0  0  0  0  0  0  0  0  0
   -0.1050    2.2760   -1.6071 H   0  0  0  0  0  0  0  0  0  0  0  0
   -3.7156    3.0966    0.6430 H   0  0  0  0  0  0  0  0  0  0  0  0
   -5.0209    1.6929   -0.9315 H   0  0  0  0  0  0  0  0  0  0  0  0
   -2.5516   -0.9864   -3.8701 H   0  0  0  0  0  0  0  0  0  0  0  0
   -2.8569    0.4419   -4.8909 H   0  0  0  0  0  0  0  0  0  0  0  0
  1 23  1  0  0  0  0
  1 26  1  0  0  0  0
  2 16  1  0  0  0  0
  2 61  1  0  0  0  0
  3 21  1  0  0  0  0
  3 62  1  0  0  0  0
  4 25  2  0  0  0  0
  5 27  2  0  0  0  0
  6 38  1  0  0  0  0
  6 41  1  0  0  0  0
  7 40  1  0  0  0  0
  7 41  1  0  0  0  0
  8 20  1  0  0  0  0
  8 26  2  0  0  0  0
  9 25  1  0  0  0  0
  9 28  1  0  0  0  0
  9 63  1  0  0  0  0
 10 26  1  0  0  0  0
 10 27  1  0  0  0  0
 10 64  1  0  0  0  0
 11 12  1  0  0  0  0
 11 14  1  0  0  0  0
 11 15  1  0  0  0  0
 11 19  1  0  0  0  0
 12 13  1  0  0  0  0
 12 17  1  0  0  0  0
 12 42  1  0  0  0  0
 13 16  1  0  0  0  0
 13 21  1  0  0  0  0
 13 22  1  0  0  0  0
 14 20  1  0  0  0  0
 14 24  1  0  0  0  0
 14 43  1  0  0  0  0
 15 18  1  0  0  0  0
 15 44  1  0  0  0  0
 15 45  1  0  0  0  0
 16 18  1  0  0  0  0
 16 46  1  0  0  0  0
 17 23  1  0  0  0  0
 17 47  1  0  0  0  0
 17 48  1  0  0  0  0
 18 49  1  0  0  0  0
 18 50  1  0  0  0  0
 19 51  1  0  0  0  0
 19 52  1  0  0  0  0
 19 53  1  0  0  0  0
 20 23  2  0  0  0  0
 21 54  1  0  0  0  0
 21 55  1  0  0  0  0
 22 56  1  0  0  0  0
 22 57  1  0  0  0  0
 22 58  1  0  0  0  0
 24 25  1  0  0  0  0
 24 59  1  0  0  0  0
 24 60  1  0  0  0  0
 27 29  1  0  0  0  0
 28 35  1  0  0  0  0
 28 65  1  0  0  0  0
 28 66  1  0  0  0  0
 29 30  1  0  0  0  0
 29 31  1  0  0  0  0
 29 67  1  0  0  0  0
 30 32  1  0  0  0  0
 30 68  1  0  0  0  0
 30 69  1  0  0  0  0
 31 33  1  0  0  0  0
 31 70  1  0  0  0  0
 31 71  1  0  0  0  0
 32 34  1  0  0  0  0
 32 72  1  0  0  0  0
 32 73  1  0  0  0  0
 33 34  1  0  0  0  0
 33 74  1  0  0  0  0
 33 75  1  0  0  0  0
 34 76  1  0  0  0  0
 34 77  1  0  0  0  0
 35 36  2  0  0  0  0
 35 37  1  0  0  0  0
 36 38  1  0  0  0  0
 36 78  1  0  0  0  0
 37 39  2  0  0  0  0
 37 79  1  0  0  0  0
 38 40  2  0  0  0  0
 39 40  1  0  0  0  0
 39 80  1  0  0  0  0
 41 81  1  0  0  0  0
 41 82  1  0  0  0  0
M  END
> <PUBCHEM_COMPOUND_CID>
11882967

> <PUBCHEM_CONFORMER_RMSD>
1.2

> <PUBCHEM_CONFORMER_DIVERSEORDER>
1
23
32
20
44
29
50
34
18
56
37
48
63
22
53
19
64
61
4
58
24
33
57
6
31
49
13
8
7
46
9
43
38
17
28
59
45
26
62
16
12
60
14
42
15
2
25
3
27
21
10
52
39
35
47
40
51
55
36
5
41
11
30
54

> <PUBCHEM_MMFF94_PARTIAL_CHARGES>
36
1 -0.08
10 -0.49
14 0.18
16 0.28
17 0.18
2 -0.68
20 0.05
21 0.28
23 -0.14
24 0.06
25 0.57
26 0.44
27 0.57
28 0.44
29 0.06
3 -0.68
35 -0.14
36 -0.15
37 -0.15
38 0.08
39 -0.15
4 -0.57
40 0.08
41 0.56
5 -0.57
6 -0.36
61 0.4
62 0.4
63 0.37
64 0.37
7 -0.36
78 0.15
79 0.15
8 -0.57
80 0.15
9 -0.73

> <PUBCHEM_EFFECTIVE_ROTOR_COUNT>
12

> <PUBCHEM_PHARMACOPHORE_FEATURES>
16
1 10 donor
1 2 acceptor
1 2 donor
1 3 acceptor
1 3 donor
1 4 acceptor
1 5 acceptor
1 6 acceptor
1 7 acceptor
1 9 donor
5 1 8 20 23 26 rings
5 6 7 38 40 41 rings
6 11 12 13 15 16 18 rings
6 11 12 14 17 20 23 rings
6 29 30 31 32 33 34 rings
6 35 36 37 38 39 40 rings

> <PUBCHEM_HEAVY_ATOM_COUNT>
41

> <PUBCHEM_ATOM_DEF_STEREO_COUNT>
5

> <PUBCHEM_ATOM_UDEF_STEREO_COUNT>
0

> <PUBCHEM_BOND_DEF_STEREO_COUNT>
0

> <PUBCHEM_BOND_UDEF_STEREO_COUNT>
0

> <PUBCHEM_ISOTOPIC_ATOM_COUNT>
0

> <PUBCHEM_COMPONENT_COUNT>
1

> <PUBCHEM_CACTVS_TAUTO_COUNT>
6

> <PUBCHEM_CONFORMER_ID>
00B551D700000001

> <PUBCHEM_MMFF94_ENERGY>
112.9076

> <PUBCHEM_FEATURE_SELFOVERLAP>
81.504

> <PUBCHEM_SHAPE_FINGERPRINT>
10079526 769 18193577750475228477
10670039 82 17385725772918865182
11421498 54 15719660040103155761
11513181 2 17690279730830514831
12107698 1 17022903496935175620
12156800 1 17554374329680585085
12788726 201 16443055111005328747
13165053 103 17982438309709752350
13782708 43 18408319982120393898
13811026 1 18412819187953496240
14118638 360 17676490528189794346
14279260 333 17986956241821902342
15131766 46 16842182379858152672
15484559 13 16184411162343705336
15721738 202 18113903805000471989
15849732 13 16343713139966210827
15968369 153 17987780965098601641
17909252 39 16844708869359141158
18608769 82 18411139121264435651
19319366 153 17259051901687412921
20764821 26 18123440990424236205
354706 132 18117560613302826876
437815 12 18338237167448989689
469060 322 16950573155700303045
563151 248 16128660773149336143
5951187 136 14208107275536325973
6081469 158 18412262853167900647
6086070 43 17749666291419876128
7237137 82 18040998431842067504
77296 10 16951111873332339194
9896288 288 15839890429260905969

> <PUBCHEM_SHAPE_MULTIPOLES>
797.45
16.78
3.5
2.81
7.65
1.3
-1.97
-11.32
-1.55
-2.43
0.27
-1.98
1.15
2.66

> <PUBCHEM_SHAPE_SELFOVERLAP>
1711.604

> <PUBCHEM_SHAPE_VOLUME>
445.5

> <PUBCHEM_COORDINATE_TYPE>
2
5
10

$$$$
