7674734
  -OEChem-12032416113D

 52 56  0     1  0  0  0  0  0999 V2000
    4.5102   -1.3106   -1.1642 S   0  0  0  0  0  0  0  0  0  0  0  0
    1.9122   -2.4273   -0.4219 S   0  0  0  0  0  0  0  0  0  0  0  0
   -6.1443   -0.1167   -1.8236 F   0  0  0  0  0  0  0  0  0  0  0  0
   -8.1147   -0.3435   -0.9063 F   0  0  0  0  0  0  0  0  0  0  0  0
   -6.7748   -2.0674   -0.9982 F   0  0  0  0  0  0  0  0  0  0  0  0
    5.9096   -1.4410   -0.8170 O   0  0  0  0  0  0  0  0  0  0  0  0
    4.0540   -1.5443   -2.5181 O   0  0  0  0  0  0  0  0  0  0  0  0
   -0.7189    1.8242   -1.3664 O   0  0  0  0  0  0  0  0  0  0  0  0
   -6.3066   -0.3560    0.4450 O   0  0  0  0  0  0  0  0  0  0  0  0
    3.9437    0.2169   -0.6415 N   0  0  2  0  0  0  0  0  0  0  0  0
    1.2641    1.8136   -0.1389 N   0  0  0  0  0  0  0  0  0  0  0  0
    3.4908    2.6276   -1.1081 C   0  0  1  0  0  0  0  0  0  0  0  0
    3.3974    1.7952    1.2005 C   0  0  2  0  0  0  0  0  0  0  0  0
    3.8303    2.9755    0.3352 C   0  0  0  0  0  0  0  0  0  0  0  0
    4.2419    1.3609   -1.5499 C   0  0  0  0  0  0  0  0  0  0  0  0
    4.1924    0.5407    0.7952 C   0  0  0  0  0  0  0  0  0  0  0  0
    1.9698    2.4828   -1.2405 C   0  0  0  0  0  0  0  0  0  0  0  0
    1.9072    1.5404    1.0705 C   0  0  0  0  0  0  0  0  0  0  0  0
    1.2133    1.0355    2.1031 C   0  0  0  0  0  0  0  0  0  0  0  0
   -0.1097    1.5637   -0.3273 C   0  0  0  0  0  0  0  0  0  0  0  0
   -0.8529    0.9639    0.8359 C   0  0  0  0  0  0  0  0  0  0  0  0
   -0.1855    0.7388    1.9776 C   0  0  0  0  0  0  0  0  0  0  0  0
    3.5881   -2.3665   -0.0910 C   0  0  0  0  0  0  0  0  0  0  0  0
   -2.2814    0.6186    0.7331 C   0  0  0  0  0  0  0  0  0  0  0  0
    3.9427   -3.1608    0.9707 C   0  0  0  0  0  0  0  0  0  0  0  0
   -3.2538    1.5591    1.0744 C   0  0  0  0  0  0  0  0  0  0  0  0
   -2.6631   -0.6500    0.2947 C   0  0  0  0  0  0  0  0  0  0  0  0
    2.8177   -3.8353    1.5267 C   0  0  0  0  0  0  0  0  0  0  0  0
    1.6499   -3.5264    0.8645 C   0  0  0  0  0  0  0  0  0  0  0  0
   -4.6063    1.2316    0.9776 C   0  0  0  0  0  0  0  0  0  0  0  0
   -4.0156   -0.9773    0.1977 C   0  0  0  0  0  0  0  0  0  0  0  0
   -4.9871   -0.0367    0.5392 C   0  0  0  0  0  0  0  0  0  0  0  0
   -6.8206   -0.7290   -0.8287 C   0  0  0  0  0  0  0  0  0  0  0  0
    3.8137    3.4449   -1.7651 H   0  0  0  0  0  0  0  0  0  0  0  0
    3.6401    2.0339    2.2444 H   0  0  0  0  0  0  0  0  0  0  0  0
    3.3159    3.8945    0.6431 H   0  0  0  0  0  0  0  0  0  0  0  0
    4.9063    3.1580    0.4434 H   0  0  0  0  0  0  0  0  0  0  0  0
    3.9454    1.1062   -2.5733 H   0  0  0  0  0  0  0  0  0  0  0  0
    5.3226    1.5476   -1.5465 H   0  0  0  0  0  0  0  0  0  0  0  0
    5.2652    0.7141    0.9453 H   0  0  0  0  0  0  0  0  0  0  0  0
    3.8963   -0.2870    1.4447 H   0  0  0  0  0  0  0  0  0  0  0  0
    1.5275    3.4864   -1.3074 H   0  0  0  0  0  0  0  0  0  0  0  0
    1.7110    1.9771   -2.1793 H   0  0  0  0  0  0  0  0  0  0  0  0
    1.6900    0.8067    3.0505 H   0  0  0  0  0  0  0  0  0  0  0  0
   -0.6735    0.3061    2.8460 H   0  0  0  0  0  0  0  0  0  0  0  0
    4.9565   -3.2578    1.3371 H   0  0  0  0  0  0  0  0  0  0  0  0
   -2.9728    2.5522    1.4168 H   0  0  0  0  0  0  0  0  0  0  0  0
   -1.9174   -1.3944    0.0259 H   0  0  0  0  0  0  0  0  0  0  0  0
    2.8624   -4.5121    2.3701 H   0  0  0  0  0  0  0  0  0  0  0  0
    0.6550   -3.8925    1.0752 H   0  0  0  0  0  0  0  0  0  0  0  0
   -5.3587    1.9687    1.2444 H   0  0  0  0  0  0  0  0  0  0  0  0
   -4.2981   -1.9711   -0.1387 H   0  0  0  0  0  0  0  0  0  0  0  0
  1  6  2  0  0  0  0
  1  7  2  0  0  0  0
  1 10  1  0  0  0  0
  1 23  1  0  0  0  0
  2 23  1  0  0  0  0
  2 29  1  0  0  0  0
  3 33  1  0  0  0  0
  4 33  1  0  0  0  0
  5 33  1  0  0  0  0
  8 20  2  0  0  0  0
  9 32  1  0  0  0  0
  9 33  1  0  0  0  0
 10 15  1  0  0  0  0
 10 16  1  0  0  0  0
 11 17  1  0  0  0  0
 11 18  1  0  0  0  0
 11 20  1  0  0  0  0
 12 14  1  0  0  0  0
 12 15  1  0  0  0  0
 12 17  1  0  0  0  0
 12 34  1  0  0  0  0
 13 14  1  0  0  0  0
 13 16  1  0  0  0  0
 13 18  1  0  0  0  0
 13 35  1  0  0  0  0
 14 36  1  0  0  0  0
 14 37  1  0  0  0  0
 15 38  1  0  0  0  0
 15 39  1  0  0  0  0
 16 40  1  0  0  0  0
 16 41  1  0  0  0  0
 17 42  1  0  0  0  0
 17 43  1  0  0  0  0
 18 19  2  0  0  0  0
 19 22  1  0  0  0  0
 19 44  1  0  0  0  0
 20 21  1  0  0  0  0
 21 22  2  0  0  0  0
 21 24  1  0  0  0  0
 22 45  1  0  0  0  0
 23 25  2  0  0  0  0
 24 26  2  0  0  0  0
 24 27  1  0  0  0  0
 25 28  1  0  0  0  0
 25 46  1  0  0  0  0
 26 30  1  0  0  0  0
 26 47  1  0  0  0  0
 27 31  2  0  0  0  0
 27 48  1  0  0  0  0
 28 29  2  0  0  0  0
 28 49  1  0  0  0  0
 29 50  1  0  0  0  0
 30 32  2  0  0  0  0
 30 51  1  0  0  0  0
 31 32  1  0  0  0  0
 31 52  1  0  0  0  0
M  END
> <PUBCHEM_COMPOUND_CID>
7674734

> <PUBCHEM_CONFORMER_RMSD>
0.8

> <PUBCHEM_CONFORMER_DIVERSEORDER>
1
28
24
17
25
33
14
9
30
3
23
8
18
22
19
27
34
29
20
31
21
13
26
32
4
10
16
12
15
6
5
7
11
2

> <PUBCHEM_MMFF94_PARTIAL_CHARGES>
40
1 1.5
10 -0.85
11 -0.47
13 0.14
15 0.36
16 0.36
17 0.3
18 -0.03
19 -0.15
2 -0.08
20 0.62
21 -0.01
22 -0.15
23 -0.02
24 0.03
25 -0.15
26 -0.15
27 -0.15
28 -0.15
29 -0.11
3 -0.34
30 -0.15
31 -0.15
32 0.08
33 1.3
4 -0.34
44 0.15
45 0.15
46 0.15
47 0.15
48 0.15
49 0.15
5 -0.34
50 0.15
51 0.15
52 0.15
6 -0.65
7 -0.65
8 -0.57
9 -0.36

> <PUBCHEM_EFFECTIVE_ROTOR_COUNT>
6

> <PUBCHEM_PHARMACOPHORE_FEATURES>
9
1 6 acceptor
1 7 acceptor
1 8 acceptor
1 9 acceptor
5 2 23 25 28 29 rings
6 10 12 13 14 15 16 rings
6 11 12 13 14 17 18 rings
6 11 18 19 20 21 22 rings
6 24 26 27 30 31 32 rings

> <PUBCHEM_HEAVY_ATOM_COUNT>
33

> <PUBCHEM_ATOM_DEF_STEREO_COUNT>
2

> <PUBCHEM_ATOM_UDEF_STEREO_COUNT>
0

> <PUBCHEM_BOND_DEF_STEREO_COUNT>
0

> <PUBCHEM_BOND_UDEF_STEREO_COUNT>
0

> <PUBCHEM_ISOTOPIC_ATOM_COUNT>
0

> <PUBCHEM_COMPONENT_COUNT>
1

> <PUBCHEM_CACTVS_TAUTO_COUNT>
1

> <PUBCHEM_CONFORMER_ID>
00751B6E00000001

> <PUBCHEM_MMFF94_ENERGY>
85.0099

> <PUBCHEM_FEATURE_SELFOVERLAP>
47.276

> <PUBCHEM_SHAPE_FINGERPRINT>
10675989 125 18199753707484333616
11135609 149 18043508556626954022
11408170 132 18261945251538734149
11796584 16 17916312636436842745
12107183 9 17908150880262401521
12147406 95 17532352206702222634
12522641 33 18337109085925971032
13533116 47 18272653471620423105
1361 2 18261960742604665784
13617811 41 18335135436573156821
13782708 43 17203611527907237933
14068700 675 18200599077949984618
14347332 77 18343018853350481809
14931854 50 18338251383706603446
15001296 14 18130218367508507583
15183329 4 18259985964276995381
15250474 111 18342457037062607291
15324884 4 17463444890146980328
17134984 74 18408603699281074939
17138139 8 17915739984294516846
17492 54 18116743801640171214
19026451 147 18340207371948219986
19315092 285 18201152161751708112
19958102 18 18335130995718878101
20567600 247 18410575046013732699
20775438 99 18335697282129743994
20775530 9 17683254564551710810
208703 8 18059857225138173127
21033648 29 13840541938472786704
21703447 108 18272925020917559968
23522609 53 17415311518126137945
23559900 14 18335426806484409833
23569914 152 17248892496188440119
238 59 18188794789807433922
25147074 1 18201445732057905161
25222932 49 17203035404376607373
25269216 80 16299244556829488235
27425 322 16807013366772219592
3004659 81 18272373044367553050
397830 11 11167646734203353309
46194498 28 17822010934231524653
463206 1 18341336664546481754
484989 97 18191047753310012106
5951187 136 14490488486231370222
59682541 52 18186518787510065867
6086070 43 17418090989163457937

> <PUBCHEM_SHAPE_MULTIPOLES>
631.56
15.48
3.97
1.8
33.18
2.56
-0.16
5.75
-6.45
-6.17
0.54
-0.74
-0.07
-1.3

> <PUBCHEM_SHAPE_SELFOVERLAP>
1362.893

> <PUBCHEM_SHAPE_VOLUME>
350.2

> <PUBCHEM_COORDINATE_TYPE>
2
5
10

$$$$
