11867448
  -OEChem-12032416283D

 65 68  0     1  0  0  0  0  0999 V2000
   -0.2759   -1.9339   -1.3054 O   0  0  0  0  0  0  0  0  0  0  0  0
   -0.9518   -3.7778    1.0348 O   0  0  0  0  0  0  0  0  0  0  0  0
    2.1195   -2.2038    0.0753 O   0  0  0  0  0  0  0  0  0  0  0  0
    2.6052   -0.3389    1.3067 O   0  0  0  0  0  0  0  0  0  0  0  0
   -3.2557   -1.3774   -0.5736 N   0  0  0  0  0  0  0  0  0  0  0  0
    4.0524   -1.1250   -0.3572 N   0  0  0  0  0  0  0  0  0  0  0  0
   -7.7819    3.1066   -0.0620 N   0  0  0  0  0  0  0  0  0  0  0  0
   -1.4439   -2.4659    0.6852 C   0  0  1  0  0  0  0  0  0  0  0  0
   -0.2695   -1.6975    0.1135 C   0  0  1  0  0  0  0  0  0  0  0  0
   -2.4156   -2.5693   -0.4705 C   0  0  2  0  0  0  0  0  0  0  0  0
    0.9104   -2.3593    0.7834 C   0  0  1  0  0  0  0  0  0  0  0  0
   -1.4726   -2.6426   -1.6628 C   0  0  0  0  0  0  0  0  0  0  0  0
    0.4710   -3.8048    0.8486 C   0  0  0  0  0  0  0  0  0  0  0  0
   -4.4415   -1.5078    0.2594 C   0  0  0  0  0  0  0  0  0  0  0  0
   -5.3231   -0.2902    0.1747 C   0  0  0  0  0  0  0  0  0  0  0  0
    2.9141   -1.1318    0.4255 C   0  0  0  0  0  0  0  0  0  0  0  0
   -5.1355    0.7699    1.0617 C   0  0  0  0  0  0  0  0  0  0  0  0
   -6.3276   -0.2221   -0.7908 C   0  0  0  0  0  0  0  0  0  0  0  0
   -5.9520    1.8979    0.9831 C   0  0  0  0  0  0  0  0  0  0  0  0
   -7.1441    0.9059   -0.8694 C   0  0  0  0  0  0  0  0  0  0  0  0
    5.1244   -0.2043   -0.3263 C   0  0  0  0  0  0  0  0  0  0  0  0
   -6.9563    1.9660    0.0176 C   0  0  0  0  0  0  0  0  0  0  0  0
    6.2005   -0.3577   -1.2005 C   0  0  0  0  0  0  0  0  0  0  0  0
    5.1065    0.8574    0.5783 C   0  0  0  0  0  0  0  0  0  0  0  0
    7.2406    1.6124   -0.2657 C   0  0  0  0  0  0  0  0  0  0  0  0
    8.3721    2.5835   -0.2344 C   0  0  0  0  0  0  0  0  0  0  0  0
    7.2585    0.5506   -1.1701 C   0  0  0  0  0  0  0  0  0  0  0  0
    6.1646    1.7656    0.6086 C   0  0  0  0  0  0  0  0  0  0  0  0
   -7.6039    4.2075    0.8641 C   0  0  0  0  0  0  0  0  0  0  0  0
   -8.8282    3.1871   -1.0617 C   0  0  0  0  0  0  0  0  0  0  0  0
    9.1108    2.5837    1.1173 C   0  0  0  0  0  0  0  0  0  0  0  0
    7.9287    4.0159   -0.5875 C   0  0  0  0  0  0  0  0  0  0  0  0
   -1.8498   -2.0213    1.5989 H   0  0  0  0  0  0  0  0  0  0  0  0
   -0.3184   -0.6164    0.2719 H   0  0  0  0  0  0  0  0  0  0  0  0
   -3.0251   -3.4807   -0.4496 H   0  0  0  0  0  0  0  0  0  0  0  0
    0.9936   -1.9972    1.8175 H   0  0  0  0  0  0  0  0  0  0  0  0
   -1.1871   -3.6814   -1.8659 H   0  0  0  0  0  0  0  0  0  0  0  0
   -1.8793   -2.2287   -2.5911 H   0  0  0  0  0  0  0  0  0  0  0  0
    0.9394   -4.3452    1.6767 H   0  0  0  0  0  0  0  0  0  0  0  0
    0.6965   -4.3505   -0.0746 H   0  0  0  0  0  0  0  0  0  0  0  0
   -3.5544   -1.2568   -1.5418 H   0  0  0  0  0  0  0  0  0  0  0  0
   -4.1665   -1.6671    1.3097 H   0  0  0  0  0  0  0  0  0  0  0  0
   -5.0282   -2.3875   -0.0371 H   0  0  0  0  0  0  0  0  0  0  0  0
   -4.3549    0.7290    1.8170 H   0  0  0  0  0  0  0  0  0  0  0  0
   -6.4822   -1.0410   -1.4885 H   0  0  0  0  0  0  0  0  0  0  0  0
    4.1321   -1.8733   -1.0414 H   0  0  0  0  0  0  0  0  0  0  0  0
   -5.7654    2.6958    1.6950 H   0  0  0  0  0  0  0  0  0  0  0  0
   -7.9108    0.9107   -1.6379 H   0  0  0  0  0  0  0  0  0  0  0  0
    6.2267   -1.1807   -1.9101 H   0  0  0  0  0  0  0  0  0  0  0  0
    4.3082    1.0396    1.2843 H   0  0  0  0  0  0  0  0  0  0  0  0
    9.1114    2.2913   -0.9926 H   0  0  0  0  0  0  0  0  0  0  0  0
    8.0889    0.4163   -1.8583 H   0  0  0  0  0  0  0  0  0  0  0  0
    6.1310    2.5857    1.3207 H   0  0  0  0  0  0  0  0  0  0  0  0
   -7.7620    3.8839    1.8990 H   0  0  0  0  0  0  0  0  0  0  0  0
   -6.6065    4.6503    0.7656 H   0  0  0  0  0  0  0  0  0  0  0  0
   -8.3219    5.0140    0.6771 H   0  0  0  0  0  0  0  0  0  0  0  0
   -8.4132    3.1364   -2.0745 H   0  0  0  0  0  0  0  0  0  0  0  0
   -9.5668    2.3892   -0.9267 H   0  0  0  0  0  0  0  0  0  0  0  0
   -9.3770    4.1335   -0.9981 H   0  0  0  0  0  0  0  0  0  0  0  0
    9.4524    1.5748    1.3740 H   0  0  0  0  0  0  0  0  0  0  0  0
    9.9900    3.2356    1.0740 H   0  0  0  0  0  0  0  0  0  0  0  0
    8.4721    2.9394    1.9331 H   0  0  0  0  0  0  0  0  0  0  0  0
    7.2431    4.4286    0.1606 H   0  0  0  0  0  0  0  0  0  0  0  0
    7.4195    4.0376   -1.5575 H   0  0  0  0  0  0  0  0  0  0  0  0
    8.7961    4.6822   -0.6481 H   0  0  0  0  0  0  0  0  0  0  0  0
  1  9  1  0  0  0  0
  1 12  1  0  0  0  0
  2  8  1  0  0  0  0
  2 13  1  0  0  0  0
  3 11  1  0  0  0  0
  3 16  1  0  0  0  0
  4 16  2  0  0  0  0
  5 10  1  0  0  0  0
  5 14  1  0  0  0  0
  5 41  1  0  0  0  0
  6 16  1  0  0  0  0
  6 21  1  0  0  0  0
  6 46  1  0  0  0  0
  7 22  1  0  0  0  0
  7 29  1  0  0  0  0
  7 30  1  0  0  0  0
  8  9  1  0  0  0  0
  8 10  1  0  0  0  0
  8 33  1  0  0  0  0
  9 11  1  0  0  0  0
  9 34  1  0  0  0  0
 10 12  1  0  0  0  0
 10 35  1  0  0  0  0
 11 13  1  0  0  0  0
 11 36  1  0  0  0  0
 12 37  1  0  0  0  0
 12 38  1  0  0  0  0
 13 39  1  0  0  0  0
 13 40  1  0  0  0  0
 14 15  1  0  0  0  0
 14 42  1  0  0  0  0
 14 43  1  0  0  0  0
 15 17  2  0  0  0  0
 15 18  1  0  0  0  0
 17 19  1  0  0  0  0
 17 44  1  0  0  0  0
 18 20  2  0  0  0  0
 18 45  1  0  0  0  0
 19 22  2  0  0  0  0
 19 47  1  0  0  0  0
 20 22  1  0  0  0  0
 20 48  1  0  0  0  0
 21 23  2  0  0  0  0
 21 24  1  0  0  0  0
 23 27  1  0  0  0  0
 23 49  1  0  0  0  0
 24 28  2  0  0  0  0
 24 50  1  0  0  0  0
 25 26  1  0  0  0  0
 25 27  2  0  0  0  0
 25 28  1  0  0  0  0
 26 31  1  0  0  0  0
 26 32  1  0  0  0  0
 26 51  1  0  0  0  0
 27 52  1  0  0  0  0
 28 53  1  0  0  0  0
 29 54  1  0  0  0  0
 29 55  1  0  0  0  0
 29 56  1  0  0  0  0
 30 57  1  0  0  0  0
 30 58  1  0  0  0  0
 30 59  1  0  0  0  0
 31 60  1  0  0  0  0
 31 61  1  0  0  0  0
 31 62  1  0  0  0  0
 32 63  1  0  0  0  0
 32 64  1  0  0  0  0
 32 65  1  0  0  0  0
M  END
> <PUBCHEM_COMPOUND_CID>
11867448

> <PUBCHEM_CONFORMER_RMSD>
1

> <PUBCHEM_CONFORMER_DIVERSEORDER>
1
49
35
26
5
25
55
53
8
44
10
27
13
14
11
34
39
54
17
2
32
52
51
18
33
16
9
22
41
20
12
19
28
24
45
46
31
48
43
23
40
7
38
21
29
36
50
47
3
15
30
42
4
37
6

> <PUBCHEM_MMFF94_PARTIAL_CHARGES>
40
1 -0.56
10 0.27
11 0.28
12 0.28
13 0.28
14 0.41
15 -0.14
16 0.78
17 -0.15
18 -0.15
19 -0.15
2 -0.56
20 -0.15
21 0.12
22 0.1
23 -0.15
24 -0.15
25 -0.14
26 0.14
27 -0.15
28 -0.15
29 0.37
3 -0.43
30 0.37
4 -0.57
41 0.36
44 0.15
45 0.15
46 0.37
47 0.15
48 0.15
49 0.15
5 -0.9
50 0.15
52 0.15
53 0.15
6 -0.55
7 -0.84
8 0.28
9 0.28

> <PUBCHEM_EFFECTIVE_ROTOR_COUNT>
10.2

> <PUBCHEM_PHARMACOPHORE_FEATURES>
12
1 1 acceptor
1 2 acceptor
1 4 acceptor
1 5 cation
1 5 donor
1 6 donor
1 7 cation
3 26 31 32 hydrophobe
5 1 8 9 10 12 rings
5 2 8 9 11 13 rings
6 15 17 18 19 20 22 rings
6 21 23 24 25 27 28 rings

> <PUBCHEM_HEAVY_ATOM_COUNT>
32

> <PUBCHEM_ATOM_DEF_STEREO_COUNT>
4

> <PUBCHEM_ATOM_UDEF_STEREO_COUNT>
0

> <PUBCHEM_BOND_DEF_STEREO_COUNT>
0

> <PUBCHEM_BOND_UDEF_STEREO_COUNT>
0

> <PUBCHEM_ISOTOPIC_ATOM_COUNT>
0

> <PUBCHEM_COMPONENT_COUNT>
1

> <PUBCHEM_CACTVS_TAUTO_COUNT>
2

> <PUBCHEM_CONFORMER_ID>
00B5153800000001

> <PUBCHEM_MMFF94_ENERGY>
103.9532

> <PUBCHEM_FEATURE_SELFOVERLAP>
61.614

> <PUBCHEM_SHAPE_FINGERPRINT>
10055352 69 18272651256472034857
10190206 1 17560808718717400057
10280341 67 18272358820206619616
10533779 1 18336255782576037517
10740516 88 9799404555550664989
10930396 42 16370727012086718413
11181472 205 18187927327305955756
11421887 21 18201163143772931345
11421887 45 18339908390057887953
11475781 23 18341901827120106518
11578821 258 17903075870493426140
11973864 47 18341044199360156931
12013929 29 18055073160373742713
12120059 9 9150611206615838091
12124843 1 17917709072376277253
12133447 93 18337685169472393092
12522641 68 18273212031864827471
12895837 130 18270683202633958350
13248334 5 18121215376937686106
13782708 43 8862951558893906694
13944108 23 18340769226541808762
14359421 15 12751241376584286069
14394314 77 18334012808687894380
14931854 50 17775283837882566625
15131766 46 18336253549878060135
15152005 77 10953736720844106025
15183329 4 16988570108345147074
15347591 1 18410856530262080971
15350500 55 18342458166723110012
15510800 12 10447637020294216765
15803439 3 16845573127620864623
16126227 98 18408604785685611567
16728433 281 17989212529680986705
16994733 274 18261391174116963938
18339144 43 16880779619477339892
19303781 99 9150882842065242857
2026 5 10087640399448997541
20609170 114 17458631173028163547
20691028 202 18335140925108318372
20766409 102 18342460323630817857
21223535 225 18270114742553662860
21298829 104 18407761438702873060
21424621 283 18408606980683568322
21585482 111 18409167705817615020
21781055 127 17749115509393719190
22899556 105 12751234771340952333
23389318 12 12175626218280011026
23516275 100 18264204708805283477
23522609 53 16952267636695475942
23523788 1 12757423904380299691
23569914 152 17699870427468482478
23569943 247 8718527438854252541
24771293 8 18334011713744767789
25025965 108 11527134182471368676
25242607 90 9151168736098817373
2835820 40 18194120708148125825
2835820 83 9583512132054566221
3504750 166 9295020067766727551
3711267 37 18335146409550258892
3918712 181 18410007710915176041
393628 194 18335701693182073605
406291 66 9655574110710316717
4366758 26 18339367361944287817
44802255 64 17560805493092056975
44880568 143 18194691582515544998
4516262 110 18335411336845919567
50009960 94 12036606154108201817
54039377 194 9511456736896839025
54583773 228 18339916036707415861
5718773 13 9727630600994202147
5776283 40 18342454880599012049
5937810 71 18131639967682428473
6201320 82 18270415930850851409
6289498 60 18187361047809238824
636775 72 18266177412805219160
636775 8 8790622424739471472
6673363 416 18270961384066916039
6698420 124 18260267460660542738
6712543 237 15140682471165713953
9689198 14 18410863156862959367
9962374 69 11095888190301311098

> <PUBCHEM_SHAPE_MULTIPOLES>
620.12
31.45
5.42
1.24
11.31
1.49
-0.13
49.83
-3.13
-3.69
0.63
-0.04
-0.15
-0.23

> <PUBCHEM_SHAPE_SELFOVERLAP>
1317.837

> <PUBCHEM_SHAPE_VOLUME>
348.5

> <PUBCHEM_COORDINATE_TYPE>
2
5
10

$$$$
