11883011
  -OEChem-12032416123D

 73 76  0     1  0  0  0  0  0999 V2000
   -0.7331    2.9418    0.6349 S   0  0  0  0  0  0  0  0  0  0  0  0
    6.5176   -0.0671    0.6207 O   0  0  0  0  0  0  0  0  0  0  0  0
    6.3586    2.2359   -0.0237 O   0  0  0  0  0  0  0  0  0  0  0  0
   -2.0977   -1.5070   -1.9323 O   0  0  0  0  0  0  0  0  0  0  0  0
   -1.6142   -4.8468    1.5796 O   0  0  0  0  0  0  0  0  0  0  0  0
   -4.2662    0.1352   -0.4511 O   0  0  0  0  0  0  0  0  0  0  0  0
   -1.3687    0.5827   -0.2157 N   0  0  0  0  0  0  0  0  0  0  0  0
   -1.1499   -2.6906   -0.1740 N   0  0  0  0  0  0  0  0  0  0  0  0
   -3.1859    2.0911    0.2663 N   0  0  0  0  0  0  0  0  0  0  0  0
    2.3873   -0.0857   -0.7756 C   0  0  2  0  0  0  0  0  0  0  0  0
    2.8162    0.8645    0.4281 C   0  0  1  0  0  0  0  0  0  0  0  0
    4.3614    1.1033    0.6361 C   0  0  1  0  0  0  0  0  0  0  0  0
    0.8717   -0.5316   -0.5356 C   0  0  1  0  0  0  0  0  0  0  0  0
    3.2769   -1.3559   -0.7721 C   0  0  0  0  0  0  0  0  0  0  0  0
    5.1046   -0.2609    0.5654 C   0  0  1  0  0  0  0  0  0  0  0  0
    1.9713    2.1716    0.4499 C   0  0  0  0  0  0  0  0  0  0  0  0
    4.7683   -1.0643   -0.6860 C   0  0  0  0  0  0  0  0  0  0  0  0
    2.5090    0.6026   -2.1574 C   0  0  0  0  0  0  0  0  0  0  0  0
    0.0113    0.6493   -0.1655 C   0  0  0  0  0  0  0  0  0  0  0  0
    4.9891    2.1235   -0.3392 C   0  0  0  0  0  0  0  0  0  0  0  0
    4.5975    1.6852    2.0587 C   0  0  0  0  0  0  0  0  0  0  0  0
    0.5245    1.8461    0.2915 C   0  0  0  0  0  0  0  0  0  0  0  0
    0.2542   -1.3378   -1.6862 C   0  0  0  0  0  0  0  0  0  0  0  0
   -1.1062   -1.8466   -1.2815 C   0  0  0  0  0  0  0  0  0  0  0  0
   -1.8663    1.7355    0.1767 C   0  0  0  0  0  0  0  0  0  0  0  0
   -0.0339   -3.5033    0.3211 C   0  0  0  0  0  0  0  0  0  0  0  0
   -2.3380   -2.7186    0.6789 C   0  0  0  0  0  0  0  0  0  0  0  0
   -0.5159   -4.9069    0.6657 C   0  0  0  0  0  0  0  0  0  0  0  0
   -2.7247   -4.1545    1.0030 C   0  0  0  0  0  0  0  0  0  0  0  0
   -4.3053    1.2946   -0.0441 C   0  0  0  0  0  0  0  0  0  0  0  0
   -5.6622    2.0125    0.1699 C   0  0  0  0  0  0  0  0  0  0  0  0
   -5.8016    2.4583    1.6341 C   0  0  0  0  0  0  0  0  0  0  0  0
   -6.8224    1.0805   -0.2137 C   0  0  0  0  0  0  0  0  0  0  0  0
   -5.7276    3.2634   -0.7268 C   0  0  0  0  0  0  0  0  0  0  0  0
    2.5096    0.3051    1.3292 H   0  0  0  0  0  0  0  0  0  0  0  0
    0.8898   -1.1368    0.3758 H   0  0  0  0  0  0  0  0  0  0  0  0
    3.0048   -1.9916    0.0810 H   0  0  0  0  0  0  0  0  0  0  0  0
    3.0941   -1.9572   -1.6705 H   0  0  0  0  0  0  0  0  0  0  0  0
    4.8333   -0.8712    1.4374 H   0  0  0  0  0  0  0  0  0  0  0  0
    2.1194    2.7013    1.3967 H   0  0  0  0  0  0  0  0  0  0  0  0
    2.2748    2.8463   -0.3575 H   0  0  0  0  0  0  0  0  0  0  0  0
    5.1249   -0.5500   -1.5853 H   0  0  0  0  0  0  0  0  0  0  0  0
    5.3223   -2.0115   -0.6637 H   0  0  0  0  0  0  0  0  0  0  0  0
    1.8668    1.4832   -2.2462 H   0  0  0  0  0  0  0  0  0  0  0  0
    3.5250    0.9104   -2.3923 H   0  0  0  0  0  0  0  0  0  0  0  0
    2.2279   -0.0819   -2.9655 H   0  0  0  0  0  0  0  0  0  0  0  0
    4.9402    1.8039   -1.3764 H   0  0  0  0  0  0  0  0  0  0  0  0
    4.5290    3.1142   -0.2700 H   0  0  0  0  0  0  0  0  0  0  0  0
    5.6538    1.7291    2.3413 H   0  0  0  0  0  0  0  0  0  0  0  0
    4.0976    1.0720    2.8177 H   0  0  0  0  0  0  0  0  0  0  0  0
    4.2050    2.7037    2.1486 H   0  0  0  0  0  0  0  0  0  0  0  0
    0.8760   -2.1786   -2.0016 H   0  0  0  0  0  0  0  0  0  0  0  0
    0.1089   -0.7017   -2.5684 H   0  0  0  0  0  0  0  0  0  0  0  0
    6.7570    0.1396    1.5391 H   0  0  0  0  0  0  0  0  0  0  0  0
    6.4549    2.9161    0.6640 H   0  0  0  0  0  0  0  0  0  0  0  0
   -3.3405    3.0392    0.5960 H   0  0  0  0  0  0  0  0  0  0  0  0
    0.7782   -3.5596   -0.4056 H   0  0  0  0  0  0  0  0  0  0  0  0
    0.3352   -3.0207    1.2328 H   0  0  0  0  0  0  0  0  0  0  0  0
   -3.1707   -2.1937    0.2040 H   0  0  0  0  0  0  0  0  0  0  0  0
   -2.0743   -2.1796    1.5965 H   0  0  0  0  0  0  0  0  0  0  0  0
   -0.8244   -5.4543   -0.2330 H   0  0  0  0  0  0  0  0  0  0  0  0
    0.2889   -5.4742    1.1434 H   0  0  0  0  0  0  0  0  0  0  0  0
   -3.5440   -4.1690    1.7284 H   0  0  0  0  0  0  0  0  0  0  0  0
   -3.0593   -4.6908    0.1071 H   0  0  0  0  0  0  0  0  0  0  0  0
   -6.7888    2.8962    1.8206 H   0  0  0  0  0  0  0  0  0  0  0  0
   -5.6797    1.6055    2.3117 H   0  0  0  0  0  0  0  0  0  0  0  0
   -5.0539    3.2068    1.9165 H   0  0  0  0  0  0  0  0  0  0  0  0
   -7.7916    1.5738   -0.0795 H   0  0  0  0  0  0  0  0  0  0  0  0
   -6.8212    0.1754    0.4045 H   0  0  0  0  0  0  0  0  0  0  0  0
   -6.7498    0.7639   -1.2606 H   0  0  0  0  0  0  0  0  0  0  0  0
   -5.5459    3.0013   -1.7756 H   0  0  0  0  0  0  0  0  0  0  0  0
   -6.7113    3.7427   -0.6655 H   0  0  0  0  0  0  0  0  0  0  0  0
   -4.9820    4.0153   -0.4473 H   0  0  0  0  0  0  0  0  0  0  0  0
  1 22  1  0  0  0  0
  1 25  1  0  0  0  0
  2 15  1  0  0  0  0
  2 54  1  0  0  0  0
  3 20  1  0  0  0  0
  3 55  1  0  0  0  0
  4 24  2  0  0  0  0
  5 28  1  0  0  0  0
  5 29  1  0  0  0  0
  6 30  2  0  0  0  0
  7 19  1  0  0  0  0
  7 25  2  0  0  0  0
  8 24  1  0  0  0  0
  8 26  1  0  0  0  0
  8 27  1  0  0  0  0
  9 25  1  0  0  0  0
  9 30  1  0  0  0  0
  9 56  1  0  0  0  0
 10 11  1  0  0  0  0
 10 13  1  0  0  0  0
 10 14  1  0  0  0  0
 10 18  1  0  0  0  0
 11 12  1  0  0  0  0
 11 16  1  0  0  0  0
 11 35  1  0  0  0  0
 12 15  1  0  0  0  0
 12 20  1  0  0  0  0
 12 21  1  0  0  0  0
 13 19  1  0  0  0  0
 13 23  1  0  0  0  0
 13 36  1  0  0  0  0
 14 17  1  0  0  0  0
 14 37  1  0  0  0  0
 14 38  1  0  0  0  0
 15 17  1  0  0  0  0
 15 39  1  0  0  0  0
 16 22  1  0  0  0  0
 16 40  1  0  0  0  0
 16 41  1  0  0  0  0
 17 42  1  0  0  0  0
 17 43  1  0  0  0  0
 18 44  1  0  0  0  0
 18 45  1  0  0  0  0
 18 46  1  0  0  0  0
 19 22  2  0  0  0  0
 20 47  1  0  0  0  0
 20 48  1  0  0  0  0
 21 49  1  0  0  0  0
 21 50  1  0  0  0  0
 21 51  1  0  0  0  0
 23 24  1  0  0  0  0
 23 52  1  0  0  0  0
 23 53  1  0  0  0  0
 26 28  1  0  0  0  0
 26 57  1  0  0  0  0
 26 58  1  0  0  0  0
 27 29  1  0  0  0  0
 27 59  1  0  0  0  0
 27 60  1  0  0  0  0
 28 61  1  0  0  0  0
 28 62  1  0  0  0  0
 29 63  1  0  0  0  0
 29 64  1  0  0  0  0
 30 31  1  0  0  0  0
 31 32  1  0  0  0  0
 31 33  1  0  0  0  0
 31 34  1  0  0  0  0
 32 65  1  0  0  0  0
 32 66  1  0  0  0  0
 32 67  1  0  0  0  0
 33 68  1  0  0  0  0
 33 69  1  0  0  0  0
 33 70  1  0  0  0  0
 34 71  1  0  0  0  0
 34 72  1  0  0  0  0
 34 73  1  0  0  0  0
M  END
> <PUBCHEM_COMPOUND_CID>
11883011

> <PUBCHEM_CONFORMER_RMSD>
1

> <PUBCHEM_CONFORMER_DIVERSEORDER>
1
11
8
9
12
7
3
6
4
5
2
10

> <PUBCHEM_MMFF94_PARTIAL_CHARGES>
27
1 -0.08
13 0.18
15 0.28
16 0.18
19 0.05
2 -0.68
20 0.28
22 -0.14
23 0.06
24 0.57
25 0.44
26 0.3
27 0.3
28 0.28
29 0.28
3 -0.68
30 0.57
31 0.06
4 -0.57
5 -0.56
54 0.4
55 0.4
56 0.37
6 -0.57
7 -0.57
8 -0.66
9 -0.49

> <PUBCHEM_EFFECTIVE_ROTOR_COUNT>
9.4

> <PUBCHEM_PHARMACOPHORE_FEATURES>
13
1 2 acceptor
1 2 donor
1 3 acceptor
1 3 donor
1 4 acceptor
1 5 acceptor
1 6 acceptor
1 9 donor
4 31 32 33 34 hydrophobe
5 1 7 19 22 25 rings
6 10 11 12 14 15 17 rings
6 10 11 13 16 19 22 rings
6 5 8 26 27 28 29 rings

> <PUBCHEM_HEAVY_ATOM_COUNT>
34

> <PUBCHEM_ATOM_DEF_STEREO_COUNT>
5

> <PUBCHEM_ATOM_UDEF_STEREO_COUNT>
0

> <PUBCHEM_BOND_DEF_STEREO_COUNT>
0

> <PUBCHEM_BOND_UDEF_STEREO_COUNT>
0

> <PUBCHEM_ISOTOPIC_ATOM_COUNT>
0

> <PUBCHEM_COMPONENT_COUNT>
1

> <PUBCHEM_CACTVS_TAUTO_COUNT>
3

> <PUBCHEM_CONFORMER_ID>
00B5520300000001

> <PUBCHEM_MMFF94_ENERGY>
115.5179

> <PUBCHEM_FEATURE_SELFOVERLAP>
66.118

> <PUBCHEM_SHAPE_FINGERPRINT>
10074138 170 18266155392070030353
10675989 125 18198343940161480169
10906281 52 18059869358373460412
1100329 8 18411699885063588008
11578080 2 16270209752746649874
11991303 11 18334297586651977303
12293681 4 18050563238427983479
12597179 24 18342741810083395835
13140716 1 18341331192552307564
13402501 40 18273495650288044293
13692114 37 18411979187605252151
13726171 33 17979665603208590716
14020679 6 18410570725514087969
14190465 44 18268980042317580872
14790565 3 18411982429767412305
14866123 147 18409444825607810451
15131766 46 17024611099383128572
15927050 60 18411133615613046343
16112460 7 18201445726813703401
19319366 153 18338795599007125367
20197701 30 18341890745539973845
21033648 29 18264471928384286692
21049683 118 18268122341046762827
21304304 249 18339078173558559092
21796203 349 16899374165094297043
22182313 1 17773337796785363300
22956985 138 17611748903501744883
23559900 14 18342464738255201108
23569943 247 15121851058550826908
3178227 256 18340498802859420457
335352 9 18202281377980230700
3383291 50 18122343484995386338
4058900 60 18267310828768024177
4073 2 18339076095015940640
4340502 62 18338239262939232325
5171179 24 17342924151618147009
59520757 100 18187366571627317851
59755656 520 18334288760399381086
6086070 43 16630238212712500200
6371380 46 18337959974470835662
6669772 16 18340202981905749335

> <PUBCHEM_SHAPE_MULTIPOLES>
659.26
13.68
5.45
1.45
3.07
7.85
-0.16
-13.09
1.96
4.95
2.34
-0.32
0.3
1.01

> <PUBCHEM_SHAPE_SELFOVERLAP>
1374.236

> <PUBCHEM_SHAPE_VOLUME>
379.1

> <PUBCHEM_COORDINATE_TYPE>
2
5
10

$$$$
