51137977
  -OEChem-12032416403D

 63 66  0     1  0  0  0  0  0999 V2000
   -0.3360    1.7414    2.3242 O   0  0  0  0  0  0  0  0  0  0  0  0
   -7.5183   -0.6654   -1.7500 O   0  0  0  0  0  0  0  0  0  0  0  0
    1.5628    1.1629    0.6633 N   0  0  0  0  0  0  0  0  0  0  0  0
   -1.8587    0.3244    1.2906 N   0  0  0  0  0  0  0  0  0  0  0  0
   -4.5260   -0.0174    0.3020 N   0  0  0  0  0  0  0  0  0  0  0  0
    3.5881   -3.4634    0.6547 N   0  0  0  0  0  0  0  0  0  0  0  0
    2.3232    1.0635   -0.5897 C   0  0  2  0  0  0  0  0  0  0  0  0
    0.5538    0.1294    0.8459 C   0  0  1  0  0  0  0  0  0  0  0  0
    1.0743   -1.0161    1.7120 C   0  0  0  0  0  0  0  0  0  0  0  0
    3.1898   -0.1898   -0.7492 C   0  0  0  0  0  0  0  0  0  0  0  0
    3.1474    2.3622   -0.6490 C   0  0  0  0  0  0  0  0  0  0  0  0
    3.0611   -1.3799    0.0236 C   0  0  0  0  0  0  0  0  0  0  0  0
    2.1824   -1.7934    1.0842 C   0  0  0  0  0  0  0  0  0  0  0  0
   -0.5780    0.8067    1.5565 C   0  0  0  0  0  0  0  0  0  0  0  0
   -2.1764   -0.7831    0.3843 C   0  0  0  0  0  0  0  0  0  0  0  0
   -3.0017    0.8386    2.0435 C   0  0  0  0  0  0  0  0  0  0  0  0
    2.3143    3.5814   -1.0561 C   0  0  0  0  0  0  0  0  0  0  0  0
   -3.3728   -0.4414   -0.5056 C   0  0  0  0  0  0  0  0  0  0  0  0
   -4.1780    1.1536    1.1200 C   0  0  0  0  0  0  0  0  0  0  0  0
    3.9098   -2.4632   -0.2321 C   0  0  0  0  0  0  0  0  0  0  0  0
    2.5482   -3.0742    1.4461 C   0  0  0  0  0  0  0  0  0  0  0  0
    4.1513   -0.2218   -1.7912 C   0  0  0  0  0  0  0  0  0  0  0  0
   -5.6729    0.2779   -0.5557 C   0  0  0  0  0  0  0  0  0  0  0  0
    4.8827   -2.4580   -1.2330 C   0  0  0  0  0  0  0  0  0  0  0  0
    3.2247    4.8087   -1.1424 C   0  0  0  0  0  0  0  0  0  0  0  0
    1.1635    3.8587   -0.0879 C   0  0  0  0  0  0  0  0  0  0  0  0
    4.9806   -1.3181   -2.0204 C   0  0  0  0  0  0  0  0  0  0  0  0
   -6.4044   -1.0006   -0.9328 C   0  0  0  0  0  0  0  0  0  0  0  0
   -8.2348   -1.8237   -2.1554 C   0  0  0  0  0  0  0  0  0  0  0  0
    1.6231    1.0606   -1.4366 H   0  0  0  0  0  0  0  0  0  0  0  0
    0.2553   -0.2095   -0.1444 H   0  0  0  0  0  0  0  0  0  0  0  0
    1.4178   -0.6383    2.6852 H   0  0  0  0  0  0  0  0  0  0  0  0
    0.2471   -1.7032    1.9360 H   0  0  0  0  0  0  0  0  0  0  0  0
    2.1890    1.2125    1.4661 H   0  0  0  0  0  0  0  0  0  0  0  0
    3.6478    2.5441    0.3138 H   0  0  0  0  0  0  0  0  0  0  0  0
    3.9668    2.2949   -1.3703 H   0  0  0  0  0  0  0  0  0  0  0  0
   -1.3531   -1.1032   -0.2488 H   0  0  0  0  0  0  0  0  0  0  0  0
   -2.4217   -1.6426    1.0219 H   0  0  0  0  0  0  0  0  0  0  0  0
   -2.7228    1.7350    2.6069 H   0  0  0  0  0  0  0  0  0  0  0  0
   -3.2807    0.0687    2.7734 H   0  0  0  0  0  0  0  0  0  0  0  0
    1.8913    3.4111   -2.0544 H   0  0  0  0  0  0  0  0  0  0  0  0
   -3.6149   -1.3333   -1.0934 H   0  0  0  0  0  0  0  0  0  0  0  0
   -3.0831    0.3488   -1.2113 H   0  0  0  0  0  0  0  0  0  0  0  0
   -3.9251    2.0090    0.4793 H   0  0  0  0  0  0  0  0  0  0  0  0
   -5.0314    1.4468    1.7430 H   0  0  0  0  0  0  0  0  0  0  0  0
    2.1510   -3.7419    2.1981 H   0  0  0  0  0  0  0  0  0  0  0  0
    4.2498    0.6149   -2.4788 H   0  0  0  0  0  0  0  0  0  0  0  0
    4.0458   -4.3634    0.7000 H   0  0  0  0  0  0  0  0  0  0  0  0
   -6.3975    0.9110   -0.0251 H   0  0  0  0  0  0  0  0  0  0  0  0
   -5.3921    0.8504   -1.4497 H   0  0  0  0  0  0  0  0  0  0  0  0
    5.5226   -3.3163   -1.4078 H   0  0  0  0  0  0  0  0  0  0  0  0
    4.0377    4.6441   -1.8576 H   0  0  0  0  0  0  0  0  0  0  0  0
    2.6635    5.6874   -1.4779 H   0  0  0  0  0  0  0  0  0  0  0  0
    3.6701    5.0434   -0.1695 H   0  0  0  0  0  0  0  0  0  0  0  0
    0.7326    4.8475   -0.2863 H   0  0  0  0  0  0  0  0  0  0  0  0
    0.3413    3.1504   -0.2206 H   0  0  0  0  0  0  0  0  0  0  0  0
    1.4948    3.8579    0.9557 H   0  0  0  0  0  0  0  0  0  0  0  0
    5.7041   -1.2851   -2.8307 H   0  0  0  0  0  0  0  0  0  0  0  0
   -5.7521   -1.6807   -1.4909 H   0  0  0  0  0  0  0  0  0  0  0  0
   -6.7578   -1.5157   -0.0311 H   0  0  0  0  0  0  0  0  0  0  0  0
   -7.5954   -2.4820   -2.7515 H   0  0  0  0  0  0  0  0  0  0  0  0
   -8.6212   -2.3609   -1.2838 H   0  0  0  0  0  0  0  0  0  0  0  0
   -9.0799   -1.5070   -2.7725 H   0  0  0  0  0  0  0  0  0  0  0  0
  1 14  2  0  0  0  0
  2 28  1  0  0  0  0
  2 29  1  0  0  0  0
  3  7  1  0  0  0  0
  3  8  1  0  0  0  0
  3 34  1  0  0  0  0
  4 14  1  0  0  0  0
  4 15  1  0  0  0  0
  4 16  1  0  0  0  0
  5 18  1  0  0  0  0
  5 19  1  0  0  0  0
  5 23  1  0  0  0  0
  6 20  1  0  0  0  0
  6 21  1  0  0  0  0
  6 48  1  0  0  0  0
  7 10  1  0  0  0  0
  7 11  1  0  0  0  0
  7 30  1  0  0  0  0
  8  9  1  0  0  0  0
  8 14  1  0  0  0  0
  8 31  1  0  0  0  0
  9 13  1  0  0  0  0
  9 32  1  0  0  0  0
  9 33  1  0  0  0  0
 10 12  2  0  0  0  0
 10 22  1  0  0  0  0
 11 17  1  0  0  0  0
 11 35  1  0  0  0  0
 11 36  1  0  0  0  0
 12 13  1  0  0  0  0
 12 20  1  0  0  0  0
 13 21  2  0  0  0  0
 15 18  1  0  0  0  0
 15 37  1  0  0  0  0
 15 38  1  0  0  0  0
 16 19  1  0  0  0  0
 16 39  1  0  0  0  0
 16 40  1  0  0  0  0
 17 25  1  0  0  0  0
 17 26  1  0  0  0  0
 17 41  1  0  0  0  0
 18 42  1  0  0  0  0
 18 43  1  0  0  0  0
 19 44  1  0  0  0  0
 19 45  1  0  0  0  0
 20 24  2  0  0  0  0
 21 46  1  0  0  0  0
 22 27  2  0  0  0  0
 22 47  1  0  0  0  0
 23 28  1  0  0  0  0
 23 49  1  0  0  0  0
 23 50  1  0  0  0  0
 24 27  1  0  0  0  0
 24 51  1  0  0  0  0
 25 52  1  0  0  0  0
 25 53  1  0  0  0  0
 25 54  1  0  0  0  0
 26 55  1  0  0  0  0
 26 56  1  0  0  0  0
 26 57  1  0  0  0  0
 27 58  1  0  0  0  0
 28 59  1  0  0  0  0
 28 60  1  0  0  0  0
 29 61  1  0  0  0  0
 29 62  1  0  0  0  0
 29 63  1  0  0  0  0
M  END
> <PUBCHEM_COMPOUND_CID>
51137977

> <PUBCHEM_CONFORMER_RMSD>
1

> <PUBCHEM_CONFORMER_DIVERSEORDER>
1
93
49
61
71
105
106
68
84
20
110
80
104
32
52
7
85
108
72
102
88
112
17
40
36
43
95
59
73
44
69
37
100
29
42
78
14
92
13
12
75
76
30
25
18
79
41
31
113
19
26
5
67
45
83
82
86
81
21
74
109
90
56
53
24
34
62
27
101
87
3
107
89
77
16
111
39
33
11
70
66
103
96
28
91
2
22
98
94
97
114
60
58
6
54
99
65
10
55
4
50
64
35
46
57
38
8
63
47
15
51
23
48
9

> <PUBCHEM_MMFF94_PARTIAL_CHARGES>
30
1 -0.57
10 -0.14
13 -0.18
14 0.57
15 0.3
16 0.3
18 0.27
19 0.27
2 -0.56
20 -0.15
21 -0.3
22 -0.15
23 0.27
24 -0.15
27 -0.15
28 0.28
29 0.28
3 -0.9
34 0.36
4 -0.66
46 0.15
47 0.15
48 0.27
5 -0.81
51 0.15
58 0.15
6 0.03
7 0.41
8 0.33
9 0.18

> <PUBCHEM_EFFECTIVE_ROTOR_COUNT>
9

> <PUBCHEM_PHARMACOPHORE_FEATURES>
12
1 1 acceptor
1 2 acceptor
1 3 cation
1 3 donor
1 5 cation
1 6 cation
1 6 donor
3 17 25 26 hydrophobe
5 6 12 13 20 21 rings
6 10 12 20 22 24 27 rings
6 4 5 15 16 18 19 rings
7 3 7 8 9 10 12 13 rings

> <PUBCHEM_HEAVY_ATOM_COUNT>
29

> <PUBCHEM_ATOM_DEF_STEREO_COUNT>
2

> <PUBCHEM_ATOM_UDEF_STEREO_COUNT>
0

> <PUBCHEM_BOND_DEF_STEREO_COUNT>
0

> <PUBCHEM_BOND_UDEF_STEREO_COUNT>
0

> <PUBCHEM_ISOTOPIC_ATOM_COUNT>
0

> <PUBCHEM_COMPONENT_COUNT>
1

> <PUBCHEM_CACTVS_TAUTO_COUNT>
1

> <PUBCHEM_CONFORMER_ID>
030C4DB900000001

> <PUBCHEM_MMFF94_ENERGY>
69.0528

> <PUBCHEM_FEATURE_SELFOVERLAP>
61.026

> <PUBCHEM_SHAPE_FINGERPRINT>
10554248 39 12468897837849331603
10622 236 18272368621115681895
10693767 8 18341618058177750950
11135609 149 18191843674762162718
12166972 35 18272368655433066607
12553582 1 18118424877229775938
12661589 4 17417519354575199719
12717326 69 12678596742490508621
13782708 43 17202468057716494847
13911987 19 17680184895906942670
14068700 675 18200593579737691938
15183329 4 18341332172575055909
15684393 108 18125143082850726167
16988056 13 18040720289834573244
17134984 74 18409443721964797223
1813 80 18270401564500945226
19377110 9 8646469818581692729
20626108 58 18059294262251960976
20775438 99 18266730466927455435
21133410 171 17317859405542463506
21304303 282 17192052568033144012
21599406 157 18045755014572741727
21968339 14 17822006489251511818
221357 26 18114184081902729485
23522609 53 17987260953109664217
23559900 14 18335147508992568128
24771293 8 18341339916617563568
2748736 6 12973869405093351639
3004659 81 18202282490023104775
3918712 181 14346061011647834439
4066623 53 17531234024899499756
4353968 344 17903656081957015494
4366758 6 18052532463922531840
46194498 28 18261945328109465605
5951187 136 15647056018349964500
59682541 52 18040992913205069135
6004065 56 18409736192510823168
7164475 11 17757001008629029538
7471813 234 18267034877319540768
9981440 41 17763760071666990664

> <PUBCHEM_SHAPE_MULTIPOLES>
565.14
15.16
4.52
2.11
38.02
4.48
-0.08
-9.31
12.97
-8.23
0.85
1.23
-0.37
-2.77

> <PUBCHEM_SHAPE_SELFOVERLAP>
1191.465

> <PUBCHEM_SHAPE_VOLUME>
318.1

> <PUBCHEM_COORDINATE_TYPE>
2
5
10

$$$$
