56775821
  -OEChem-12032416323D

 55 58  0     0  0  0  0  0  0999 V2000
   -1.4113   -4.0016    1.7105 O   0  0  0  0  0  0  0  0  0  0  0  0
    3.1763   -1.4458   -0.5596 O   0  0  0  0  0  0  0  0  0  0  0  0
    3.1683    1.6837   -2.0333 O   0  0  0  0  0  0  0  0  0  0  0  0
   -6.4589    2.7472    0.5753 O   0  0  0  0  0  0  0  0  0  0  0  0
   -1.5664   -1.2904    0.3765 N   0  0  0  0  0  0  0  0  0  0  0  0
    4.5062    1.0420   -0.2265 N   0  0  0  0  0  0  0  0  0  0  0  0
    2.2205   -2.4544   -0.5407 N   0  0  0  0  0  0  0  0  0  0  0  0
   -0.9598   -2.5979    0.1672 C   0  0  0  0  0  0  0  0  0  0  0  0
   -0.3351   -3.0649    1.4769 C   0  0  0  0  0  0  0  0  0  0  0  0
   -2.0069   -3.6732    0.4346 C   0  0  0  0  0  0  0  0  0  0  0  0
   -0.1306   -2.6727   -1.1218 C   0  0  0  0  0  0  0  0  0  0  0  0
    1.1056   -1.8828   -1.0047 C   0  0  0  0  0  0  0  0  0  0  0  0
   -2.3842   -0.9341   -0.7805 C   0  0  0  0  0  0  0  0  0  0  0  0
    5.7751    1.7336   -0.4908 C   0  0  0  0  0  0  0  0  0  0  0  0
    4.4097    0.4283    1.0982 C   0  0  0  0  0  0  0  0  0  0  0  0
    6.0298    2.8057    0.5651 C   0  0  0  0  0  0  0  0  0  0  0  0
    4.6422    1.4683    2.1915 C   0  0  0  0  0  0  0  0  0  0  0  0
    5.9565    2.2186    1.9749 C   0  0  0  0  0  0  0  0  0  0  0  0
    1.2956   -0.5284   -1.3293 C   0  0  0  0  0  0  0  0  0  0  0  0
    2.6135   -0.3039   -1.0310 C   0  0  0  0  0  0  0  0  0  0  0  0
   -3.4692    0.0454   -0.4198 C   0  0  0  0  0  0  0  0  0  0  0  0
    3.4550    0.8948   -1.1342 C   0  0  0  0  0  0  0  0  0  0  0  0
   -4.6081   -0.3923    0.2562 C   0  0  0  0  0  0  0  0  0  0  0  0
   -3.3351    1.3912   -0.7615 C   0  0  0  0  0  0  0  0  0  0  0  0
   -5.6129    0.5155    0.5904 C   0  0  0  0  0  0  0  0  0  0  0  0
   -4.3399    2.2991   -0.4275 C   0  0  0  0  0  0  0  0  0  0  0  0
   -5.4787    1.8613    0.2484 C   0  0  0  0  0  0  0  0  0  0  0  0
   -6.2572    4.1078    0.1953 C   0  0  0  0  0  0  0  0  0  0  0  0
    0.6146   -3.6034    1.3983 H   0  0  0  0  0  0  0  0  0  0  0  0
   -0.2560   -2.3342    2.2890 H   0  0  0  0  0  0  0  0  0  0  0  0
   -3.0507   -3.3684    0.5590 H   0  0  0  0  0  0  0  0  0  0  0  0
   -1.9756   -4.5374   -0.2378 H   0  0  0  0  0  0  0  0  0  0  0  0
   -0.6969   -2.3878   -2.0148 H   0  0  0  0  0  0  0  0  0  0  0  0
    0.1442   -3.7224   -1.3000 H   0  0  0  0  0  0  0  0  0  0  0  0
   -0.9116   -0.5367    0.5809 H   0  0  0  0  0  0  0  0  0  0  0  0
   -2.8818   -1.8017   -1.2346 H   0  0  0  0  0  0  0  0  0  0  0  0
   -1.7623   -0.4979   -1.5711 H   0  0  0  0  0  0  0  0  0  0  0  0
    6.5711    0.9803   -0.4847 H   0  0  0  0  0  0  0  0  0  0  0  0
    5.7393    2.1791   -1.4903 H   0  0  0  0  0  0  0  0  0  0  0  0
    3.4247   -0.0052    1.2875 H   0  0  0  0  0  0  0  0  0  0  0  0
    5.1578   -0.3707    1.1555 H   0  0  0  0  0  0  0  0  0  0  0  0
    5.2780    3.5988    0.4678 H   0  0  0  0  0  0  0  0  0  0  0  0
    7.0106    3.2654    0.4019 H   0  0  0  0  0  0  0  0  0  0  0  0
    4.6476    0.9834    3.1739 H   0  0  0  0  0  0  0  0  0  0  0  0
    3.8153    2.1897    2.1898 H   0  0  0  0  0  0  0  0  0  0  0  0
    6.7979    1.5318    2.1282 H   0  0  0  0  0  0  0  0  0  0  0  0
    6.0546    3.0188    2.7167 H   0  0  0  0  0  0  0  0  0  0  0  0
    0.5847    0.1825   -1.7233 H   0  0  0  0  0  0  0  0  0  0  0  0
   -4.7257   -1.4379    0.5274 H   0  0  0  0  0  0  0  0  0  0  0  0
   -2.4515    1.7458   -1.2859 H   0  0  0  0  0  0  0  0  0  0  0  0
   -6.4978    0.1687    1.1169 H   0  0  0  0  0  0  0  0  0  0  0  0
   -4.1710    3.3291   -0.7224 H   0  0  0  0  0  0  0  0  0  0  0  0
   -7.1333    4.6709    0.5331 H   0  0  0  0  0  0  0  0  0  0  0  0
   -6.2064    4.2183   -0.8932 H   0  0  0  0  0  0  0  0  0  0  0  0
   -5.3856    4.5408    0.6978 H   0  0  0  0  0  0  0  0  0  0  0  0
  1  9  1  0  0  0  0
  1 10  1  0  0  0  0
  2  7  1  0  0  0  0
  2 20  1  0  0  0  0
  3 22  2  0  0  0  0
  4 27  1  0  0  0  0
  4 28  1  0  0  0  0
  5  8  1  0  0  0  0
  5 13  1  0  0  0  0
  5 35  1  0  0  0  0
  6 14  1  0  0  0  0
  6 15  1  0  0  0  0
  6 22  1  0  0  0  0
  7 12  2  0  0  0  0
  8  9  1  0  0  0  0
  8 10  1  0  0  0  0
  8 11  1  0  0  0  0
  9 29  1  0  0  0  0
  9 30  1  0  0  0  0
 10 31  1  0  0  0  0
 10 32  1  0  0  0  0
 11 12  1  0  0  0  0
 11 33  1  0  0  0  0
 11 34  1  0  0  0  0
 12 19  1  0  0  0  0
 13 21  1  0  0  0  0
 13 36  1  0  0  0  0
 13 37  1  0  0  0  0
 14 16  1  0  0  0  0
 14 38  1  0  0  0  0
 14 39  1  0  0  0  0
 15 17  1  0  0  0  0
 15 40  1  0  0  0  0
 15 41  1  0  0  0  0
 16 18  1  0  0  0  0
 16 42  1  0  0  0  0
 16 43  1  0  0  0  0
 17 18  1  0  0  0  0
 17 44  1  0  0  0  0
 17 45  1  0  0  0  0
 18 46  1  0  0  0  0
 18 47  1  0  0  0  0
 19 20  2  0  0  0  0
 19 48  1  0  0  0  0
 20 22  1  0  0  0  0
 21 23  2  0  0  0  0
 21 24  1  0  0  0  0
 23 25  1  0  0  0  0
 23 49  1  0  0  0  0
 24 26  2  0  0  0  0
 24 50  1  0  0  0  0
 25 27  2  0  0  0  0
 25 51  1  0  0  0  0
 26 27  1  0  0  0  0
 26 52  1  0  0  0  0
 28 53  1  0  0  0  0
 28 54  1  0  0  0  0
 28 55  1  0  0  0  0
M  END
> <PUBCHEM_COMPOUND_CID>
56775821

> <PUBCHEM_CONFORMER_RMSD>
1

> <PUBCHEM_CONFORMER_DIVERSEORDER>
1
24
135
31
64
62
141
125
65
139
140
55
84
33
124
120
97
95
27
40
127
123
79
18
130
47
113
26
73
134
19
82
137
89
111
63
59
69
52
66
131
17
42
99
101
37
77
53
85
46
103
109
133
102
107
98
76
32
36
129
86
136
57
81
7
91
28
87
128
50
48
70
108
51
34
39
5
43
118
71
41
115
74
114
49
83
105
142
35
138
45
78
121
54
56
72
112
106
80
4
90
88
126
117
30
104
94
68
12
122
93
119
75
44
38
10
9
21
29
22
60
13
132
20
8
23
100
16
96
3
110
116
6
2
14
92
25
58
11
67
15
61

> <PUBCHEM_MMFF94_PARTIAL_CHARGES>
31
1 -0.52
10 0.26
11 0.18
12 0.11
13 0.41
14 0.3
15 0.3
19 -0.15
2 -0.02
20 0.05
21 -0.14
22 0.71
23 -0.15
24 -0.15
25 -0.15
26 -0.15
27 0.08
28 0.28
3 -0.57
35 0.36
4 -0.36
48 0.15
49 0.15
5 -0.84
50 0.15
51 0.15
52 0.15
6 -0.66
7 -0.41
8 0.21
9 0.26

> <PUBCHEM_EFFECTIVE_ROTOR_COUNT>
10

> <PUBCHEM_PHARMACOPHORE_FEATURES>
10
1 1 acceptor
1 3 acceptor
1 4 acceptor
1 5 cation
1 5 donor
1 7 acceptor
4 1 8 9 10 rings
5 2 7 12 19 20 rings
6 21 23 24 25 26 27 rings
6 6 14 15 16 17 18 rings

> <PUBCHEM_HEAVY_ATOM_COUNT>
28

> <PUBCHEM_ATOM_DEF_STEREO_COUNT>
0

> <PUBCHEM_ATOM_UDEF_STEREO_COUNT>
0

> <PUBCHEM_BOND_DEF_STEREO_COUNT>
0

> <PUBCHEM_BOND_UDEF_STEREO_COUNT>
0

> <PUBCHEM_ISOTOPIC_ATOM_COUNT>
0

> <PUBCHEM_COMPONENT_COUNT>
1

> <PUBCHEM_CACTVS_TAUTO_COUNT>
1

> <PUBCHEM_CONFORMER_ID>
0362548D00000001

> <PUBCHEM_MMFF94_ENERGY>
73.7658

> <PUBCHEM_FEATURE_SELFOVERLAP>
50.748

> <PUBCHEM_SHAPE_FINGERPRINT>
10042902 136 8935000399413464483
10074138 170 18042409208656841787
10439779 11 18409727408759929620
10674148 151 18187086196684292484
10675989 125 18127414436516411665
10692045 39 18263635191661593994
11720765 8 17627241048170177622
12107183 9 18187071842207315714
12422481 6 17169257161831077965
12623949 98 11098152036537932290
12633257 1 17604422020186040214
12788726 201 17608949911785056859
13103583 49 17459455831970061626
13540713 4 18269577046961242590
13726171 33 18048056339047959740
13782708 43 11602816908504123840
13955234 65 17755590343879980555
14028597 1 17605541357473376667
14251740 57 8285901476667912917
14251764 30 8286202759770341144
14395042 24 18042975470689242307
14429114 114 18198343957911301881
14565420 104 18262800641029404779
14849402 71 18044103349563366310
14950920 106 16661494080577555712
14951699 99 18193553592165799316
15338160 23 18120090847609687636
16067690 210 18119227696564461120
19053607 189 18409453587240958428
19246450 95 17535431917714083136
19438510 23 18344145894990267770
21033648 29 18335428954083913605
21223535 225 16629425574371472944
21401589 2 18411420635318001283
21682296 61 8574415536122169237
23522609 53 17387423544222840820
23559900 14 18409177614797745150
23569914 2 16484121960824955976
23929065 36 18124304159024561043
2748736 6 18341603807128057365
2838139 119 18059283336071476646
3246875 12 18411140243184505059
3459 39 18337938056672143880
376196 1 18342458093287296447
484985 159 11026889385107014839
508706 21 17914606409201981662
5104073 3 18115316570864371795
5219985 13 18411981334782172175
5372103 7 15624785397924462522
57091435 61 18265617585419700417
6371009 1 18261948669694313885
6695519 79 18122938402927748267
7288768 16 18335419075854532591
7808743 9 18409728507980861395
7970288 3 8718823180651854425
9849439 229 18410007702752112865
9981440 41 18339924917186358490

> <PUBCHEM_SHAPE_MULTIPOLES>
537.81
16.25
5.01
1.63
0.34
1.4
0.37
-23.53
4.44
4.56
1.59
-2.2
0.07
1.58

> <PUBCHEM_SHAPE_SELFOVERLAP>
1142.801

> <PUBCHEM_SHAPE_VOLUME>
301.5

> <PUBCHEM_COORDINATE_TYPE>
2
5
10

$$$$
