75366999
  -OEChem-12032416383D

 59 62  0     1  0  0  0  0  0999 V2000
   -4.3492    4.2299   -0.6493 F   0  0  0  0  0  0  0  0  0  0  0  0
    3.3837   -1.0497    0.0911 O   0  0  0  0  0  0  0  0  0  0  0  0
    5.8421   -2.2586    1.1788 O   0  0  0  0  0  0  0  0  0  0  0  0
   -0.2516    0.4263   -2.2537 O   0  0  0  0  0  0  0  0  0  0  0  0
    1.7383    2.3965    0.6470 O   0  0  0  0  0  0  0  0  0  0  0  0
   -1.9420   -1.6949   -0.2144 O   0  0  0  0  0  0  0  0  0  0  0  0
    1.9574    0.5116    1.9701 N   0  0  0  0  0  0  0  0  0  0  0  0
    1.1015    0.6744   -2.4492 N   0  0  0  0  0  0  0  0  0  0  0  0
   -0.1583    1.2626    1.4392 N   0  0  0  0  0  0  0  0  0  0  0  0
    3.8902   -0.1870   -0.9302 C   0  0  1  0  0  0  0  0  0  0  0  0
    3.9183   -0.8227    1.4017 C   0  0  1  0  0  0  0  0  0  0  0  0
    5.4504   -0.9012    1.4011 C   0  0  2  0  0  0  0  0  0  0  0  0
    5.4078   -0.3217   -1.0456 C   0  0  0  0  0  0  0  0  0  0  0  0
    6.0757   -0.0499    0.2993 C   0  0  0  0  0  0  0  0  0  0  0  0
    3.2101   -0.5756   -2.2374 C   0  0  0  0  0  0  0  0  0  0  0  0
    3.3882    0.4814    1.9939 C   0  0  0  0  0  0  0  0  0  0  0  0
    1.7118   -0.4729   -2.1383 C   0  0  0  0  0  0  0  0  0  0  0  0
    0.8036   -1.4705   -1.7438 C   0  0  0  0  0  0  0  0  0  0  0  0
    1.2125    1.4870    1.2843 C   0  0  0  0  0  0  0  0  0  0  0  0
   -0.4164   -0.8541   -1.8337 C   0  0  0  0  0  0  0  0  0  0  0  0
   -1.7952   -1.2874   -1.5775 C   0  0  0  0  0  0  0  0  0  0  0  0
   -1.2276    2.0195    0.9061 C   0  0  0  0  0  0  0  0  0  0  0  0
   -2.5457    1.6452    1.1678 C   0  0  0  0  0  0  0  0  0  0  0  0
   -0.9641    3.1405    0.1189 C   0  0  0  0  0  0  0  0  0  0  0  0
   -3.1655   -2.1858    0.1461 C   0  0  0  0  0  0  0  0  0  0  0  0
   -3.6001    2.3915    0.6420 C   0  0  0  0  0  0  0  0  0  0  0  0
   -2.0186    3.8869   -0.4069 C   0  0  0  0  0  0  0  0  0  0  0  0
   -4.1898   -2.2679   -0.7974 C   0  0  0  0  0  0  0  0  0  0  0  0
   -3.3901   -2.6045    1.4575 C   0  0  0  0  0  0  0  0  0  0  0  0
   -3.3366    3.5125   -0.1454 C   0  0  0  0  0  0  0  0  0  0  0  0
   -5.4385   -2.7686   -0.4293 C   0  0  0  0  0  0  0  0  0  0  0  0
   -4.6389   -3.1053    1.8255 C   0  0  0  0  0  0  0  0  0  0  0  0
   -5.6632   -3.1873    0.8821 C   0  0  0  0  0  0  0  0  0  0  0  0
    3.6274    0.8499   -0.6925 H   0  0  0  0  0  0  0  0  0  0  0  0
    3.5329   -1.6524    2.0083 H   0  0  0  0  0  0  0  0  0  0  0  0
    5.8469   -0.6107    2.3803 H   0  0  0  0  0  0  0  0  0  0  0  0
    5.7985    0.3684   -1.8020 H   0  0  0  0  0  0  0  0  0  0  0  0
    5.6675   -1.3382   -1.3672 H   0  0  0  0  0  0  0  0  0  0  0  0
    7.1482   -0.2594    0.2123 H   0  0  0  0  0  0  0  0  0  0  0  0
    5.9712    1.0128    0.5469 H   0  0  0  0  0  0  0  0  0  0  0  0
    3.4598   -1.6128   -2.4970 H   0  0  0  0  0  0  0  0  0  0  0  0
    3.5709    0.0564   -3.0582 H   0  0  0  0  0  0  0  0  0  0  0  0
    3.7846    1.3566    1.4717 H   0  0  0  0  0  0  0  0  0  0  0  0
    3.6935    0.5649    3.0428 H   0  0  0  0  0  0  0  0  0  0  0  0
    6.8125   -2.2964    1.2293 H   0  0  0  0  0  0  0  0  0  0  0  0
    1.4546   -0.1831    2.5138 H   0  0  0  0  0  0  0  0  0  0  0  0
    1.0038   -2.4869   -1.4387 H   0  0  0  0  0  0  0  0  0  0  0  0
   -2.4787   -0.4565   -1.7942 H   0  0  0  0  0  0  0  0  0  0  0  0
   -1.9971   -2.1295   -2.2520 H   0  0  0  0  0  0  0  0  0  0  0  0
   -0.4283    0.4584    2.0001 H   0  0  0  0  0  0  0  0  0  0  0  0
   -2.7647    0.7748    1.7807 H   0  0  0  0  0  0  0  0  0  0  0  0
    0.0274    3.4917   -0.1289 H   0  0  0  0  0  0  0  0  0  0  0  0
   -4.6263    2.0999    0.8452 H   0  0  0  0  0  0  0  0  0  0  0  0
   -1.8152    4.7597   -1.0205 H   0  0  0  0  0  0  0  0  0  0  0  0
   -4.0924   -1.9576   -1.8317 H   0  0  0  0  0  0  0  0  0  0  0  0
   -2.5962   -2.5417    2.1966 H   0  0  0  0  0  0  0  0  0  0  0  0
   -6.2373   -2.8318   -1.1627 H   0  0  0  0  0  0  0  0  0  0  0  0
   -4.8139   -3.4310    2.8467 H   0  0  0  0  0  0  0  0  0  0  0  0
   -6.6356   -3.5768    1.1688 H   0  0  0  0  0  0  0  0  0  0  0  0
  1 30  1  0  0  0  0
  2 10  1  0  0  0  0
  2 11  1  0  0  0  0
  3 12  1  0  0  0  0
  3 45  1  0  0  0  0
  4  8  1  0  0  0  0
  4 20  1  0  0  0  0
  5 19  2  0  0  0  0
  6 21  1  0  0  0  0
  6 25  1  0  0  0  0
  7 16  1  0  0  0  0
  7 19  1  0  0  0  0
  7 46  1  0  0  0  0
  8 17  2  0  0  0  0
  9 19  1  0  0  0  0
  9 22  1  0  0  0  0
  9 50  1  0  0  0  0
 10 13  1  0  0  0  0
 10 15  1  0  0  0  0
 10 34  1  0  0  0  0
 11 12  1  0  0  0  0
 11 16  1  0  0  0  0
 11 35  1  0  0  0  0
 12 14  1  0  0  0  0
 12 36  1  0  0  0  0
 13 14  1  0  0  0  0
 13 37  1  0  0  0  0
 13 38  1  0  0  0  0
 14 39  1  0  0  0  0
 14 40  1  0  0  0  0
 15 17  1  0  0  0  0
 15 41  1  0  0  0  0
 15 42  1  0  0  0  0
 16 43  1  0  0  0  0
 16 44  1  0  0  0  0
 17 18  1  0  0  0  0
 18 20  2  0  0  0  0
 18 47  1  0  0  0  0
 20 21  1  0  0  0  0
 21 48  1  0  0  0  0
 21 49  1  0  0  0  0
 22 23  2  0  0  0  0
 22 24  1  0  0  0  0
 23 26  1  0  0  0  0
 23 51  1  0  0  0  0
 24 27  2  0  0  0  0
 24 52  1  0  0  0  0
 25 28  2  0  0  0  0
 25 29  1  0  0  0  0
 26 30  2  0  0  0  0
 26 53  1  0  0  0  0
 27 30  1  0  0  0  0
 27 54  1  0  0  0  0
 28 31  1  0  0  0  0
 28 55  1  0  0  0  0
 29 32  2  0  0  0  0
 29 56  1  0  0  0  0
 31 33  2  0  0  0  0
 31 57  1  0  0  0  0
 32 33  1  0  0  0  0
 32 58  1  0  0  0  0
 33 59  1  0  0  0  0
M  END
> <PUBCHEM_COMPOUND_CID>
75366999

> <PUBCHEM_CONFORMER_RMSD>
1.4

> <PUBCHEM_CONFORMER_DIVERSEORDER>
1
10
79
77
26
42
64
90
75
113
84
92
17
82
53
67
41
37
96
48
66
11
22
110
97
34
47
94
122
25
23
58
111
100
52
99
112
76
87
16
57
86
54
127
73
35
81
70
40
33
103
31
80
24
74
104
30
9
44
2
65
107
71
123
14
18
88
12
68
83
108
126
36
95
49
13
28
6
51
117
119
8
39
124
32
15
125
59
116
60
55
61
115
85
20
109
114
118
101
45
72
63
46
4
69
91
106
56
120
38
27
105
19
3
89
5
62
102
7
93
29
78
98
21
121
43
50

> <PUBCHEM_MMFF94_PARTIAL_CHARGES>
44
1 -0.19
10 0.28
11 0.28
12 0.28
15 0.18
16 0.3
17 0.11
18 -0.15
19 0.69
2 -0.56
20 -0.04
21 0.46
22 0.12
23 -0.15
24 -0.15
25 0.08
26 -0.15
27 -0.15
28 -0.15
29 -0.15
3 -0.68
30 0.19
31 -0.15
32 -0.15
33 -0.15
4 -0.02
45 0.4
46 0.37
47 0.15
5 -0.57
50 0.37
51 0.15
52 0.15
53 0.15
54 0.15
55 0.15
56 0.15
57 0.15
58 0.15
59 0.15
6 -0.36
7 -0.73
8 -0.41
9 -0.55

> <PUBCHEM_EFFECTIVE_ROTOR_COUNT>
11.2

> <PUBCHEM_PHARMACOPHORE_FEATURES>
12
1 2 acceptor
1 3 acceptor
1 3 donor
1 5 acceptor
1 6 acceptor
1 7 donor
1 8 acceptor
1 9 donor
5 4 8 17 18 20 rings
6 2 10 11 12 13 14 rings
6 22 23 24 26 27 30 rings
6 25 28 29 31 32 33 rings

> <PUBCHEM_HEAVY_ATOM_COUNT>
33

> <PUBCHEM_ATOM_DEF_STEREO_COUNT>
3

> <PUBCHEM_ATOM_UDEF_STEREO_COUNT>
0

> <PUBCHEM_BOND_DEF_STEREO_COUNT>
0

> <PUBCHEM_BOND_UDEF_STEREO_COUNT>
0

> <PUBCHEM_ISOTOPIC_ATOM_COUNT>
0

> <PUBCHEM_COMPONENT_COUNT>
1

> <PUBCHEM_CACTVS_TAUTO_COUNT>
3

> <PUBCHEM_CONFORMER_ID>
047E025700000001

> <PUBCHEM_MMFF94_ENERGY>
73.2487

> <PUBCHEM_FEATURE_SELFOVERLAP>
60.95

> <PUBCHEM_SHAPE_FINGERPRINT>
10688039 33 18340492278165280933
11991303 11 18116987794015556285
12128747 34 18055073164410384182
12422481 6 17560527295433289891
12788726 201 18190481499919597958
13135754 10 18410844460854313913
13726171 33 18129682875619113472
13965767 371 17129294544030534152
14840074 17 17698436968551960960
15721738 202 17604149345265093858
16067689 68 17897987072638429306
18603816 31 17752758036138914442
21304303 282 18190734238266682677
2132832 1 18187656854795592669
22182313 1 17417821599612177388
23559900 14 17169826915662199087
3052486 1 18411429405203148630
3187 122 18342737442402323173
3886686 26 17904483995719427922
4058900 60 17691964865349272281
469060 322 18268733708477955619
508706 21 18272651195451299661
513202 73 18342451556236094235
56638632 10 15194991808469175938
58260988 393 18337109068571671224
5951187 136 12818012437407075763
59520757 100 18334854962719348069

> <PUBCHEM_SHAPE_MULTIPOLES>
627.56
12.72
4.75
2.37
6
4.31
-0.62
-10.4
4.08
-9.67
0.67
1.49
-0.73
1.03

> <PUBCHEM_SHAPE_SELFOVERLAP>
1340.126

> <PUBCHEM_SHAPE_VOLUME>
347.1

> <PUBCHEM_COORDINATE_TYPE>
2
5
10

$$$$
