7685329
  -OEChem-12032416153D

 57 60  0     1  0  0  0  0  0999 V2000
   -3.6602    2.3711    1.9623 O   0  0  0  0  0  0  0  0  0  0  0  0
   -3.8629   -2.0347   -0.9172 O   0  0  0  0  0  0  0  0  0  0  0  0
   -3.2562   -3.2644    1.3754 O   0  0  0  0  0  0  0  0  0  0  0  0
    5.5460   -2.3552   -0.0576 O   0  0  0  0  0  0  0  0  0  0  0  0
   -2.1469   -0.6723   -1.6892 N   0  0  0  0  0  0  0  0  0  0  0  0
   -2.1066    1.8100    0.3017 N   0  0  0  0  0  0  0  0  0  0  0  0
    5.5282   -0.0002   -0.1660 N   0  0  0  0  0  0  0  0  0  0  0  0
   -2.7719    1.6899   -2.1711 C   0  0  1  0  0  0  0  0  0  0  0  0
   -0.4704    1.1575   -1.4923 C   0  0  2  0  0  0  0  0  0  0  0  0
   -1.3109    2.0213   -2.4311 C   0  0  0  0  0  0  0  0  0  0  0  0
   -3.0503    0.2014   -2.4377 C   0  0  0  0  0  0  0  0  0  0  0  0
   -3.1116    2.0866   -0.7339 C   0  0  0  0  0  0  0  0  0  0  0  0
   -0.7224   -0.3330   -1.8027 C   0  0  0  0  0  0  0  0  0  0  0  0
   -0.7828    1.4521   -0.0225 C   0  0  0  0  0  0  0  0  0  0  0  0
    0.1512    1.3541    0.9593 C   0  0  0  0  0  0  0  0  0  0  0  0
   -2.5223    2.0434    1.6248 C   0  0  0  0  0  0  0  0  0  0  0  0
   -2.6607   -1.7697   -0.9988 C   0  0  0  0  0  0  0  0  0  0  0  0
   -0.2419    1.5843    2.3365 C   0  0  0  0  0  0  0  0  0  0  0  0
   -1.4923    1.8946    2.6776 C   0  0  0  0  0  0  0  0  0  0  0  0
    1.5571    0.9999    0.6653 C   0  0  0  0  0  0  0  0  0  0  0  0
   -1.6605   -2.6647   -0.3117 C   0  0  0  0  0  0  0  0  0  0  0  0
   -2.3876   -3.7960    0.3827 C   0  0  0  0  0  0  0  0  0  0  0  0
    1.9433   -0.3366    0.6466 C   0  0  0  0  0  0  0  0  0  0  0  0
    2.4839    2.0061    0.4098 C   0  0  0  0  0  0  0  0  0  0  0  0
    3.2690   -0.6705    0.3697 C   0  0  0  0  0  0  0  0  0  0  0  0
    3.8097    1.6723    0.1328 C   0  0  0  0  0  0  0  0  0  0  0  0
    4.2023    0.3339    0.1127 C   0  0  0  0  0  0  0  0  0  0  0  0
   -3.9486   -4.2943    2.0673 C   0  0  0  0  0  0  0  0  0  0  0  0
    6.1031   -1.2762   -0.2312 C   0  0  0  0  0  0  0  0  0  0  0  0
    7.5732   -1.2106   -0.5616 C   0  0  0  0  0  0  0  0  0  0  0  0
   -3.4077    2.2718   -2.8498 H   0  0  0  0  0  0  0  0  0  0  0  0
    0.5790    1.3798   -1.7157 H   0  0  0  0  0  0  0  0  0  0  0  0
   -1.0521    1.8143   -3.4768 H   0  0  0  0  0  0  0  0  0  0  0  0
   -1.1166    3.0871   -2.2574 H   0  0  0  0  0  0  0  0  0  0  0  0
   -4.0954   -0.0349   -2.2112 H   0  0  0  0  0  0  0  0  0  0  0  0
   -2.8954   -0.0214   -3.5006 H   0  0  0  0  0  0  0  0  0  0  0  0
   -4.0635    1.6333   -0.4286 H   0  0  0  0  0  0  0  0  0  0  0  0
   -3.2743    3.1729   -0.7018 H   0  0  0  0  0  0  0  0  0  0  0  0
   -0.1062   -0.9705   -1.1705 H   0  0  0  0  0  0  0  0  0  0  0  0
   -0.4312   -0.5504   -2.8382 H   0  0  0  0  0  0  0  0  0  0  0  0
    0.5139    1.4855    3.1103 H   0  0  0  0  0  0  0  0  0  0  0  0
   -1.7783    2.0592    3.7096 H   0  0  0  0  0  0  0  0  0  0  0  0
   -0.9589   -3.0681   -1.0482 H   0  0  0  0  0  0  0  0  0  0  0  0
   -1.1224   -2.0700    0.4342 H   0  0  0  0  0  0  0  0  0  0  0  0
   -2.9653   -4.3897   -0.3365 H   0  0  0  0  0  0  0  0  0  0  0  0
   -1.6535   -4.4551    0.8610 H   0  0  0  0  0  0  0  0  0  0  0  0
    1.2305   -1.1299    0.8560 H   0  0  0  0  0  0  0  0  0  0  0  0
    2.1918    3.0531    0.4214 H   0  0  0  0  0  0  0  0  0  0  0  0
    3.4978   -1.7271    0.3747 H   0  0  0  0  0  0  0  0  0  0  0  0
    4.5260    2.4654   -0.0661 H   0  0  0  0  0  0  0  0  0  0  0  0
    6.1468    0.7887   -0.3424 H   0  0  0  0  0  0  0  0  0  0  0  0
   -4.5978   -3.8303    2.8146 H   0  0  0  0  0  0  0  0  0  0  0  0
   -4.5700   -4.8707    1.3750 H   0  0  0  0  0  0  0  0  0  0  0  0
   -3.2425   -4.9545    2.5800 H   0  0  0  0  0  0  0  0  0  0  0  0
    8.0975   -0.6188    0.1940 H   0  0  0  0  0  0  0  0  0  0  0  0
    7.9951   -2.2193   -0.5768 H   0  0  0  0  0  0  0  0  0  0  0  0
    7.7105   -0.7527   -1.5452 H   0  0  0  0  0  0  0  0  0  0  0  0
  1 16  2  0  0  0  0
  2 17  2  0  0  0  0
  3 22  1  0  0  0  0
  3 28  1  0  0  0  0
  4 29  2  0  0  0  0
  5 11  1  0  0  0  0
  5 13  1  0  0  0  0
  5 17  1  0  0  0  0
  6 12  1  0  0  0  0
  6 14  1  0  0  0  0
  6 16  1  0  0  0  0
  7 27  1  0  0  0  0
  7 29  1  0  0  0  0
  7 51  1  0  0  0  0
  8 10  1  0  0  0  0
  8 11  1  0  0  0  0
  8 12  1  0  0  0  0
  8 31  1  0  0  0  0
  9 10  1  0  0  0  0
  9 13  1  0  0  0  0
  9 14  1  0  0  0  0
  9 32  1  0  0  0  0
 10 33  1  0  0  0  0
 10 34  1  0  0  0  0
 11 35  1  0  0  0  0
 11 36  1  0  0  0  0
 12 37  1  0  0  0  0
 12 38  1  0  0  0  0
 13 39  1  0  0  0  0
 13 40  1  0  0  0  0
 14 15  2  0  0  0  0
 15 18  1  0  0  0  0
 15 20  1  0  0  0  0
 16 19  1  0  0  0  0
 17 21  1  0  0  0  0
 18 19  2  0  0  0  0
 18 41  1  0  0  0  0
 19 42  1  0  0  0  0
 20 23  2  0  0  0  0
 20 24  1  0  0  0  0
 21 22  1  0  0  0  0
 21 43  1  0  0  0  0
 21 44  1  0  0  0  0
 22 45  1  0  0  0  0
 22 46  1  0  0  0  0
 23 25  1  0  0  0  0
 23 47  1  0  0  0  0
 24 26  2  0  0  0  0
 24 48  1  0  0  0  0
 25 27  2  0  0  0  0
 25 49  1  0  0  0  0
 26 27  1  0  0  0  0
 26 50  1  0  0  0  0
 28 52  1  0  0  0  0
 28 53  1  0  0  0  0
 28 54  1  0  0  0  0
 29 30  1  0  0  0  0
 30 55  1  0  0  0  0
 30 56  1  0  0  0  0
 30 57  1  0  0  0  0
M  END
> <PUBCHEM_COMPOUND_CID>
7685329

> <PUBCHEM_CONFORMER_RMSD>
1

> <PUBCHEM_CONFORMER_DIVERSEORDER>
1
8
3
5
6
4
7
2

> <PUBCHEM_MMFF94_PARTIAL_CHARGES>
35
1 -0.57
11 0.3
12 0.3
13 0.3
14 -0.03
15 -0.03
16 0.62
17 0.57
18 -0.15
19 -0.14
2 -0.57
20 0.03
21 0.06
22 0.28
23 -0.15
24 -0.15
25 -0.15
26 -0.15
27 0.12
28 0.28
29 0.57
3 -0.56
30 0.06
4 -0.57
41 0.15
42 0.15
47 0.15
48 0.15
49 0.15
5 -0.66
50 0.15
51 0.37
6 -0.47
7 -0.55
9 0.14

> <PUBCHEM_EFFECTIVE_ROTOR_COUNT>
8

> <PUBCHEM_PHARMACOPHORE_FEATURES>
9
1 1 acceptor
1 2 acceptor
1 3 acceptor
1 4 acceptor
1 7 donor
6 20 23 24 25 26 27 rings
6 5 8 9 10 11 13 rings
6 6 14 15 16 18 19 rings
6 6 8 9 10 12 14 rings

> <PUBCHEM_HEAVY_ATOM_COUNT>
30

> <PUBCHEM_ATOM_DEF_STEREO_COUNT>
2

> <PUBCHEM_ATOM_UDEF_STEREO_COUNT>
0

> <PUBCHEM_BOND_DEF_STEREO_COUNT>
0

> <PUBCHEM_BOND_UDEF_STEREO_COUNT>
0

> <PUBCHEM_ISOTOPIC_ATOM_COUNT>
0

> <PUBCHEM_COMPONENT_COUNT>
1

> <PUBCHEM_CACTVS_TAUTO_COUNT>
2

> <PUBCHEM_CONFORMER_ID>
007544D100000001

> <PUBCHEM_MMFF94_ENERGY>
87.7352

> <PUBCHEM_FEATURE_SELFOVERLAP>
47.245

> <PUBCHEM_SHAPE_FINGERPRINT>
10764073 3 14902897679742964277
107951 10 18264475196969619247
11135609 12 18336827597673384010
11315181 36 17489292055026785716
11387372 6 17984161278921564910
12156800 1 17835849396595843903
12717326 25 15767833918019206406
12788726 201 17416957323127256737
13103583 49 17271464692011535747
13135754 10 18127720246888064563
13383661 66 17825962682301992554
14251740 79 18411693279530844582
14251764 30 18119815956338228866
14844126 61 16844996927888012580
17686467 74 13120012156971441004
17909252 39 17536036906284924516
18603816 31 18189058603931689626
20775530 9 18117269478802579931
23466295 7 18261958543339024995
3383291 50 17489011687381446487
3737641 26 18121783000162736314
4058900 60 17905322927760525709
469060 322 17676776464740577650
484985 159 18412547604339780947
4921388 177 18334568040763744228
497634 4 18410014364383559044
5104073 3 17846205645557956296
5486654 36 18342741814847764256
57527585 103 18341629091431367119
58260988 114 18338250318243399770
58260988 587 17325196343945989109
59755656 520 18268432343154191160
70251023 43 17412713448999418295
9981440 41 16701458944529964357

> <PUBCHEM_SHAPE_MULTIPOLES>
578.97
11.23
4.26
2.47
26.44
4.94
-0.2
7.94
1.22
-5.88
-1.98
-3.49
-1.13
1.46

> <PUBCHEM_SHAPE_SELFOVERLAP>
1244.727

> <PUBCHEM_SHAPE_VOLUME>
313.2

> <PUBCHEM_COORDINATE_TYPE>
2
5
10

$$$$
