7135447
  -OEChem-12032416163D

 62 64  0     1  0  0  0  0  0999 V2000
    2.8552   -0.3800    1.9096 O   0  0  0  0  0  0  0  0  0  0  0  0
   -4.1818    0.7657    0.6866 O   0  0  0  0  0  0  0  0  0  0  0  0
   -4.4397    3.3122   -0.4073 O   0  0  0  0  0  0  0  0  0  0  0  0
    4.2178    0.5837    0.2933 N   0  0  0  0  0  0  0  0  0  0  0  0
    1.4172   -1.8081    0.0986 C   0  0  2  0  0  0  0  0  0  0  0  0
    2.8566   -1.4121   -0.2230 C   0  0  1  0  0  0  0  0  0  0  0  0
    0.9210   -2.8964   -0.8579 C   0  0  0  0  0  0  0  0  0  0  0  0
    0.4892   -0.5865    0.0208 C   0  0  0  0  0  0  0  0  0  0  0  0
   -0.4721   -3.3738   -0.4505 C   0  0  0  0  0  0  0  0  0  0  0  0
   -0.9759   -0.9407    0.0917 C   0  0  0  0  0  0  0  0  0  0  0  0
   -1.4316   -2.2454   -0.1697 C   0  0  0  0  0  0  0  0  0  0  0  0
    3.3051   -0.3613    0.7610 C   0  0  0  0  0  0  0  0  0  0  0  0
    3.7887   -2.6110   -0.1592 C   0  0  0  0  0  0  0  0  0  0  0  0
   -1.9077    0.0713    0.3696 C   0  0  0  0  0  0  0  0  0  0  0  0
    4.6989    1.6379    1.1887 C   0  0  0  0  0  0  0  0  0  0  0  0
    4.8041    0.6051   -1.0527 C   0  0  0  0  0  0  0  0  0  0  0  0
   -2.8067   -2.5193   -0.1121 C   0  0  0  0  0  0  0  0  0  0  0  0
    4.4858    3.0174    0.5713 C   0  0  0  0  0  0  0  0  0  0  0  0
    4.5941    1.9658   -1.7134 C   0  0  0  0  0  0  0  0  0  0  0  0
    5.1024    3.0996   -0.8241 C   0  0  0  0  0  0  0  0  0  0  0  0
   -3.2724   -0.2115    0.4139 C   0  0  0  0  0  0  0  0  0  0  0  0
   -3.7216   -1.5069    0.1754 C   0  0  0  0  0  0  0  0  0  0  0  0
   -1.4609    1.4802    0.6148 C   0  0  0  0  0  0  0  0  0  0  0  0
   -3.3406   -3.8971   -0.3451 C   0  0  0  0  0  0  0  0  0  0  0  0
   -5.1648    1.0327   -0.3115 C   0  0  0  0  0  0  0  0  0  0  0  0
   -5.5831    2.4874   -0.2175 C   0  0  0  0  0  0  0  0  0  0  0  0
   -4.7775    4.6911   -0.3512 C   0  0  0  0  0  0  0  0  0  0  0  0
    1.3643   -2.2176    1.1187 H   0  0  0  0  0  0  0  0  0  0  0  0
    2.8348   -1.0156   -1.2396 H   0  0  0  0  0  0  0  0  0  0  0  0
    0.8940   -2.5074   -1.8845 H   0  0  0  0  0  0  0  0  0  0  0  0
    1.5751   -3.7735   -0.8640 H   0  0  0  0  0  0  0  0  0  0  0  0
    0.7272    0.0983    0.8393 H   0  0  0  0  0  0  0  0  0  0  0  0
    0.6576   -0.0518   -0.9235 H   0  0  0  0  0  0  0  0  0  0  0  0
   -0.8492   -4.0115   -1.2579 H   0  0  0  0  0  0  0  0  0  0  0  0
   -0.3904   -3.9887    0.4547 H   0  0  0  0  0  0  0  0  0  0  0  0
    3.6292   -3.1989    0.7516 H   0  0  0  0  0  0  0  0  0  0  0  0
    4.8382   -2.2949   -0.1553 H   0  0  0  0  0  0  0  0  0  0  0  0
    3.6650   -3.2693   -1.0243 H   0  0  0  0  0  0  0  0  0  0  0  0
    4.1943    1.5862    2.1586 H   0  0  0  0  0  0  0  0  0  0  0  0
    5.7659    1.4565    1.3643 H   0  0  0  0  0  0  0  0  0  0  0  0
    5.8790    0.4240   -0.9231 H   0  0  0  0  0  0  0  0  0  0  0  0
    4.4508   -0.1831   -1.7135 H   0  0  0  0  0  0  0  0  0  0  0  0
    3.4102    3.2221    0.5009 H   0  0  0  0  0  0  0  0  0  0  0  0
    4.9215    3.7870    1.2177 H   0  0  0  0  0  0  0  0  0  0  0  0
    3.5249    2.1127   -1.9100 H   0  0  0  0  0  0  0  0  0  0  0  0
    5.1096    1.9942   -2.6797 H   0  0  0  0  0  0  0  0  0  0  0  0
    6.1950    3.0418   -0.7456 H   0  0  0  0  0  0  0  0  0  0  0  0
    4.8627    4.0663   -1.2805 H   0  0  0  0  0  0  0  0  0  0  0  0
   -4.7850   -1.7284    0.2232 H   0  0  0  0  0  0  0  0  0  0  0  0
   -0.8950    1.5394    1.5506 H   0  0  0  0  0  0  0  0  0  0  0  0
   -2.2861    2.1912    0.7028 H   0  0  0  0  0  0  0  0  0  0  0  0
   -0.8358    1.8357   -0.2112 H   0  0  0  0  0  0  0  0  0  0  0  0
   -4.4124   -3.9622   -0.1272 H   0  0  0  0  0  0  0  0  0  0  0  0
   -2.8429   -4.6234    0.3058 H   0  0  0  0  0  0  0  0  0  0  0  0
   -3.2022   -4.1880   -1.3914 H   0  0  0  0  0  0  0  0  0  0  0  0
   -4.7500    0.8422   -1.3098 H   0  0  0  0  0  0  0  0  0  0  0  0
   -6.0304    0.3813   -0.1508 H   0  0  0  0  0  0  0  0  0  0  0  0
   -6.3379    2.7098   -0.9798 H   0  0  0  0  0  0  0  0  0  0  0  0
   -6.0006    2.6885    0.7759 H   0  0  0  0  0  0  0  0  0  0  0  0
   -5.4876    4.9448   -1.1442 H   0  0  0  0  0  0  0  0  0  0  0  0
   -5.1979    4.9440    0.6270 H   0  0  0  0  0  0  0  0  0  0  0  0
   -3.8652    5.2750   -0.5001 H   0  0  0  0  0  0  0  0  0  0  0  0
  1 12  2  0  0  0  0
  2 21  1  0  0  0  0
  2 25  1  0  0  0  0
  3 26  1  0  0  0  0
  3 27  1  0  0  0  0
  4 12  1  0  0  0  0
  4 15  1  0  0  0  0
  4 16  1  0  0  0  0
  5  6  1  0  0  0  0
  5  7  1  0  0  0  0
  5  8  1  0  0  0  0
  5 28  1  0  0  0  0
  6 12  1  0  0  0  0
  6 13  1  0  0  0  0
  6 29  1  0  0  0  0
  7  9  1  0  0  0  0
  7 30  1  0  0  0  0
  7 31  1  0  0  0  0
  8 10  1  0  0  0  0
  8 32  1  0  0  0  0
  8 33  1  0  0  0  0
  9 11  1  0  0  0  0
  9 34  1  0  0  0  0
  9 35  1  0  0  0  0
 10 11  2  0  0  0  0
 10 14  1  0  0  0  0
 11 17  1  0  0  0  0
 13 36  1  0  0  0  0
 13 37  1  0  0  0  0
 13 38  1  0  0  0  0
 14 21  2  0  0  0  0
 14 23  1  0  0  0  0
 15 18  1  0  0  0  0
 15 39  1  0  0  0  0
 15 40  1  0  0  0  0
 16 19  1  0  0  0  0
 16 41  1  0  0  0  0
 16 42  1  0  0  0  0
 17 22  2  0  0  0  0
 17 24  1  0  0  0  0
 18 20  1  0  0  0  0
 18 43  1  0  0  0  0
 18 44  1  0  0  0  0
 19 20  1  0  0  0  0
 19 45  1  0  0  0  0
 19 46  1  0  0  0  0
 20 47  1  0  0  0  0
 20 48  1  0  0  0  0
 21 22  1  0  0  0  0
 22 49  1  0  0  0  0
 23 50  1  0  0  0  0
 23 51  1  0  0  0  0
 23 52  1  0  0  0  0
 24 53  1  0  0  0  0
 24 54  1  0  0  0  0
 24 55  1  0  0  0  0
 25 26  1  0  0  0  0
 25 56  1  0  0  0  0
 25 57  1  0  0  0  0
 26 58  1  0  0  0  0
 26 59  1  0  0  0  0
 27 60  1  0  0  0  0
 27 61  1  0  0  0  0
 27 62  1  0  0  0  0
M  END
> <PUBCHEM_COMPOUND_CID>
7135447

> <PUBCHEM_CONFORMER_RMSD>
1

> <PUBCHEM_CONFORMER_DIVERSEORDER>
1
56
15
11
14
17
32
39
23
54
19
36
59
42
4
61
63
33
16
20
35
31
46
2
62
53
10
18
22
6
28
37
51
49
52
25
60
58
45
13
8
3
12
57
27
24
9
50
55
38
44
41
30
34
26
21
47
5
40
7
43
48
29

> <PUBCHEM_MMFF94_PARTIAL_CHARGES>
22
1 -0.57
10 -0.14
11 -0.14
12 0.57
14 -0.14
15 0.3
16 0.3
17 -0.14
2 -0.36
21 0.08
22 -0.15
23 0.14
24 0.14
25 0.28
26 0.28
27 0.28
3 -0.56
4 -0.66
49 0.15
6 0.06
8 0.14
9 0.14

> <PUBCHEM_EFFECTIVE_ROTOR_COUNT>
9

> <PUBCHEM_PHARMACOPHORE_FEATURES>
7
1 1 acceptor
1 13 hydrophobe
1 2 acceptor
1 3 acceptor
6 10 11 14 17 21 22 rings
6 4 15 16 18 19 20 rings
6 5 7 8 9 10 11 rings

> <PUBCHEM_HEAVY_ATOM_COUNT>
27

> <PUBCHEM_ATOM_DEF_STEREO_COUNT>
2

> <PUBCHEM_ATOM_UDEF_STEREO_COUNT>
0

> <PUBCHEM_BOND_DEF_STEREO_COUNT>
0

> <PUBCHEM_BOND_UDEF_STEREO_COUNT>
0

> <PUBCHEM_ISOTOPIC_ATOM_COUNT>
0

> <PUBCHEM_COMPONENT_COUNT>
1

> <PUBCHEM_CACTVS_TAUTO_COUNT>
1

> <PUBCHEM_CONFORMER_ID>
006CE0D700000001

> <PUBCHEM_MMFF94_ENERGY>
76.8871

> <PUBCHEM_FEATURE_SELFOVERLAP>
35.547

> <PUBCHEM_SHAPE_FINGERPRINT>
10498660 4 18271530904876896296
10670039 82 18193846057926300020
10763959 59 18194405485378667398
12107183 9 18190728757482802834
12390115 104 18058467545609556339
12403259 118 18336534028068936706
12422481 6 17385722457056459453
12788726 201 18119239816630088219
13617811 41 17907288111526609855
13965767 371 18041271076635030342
14117953 113 18267018358732668444
14251764 75 18339933623438138345
14739800 52 17980184603414962408
14790565 3 18267305331473518769
14848178 96 18271524183010472049
14932702 115 18131068246715075880
15575132 122 18266464380691381231
16988056 13 17836931096804248990
20691028 202 18198063582641313721
20715895 44 18267297621537516337
21302155 148 18335985349748767573
21304253 335 18187091619935355141
21388113 180 18337954476648764069
23559900 14 18200877279819483950
2838139 119 18412537695807368295
350125 39 18410857621277849262
376196 1 18047753703178169427
4409770 3 16962373969542119030
474 4 17533495897038916142
5047190 48 18335420140843346877
5104073 3 18408324392951697506
550186 72 18193839473546100205
6034566 193 18340221721402125545
633830 44 18187362121192165362
6371009 1 18053373306210953561
7808743 9 18410572915794284963
7970288 3 9799153824150435876

> <PUBCHEM_SHAPE_MULTIPOLES>
533.06
13.27
5.53
1.08
1.32
2.45
0.04
14.16
-1.32
-4.88
-1.33
1.36
0.33
-0.04

> <PUBCHEM_SHAPE_SELFOVERLAP>
1107.031

> <PUBCHEM_SHAPE_VOLUME>
304.5

> <PUBCHEM_COORDINATE_TYPE>
2
5
10

$$$$
