38029904
  -OEChem-12032416243D

 55 56  0     1  0  0  0  0  0999 V2000
   -1.4907   -2.0497    1.6846 O   0  0  0  0  0  0  0  0  0  0  0  0
   -2.3267   -0.9312   -0.1730 N   0  0  0  0  0  0  0  0  0  0  0  0
    2.2215    0.7019   -3.2746 N   0  0  0  0  0  0  0  0  0  0  0  0
    1.9874    0.8970    0.4319 C   0  0  2  0  0  0  0  0  0  0  0  0
    1.3406   -0.0976    1.4078 C   0  0  0  0  0  0  0  0  0  0  0  0
    1.1799   -1.4994    0.7897 C   0  0  2  0  0  0  0  0  0  0  0  0
    3.3840    0.3917   -0.0087 C   0  0  1  0  0  0  0  0  0  0  0  0
    2.0624    2.2839    1.0785 C   0  0  0  0  0  0  0  0  0  0  0  0
    2.4470   -1.9580    0.0970 C   0  0  0  0  0  0  0  0  0  0  0  0
    3.4268   -1.1006   -0.2402 C   0  0  0  0  0  0  0  0  0  0  0  0
   -0.0167   -1.5472   -0.1670 C   0  0  0  0  0  0  0  0  0  0  0  0
    3.8622    1.1180   -1.2710 C   0  0  0  0  0  0  0  0  0  0  0  0
   -3.6908   -0.7926    0.2865 C   0  0  0  0  0  0  0  0  0  0  0  0
    0.7223    3.0018    0.9544 C   0  0  0  0  0  0  0  0  0  0  0  0
    2.4802    2.1670    2.5407 C   0  0  0  0  0  0  0  0  0  0  0  0
   -3.8664    0.4860    1.1126 C   0  0  0  0  0  0  0  0  0  0  0  0
   -4.6747   -0.8349   -0.8876 C   0  0  0  0  0  0  0  0  0  0  0  0
   -1.3357   -1.5531    0.5723 C   0  0  0  0  0  0  0  0  0  0  0  0
    2.5826   -3.4332   -0.1592 C   0  0  0  0  0  0  0  0  0  0  0  0
   -3.8122    1.7494    0.2537 C   0  0  0  0  0  0  0  0  0  0  0  0
   -4.6190    0.4307   -1.7433 C   0  0  0  0  0  0  0  0  0  0  0  0
   -4.8075    1.6885   -0.9009 C   0  0  0  0  0  0  0  0  0  0  0  0
    2.9436    0.8817   -2.3843 C   0  0  0  0  0  0  0  0  0  0  0  0
    1.3346    0.9705   -0.4448 H   0  0  0  0  0  0  0  0  0  0  0  0
    0.3694    0.2641    1.7631 H   0  0  0  0  0  0  0  0  0  0  0  0
    1.9705   -0.2355    2.2961 H   0  0  0  0  0  0  0  0  0  0  0  0
    1.0005   -2.1893    1.6259 H   0  0  0  0  0  0  0  0  0  0  0  0
    4.1164    0.5961    0.7826 H   0  0  0  0  0  0  0  0  0  0  0  0
    2.8015    2.9060    0.5635 H   0  0  0  0  0  0  0  0  0  0  0  0
    4.3354   -1.4934   -0.6927 H   0  0  0  0  0  0  0  0  0  0  0  0
   -0.0125   -2.4720   -0.7567 H   0  0  0  0  0  0  0  0  0  0  0  0
    0.0214   -0.7238   -0.8881 H   0  0  0  0  0  0  0  0  0  0  0  0
    4.8652    0.7683   -1.5475 H   0  0  0  0  0  0  0  0  0  0  0  0
    3.9604    2.1937   -1.0950 H   0  0  0  0  0  0  0  0  0  0  0  0
   -3.9008   -1.6496    0.9386 H   0  0  0  0  0  0  0  0  0  0  0  0
    0.7848    4.0060    1.3881 H   0  0  0  0  0  0  0  0  0  0  0  0
   -0.0839    2.4709    1.4702 H   0  0  0  0  0  0  0  0  0  0  0  0
    0.4345    3.1157   -0.0963 H   0  0  0  0  0  0  0  0  0  0  0  0
    3.3866    1.5694    2.6751 H   0  0  0  0  0  0  0  0  0  0  0  0
    1.6873    1.7719    3.1845 H   0  0  0  0  0  0  0  0  0  0  0  0
    2.7086    3.1669    2.9303 H   0  0  0  0  0  0  0  0  0  0  0  0
   -3.1006    0.5472    1.8952 H   0  0  0  0  0  0  0  0  0  0  0  0
   -4.8376    0.4493    1.6226 H   0  0  0  0  0  0  0  0  0  0  0  0
   -5.6932   -0.9502   -0.4952 H   0  0  0  0  0  0  0  0  0  0  0  0
   -4.4764   -1.7093   -1.5191 H   0  0  0  0  0  0  0  0  0  0  0  0
   -2.7984    1.8836   -0.1430 H   0  0  0  0  0  0  0  0  0  0  0  0
   -4.0261    2.6253    0.8769 H   0  0  0  0  0  0  0  0  0  0  0  0
   -5.4004    0.3855   -2.5107 H   0  0  0  0  0  0  0  0  0  0  0  0
   -3.6618    0.4849   -2.2749 H   0  0  0  0  0  0  0  0  0  0  0  0
    2.4583   -3.9938    0.7730 H   0  0  0  0  0  0  0  0  0  0  0  0
    3.5662   -3.6907   -0.5667 H   0  0  0  0  0  0  0  0  0  0  0  0
    1.8317   -3.7778   -0.8759 H   0  0  0  0  0  0  0  0  0  0  0  0
   -5.8292    1.7096   -0.5019 H   0  0  0  0  0  0  0  0  0  0  0  0
   -4.6941    2.5765   -1.5330 H   0  0  0  0  0  0  0  0  0  0  0  0
   -2.0808   -0.5096   -1.0634 H   0  0  0  0  0  0  0  0  0  0  0  0
  1 18  2  0  0  0  0
  2 13  1  0  0  0  0
  2 18  1  0  0  0  0
  2 55  1  0  0  0  0
  3 23  3  0  0  0  0
  4  5  1  0  0  0  0
  4  7  1  0  0  0  0
  4  8  1  0  0  0  0
  4 24  1  0  0  0  0
  5  6  1  0  0  0  0
  5 25  1  0  0  0  0
  5 26  1  0  0  0  0
  6  9  1  0  0  0  0
  6 11  1  0  0  0  0
  6 27  1  0  0  0  0
  7 10  1  0  0  0  0
  7 12  1  0  0  0  0
  7 28  1  0  0  0  0
  8 14  1  0  0  0  0
  8 15  1  0  0  0  0
  8 29  1  0  0  0  0
  9 10  2  0  0  0  0
  9 19  1  0  0  0  0
 10 30  1  0  0  0  0
 11 18  1  0  0  0  0
 11 31  1  0  0  0  0
 11 32  1  0  0  0  0
 12 23  1  0  0  0  0
 12 33  1  0  0  0  0
 12 34  1  0  0  0  0
 13 16  1  0  0  0  0
 13 17  1  0  0  0  0
 13 35  1  0  0  0  0
 14 36  1  0  0  0  0
 14 37  1  0  0  0  0
 14 38  1  0  0  0  0
 15 39  1  0  0  0  0
 15 40  1  0  0  0  0
 15 41  1  0  0  0  0
 16 20  1  0  0  0  0
 16 42  1  0  0  0  0
 16 43  1  0  0  0  0
 17 21  1  0  0  0  0
 17 44  1  0  0  0  0
 17 45  1  0  0  0  0
 19 50  1  0  0  0  0
 19 51  1  0  0  0  0
 19 52  1  0  0  0  0
 20 22  1  0  0  0  0
 20 46  1  0  0  0  0
 20 47  1  0  0  0  0
 21 22  1  0  0  0  0
 21 48  1  0  0  0  0
 21 49  1  0  0  0  0
 22 53  1  0  0  0  0
 22 54  1  0  0  0  0
M  END
> <PUBCHEM_COMPOUND_CID>
38029904

> <PUBCHEM_CONFORMER_RMSD>
0.8

> <PUBCHEM_CONFORMER_DIVERSEORDER>
1
320
276
236
296
218
111
177
322
109
317
131
101
288
212
17
136
192
113
244
341
200
260
5
305
126
162
102
266
304
146
55
328
36
248
329
38
179
11
278
325
242
147
151
46
80
359
95
195
210
357
120
143
164
335
257
140
298
351
79
189
233
254
344
94
269
324
66
198
42
105
161
139
90
326
232
214
227
230
117
91
148
284
358
175
361
127
277
360
246
114
106
104
223
4
96
293
205
118
78
263
69
180
313
44
275
122
174
182
217
300
238
130
270
330
294
215
31
41
98
306
73
256
303
228
307
224
100
77
108
14
241
196
20
187
346
229
331
64
204
112
32
190
40
67
141
211
60
271
103
160
165
184
302
150
135
348
134
166
282
132
202
194
145
133
163
186
59
137
75
149
287
255
181
203
82
83
201
209
213
116
299
279
52
347
8
355
71
199
216
39
251
152
56
76
350
125
183
292
323
283
9
193
58
35
289
65
93
345
245
353
262
85
178
243
334
291
259
26
197
23
28
173
10
43
314
268
237
51
252
172
99
89
158
7
339
121
84
86
168
128
57
226
124
22
157
29
221
53
285
167
25
191
54
156
356
308
274
301
207
81
27
273
281
319
176
138
74
297
290
222
337
119
16
280
70
171
34
142
169
250
311
47
295
206
45
97
18
312
264
15
261
258
21
185
88
87
12
155
13
188
225
310
170
239
336
153
68
265
315
61
50
318
354
220
208
343
19
234
253
63
235
92
231
352
159
37
338
267
272
115
144
123
340
154
107
327
219
286
110
72
49
332
48
309
129
24
240
349
6
30
3
342
249
316
333
247
321
33
62
2

> <PUBCHEM_MMFF94_PARTIAL_CHARGES>
15
1 -0.57
10 -0.29
11 0.06
12 0.2
13 0.3
18 0.57
19 0.14
2 -0.73
23 0.36
3 -0.56
30 0.15
55 0.37
6 0.14
7 0.14
9 -0.28

> <PUBCHEM_EFFECTIVE_ROTOR_COUNT>
8

> <PUBCHEM_PHARMACOPHORE_FEATURES>
6
1 1 acceptor
1 2 donor
1 3 acceptor
3 8 14 15 hydrophobe
6 13 16 17 20 21 22 rings
6 4 5 6 7 9 10 rings

> <PUBCHEM_HEAVY_ATOM_COUNT>
23

> <PUBCHEM_ATOM_DEF_STEREO_COUNT>
3

> <PUBCHEM_ATOM_UDEF_STEREO_COUNT>
0

> <PUBCHEM_BOND_DEF_STEREO_COUNT>
0

> <PUBCHEM_BOND_UDEF_STEREO_COUNT>
0

> <PUBCHEM_ISOTOPIC_ATOM_COUNT>
0

> <PUBCHEM_COMPONENT_COUNT>
1

> <PUBCHEM_CACTVS_TAUTO_COUNT>
2

> <PUBCHEM_CONFORMER_ID>
02444A5000000001

> <PUBCHEM_MMFF94_ENERGY>
34.521

> <PUBCHEM_FEATURE_SELFOVERLAP>
30.446

> <PUBCHEM_SHAPE_FINGERPRINT>
10498660 4 18334288790881078197
10764073 3 17903315331545003616
11582403 64 16698898405909269346
116883 192 17840031732522014338
12422481 6 17749650958054605800
12596599 1 17632863001673385857
13134695 92 18198613350680219894
14713325 29 16449579780481902270
14848178 96 18114457886305057309
14957384 54 16443335494838826263
15163728 17 17026318610559346862
15210252 30 18186809092808422396
17921350 177 17918268757711150300
18186145 218 18130508625750931979
20645477 70 17202770430801241984
21033648 29 18113609085040822353
21503847 285 17095528370190353102
21864079 5 16877940559830241815
221357 26 18341043026565052493
22289505 5 18338791213333838974
23419403 2 17758631683199311562
235170 7 16845572015503408549
23559900 14 18187079507906566427
238 59 17773875487656236760
3060560 45 17847063302734213966
46194498 28 17488752327101652261
474 4 17821727217767103751
495365 180 18200580523000422826
5281201 14 18412261697357552391
5895379 119 17274262729717587032
633830 44 18042120977854614859
7399639 24 17907579477681401259
7808743 9 17677338349531273999

> <PUBCHEM_SHAPE_MULTIPOLES>
457.5
9.52
3.19
2.19
12.04
0.12
-1.35
-1.66
-3.63
-2.07
1.26
-1.48
-1.01
0.58

> <PUBCHEM_SHAPE_SELFOVERLAP>
921.265

> <PUBCHEM_SHAPE_VOLUME>
264.1

> <PUBCHEM_COORDINATE_TYPE>
2
5
10

$$$$
