45361539
  -OEChem-12032416203D

 70 73  0     1  0  0  0  0  0999 V2000
    4.6113    1.9291   -2.5038 Cl  0  0  0  0  0  0  0  0  0  0  0  0
    0.2669   -2.2496   -1.5490 O   0  0  0  0  0  0  0  0  0  0  0  0
    5.1264   -2.4327    0.6697 O   0  0  0  0  0  0  0  0  0  0  0  0
   -5.0138    2.0989   -0.9653 O   0  0  0  0  0  0  0  0  0  0  0  0
   -4.3039    0.1564    0.0826 N   0  0  0  0  0  0  0  0  0  0  0  0
    4.6434   -1.1875   -1.2266 N   0  0  0  0  0  0  0  0  0  0  0  0
   -6.8758   -0.5920    0.3417 N   0  0  0  0  0  0  0  0  0  0  0  0
   -8.9971    0.9790   -0.6063 N   0  0  0  0  0  0  0  0  0  0  0  0
   -0.1720    0.2672    1.2881 C   0  0  1  0  0  0  0  0  0  0  0  0
   -0.5061   -0.5042   -0.0319 C   0  0  2  0  0  0  0  0  0  0  0  0
   -2.0373   -0.8473   -0.1067 C   0  0  1  0  0  0  0  0  0  0  0  0
    0.4592   -1.7063   -0.2421 C   0  0  2  0  0  0  0  0  0  0  0  0
    1.3166    0.6877    1.2773 C   0  0  0  0  0  0  0  0  0  0  0  0
   -1.0246    1.5557    1.3486 C   0  0  0  0  0  0  0  0  0  0  0  0
    1.9476   -1.2971   -0.1481 C   0  0  1  0  0  0  0  0  0  0  0  0
   -2.8865    0.4476    0.0306 C   0  0  2  0  0  0  0  0  0  0  0  0
    2.2661   -0.4914    1.1112 C   0  0  0  0  0  0  0  0  0  0  0  0
   -2.5198    1.2879    1.2536 C   0  0  0  0  0  0  0  0  0  0  0  0
   -0.4402   -0.5820    2.5565 C   0  0  0  0  0  0  0  0  0  0  0  0
    2.8782   -2.5136   -0.2271 C   0  0  2  0  0  0  0  0  0  0  0  0
   -2.4414   -1.5827   -1.3957 C   0  0  0  0  0  0  0  0  0  0  0  0
    2.5716   -3.4835    0.9086 C   0  0  0  0  0  0  0  0  0  0  0  0
    4.3336   -2.0579   -0.1917 C   0  0  0  0  0  0  0  0  0  0  0  0
   -5.2565    1.0214   -0.4279 C   0  0  0  0  0  0  0  0  0  0  0  0
   -6.6695    0.5896   -0.2731 C   0  0  0  0  0  0  0  0  0  0  0  0
    5.9598   -0.6192   -1.4020 C   0  0  0  0  0  0  0  0  0  0  0  0
   -7.7114    1.3612   -0.7387 C   0  0  0  0  0  0  0  0  0  0  0  0
    6.1280    0.6576   -0.6301 C   0  0  0  0  0  0  0  0  0  0  0  0
   -8.1615   -0.9742    0.4740 C   0  0  0  0  0  0  0  0  0  0  0  0
    5.5519    1.8534   -1.0584 C   0  0  0  0  0  0  0  0  0  0  0  0
    6.8828    0.6278    0.5425 C   0  0  0  0  0  0  0  0  0  0  0  0
   -9.2033   -0.2026    0.0085 C   0  0  0  0  0  0  0  0  0  0  0  0
    5.7304    3.0195   -0.3142 C   0  0  0  0  0  0  0  0  0  0  0  0
    7.0616    1.7940    1.2867 C   0  0  0  0  0  0  0  0  0  0  0  0
    6.4853    2.9899    0.8584 C   0  0  0  0  0  0  0  0  0  0  0  0
   -0.3200    0.1845   -0.8717 H   0  0  0  0  0  0  0  0  0  0  0  0
   -2.2905   -1.5213    0.7214 H   0  0  0  0  0  0  0  0  0  0  0  0
    0.1871   -2.4817    0.4759 H   0  0  0  0  0  0  0  0  0  0  0  0
    1.4948    1.3966    0.4572 H   0  0  0  0  0  0  0  0  0  0  0  0
    1.5673    1.2225    2.2025 H   0  0  0  0  0  0  0  0  0  0  0  0
   -0.8177    2.1052    2.2758 H   0  0  0  0  0  0  0  0  0  0  0  0
   -0.7399    2.2251    0.5256 H   0  0  0  0  0  0  0  0  0  0  0  0
    2.1428   -0.6430   -1.0085 H   0  0  0  0  0  0  0  0  0  0  0  0
   -2.7065    1.0635   -0.8614 H   0  0  0  0  0  0  0  0  0  0  0  0
    2.2233   -1.0945    2.0204 H   0  0  0  0  0  0  0  0  0  0  0  0
    3.2834   -0.0854    1.0674 H   0  0  0  0  0  0  0  0  0  0  0  0
   -3.0487    2.2491    1.2162 H   0  0  0  0  0  0  0  0  0  0  0  0
   -2.8738    0.7980    2.1690 H   0  0  0  0  0  0  0  0  0  0  0  0
   -1.4932   -0.8507    2.6726 H   0  0  0  0  0  0  0  0  0  0  0  0
   -0.1514   -0.0290    3.4581 H   0  0  0  0  0  0  0  0  0  0  0  0
    0.1204   -1.5209    2.5583 H   0  0  0  0  0  0  0  0  0  0  0  0
    2.7334   -3.0383   -1.1802 H   0  0  0  0  0  0  0  0  0  0  0  0
   -2.0595   -2.6074   -1.4018 H   0  0  0  0  0  0  0  0  0  0  0  0
   -2.0762   -1.0575   -2.2842 H   0  0  0  0  0  0  0  0  0  0  0  0
   -3.5281   -1.6764   -1.4898 H   0  0  0  0  0  0  0  0  0  0  0  0
   -4.6060   -0.6870    0.5624 H   0  0  0  0  0  0  0  0  0  0  0  0
    0.4519   -1.5494   -2.1979 H   0  0  0  0  0  0  0  0  0  0  0  0
    2.7144   -3.0647    1.9074 H   0  0  0  0  0  0  0  0  0  0  0  0
    3.2627   -4.3346    0.8487 H   0  0  0  0  0  0  0  0  0  0  0  0
    1.5723   -3.9195    0.8438 H   0  0  0  0  0  0  0  0  0  0  0  0
    3.9459   -0.9676   -1.9301 H   0  0  0  0  0  0  0  0  0  0  0  0
    6.7058   -1.3612   -1.0918 H   0  0  0  0  0  0  0  0  0  0  0  0
    6.1238   -0.4571   -2.4729 H   0  0  0  0  0  0  0  0  0  0  0  0
   -7.5641    2.3128   -1.2356 H   0  0  0  0  0  0  0  0  0  0  0  0
   -8.3279   -1.9235    0.9679 H   0  0  0  0  0  0  0  0  0  0  0  0
    7.3375   -0.2953    0.8921 H   0  0  0  0  0  0  0  0  0  0  0  0
  -10.2361   -0.5105    0.1153 H   0  0  0  0  0  0  0  0  0  0  0  0
    5.2877    3.9594   -0.6342 H   0  0  0  0  0  0  0  0  0  0  0  0
    7.6488    1.7708    2.2001 H   0  0  0  0  0  0  0  0  0  0  0  0
    6.6243    3.8977    1.4381 H   0  0  0  0  0  0  0  0  0  0  0  0
  1 30  1  0  0  0  0
  2 12  1  0  0  0  0
  2 57  1  0  0  0  0
  3 23  2  0  0  0  0
  4 24  2  0  0  0  0
  5 16  1  0  0  0  0
  5 24  1  0  0  0  0
  5 56  1  0  0  0  0
  6 23  1  0  0  0  0
  6 26  1  0  0  0  0
  6 61  1  0  0  0  0
  7 25  2  0  0  0  0
  7 29  1  0  0  0  0
  8 27  2  0  0  0  0
  8 32  1  0  0  0  0
  9 10  1  0  0  0  0
  9 13  1  0  0  0  0
  9 14  1  0  0  0  0
  9 19  1  0  0  0  0
 10 11  1  0  0  0  0
 10 12  1  0  0  0  0
 10 36  1  0  0  0  0
 11 16  1  0  0  0  0
 11 21  1  0  0  0  0
 11 37  1  0  0  0  0
 12 15  1  0  0  0  0
 12 38  1  0  0  0  0
 13 17  1  0  0  0  0
 13 39  1  0  0  0  0
 13 40  1  0  0  0  0
 14 18  1  0  0  0  0
 14 41  1  0  0  0  0
 14 42  1  0  0  0  0
 15 17  1  0  0  0  0
 15 20  1  0  0  0  0
 15 43  1  0  0  0  0
 16 18  1  0  0  0  0
 16 44  1  0  0  0  0
 17 45  1  0  0  0  0
 17 46  1  0  0  0  0
 18 47  1  0  0  0  0
 18 48  1  0  0  0  0
 19 49  1  0  0  0  0
 19 50  1  0  0  0  0
 19 51  1  0  0  0  0
 20 22  1  0  0  0  0
 20 23  1  0  0  0  0
 20 52  1  0  0  0  0
 21 53  1  0  0  0  0
 21 54  1  0  0  0  0
 21 55  1  0  0  0  0
 22 58  1  0  0  0  0
 22 59  1  0  0  0  0
 22 60  1  0  0  0  0
 24 25  1  0  0  0  0
 25 27  1  0  0  0  0
 26 28  1  0  0  0  0
 26 62  1  0  0  0  0
 26 63  1  0  0  0  0
 27 64  1  0  0  0  0
 28 30  1  0  0  0  0
 28 31  2  0  0  0  0
 29 32  2  0  0  0  0
 29 65  1  0  0  0  0
 30 33  2  0  0  0  0
 31 34  1  0  0  0  0
 31 66  1  0  0  0  0
 32 67  1  0  0  0  0
 33 35  1  0  0  0  0
 33 68  1  0  0  0  0
 34 35  2  0  0  0  0
 34 69  1  0  0  0  0
 35 70  1  0  0  0  0
M  END
> <PUBCHEM_COMPOUND_CID>
45361539

> <PUBCHEM_CONFORMER_RMSD>
1.2

> <PUBCHEM_CONFORMER_DIVERSEORDER>
1
67
125
29
2
46
83
140
102
133
58
75
15
152
70
56
132
98
122
117
119
135
99
166
137
129
90
88
87
5
138
42
4
97
43
104
141
50
168
78
24
53
105
150
110
148
45
86
145
146
103
62
64
74
49
159
23
22
63
73
167
55
107
111
139
154
36
16
113
112
164
160
108
82
3
126
80
147
10
101
40
54
35
121
76
120
142
114
84
60
21
100
11
61
165
155
92
163
79
153
69
12
96
14
28
149
30
131
71
32
118
77
72
37
91
51
68
44
128
94
19
156
106
143
17
157
161
124
89
6
95
151
57
123
13
38
59
127
158
27
47
162
7
31
8
41
48
33
93
39
18
66
116
52
25
134
26
81
144
34
9
20
136
109
130
115
65
85

> <PUBCHEM_MMFF94_PARTIAL_CHARGES>
34
1 -0.18
12 0.28
16 0.3
2 -0.68
20 0.06
23 0.57
24 0.54
25 0.4
26 0.44
27 0.16
28 -0.14
29 0.16
3 -0.57
30 0.18
31 -0.15
32 0.16
33 -0.15
34 -0.15
35 -0.15
4 -0.57
5 -0.73
56 0.37
57 0.4
6 -0.73
61 0.37
64 0.15
65 0.15
66 0.15
67 0.15
68 0.15
69 0.15
7 -0.62
70 0.15
8 -0.62

> <PUBCHEM_EFFECTIVE_ROTOR_COUNT>
9.6

> <PUBCHEM_PHARMACOPHORE_FEATURES>
13
1 2 acceptor
1 2 donor
1 22 hydrophobe
1 3 acceptor
1 4 acceptor
1 5 donor
1 6 donor
1 7 acceptor
1 8 acceptor
6 28 30 31 33 34 35 rings
6 7 8 25 27 29 32 rings
6 9 10 11 14 16 18 rings
6 9 10 12 13 15 17 rings

> <PUBCHEM_HEAVY_ATOM_COUNT>
35

> <PUBCHEM_ATOM_DEF_STEREO_COUNT>
6

> <PUBCHEM_ATOM_UDEF_STEREO_COUNT>
1

> <PUBCHEM_BOND_DEF_STEREO_COUNT>
0

> <PUBCHEM_BOND_UDEF_STEREO_COUNT>
0

> <PUBCHEM_ISOTOPIC_ATOM_COUNT>
0

> <PUBCHEM_COMPONENT_COUNT>
1

> <PUBCHEM_CACTVS_TAUTO_COUNT>
4

> <PUBCHEM_CONFORMER_ID>
02B4298300000001

> <PUBCHEM_MMFF94_ENERGY>
100.1656

> <PUBCHEM_FEATURE_SELFOVERLAP>
65.991

> <PUBCHEM_SHAPE_FINGERPRINT>
10533779 47 9583240591505757205
10673678 19 18413110550187781910
10816530 90 17917139585524368752
11007060 377 18335711524894418577
11135609 187 18198623431538267192
11211813 74 18412260623642296901
11456790 92 12757151260341626365
12522641 24 11095876073491823922
13150687 139 17988935479200728774
13165053 68 18117283773323925791
13617811 41 18272929436360328688
13811026 1 18259988184178988465
13947947 19 17632286909568127039
14117953 113 18410581704463853140
14675020 138 15647053741975073538
150020 25 18410019835639091783
15183329 4 17917716807100804288
15301273 46 12319736960300025673
15361156 5 18342735239901921007
15840311 113 18411420605289971902
15890870 6 18409732907204142308
16992787 43 18060701714735465929
17324776 126 15046714758734694780
17686467 74 18186803591925259629
18608769 82 18341049722466916451
19319366 153 18341327817019996438
20511986 3 18201430407424675844
20715895 44 18410291450378322884
20812841 46 8070029969335316717
21049683 271 18202281416461116569
21521721 280 18413112749406352659
21781055 127 14907635514803577611
22149856 69 17202772483975295867
23522609 53 17488203542240634585
23569914 2 17172881212307740548
25269216 80 16772939458456579549
3044373 193 17530966874012818670
34797466 226 17775290443605538654
3552219 110 17632307765771379441
4073 2 18333732429866743675
4098825 35 18334574638308244743
4149490 64 18333730208857156762
439807 62 12895081700181210244
44317340 157 18342739624456875358
4625314 4 18409451341289378775
5109719 28 18261402181971021824
5265222 85 18413669124202875447
5372103 7 15409750658333677304
9831232 110 12031791344516835164
9849439 229 18261397814785516332

> <PUBCHEM_SHAPE_MULTIPOLES>
684.62
25.16
3.1
1.67
40.26
0.68
0.02
-12.74
-4.16
-5.67
-0.13
-1.64
-0.32
0.41

> <PUBCHEM_SHAPE_SELFOVERLAP>
1442.476

> <PUBCHEM_SHAPE_VOLUME>
382.1

> <PUBCHEM_COORDINATE_TYPE>
2
5
10

$$$$
