45783488
  -OEChem-12032416363D

 52 55  0     1  0  0  0  0  0999 V2000
   -2.2819    0.4004   -2.0045 O   0  0  0  0  0  0  0  0  0  0  0  0
    7.5585   -0.7038    0.8202 O   0  0  0  0  0  0  0  0  0  0  0  0
   -4.1457    0.7404    0.9551 N   0  0  1  0  0  0  0  0  0  0  0  0
   -1.2375    1.1386   -0.1658 N   0  0  0  0  0  0  0  0  0  0  0  0
   -0.9191    0.1435   -2.2010 N   0  0  0  0  0  0  0  0  0  0  0  0
   -2.6628   -3.3658   -0.7873 N   0  0  0  0  0  0  0  0  0  0  0  0
    3.2509   -0.0699   -1.5862 N   0  0  0  0  0  0  0  0  0  0  0  0
    5.1344    0.3614   -0.1927 N   0  0  0  0  0  0  0  0  0  0  0  0
   -3.7756    1.3678   -0.3292 C   0  0  1  0  0  0  0  0  0  0  0  0
   -3.9285    2.8804   -0.0840 C   0  0  0  0  0  0  0  0  0  0  0  0
   -4.4459    3.0018    1.3422 C   0  0  0  0  0  0  0  0  0  0  0  0
   -5.0856    1.6536    1.6057 C   0  0  0  0  0  0  0  0  0  0  0  0
   -4.6994   -0.5988    0.8018 C   0  0  0  0  0  0  0  0  0  0  0  0
   -2.3819    0.9871   -0.7830 C   0  0  0  0  0  0  0  0  0  0  0  0
   -3.6225   -1.6306    0.5956 C   0  0  0  0  0  0  0  0  0  0  0  0
   -0.3695    0.6065   -1.0743 C   0  0  0  0  0  0  0  0  0  0  0  0
   -2.6193   -1.8181    1.5401 C   0  0  0  0  0  0  0  0  0  0  0  0
   -3.5997   -2.4228   -0.5409 C   0  0  0  0  0  0  0  0  0  0  0  0
    1.0422    0.5540   -0.8262 C   0  0  0  0  0  0  0  0  0  0  0  0
   -1.6378   -2.7787    1.3222 C   0  0  0  0  0  0  0  0  0  0  0  0
   -1.7039   -3.5196    0.1533 C   0  0  0  0  0  0  0  0  0  0  0  0
    1.5807    1.0467    0.3573 C   0  0  0  0  0  0  0  0  0  0  0  0
    1.9122    0.0104   -1.7575 C   0  0  0  0  0  0  0  0  0  0  0  0
    2.9533    0.9819    0.5701 C   0  0  0  0  0  0  0  0  0  0  0  0
    3.7379    0.4193   -0.4237 C   0  0  0  0  0  0  0  0  0  0  0  0
    5.7386    0.8531    1.0026 C   0  0  0  0  0  0  0  0  0  0  0  0
    7.2462    0.6789    0.9326 C   0  0  0  0  0  0  0  0  0  0  0  0
    8.9618   -0.9176    0.7577 C   0  0  0  0  0  0  0  0  0  0  0  0
   -4.4901    1.0915   -1.1175 H   0  0  0  0  0  0  0  0  0  0  0  0
   -3.0008    3.4486   -0.2113 H   0  0  0  0  0  0  0  0  0  0  0  0
   -4.6711    3.2924   -0.7784 H   0  0  0  0  0  0  0  0  0  0  0  0
   -5.1506    3.8305    1.4576 H   0  0  0  0  0  0  0  0  0  0  0  0
   -3.6074    3.1684    2.0298 H   0  0  0  0  0  0  0  0  0  0  0  0
   -6.0812    1.6085    1.1462 H   0  0  0  0  0  0  0  0  0  0  0  0
   -5.1784    1.4552    2.6779 H   0  0  0  0  0  0  0  0  0  0  0  0
   -5.4515   -0.6400    0.0029 H   0  0  0  0  0  0  0  0  0  0  0  0
   -5.2276   -0.8917    1.7201 H   0  0  0  0  0  0  0  0  0  0  0  0
   -2.5923   -1.2262    2.4508 H   0  0  0  0  0  0  0  0  0  0  0  0
   -4.3535   -2.3230   -1.3157 H   0  0  0  0  0  0  0  0  0  0  0  0
   -0.8462   -2.9420    2.0444 H   0  0  0  0  0  0  0  0  0  0  0  0
   -0.9619   -4.2808   -0.0643 H   0  0  0  0  0  0  0  0  0  0  0  0
    0.9547    1.4853    1.1302 H   0  0  0  0  0  0  0  0  0  0  0  0
    1.5727   -0.3958   -2.7057 H   0  0  0  0  0  0  0  0  0  0  0  0
    3.3393    1.3734    1.5038 H   0  0  0  0  0  0  0  0  0  0  0  0
    5.6967   -0.0557   -0.9256 H   0  0  0  0  0  0  0  0  0  0  0  0
    5.5253    1.9191    1.1432 H   0  0  0  0  0  0  0  0  0  0  0  0
    5.3655    0.2947    1.8697 H   0  0  0  0  0  0  0  0  0  0  0  0
    7.6512    1.2167    0.0665 H   0  0  0  0  0  0  0  0  0  0  0  0
    7.7033    1.0840    1.8429 H   0  0  0  0  0  0  0  0  0  0  0  0
    9.3867   -0.4223   -0.1208 H   0  0  0  0  0  0  0  0  0  0  0  0
    9.4468   -0.5525    1.6682 H   0  0  0  0  0  0  0  0  0  0  0  0
    9.1427   -1.9925    0.6733 H   0  0  0  0  0  0  0  0  0  0  0  0
  1  5  1  0  0  0  0
  1 14  1  0  0  0  0
  2 27  1  0  0  0  0
  2 28  1  0  0  0  0
  3  9  1  0  0  0  0
  3 12  1  0  0  0  0
  3 13  1  0  0  0  0
  4 14  2  0  0  0  0
  4 16  1  0  0  0  0
  5 16  2  0  0  0  0
  6 18  1  0  0  0  0
  6 21  2  0  0  0  0
  7 23  1  0  0  0  0
  7 25  2  0  0  0  0
  8 25  1  0  0  0  0
  8 26  1  0  0  0  0
  8 45  1  0  0  0  0
  9 10  1  0  0  0  0
  9 14  1  0  0  0  0
  9 29  1  0  0  0  0
 10 11  1  0  0  0  0
 10 30  1  0  0  0  0
 10 31  1  0  0  0  0
 11 12  1  0  0  0  0
 11 32  1  0  0  0  0
 11 33  1  0  0  0  0
 12 34  1  0  0  0  0
 12 35  1  0  0  0  0
 13 15  1  0  0  0  0
 13 36  1  0  0  0  0
 13 37  1  0  0  0  0
 15 17  1  0  0  0  0
 15 18  2  0  0  0  0
 16 19  1  0  0  0  0
 17 20  2  0  0  0  0
 17 38  1  0  0  0  0
 18 39  1  0  0  0  0
 19 22  1  0  0  0  0
 19 23  2  0  0  0  0
 20 21  1  0  0  0  0
 20 40  1  0  0  0  0
 21 41  1  0  0  0  0
 22 24  2  0  0  0  0
 22 42  1  0  0  0  0
 23 43  1  0  0  0  0
 24 25  1  0  0  0  0
 24 44  1  0  0  0  0
 26 27  1  0  0  0  0
 26 46  1  0  0  0  0
 26 47  1  0  0  0  0
 27 48  1  0  0  0  0
 27 49  1  0  0  0  0
 28 50  1  0  0  0  0
 28 51  1  0  0  0  0
 28 52  1  0  0  0  0
M  END
> <PUBCHEM_COMPOUND_CID>
45783488

> <PUBCHEM_CONFORMER_RMSD>
1

> <PUBCHEM_CONFORMER_DIVERSEORDER>
1
24
119
62
14
12
109
97
71
116
99
38
52
46
83
50
100
122
108
58
61
56
125
115
128
93
132
121
19
90
112
126
120
124
68
104
44
88
67
64
63
16
8
36
48
111
85
106
60
25
49
42
113
53
78
94
95
72
91
80
127
81
3
41
45
130
57
102
65
47
59
110
123
10
40
17
28
76
75
2
18
79
54
118
117
9
32
37
15
33
114
96
86
74
69
26
89
73
133
43
31
20
55
51
13
101
35
70
23
107
27
98
131
84
11
4
129
103
105
87
77
7
66
6
39
82
34
21
22
92
5
30
29

> <PUBCHEM_MMFF94_PARTIAL_CHARGES>
34
1 -0.02
12 0.27
13 0.41
14 0.3
15 -0.14
16 0.46
17 -0.15
18 0.16
19 0.05
2 -0.56
20 -0.15
21 0.16
22 -0.15
23 0.16
24 -0.15
25 0.41
26 0.37
27 0.28
28 0.28
3 -0.81
38 0.15
39 0.15
4 -0.57
40 0.15
41 0.15
42 0.15
43 0.15
44 0.15
45 0.4
5 -0.41
6 -0.62
7 -0.62
8 -0.87
9 0.45

> <PUBCHEM_EFFECTIVE_ROTOR_COUNT>
9

> <PUBCHEM_PHARMACOPHORE_FEATURES>
10
1 2 acceptor
1 3 cation
1 6 acceptor
1 8 donor
3 4 5 16 cation
3 7 8 25 cation
5 1 4 5 14 16 rings
5 3 9 10 11 12 rings
6 6 15 17 18 20 21 rings
6 7 19 22 23 24 25 rings

> <PUBCHEM_HEAVY_ATOM_COUNT>
28

> <PUBCHEM_ATOM_DEF_STEREO_COUNT>
1

> <PUBCHEM_ATOM_UDEF_STEREO_COUNT>
0

> <PUBCHEM_BOND_DEF_STEREO_COUNT>
0

> <PUBCHEM_BOND_UDEF_STEREO_COUNT>
0

> <PUBCHEM_ISOTOPIC_ATOM_COUNT>
0

> <PUBCHEM_COMPONENT_COUNT>
1

> <PUBCHEM_CACTVS_TAUTO_COUNT>
8

> <PUBCHEM_CONFORMER_ID>
02BA99C000000001

> <PUBCHEM_MMFF94_ENERGY>
64.8225

> <PUBCHEM_FEATURE_SELFOVERLAP>
50.747

> <PUBCHEM_SHAPE_FINGERPRINT>
10 15 17846777430080218176
10319926 262 18342184366847598142
11036077 4 18334857220948641891
11524674 6 18343298171921443478
12422481 6 17749671762063817706
12616971 3 16950569895862518644
12633257 1 18336277811753020165
13004483 165 17910962662660539687
13583140 156 17489592311061811091
13994607 96 13398363403593319135
14844126 61 18338801238278397819
14856354 85 18335987540614339364
15021287 119 17095528396340276964
15183329 4 16805598188555705650
15348495 7 18271803566886982680
15352257 5 18260544507995190234
17780758 139 18408321111627798377
18927931 339 15864067663321560236
19438510 23 17416982621012183889
20554085 129 18268698421564968801
21033648 29 17632028467641558021
21756936 100 18272083864567919665
23522609 53 17896627083976325012
23559900 14 18125747632759552246
23728640 28 18263379125985491939
255183 451 9221216419420647049
335507 130 17022625274377556934
3383291 50 18335991969042918691
397830 11 18268418205213863184
4073 2 18413386545513897890
4169191 19 14260773084481434754
484985 159 18114730642556913383
5265222 85 18048636743352282134
5364581 5 18127124402002300032
58260988 114 16660942066212004145
59755656 520 18336542738109619080
602551 16 18335993050630020884
68570916 9 18260830462649131572
9953998 17 18334852840620310736

> <PUBCHEM_SHAPE_MULTIPOLES>
534.6
17.15
3.31
1.69
47.31
2.24
0.44
-1.81
-8.71
-6.54
-0.83
-0.52
-0.09
-0.66

> <PUBCHEM_SHAPE_SELFOVERLAP>
1143.92

> <PUBCHEM_SHAPE_VOLUME>
296.6

> <PUBCHEM_COORDINATE_TYPE>
2
5
10

$$$$
