45783373
  -OEChem-12032416263D

 53 56  0     1  0  0  0  0  0999 V2000
    5.5202    3.3699   -1.0540 Cl  0  0  0  0  0  0  0  0  0  0  0  0
   -1.3642   -2.6785   -1.4143 O   0  0  0  0  0  0  0  0  0  0  0  0
    0.1700    1.6898    2.4160 O   0  0  0  0  0  0  0  0  0  0  0  0
    1.5960   -1.8832    0.3043 N   0  0  1  0  0  0  0  0  0  0  0  0
   -1.4535   -1.1327    0.2042 N   0  0  0  0  0  0  0  0  0  0  0  0
   -2.5042   -1.9075   -1.6745 N   0  0  0  0  0  0  0  0  0  0  0  0
   -1.9208    1.4985    0.5116 N   0  0  0  0  0  0  0  0  0  0  0  0
   -4.1566    2.2051    0.1937 N   0  0  0  0  0  0  0  0  0  0  0  0
    0.4611   -2.8225    0.2046 C   0  0  1  0  0  0  0  0  0  0  0  0
    0.3097   -3.4048    1.6221 C   0  0  0  0  0  0  0  0  0  0  0  0
    1.4385   -2.7814    2.4308 C   0  0  0  0  0  0  0  0  0  0  0  0
    2.4538   -2.3836    1.3786 C   0  0  0  0  0  0  0  0  0  0  0  0
    2.3226   -1.7251   -0.9490 C   0  0  0  0  0  0  0  0  0  0  0  0
   -0.8046   -2.1558   -0.2918 C   0  0  0  0  0  0  0  0  0  0  0  0
    3.1236   -0.4505   -0.9758 C   0  0  0  0  0  0  0  0  0  0  0  0
   -2.4885   -1.0176   -0.6776 C   0  0  0  0  0  0  0  0  0  0  0  0
    2.5489    0.7237   -1.4625 C   0  0  0  0  0  0  0  0  0  0  0  0
    4.4397   -0.4435   -0.5141 C   0  0  0  0  0  0  0  0  0  0  0  0
   -3.4917   -0.0027   -0.5333 C   0  0  0  0  0  0  0  0  0  0  0  0
    3.2905    1.9048   -1.4875 C   0  0  0  0  0  0  0  0  0  0  0  0
    5.1814    0.7375   -0.5391 C   0  0  0  0  0  0  0  0  0  0  0  0
    4.6067    1.9117   -1.0258 C   0  0  0  0  0  0  0  0  0  0  0  0
   -3.2324    1.2298    0.0441 C   0  0  0  0  0  0  0  0  0  0  0  0
   -4.7827   -0.2503   -0.9867 C   0  0  0  0  0  0  0  0  0  0  0  0
   -1.5596    2.7370    1.1192 C   0  0  0  0  0  0  0  0  0  0  0  0
   -5.7610    0.7283   -0.8505 C   0  0  0  0  0  0  0  0  0  0  0  0
   -5.4001    1.9282   -0.2588 C   0  0  0  0  0  0  0  0  0  0  0  0
   -0.0834    2.7286    1.4784 C   0  0  0  0  0  0  0  0  0  0  0  0
    1.5407    1.6467    2.7878 C   0  0  0  0  0  0  0  0  0  0  0  0
    0.7124   -3.6536   -0.4698 H   0  0  0  0  0  0  0  0  0  0  0  0
   -0.6609   -3.2001    2.0867 H   0  0  0  0  0  0  0  0  0  0  0  0
    0.4418   -4.4932    1.5884 H   0  0  0  0  0  0  0  0  0  0  0  0
    1.8495   -3.4747    3.1704 H   0  0  0  0  0  0  0  0  0  0  0  0
    1.0701   -1.8947    2.9619 H   0  0  0  0  0  0  0  0  0  0  0  0
    3.0377   -3.2597    1.0693 H   0  0  0  0  0  0  0  0  0  0  0  0
    3.1324   -1.6201    1.7698 H   0  0  0  0  0  0  0  0  0  0  0  0
    1.6183   -1.6815   -1.7914 H   0  0  0  0  0  0  0  0  0  0  0  0
    2.9665   -2.5884   -1.1661 H   0  0  0  0  0  0  0  0  0  0  0  0
    1.5227    0.7330   -1.8207 H   0  0  0  0  0  0  0  0  0  0  0  0
    4.9021   -1.3520   -0.1375 H   0  0  0  0  0  0  0  0  0  0  0  0
    2.8288    2.8126   -1.8673 H   0  0  0  0  0  0  0  0  0  0  0  0
    6.2061    0.7280   -0.1767 H   0  0  0  0  0  0  0  0  0  0  0  0
   -5.0593   -1.1976   -1.4429 H   0  0  0  0  0  0  0  0  0  0  0  0
   -1.1759    0.9591    0.0826 H   0  0  0  0  0  0  0  0  0  0  0  0
   -1.7582    3.5736    0.4397 H   0  0  0  0  0  0  0  0  0  0  0  0
   -2.1502    2.8844    2.0312 H   0  0  0  0  0  0  0  0  0  0  0  0
   -6.7745    0.5571   -1.1948 H   0  0  0  0  0  0  0  0  0  0  0  0
   -6.1263    2.7238   -0.1287 H   0  0  0  0  0  0  0  0  0  0  0  0
    0.5267    2.5689    0.5811 H   0  0  0  0  0  0  0  0  0  0  0  0
    0.1894    3.6938    1.9205 H   0  0  0  0  0  0  0  0  0  0  0  0
    2.1688    1.4460    1.9145 H   0  0  0  0  0  0  0  0  0  0  0  0
    1.8406    2.5866    3.2608 H   0  0  0  0  0  0  0  0  0  0  0  0
    1.6766    0.8346    3.5070 H   0  0  0  0  0  0  0  0  0  0  0  0
  1 22  1  0  0  0  0
  2  6  1  0  0  0  0
  2 14  1  0  0  0  0
  3 28  1  0  0  0  0
  3 29  1  0  0  0  0
  4  9  1  0  0  0  0
  4 12  1  0  0  0  0
  4 13  1  0  0  0  0
  5 14  2  0  0  0  0
  5 16  1  0  0  0  0
  6 16  2  0  0  0  0
  7 23  1  0  0  0  0
  7 25  1  0  0  0  0
  7 44  1  0  0  0  0
  8 23  1  0  0  0  0
  8 27  2  0  0  0  0
  9 10  1  0  0  0  0
  9 14  1  0  0  0  0
  9 30  1  0  0  0  0
 10 11  1  0  0  0  0
 10 31  1  0  0  0  0
 10 32  1  0  0  0  0
 11 12  1  0  0  0  0
 11 33  1  0  0  0  0
 11 34  1  0  0  0  0
 12 35  1  0  0  0  0
 12 36  1  0  0  0  0
 13 15  1  0  0  0  0
 13 37  1  0  0  0  0
 13 38  1  0  0  0  0
 15 17  2  0  0  0  0
 15 18  1  0  0  0  0
 16 19  1  0  0  0  0
 17 20  1  0  0  0  0
 17 39  1  0  0  0  0
 18 21  2  0  0  0  0
 18 40  1  0  0  0  0
 19 23  2  0  0  0  0
 19 24  1  0  0  0  0
 20 22  2  0  0  0  0
 20 41  1  0  0  0  0
 21 22  1  0  0  0  0
 21 42  1  0  0  0  0
 24 26  2  0  0  0  0
 24 43  1  0  0  0  0
 25 28  1  0  0  0  0
 25 45  1  0  0  0  0
 25 46  1  0  0  0  0
 26 27  1  0  0  0  0
 26 47  1  0  0  0  0
 27 48  1  0  0  0  0
 28 49  1  0  0  0  0
 28 50  1  0  0  0  0
 29 51  1  0  0  0  0
 29 52  1  0  0  0  0
 29 53  1  0  0  0  0
M  END
> <PUBCHEM_COMPOUND_CID>
45783373

> <PUBCHEM_CONFORMER_RMSD>
1

> <PUBCHEM_CONFORMER_DIVERSEORDER>
1
109
27
146
99
126
106
134
3
148
18
122
83
42
128
104
14
11
68
131
77
133
121
86
50
4
111
22
35
90
72
13
79
93
23
39
135
89
103
144
143
85
58
137
138
145
55
92
56
45
108
142
101
110
69
139
53
63
74
105
127
76
91
51
6
130
82
141
87
100
123
94
147
64
29
67
16
38
113
54
78
65
116
46
95
96
61
28
41
84
59
118
115
57
120
149
36
117
88
62
25
129
44
8
136
31
124
81
32
33
114
37
71
98
140
40
21
24
5
49
43
66
132
2
102
80
17
73
19
20
10
15
75
107
119
34
97
48
125
112
47
7
70
26
60
30
52
9
12

> <PUBCHEM_MMFF94_PARTIAL_CHARGES>
35
1 -0.18
12 0.27
13 0.41
14 0.3
15 -0.14
16 0.46
17 -0.15
18 -0.15
19 0.05
2 -0.02
20 -0.15
21 -0.15
22 0.18
23 0.41
24 -0.15
25 0.37
26 -0.15
27 0.16
28 0.28
29 0.28
3 -0.56
39 0.15
4 -0.81
40 0.15
41 0.15
42 0.15
43 0.15
44 0.4
47 0.15
48 0.15
5 -0.57
6 -0.41
7 -0.87
8 -0.62
9 0.45

> <PUBCHEM_EFFECTIVE_ROTOR_COUNT>
9

> <PUBCHEM_PHARMACOPHORE_FEATURES>
10
1 3 acceptor
1 4 cation
1 7 cation
1 7 donor
1 8 acceptor
3 5 6 16 cation
5 2 5 6 14 16 rings
5 4 9 10 11 12 rings
6 15 17 18 20 21 22 rings
6 8 19 23 24 26 27 rings

> <PUBCHEM_HEAVY_ATOM_COUNT>
29

> <PUBCHEM_ATOM_DEF_STEREO_COUNT>
1

> <PUBCHEM_ATOM_UDEF_STEREO_COUNT>
0

> <PUBCHEM_BOND_DEF_STEREO_COUNT>
0

> <PUBCHEM_BOND_UDEF_STEREO_COUNT>
0

> <PUBCHEM_ISOTOPIC_ATOM_COUNT>
0

> <PUBCHEM_COMPONENT_COUNT>
1

> <PUBCHEM_CACTVS_TAUTO_COUNT>
8

> <PUBCHEM_CONFORMER_ID>
02BA994D00000001

> <PUBCHEM_MMFF94_ENERGY>
69.0326

> <PUBCHEM_FEATURE_SELFOVERLAP>
50.747

> <PUBCHEM_SHAPE_FINGERPRINT>
12166972 35 18120927304900822803
12788726 201 17917151572525507657
13009979 54 17622155763593991011
13617811 41 18409719678304470421
14068700 675 17911797977827899690
14117953 113 16681754360557485349
144659 39 17168148961442420841
14790565 3 17914630366941639585
14931854 50 18272092694704410180
14932702 115 17912379907057640272
15142526 21 18113339721207495051
15297060 5 17272010848441895811
15420108 30 17332534467485038112
17138139 8 18272363217477228548
17492 54 18273501173473282801
18608769 82 18195249034642217319
19319366 153 18335978697103135899
20511986 3 18340757183021572637
20609170 92 17481436293835284136
20642791 35 17988633108707190009
21814621 53 16590567627409631153
22122407 14 17899702259032409829
23559900 14 17555728803668348783
23845131 108 17676207978960005507
394222 165 18260547779689462738
469060 322 17680175119764564547
474 4 18114181917012625127
474144 1 18263635169653377315
5081480 168 16558754567522488691
513202 73 10734786546604424004
5895379 119 17912929383676970366
6823239 73 17274527802319507097
7288768 16 17895197774140434590
9981440 41 18193278718463866170

> <PUBCHEM_SHAPE_MULTIPOLES>
562.03
11.09
4.45
2.1
2.76
1.16
1.5
-9.62
-5.8
-2.13
1.53
-0.91
-0.04
-2.15

> <PUBCHEM_SHAPE_SELFOVERLAP>
1193.214

> <PUBCHEM_SHAPE_VOLUME>
316.2

> <PUBCHEM_COORDINATE_TYPE>
2
5
10

$$$$
