75536994
  -OEChem-12032416343D

 40 42  0     1  0  0  0  0  0999 V2000
   -4.6077    1.3222    0.0214 S   0  0  0  0  0  0  0  0  0  0  0  0
    5.3152    2.6365   -0.9894 F   0  0  0  0  0  0  0  0  0  0  0  0
    0.6315   -2.6438   -1.2410 O   0  0  0  0  0  0  0  0  0  0  0  0
   -4.7010    1.9134    1.3376 O   0  0  0  0  0  0  0  0  0  0  0  0
   -5.7714    0.8158   -0.6711 O   0  0  0  0  0  0  0  0  0  0  0  0
   -1.1527   -1.5349   -0.1890 N   0  0  0  0  0  0  0  0  0  0  0  0
   -3.4107    0.0957    0.0538 N   0  0  2  0  0  0  0  0  0  0  0  0
    0.8666   -1.4764    0.7941 N   0  0  0  0  0  0  0  0  0  0  0  0
   -1.3813   -0.8537    1.0710 C   0  0  2  0  0  0  0  0  0  0  0  0
   -2.1800    0.4257    0.8473 C   0  0  0  0  0  0  0  0  0  0  0  0
    0.0242   -0.6368    1.6276 C   0  0  0  0  0  0  0  0  0  0  0  0
   -2.2668   -1.7817   -1.0832 C   0  0  0  0  0  0  0  0  0  0  0  0
   -3.0710   -0.5008   -1.2813 C   0  0  0  0  0  0  0  0  0  0  0  0
    0.1718   -1.9729   -0.3263 C   0  0  0  0  0  0  0  0  0  0  0  0
    2.2794   -1.6422    1.0547 C   0  0  0  0  0  0  0  0  0  0  0  0
   -3.7939    2.4821   -1.0459 C   0  0  0  0  0  0  0  0  0  0  0  0
    3.0891   -0.5013    0.5098 C   0  0  0  0  0  0  0  0  0  0  0  0
    3.5891   -0.5598   -0.7911 C   0  0  0  0  0  0  0  0  0  0  0  0
    3.3412    0.6173    1.3041 C   0  0  0  0  0  0  0  0  0  0  0  0
    4.3413    0.4999   -1.2976 C   0  0  0  0  0  0  0  0  0  0  0  0
    4.0935    1.6771    0.7977 C   0  0  0  0  0  0  0  0  0  0  0  0
    4.5936    1.6184   -0.5031 C   0  0  0  0  0  0  0  0  0  0  0  0
   -1.9419   -1.5484    1.7095 H   0  0  0  0  0  0  0  0  0  0  0  0
   -2.4484    0.8498    1.8197 H   0  0  0  0  0  0  0  0  0  0  0  0
   -1.5787    1.1590    0.2984 H   0  0  0  0  0  0  0  0  0  0  0  0
    0.3558    0.4016    1.5311 H   0  0  0  0  0  0  0  0  0  0  0  0
    0.1025   -0.9495    2.6732 H   0  0  0  0  0  0  0  0  0  0  0  0
   -2.8869   -2.5558   -0.6171 H   0  0  0  0  0  0  0  0  0  0  0  0
   -1.8966   -2.1703   -2.0370 H   0  0  0  0  0  0  0  0  0  0  0  0
   -2.4709    0.2088   -1.8612 H   0  0  0  0  0  0  0  0  0  0  0  0
   -3.9826   -0.7342   -1.8397 H   0  0  0  0  0  0  0  0  0  0  0  0
    2.6103   -2.5786    0.5894 H   0  0  0  0  0  0  0  0  0  0  0  0
    2.4295   -1.7560    2.1346 H   0  0  0  0  0  0  0  0  0  0  0  0
   -4.4331    3.3677   -1.1034 H   0  0  0  0  0  0  0  0  0  0  0  0
   -2.8319    2.7757   -0.6264 H   0  0  0  0  0  0  0  0  0  0  0  0
   -3.6899    2.0673   -2.0486 H   0  0  0  0  0  0  0  0  0  0  0  0
    3.3996   -1.4249   -1.4210 H   0  0  0  0  0  0  0  0  0  0  0  0
    2.9578    0.6750    2.3194 H   0  0  0  0  0  0  0  0  0  0  0  0
    4.7305    0.4548   -2.3104 H   0  0  0  0  0  0  0  0  0  0  0  0
    4.2899    2.5481    1.4158 H   0  0  0  0  0  0  0  0  0  0  0  0
  1  4  2  0  0  0  0
  1  5  2  0  0  0  0
  1  7  1  0  0  0  0
  1 16  1  0  0  0  0
  2 22  1  0  0  0  0
  3 14  2  0  0  0  0
  6  9  1  0  0  0  0
  6 12  1  0  0  0  0
  6 14  1  0  0  0  0
  7 10  1  0  0  0  0
  7 13  1  0  0  0  0
  8 11  1  0  0  0  0
  8 14  1  0  0  0  0
  8 15  1  0  0  0  0
  9 10  1  0  0  0  0
  9 11  1  0  0  0  0
  9 23  1  0  0  0  0
 10 24  1  0  0  0  0
 10 25  1  0  0  0  0
 11 26  1  0  0  0  0
 11 27  1  0  0  0  0
 12 13  1  0  0  0  0
 12 28  1  0  0  0  0
 12 29  1  0  0  0  0
 13 30  1  0  0  0  0
 13 31  1  0  0  0  0
 15 17  1  0  0  0  0
 15 32  1  0  0  0  0
 15 33  1  0  0  0  0
 16 34  1  0  0  0  0
 16 35  1  0  0  0  0
 16 36  1  0  0  0  0
 17 18  2  0  0  0  0
 17 19  1  0  0  0  0
 18 20  1  0  0  0  0
 18 37  1  0  0  0  0
 19 21  2  0  0  0  0
 19 38  1  0  0  0  0
 20 22  2  0  0  0  0
 20 39  1  0  0  0  0
 21 22  1  0  0  0  0
 21 40  1  0  0  0  0
M  END
> <PUBCHEM_COMPOUND_CID>
75536994

> <PUBCHEM_CONFORMER_RMSD>
0.6

> <PUBCHEM_CONFORMER_DIVERSEORDER>
1
51
4
49
75
81
8
59
72
52
78
31
62
12
37
43
58
61
57
83
65
82
53
44
68
29
71
54
48
40
25
84
56
32
70
28
60
35
21
74
73
34
85
26
63
23
16
36
80
69
67
14
66
76
55
9
50
18
79
13
38
46
39
33
45
5
7
2
47
42
24
77
6
30
22
10
64
17
15
41
11
27
20
3
19

> <PUBCHEM_MMFF94_PARTIAL_CHARGES>
26
1 1.33
10 0.36
11 0.3
12 0.3
13 0.36
14 0.69
15 0.44
16 0.11
17 -0.14
18 -0.15
19 -0.15
2 -0.19
20 -0.15
21 -0.15
22 0.19
3 -0.57
37 0.15
38 0.15
39 0.15
4 -0.65
40 0.15
5 -0.65
6 -0.66
7 -0.85
8 -0.66
9 0.3

> <PUBCHEM_EFFECTIVE_ROTOR_COUNT>
4.2

> <PUBCHEM_PHARMACOPHORE_FEATURES>
6
1 3 acceptor
1 4 acceptor
1 5 acceptor
5 6 8 9 11 14 rings
6 17 18 19 20 21 22 rings
6 6 7 9 10 12 13 rings

> <PUBCHEM_HEAVY_ATOM_COUNT>
22

> <PUBCHEM_ATOM_DEF_STEREO_COUNT>
1

> <PUBCHEM_ATOM_UDEF_STEREO_COUNT>
0

> <PUBCHEM_BOND_DEF_STEREO_COUNT>
0

> <PUBCHEM_BOND_UDEF_STEREO_COUNT>
0

> <PUBCHEM_ISOTOPIC_ATOM_COUNT>
0

> <PUBCHEM_COMPONENT_COUNT>
1

> <PUBCHEM_CACTVS_TAUTO_COUNT>
1

> <PUBCHEM_CONFORMER_ID>
04809A6200000001

> <PUBCHEM_MMFF94_ENERGY>
45.0708

> <PUBCHEM_FEATURE_SELFOVERLAP>
30.562

> <PUBCHEM_SHAPE_FINGERPRINT>
10498660 4 18201438112152866984
11796584 16 11455880348354165461
12596602 18 15068634789469809485
12633257 1 15140967304664534748
12824470 246 10375877376558695794
12839892 36 13118286958233525105
12892183 10 13695860433309786654
13103583 49 11386634188062461510
13544653 18 9079110059892719273
1420 369 8862944987097675008
14251751 18 12103554256368929644
14251764 38 17900535684118981813
14251764 75 18338528511686156984
14341114 328 15502665931129717020
14528608 73 18343578530227281609
14774955 27 18334855009008933389
14848178 5 10519980448352578645
15163728 17 18341905094719787398
15188451 53 10737280285877578817
15210252 30 18335423504246065312
15342168 16 18186239541141418494
15475509 35 9221786022088070837
15475509 8 14979965748801301065
17780758 139 8141268388946177692
17868525 174 17319278819018152954
17959699 21 18412544297140460216
1813 80 10952050086664285227
18186145 218 17560804372289831474
193927 3 10087642636662156616
19784866 240 11312062053670433875
1979834 28 13479418210723366273
20403669 9 9655577421998304601
20567600 234 16732708259624963445
20626108 58 11023828357857519106
20645477 70 13182729355948392874
21065199 12 12685077199351689838
21864079 5 18187645829820297392
22079108 93 17603871104841719579
23227448 37 18409445916739824349
23366157 5 17912084941704619751
23559900 14 17774719732488776278
270888 7 18115027527976359476
2838139 119 18334009484693975732
3472631 163 18410575119049451444
4028521 119 18200879581889507202
44062 13 11815353575773862643
4463277 69 11527941253384474530
463206 1 13039195796644192380
474 4 18259983760246525203
49207404 50 14346065404655046066
57724786 102 17676488393617207820
633830 44 18260825990738915426
7237137 82 18201143456459770719
76465 3 10880000163685613914
7808743 9 18262238957959778428
7970288 3 10807672081504014436
960060 61 14620509047397835568

> <PUBCHEM_SHAPE_MULTIPOLES>
416.77
11.7
2.68
1.51
1.8
0.4
-0.09
10.33
2.27
-0.3
0.66
-0.2
-0.05
-0.76

> <PUBCHEM_SHAPE_SELFOVERLAP>
867.625

> <PUBCHEM_SHAPE_VOLUME>
240.1

> <PUBCHEM_COORDINATE_TYPE>
2
5
10

$$$$
