7135239
  -OEChem-12032416123D

 74 78  0     1  0  0  0  0  0999 V2000
    0.9131    3.6215   -0.3060 S   0  0  0  0  0  0  0  0  0  0  0  0
   -3.6115    5.6660   -0.3231 S   0  0  0  0  0  0  0  0  0  0  0  0
    7.0829   -1.1325    0.6739 O   0  0  0  0  0  0  0  0  0  0  0  0
    7.3555    0.5781   -0.9825 O   0  0  0  0  0  0  0  0  0  0  0  0
   -0.7722   -0.9010    1.6820 O   0  0  0  0  0  0  0  0  0  0  0  0
   -3.3082    1.8392    0.3022 O   0  0  0  0  0  0  0  0  0  0  0  0
   -4.2626   -6.2618   -1.5065 O   0  0  0  0  0  0  0  0  0  0  0  0
   -0.4238    1.4473    0.1165 N   0  0  0  0  0  0  0  0  0  0  0  0
   -1.7809   -2.3905    0.2130 N   0  0  0  0  0  0  0  0  0  0  0  0
   -1.6950    3.4866   -0.0708 N   0  0  0  0  0  0  0  0  0  0  0  0
   -3.2232   -4.8186   -0.0127 N   0  0  0  0  0  0  0  0  0  0  0  0
    2.8763   -0.5062   -0.2857 C   0  0  2  0  0  0  0  0  0  0  0  0
    3.7492    0.6957    0.2878 C   0  0  1  0  0  0  0  0  0  0  0  0
    5.3164    0.5189    0.2606 C   0  0  1  0  0  0  0  0  0  0  0  0
    1.3761   -0.3165    0.2312 C   0  0  1  0  0  0  0  0  0  0  0  0
    3.4186   -1.8485    0.2702 C   0  0  0  0  0  0  0  0  0  0  0  0
    5.6824   -0.8909    0.8053 C   0  0  1  0  0  0  0  0  0  0  0  0
    3.2631    2.0666   -0.2663 C   0  0  0  0  0  0  0  0  0  0  0  0
    4.9231   -2.0179    0.1141 C   0  0  0  0  0  0  0  0  0  0  0  0
    2.8835   -0.5698   -1.8330 C   0  0  0  0  0  0  0  0  0  0  0  0
    0.9140    1.1058    0.0436 C   0  0  0  0  0  0  0  0  0  0  0  0
    5.9645    0.7609   -1.1207 C   0  0  0  0  0  0  0  0  0  0  0  0
    5.9612    1.5647    1.2138 C   0  0  0  0  0  0  0  0  0  0  0  0
    1.7785    2.1620   -0.1602 C   0  0  0  0  0  0  0  0  0  0  0  0
    0.3689   -1.3161   -0.3530 C   0  0  0  0  0  0  0  0  0  0  0  0
   -0.7752   -1.5108    0.6097 C   0  0  0  0  0  0  0  0  0  0  0  0
   -0.5434    2.7452   -0.0606 C   0  0  0  0  0  0  0  0  0  0  0  0
   -2.9261   -2.6371    1.0929 C   0  0  0  0  0  0  0  0  0  0  0  0
   -1.8508   -3.0744   -1.0851 C   0  0  0  0  0  0  0  0  0  0  0  0
   -3.1538   -4.1341    1.2852 C   0  0  0  0  0  0  0  0  0  0  0  0
   -2.0784   -4.5715   -0.8932 C   0  0  0  0  0  0  0  0  0  0  0  0
   -3.0154    3.0166    0.1078 C   0  0  0  0  0  0  0  0  0  0  0  0
   -4.2280   -5.6995   -0.4089 C   0  0  0  0  0  0  0  0  0  0  0  0
   -4.0644    4.0463   -0.0009 C   0  0  0  0  0  0  0  0  0  0  0  0
   -5.3298   -5.9579    0.5873 C   0  0  0  0  0  0  0  0  0  0  0  0
   -5.4292    3.9058    0.1219 C   0  0  0  0  0  0  0  0  0  0  0  0
   -6.1122    5.1442   -0.0508 C   0  0  0  0  0  0  0  0  0  0  0  0
   -5.2435    6.1840   -0.2990 C   0  0  0  0  0  0  0  0  0  0  0  0
    3.5019    0.7129    1.3636 H   0  0  0  0  0  0  0  0  0  0  0  0
    1.4392   -0.4558    1.3206 H   0  0  0  0  0  0  0  0  0  0  0  0
    2.9301   -2.6988   -0.2190 H   0  0  0  0  0  0  0  0  0  0  0  0
    3.1758   -1.9296    1.3380 H   0  0  0  0  0  0  0  0  0  0  0  0
    5.4564   -0.9273    1.8793 H   0  0  0  0  0  0  0  0  0  0  0  0
    3.5550    2.1911   -1.3145 H   0  0  0  0  0  0  0  0  0  0  0  0
    3.7176    2.8851    0.3019 H   0  0  0  0  0  0  0  0  0  0  0  0
    5.2091   -2.0883   -0.9412 H   0  0  0  0  0  0  0  0  0  0  0  0
    5.2236   -2.9783    0.5526 H   0  0  0  0  0  0  0  0  0  0  0  0
    2.5103    0.3492   -2.2930 H   0  0  0  0  0  0  0  0  0  0  0  0
    3.8699   -0.7699   -2.2462 H   0  0  0  0  0  0  0  0  0  0  0  0
    2.2499   -1.3856   -2.1986 H   0  0  0  0  0  0  0  0  0  0  0  0
    5.6232    0.0616   -1.8797 H   0  0  0  0  0  0  0  0  0  0  0  0
    5.7869    1.7788   -1.4809 H   0  0  0  0  0  0  0  0  0  0  0  0
    7.0307    1.3844    1.3698 H   0  0  0  0  0  0  0  0  0  0  0  0
    5.8611    2.5844    0.8276 H   0  0  0  0  0  0  0  0  0  0  0  0
    5.4896    1.5370    2.2029 H   0  0  0  0  0  0  0  0  0  0  0  0
   -0.0190   -0.9608   -1.3146 H   0  0  0  0  0  0  0  0  0  0  0  0
    0.8285   -2.2981   -0.4940 H   0  0  0  0  0  0  0  0  0  0  0  0
    7.2704   -2.0015    1.0680 H   0  0  0  0  0  0  0  0  0  0  0  0
    7.7573    0.7415   -1.8527 H   0  0  0  0  0  0  0  0  0  0  0  0
   -3.7999   -2.1767    0.6162 H   0  0  0  0  0  0  0  0  0  0  0  0
   -2.7851   -2.1532    2.0643 H   0  0  0  0  0  0  0  0  0  0  0  0
   -0.9539   -2.9182   -1.6862 H   0  0  0  0  0  0  0  0  0  0  0  0
   -2.6925   -2.6300   -1.6301 H   0  0  0  0  0  0  0  0  0  0  0  0
   -1.5604    4.4815   -0.2318 H   0  0  0  0  0  0  0  0  0  0  0  0
   -4.0544   -4.2912    1.8811 H   0  0  0  0  0  0  0  0  0  0  0  0
   -2.3139   -4.5789    1.8324 H   0  0  0  0  0  0  0  0  0  0  0  0
   -2.2187   -5.0558   -1.8645 H   0  0  0  0  0  0  0  0  0  0  0  0
   -1.2041   -5.0309   -0.4164 H   0  0  0  0  0  0  0  0  0  0  0  0
   -5.8831   -5.0358    0.7841 H   0  0  0  0  0  0  0  0  0  0  0  0
   -4.9161   -6.3629    1.5147 H   0  0  0  0  0  0  0  0  0  0  0  0
   -6.0270   -6.6944    0.1760 H   0  0  0  0  0  0  0  0  0  0  0  0
   -5.9213    2.9632    0.3258 H   0  0  0  0  0  0  0  0  0  0  0  0
   -7.1862    5.2662    0.0042 H   0  0  0  0  0  0  0  0  0  0  0  0
   -5.4890    7.2231   -0.4673 H   0  0  0  0  0  0  0  0  0  0  0  0
  1 24  1  0  0  0  0
  1 27  1  0  0  0  0
  2 34  1  0  0  0  0
  2 38  1  0  0  0  0
  3 17  1  0  0  0  0
  3 58  1  0  0  0  0
  4 22  1  0  0  0  0
  4 59  1  0  0  0  0
  5 26  2  0  0  0  0
  6 32  2  0  0  0  0
  7 33  2  0  0  0  0
  8 21  1  0  0  0  0
  8 27  2  0  0  0  0
  9 26  1  0  0  0  0
  9 28  1  0  0  0  0
  9 29  1  0  0  0  0
 10 27  1  0  0  0  0
 10 32  1  0  0  0  0
 10 64  1  0  0  0  0
 11 30  1  0  0  0  0
 11 31  1  0  0  0  0
 11 33  1  0  0  0  0
 12 13  1  0  0  0  0
 12 15  1  0  0  0  0
 12 16  1  0  0  0  0
 12 20  1  0  0  0  0
 13 14  1  0  0  0  0
 13 18  1  0  0  0  0
 13 39  1  0  0  0  0
 14 17  1  0  0  0  0
 14 22  1  0  0  0  0
 14 23  1  0  0  0  0
 15 21  1  0  0  0  0
 15 25  1  0  0  0  0
 15 40  1  0  0  0  0
 16 19  1  0  0  0  0
 16 41  1  0  0  0  0
 16 42  1  0  0  0  0
 17 19  1  0  0  0  0
 17 43  1  0  0  0  0
 18 24  1  0  0  0  0
 18 44  1  0  0  0  0
 18 45  1  0  0  0  0
 19 46  1  0  0  0  0
 19 47  1  0  0  0  0
 20 48  1  0  0  0  0
 20 49  1  0  0  0  0
 20 50  1  0  0  0  0
 21 24  2  0  0  0  0
 22 51  1  0  0  0  0
 22 52  1  0  0  0  0
 23 53  1  0  0  0  0
 23 54  1  0  0  0  0
 23 55  1  0  0  0  0
 25 26  1  0  0  0  0
 25 56  1  0  0  0  0
 25 57  1  0  0  0  0
 28 30  1  0  0  0  0
 28 60  1  0  0  0  0
 28 61  1  0  0  0  0
 29 31  1  0  0  0  0
 29 62  1  0  0  0  0
 29 63  1  0  0  0  0
 30 65  1  0  0  0  0
 30 66  1  0  0  0  0
 31 67  1  0  0  0  0
 31 68  1  0  0  0  0
 32 34  1  0  0  0  0
 33 35  1  0  0  0  0
 34 36  2  0  0  0  0
 35 69  1  0  0  0  0
 35 70  1  0  0  0  0
 35 71  1  0  0  0  0
 36 37  1  0  0  0  0
 36 72  1  0  0  0  0
 37 38  2  0  0  0  0
 37 73  1  0  0  0  0
 38 74  1  0  0  0  0
M  END
> <PUBCHEM_COMPOUND_CID>
7135239

> <PUBCHEM_CONFORMER_RMSD>
1.2

> <PUBCHEM_CONFORMER_DIVERSEORDER>
1
13
15
8
11
9
14
5
12
6
10
16
7
3
4
2

> <PUBCHEM_MMFF94_PARTIAL_CHARGES>
37
1 -0.08
10 -0.49
11 -0.66
15 0.18
17 0.28
18 0.18
2 -0.08
21 0.05
22 0.28
24 -0.14
25 0.06
26 0.57
27 0.44
28 0.3
29 0.3
3 -0.68
30 0.3
31 0.3
32 0.71
33 0.57
34 -0.05
35 0.06
36 -0.15
37 -0.15
38 -0.11
4 -0.68
5 -0.57
58 0.4
59 0.4
6 -0.57
64 0.37
7 -0.57
72 0.15
73 0.15
74 0.15
8 -0.57
9 -0.66

> <PUBCHEM_EFFECTIVE_ROTOR_COUNT>
10.4

> <PUBCHEM_PHARMACOPHORE_FEATURES>
13
1 10 donor
1 3 acceptor
1 3 donor
1 4 acceptor
1 4 donor
1 5 acceptor
1 6 acceptor
1 7 acceptor
5 1 8 21 24 27 rings
5 2 34 36 37 38 rings
6 12 13 14 16 17 19 rings
6 12 13 15 18 21 24 rings
6 9 11 28 29 30 31 rings

> <PUBCHEM_HEAVY_ATOM_COUNT>
38

> <PUBCHEM_ATOM_DEF_STEREO_COUNT>
5

> <PUBCHEM_ATOM_UDEF_STEREO_COUNT>
0

> <PUBCHEM_BOND_DEF_STEREO_COUNT>
0

> <PUBCHEM_BOND_UDEF_STEREO_COUNT>
0

> <PUBCHEM_ISOTOPIC_ATOM_COUNT>
0

> <PUBCHEM_COMPONENT_COUNT>
1

> <PUBCHEM_CACTVS_TAUTO_COUNT>
3

> <PUBCHEM_CONFORMER_ID>
006CE00700000001

> <PUBCHEM_MMFF94_ENERGY>
108.5835

> <PUBCHEM_FEATURE_SELFOVERLAP>
66.12

> <PUBCHEM_SHAPE_FINGERPRINT>
10050765 1 18410292541358402192
102385 1 18266177416905871624
10411042 1 18122345954136720810
10675989 125 16609986583177039073
11062273 19 17400085665418276518
11135926 11 17904191539117834405
11411753 3 18131069364556227800
11578080 2 17774136004015950712
11719270 70 17977662013527921281
11991303 11 18261115119183570828
13248334 5 17114100526422767603
13540713 4 18202281438378888864
13540713 5 18186523233397576268
13617811 41 17544197538033581420
13692114 37 18269260292668955321
13835254 42 18122621914607506008
14400156 413 17691393527804042189
14790565 3 18121782729575022008
15198563 99 18268148832832552575
15200665 1 18337952277245285315
15347591 1 18410574008056219720
15400415 2 18050284774139438357
15444296 8 18269842071906813055
15483637 11 18410574015406288728
15484559 13 17838618855600323607
15629462 23 18340752841321371855
15927050 60 18336265626725170914
16728300 4 16450929555754456018
16993438 75 18334865987615275065
18365409 1 18409169896562023365
19301679 30 18122055674951339824
19302320 297 17979377562287214251
19319366 153 17838324186800947565
20028762 73 17764864693455846597
20721686 124 17760082922256655111
20775438 99 18128530457998110310
21344244 181 17980771428342501838
23559900 14 17400357240422452491
25019877 29 18044943359335801101
3103668 31 18337112367127432943
3383291 50 17833826072163617722
3388396 114 17542528457395838260
3534868 343 17684659009682343940
3627633 1 18266457796875956991
38695281 34 18121217580661246105
4073 2 17896615989353275097
4461854 278 18338813217411516081
504843 32 18339081480440692957
6058803 2 18187366541414392156
6697151 62 17689411095191490503
6700243 42 17840345333795694830
9658208 31 18341601574082635072

> <PUBCHEM_SHAPE_MULTIPOLES>
740.45
15.44
11.15
1.1
13.03
11.39
0.1
-10.09
-0.41
-32.82
1.54
0.44
0.84
-0.06

> <PUBCHEM_SHAPE_SELFOVERLAP>
1554.317

> <PUBCHEM_SHAPE_VOLUME>
420

> <PUBCHEM_COORDINATE_TYPE>
2
5
10

$$$$
