40779852
  -OEChem-12032416163D

 54 57  0     1  0  0  0  0  0999 V2000
   -4.8031   -0.5378   -0.5309 S   0  0  0  0  0  0  0  0  0  0  0  0
   -4.1475    2.2775   -1.0182 S   0  0  0  0  0  0  0  0  0  0  0  0
   -5.3652   -1.3822    0.5058 O   0  0  0  0  0  0  0  0  0  0  0  0
   -5.4480   -0.4466   -1.8268 O   0  0  0  0  0  0  0  0  0  0  0  0
   -0.2539   -2.1375    1.3520 N   0  0  2  0  0  0  0  0  0  0  0  0
    2.9398    0.7352   -0.9787 N   0  0  3  0  0  0  0  0  0  0  0  0
   -3.1405   -0.9367   -0.7251 N   0  0  0  0  0  0  0  0  0  0  0  0
    1.1866   -1.8581   -0.7961 C   0  0  2  0  0  0  0  0  0  0  0  0
    1.6250   -0.8562    0.2963 C   0  0  2  0  0  0  0  0  0  0  0  0
   -1.1358   -1.9744    0.1647 C   0  0  2  0  0  0  0  0  0  0  0  0
   -0.3092   -1.6574   -1.1014 C   0  0  0  0  0  0  0  0  0  0  0  0
    0.6474   -0.9677    1.4879 C   0  0  0  0  0  0  0  0  0  0  0  0
    1.3449   -3.2693   -0.1985 C   0  0  0  0  0  0  0  0  0  0  0  0
    0.5831   -3.3430    1.1367 C   0  0  0  0  0  0  0  0  0  0  0  0
    1.7325    0.5797   -0.2114 C   0  0  0  0  0  0  0  0  0  0  0  0
   -2.2404   -0.9405    0.3959 C   0  0  0  0  0  0  0  0  0  0  0  0
    2.8563    0.6862   -2.4415 C   0  0  0  0  0  0  0  0  0  0  0  0
    4.1860    0.9242   -0.3595 C   0  0  0  0  0  0  0  0  0  0  0  0
    4.2736    0.9719    1.0318 C   0  0  0  0  0  0  0  0  0  0  0  0
    5.3363    1.0641   -1.1359 C   0  0  0  0  0  0  0  0  0  0  0  0
   -4.6918    1.1071    0.1069 C   0  0  0  0  0  0  0  0  0  0  0  0
    5.5114    1.1597    1.6468 C   0  0  0  0  0  0  0  0  0  0  0  0
    6.5742    1.2518   -0.5210 C   0  0  0  0  0  0  0  0  0  0  0  0
   -4.9546    1.6594    1.3412 C   0  0  0  0  0  0  0  0  0  0  0  0
    6.6617    1.2997    0.8704 C   0  0  0  0  0  0  0  0  0  0  0  0
   -4.7061    3.0623    1.3634 C   0  0  0  0  0  0  0  0  0  0  0  0
   -4.2627    3.5285    0.1454 C   0  0  0  0  0  0  0  0  0  0  0  0
    1.7864   -1.7722   -1.7060 H   0  0  0  0  0  0  0  0  0  0  0  0
    2.6067   -1.1905    0.6586 H   0  0  0  0  0  0  0  0  0  0  0  0
   -1.6476   -2.9346    0.0002 H   0  0  0  0  0  0  0  0  0  0  0  0
   -0.4876   -0.6435   -1.4713 H   0  0  0  0  0  0  0  0  0  0  0  0
   -0.6091   -2.3393   -1.9075 H   0  0  0  0  0  0  0  0  0  0  0  0
    1.2223   -1.0659    2.4183 H   0  0  0  0  0  0  0  0  0  0  0  0
    0.0604   -0.0523    1.6211 H   0  0  0  0  0  0  0  0  0  0  0  0
    2.4045   -3.4993   -0.0362 H   0  0  0  0  0  0  0  0  0  0  0  0
    0.9535   -4.0182   -0.8977 H   0  0  0  0  0  0  0  0  0  0  0  0
   -0.0442   -4.2428    1.1592 H   0  0  0  0  0  0  0  0  0  0  0  0
    1.2890   -3.4578    1.9691 H   0  0  0  0  0  0  0  0  0  0  0  0
    1.6947    1.3031    0.6124 H   0  0  0  0  0  0  0  0  0  0  0  0
    0.8596    0.8499   -0.8154 H   0  0  0  0  0  0  0  0  0  0  0  0
   -1.8263    0.0658    0.5149 H   0  0  0  0  0  0  0  0  0  0  0  0
   -2.7785   -1.1928    1.3166 H   0  0  0  0  0  0  0  0  0  0  0  0
   -2.7208   -0.6134   -1.6063 H   0  0  0  0  0  0  0  0  0  0  0  0
    1.8245    0.5322   -2.7770 H   0  0  0  0  0  0  0  0  0  0  0  0
    3.4459   -0.1454   -2.8427 H   0  0  0  0  0  0  0  0  0  0  0  0
    3.1921    1.6299   -2.8851 H   0  0  0  0  0  0  0  0  0  0  0  0
    3.4189    0.8662    1.6908 H   0  0  0  0  0  0  0  0  0  0  0  0
    5.3245    1.0348   -2.2208 H   0  0  0  0  0  0  0  0  0  0  0  0
    5.5808    1.1961    2.7301 H   0  0  0  0  0  0  0  0  0  0  0  0
    7.4704    1.3608   -1.1248 H   0  0  0  0  0  0  0  0  0  0  0  0
   -5.3075    1.0873    2.1896 H   0  0  0  0  0  0  0  0  0  0  0  0
    7.6256    1.4456    1.3491 H   0  0  0  0  0  0  0  0  0  0  0  0
   -4.8451    3.6970    2.2287 H   0  0  0  0  0  0  0  0  0  0  0  0
   -4.0008    4.5438   -0.1168 H   0  0  0  0  0  0  0  0  0  0  0  0
  1  3  2  0  0  0  0
  1  4  2  0  0  0  0
  1  7  1  0  0  0  0
  1 21  1  0  0  0  0
  2 21  1  0  0  0  0
  2 27  1  0  0  0  0
  5 10  1  0  0  0  0
  5 12  1  0  0  0  0
  5 14  1  0  0  0  0
  6 15  1  0  0  0  0
  6 17  1  0  0  0  0
  6 18  1  0  0  0  0
  7 16  1  0  0  0  0
  7 43  1  0  0  0  0
  8  9  1  0  0  0  0
  8 11  1  0  0  0  0
  8 13  1  0  0  0  0
  8 28  1  0  0  0  0
  9 12  1  0  0  0  0
  9 15  1  0  0  0  0
  9 29  1  0  0  0  0
 10 11  1  0  0  0  0
 10 16  1  0  0  0  0
 10 30  1  0  0  0  0
 11 31  1  0  0  0  0
 11 32  1  0  0  0  0
 12 33  1  0  0  0  0
 12 34  1  0  0  0  0
 13 14  1  0  0  0  0
 13 35  1  0  0  0  0
 13 36  1  0  0  0  0
 14 37  1  0  0  0  0
 14 38  1  0  0  0  0
 15 39  1  0  0  0  0
 15 40  1  0  0  0  0
 16 41  1  0  0  0  0
 16 42  1  0  0  0  0
 17 44  1  0  0  0  0
 17 45  1  0  0  0  0
 17 46  1  0  0  0  0
 18 19  2  0  0  0  0
 18 20  1  0  0  0  0
 19 22  1  0  0  0  0
 19 47  1  0  0  0  0
 20 23  2  0  0  0  0
 20 48  1  0  0  0  0
 21 24  2  0  0  0  0
 22 25  2  0  0  0  0
 22 49  1  0  0  0  0
 23 25  1  0  0  0  0
 23 50  1  0  0  0  0
 24 26  1  0  0  0  0
 24 51  1  0  0  0  0
 25 52  1  0  0  0  0
 26 27  2  0  0  0  0
 26 53  1  0  0  0  0
 27 54  1  0  0  0  0
M  END
> <PUBCHEM_COMPOUND_CID>
40779852

> <PUBCHEM_CONFORMER_RMSD>
1

> <PUBCHEM_CONFORMER_DIVERSEORDER>
1
94
60
82
26
115
183
141
164
155
144
119
188
168
106
189
196
84
46
177
53
163
52
23
147
166
90
152
176
33
91
190
191
11
27
15
55
154
184
107
181
175
151
173
37
143
100
40
116
80
85
75
125
86
134
70
194
43
135
174
142
182
7
167
54
34
112
17
187
178
14
150
140
74
113
87
132
180
92
161
126
109
97
2
165
131
103
104
138
13
124
76
71
28
59
145
105
65
24
158
162
49
117
169
121
57
16
148
195
114
99
111
122
179
9
20
153
133
101
185
72
171
137
47
68
19
67
98
77
159
39
42
61
79
96
172
58
160
10
149
63
35
89
192
130
56
41
78
136
18
69
25
156
4
146
102
83
51
120
38
170
139
193
123
6
127
30
64
157
8
95
186
118
12
128
66
73
36
93
108
48
29
31
3
81
45
50
129
22
110
62
21
32
5
44
88

> <PUBCHEM_MMFF94_PARTIAL_CHARGES>
32
1 1.5
10 0.27
12 0.27
14 0.27
15 0.37
16 0.36
17 0.37
18 0.1
19 -0.15
2 -0.08
20 -0.15
21 -0.02
22 -0.15
23 -0.15
24 -0.15
25 -0.15
26 -0.15
27 -0.11
3 -0.65
4 -0.65
43 0.42
47 0.15
48 0.15
49 0.15
5 -0.81
50 0.15
51 0.15
52 0.15
53 0.15
54 0.15
6 -0.84
7 -0.91

> <PUBCHEM_EFFECTIVE_ROTOR_COUNT>
8.2

> <PUBCHEM_PHARMACOPHORE_FEATURES>
8
1 3 acceptor
1 4 acceptor
1 5 cation
1 6 cation
1 7 donor
5 2 21 24 26 27 rings
6 18 19 20 22 23 25 rings
8 5 8 9 10 11 12 13 14 rings

> <PUBCHEM_HEAVY_ATOM_COUNT>
27

> <PUBCHEM_ATOM_DEF_STEREO_COUNT>
3

> <PUBCHEM_ATOM_UDEF_STEREO_COUNT>
0

> <PUBCHEM_BOND_DEF_STEREO_COUNT>
0

> <PUBCHEM_BOND_UDEF_STEREO_COUNT>
0

> <PUBCHEM_ISOTOPIC_ATOM_COUNT>
0

> <PUBCHEM_COMPONENT_COUNT>
1

> <PUBCHEM_CACTVS_TAUTO_COUNT>
1

> <PUBCHEM_CONFORMER_ID>
026E404C00000001

> <PUBCHEM_MMFF94_ENERGY>
77.4947

> <PUBCHEM_FEATURE_SELFOVERLAP>
40.614

> <PUBCHEM_SHAPE_FINGERPRINT>
10670039 82 18413103970213598537
10692045 39 18334570206076673178
11135609 149 17129889148494333766
11135609 201 18272095981134574251
11720765 8 17196307213579889278
12107183 9 18114170961595181402
12422481 6 17750222617805928244
12633257 1 16950284039633933374
13726171 33 17631744764146481673
13914758 101 18060138735376402638
14347329 18 18410015472469524360
14466204 15 18409445895049216624
14739800 52 18341599400369682251
14950920 106 15647348449978683045
14955137 171 12324240572849571894
15163728 17 18408610240389393362
15183329 4 16845296042189711270
20238998 120 17549265827028486390
21424621 283 18413106186801520424
23559900 14 17770500833537780367
2838139 119 18201433701268906992
3459 39 18339910572200922104
397830 11 12035738664575247276
4098825 35 16630538314635189303
4280585 95 10303814254749924486
4487111 67 18196089937193635217
46194498 28 16486396828400960849
469060 322 18263100928105686809
5104073 3 18261396590171334387
5283173 99 17988361572094761760
5385378 56 18335140860800444722
6299153 45 18115297887492701754
6371009 1 18262232330529972077
6608658 132 18270664451202038677
7918774 8 10953735586924746976
7970288 3 9295297118668387552
79837 15 18115031916916153627
9981440 41 18333454248607566963

> <PUBCHEM_SHAPE_MULTIPOLES>
536.66
15.83
3.71
1.69
5.13
0.66
0.29
-14.3
-0.66
-3.09
-0.9
0.54
-0.28
-0.8

> <PUBCHEM_SHAPE_SELFOVERLAP>
1114.167

> <PUBCHEM_SHAPE_VOLUME>
308

> <PUBCHEM_COORDINATE_TYPE>
2
5
10

$$$$
