45783625
  -OEChem-12032416363D

 55 58  0     1  0  0  0  0  0999 V2000
   -2.8196   -1.5088    2.0041 O   0  0  0  0  0  0  0  0  0  0  0  0
    1.1253    3.5257   -0.5050 O   0  0  0  0  0  0  0  0  0  0  0  0
    0.2844    4.3021    1.4589 O   0  0  0  0  0  0  0  0  0  0  0  0
    7.5551   -0.4066   -1.4793 O   0  0  0  0  0  0  0  0  0  0  0  0
    4.9610   -0.5663   -1.6768 O   0  0  0  0  0  0  0  0  0  0  0  0
   -4.3467   -0.6675   -1.2309 N   0  0  1  0  0  0  0  0  0  0  0  0
   -1.7211   -1.2337    0.0716 N   0  0  0  0  0  0  0  0  0  0  0  0
   -1.4603   -1.4406    2.3351 N   0  0  0  0  0  0  0  0  0  0  0  0
    2.7337   -1.0968    2.0108 N   0  0  0  0  0  0  0  0  0  0  0  0
    4.6434   -0.8195    0.6433 N   0  0  0  0  0  0  0  0  0  0  0  0
   -4.2677   -1.4196    0.0374 C   0  0  1  0  0  0  0  0  0  0  0  0
   -4.7148   -2.8475   -0.3262 C   0  0  0  0  0  0  0  0  0  0  0  0
   -5.0824   -2.7856   -1.8019 C   0  0  0  0  0  0  0  0  0  0  0  0
   -5.3822   -1.3184   -2.0336 C   0  0  0  0  0  0  0  0  0  0  0  0
   -4.6122    0.7527   -1.0409 C   0  0  0  0  0  0  0  0  0  0  0  0
   -2.8848   -1.3789    0.6531 C   0  0  0  0  0  0  0  0  0  0  0  0
   -3.3682    1.5092   -0.6573 C   0  0  0  0  0  0  0  0  0  0  0  0
   -3.3274    2.2214    0.5415 C   0  0  0  0  0  0  0  0  0  0  0  0
   -2.2568    1.4982   -1.5002 C   0  0  0  0  0  0  0  0  0  0  0  0
   -0.8777   -1.2778    1.1435 C   0  0  0  0  0  0  0  0  0  0  0  0
   -2.1751    2.9223    0.8972 C   0  0  0  0  0  0  0  0  0  0  0  0
   -1.1047    2.1992   -1.1444 C   0  0  0  0  0  0  0  0  0  0  0  0
   -1.0637    2.9111    0.0544 C   0  0  0  0  0  0  0  0  0  0  0  0
    0.5434   -1.1577    0.9893 C   0  0  0  0  0  0  0  0  0  0  0  0
    1.1163   -0.9908   -0.2666 C   0  0  0  0  0  0  0  0  0  0  0  0
    1.3881   -1.2039    2.0866 C   0  0  0  0  0  0  0  0  0  0  0  0
    0.1381    3.6412    0.4253 C   0  0  0  0  0  0  0  0  0  0  0  0
    2.4971   -0.8769   -0.3851 C   0  0  0  0  0  0  0  0  0  0  0  0
    3.2545   -0.9357    0.7737 C   0  0  0  0  0  0  0  0  0  0  0  0
    5.3866   -0.6483   -0.5287 C   0  0  0  0  0  0  0  0  0  0  0  0
    6.8728   -0.5736   -0.2537 C   0  0  0  0  0  0  0  0  0  0  0  0
    8.9653   -0.3281   -1.2949 C   0  0  0  0  0  0  0  0  0  0  0  0
   -4.9851   -1.0236    0.7700 H   0  0  0  0  0  0  0  0  0  0  0  0
   -3.9489   -3.6101   -0.1477 H   0  0  0  0  0  0  0  0  0  0  0  0
   -5.6010   -3.1170    0.2613 H   0  0  0  0  0  0  0  0  0  0  0  0
   -5.9317   -3.4311   -2.0442 H   0  0  0  0  0  0  0  0  0  0  0  0
   -4.2277   -3.1027   -2.4124 H   0  0  0  0  0  0  0  0  0  0  0  0
   -6.3899   -1.0746   -1.6737 H   0  0  0  0  0  0  0  0  0  0  0  0
   -5.3087   -1.0556   -3.0934 H   0  0  0  0  0  0  0  0  0  0  0  0
   -5.4248    0.9220   -0.3223 H   0  0  0  0  0  0  0  0  0  0  0  0
   -4.9577    1.1970   -1.9851 H   0  0  0  0  0  0  0  0  0  0  0  0
   -4.1850    2.2370    1.2087 H   0  0  0  0  0  0  0  0  0  0  0  0
   -2.2754    0.9514   -2.4394 H   0  0  0  0  0  0  0  0  0  0  0  0
   -2.1629    3.4699    1.8359 H   0  0  0  0  0  0  0  0  0  0  0  0
   -0.2625    2.1630   -1.8296 H   0  0  0  0  0  0  0  0  0  0  0  0
    0.5106   -0.9458   -1.1682 H   0  0  0  0  0  0  0  0  0  0  0  0
    1.0210   -1.3313    3.1006 H   0  0  0  0  0  0  0  0  0  0  0  0
    2.8682   -0.7493   -1.3887 H   0  0  0  0  0  0  0  0  0  0  0  0
    5.1535   -0.8692    1.5219 H   0  0  0  0  0  0  0  0  0  0  0  0
    1.9316    4.0204   -0.2450 H   0  0  0  0  0  0  0  0  0  0  0  0
    7.1896   -1.5030    0.2327 H   0  0  0  0  0  0  0  0  0  0  0  0
    7.0673    0.2783    0.4075 H   0  0  0  0  0  0  0  0  0  0  0  0
    9.2211    0.5318   -0.6685 H   0  0  0  0  0  0  0  0  0  0  0  0
    9.3432   -1.2505   -0.8435 H   0  0  0  0  0  0  0  0  0  0  0  0
    9.4332   -0.1999   -2.2746 H   0  0  0  0  0  0  0  0  0  0  0  0
  1  8  1  0  0  0  0
  1 16  1  0  0  0  0
  2 27  1  0  0  0  0
  2 50  1  0  0  0  0
  3 27  2  0  0  0  0
  4 31  1  0  0  0  0
  4 32  1  0  0  0  0
  5 30  2  0  0  0  0
  6 11  1  0  0  0  0
  6 14  1  0  0  0  0
  6 15  1  0  0  0  0
  7 16  2  0  0  0  0
  7 20  1  0  0  0  0
  8 20  2  0  0  0  0
  9 26  1  0  0  0  0
  9 29  2  0  0  0  0
 10 29  1  0  0  0  0
 10 30  1  0  0  0  0
 10 49  1  0  0  0  0
 11 12  1  0  0  0  0
 11 16  1  0  0  0  0
 11 33  1  0  0  0  0
 12 13  1  0  0  0  0
 12 34  1  0  0  0  0
 12 35  1  0  0  0  0
 13 14  1  0  0  0  0
 13 36  1  0  0  0  0
 13 37  1  0  0  0  0
 14 38  1  0  0  0  0
 14 39  1  0  0  0  0
 15 17  1  0  0  0  0
 15 40  1  0  0  0  0
 15 41  1  0  0  0  0
 17 18  2  0  0  0  0
 17 19  1  0  0  0  0
 18 21  1  0  0  0  0
 18 42  1  0  0  0  0
 19 22  2  0  0  0  0
 19 43  1  0  0  0  0
 20 24  1  0  0  0  0
 21 23  2  0  0  0  0
 21 44  1  0  0  0  0
 22 23  1  0  0  0  0
 22 45  1  0  0  0  0
 23 27  1  0  0  0  0
 24 25  1  0  0  0  0
 24 26  2  0  0  0  0
 25 28  2  0  0  0  0
 25 46  1  0  0  0  0
 26 47  1  0  0  0  0
 28 29  1  0  0  0  0
 28 48  1  0  0  0  0
 30 31  1  0  0  0  0
 31 51  1  0  0  0  0
 31 52  1  0  0  0  0
 32 53  1  0  0  0  0
 32 54  1  0  0  0  0
 32 55  1  0  0  0  0
M  END
> <PUBCHEM_COMPOUND_CID>
45783625

> <PUBCHEM_CONFORMER_RMSD>
1

> <PUBCHEM_CONFORMER_DIVERSEORDER>
1
28
20
14
27
10
15
24
18
9
13
11
8
7
16
17
29
12
26
5
2
23
21
19
25
6
22
4
3

> <PUBCHEM_MMFF94_PARTIAL_CHARGES>
39
1 -0.02
10 -0.55
11 0.45
14 0.27
15 0.41
16 0.3
17 -0.14
18 -0.15
19 -0.15
2 -0.65
20 0.46
21 -0.15
22 -0.15
23 0.09
24 0.05
25 -0.15
26 0.16
27 0.63
28 -0.15
29 0.43
3 -0.57
30 0.57
31 0.34
32 0.28
4 -0.56
42 0.15
43 0.15
44 0.15
45 0.15
46 0.15
47 0.15
48 0.15
49 0.37
5 -0.57
50 0.5
6 -0.81
7 -0.57
8 -0.41
9 -0.62

> <PUBCHEM_EFFECTIVE_ROTOR_COUNT>
10

> <PUBCHEM_PHARMACOPHORE_FEATURES>
12
1 10 donor
1 2 acceptor
1 3 acceptor
1 4 acceptor
1 5 acceptor
1 6 cation
3 2 3 27 anion
3 7 8 20 cation
5 1 7 8 16 20 rings
5 6 11 12 13 14 rings
6 17 18 19 21 22 23 rings
6 9 24 25 26 28 29 rings

> <PUBCHEM_HEAVY_ATOM_COUNT>
32

> <PUBCHEM_ATOM_DEF_STEREO_COUNT>
1

> <PUBCHEM_ATOM_UDEF_STEREO_COUNT>
0

> <PUBCHEM_BOND_DEF_STEREO_COUNT>
0

> <PUBCHEM_BOND_UDEF_STEREO_COUNT>
0

> <PUBCHEM_ISOTOPIC_ATOM_COUNT>
0

> <PUBCHEM_COMPONENT_COUNT>
1

> <PUBCHEM_CACTVS_TAUTO_COUNT>
11

> <PUBCHEM_CONFORMER_ID>
02BA9A4900000001

> <PUBCHEM_MMFF94_ENERGY>
76.7997

> <PUBCHEM_FEATURE_SELFOVERLAP>
60.965

> <PUBCHEM_SHAPE_FINGERPRINT>
10454371 7 18409457955987017820
10670039 82 18333732399664217882
1100329 8 18338503167991166745
11445158 3 16056593300924153808
11477941 20 18412820300635116188
11578080 2 17701274524510772575
12788726 201 18263638459825419657
13761468 95 17828203186197818148
13782708 43 17703789198478707438
14931854 50 18041550377909993878
15183329 4 17822013056995381874
15876981 60 18410018723226680077
17492 54 17969210166993431153
19438510 23 13479675488186601895
20609170 92 17968938742567819836
20642791 35 18263058013008580037
20691752 17 17169803731628499765
20721686 56 18337673139548713840
20775438 99 17404273675155150503
21057603 43 17914053368450587299
21304303 64 16660922176429472309
21344244 246 17908414007175291535
23559900 14 18042677498173286389
255183 451 18052812839535171495
484985 159 12319160768984016745
5171179 24 18270394013774885569
531348 171 18199470957002529782
6608658 132 18334853883832951510
999808 66 15051739694293029334

> <PUBCHEM_SHAPE_MULTIPOLES>
604.29
15.64
4.1
1.97
37.37
5.03
0.36
-9.5
-11.01
-4.55
0.62
-0.23
-0.76
-0.81

> <PUBCHEM_SHAPE_SELFOVERLAP>
1304.804

> <PUBCHEM_SHAPE_VOLUME>
331.5

> <PUBCHEM_COORDINATE_TYPE>
2
5
10

$$$$
