7142734
  -OEChem-12032416223D

 60 64  0     1  0  0  0  0  0999 V2000
    8.7224    0.0670    1.3383 F   0  0  0  0  0  0  0  0  0  0  0  0
    0.1023    3.0126    1.7381 O   0  0  0  0  0  0  0  0  0  0  0  0
   -3.9887   -0.4183    2.1521 O   0  0  0  0  0  0  0  0  0  0  0  0
   -3.2174   -2.5152    0.9697 O   0  0  0  0  0  0  0  0  0  0  0  0
    2.5963    0.0673   -1.1630 O   0  0  0  0  0  0  0  0  0  0  0  0
   -4.2069    0.9005    0.2516 N   0  0  0  0  0  0  0  0  0  0  0  0
   -1.5887    2.7328    0.1498 N   0  0  0  0  0  0  0  0  0  0  0  0
    2.0245    1.9230    0.1044 N   0  0  0  0  0  0  0  0  0  0  0  0
    4.1486    1.0724    0.2824 N   0  0  0  0  0  0  0  0  0  0  0  0
   -4.0279    3.3681    0.5971 C   0  0  1  0  0  0  0  0  0  0  0  0
   -3.3984    2.3908   -1.5697 C   0  0  2  0  0  0  0  0  0  0  0  0
   -4.1049    3.5737   -0.9109 C   0  0  0  0  0  0  0  0  0  0  0  0
   -4.7172    2.0523    0.9979 C   0  0  0  0  0  0  0  0  0  0  0  0
   -2.5568    3.4028    1.0282 C   0  0  0  0  0  0  0  0  0  0  0  0
   -4.1295    1.0839   -1.2054 C   0  0  0  0  0  0  0  0  0  0  0  0
   -1.9478    2.3082   -1.1334 C   0  0  0  0  0  0  0  0  0  0  0  0
   -1.0189    1.8038   -1.9630 C   0  0  0  0  0  0  0  0  0  0  0  0
   -0.2647    2.6365    0.6240 C   0  0  0  0  0  0  0  0  0  0  0  0
   -3.9176   -0.2849    0.9277 C   0  0  0  0  0  0  0  0  0  0  0  0
    0.7348    2.0460   -0.3218 C   0  0  0  0  0  0  0  0  0  0  0  0
    0.3482    1.6702   -1.5455 C   0  0  0  0  0  0  0  0  0  0  0  0
   -3.4866   -1.4567    0.0826 C   0  0  0  0  0  0  0  0  0  0  0  0
    2.9045    0.9279   -0.3413 C   0  0  0  0  0  0  0  0  0  0  0  0
   -2.7514   -3.6920    0.4272 C   0  0  0  0  0  0  0  0  0  0  0  0
   -2.5643   -3.7989   -0.9509 C   0  0  0  0  0  0  0  0  0  0  0  0
   -2.4667   -4.7774    1.2558 C   0  0  0  0  0  0  0  0  0  0  0  0
    5.3047    0.2760    0.1098 C   0  0  0  0  0  0  0  0  0  0  0  0
   -2.0922   -4.9909   -1.5003 C   0  0  0  0  0  0  0  0  0  0  0  0
   -1.9947   -5.9694    0.7064 C   0  0  0  0  0  0  0  0  0  0  0  0
   -1.8074   -6.0762   -0.6717 C   0  0  0  0  0  0  0  0  0  0  0  0
    6.4668    0.5704    0.8227 C   0  0  0  0  0  0  0  0  0  0  0  0
    5.2823   -0.8043   -0.7723 C   0  0  0  0  0  0  0  0  0  0  0  0
    7.6067   -0.2157    0.6535 C   0  0  0  0  0  0  0  0  0  0  0  0
    6.4221   -1.5903   -0.9416 C   0  0  0  0  0  0  0  0  0  0  0  0
    7.5842   -1.2960   -0.2286 C   0  0  0  0  0  0  0  0  0  0  0  0
   -4.5539    4.1851    1.1064 H   0  0  0  0  0  0  0  0  0  0  0  0
   -3.4507    2.5248   -2.6581 H   0  0  0  0  0  0  0  0  0  0  0  0
   -5.1505    3.6271   -1.2376 H   0  0  0  0  0  0  0  0  0  0  0  0
   -3.6297    4.5203   -1.1971 H   0  0  0  0  0  0  0  0  0  0  0  0
   -4.6209    1.8888    2.0766 H   0  0  0  0  0  0  0  0  0  0  0  0
   -5.7906    2.1154    0.7799 H   0  0  0  0  0  0  0  0  0  0  0  0
   -2.4439    3.0020    2.0434 H   0  0  0  0  0  0  0  0  0  0  0  0
   -2.2314    4.4509    1.0802 H   0  0  0  0  0  0  0  0  0  0  0  0
   -3.6501    0.2350   -1.6979 H   0  0  0  0  0  0  0  0  0  0  0  0
   -5.1628    1.1178   -1.5727 H   0  0  0  0  0  0  0  0  0  0  0  0
   -1.2743    1.4610   -2.9602 H   0  0  0  0  0  0  0  0  0  0  0  0
    1.0214    1.2908   -2.3048 H   0  0  0  0  0  0  0  0  0  0  0  0
   -4.3079   -1.7108   -0.5971 H   0  0  0  0  0  0  0  0  0  0  0  0
   -2.5732   -1.1621   -0.4468 H   0  0  0  0  0  0  0  0  0  0  0  0
    2.2775    2.4183    0.9552 H   0  0  0  0  0  0  0  0  0  0  0  0
    4.2424    1.8431    0.9391 H   0  0  0  0  0  0  0  0  0  0  0  0
   -2.7699   -2.9951   -1.6498 H   0  0  0  0  0  0  0  0  0  0  0  0
   -2.6106   -4.6997    2.3300 H   0  0  0  0  0  0  0  0  0  0  0  0
   -1.9469   -5.0754   -2.5734 H   0  0  0  0  0  0  0  0  0  0  0  0
   -1.7730   -6.8144    1.3516 H   0  0  0  0  0  0  0  0  0  0  0  0
   -1.4401   -7.0044   -1.0995 H   0  0  0  0  0  0  0  0  0  0  0  0
    6.4980    1.4090    1.5134 H   0  0  0  0  0  0  0  0  0  0  0  0
    4.4222   -1.0950   -1.3586 H   0  0  0  0  0  0  0  0  0  0  0  0
    6.4061   -2.4319   -1.6282 H   0  0  0  0  0  0  0  0  0  0  0  0
    8.4718   -1.9077   -0.3601 H   0  0  0  0  0  0  0  0  0  0  0  0
  1 33  1  0  0  0  0
  2 18  2  0  0  0  0
  3 19  2  0  0  0  0
  4 22  1  0  0  0  0
  4 24  1  0  0  0  0
  5 23  2  0  0  0  0
  6 13  1  0  0  0  0
  6 15  1  0  0  0  0
  6 19  1  0  0  0  0
  7 14  1  0  0  0  0
  7 16  1  0  0  0  0
  7 18  1  0  0  0  0
  8 20  1  0  0  0  0
  8 23  1  0  0  0  0
  8 50  1  0  0  0  0
  9 23  1  0  0  0  0
  9 27  1  0  0  0  0
  9 51  1  0  0  0  0
 10 12  1  0  0  0  0
 10 13  1  0  0  0  0
 10 14  1  0  0  0  0
 10 36  1  0  0  0  0
 11 12  1  0  0  0  0
 11 15  1  0  0  0  0
 11 16  1  0  0  0  0
 11 37  1  0  0  0  0
 12 38  1  0  0  0  0
 12 39  1  0  0  0  0
 13 40  1  0  0  0  0
 13 41  1  0  0  0  0
 14 42  1  0  0  0  0
 14 43  1  0  0  0  0
 15 44  1  0  0  0  0
 15 45  1  0  0  0  0
 16 17  2  0  0  0  0
 17 21  1  0  0  0  0
 17 46  1  0  0  0  0
 18 20  1  0  0  0  0
 19 22  1  0  0  0  0
 20 21  2  0  0  0  0
 21 47  1  0  0  0  0
 22 48  1  0  0  0  0
 22 49  1  0  0  0  0
 24 25  2  0  0  0  0
 24 26  1  0  0  0  0
 25 28  1  0  0  0  0
 25 52  1  0  0  0  0
 26 29  2  0  0  0  0
 26 53  1  0  0  0  0
 27 31  2  0  0  0  0
 27 32  1  0  0  0  0
 28 30  2  0  0  0  0
 28 54  1  0  0  0  0
 29 30  1  0  0  0  0
 29 55  1  0  0  0  0
 30 56  1  0  0  0  0
 31 33  1  0  0  0  0
 31 57  1  0  0  0  0
 32 34  2  0  0  0  0
 32 58  1  0  0  0  0
 33 35  2  0  0  0  0
 34 35  1  0  0  0  0
 34 59  1  0  0  0  0
 35 60  1  0  0  0  0
M  END
> <PUBCHEM_COMPOUND_CID>
7142734

> <PUBCHEM_CONFORMER_RMSD>
1

> <PUBCHEM_CONFORMER_DIVERSEORDER>
1
151
14
126
40
172
188
49
128
143
5
145
184
54
104
176
124
85
113
142
155
165
183
20
120
4
90
134
191
174
131
159
44
97
199
81
135
102
92
139
178
53
86
192
10
122
77
17
106
71
150
140
169
133
112
161
76
190
114
200
147
180
28
67
127
189
12
23
37
91
185
107
158
166
73
187
62
196
52
173
11
99
89
69
109
98
96
3
186
34
87
130
110
58
84
197
29
68
148
137
146
75
41
193
19
121
129
66
163
18
82
152
33
61
167
9
95
182
42
170
160
144
194
59
45
198
168
2
70
164
65
6
100
16
30
141
105
83
13
117
24
177
8
138
56
101
103
108
43
64
74
78
125
154
7
27
88
46
31
162
60
79
93
72
175
55
153
136
157
149
25
115
57
119
63
80
111
181
50
116
48
118
15
195
132
35
26
123
21
171
32
51
94
36
47
38
156
179
39
22

> <PUBCHEM_MMFF94_PARTIAL_CHARGES>
46
1 -0.19
11 0.14
13 0.3
14 0.3
15 0.3
16 -0.03
17 -0.15
18 0.62
19 0.57
2 -0.57
20 0.12
21 -0.15
22 0.34
23 0.69
24 0.08
25 -0.15
26 -0.15
27 0.12
28 -0.15
29 -0.15
3 -0.57
30 -0.15
31 -0.15
32 -0.15
33 0.19
34 -0.15
35 -0.15
4 -0.36
46 0.15
47 0.15
5 -0.57
50 0.37
51 0.37
52 0.15
53 0.15
54 0.15
55 0.15
56 0.15
57 0.15
58 0.15
59 0.15
6 -0.66
60 0.15
7 -0.47
8 -0.54
9 -0.55

> <PUBCHEM_EFFECTIVE_ROTOR_COUNT>
9

> <PUBCHEM_PHARMACOPHORE_FEATURES>
11
1 2 acceptor
1 3 acceptor
1 4 acceptor
1 5 acceptor
1 8 donor
1 9 donor
6 24 25 26 28 29 30 rings
6 27 31 32 33 34 35 rings
6 6 10 11 12 13 15 rings
6 7 10 11 12 14 16 rings
6 7 16 17 18 20 21 rings

> <PUBCHEM_HEAVY_ATOM_COUNT>
35

> <PUBCHEM_ATOM_DEF_STEREO_COUNT>
2

> <PUBCHEM_ATOM_UDEF_STEREO_COUNT>
0

> <PUBCHEM_BOND_DEF_STEREO_COUNT>
0

> <PUBCHEM_BOND_UDEF_STEREO_COUNT>
0

> <PUBCHEM_ISOTOPIC_ATOM_COUNT>
0

> <PUBCHEM_COMPONENT_COUNT>
1

> <PUBCHEM_CACTVS_TAUTO_COUNT>
3

> <PUBCHEM_CONFORMER_ID>
006CFD4E00000001

> <PUBCHEM_MMFF94_ENERGY>
105.4657

> <PUBCHEM_FEATURE_SELFOVERLAP>
57.454

> <PUBCHEM_SHAPE_FINGERPRINT>
10254770 206 18339642373095198051
10290309 65 18120094979056931439
10462674 296 17623561356778545846
11285246 1 17899413374493536882
11524674 6 18337108960817778133
12202916 173 18131630089283716431
12712778 12 18410016545783560742
14444916 359 18267317434601324441
14659021 117 18340195392882926207
14674994 50 18410019844328941754
14844126 61 18336267928932656043
14856354 85 18413953893013405220
15064981 113 17172893203776997484
15183329 4 12179853779969818812
15320294 125 18113905948305242415
15803439 3 17753856516894762221
16993438 75 18343013406952376590
19301676 85 18122900091514232911
19611394 137 18273493499316408080
20771845 38 18339648828799536771
20775530 9 17618801579404360199
21133410 52 16326810674283302276
229767 44 18338529589965223131
23516275 137 17685518462892312546
3383291 50 18411139143472761547
397830 11 18339634638402287232
4017518 198 18336821979861624191
4073 2 18341889668146624260
4173938 77 7845499833488517575
437795 96 18343309158585359238
4616759 239 18130774656447337584
484985 159 18335410301288893375
49967989 163 18339372941606952390
5080951 261 18041264509677611228
5265222 85 18264482884829800509
57527295 17 17841124695121899397
6441014 3 18049159170564266466
68570916 9 18260266391730423132

> <PUBCHEM_SHAPE_MULTIPOLES>
669.61
16.65
8.18
1.61
50.51
16.53
0.09
-0.29
-3.59
-14.49
0.12
-1
-0.2
1.01

> <PUBCHEM_SHAPE_SELFOVERLAP>
1463.952

> <PUBCHEM_SHAPE_VOLUME>
358.3

> <PUBCHEM_COORDINATE_TYPE>
2
5
10

$$$$
