75366943
  -OEChem-12032416383D

 53 56  0     1  0  0  0  0  0999 V2000
   -4.3051    2.6123    1.0768 F   0  0  0  0  0  0  0  0  0  0  0  0
   -6.3771   -0.9511   -0.5415 F   0  0  0  0  0  0  0  0  0  0  0  0
    3.3503   -0.2834    0.6850 O   0  0  0  0  0  0  0  0  0  0  0  0
    6.1872    0.2299    1.2986 O   0  0  0  0  0  0  0  0  0  0  0  0
   -0.4835   -1.6382    1.4926 O   0  0  0  0  0  0  0  0  0  0  0  0
    0.9896    1.1471   -2.0196 O   0  0  0  0  0  0  0  0  0  0  0  0
    1.9173    2.0310   -0.0850 N   0  0  0  0  0  0  0  0  0  0  0  0
    0.8868   -1.8662    1.5280 N   0  0  0  0  0  0  0  0  0  0  0  0
    3.4323   -1.1653   -0.4372 C   0  0  1  0  0  0  0  0  0  0  0  0
    4.0269    0.9705    0.5260 C   0  0  1  0  0  0  0  0  0  0  0  0
    5.5033    0.7661    0.1628 C   0  0  2  0  0  0  0  0  0  0  0  0
    4.8895   -1.4907   -0.7615 C   0  0  0  0  0  0  0  0  0  0  0  0
    5.6872   -0.2109   -0.9953 C   0  0  0  0  0  0  0  0  0  0  0  0
    2.6597   -2.4302   -0.0835 C   0  0  0  0  0  0  0  0  0  0  0  0
    3.2892    1.8726   -0.4611 C   0  0  0  0  0  0  0  0  0  0  0  0
    1.2262   -2.1295    0.2628 C   0  0  0  0  0  0  0  0  0  0  0  0
    0.1226   -2.0826   -0.6066 C   0  0  0  0  0  0  0  0  0  0  0  0
    0.8586    1.6499   -0.9067 C   0  0  0  0  0  0  0  0  0  0  0  0
   -0.9270   -1.7700    0.2163 C   0  0  0  0  0  0  0  0  0  0  0  0
   -0.5075    1.9051   -0.3818 C   0  0  0  0  0  0  0  0  0  0  0  0
   -2.3320   -1.5600    0.0209 C   0  0  0  0  0  0  0  0  0  0  0  0
   -1.5689    2.1004   -1.2658 C   0  0  0  0  0  0  0  0  0  0  0  0
   -0.7293    1.9490    0.9946 C   0  0  0  0  0  0  0  0  0  0  0  0
   -2.8830   -1.6704   -1.2558 C   0  0  0  0  0  0  0  0  0  0  0  0
   -3.1476   -1.2442    1.1075 C   0  0  0  0  0  0  0  0  0  0  0  0
   -2.8517    2.3396   -0.7733 C   0  0  0  0  0  0  0  0  0  0  0  0
   -2.0121    2.1882    1.4871 C   0  0  0  0  0  0  0  0  0  0  0  0
   -4.2494   -1.4649   -1.4459 C   0  0  0  0  0  0  0  0  0  0  0  0
   -4.5140   -1.0386    0.9176 C   0  0  0  0  0  0  0  0  0  0  0  0
   -3.0733    2.3836    0.6032 C   0  0  0  0  0  0  0  0  0  0  0  0
   -5.0650   -1.1490   -0.3592 C   0  0  0  0  0  0  0  0  0  0  0  0
    2.9560   -0.6942   -1.3044 H   0  0  0  0  0  0  0  0  0  0  0  0
    3.9796    1.4411    1.5166 H   0  0  0  0  0  0  0  0  0  0  0  0
    5.9748    1.7275   -0.0694 H   0  0  0  0  0  0  0  0  0  0  0  0
    4.9519   -2.1355   -1.6453 H   0  0  0  0  0  0  0  0  0  0  0  0
    5.3430   -2.0389    0.0741 H   0  0  0  0  0  0  0  0  0  0  0  0
    6.7456   -0.4691   -1.1173 H   0  0  0  0  0  0  0  0  0  0  0  0
    5.3567    0.2556   -1.9306 H   0  0  0  0  0  0  0  0  0  0  0  0
    3.1253   -2.9294    0.7767 H   0  0  0  0  0  0  0  0  0  0  0  0
    2.6891   -3.1391   -0.9200 H   0  0  0  0  0  0  0  0  0  0  0  0
    3.3509    1.4917   -1.4845 H   0  0  0  0  0  0  0  0  0  0  0  0
    3.7399    2.8712   -0.4610 H   0  0  0  0  0  0  0  0  0  0  0  0
    7.1281    0.1523    1.0654 H   0  0  0  0  0  0  0  0  0  0  0  0
    1.7377    2.5197    0.7856 H   0  0  0  0  0  0  0  0  0  0  0  0
    0.1055   -2.2507   -1.6735 H   0  0  0  0  0  0  0  0  0  0  0  0
   -1.4162    2.0725   -2.3414 H   0  0  0  0  0  0  0  0  0  0  0  0
    0.0628    1.7696    1.7155 H   0  0  0  0  0  0  0  0  0  0  0  0
   -2.2730   -1.9136   -2.1219 H   0  0  0  0  0  0  0  0  0  0  0  0
   -2.7560   -1.1489    2.1170 H   0  0  0  0  0  0  0  0  0  0  0  0
   -3.6786    2.4905   -1.4609 H   0  0  0  0  0  0  0  0  0  0  0  0
   -2.1872    2.2138    2.5586 H   0  0  0  0  0  0  0  0  0  0  0  0
   -4.6789   -1.5497   -2.4397 H   0  0  0  0  0  0  0  0  0  0  0  0
   -5.1494   -0.7913    1.7629 H   0  0  0  0  0  0  0  0  0  0  0  0
  1 30  1  0  0  0  0
  2 31  1  0  0  0  0
  3  9  1  0  0  0  0
  3 10  1  0  0  0  0
  4 11  1  0  0  0  0
  4 43  1  0  0  0  0
  5  8  1  0  0  0  0
  5 19  1  0  0  0  0
  6 18  2  0  0  0  0
  7 15  1  0  0  0  0
  7 18  1  0  0  0  0
  7 44  1  0  0  0  0
  8 16  2  0  0  0  0
  9 12  1  0  0  0  0
  9 14  1  0  0  0  0
  9 32  1  0  0  0  0
 10 11  1  0  0  0  0
 10 15  1  0  0  0  0
 10 33  1  0  0  0  0
 11 13  1  0  0  0  0
 11 34  1  0  0  0  0
 12 13  1  0  0  0  0
 12 35  1  0  0  0  0
 12 36  1  0  0  0  0
 13 37  1  0  0  0  0
 13 38  1  0  0  0  0
 14 16  1  0  0  0  0
 14 39  1  0  0  0  0
 14 40  1  0  0  0  0
 15 41  1  0  0  0  0
 15 42  1  0  0  0  0
 16 17  1  0  0  0  0
 17 19  2  0  0  0  0
 17 45  1  0  0  0  0
 18 20  1  0  0  0  0
 19 21  1  0  0  0  0
 20 22  2  0  0  0  0
 20 23  1  0  0  0  0
 21 24  2  0  0  0  0
 21 25  1  0  0  0  0
 22 26  1  0  0  0  0
 22 46  1  0  0  0  0
 23 27  2  0  0  0  0
 23 47  1  0  0  0  0
 24 28  1  0  0  0  0
 24 48  1  0  0  0  0
 25 29  2  0  0  0  0
 25 49  1  0  0  0  0
 26 30  2  0  0  0  0
 26 50  1  0  0  0  0
 27 30  1  0  0  0  0
 27 51  1  0  0  0  0
 28 31  2  0  0  0  0
 28 52  1  0  0  0  0
 29 31  1  0  0  0  0
 29 53  1  0  0  0  0
M  END
> <PUBCHEM_COMPOUND_CID>
75366943

> <PUBCHEM_CONFORMER_RMSD>
1.2

> <PUBCHEM_CONFORMER_DIVERSEORDER>
1
24
8
69
43
58
91
46
66
16
81
75
60
72
36
92
23
50
70
13
32
10
41
78
49
18
2
80
67
62
44
74
76
25
83
19
37
82
90
54
48
7
35
45
89
73
63
22
51
28
14
39
61
42
85
77
68
84
64
87
88
38
47
17
21
59
26
52
33
71
30
4
6
65
31
27
86
3
20
53
57
79
29
9
40
15
12
34
11
56
5
55

> <PUBCHEM_MMFF94_PARTIAL_CHARGES>
40
1 -0.19
10 0.28
11 0.28
14 0.18
15 0.3
16 0.11
17 -0.15
18 0.54
19 0.09
2 -0.19
20 0.09
21 0.05
22 -0.15
23 -0.15
24 -0.15
25 -0.15
26 -0.15
27 -0.15
28 -0.15
29 -0.15
3 -0.56
30 0.19
31 0.19
4 -0.68
43 0.4
44 0.37
45 0.15
46 0.15
47 0.15
48 0.15
49 0.15
5 -0.02
50 0.15
51 0.15
52 0.15
53 0.15
6 -0.57
7 -0.73
8 -0.41
9 0.28

> <PUBCHEM_EFFECTIVE_ROTOR_COUNT>
8.2

> <PUBCHEM_PHARMACOPHORE_FEATURES>
10
1 3 acceptor
1 4 acceptor
1 4 donor
1 6 acceptor
1 7 donor
1 8 acceptor
5 5 8 16 17 19 rings
6 20 22 23 26 27 30 rings
6 21 24 25 28 29 31 rings
6 3 9 10 11 12 13 rings

> <PUBCHEM_HEAVY_ATOM_COUNT>
31

> <PUBCHEM_ATOM_DEF_STEREO_COUNT>
3

> <PUBCHEM_ATOM_UDEF_STEREO_COUNT>
0

> <PUBCHEM_BOND_DEF_STEREO_COUNT>
0

> <PUBCHEM_BOND_UDEF_STEREO_COUNT>
0

> <PUBCHEM_ISOTOPIC_ATOM_COUNT>
0

> <PUBCHEM_COMPONENT_COUNT>
1

> <PUBCHEM_CACTVS_TAUTO_COUNT>
2

> <PUBCHEM_CONFORMER_ID>
047E021F00000001

> <PUBCHEM_MMFF94_ENERGY>
59.5298

> <PUBCHEM_FEATURE_SELFOVERLAP>
50.75

> <PUBCHEM_SHAPE_FINGERPRINT>
10670039 82 18261688004134735262
1100329 8 17612581229471755698
11479125 193 15288486675508725070
11513181 2 18129945568144526975
11578080 2 15911949136127898723
11646440 116 18338806727003768627
12107698 1 18342738516355332486
12422481 6 18194714538677964089
12467345 10 18342459218536423085
12788726 201 18198079146948529797
13140716 1 18120089481678231570
13402501 40 18334855051905865390
14394314 77 18343872121729358249
14464042 87 18412828001637824559
144659 39 17917718942158252501
14840074 17 18343026631035004159
15484559 13 16822465499467645213
17357779 13 18335980947654988174
20691752 17 17749115439661346850
21236236 1 18410857642483212174
21623110 236 18338239267271330689
21673915 165 18410293596923006572
221357 26 18342177769672622054
23227448 37 18264772056397753557
23559900 14 18122621923145128424
23566358 2 18410849923983999935
3027735 51 18410014329585879467
3052486 1 18259988150446705238
338550 245 18334868215928250556
350125 39 18410859858222483465
392239 28 18202004334850717552
4340502 62 18198074586263006345
463206 1 18197494245543534551
469060 322 17313108527229985839
508706 21 18187938256741833210
57527585 103 17532678860556393531
59755656 215 18410009944324082567

> <PUBCHEM_SHAPE_MULTIPOLES>
589.98
11.97
3.46
1.43
6.05
0.96
-0.02
-1.83
-0.32
-1.84
0.1
-0.44
0.13
-0.54

> <PUBCHEM_SHAPE_SELFOVERLAP>
1279.411

> <PUBCHEM_SHAPE_VOLUME>
322.8

> <PUBCHEM_COORDINATE_TYPE>
2
5
10

$$$$
