25313316
  -OEChem-12032416193D

 71 74  0     1  0  0  0  0  0999 V2000
    8.9589    0.4911    0.6728 F   0  0  0  0  0  0  0  0  0  0  0  0
    7.9565    1.8049   -0.7404 F   0  0  0  0  0  0  0  0  0  0  0  0
    7.5377    1.9767    1.3807 F   0  0  0  0  0  0  0  0  0  0  0  0
   -3.3690   -1.6021    2.0472 O   0  0  0  0  0  0  0  0  0  0  0  0
   -4.4916    5.8788    0.5308 O   0  0  0  0  0  0  0  0  0  0  0  0
   -3.5719   -5.5233   -0.3969 O   0  0  0  0  0  0  0  0  0  0  0  0
   -6.1825    4.3624    0.3818 O   0  0  0  0  0  0  0  0  0  0  0  0
   -4.3348   -0.6271    0.1966 N   0  0  0  0  0  0  0  0  0  0  0  0
    0.3907    0.9663   -0.8430 N   0  0  0  0  0  0  0  0  0  0  0  0
    3.0339   -0.0444   -0.4549 N   0  0  0  0  0  0  0  0  0  0  0  0
   -3.2674   -2.7615    0.0607 N   0  0  0  0  0  0  0  0  0  0  0  0
   -3.3908    1.3638   -0.9582 C   0  0  2  0  0  0  0  0  0  0  0  0
   -4.3802    2.2490   -0.1583 C   0  0  1  0  0  0  0  0  0  0  0  0
   -3.9545   -0.0651   -1.1079 C   0  0  0  0  0  0  0  0  0  0  0  0
   -4.7727    1.5923    1.1761 C   0  0  0  0  0  0  0  0  0  0  0  0
   -1.9773    1.3201   -0.3621 C   0  0  0  0  0  0  0  0  0  0  0  0
   -5.2948    0.1773    0.9504 C   0  0  0  0  0  0  0  0  0  0  0  0
   -3.8660    3.6699    0.0715 C   0  0  0  0  0  0  0  0  0  0  0  0
   -0.9443    1.0195   -1.4381 C   0  0  0  0  0  0  0  0  0  0  0  0
    0.6018   -0.3193   -0.1662 C   0  0  0  0  0  0  0  0  0  0  0  0
    1.4205    1.1650   -1.8699 C   0  0  0  0  0  0  0  0  0  0  0  0
   -3.6400   -1.6605    0.8413 C   0  0  0  0  0  0  0  0  0  0  0  0
    1.9742   -0.3652    0.5095 C   0  0  0  0  0  0  0  0  0  0  0  0
    2.8209    1.1678   -1.2517 C   0  0  0  0  0  0  0  0  0  0  0  0
   -4.9914    4.6311    0.3381 C   0  0  0  0  0  0  0  0  0  0  0  0
   -4.0110   -3.2394   -1.1117 C   0  0  0  0  0  0  0  0  0  0  0  0
   -2.2821   -3.7180    0.5630 C   0  0  0  0  0  0  0  0  0  0  0  0
    4.3369   -0.4633   -0.1635 C   0  0  0  0  0  0  0  0  0  0  0  0
   -4.5967   -4.6189   -0.8193 C   0  0  0  0  0  0  0  0  0  0  0  0
   -2.9426   -5.0672    0.8052 C   0  0  0  0  0  0  0  0  0  0  0  0
    5.3601    0.4763   -0.0370 C   0  0  0  0  0  0  0  0  0  0  0  0
    4.6124   -1.8208    0.0010 C   0  0  0  0  0  0  0  0  0  0  0  0
    6.6589    0.0585    0.2538 C   0  0  0  0  0  0  0  0  0  0  0  0
    5.9111   -2.2386    0.2921 C   0  0  0  0  0  0  0  0  0  0  0  0
    6.9343   -1.2990    0.4183 C   0  0  0  0  0  0  0  0  0  0  0  0
    7.7528    1.0631    0.3883 C   0  0  0  0  0  0  0  0  0  0  0  0
   -3.3235    1.7974   -1.9659 H   0  0  0  0  0  0  0  0  0  0  0  0
   -5.2932    2.3068   -0.7695 H   0  0  0  0  0  0  0  0  0  0  0  0
   -4.8590   -0.0472   -1.7275 H   0  0  0  0  0  0  0  0  0  0  0  0
   -3.2250   -0.7119   -1.6013 H   0  0  0  0  0  0  0  0  0  0  0  0
   -5.5423    2.1767    1.6916 H   0  0  0  0  0  0  0  0  0  0  0  0
   -3.9017    1.5547    1.8424 H   0  0  0  0  0  0  0  0  0  0  0  0
   -1.9397    0.6017    0.4611 H   0  0  0  0  0  0  0  0  0  0  0  0
   -1.7111    2.2874    0.0772 H   0  0  0  0  0  0  0  0  0  0  0  0
   -5.5142   -0.3011    1.9110 H   0  0  0  0  0  0  0  0  0  0  0  0
   -6.2272    0.2004    0.3741 H   0  0  0  0  0  0  0  0  0  0  0  0
   -3.1781    3.7099    0.9232 H   0  0  0  0  0  0  0  0  0  0  0  0
   -3.3471    4.0261   -0.8262 H   0  0  0  0  0  0  0  0  0  0  0  0
   -0.9890    1.8357   -2.1715 H   0  0  0  0  0  0  0  0  0  0  0  0
   -1.1717    0.0968   -1.9849 H   0  0  0  0  0  0  0  0  0  0  0  0
    0.5214   -1.1510   -0.8798 H   0  0  0  0  0  0  0  0  0  0  0  0
   -0.1473   -0.4919    0.6131 H   0  0  0  0  0  0  0  0  0  0  0  0
    1.2722    2.1280   -2.3737 H   0  0  0  0  0  0  0  0  0  0  0  0
    1.3577    0.3813   -2.6371 H   0  0  0  0  0  0  0  0  0  0  0  0
    2.0113    0.3537    1.3383 H   0  0  0  0  0  0  0  0  0  0  0  0
    2.1073   -1.3634    0.9422 H   0  0  0  0  0  0  0  0  0  0  0  0
    3.5520    1.2298   -2.0674 H   0  0  0  0  0  0  0  0  0  0  0  0
    2.9406    2.0567   -0.6189 H   0  0  0  0  0  0  0  0  0  0  0  0
   -3.2963   -3.2960   -1.9401 H   0  0  0  0  0  0  0  0  0  0  0  0
   -4.8209   -2.5587   -1.3818 H   0  0  0  0  0  0  0  0  0  0  0  0
   -1.8022   -3.3501    1.4747 H   0  0  0  0  0  0  0  0  0  0  0  0
   -1.5131   -3.8088   -0.2132 H   0  0  0  0  0  0  0  0  0  0  0  0
   -5.0563   -5.0301   -1.7234 H   0  0  0  0  0  0  0  0  0  0  0  0
   -5.3704   -4.5662   -0.0440 H   0  0  0  0  0  0  0  0  0  0  0  0
   -3.6890   -5.0131    1.6066 H   0  0  0  0  0  0  0  0  0  0  0  0
   -2.1913   -5.8089    1.0931 H   0  0  0  0  0  0  0  0  0  0  0  0
   -5.2005    6.5332    0.7082 H   0  0  0  0  0  0  0  0  0  0  0  0
    5.1694    1.5407   -0.1464 H   0  0  0  0  0  0  0  0  0  0  0  0
    3.8320   -2.5696   -0.1075 H   0  0  0  0  0  0  0  0  0  0  0  0
    6.1262   -3.2958    0.4169 H   0  0  0  0  0  0  0  0  0  0  0  0
    7.9390   -1.6454    0.6443 H   0  0  0  0  0  0  0  0  0  0  0  0
  1 36  1  0  0  0  0
  2 36  1  0  0  0  0
  3 36  1  0  0  0  0
  4 22  2  0  0  0  0
  5 25  1  0  0  0  0
  5 67  1  0  0  0  0
  6 29  1  0  0  0  0
  6 30  1  0  0  0  0
  7 25  2  0  0  0  0
  8 14  1  0  0  0  0
  8 17  1  0  0  0  0
  8 22  1  0  0  0  0
  9 19  1  0  0  0  0
  9 20  1  0  0  0  0
  9 21  1  0  0  0  0
 10 23  1  0  0  0  0
 10 24  1  0  0  0  0
 10 28  1  0  0  0  0
 11 22  1  0  0  0  0
 11 26  1  0  0  0  0
 11 27  1  0  0  0  0
 12 13  1  0  0  0  0
 12 14  1  0  0  0  0
 12 16  1  0  0  0  0
 12 37  1  0  0  0  0
 13 15  1  0  0  0  0
 13 18  1  0  0  0  0
 13 38  1  0  0  0  0
 14 39  1  0  0  0  0
 14 40  1  0  0  0  0
 15 17  1  0  0  0  0
 15 41  1  0  0  0  0
 15 42  1  0  0  0  0
 16 19  1  0  0  0  0
 16 43  1  0  0  0  0
 16 44  1  0  0  0  0
 17 45  1  0  0  0  0
 17 46  1  0  0  0  0
 18 25  1  0  0  0  0
 18 47  1  0  0  0  0
 18 48  1  0  0  0  0
 19 49  1  0  0  0  0
 19 50  1  0  0  0  0
 20 23  1  0  0  0  0
 20 51  1  0  0  0  0
 20 52  1  0  0  0  0
 21 24  1  0  0  0  0
 21 53  1  0  0  0  0
 21 54  1  0  0  0  0
 23 55  1  0  0  0  0
 23 56  1  0  0  0  0
 24 57  1  0  0  0  0
 24 58  1  0  0  0  0
 26 29  1  0  0  0  0
 26 59  1  0  0  0  0
 26 60  1  0  0  0  0
 27 30  1  0  0  0  0
 27 61  1  0  0  0  0
 27 62  1  0  0  0  0
 28 31  1  0  0  0  0
 28 32  2  0  0  0  0
 29 63  1  0  0  0  0
 29 64  1  0  0  0  0
 30 65  1  0  0  0  0
 30 66  1  0  0  0  0
 31 33  2  0  0  0  0
 31 68  1  0  0  0  0
 32 34  1  0  0  0  0
 32 69  1  0  0  0  0
 33 35  1  0  0  0  0
 33 36  1  0  0  0  0
 34 35  2  0  0  0  0
 34 70  1  0  0  0  0
 35 71  1  0  0  0  0
M  END
> <PUBCHEM_COMPOUND_CID>
25313316

> <PUBCHEM_CONFORMER_RMSD>
1.4

> <PUBCHEM_CONFORMER_DIVERSEORDER>
2
102
22
147
42
62
170
171
43
144
119
143
77
156
122
16
73
71
163
110
141
31
115
93
158
135
48
116
157
123
130
84
146
159
175
64
151
120
117
39
167
142
28
121
134
33
45
174
168
30
150
114
111
79
136
67
127
90
164
138
133
70
108
61
65
47
129
82
36
165
145
162
126
87
137
118
52
166
78
46
169
112
106
107
95
128
66
75
14
21
161
105
10
139
91
60
155
3
74
92
109
86
98
152
160
97
26
96
59
34
132
140
153
173
38
101
172
13
63
89
17
149
51
83
85
113
69
100
72
20
103
68
8
94
124
40
58
80
154
81
37
24
55
50
76
125
12
53
41
19
99
88
23
104
6
32
131
57
15
11
56
49
25
29
4
7
5
35
27
148
54
1
9
18
44

> <PUBCHEM_MMFF94_PARTIAL_CHARGES>
37
1 -0.34
10 -0.84
11 -0.66
14 0.3
17 0.3
18 0.06
19 0.27
2 -0.34
20 0.27
21 0.27
22 0.69
23 0.37
24 0.37
25 0.66
26 0.3
27 0.3
28 0.1
29 0.28
3 -0.34
30 0.28
31 -0.15
32 -0.15
33 -0.14
34 -0.15
35 -0.15
36 1.16
4 -0.57
5 -0.65
6 -0.56
67 0.5
68 0.15
69 0.15
7 -0.57
70 0.15
71 0.15
8 -0.66
9 -0.81

> <PUBCHEM_EFFECTIVE_ROTOR_COUNT>
12.6

> <PUBCHEM_PHARMACOPHORE_FEATURES>
11
1 10 cation
1 4 acceptor
1 5 acceptor
1 6 acceptor
1 7 acceptor
1 9 cation
3 5 7 25 anion
6 28 31 32 33 34 35 rings
6 6 11 26 27 29 30 rings
6 8 12 13 14 15 17 rings
6 9 10 20 21 23 24 rings

> <PUBCHEM_HEAVY_ATOM_COUNT>
36

> <PUBCHEM_ATOM_DEF_STEREO_COUNT>
2

> <PUBCHEM_ATOM_UDEF_STEREO_COUNT>
0

> <PUBCHEM_BOND_DEF_STEREO_COUNT>
0

> <PUBCHEM_BOND_UDEF_STEREO_COUNT>
0

> <PUBCHEM_ISOTOPIC_ATOM_COUNT>
0

> <PUBCHEM_COMPONENT_COUNT>
1

> <PUBCHEM_CACTVS_TAUTO_COUNT>
1

> <PUBCHEM_CONFORMER_ID>
0182402400000002

> <PUBCHEM_MMFF94_ENERGY>
93.2382

> <PUBCHEM_FEATURE_SELFOVERLAP>
55.882

> <PUBCHEM_SHAPE_FINGERPRINT>
10864689 126 17907028274574661566
10940486 97 18334021587806665637
12988421 55 18056214470987279929
14659021 117 18338230574526750411
14844126 61 18335708269314541059
14856354 85 18342741852969804949
15021287 119 16805326608592716908
15250474 111 18261396710224878550
15400415 2 18265895752775584676
15461852 350 17489294262207947189
19315958 150 18341337673789819527
21130935 74 18262519196123045322
23522609 53 17822876242158086356
24771293 8 18186521034490658044
3383291 50 18409171005006463499
3504750 166 18260537893338878828
397830 11 18128531755837654320
4073 2 18410573964420601654
4144715 1 18342182154908136076
4403749 210 18335420115579879861
4516262 110 17977379431700258581
4616759 239 18272079505387007832
4938544 92 18342739611255345261
5028188 123 18410303523942570182
5080951 261 17967802851848685949
5104073 3 18260824853041684368
5265222 85 18340204077623446769
5364581 5 18269552913381640224
6058803 2 17970086610567470525
6431902 208 18116150146275285442
68570916 9 18261114110657611724
9981440 41 18193288403910284129

> <PUBCHEM_SHAPE_MULTIPOLES>
675.64
21.74
6.96
1.26
50.15
2.55
0.1
-9.14
-5.29
-19.04
-0.77
-0.56
0
-1.26

> <PUBCHEM_SHAPE_SELFOVERLAP>
1411.899

> <PUBCHEM_SHAPE_VOLUME>
381.7

> <PUBCHEM_COORDINATE_TYPE>
2
5
10

$$$$
