45783277
  -OEChem-12032416273D

 58 61  0     1  0  0  0  0  0999 V2000
   -1.6700    2.9389   -0.6246 O   0  0  0  0  0  0  0  0  0  0  0  0
    5.2024   -3.0469    0.7670 O   0  0  0  0  0  0  0  0  0  0  0  0
   -2.9613    0.0347    1.2206 N   0  0  1  0  0  0  0  0  0  0  0  0
   -2.9330   -2.9695   -1.7856 N   0  0  0  0  0  0  0  0  0  0  0  0
   -0.4284    1.3275    0.3129 N   0  0  0  0  0  0  0  0  0  0  0  0
   -0.3710    3.1105   -1.1193 N   0  0  0  0  0  0  0  0  0  0  0  0
    4.4350    1.4796   -1.1499 N   0  0  0  0  0  0  0  0  0  0  0  0
    4.3582   -0.3737    0.3457 N   0  0  0  0  0  0  0  0  0  0  0  0
   -3.4268   -0.8008    0.1161 C   0  0  0  0  0  0  0  0  0  0  0  0
   -2.9133    1.4715    0.8836 C   0  0  1  0  0  0  0  0  0  0  0  0
   -3.8185   -0.0847    2.4003 C   0  0  0  0  0  0  0  0  0  0  0  0
   -2.5418   -0.6177   -1.1204 C   0  0  0  0  0  0  0  0  0  0  0  0
   -3.4408   -2.2731    0.5347 C   0  0  0  0  0  0  0  0  0  0  0  0
   -3.1337    2.1955    2.2247 C   0  0  0  0  0  0  0  0  0  0  0  0
   -3.3565    1.0866    3.2433 C   0  0  0  0  0  0  0  0  0  0  0  0
   -2.9608   -1.5726   -2.2411 C   0  0  0  0  0  0  0  0  0  0  0  0
   -3.8307   -3.1739   -0.6402 C   0  0  0  0  0  0  0  0  0  0  0  0
   -1.6160    1.8687    0.2111 C   0  0  0  0  0  0  0  0  0  0  0  0
   -3.2869   -3.8721   -2.8807 C   0  0  0  0  0  0  0  0  0  0  0  0
    0.3020    2.1232   -0.5209 C   0  0  0  0  0  0  0  0  0  0  0  0
    1.7038    1.9056   -0.7333 C   0  0  0  0  0  0  0  0  0  0  0  0
    2.3545    0.8621   -0.0842 C   0  0  0  0  0  0  0  0  0  0  0  0
    2.4171    2.7363   -1.5903 C   0  0  0  0  0  0  0  0  0  0  0  0
    3.7086    0.6930   -0.3242 C   0  0  0  0  0  0  0  0  0  0  0  0
    3.7683    2.4834   -1.7630 C   0  0  0  0  0  0  0  0  0  0  0  0
    3.6743   -1.2539    1.2358 C   0  0  0  0  0  0  0  0  0  0  0  0
    4.6480   -2.2647    1.8174 C   0  0  0  0  0  0  0  0  0  0  0  0
    6.1173   -4.0135    1.2644 C   0  0  0  0  0  0  0  0  0  0  0  0
   -4.4531   -0.5150   -0.1578 H   0  0  0  0  0  0  0  0  0  0  0  0
   -3.7487    1.7422    0.2220 H   0  0  0  0  0  0  0  0  0  0  0  0
   -3.6679   -1.0199    2.9478 H   0  0  0  0  0  0  0  0  0  0  0  0
   -4.8819    0.0233    2.1522 H   0  0  0  0  0  0  0  0  0  0  0  0
   -1.4886   -0.8070   -0.8771 H   0  0  0  0  0  0  0  0  0  0  0  0
   -2.6288    0.3895   -1.5379 H   0  0  0  0  0  0  0  0  0  0  0  0
   -4.1613   -2.4553    1.3400 H   0  0  0  0  0  0  0  0  0  0  0  0
   -2.4530   -2.5733    0.9100 H   0  0  0  0  0  0  0  0  0  0  0  0
   -2.2974    2.8365    2.5242 H   0  0  0  0  0  0  0  0  0  0  0  0
   -4.0319    2.8219    2.1623 H   0  0  0  0  0  0  0  0  0  0  0  0
   -4.0870    1.3680    4.0075 H   0  0  0  0  0  0  0  0  0  0  0  0
   -2.4112    0.8479    3.7465 H   0  0  0  0  0  0  0  0  0  0  0  0
   -3.9609   -1.3001   -2.6039 H   0  0  0  0  0  0  0  0  0  0  0  0
   -2.2645   -1.4425   -3.0787 H   0  0  0  0  0  0  0  0  0  0  0  0
   -3.7710   -4.2166   -0.3048 H   0  0  0  0  0  0  0  0  0  0  0  0
   -4.8745   -2.9816   -0.9219 H   0  0  0  0  0  0  0  0  0  0  0  0
   -2.5874   -3.7566   -3.7161 H   0  0  0  0  0  0  0  0  0  0  0  0
   -4.3020   -3.6933   -3.2534 H   0  0  0  0  0  0  0  0  0  0  0  0
   -3.2174   -4.9164   -2.5565 H   0  0  0  0  0  0  0  0  0  0  0  0
    1.7943    0.2154    0.5813 H   0  0  0  0  0  0  0  0  0  0  0  0
    1.9634    3.5651   -2.1237 H   0  0  0  0  0  0  0  0  0  0  0  0
    4.3699    3.1020   -2.4209 H   0  0  0  0  0  0  0  0  0  0  0  0
    5.3477   -0.4887    0.1588 H   0  0  0  0  0  0  0  0  0  0  0  0
    3.2216   -0.7018    2.0676 H   0  0  0  0  0  0  0  0  0  0  0  0
    2.8905   -1.8001    0.6970 H   0  0  0  0  0  0  0  0  0  0  0  0
    5.4543   -1.7503    2.3546 H   0  0  0  0  0  0  0  0  0  0  0  0
    4.1191   -2.9189    2.5201 H   0  0  0  0  0  0  0  0  0  0  0  0
    6.9536   -3.5243    1.7731 H   0  0  0  0  0  0  0  0  0  0  0  0
    5.6127   -4.7045    1.9465 H   0  0  0  0  0  0  0  0  0  0  0  0
    6.5096   -4.5835    0.4179 H   0  0  0  0  0  0  0  0  0  0  0  0
  1  6  1  0  0  0  0
  1 18  1  0  0  0  0
  2 27  1  0  0  0  0
  2 28  1  0  0  0  0
  3  9  1  0  0  0  0
  3 10  1  0  0  0  0
  3 11  1  0  0  0  0
  4 16  1  0  0  0  0
  4 17  1  0  0  0  0
  4 19  1  0  0  0  0
  5 18  2  0  0  0  0
  5 20  1  0  0  0  0
  6 20  2  0  0  0  0
  7 24  2  0  0  0  0
  7 25  1  0  0  0  0
  8 24  1  0  0  0  0
  8 26  1  0  0  0  0
  8 51  1  0  0  0  0
  9 12  1  0  0  0  0
  9 13  1  0  0  0  0
  9 29  1  0  0  0  0
 10 14  1  0  0  0  0
 10 18  1  0  0  0  0
 10 30  1  0  0  0  0
 11 15  1  0  0  0  0
 11 31  1  0  0  0  0
 11 32  1  0  0  0  0
 12 16  1  0  0  0  0
 12 33  1  0  0  0  0
 12 34  1  0  0  0  0
 13 17  1  0  0  0  0
 13 35  1  0  0  0  0
 13 36  1  0  0  0  0
 14 15  1  0  0  0  0
 14 37  1  0  0  0  0
 14 38  1  0  0  0  0
 15 39  1  0  0  0  0
 15 40  1  0  0  0  0
 16 41  1  0  0  0  0
 16 42  1  0  0  0  0
 17 43  1  0  0  0  0
 17 44  1  0  0  0  0
 19 45  1  0  0  0  0
 19 46  1  0  0  0  0
 19 47  1  0  0  0  0
 20 21  1  0  0  0  0
 21 22  2  0  0  0  0
 21 23  1  0  0  0  0
 22 24  1  0  0  0  0
 22 48  1  0  0  0  0
 23 25  2  0  0  0  0
 23 49  1  0  0  0  0
 25 50  1  0  0  0  0
 26 27  1  0  0  0  0
 26 52  1  0  0  0  0
 26 53  1  0  0  0  0
 27 54  1  0  0  0  0
 27 55  1  0  0  0  0
 28 56  1  0  0  0  0
 28 57  1  0  0  0  0
 28 58  1  0  0  0  0
M  END
> <PUBCHEM_COMPOUND_CID>
45783277

> <PUBCHEM_CONFORMER_RMSD>
1

> <PUBCHEM_CONFORMER_DIVERSEORDER>
1
42
109
55
126
93
96
116
20
15
121
82
114
3
64
58
21
110
35
62
61
49
54
81
92
104
33
28
25
125
87
122
53
112
70
69
47
68
66
46
73
100
107
95
80
103
40
32
52
44
90
4
39
75
11
74
99
14
78
27
31
123
67
127
72
51
30
111
23
57
56
86
94
118
85
79
83
38
98
41
124
113
17
50
65
77
10
128
91
12
71
37
89
84
22
34
97
117
16
19
115
76
106
24
26
108
5
88
120
119
48
13
60
6
63
29
45
7
101
9
102
36
8
18
43
59
105
2

> <PUBCHEM_MMFF94_PARTIAL_CHARGES>
28
1 -0.02
10 0.45
11 0.27
16 0.27
17 0.27
18 0.3
19 0.27
2 -0.56
20 0.46
21 0.05
22 -0.15
23 -0.15
24 0.41
25 0.16
26 0.37
27 0.28
28 0.28
3 -0.81
4 -0.81
48 0.15
49 0.15
5 -0.57
50 0.15
51 0.4
6 -0.41
7 -0.62
8 -0.87
9 0.27

> <PUBCHEM_EFFECTIVE_ROTOR_COUNT>
9.2

> <PUBCHEM_PHARMACOPHORE_FEATURES>
10
1 2 acceptor
1 3 cation
1 4 cation
1 8 donor
3 5 6 20 cation
3 7 8 24 cation
5 1 5 6 18 20 rings
5 3 10 11 14 15 rings
6 4 9 12 13 16 17 rings
6 7 21 22 23 24 25 rings

> <PUBCHEM_HEAVY_ATOM_COUNT>
28

> <PUBCHEM_ATOM_DEF_STEREO_COUNT>
1

> <PUBCHEM_ATOM_UDEF_STEREO_COUNT>
0

> <PUBCHEM_BOND_DEF_STEREO_COUNT>
0

> <PUBCHEM_BOND_UDEF_STEREO_COUNT>
0

> <PUBCHEM_ISOTOPIC_ATOM_COUNT>
0

> <PUBCHEM_COMPONENT_COUNT>
1

> <PUBCHEM_CACTVS_TAUTO_COUNT>
2

> <PUBCHEM_CONFORMER_ID>
02BA98ED00000001

> <PUBCHEM_MMFF94_ENERGY>
55.2004

> <PUBCHEM_FEATURE_SELFOVERLAP>
50.748

> <PUBCHEM_SHAPE_FINGERPRINT>
10448021 39 18122890182576119447
10622 236 18340195405747359551
10928967 22 18338526342938110734
11049842 53 13193388116516985161
11069576 57 18117546543432875302
11135926 11 17750246966492591620
11552529 35 17703242817902199005
11578080 2 18056188318847583249
12174731 88 18191578649832832410
12218070 45 18270378557074180850
12422481 6 18056764226426549334
12788726 201 17771087152491907939
12977781 61 17765101320500863440
13911987 19 17027705201679904228
14428016 347 18338783589957189206
14705955 166 15121859948763870411
14848178 96 11383820529686546360
15537594 2 18263667176003238156
16728300 4 18337687381818543139
20554085 129 17129880322569078089
20681651 13 18270966846479755321
20775530 9 17769653432252970887
21033648 29 15195291876169374176
235170 7 15575282115549925756
312425 83 12108067704952097754
345986 75 17914613002272342727
4017518 198 17622429559400882438
44880168 125 17838608964871844018
46194498 28 16156800737436903949
46939830 39 12699077044331981711
6636798 310 17559363977766810834

> <PUBCHEM_SHAPE_MULTIPOLES>
534.6
11.75
5.25
2.77
14.14
3.94
-0.59
11.05
-3.7
1.97
1.77
-2.59
0.76
-7.66

> <PUBCHEM_SHAPE_SELFOVERLAP>
1125.495

> <PUBCHEM_SHAPE_VOLUME>
302.3

> <PUBCHEM_COORDINATE_TYPE>
2
5
10

$$$$
