56775455
  -OEChem-12032416323D

 50 52  0     0  0  0  0  0  0999 V2000
    7.0043   -1.8226   -1.1185 F   0  0  0  0  0  0  0  0  0  0  0  0
    5.5297   -0.2850   -1.6052 F   0  0  0  0  0  0  0  0  0  0  0  0
    7.0247    0.0637   -0.0152 F   0  0  0  0  0  0  0  0  0  0  0  0
   -1.1595    4.0500   -1.1811 O   0  0  0  0  0  0  0  0  0  0  0  0
   -5.0921    0.0474   -0.4482 O   0  0  0  0  0  0  0  0  0  0  0  0
    5.3423   -1.4398    0.3601 O   0  0  0  0  0  0  0  0  0  0  0  0
   -0.4004    1.1998   -0.2157 N   0  0  0  0  0  0  0  0  0  0  0  0
   -4.4655    1.2456   -0.1283 N   0  0  0  0  0  0  0  0  0  0  0  0
   -1.3713    2.2685   -0.0248 C   0  0  0  0  0  0  0  0  0  0  0  0
   -0.6267    3.5944    0.0833 C   0  0  0  0  0  0  0  0  0  0  0  0
   -1.8153    2.7786   -1.3910 C   0  0  0  0  0  0  0  0  0  0  0  0
   -2.4372    1.9274    1.0251 C   0  0  0  0  0  0  0  0  0  0  0  0
   -3.3581    0.8916    0.5300 C   0  0  0  0  0  0  0  0  0  0  0  0
    0.2258    0.8671    1.0616 C   0  0  0  0  0  0  0  0  0  0  0  0
   -4.8943   -2.3999   -0.2410 C   0  0  0  0  0  0  0  0  0  0  0  0
   -3.2342   -0.5029    0.6547 C   0  0  0  0  0  0  0  0  0  0  0  0
   -4.3494   -0.9866    0.0234 C   0  0  0  0  0  0  0  0  0  0  0  0
    1.5875    0.2525    0.8752 C   0  0  0  0  0  0  0  0  0  0  0  0
   -6.2296   -2.4198   -1.0193 C   0  0  0  0  0  0  0  0  0  0  0  0
   -5.1387   -3.1219    1.1018 C   0  0  0  0  0  0  0  0  0  0  0  0
   -3.8710   -3.2047   -1.0713 C   0  0  0  0  0  0  0  0  0  0  0  0
    1.7036   -1.0762    0.4668 C   0  0  0  0  0  0  0  0  0  0  0  0
    2.7332    1.0125    1.1106 C   0  0  0  0  0  0  0  0  0  0  0  0
    2.9654   -1.6450    0.2939 C   0  0  0  0  0  0  0  0  0  0  0  0
    3.9951    0.4437    0.9378 C   0  0  0  0  0  0  0  0  0  0  0  0
    4.1111   -0.8851    0.5295 C   0  0  0  0  0  0  0  0  0  0  0  0
    6.2205   -0.8532   -0.5940 C   0  0  0  0  0  0  0  0  0  0  0  0
   -0.9480    4.2496    0.8996 H   0  0  0  0  0  0  0  0  0  0  0  0
    0.4684    3.5785    0.0574 H   0  0  0  0  0  0  0  0  0  0  0  0
   -1.4153    2.2712   -2.2759 H   0  0  0  0  0  0  0  0  0  0  0  0
   -2.8885    2.9323   -1.5345 H   0  0  0  0  0  0  0  0  0  0  0  0
   -3.0188    2.8354    1.2403 H   0  0  0  0  0  0  0  0  0  0  0  0
   -2.0116    1.6441    1.9936 H   0  0  0  0  0  0  0  0  0  0  0  0
   -0.7683    0.3546   -0.6507 H   0  0  0  0  0  0  0  0  0  0  0  0
   -0.3895    0.1547    1.6247 H   0  0  0  0  0  0  0  0  0  0  0  0
    0.3404    1.7438    1.7128 H   0  0  0  0  0  0  0  0  0  0  0  0
   -2.4547   -1.0770    1.1327 H   0  0  0  0  0  0  0  0  0  0  0  0
   -6.1228   -1.9388   -1.9987 H   0  0  0  0  0  0  0  0  0  0  0  0
   -7.0129   -1.8811   -0.4733 H   0  0  0  0  0  0  0  0  0  0  0  0
   -6.5829   -3.4437   -1.1867 H   0  0  0  0  0  0  0  0  0  0  0  0
   -5.8651   -2.5770    1.7161 H   0  0  0  0  0  0  0  0  0  0  0  0
   -4.2136   -3.2041    1.6843 H   0  0  0  0  0  0  0  0  0  0  0  0
   -5.5222   -4.1367    0.9462 H   0  0  0  0  0  0  0  0  0  0  0  0
   -2.9112   -3.2886   -0.5482 H   0  0  0  0  0  0  0  0  0  0  0  0
   -3.6769   -2.7198   -2.0353 H   0  0  0  0  0  0  0  0  0  0  0  0
   -4.2286   -4.2212   -1.2707 H   0  0  0  0  0  0  0  0  0  0  0  0
    0.8181   -1.6783    0.2807 H   0  0  0  0  0  0  0  0  0  0  0  0
    2.6583    2.0493    1.4277 H   0  0  0  0  0  0  0  0  0  0  0  0
    3.0497   -2.6804   -0.0247 H   0  0  0  0  0  0  0  0  0  0  0  0
    4.8792    1.0451    1.1306 H   0  0  0  0  0  0  0  0  0  0  0  0
  1 27  1  0  0  0  0
  2 27  1  0  0  0  0
  3 27  1  0  0  0  0
  4 10  1  0  0  0  0
  4 11  1  0  0  0  0
  5  8  1  0  0  0  0
  5 17  1  0  0  0  0
  6 26  1  0  0  0  0
  6 27  1  0  0  0  0
  7  9  1  0  0  0  0
  7 14  1  0  0  0  0
  7 34  1  0  0  0  0
  8 13  2  0  0  0  0
  9 10  1  0  0  0  0
  9 11  1  0  0  0  0
  9 12  1  0  0  0  0
 10 28  1  0  0  0  0
 10 29  1  0  0  0  0
 11 30  1  0  0  0  0
 11 31  1  0  0  0  0
 12 13  1  0  0  0  0
 12 32  1  0  0  0  0
 12 33  1  0  0  0  0
 13 16  1  0  0  0  0
 14 18  1  0  0  0  0
 14 35  1  0  0  0  0
 14 36  1  0  0  0  0
 15 17  1  0  0  0  0
 15 19  1  0  0  0  0
 15 20  1  0  0  0  0
 15 21  1  0  0  0  0
 16 17  2  0  0  0  0
 16 37  1  0  0  0  0
 18 22  2  0  0  0  0
 18 23  1  0  0  0  0
 19 38  1  0  0  0  0
 19 39  1  0  0  0  0
 19 40  1  0  0  0  0
 20 41  1  0  0  0  0
 20 42  1  0  0  0  0
 20 43  1  0  0  0  0
 21 44  1  0  0  0  0
 21 45  1  0  0  0  0
 21 46  1  0  0  0  0
 22 24  1  0  0  0  0
 22 47  1  0  0  0  0
 23 25  2  0  0  0  0
 23 48  1  0  0  0  0
 24 26  2  0  0  0  0
 24 49  1  0  0  0  0
 25 26  1  0  0  0  0
 25 50  1  0  0  0  0
M  END
> <PUBCHEM_COMPOUND_CID>
56775455

> <PUBCHEM_CONFORMER_RMSD>
1

> <PUBCHEM_CONFORMER_DIVERSEORDER>
1
55
36
60
86
52
105
91
93
25
113
102
53
96
43
112
117
81
70
114
108
3
89
65
8
7
99
97
78
82
56
34
33
100
88
76
104
72
13
115
30
107
37
35
45
49
19
121
46
26
69
20
63
120
4
92
27
14
67
9
94
16
57
21
61
31
32
51
68
109
103
17
73
106
59
95
62
6
119
85
71
22
77
28
48
87
18
40
54
118
66
41
47
75
74
101
23
12
44
2
110
29
38
39
15
58
79
80
42
84
90
111
11
83
10
24
5
98
116
64
50

> <PUBCHEM_MMFF94_PARTIAL_CHARGES>
30
1 -0.34
10 0.26
11 0.26
12 0.18
13 0.11
14 0.41
15 0.18
16 -0.15
17 -0.04
18 -0.14
2 -0.34
22 -0.15
23 -0.15
24 -0.15
25 -0.15
26 0.08
27 1.3
3 -0.34
34 0.36
37 0.15
4 -0.52
47 0.15
48 0.15
49 0.15
5 -0.02
50 0.15
6 -0.36
7 -0.84
8 -0.41
9 0.21

> <PUBCHEM_EFFECTIVE_ROTOR_COUNT>
8.8

> <PUBCHEM_PHARMACOPHORE_FEATURES>
9
1 4 acceptor
1 6 acceptor
1 7 cation
1 7 donor
1 8 acceptor
4 15 19 20 21 hydrophobe
4 4 9 10 11 rings
5 5 8 13 16 17 rings
6 18 22 23 24 25 26 rings

> <PUBCHEM_HEAVY_ATOM_COUNT>
27

> <PUBCHEM_ATOM_DEF_STEREO_COUNT>
0

> <PUBCHEM_ATOM_UDEF_STEREO_COUNT>
0

> <PUBCHEM_BOND_DEF_STEREO_COUNT>
0

> <PUBCHEM_BOND_UDEF_STEREO_COUNT>
0

> <PUBCHEM_ISOTOPIC_ATOM_COUNT>
0

> <PUBCHEM_COMPONENT_COUNT>
1

> <PUBCHEM_CACTVS_TAUTO_COUNT>
1

> <PUBCHEM_CONFORMER_ID>
0362531F00000001

> <PUBCHEM_MMFF94_ENERGY>
70.1515

> <PUBCHEM_FEATURE_SELFOVERLAP>
45.671

> <PUBCHEM_SHAPE_FINGERPRINT>
10042902 136 18341050812934513423
10291535 26 8213847198323625677
10622 236 16982631844229587535
10692045 39 9943265713612157436
11056379 131 18265897964652275460
11069576 57 17190075646258006079
11135609 201 8069756217353227279
11315621 246 18339084796039518206
11393246 34 18131068229767074415
11477941 20 18040438767987469740
11524674 6 17060050415907519479
117089 54 17903923597852514627
12788726 201 18042398037320154769
13009979 54 18270973444092587953
13631057 29 18411696569491507530
13673619 4 18131070454564947282
13690498 29 18408604742693779573
13757389 114 18265333907368022949
13782708 43 18131069325284349986
14117953 113 18342172285469039935
14251764 30 18273215330546363846
14347332 77 18335414626384257314
14556957 393 17458356216414031532
14931854 50 18188195581688001347
14950920 106 16056596625128711891
15021287 119 14620789388872504122
15250474 111 18044083567154913778
15352361 1 18338791316966896627
15461852 350 18409736132845602246
15537594 2 18261679190434712379
16120349 21 18341901810151286043
17492 89 18049158067326785731
17686467 74 18335700598656217104
19141452 34 18340205198868711561
19438510 23 11386630890007743047
20775530 9 18338789117859323139
21267235 1 18411420648556460939
21307412 95 18339912767556490439
21344244 246 17825959392288165996
21424621 283 8862952679415555975
21623969 137 16773800264861671014
21756936 100 9151168745121677449
21796203 349 17976012987231596019
23559900 14 18342727538166060857
255183 451 18191585466309284919
2838139 119 11746938715113936075
335352 9 18410005530316079077
3459 39 9078840619282769623
4280585 95 18261384568230746777
46194498 28 17535164960079650501
497634 4 18201724998720338160
6700243 42 17984450480681449068
6898599 12 18043528309129502717
7237137 82 18187926132112888884
8863177 126 18059851792410543242

> <PUBCHEM_SHAPE_MULTIPOLES>
506.26
16.33
4.16
1.23
16.8
2.17
-0.17
-16.14
-3.86
-5.27
-1.2
0.14
0.06
0.55

> <PUBCHEM_SHAPE_SELFOVERLAP>
1071.681

> <PUBCHEM_SHAPE_VOLUME>
288.2

> <PUBCHEM_COORDINATE_TYPE>
2
5
10

$$$$
