45783379
  -OEChem-12032416203D

 43 45  0     1  0  0  0  0  0999 V2000
    0.7389    2.7481    0.5715 O   0  0  0  0  0  0  0  0  0  0  0  0
    0.6759   -3.1800   -0.4082 O   0  0  0  0  0  0  0  0  0  0  0  0
    3.2119    0.2519    0.6162 N   0  0  1  0  0  0  0  0  0  0  0  0
    0.2293    0.7276   -0.2499 N   0  0  0  0  0  0  0  0  0  0  0  0
   -0.6577    2.6508    0.6154 N   0  0  0  0  0  0  0  0  0  0  0  0
   -1.3856   -1.3586    0.2755 N   0  0  0  0  0  0  0  0  0  0  0  0
   -3.6961   -1.0091   -0.0969 N   0  0  0  0  0  0  0  0  0  0  0  0
    2.6810    1.4268   -0.1036 C   0  0  1  0  0  0  0  0  0  0  0  0
    3.1117    1.2164   -1.5669 C   0  0  0  0  0  0  0  0  0  0  0  0
    3.9293   -0.0674   -1.5603 C   0  0  0  0  0  0  0  0  0  0  0  0
    4.3958   -0.1858   -0.1234 C   0  0  0  0  0  0  0  0  0  0  0  0
    1.1817    1.5745    0.0491 C   0  0  0  0  0  0  0  0  0  0  0  0
    3.5094    0.5225    2.0168 C   0  0  0  0  0  0  0  0  0  0  0  0
   -0.8811    1.4320    0.1150 C   0  0  0  0  0  0  0  0  0  0  0  0
   -2.2003    0.8893   -0.0350 C   0  0  0  0  0  0  0  0  0  0  0  0
   -2.4644   -0.4688    0.0404 C   0  0  0  0  0  0  0  0  0  0  0  0
   -3.2690    1.7483   -0.2660 C   0  0  0  0  0  0  0  0  0  0  0  0
   -1.5598   -2.7708    0.3688 C   0  0  0  0  0  0  0  0  0  0  0  0
   -4.5511    1.2301   -0.4126 C   0  0  0  0  0  0  0  0  0  0  0  0
   -0.2275   -3.4409    0.6587 C   0  0  0  0  0  0  0  0  0  0  0  0
   -4.7100   -0.1432   -0.3204 C   0  0  0  0  0  0  0  0  0  0  0  0
    1.9377   -3.7936   -0.1842 C   0  0  0  0  0  0  0  0  0  0  0  0
    3.1649    2.3465    0.2548 H   0  0  0  0  0  0  0  0  0  0  0  0
    2.2761    1.1420   -2.2712 H   0  0  0  0  0  0  0  0  0  0  0  0
    3.7459    2.0521   -1.8873 H   0  0  0  0  0  0  0  0  0  0  0  0
    4.7608   -0.0324   -2.2703 H   0  0  0  0  0  0  0  0  0  0  0  0
    3.2892   -0.9180   -1.8260 H   0  0  0  0  0  0  0  0  0  0  0  0
    5.2551    0.4737    0.0521 H   0  0  0  0  0  0  0  0  0  0  0  0
    4.6791   -1.2134    0.1246 H   0  0  0  0  0  0  0  0  0  0  0  0
    4.2576    1.3139    2.1385 H   0  0  0  0  0  0  0  0  0  0  0  0
    3.8849   -0.3823    2.5073 H   0  0  0  0  0  0  0  0  0  0  0  0
    2.6029    0.8208    2.5542 H   0  0  0  0  0  0  0  0  0  0  0  0
   -3.1343    2.8243   -0.3447 H   0  0  0  0  0  0  0  0  0  0  0  0
   -0.5723   -0.9612    0.7342 H   0  0  0  0  0  0  0  0  0  0  0  0
   -2.2680   -3.0213    1.1668 H   0  0  0  0  0  0  0  0  0  0  0  0
   -1.9563   -3.1550   -0.5785 H   0  0  0  0  0  0  0  0  0  0  0  0
   -5.3990    1.8803   -0.5951 H   0  0  0  0  0  0  0  0  0  0  0  0
    0.1948   -3.0608    1.5970 H   0  0  0  0  0  0  0  0  0  0  0  0
   -0.3770   -4.5226    0.7541 H   0  0  0  0  0  0  0  0  0  0  0  0
   -5.6894   -0.5974   -0.4280 H   0  0  0  0  0  0  0  0  0  0  0  0
    2.4004   -3.3972    0.7249 H   0  0  0  0  0  0  0  0  0  0  0  0
    1.8295   -4.8800   -0.1107 H   0  0  0  0  0  0  0  0  0  0  0  0
    2.5873   -3.5639   -1.0331 H   0  0  0  0  0  0  0  0  0  0  0  0
  1  5  1  0  0  0  0
  1 12  1  0  0  0  0
  2 20  1  0  0  0  0
  2 22  1  0  0  0  0
  3  8  1  0  0  0  0
  3 11  1  0  0  0  0
  3 13  1  0  0  0  0
  4 12  2  0  0  0  0
  4 14  1  0  0  0  0
  5 14  2  0  0  0  0
  6 16  1  0  0  0  0
  6 18  1  0  0  0  0
  6 34  1  0  0  0  0
  7 16  1  0  0  0  0
  7 21  2  0  0  0  0
  8  9  1  0  0  0  0
  8 12  1  0  0  0  0
  8 23  1  0  0  0  0
  9 10  1  0  0  0  0
  9 24  1  0  0  0  0
  9 25  1  0  0  0  0
 10 11  1  0  0  0  0
 10 26  1  0  0  0  0
 10 27  1  0  0  0  0
 11 28  1  0  0  0  0
 11 29  1  0  0  0  0
 13 30  1  0  0  0  0
 13 31  1  0  0  0  0
 13 32  1  0  0  0  0
 14 15  1  0  0  0  0
 15 16  2  0  0  0  0
 15 17  1  0  0  0  0
 17 19  2  0  0  0  0
 17 33  1  0  0  0  0
 18 20  1  0  0  0  0
 18 35  1  0  0  0  0
 18 36  1  0  0  0  0
 19 21  1  0  0  0  0
 19 37  1  0  0  0  0
 20 38  1  0  0  0  0
 20 39  1  0  0  0  0
 21 40  1  0  0  0  0
 22 41  1  0  0  0  0
 22 42  1  0  0  0  0
 22 43  1  0  0  0  0
M  END
> <PUBCHEM_COMPOUND_CID>
45783379

> <PUBCHEM_CONFORMER_RMSD>
0.8

> <PUBCHEM_CONFORMER_DIVERSEORDER>
1
118
89
88
59
78
66
7
127
36
111
109
63
107
64
30
106
99
3
67
75
76
27
60
43
70
52
103
35
69
90
48
19
47
100
62
77
108
37
6
124
125
25
4
98
51
32
53
92
96
105
17
101
15
112
38
39
20
80
81
120
21
72
95
91
50
29
5
12
87
13
94
44
83
121
31
10
54
68
97
49
8
82
117
110
46
18
73
14
61
26
122
16
79
42
55
93
23
115
9
114
33
85
86
40
57
34
58
84
123
113
116
2
41
22
28
119
104
11
102
24
74
56
65
126
71
45

> <PUBCHEM_MMFF94_PARTIAL_CHARGES>
24
1 -0.02
11 0.27
12 0.3
13 0.27
14 0.46
15 0.05
16 0.41
17 -0.15
18 0.37
19 -0.15
2 -0.56
20 0.28
21 0.16
22 0.28
3 -0.81
33 0.15
34 0.4
37 0.15
4 -0.57
40 0.15
5 -0.41
6 -0.87
7 -0.62
8 0.45

> <PUBCHEM_EFFECTIVE_ROTOR_COUNT>
7

> <PUBCHEM_PHARMACOPHORE_FEATURES>
9
1 2 acceptor
1 3 cation
1 6 cation
1 6 donor
1 7 acceptor
3 4 5 14 cation
5 1 4 5 12 14 rings
5 3 8 9 10 11 rings
6 7 15 16 17 19 21 rings

> <PUBCHEM_HEAVY_ATOM_COUNT>
22

> <PUBCHEM_ATOM_DEF_STEREO_COUNT>
1

> <PUBCHEM_ATOM_UDEF_STEREO_COUNT>
0

> <PUBCHEM_BOND_DEF_STEREO_COUNT>
0

> <PUBCHEM_BOND_UDEF_STEREO_COUNT>
0

> <PUBCHEM_ISOTOPIC_ATOM_COUNT>
0

> <PUBCHEM_COMPONENT_COUNT>
1

> <PUBCHEM_CACTVS_TAUTO_COUNT>
8

> <PUBCHEM_CONFORMER_ID>
02BA995300000001

> <PUBCHEM_MMFF94_ENERGY>
51.3799

> <PUBCHEM_FEATURE_SELFOVERLAP>
45.672

> <PUBCHEM_SHAPE_FINGERPRINT>
10366900 7 17703799123978985272
10616163 171 18334861666060828466
10693767 8 18130774634830602383
10759866 29 17895202151075807390
11458722 379 18411426089546470591
11578080 2 12678035797616427299
12553582 1 16824184628588933891
12592029 89 18409169900809075915
12788726 201 18272380754177319024
13140716 1 18124599936294536923
13402501 40 18341897355642725166
138480 1 17905325126393403822
14115302 16 18261961833342035212
14178342 30 18125151641981918504
14251757 5 18120111721134681574
14931854 50 18122080705984526318
15006816 218 18410854326436514043
16752209 62 18409166593130655569
17093844 170 18411982438773591118
19591789 44 18265899245058840963
19930381 70 18194119612361233427
20028762 73 18057321910908685647
20600515 1 18269540771498467080
20645476 183 17896329171372963461
20905425 154 18055638308970163574
23184049 29 17905603655021945448
23558518 356 17907872707714328265
23559900 14 18342178903612949684
3298306 158 18409724041684346303
338550 245 18119253861272488972
43471831 8 18337387132816685323
463206 1 18341326730065813783
59755656 215 18410575059795374715
6138700 20 18339362951012153854
9709674 26 18125438871892720805

> <PUBCHEM_SHAPE_MULTIPOLES>
416.11
8.38
3.97
1.13
1.79
4.56
0.1
-1.99
-1.4
-0.42
0.38
-1.52
-0.25
0.26

> <PUBCHEM_SHAPE_SELFOVERLAP>
875.984

> <PUBCHEM_SHAPE_VOLUME>
236.4

> <PUBCHEM_COORDINATE_TYPE>
2
5
10

$$$$
