51137073
  -OEChem-12032416243D

 40 43  0     1  0  0  0  0  0999 V2000
    3.8384   -1.6749    0.7724 S   0  0  0  0  0  0  0  0  0  0  0  0
   -1.0550   -0.7140   -0.1089 N   0  0  1  0  0  0  0  0  0  0  0  0
    2.9221    0.5816   -0.0764 N   0  0  0  0  0  0  0  0  0  0  0  0
   -6.8317    2.6938    0.6157 N   0  0  0  0  0  0  0  0  0  0  0  0
    1.1416   -1.0114    0.6568 C   0  0  1  0  0  0  0  0  0  0  0  0
    0.3667   -0.1251    1.6475 C   0  0  0  0  0  0  0  0  0  0  0  0
    0.2863   -1.0093   -0.6173 C   0  0  0  0  0  0  0  0  0  0  0  0
   -0.8589    0.3488    0.8771 C   0  0  0  0  0  0  0  0  0  0  0  0
   -1.9766   -0.3258   -1.1663 C   0  0  0  0  0  0  0  0  0  0  0  0
    2.5704   -0.5865    0.4081 C   0  0  0  0  0  0  0  0  0  0  0  0
   -3.4128   -0.4492   -0.7315 C   0  0  0  0  0  0  0  0  0  0  0  0
    4.9849   -0.5013    0.2420 C   0  0  0  0  0  0  0  0  0  0  0  0
    4.3042    0.6456   -0.1775 C   0  0  0  0  0  0  0  0  0  0  0  0
   -4.1432    0.6920   -0.4001 C   0  0  0  0  0  0  0  0  0  0  0  0
   -4.0134   -1.7063   -0.6617 C   0  0  0  0  0  0  0  0  0  0  0  0
    6.3857   -0.5893    0.2001 C   0  0  0  0  0  0  0  0  0  0  0  0
    5.0544    1.7420   -0.6554 C   0  0  0  0  0  0  0  0  0  0  0  0
   -5.4741    0.5763    0.0013 C   0  0  0  0  0  0  0  0  0  0  0  0
   -5.3444   -1.8220   -0.2607 C   0  0  0  0  0  0  0  0  0  0  0  0
   -6.0748   -0.6808    0.0711 C   0  0  0  0  0  0  0  0  0  0  0  0
    7.1042    0.5098   -0.2771 C   0  0  0  0  0  0  0  0  0  0  0  0
    6.4492    1.6613   -0.6999 C   0  0  0  0  0  0  0  0  0  0  0  0
   -6.2232    1.7448    0.3404 C   0  0  0  0  0  0  0  0  0  0  0  0
    1.1315   -2.0319    1.0669 H   0  0  0  0  0  0  0  0  0  0  0  0
    0.0592   -0.7274    2.5117 H   0  0  0  0  0  0  0  0  0  0  0  0
    0.9514    0.7206    2.0247 H   0  0  0  0  0  0  0  0  0  0  0  0
    0.6231   -0.2408   -1.3258 H   0  0  0  0  0  0  0  0  0  0  0  0
    0.3241   -1.9805   -1.1228 H   0  0  0  0  0  0  0  0  0  0  0  0
   -1.7184    0.4696    1.5437 H   0  0  0  0  0  0  0  0  0  0  0  0
   -0.6439    1.3147    0.4021 H   0  0  0  0  0  0  0  0  0  0  0  0
   -1.7666    0.6824   -1.5485 H   0  0  0  0  0  0  0  0  0  0  0  0
   -1.8507   -0.9913   -2.0322 H   0  0  0  0  0  0  0  0  0  0  0  0
   -3.6725    1.6716   -0.4540 H   0  0  0  0  0  0  0  0  0  0  0  0
   -3.4552   -2.6031   -0.9175 H   0  0  0  0  0  0  0  0  0  0  0  0
    6.9038   -1.4851    0.5285 H   0  0  0  0  0  0  0  0  0  0  0  0
    4.5530    2.6464   -0.9881 H   0  0  0  0  0  0  0  0  0  0  0  0
   -5.8120   -2.8008   -0.2065 H   0  0  0  0  0  0  0  0  0  0  0  0
   -7.1113   -0.7874    0.3819 H   0  0  0  0  0  0  0  0  0  0  0  0
    8.1893    0.4624   -0.3178 H   0  0  0  0  0  0  0  0  0  0  0  0
    7.0247    2.5062   -1.0680 H   0  0  0  0  0  0  0  0  0  0  0  0
  1 10  1  0  0  0  0
  1 12  1  0  0  0  0
  2  7  1  0  0  0  0
  2  8  1  0  0  0  0
  2  9  1  0  0  0  0
  3 10  2  0  0  0  0
  3 13  1  0  0  0  0
  4 23  3  0  0  0  0
  5  6  1  0  0  0  0
  5  7  1  0  0  0  0
  5 10  1  0  0  0  0
  5 24  1  0  0  0  0
  6  8  1  0  0  0  0
  6 25  1  0  0  0  0
  6 26  1  0  0  0  0
  7 27  1  0  0  0  0
  7 28  1  0  0  0  0
  8 29  1  0  0  0  0
  8 30  1  0  0  0  0
  9 11  1  0  0  0  0
  9 31  1  0  0  0  0
  9 32  1  0  0  0  0
 11 14  2  0  0  0  0
 11 15  1  0  0  0  0
 12 13  1  0  0  0  0
 12 16  2  0  0  0  0
 13 17  2  0  0  0  0
 14 18  1  0  0  0  0
 14 33  1  0  0  0  0
 15 19  2  0  0  0  0
 15 34  1  0  0  0  0
 16 21  1  0  0  0  0
 16 35  1  0  0  0  0
 17 22  1  0  0  0  0
 17 36  1  0  0  0  0
 18 20  2  0  0  0  0
 18 23  1  0  0  0  0
 19 20  1  0  0  0  0
 19 37  1  0  0  0  0
 20 38  1  0  0  0  0
 21 22  2  0  0  0  0
 21 39  1  0  0  0  0
 22 40  1  0  0  0  0
M  END
> <PUBCHEM_COMPOUND_CID>
51137073

> <PUBCHEM_CONFORMER_RMSD>
0.8

> <PUBCHEM_CONFORMER_DIVERSEORDER>
1
95
85
96
60
89
47
11
58
19
53
93
75
55
24
98
9
79
65
54
69
70
8
80
12
57
35
23
5
66
15
76
42
10
44
59
91
30
6
77
84
48
21
68
87
36
27
83
92
17
52
74
72
94
32
63
67
20
82
37
2
81
78
64
86
34
14
56
88
39
31
4
28
26
13
50
38
49
7
25
62
61
3
40
45
43
16
33
51
90
71
46
22
41
73
18
29
97

> <PUBCHEM_MMFF94_PARTIAL_CHARGES>
30
1 -0.08
10 0.2
11 -0.14
12 0.04
13 0.23
14 -0.15
15 -0.15
16 -0.15
17 -0.15
18 0.07
19 -0.15
2 -0.81
20 -0.15
21 -0.15
22 -0.15
23 0.48
3 -0.57
33 0.15
34 0.15
35 0.15
36 0.15
37 0.15
38 0.15
39 0.15
4 -0.56
40 0.15
5 0.18
7 0.27
8 0.27
9 0.41

> <PUBCHEM_EFFECTIVE_ROTOR_COUNT>
4

> <PUBCHEM_PHARMACOPHORE_FEATURES>
7
1 2 cation
1 3 acceptor
1 4 acceptor
5 1 3 10 12 13 rings
5 2 5 6 7 8 rings
6 11 14 15 18 19 20 rings
6 12 13 16 17 21 22 rings

> <PUBCHEM_HEAVY_ATOM_COUNT>
23

> <PUBCHEM_ATOM_DEF_STEREO_COUNT>
1

> <PUBCHEM_ATOM_UDEF_STEREO_COUNT>
0

> <PUBCHEM_BOND_DEF_STEREO_COUNT>
0

> <PUBCHEM_BOND_UDEF_STEREO_COUNT>
0

> <PUBCHEM_ISOTOPIC_ATOM_COUNT>
0

> <PUBCHEM_COMPONENT_COUNT>
1

> <PUBCHEM_CACTVS_TAUTO_COUNT>
1

> <PUBCHEM_CONFORMER_ID>
030C4A3100000001

> <PUBCHEM_MMFF94_ENERGY>
47.7702

> <PUBCHEM_FEATURE_SELFOVERLAP>
35.594

> <PUBCHEM_SHAPE_FINGERPRINT>
10 15 13551197705718067614
10066227 112 18411695453222217821
10299344 5 18411136957002143847
10554248 39 18126833924836875559
10595046 47 18335416876498928635
10638233 991 18339077193636446989
106641 1 12252191788100297844
11315181 36 18260828220554481055
11646440 116 16153429445839431436
12166972 35 18040434412938103956
12236239 1 18411698790168836846
12516196 113 10087925177023073134
12730499 353 17385441008371648682
12788726 201 17704076148762819154
13167372 99 18409448068450108060
13533116 47 16805591535550994570
13690498 29 17844801697784758711
14251752 14 18131632279126134392
14849402 71 17968948620206564956
14856354 85 18271810172472941359
14933364 13 18410013242842881596
15048467 5 18411418393297450309
15183329 4 18409161112725654773
15537594 2 16774077384187954630
1577012 14 18409727352639790572
15778101 99 18413390926095690245
16989713 51 17202192101493523255
16994733 274 18335136505482138736
17093844 174 17560793347251122771
20621476 66 18412266108272660441
21298829 104 18262804081404619924
21792961 116 17632301155304915943
2215653 11 14333408952119620614
22224240 67 16660364779631374491
23081809 10 18412252943776359751
23198884 109 18334294292480808051
23522609 53 18188510024068649269
23536379 177 18410572890156557634
23569914 152 14184262171339913013
23569943 247 16807273727716617322
23576562 1 17345454050991951173
29717793 49 18130793352592963542
3004659 81 18272651213037571326
314173 85 15267345136511362706
32027 91 11677086647197331793
3545911 37 17603583045738250366
3663271 9 18259983769195338019
397830 11 14563392768214444220
4073 2 18040721402130719714
4098825 35 18409730621452924166
4325135 7 18260545653986255279
4340502 62 16298102078031871546
445580 37 18131359591721505553
5104073 3 18113330929467229147
5265222 85 18129660944903929854
542803 24 18410006654595411470
5718773 13 8069728686629385097
5758199 1 17822012016563016602
59682541 35 15213310741793074361
59755656 215 15410901743016152142
59755656 520 17385721417553086714
6328613 192 18411981334940908233

> <PUBCHEM_SHAPE_MULTIPOLES>
462.24
20.81
1.94
1.02
0.23
0.65
0.13
8.13
-1.24
-1.73
0.06
-0.09
-0.03
-2.01

> <PUBCHEM_SHAPE_SELFOVERLAP>
998.08

> <PUBCHEM_SHAPE_VOLUME>
255.1

> <PUBCHEM_COORDINATE_TYPE>
2
5
10

$$$$
