9423851
  -OEChem-12032416183D

 63 66  0     1  0  0  0  0  0999 V2000
    3.8919   -3.3805   -2.8722 F   0  0  0  0  0  0  0  0  0  0  0  0
   -3.7390    0.8953    0.6067 O   0  0  0  0  0  0  0  0  0  0  0  0
   -0.5413    1.2373   -1.2613 O   0  0  0  0  0  0  0  0  0  0  0  0
    2.9126   -0.3988    1.5673 O   0  0  0  0  0  0  0  0  0  0  0  0
    3.1274    2.7677    0.9930 O   0  0  0  0  0  0  0  0  0  0  0  0
   -1.8275   -0.3938    0.2895 N   0  0  0  0  0  0  0  0  0  0  0  0
    0.7520   -1.1977    1.1769 N   0  0  0  0  0  0  0  0  0  0  0  0
   -6.7788   -1.0580    0.0379 N   0  0  0  0  0  0  0  0  0  0  0  0
    0.4670    2.4176    0.4735 N   0  0  0  0  0  0  0  0  0  0  0  0
    3.0733    4.8906    0.1515 N   0  0  0  0  0  0  0  0  0  0  0  0
   -3.9658   -0.9994   -0.7901 C   0  0  0  0  0  0  0  0  0  0  0  0
   -0.9670    0.5686    0.9928 C   0  0  1  0  0  0  0  0  0  0  0  0
    0.0911   -0.0960    1.8731 C   0  0  0  0  0  0  0  0  0  0  0  0
   -1.1553   -1.5557   -0.3202 C   0  0  0  0  0  0  0  0  0  0  0  0
   -3.1768   -0.0773    0.0963 C   0  0  0  0  0  0  0  0  0  0  0  0
   -4.5616   -2.1544    0.0176 C   0  0  0  0  0  0  0  0  0  0  0  0
   -5.0593   -0.2333   -1.5374 C   0  0  0  0  0  0  0  0  0  0  0  0
   -0.1678   -2.2040    0.6419 C   0  0  0  0  0  0  0  0  0  0  0  0
   -5.7619   -1.7156    0.8581 C   0  0  0  0  0  0  0  0  0  0  0  0
   -6.2387    0.1247   -0.6316 C   0  0  0  0  0  0  0  0  0  0  0  0
   -0.3430    1.4325   -0.0649 C   0  0  0  0  0  0  0  0  0  0  0  0
    1.1982    3.3626   -0.3302 C   0  0  1  0  0  0  0  0  0  0  0  0
    0.3605    4.6041   -0.6039 C   0  0  0  0  0  0  0  0  0  0  0  0
    2.1453   -1.2475    1.1159 C   0  0  0  0  0  0  0  0  0  0  0  0
    1.2142    5.6518   -1.2998 C   0  0  0  0  0  0  0  0  0  0  0  0
    2.5263    3.6416    0.3648 C   0  0  0  0  0  0  0  0  0  0  0  0
    2.3665    6.0360   -0.3910 C   0  0  0  0  0  0  0  0  0  0  0  0
    2.7681   -2.3957    0.4448 C   0  0  0  0  0  0  0  0  0  0  0  0
    3.0394   -2.3417   -0.9224 C   0  0  0  0  0  0  0  0  0  0  0  0
    3.0882   -3.5404    1.1746 C   0  0  0  0  0  0  0  0  0  0  0  0
    3.6310   -3.4323   -1.5595 C   0  0  0  0  0  0  0  0  0  0  0  0
    3.6797   -4.6312    0.5375 C   0  0  0  0  0  0  0  0  0  0  0  0
    3.9512   -4.5770   -0.8296 C   0  0  0  0  0  0  0  0  0  0  0  0
   -3.3162   -1.3910   -1.5784 H   0  0  0  0  0  0  0  0  0  0  0  0
   -1.5861    1.2238    1.6178 H   0  0  0  0  0  0  0  0  0  0  0  0
    0.8295    0.6099    2.2628 H   0  0  0  0  0  0  0  0  0  0  0  0
   -0.3998   -0.5421    2.7477 H   0  0  0  0  0  0  0  0  0  0  0  0
   -0.6413   -1.2168   -1.2254 H   0  0  0  0  0  0  0  0  0  0  0  0
   -1.8631   -2.3288   -0.6200 H   0  0  0  0  0  0  0  0  0  0  0  0
   -4.8825   -2.9429   -0.6758 H   0  0  0  0  0  0  0  0  0  0  0  0
   -3.8117   -2.6030    0.6794 H   0  0  0  0  0  0  0  0  0  0  0  0
   -4.6548    0.6817   -1.9872 H   0  0  0  0  0  0  0  0  0  0  0  0
   -5.4261   -0.8548   -2.3654 H   0  0  0  0  0  0  0  0  0  0  0  0
   -0.6979   -2.6423    1.4962 H   0  0  0  0  0  0  0  0  0  0  0  0
    0.3598   -3.0146    0.1354 H   0  0  0  0  0  0  0  0  0  0  0  0
   -6.2077   -2.5995    1.3277 H   0  0  0  0  0  0  0  0  0  0  0  0
   -5.4439   -1.0532    1.6720 H   0  0  0  0  0  0  0  0  0  0  0  0
   -5.9942    0.8988    0.1008 H   0  0  0  0  0  0  0  0  0  0  0  0
   -7.0316    0.5510   -1.2574 H   0  0  0  0  0  0  0  0  0  0  0  0
   -7.5626   -0.7824    0.6290 H   0  0  0  0  0  0  0  0  0  0  0  0
    1.4469    2.8851   -1.2872 H   0  0  0  0  0  0  0  0  0  0  0  0
    0.4996    2.5383    1.4815 H   0  0  0  0  0  0  0  0  0  0  0  0
   -0.0403    5.0134    0.3327 H   0  0  0  0  0  0  0  0  0  0  0  0
   -0.5020    4.3484   -1.2306 H   0  0  0  0  0  0  0  0  0  0  0  0
    1.5982    5.2493   -2.2450 H   0  0  0  0  0  0  0  0  0  0  0  0
    0.6151    6.5365   -1.5408 H   0  0  0  0  0  0  0  0  0  0  0  0
    3.0942    6.6541   -0.9261 H   0  0  0  0  0  0  0  0  0  0  0  0
    2.0013    6.6139    0.4653 H   0  0  0  0  0  0  0  0  0  0  0  0
    3.9851    5.0679    0.5617 H   0  0  0  0  0  0  0  0  0  0  0  0
    2.7930   -1.4550   -1.5006 H   0  0  0  0  0  0  0  0  0  0  0  0
    2.8803   -3.5931    2.2402 H   0  0  0  0  0  0  0  0  0  0  0  0
    3.9287   -5.5227    1.1057 H   0  0  0  0  0  0  0  0  0  0  0  0
    4.4118   -5.4261   -1.3260 H   0  0  0  0  0  0  0  0  0  0  0  0
  1 31  1  0  0  0  0
  2 15  2  0  0  0  0
  3 21  2  0  0  0  0
  4 24  2  0  0  0  0
  5 26  2  0  0  0  0
  6 12  1  0  0  0  0
  6 14  1  0  0  0  0
  6 15  1  0  0  0  0
  7 13  1  0  0  0  0
  7 18  1  0  0  0  0
  7 24  1  0  0  0  0
  8 19  1  0  0  0  0
  8 20  1  0  0  0  0
  8 50  1  0  0  0  0
  9 21  1  0  0  0  0
  9 22  1  0  0  0  0
  9 52  1  0  0  0  0
 10 26  1  0  0  0  0
 10 27  1  0  0  0  0
 10 59  1  0  0  0  0
 11 15  1  0  0  0  0
 11 16  1  0  0  0  0
 11 17  1  0  0  0  0
 11 34  1  0  0  0  0
 12 13  1  0  0  0  0
 12 21  1  0  0  0  0
 12 35  1  0  0  0  0
 13 36  1  0  0  0  0
 13 37  1  0  0  0  0
 14 18  1  0  0  0  0
 14 38  1  0  0  0  0
 14 39  1  0  0  0  0
 16 19  1  0  0  0  0
 16 40  1  0  0  0  0
 16 41  1  0  0  0  0
 17 20  1  0  0  0  0
 17 42  1  0  0  0  0
 17 43  1  0  0  0  0
 18 44  1  0  0  0  0
 18 45  1  0  0  0  0
 19 46  1  0  0  0  0
 19 47  1  0  0  0  0
 20 48  1  0  0  0  0
 20 49  1  0  0  0  0
 22 23  1  0  0  0  0
 22 26  1  0  0  0  0
 22 51  1  0  0  0  0
 23 25  1  0  0  0  0
 23 53  1  0  0  0  0
 23 54  1  0  0  0  0
 24 28  1  0  0  0  0
 25 27  1  0  0  0  0
 25 55  1  0  0  0  0
 25 56  1  0  0  0  0
 27 57  1  0  0  0  0
 27 58  1  0  0  0  0
 28 29  2  0  0  0  0
 28 30  1  0  0  0  0
 29 31  1  0  0  0  0
 29 60  1  0  0  0  0
 30 32  2  0  0  0  0
 30 61  1  0  0  0  0
 31 33  2  0  0  0  0
 32 33  1  0  0  0  0
 32 62  1  0  0  0  0
 33 63  1  0  0  0  0
M  END
> <PUBCHEM_COMPOUND_CID>
9423851

> <PUBCHEM_CONFORMER_RMSD>
1.2

> <PUBCHEM_CONFORMER_DIVERSEORDER>
1
67
17
54
106
146
23
86
132
42
101
136
33
50
39
92
147
124
152
138
141
59
125
102
128
120
62
57
70
77
107
148
150
121
52
13
26
40
37
115
46
133
22
84
122
98
20
53
28
43
72
8
79
9
27
130
137
100
117
36
34
108
71
66
90
91
144
56
65
85
55
119
142
18
93
3
58
129
45
78
118
49
29
41
140
5
68
105
74
110
15
60
11
25
14
97
131
151
111
96
51
64
6
44
81
76
127
16
112
139
104
103
2
109
87
135
19
30
114
83
12
69
123
143
149
134
7
35
38
95
153
145
32
89
75
47
10
94
48
113
126
21
82
31
73
63
88
154
61
4
24
99
80
116

> <PUBCHEM_MMFF94_PARTIAL_CHARGES>
36
1 -0.19
10 -0.73
11 0.06
12 0.36
13 0.3
14 0.3
15 0.57
18 0.3
19 0.27
2 -0.57
20 0.27
21 0.57
22 0.36
24 0.54
26 0.57
27 0.3
28 0.09
29 -0.15
3 -0.57
30 -0.15
31 0.19
32 -0.15
33 -0.15
4 -0.57
5 -0.57
50 0.36
52 0.37
59 0.37
6 -0.66
60 0.15
61 0.15
62 0.15
63 0.15
7 -0.66
8 -0.9
9 -0.73

> <PUBCHEM_EFFECTIVE_ROTOR_COUNT>
10.4

> <PUBCHEM_PHARMACOPHORE_FEATURES>
12
1 10 donor
1 2 acceptor
1 3 acceptor
1 4 acceptor
1 5 acceptor
1 8 cation
1 8 donor
1 9 donor
6 10 22 23 25 26 27 rings
6 28 29 30 31 32 33 rings
6 6 7 12 13 14 18 rings
6 8 11 16 17 19 20 rings

> <PUBCHEM_HEAVY_ATOM_COUNT>
33

> <PUBCHEM_ATOM_DEF_STEREO_COUNT>
2

> <PUBCHEM_ATOM_UDEF_STEREO_COUNT>
0

> <PUBCHEM_BOND_DEF_STEREO_COUNT>
0

> <PUBCHEM_BOND_UDEF_STEREO_COUNT>
0

> <PUBCHEM_ISOTOPIC_ATOM_COUNT>
0

> <PUBCHEM_COMPONENT_COUNT>
1

> <PUBCHEM_CACTVS_TAUTO_COUNT>
4

> <PUBCHEM_CONFORMER_ID>
008FCBEB00000001

> <PUBCHEM_MMFF94_ENERGY>
75.9328

> <PUBCHEM_FEATURE_SELFOVERLAP>
60.898

> <PUBCHEM_SHAPE_FINGERPRINT>
10258939 38 18123451805938502322
10411042 1 18265326205694686515
10556698 54 17320934770051799741
10721379 63 18341062894530031741
11297010 23 18120069909702285533
11607047 141 18196400142128995083
11763715 3 18049185296791571830
11991303 11 17253996870976820428
12788726 201 17685510753315238930
13690498 29 17911804566229078614
13757389 114 17550123467055691893
13785724 45 18340489941877099507
14294032 229 17258786919079014400
14675019 173 18195256525107159089
14790565 3 17760082221913280865
15081414 286 18410284805204014635
15198563 99 18051129185830202116
15484559 13 18265331880010739326
15664445 248 18410856594500895750
15878777 1 11664101582128510936
15927050 60 18052823838582400039
16991981 162 17474700268599907948
1813 80 18270681957098755759
21365058 113 18340216193520622847
24771750 20 17972892624407708036
24893989 43 16394287238739041061
3103668 31 17687177596259548189
3388396 114 18119843277547443420
3411729 13 18116986892003709465
376196 1 17899684953865097017
38695281 34 17905038510419493624
4017518 198 18055637468085514428
6669772 16 18124041392397449164
6700243 42 17554350024434401270

> <PUBCHEM_SHAPE_MULTIPOLES>
623.47
10.93
8.88
1.55
19.7
13.82
0.47
-11.79
2.25
-15.79
2.55
-1.14
-0.96
1.44

> <PUBCHEM_SHAPE_SELFOVERLAP>
1322.588

> <PUBCHEM_SHAPE_VOLUME>
344.1

> <PUBCHEM_COORDINATE_TYPE>
2
5
10

$$$$
