11882060
  -OEChem-12032416123D

 64 67  0     1  0  0  0  0  0999 V2000
    4.4138    4.6285   -1.8242 S   0  0  0  0  0  0  0  0  0  0  0  0
   -5.8682   -2.3613   -0.7320 F   0  0  0  0  0  0  0  0  0  0  0  0
   -8.5347    1.4610   -1.5448 F   0  0  0  0  0  0  0  0  0  0  0  0
    2.6371    0.1094    1.8212 O   0  0  0  0  0  0  0  0  0  0  0  0
    2.3815   -1.3485   -1.3993 O   0  0  0  0  0  0  0  0  0  0  0  0
   -2.5763    1.0878    0.9856 O   0  0  0  0  0  0  0  0  0  0  0  0
    0.6960    3.4886    2.6366 O   0  0  0  0  0  0  0  0  0  0  0  0
    1.2638   -1.8061    0.5660 N   0  0  0  0  0  0  0  0  0  0  0  0
   -1.7076   -1.0463    1.1730 N   0  0  0  0  0  0  0  0  0  0  0  0
    1.4688    1.7496    0.6534 N   0  0  0  0  0  0  0  0  0  0  0  0
    3.8928   -3.8734   -0.5483 N   0  0  0  0  0  0  0  0  0  0  0  0
   -3.8101   -0.7842    0.2899 N   0  0  0  0  0  0  0  0  0  0  0  0
    2.9181    3.8716    3.0755 N   0  0  0  0  0  0  0  0  0  0  0  0
   -0.4422   -0.6620    1.7518 C   0  0  2  0  0  0  0  0  0  0  0  0
    0.6308   -0.4947    0.6753 C   0  0  1  0  0  0  0  0  0  0  0  0
    0.1176   -1.7769    2.6388 C   0  0  0  0  0  0  0  0  0  0  0  0
    0.8440   -2.6868    1.6566 C   0  0  0  0  0  0  0  0  0  0  0  0
    1.6970    0.4646    1.1150 C   0  0  0  0  0  0  0  0  0  0  0  0
    2.0729   -2.1533   -0.5194 C   0  0  0  0  0  0  0  0  0  0  0  0
    2.5677   -3.5238   -0.5491 C   0  0  0  0  0  0  0  0  0  0  0  0
    2.3370    2.8643    0.9563 C   0  0  1  0  0  0  0  0  0  0  0  0
   -2.7008   -0.1240    0.8257 C   0  0  0  0  0  0  0  0  0  0  0  0
    2.3071    3.9394   -0.1369 C   0  0  0  0  0  0  0  0  0  0  0  0
    1.8253   -4.6835   -0.5841 C   0  0  0  0  0  0  0  0  0  0  0  0
    1.8723    3.4447    2.2842 C   0  0  0  0  0  0  0  0  0  0  0  0
    4.0075   -5.2388   -0.5816 C   0  0  0  0  0  0  0  0  0  0  0  0
    2.7362   -5.7685   -0.6049 C   0  0  0  0  0  0  0  0  0  0  0  0
    3.1613    3.5717   -1.3271 C   0  0  0  0  0  0  0  0  0  0  0  0
    5.0108   -2.9563   -0.5164 C   0  0  0  0  0  0  0  0  0  0  0  0
   -5.0162   -0.2140   -0.1799 C   0  0  0  0  0  0  0  0  0  0  0  0
    3.0845    2.4505   -2.1238 C   0  0  0  0  0  0  0  0  0  0  0  0
   -6.0276   -1.0311   -0.6852 C   0  0  0  0  0  0  0  0  0  0  0  0
   -5.1932    1.1689   -0.1363 C   0  0  0  0  0  0  0  0  0  0  0  0
    4.0669    2.4591   -3.1557 C   0  0  0  0  0  0  0  0  0  0  0  0
    4.8570    3.5865   -3.1086 C   0  0  0  0  0  0  0  0  0  0  0  0
   -7.2161   -0.4652   -1.1466 C   0  0  0  0  0  0  0  0  0  0  0  0
   -6.3817    1.7346   -0.5979 C   0  0  0  0  0  0  0  0  0  0  0  0
   -7.3930    0.9177   -1.1031 C   0  0  0  0  0  0  0  0  0  0  0  0
   -0.5948    0.2543    2.3334 H   0  0  0  0  0  0  0  0  0  0  0  0
    0.2320   -0.2018   -0.3030 H   0  0  0  0  0  0  0  0  0  0  0  0
    0.8398   -1.3566    3.3491 H   0  0  0  0  0  0  0  0  0  0  0  0
   -0.6452   -2.3123    3.2125 H   0  0  0  0  0  0  0  0  0  0  0  0
    1.7049   -3.1909    2.1050 H   0  0  0  0  0  0  0  0  0  0  0  0
    0.1544   -3.4338    1.2519 H   0  0  0  0  0  0  0  0  0  0  0  0
   -1.8607   -2.0245    0.9470 H   0  0  0  0  0  0  0  0  0  0  0  0
    0.6118    1.9423    0.1425 H   0  0  0  0  0  0  0  0  0  0  0  0
    3.3560    2.4752    1.0815 H   0  0  0  0  0  0  0  0  0  0  0  0
    2.6461    4.8960    0.2821 H   0  0  0  0  0  0  0  0  0  0  0  0
    1.2787    4.1086   -0.4831 H   0  0  0  0  0  0  0  0  0  0  0  0
    0.7464   -4.7525   -0.6094 H   0  0  0  0  0  0  0  0  0  0  0  0
   -3.7546   -1.7977    0.2268 H   0  0  0  0  0  0  0  0  0  0  0  0
    4.9751   -5.7223   -0.5882 H   0  0  0  0  0  0  0  0  0  0  0  0
    2.4930   -6.8212   -0.6374 H   0  0  0  0  0  0  0  0  0  0  0  0
    5.9362   -3.5140   -0.3515 H   0  0  0  0  0  0  0  0  0  0  0  0
    4.8596   -2.2484    0.3027 H   0  0  0  0  0  0  0  0  0  0  0  0
    5.0548   -2.4360   -1.4764 H   0  0  0  0  0  0  0  0  0  0  0  0
    2.7473    4.2659    3.9947 H   0  0  0  0  0  0  0  0  0  0  0  0
    3.8860    3.8263    2.7736 H   0  0  0  0  0  0  0  0  0  0  0  0
    2.3584    1.6596   -1.9892 H   0  0  0  0  0  0  0  0  0  0  0  0
   -4.4589    1.8670    0.2394 H   0  0  0  0  0  0  0  0  0  0  0  0
    4.1866    1.6789   -3.8960 H   0  0  0  0  0  0  0  0  0  0  0  0
    5.6731    3.8483   -3.7672 H   0  0  0  0  0  0  0  0  0  0  0  0
   -8.0037   -1.1011   -1.5396 H   0  0  0  0  0  0  0  0  0  0  0  0
   -6.5213    2.8112   -0.5645 H   0  0  0  0  0  0  0  0  0  0  0  0
  1 28  1  0  0  0  0
  1 35  1  0  0  0  0
  2 32  1  0  0  0  0
  3 38  1  0  0  0  0
  4 18  2  0  0  0  0
  5 19  2  0  0  0  0
  6 22  2  0  0  0  0
  7 25  2  0  0  0  0
  8 15  1  0  0  0  0
  8 17  1  0  0  0  0
  8 19  1  0  0  0  0
  9 14  1  0  0  0  0
  9 22  1  0  0  0  0
  9 45  1  0  0  0  0
 10 18  1  0  0  0  0
 10 21  1  0  0  0  0
 10 46  1  0  0  0  0
 11 20  1  0  0  0  0
 11 26  1  0  0  0  0
 11 29  1  0  0  0  0
 12 22  1  0  0  0  0
 12 30  1  0  0  0  0
 12 51  1  0  0  0  0
 13 25  1  0  0  0  0
 13 57  1  0  0  0  0
 13 58  1  0  0  0  0
 14 15  1  0  0  0  0
 14 16  1  0  0  0  0
 14 39  1  0  0  0  0
 15 18  1  0  0  0  0
 15 40  1  0  0  0  0
 16 17  1  0  0  0  0
 16 41  1  0  0  0  0
 16 42  1  0  0  0  0
 17 43  1  0  0  0  0
 17 44  1  0  0  0  0
 19 20  1  0  0  0  0
 20 24  2  0  0  0  0
 21 23  1  0  0  0  0
 21 25  1  0  0  0  0
 21 47  1  0  0  0  0
 23 28  1  0  0  0  0
 23 48  1  0  0  0  0
 23 49  1  0  0  0  0
 24 27  1  0  0  0  0
 24 50  1  0  0  0  0
 26 27  2  0  0  0  0
 26 52  1  0  0  0  0
 27 53  1  0  0  0  0
 28 31  2  0  0  0  0
 29 54  1  0  0  0  0
 29 55  1  0  0  0  0
 29 56  1  0  0  0  0
 30 32  2  0  0  0  0
 30 33  1  0  0  0  0
 31 34  1  0  0  0  0
 31 59  1  0  0  0  0
 32 36  1  0  0  0  0
 33 37  2  0  0  0  0
 33 60  1  0  0  0  0
 34 35  2  0  0  0  0
 34 61  1  0  0  0  0
 35 62  1  0  0  0  0
 36 38  2  0  0  0  0
 36 63  1  0  0  0  0
 37 38  1  0  0  0  0
 37 64  1  0  0  0  0
M  END
> <PUBCHEM_COMPOUND_CID>
11882060

> <PUBCHEM_CONFORMER_RMSD>
1.2

> <PUBCHEM_CONFORMER_DIVERSEORDER>
1
7
41
93
16
61
11
63
76
18
66
8
40
83
56
91
26
58
75
69
87
27
90
32
64
79
77
34
50
38
42
36
85
95
67
43
12
49
71
21
6
46
89
24
57
22
13
44
65
19
68
96
37
70
25
20
84
48
74
92
30
45
59
23
88
33
72
52
31
94
39
28
51
73
17
15
55
82
80
4
3
81
9
47
78
5
62
86
60
10
35
14
53
54
29
2

> <PUBCHEM_MMFF94_PARTIAL_CHARGES>
51
1 -0.08
10 -0.73
11 0.05
12 -0.55
13 -0.8
14 0.3
15 0.36
17 0.3
18 0.57
19 0.71
2 -0.19
20 -0.24
21 0.36
22 0.69
23 0.18
24 -0.15
25 0.57
26 -0.3
27 -0.15
28 -0.14
29 0.26
3 -0.19
30 0.12
31 -0.15
32 0.19
33 -0.15
34 -0.15
35 -0.11
36 -0.15
37 -0.15
38 0.19
4 -0.57
45 0.37
46 0.37
5 -0.57
50 0.15
51 0.37
52 0.15
53 0.15
57 0.37
58 0.37
59 0.15
6 -0.57
60 0.15
61 0.15
62 0.15
63 0.15
64 0.15
7 -0.57
8 -0.66
9 -0.73

> <PUBCHEM_EFFECTIVE_ROTOR_COUNT>
13

> <PUBCHEM_PHARMACOPHORE_FEATURES>
13
1 10 donor
1 11 cation
1 12 donor
1 13 donor
1 4 acceptor
1 5 acceptor
1 6 acceptor
1 7 acceptor
1 9 donor
5 1 28 31 34 35 rings
5 11 20 24 26 27 rings
5 8 14 15 16 17 rings
6 30 32 33 36 37 38 rings

> <PUBCHEM_HEAVY_ATOM_COUNT>
38

> <PUBCHEM_ATOM_DEF_STEREO_COUNT>
3

> <PUBCHEM_ATOM_UDEF_STEREO_COUNT>
0

> <PUBCHEM_BOND_DEF_STEREO_COUNT>
0

> <PUBCHEM_BOND_UDEF_STEREO_COUNT>
0

> <PUBCHEM_ISOTOPIC_ATOM_COUNT>
0

> <PUBCHEM_COMPONENT_COUNT>
1

> <PUBCHEM_CACTVS_TAUTO_COUNT>
12

> <PUBCHEM_CONFORMER_ID>
00B54E4C00000001

> <PUBCHEM_MMFF94_ENERGY>
83.6233

> <PUBCHEM_FEATURE_SELFOVERLAP>
66.025

> <PUBCHEM_SHAPE_FINGERPRINT>
10079526 769 18267039261995840164
10721379 63 18131071541086217113
10974685 15 17407117033756521780
11093857 51 18264212589347240420
11115154 58 18053384301933652537
11720765 8 18200583688459833363
12173638 129 13126809375555134718
12440610 7 18190172576709257563
14068700 675 18052543166975420686
15082195 135 18409451371416803583
15357212 105 18335997398276875009
15775530 1 18189918562867442578
15803439 3 18120956141790861196
15950262 2 15288491056517954022
15968369 26 18337103566022070771
16988056 13 18336261241289086108
21304303 282 17123356133542830210
21716022 299 18269848523132021820
21968339 14 18411989069744108716
23559900 14 18271513205691618691
24771750 20 18263657297446640622
25025965 108 16624389777495097508
4046055 25 17908990898339633942
4066623 53 17974279929146528338
4394409 98 18265911318691841300
44317340 157 18410016542406354467
44802255 64 17540282129966242724
45266715 3 17916028039615299288
46194498 28 18187363208039788015
508180 173 17973161726079608417
6695519 79 17769098183408371539

> <PUBCHEM_SHAPE_MULTIPOLES>
717.96
15.63
8.33
2.77
44.82
5.37
0.8
-6.21
-12.84
-18.57
-2.46
-3.16
-3.37
-0.53

> <PUBCHEM_SHAPE_SELFOVERLAP>
1530.518

> <PUBCHEM_SHAPE_VOLUME>
401.8

> <PUBCHEM_COORDINATE_TYPE>
2
5
10

$$$$
