7161677
  -OEChem-12032416353D

 37 37  0     1  0  0  0  0  0999 V2000
   -3.1185    0.9152   -0.2168 S   0  0  0  0  0  0  0  0  0  0  0  0
   -0.4533   -2.7849    0.1190 O   0  0  0  0  0  0  0  0  0  0  0  0
   -3.7774   -0.3661   -0.3468 O   0  0  0  0  0  0  0  0  0  0  0  0
   -3.3287    1.9788   -1.1747 O   0  0  0  0  0  0  0  0  0  0  0  0
   -0.9022   -1.3270   -1.6158 O   0  0  0  0  0  0  0  0  0  0  0  0
    2.9932   -1.0237    1.6002 O   0  0  0  0  0  0  0  0  0  0  0  0
    3.3179    0.7572   -1.1259 O   0  0  0  0  0  0  0  0  0  0  0  0
   -1.4372    0.6551   -0.0424 N   0  0  2  0  0  0  0  0  0  0  0  0
    1.2812    0.3523    0.8344 N   0  0  0  0  0  0  0  0  0  0  0  0
   -1.0225   -0.5866    0.6691 C   0  0  2  0  0  0  0  0  0  0  0  0
    0.2312   -0.4022    1.5205 C   0  0  0  0  0  0  0  0  0  0  0  0
   -0.6191    1.8548    0.2723 C   0  0  0  0  0  0  0  0  0  0  0  0
    0.8526    1.5235    0.0653 C   0  0  0  0  0  0  0  0  0  0  0  0
   -0.7934   -1.5814   -0.4240 C   0  0  0  0  0  0  0  0  0  0  0  0
    2.6150   -0.0419    0.9576 C   0  0  0  0  0  0  0  0  0  0  0  0
   -3.4766    1.5542    1.3993 C   0  0  0  0  0  0  0  0  0  0  0  0
    3.6292    0.8198    0.2446 C   0  0  0  0  0  0  0  0  0  0  0  0
   -0.2047   -3.8352   -0.8207 C   0  0  0  0  0  0  0  0  0  0  0  0
    4.2133    1.5382   -1.9153 C   0  0  0  0  0  0  0  0  0  0  0  0
   -1.8339   -0.9584    1.3043 H   0  0  0  0  0  0  0  0  0  0  0  0
   -0.0185    0.1765    2.4191 H   0  0  0  0  0  0  0  0  0  0  0  0
    0.6233   -1.3613    1.8748 H   0  0  0  0  0  0  0  0  0  0  0  0
   -0.7860    2.1697    1.3078 H   0  0  0  0  0  0  0  0  0  0  0  0
   -0.8913    2.6825   -0.3904 H   0  0  0  0  0  0  0  0  0  0  0  0
    1.0122    1.2996   -0.9947 H   0  0  0  0  0  0  0  0  0  0  0  0
    1.4695    2.3860    0.3342 H   0  0  0  0  0  0  0  0  0  0  0  0
   -3.1321    0.8547    2.1620 H   0  0  0  0  0  0  0  0  0  0  0  0
   -3.0197    2.5367    1.5223 H   0  0  0  0  0  0  0  0  0  0  0  0
   -4.5622    1.6586    1.4758 H   0  0  0  0  0  0  0  0  0  0  0  0
    4.6300    0.4105    0.4231 H   0  0  0  0  0  0  0  0  0  0  0  0
    3.5928    1.8448    0.6269 H   0  0  0  0  0  0  0  0  0  0  0  0
   -1.1027   -4.0334   -1.4136 H   0  0  0  0  0  0  0  0  0  0  0  0
    0.0531   -4.7383   -0.2610 H   0  0  0  0  0  0  0  0  0  0  0  0
    0.6365   -3.5713   -1.4688 H   0  0  0  0  0  0  0  0  0  0  0  0
    5.2379    1.1705   -1.8050 H   0  0  0  0  0  0  0  0  0  0  0  0
    4.1553    2.5915   -1.6250 H   0  0  0  0  0  0  0  0  0  0  0  0
    3.9165    1.4453   -2.9633 H   0  0  0  0  0  0  0  0  0  0  0  0
  1  3  2  0  0  0  0
  1  4  2  0  0  0  0
  1  8  1  0  0  0  0
  1 16  1  0  0  0  0
  2 14  1  0  0  0  0
  2 18  1  0  0  0  0
  5 14  2  0  0  0  0
  6 15  2  0  0  0  0
  7 17  1  0  0  0  0
  7 19  1  0  0  0  0
  8 10  1  0  0  0  0
  8 12  1  0  0  0  0
  9 11  1  0  0  0  0
  9 13  1  0  0  0  0
  9 15  1  0  0  0  0
 10 11  1  0  0  0  0
 10 14  1  0  0  0  0
 10 20  1  0  0  0  0
 11 21  1  0  0  0  0
 11 22  1  0  0  0  0
 12 13  1  0  0  0  0
 12 23  1  0  0  0  0
 12 24  1  0  0  0  0
 13 25  1  0  0  0  0
 13 26  1  0  0  0  0
 15 17  1  0  0  0  0
 16 27  1  0  0  0  0
 16 28  1  0  0  0  0
 16 29  1  0  0  0  0
 17 30  1  0  0  0  0
 17 31  1  0  0  0  0
 18 32  1  0  0  0  0
 18 33  1  0  0  0  0
 18 34  1  0  0  0  0
 19 35  1  0  0  0  0
 19 36  1  0  0  0  0
 19 37  1  0  0  0  0
M  END
> <PUBCHEM_COMPOUND_CID>
7161677

> <PUBCHEM_CONFORMER_RMSD>
0.8

> <PUBCHEM_CONFORMER_DIVERSEORDER>
3
89
119
96
81
36
52
84
64
20
100
88
14
50
41
87
55
86
85
115
27
35
105
8
2
68
1
76
90
77
108
37
74
106
121
48
102
57
67
13
49
111
93
104
91
46
29
16
82
25
31
101
117
112
53
33
116
78
110
44
72
9
62
120
103
70
51
22
118
83
21
42
54
34
113
5
7
60
98
15
47
4
71
12
80
59
30
69
38
45
23
109
107
63
79
56
58
75
6
92
94
24
19
114
40
99
66
10
18
26
95
73
39
43
11
65
28
97
32
17
61

> <PUBCHEM_MMFF94_PARTIAL_CHARGES>
19
1 1.33
10 0.42
11 0.3
12 0.36
13 0.3
14 0.66
15 0.57
16 0.11
17 0.34
18 0.28
19 0.28
2 -0.43
3 -0.65
4 -0.65
5 -0.57
6 -0.57
7 -0.56
8 -0.85
9 -0.66

> <PUBCHEM_EFFECTIVE_ROTOR_COUNT>
7.2

> <PUBCHEM_PHARMACOPHORE_FEATURES>
6
1 3 acceptor
1 4 acceptor
1 5 acceptor
1 6 acceptor
1 7 acceptor
6 8 9 10 11 12 13 rings

> <PUBCHEM_HEAVY_ATOM_COUNT>
19

> <PUBCHEM_ATOM_DEF_STEREO_COUNT>
1

> <PUBCHEM_ATOM_UDEF_STEREO_COUNT>
0

> <PUBCHEM_BOND_DEF_STEREO_COUNT>
0

> <PUBCHEM_BOND_UDEF_STEREO_COUNT>
0

> <PUBCHEM_ISOTOPIC_ATOM_COUNT>
0

> <PUBCHEM_COMPONENT_COUNT>
1

> <PUBCHEM_CACTVS_TAUTO_COUNT>
1

> <PUBCHEM_CONFORMER_ID>
006D474D00000003

> <PUBCHEM_MMFF94_ENERGY>
42.4694

> <PUBCHEM_FEATURE_SELFOVERLAP>
30.467

> <PUBCHEM_SHAPE_FINGERPRINT>
116883 192 17697307778742393535
12173636 292 18336817688629963574
12592029 89 18341050718682791787
14993402 34 18411695508750694585
15279307 12 18261386780529216506
15309172 13 18413105035502475825
15342168 16 16154284943385117572
16752209 62 18268980046200694783
16945 1 17274809268774913145
18186145 218 18060697269212212417
19422 9 18113611270567181505
19868273 293 18335700572163453460
20600515 1 17917701397280444904
20645476 183 18261114105644881758
20871999 31 18200042874841701972
21069387 34 14476967808644493324
21524375 3 18334287656634899675
23366157 5 17975699390025874051
23419403 2 17052798041469181239
23557571 272 17915175952336566520
23598291 2 17968084357254436982
298252 57 18408315588347218523
43471831 8 18270675364455604459
458136 41 18197796417993680675
53812653 217 18264492973543851090
633830 44 17604428483853338009
81228 2 17838315729931019099
81539 233 18264764368496035983
88987 49 18269262625347471360
90525 40 18408597041838445273

> <PUBCHEM_SHAPE_MULTIPOLES>
349.68
6.48
3.01
1.55
2.52
3.48
0.12
-4.39
1.5
-1.01
0.94
0.86
-0.15
-1.06

> <PUBCHEM_SHAPE_SELFOVERLAP>
684.283

> <PUBCHEM_SHAPE_VOLUME>
211.5

> <PUBCHEM_COORDINATE_TYPE>
2
5
10

$$$$
