11941993
  -OEChem-12032416153D

 49 52  0     1  0  0  0  0  0999 V2000
    1.1967   -0.7877   -1.3907 O   0  0  0  0  0  0  0  0  0  0  0  0
    5.7427   -1.7583    0.2982 O   0  0  0  0  0  0  0  0  0  0  0  0
   -4.7981   -2.8788    1.8177 O   0  0  0  0  0  0  0  0  0  0  0  0
   -0.2856    2.6748   -0.5681 N   0  0  2  0  0  0  0  0  0  0  0  0
    3.1074   -0.8319   -0.0724 N   0  0  0  0  0  0  0  0  0  0  0  0
   -3.1342    0.1842   -0.7641 N   0  0  0  0  0  0  0  0  0  0  0  0
   -4.3554    0.6936   -0.5764 N   0  0  0  0  0  0  0  0  0  0  0  0
   -5.1216   -0.2984   -0.1363 N   0  0  0  0  0  0  0  0  0  0  0  0
    0.7813    1.0939    1.2024 C   0  0  2  0  0  0  0  0  0  0  0  0
    1.6280    1.1428   -0.0840 C   0  0  2  0  0  0  0  0  0  0  0  0
   -1.2952    1.6922   -0.0913 C   0  0  2  0  0  0  0  0  0  0  0  0
   -0.6502    0.6469    0.8449 C   0  0  0  0  0  0  0  0  0  0  0  0
    0.6921    2.5371    1.7304 C   0  0  0  0  0  0  0  0  0  0  0  0
    0.8846    1.9700   -1.1478 C   0  0  0  0  0  0  0  0  0  0  0  0
    0.1798    3.4557    0.6054 C   0  0  0  0  0  0  0  0  0  0  0  0
   -2.0549    1.0315   -1.2436 C   0  0  0  0  0  0  0  0  0  0  0  0
    1.9495   -0.2449   -0.5780 C   0  0  0  0  0  0  0  0  0  0  0  0
    3.4957   -2.1749   -0.5029 C   0  0  0  0  0  0  0  0  0  0  0  0
    3.9538   -0.2706    0.9858 C   0  0  0  0  0  0  0  0  0  0  0  0
    4.9832   -2.2204   -0.8218 C   0  0  0  0  0  0  0  0  0  0  0  0
    5.4242   -0.3991    0.6087 C   0  0  0  0  0  0  0  0  0  0  0  0
   -3.0685   -1.1320   -0.4575 C   0  0  0  0  0  0  0  0  0  0  0  0
   -4.3486   -1.4234   -0.0578 C   0  0  0  0  0  0  0  0  0  0  0  0
   -4.9067   -2.7023    0.3994 C   0  0  0  0  0  0  0  0  0  0  0  0
    1.2124    0.4277    1.9567 H   0  0  0  0  0  0  0  0  0  0  0  0
    2.5546    1.6953    0.0940 H   0  0  0  0  0  0  0  0  0  0  0  0
   -2.0441    2.2480    0.4925 H   0  0  0  0  0  0  0  0  0  0  0  0
   -0.6031   -0.3497    0.4002 H   0  0  0  0  0  0  0  0  0  0  0  0
   -1.2466    0.5605    1.7619 H   0  0  0  0  0  0  0  0  0  0  0  0
    1.6756    2.8799    2.0725 H   0  0  0  0  0  0  0  0  0  0  0  0
    0.0139    2.5803    2.5910 H   0  0  0  0  0  0  0  0  0  0  0  0
    1.5712    2.7244   -1.5566 H   0  0  0  0  0  0  0  0  0  0  0  0
    0.5781    1.3933   -2.0261 H   0  0  0  0  0  0  0  0  0  0  0  0
   -0.6353    4.0864    0.9814 H   0  0  0  0  0  0  0  0  0  0  0  0
    0.9698    4.1525    0.2974 H   0  0  0  0  0  0  0  0  0  0  0  0
   -1.4096    0.3969   -1.8608 H   0  0  0  0  0  0  0  0  0  0  0  0
   -2.5030    1.7847   -1.9031 H   0  0  0  0  0  0  0  0  0  0  0  0
    2.9093   -2.4966   -1.3689 H   0  0  0  0  0  0  0  0  0  0  0  0
    3.2664   -2.8476    0.3319 H   0  0  0  0  0  0  0  0  0  0  0  0
    3.7530   -0.8781    1.8773 H   0  0  0  0  0  0  0  0  0  0  0  0
    3.7273    0.7593    1.2518 H   0  0  0  0  0  0  0  0  0  0  0  0
    5.2909   -3.2486   -1.0362 H   0  0  0  0  0  0  0  0  0  0  0  0
    5.2234   -1.6078   -1.6990 H   0  0  0  0  0  0  0  0  0  0  0  0
    5.6731    0.2365   -0.2493 H   0  0  0  0  0  0  0  0  0  0  0  0
    6.0553   -0.0915    1.4484 H   0  0  0  0  0  0  0  0  0  0  0  0
   -2.1749   -1.7321   -0.5539 H   0  0  0  0  0  0  0  0  0  0  0  0
   -5.9654   -2.7839    0.1317 H   0  0  0  0  0  0  0  0  0  0  0  0
   -4.3866   -3.5415   -0.0739 H   0  0  0  0  0  0  0  0  0  0  0  0
   -5.3109   -2.1670    2.2376 H   0  0  0  0  0  0  0  0  0  0  0  0
  1 17  2  0  0  0  0
  2 20  1  0  0  0  0
  2 21  1  0  0  0  0
  3 24  1  0  0  0  0
  3 49  1  0  0  0  0
  4 11  1  0  0  0  0
  4 14  1  0  0  0  0
  4 15  1  0  0  0  0
  5 17  1  0  0  0  0
  5 18  1  0  0  0  0
  5 19  1  0  0  0  0
  6  7  1  0  0  0  0
  6 16  1  0  0  0  0
  6 22  1  0  0  0  0
  7  8  2  0  0  0  0
  8 23  1  0  0  0  0
  9 10  1  0  0  0  0
  9 12  1  0  0  0  0
  9 13  1  0  0  0  0
  9 25  1  0  0  0  0
 10 14  1  0  0  0  0
 10 17  1  0  0  0  0
 10 26  1  0  0  0  0
 11 12  1  0  0  0  0
 11 16  1  0  0  0  0
 11 27  1  0  0  0  0
 12 28  1  0  0  0  0
 12 29  1  0  0  0  0
 13 15  1  0  0  0  0
 13 30  1  0  0  0  0
 13 31  1  0  0  0  0
 14 32  1  0  0  0  0
 14 33  1  0  0  0  0
 15 34  1  0  0  0  0
 15 35  1  0  0  0  0
 16 36  1  0  0  0  0
 16 37  1  0  0  0  0
 18 20  1  0  0  0  0
 18 38  1  0  0  0  0
 18 39  1  0  0  0  0
 19 21  1  0  0  0  0
 19 40  1  0  0  0  0
 19 41  1  0  0  0  0
 20 42  1  0  0  0  0
 20 43  1  0  0  0  0
 21 44  1  0  0  0  0
 21 45  1  0  0  0  0
 22 23  2  0  0  0  0
 22 46  1  0  0  0  0
 23 24  1  0  0  0  0
 24 47  1  0  0  0  0
 24 48  1  0  0  0  0
M  END
> <PUBCHEM_COMPOUND_CID>
11941993

> <PUBCHEM_CONFORMER_RMSD>
0.8

> <PUBCHEM_CONFORMER_DIVERSEORDER>
2
18
4
23
9
28
10
17
8
12
25
19
6
29
14
15
27
1
30
21
3
7
26
24
20
22
11
5
13
16

> <PUBCHEM_MMFF94_PARTIAL_CHARGES>
23
1 -0.57
10 0.06
11 0.27
14 0.27
15 0.27
16 0.26
17 0.57
18 0.3
19 0.3
2 -0.56
20 0.28
21 0.28
22 -0.3
23 0.05
24 0.46
3 -0.68
4 -0.81
46 0.15
49 0.4
5 -0.66
6 0.31
7 -0.42
8 -0.23

> <PUBCHEM_EFFECTIVE_ROTOR_COUNT>
7.4

> <PUBCHEM_PHARMACOPHORE_FEATURES>
8
1 1 acceptor
1 2 acceptor
1 3 acceptor
1 3 donor
1 4 cation
5 6 7 8 22 23 rings
6 2 5 18 19 20 21 rings
8 4 9 10 11 12 13 14 15 rings

> <PUBCHEM_HEAVY_ATOM_COUNT>
24

> <PUBCHEM_ATOM_DEF_STEREO_COUNT>
3

> <PUBCHEM_ATOM_UDEF_STEREO_COUNT>
0

> <PUBCHEM_BOND_DEF_STEREO_COUNT>
0

> <PUBCHEM_BOND_UDEF_STEREO_COUNT>
0

> <PUBCHEM_ISOTOPIC_ATOM_COUNT>
0

> <PUBCHEM_COMPONENT_COUNT>
1

> <PUBCHEM_CACTVS_TAUTO_COUNT>
1

> <PUBCHEM_CONFORMER_ID>
00B6386900000002

> <PUBCHEM_MMFF94_ENERGY>
52.2414

> <PUBCHEM_FEATURE_SELFOVERLAP>
40.597

> <PUBCHEM_SHAPE_FINGERPRINT>
10764073 3 12318363610073999236
11135609 12 18335143145854564497
11488393 25 17752783594761272304
11552529 35 14403457777231981684
11578080 2 14780991587535285756
11796584 16 18187074031980993299
12596602 18 15410315758942586679
12633257 1 15697989751961009446
13103583 49 16559030519113240223
13402501 40 18411698785747912151
13533116 47 18196935698675357399
13544653 18 18202276983569050220
13631057 29 18338515223626678510
13740256 8 18409165528015286549
13955234 65 17908709771461126145
14251751 18 18260268576903289027
14341114 328 14908176473543495114
14787075 74 18410569605039170368
14790565 3 17549248685771777608
14866123 147 18196938756449141553
15163728 17 9583251560355942799
15352361 1 18410854356448492263
15927050 60 17552350391157147332
17138139 8 17531241785958307258
17349148 13 17458914708913805610
17492 89 18122061164257738311
19315092 285 17200788085058265743
193927 3 18342183241212933430
20567600 70 18335419114430188602
20600515 1 18339371751320996685
20723712 36 13901902345413434376
21756936 100 9222933847575553384
221490 88 18335985380098050377
23379529 103 18261117434355851651
23557571 272 18199183988820104604
23559900 14 18188483696662305933
2838139 119 9079114436417083434
3004659 81 18114181921639609670
314194 84 18201150052695944454
329604 57 18335143107078519654
3421961 26 18269834366687822169
5104073 3 18270407208557464689
5486654 36 18409459085394325873
6371380 46 18337102377255379453

> <PUBCHEM_SHAPE_MULTIPOLES>
451.4
11.49
3.54
1.32
0.2
0.74
-0.26
-13.06
-1.36
0.75
-0.73
0.25
0.14
1.8

> <PUBCHEM_SHAPE_SELFOVERLAP>
955.383

> <PUBCHEM_SHAPE_VOLUME>
249.2

> <PUBCHEM_COORDINATE_TYPE>
2
5
10

$$$$
