25338365
  -OEChem-12032416293D

 47 50  0     1  0  0  0  0  0999 V2000
   -3.8760    1.4285    0.7071 S   0  0  0  0  0  0  0  0  0  0  0  0
   -1.2385    2.6973    0.5411 S   0  0  0  0  0  0  0  0  0  0  0  0
    0.9107   -2.7420   -1.4707 O   0  0  0  0  0  0  0  0  0  0  0  0
   -4.0088    2.1803    1.9403 O   0  0  0  0  0  0  0  0  0  0  0  0
   -5.0337    1.1998   -0.1361 O   0  0  0  0  0  0  0  0  0  0  0  0
   -1.7496   -2.7378    0.8416 N   0  0  1  0  0  0  0  0  0  0  0  0
   -3.1343   -0.0629    1.0295 N   0  0  0  0  0  0  0  0  0  0  0  0
    0.8010   -1.0677    0.0130 N   0  0  0  0  0  0  0  0  0  0  0  0
    2.2047   -2.2127   -1.3844 N   0  0  0  0  0  0  0  0  0  0  0  0
   -3.3530   -1.2094    0.1112 C   0  0  1  0  0  0  0  0  0  0  0  0
   -1.3149   -2.3913   -0.5250 C   0  0  1  0  0  0  0  0  0  0  0  0
   -2.2528   -1.2435   -0.9466 C   0  0  0  0  0  0  0  0  0  0  0  0
   -3.1993   -2.5185    0.8680 C   0  0  0  0  0  0  0  0  0  0  0  0
    0.1473   -2.0108   -0.6171 C   0  0  0  0  0  0  0  0  0  0  0  0
   -1.3994   -4.0994    1.2282 C   0  0  0  0  0  0  0  0  0  0  0  0
   -2.6602    2.2328   -0.2929 C   0  0  0  0  0  0  0  0  0  0  0  0
    2.0590   -1.2304   -0.4901 C   0  0  0  0  0  0  0  0  0  0  0  0
   -2.6114    2.5728   -1.6269 C   0  0  0  0  0  0  0  0  0  0  0  0
    3.1487   -0.3930   -0.0793 C   0  0  0  0  0  0  0  0  0  0  0  0
   -1.3904    3.2229   -1.9689 C   0  0  0  0  0  0  0  0  0  0  0  0
   -0.5529    3.3553   -0.8833 C   0  0  0  0  0  0  0  0  0  0  0  0
    2.9367    0.6187    0.8574 C   0  0  0  0  0  0  0  0  0  0  0  0
    4.4206   -0.5900   -0.6173 C   0  0  0  0  0  0  0  0  0  0  0  0
    3.9965    1.4331    1.2565 C   0  0  0  0  0  0  0  0  0  0  0  0
    5.4804    0.2245   -0.2184 C   0  0  0  0  0  0  0  0  0  0  0  0
    5.2684    1.2360    0.7185 C   0  0  0  0  0  0  0  0  0  0  0  0
    6.4010    2.1075    1.1447 C   0  0  0  0  0  0  0  0  0  0  0  0
   -4.3489   -1.1547   -0.3375 H   0  0  0  0  0  0  0  0  0  0  0  0
   -1.5015   -3.2371   -1.2026 H   0  0  0  0  0  0  0  0  0  0  0  0
   -1.7280   -0.2902   -1.0499 H   0  0  0  0  0  0  0  0  0  0  0  0
   -2.6913   -1.4808   -1.9238 H   0  0  0  0  0  0  0  0  0  0  0  0
   -3.5819   -2.4623    1.8926 H   0  0  0  0  0  0  0  0  0  0  0  0
   -3.7294   -3.3192    0.3358 H   0  0  0  0  0  0  0  0  0  0  0  0
   -2.2203   -0.0564    1.5009 H   0  0  0  0  0  0  0  0  0  0  0  0
   -0.3125   -4.2344    1.2297 H   0  0  0  0  0  0  0  0  0  0  0  0
   -1.8378   -4.8489    0.5595 H   0  0  0  0  0  0  0  0  0  0  0  0
   -1.7447   -4.3057    2.2472 H   0  0  0  0  0  0  0  0  0  0  0  0
   -3.4104    2.3653   -2.3267 H   0  0  0  0  0  0  0  0  0  0  0  0
   -1.1390    3.5750   -2.9609 H   0  0  0  0  0  0  0  0  0  0  0  0
    0.4293    3.8058   -0.8585 H   0  0  0  0  0  0  0  0  0  0  0  0
    1.9575    0.7972    1.2947 H   0  0  0  0  0  0  0  0  0  0  0  0
    4.6240   -1.3679   -1.3490 H   0  0  0  0  0  0  0  0  0  0  0  0
    3.8193    2.2169    1.9881 H   0  0  0  0  0  0  0  0  0  0  0  0
    6.4672    0.0604   -0.6433 H   0  0  0  0  0  0  0  0  0  0  0  0
    6.9018    1.6734    2.0158 H   0  0  0  0  0  0  0  0  0  0  0  0
    7.1349    2.2239    0.3399 H   0  0  0  0  0  0  0  0  0  0  0  0
    6.0502    3.1118    1.4054 H   0  0  0  0  0  0  0  0  0  0  0  0
  1  4  2  0  0  0  0
  1  5  2  0  0  0  0
  1  7  1  0  0  0  0
  1 16  1  0  0  0  0
  2 16  1  0  0  0  0
  2 21  1  0  0  0  0
  3  9  1  0  0  0  0
  3 14  1  0  0  0  0
  6 11  1  0  0  0  0
  6 13  1  0  0  0  0
  6 15  1  0  0  0  0
  7 10  1  0  0  0  0
  7 34  1  0  0  0  0
  8 14  2  0  0  0  0
  8 17  1  0  0  0  0
  9 17  2  0  0  0  0
 10 12  1  0  0  0  0
 10 13  1  0  0  0  0
 10 28  1  0  0  0  0
 11 12  1  0  0  0  0
 11 14  1  0  0  0  0
 11 29  1  0  0  0  0
 12 30  1  0  0  0  0
 12 31  1  0  0  0  0
 13 32  1  0  0  0  0
 13 33  1  0  0  0  0
 15 35  1  0  0  0  0
 15 36  1  0  0  0  0
 15 37  1  0  0  0  0
 16 18  2  0  0  0  0
 17 19  1  0  0  0  0
 18 20  1  0  0  0  0
 18 38  1  0  0  0  0
 19 22  2  0  0  0  0
 19 23  1  0  0  0  0
 20 21  2  0  0  0  0
 20 39  1  0  0  0  0
 21 40  1  0  0  0  0
 22 24  1  0  0  0  0
 22 41  1  0  0  0  0
 23 25  2  0  0  0  0
 23 42  1  0  0  0  0
 24 26  2  0  0  0  0
 24 43  1  0  0  0  0
 25 26  1  0  0  0  0
 25 44  1  0  0  0  0
 26 27  1  0  0  0  0
 27 45  1  0  0  0  0
 27 46  1  0  0  0  0
 27 47  1  0  0  0  0
M  END
> <PUBCHEM_COMPOUND_CID>
25338365

> <PUBCHEM_CONFORMER_RMSD>
0.8

> <PUBCHEM_CONFORMER_DIVERSEORDER>
7
166
59
174
72
182
103
184
31
129
53
104
61
152
140
156
187
194
121
15
101
163
157
99
133
190
82
177
162
164
106
176
141
78
64
67
149
102
130
47
192
137
126
168
186
154
125
139
107
165
40
193
43
108
112
18
138
80
73
25
142
69
160
122
21
180
75
90
109
85
63
120
146
183
119
92
188
159
16
51
132
114
48
155
113
14
32
74
105
171
110
195
38
34
97
124
191
89
33
54
143
161
83
86
179
167
60
150
30
153
35
3
185
56
22
26
65
95
28
117
170
93
81
36
91
5
135
27
12
62
29
144
37
145
96
100
57
128
42
175
41
131
39
4
148
76
158
23
172
79
115
98
19
173
127
147
20
45
70
8
44
118
84
136
24
181
151
66
123
10
189
87
52
178
111
94
68
134
2
49
6
116
50
55
58
17
169
46
71
13
88
77
9
1
11

> <PUBCHEM_MMFF94_PARTIAL_CHARGES>
34
1 1.5
10 0.36
11 0.45
13 0.27
14 0.3
15 0.27
16 -0.02
17 0.46
18 -0.15
19 0.05
2 -0.08
20 -0.15
21 -0.11
22 -0.15
23 -0.15
24 -0.15
25 -0.15
26 -0.14
27 0.14
3 -0.02
34 0.42
38 0.15
39 0.15
4 -0.65
40 0.15
41 0.15
42 0.15
43 0.15
44 0.15
5 -0.65
6 -0.81
7 -0.91
8 -0.57
9 -0.41

> <PUBCHEM_EFFECTIVE_ROTOR_COUNT>
6

> <PUBCHEM_PHARMACOPHORE_FEATURES>
9
1 4 acceptor
1 5 acceptor
1 6 cation
1 7 donor
3 8 9 17 cation
5 2 16 18 20 21 rings
5 3 8 9 14 17 rings
5 6 10 11 12 13 rings
6 19 22 23 24 25 26 rings

> <PUBCHEM_HEAVY_ATOM_COUNT>
27

> <PUBCHEM_ATOM_DEF_STEREO_COUNT>
2

> <PUBCHEM_ATOM_UDEF_STEREO_COUNT>
0

> <PUBCHEM_BOND_DEF_STEREO_COUNT>
0

> <PUBCHEM_BOND_UDEF_STEREO_COUNT>
0

> <PUBCHEM_ISOTOPIC_ATOM_COUNT>
0

> <PUBCHEM_COMPONENT_COUNT>
1

> <PUBCHEM_CACTVS_TAUTO_COUNT>
1

> <PUBCHEM_CONFORMER_ID>
0182A1FD00000007

> <PUBCHEM_MMFF94_ENERGY>
47.0891

> <PUBCHEM_FEATURE_SELFOVERLAP>
45.69

> <PUBCHEM_SHAPE_FINGERPRINT>
10256941 240 17607779761072913260
10670039 82 18337122275728040940
10675989 125 17255096970883935516
10838868 49 15286182988074687221
11014199 57 17903641031098554778
11595378 159 17967245378221277032
12035758 1 18188227437760636113
12596602 18 15936992789519686060
13402501 40 18342737424874417881
13561361 72 18337386145322776136
13692115 46 12590153371265597595
14279260 333 17129596635704853398
14840074 17 18187376440491804597
15297060 5 17980804568494852716
15840311 113 17627534648720630457
20642791 13 18342183293311982827
21716022 299 15542879748239580095
22956985 138 16384520719320360002
23536364 44 16902739752384713950
238 59 17474368198602540589
25019877 29 17130439092912983735
3117164 225 18044919192214020826
3187 122 18262523722691443027
445580 44 17022893549865161212
469060 322 17676204693066651069
474144 1 17608104378811132084
4742675 86 18198600281199973964
508706 21 18410848880560310148
57307002 19 18188197711743977781
574716 61 14260769768070563984

> <PUBCHEM_SHAPE_MULTIPOLES>
525.81
11.06
4.93
1.54
15.4
0.76
0.11
-5.61
-3.85
-4.37
0.48
-0.46
-0.5
1.99

> <PUBCHEM_SHAPE_SELFOVERLAP>
1106.709

> <PUBCHEM_SHAPE_VOLUME>
299.1

> <PUBCHEM_COORDINATE_TYPE>
2
5
10

$$$$
