75536312
  -OEChem-12032416303D

 58 61  0     1  0  0  0  0  0999 V2000
    3.2855    0.0031    0.8609 O   0  0  0  0  0  0  0  0  0  0  0  0
    5.8593    1.1542    1.7205 O   0  0  0  0  0  0  0  0  0  0  0  0
   -0.1067   -2.7775   -1.3279 O   0  0  0  0  0  0  0  0  0  0  0  0
   -4.9502    2.1155    0.0849 O   0  0  0  0  0  0  0  0  0  0  0  0
    1.3904    1.9530    0.0093 N   0  0  0  0  0  0  0  0  0  0  0  0
    1.2772   -2.7309   -1.4437 N   0  0  0  0  0  0  0  0  0  0  0  0
    3.6558    1.3850    0.7698 C   0  0  1  0  0  0  0  0  0  0  0  0
    5.1633    1.5448    0.5338 C   0  0  2  0  0  0  0  0  0  0  0  0
    3.6664   -0.8035   -0.2563 C   0  0  1  0  0  0  0  0  0  0  0  0
    5.6682    0.6707   -0.6110 C   0  0  0  0  0  0  0  0  0  0  0  0
    5.1807   -0.7670   -0.4560 C   0  0  0  0  0  0  0  0  0  0  0  0
    2.8087    2.1143   -0.2709 C   0  0  0  0  0  0  0  0  0  0  0  0
    3.1898   -2.2242    0.0205 C   0  0  0  0  0  0  0  0  0  0  0  0
    1.7137   -2.3762   -0.2317 C   0  0  0  0  0  0  0  0  0  0  0  0
    0.5794    2.6564   -0.9761 C   0  0  0  0  0  0  0  0  0  0  0  0
    0.6611   -2.1873    0.6804 C   0  0  0  0  0  0  0  0  0  0  0  0
   -0.8930    2.5131   -0.6960 C   0  0  0  0  0  0  0  0  0  0  0  0
   -0.4615   -2.4518   -0.0585 C   0  0  0  0  0  0  0  0  0  0  0  0
   -1.8691   -2.4589    0.2154 C   0  0  0  0  0  0  0  0  0  0  0  0
   -1.5483    1.3201   -1.0011 C   0  0  0  0  0  0  0  0  0  0  0  0
   -1.6012    3.5726   -0.1290 C   0  0  0  0  0  0  0  0  0  0  0  0
   -2.9118    1.1867   -0.7392 C   0  0  0  0  0  0  0  0  0  0  0  0
   -2.9646    3.4393    0.1330 C   0  0  0  0  0  0  0  0  0  0  0  0
   -3.6200    2.2463   -0.1722 C   0  0  0  0  0  0  0  0  0  0  0  0
   -2.3328   -2.1405    1.4917 C   0  0  0  0  0  0  0  0  0  0  0  0
   -2.7745   -2.7842   -0.7945 C   0  0  0  0  0  0  0  0  0  0  0  0
   -3.7020   -2.1475    1.7584 C   0  0  0  0  0  0  0  0  0  0  0  0
   -4.1436   -2.7911   -0.5281 C   0  0  0  0  0  0  0  0  0  0  0  0
   -4.6074   -2.4728    0.7485 C   0  0  0  0  0  0  0  0  0  0  0  0
   -5.6126    3.2381    0.6653 C   0  0  0  0  0  0  0  0  0  0  0  0
    3.4233    1.8078    1.7561 H   0  0  0  0  0  0  0  0  0  0  0  0
    5.4115    2.5960    0.3501 H   0  0  0  0  0  0  0  0  0  0  0  0
    3.1750   -0.4284   -1.1621 H   0  0  0  0  0  0  0  0  0  0  0  0
    6.7640    0.6729   -0.6429 H   0  0  0  0  0  0  0  0  0  0  0  0
    5.3146    1.0718   -1.5680 H   0  0  0  0  0  0  0  0  0  0  0  0
    5.4681   -1.3528   -1.3365 H   0  0  0  0  0  0  0  0  0  0  0  0
    5.6794   -1.2168    0.4120 H   0  0  0  0  0  0  0  0  0  0  0  0
    3.0267    1.7465   -1.2793 H   0  0  0  0  0  0  0  0  0  0  0  0
    3.0714    3.1793   -0.2518 H   0  0  0  0  0  0  0  0  0  0  0  0
    3.4016   -2.5069    1.0595 H   0  0  0  0  0  0  0  0  0  0  0  0
    3.7210   -2.9374   -0.6230 H   0  0  0  0  0  0  0  0  0  0  0  0
    1.1575    0.9600    0.0042 H   0  0  0  0  0  0  0  0  0  0  0  0
    6.8076    1.3069    1.5687 H   0  0  0  0  0  0  0  0  0  0  0  0
    0.7793    2.2750   -1.9862 H   0  0  0  0  0  0  0  0  0  0  0  0
    0.8433    3.7217   -0.9904 H   0  0  0  0  0  0  0  0  0  0  0  0
    0.7218   -1.8997    1.7199 H   0  0  0  0  0  0  0  0  0  0  0  0
   -1.0080    0.4898   -1.4479 H   0  0  0  0  0  0  0  0  0  0  0  0
   -1.1022    4.5065    0.1160 H   0  0  0  0  0  0  0  0  0  0  0  0
   -3.4210    0.2610   -0.9875 H   0  0  0  0  0  0  0  0  0  0  0  0
   -3.4532    4.3008    0.5750 H   0  0  0  0  0  0  0  0  0  0  0  0
   -1.6521   -1.8818    2.2987 H   0  0  0  0  0  0  0  0  0  0  0  0
   -2.4525   -3.0366   -1.8015 H   0  0  0  0  0  0  0  0  0  0  0  0
   -4.0635   -1.8986    2.7519 H   0  0  0  0  0  0  0  0  0  0  0  0
   -4.8492   -3.0433   -1.3143 H   0  0  0  0  0  0  0  0  0  0  0  0
   -5.6735   -2.4773    0.9557 H   0  0  0  0  0  0  0  0  0  0  0  0
   -6.6628    2.9593    0.8004 H   0  0  0  0  0  0  0  0  0  0  0  0
   -5.5956    4.1054   -0.0034 H   0  0  0  0  0  0  0  0  0  0  0  0
   -5.2136    3.4714    1.6583 H   0  0  0  0  0  0  0  0  0  0  0  0
  1  7  1  0  0  0  0
  1  9  1  0  0  0  0
  2  8  1  0  0  0  0
  2 43  1  0  0  0  0
  3  6  1  0  0  0  0
  3 18  1  0  0  0  0
  4 24  1  0  0  0  0
  4 30  1  0  0  0  0
  5 12  1  0  0  0  0
  5 15  1  0  0  0  0
  5 42  1  0  0  0  0
  6 14  2  0  0  0  0
  7  8  1  0  0  0  0
  7 12  1  0  0  0  0
  7 31  1  0  0  0  0
  8 10  1  0  0  0  0
  8 32  1  0  0  0  0
  9 11  1  0  0  0  0
  9 13  1  0  0  0  0
  9 33  1  0  0  0  0
 10 11  1  0  0  0  0
 10 34  1  0  0  0  0
 10 35  1  0  0  0  0
 11 36  1  0  0  0  0
 11 37  1  0  0  0  0
 12 38  1  0  0  0  0
 12 39  1  0  0  0  0
 13 14  1  0  0  0  0
 13 40  1  0  0  0  0
 13 41  1  0  0  0  0
 14 16  1  0  0  0  0
 15 17  1  0  0  0  0
 15 44  1  0  0  0  0
 15 45  1  0  0  0  0
 16 18  2  0  0  0  0
 16 46  1  0  0  0  0
 17 20  2  0  0  0  0
 17 21  1  0  0  0  0
 18 19  1  0  0  0  0
 19 25  2  0  0  0  0
 19 26  1  0  0  0  0
 20 22  1  0  0  0  0
 20 47  1  0  0  0  0
 21 23  2  0  0  0  0
 21 48  1  0  0  0  0
 22 24  2  0  0  0  0
 22 49  1  0  0  0  0
 23 24  1  0  0  0  0
 23 50  1  0  0  0  0
 25 27  1  0  0  0  0
 25 51  1  0  0  0  0
 26 28  2  0  0  0  0
 26 52  1  0  0  0  0
 27 29  2  0  0  0  0
 27 53  1  0  0  0  0
 28 29  1  0  0  0  0
 28 54  1  0  0  0  0
 29 55  1  0  0  0  0
 30 56  1  0  0  0  0
 30 57  1  0  0  0  0
 30 58  1  0  0  0  0
M  END
> <PUBCHEM_COMPOUND_CID>
75536312

> <PUBCHEM_CONFORMER_RMSD>
1

> <PUBCHEM_CONFORMER_DIVERSEORDER>
1
56
104
45
131
33
14
72
13
130
120
81
58
17
142
78
73
46
96
87
153
64
63
135
20
125
42
159
28
90
102
74
37
160
50
151
79
152
122
4
100
85
84
165
143
161
123
35
86
110
103
88
32
3
128
127
118
150
179
39
65
134
25
137
26
61
101
27
116
68
149
129
147
177
170
158
21
108
54
70
136
115
112
93
29
148
154
10
106
55
175
99
31
168
18
156
98
162
132
141
71
19
34
67
178
76
111
126
24
40
173
91
140
12
38
113
48
51
117
167
166
80
164
172
163
155
109
97
82
145
169
176
174
138
8
144
69
77
47
121
15
105
157
59
6
83
146
114
5
62
66
36
94
43
53
92
124
2
9
44
139
75
89
107
95
57
119
16
23
22
133
52
41
49
171
7
60
30
11

> <PUBCHEM_MMFF94_PARTIAL_CHARGES>
40
1 -0.56
12 0.27
13 0.18
14 0.11
15 0.41
16 -0.15
17 -0.14
18 0.09
19 0.05
2 -0.68
20 -0.15
21 -0.15
22 -0.15
23 -0.15
24 0.08
25 -0.15
26 -0.15
27 -0.15
28 -0.15
29 -0.15
3 -0.02
30 0.28
4 -0.36
42 0.36
43 0.4
46 0.15
47 0.15
48 0.15
49 0.15
5 -0.9
50 0.15
51 0.15
52 0.15
53 0.15
54 0.15
55 0.15
6 -0.41
7 0.28
8 0.28
9 0.28

> <PUBCHEM_EFFECTIVE_ROTOR_COUNT>
9.2

> <PUBCHEM_PHARMACOPHORE_FEATURES>
11
1 1 acceptor
1 2 acceptor
1 2 donor
1 4 acceptor
1 5 cation
1 5 donor
1 6 acceptor
5 3 6 14 16 18 rings
6 1 7 8 9 10 11 rings
6 17 20 21 22 23 24 rings
6 19 25 26 27 28 29 rings

> <PUBCHEM_HEAVY_ATOM_COUNT>
30

> <PUBCHEM_ATOM_DEF_STEREO_COUNT>
3

> <PUBCHEM_ATOM_UDEF_STEREO_COUNT>
0

> <PUBCHEM_BOND_DEF_STEREO_COUNT>
0

> <PUBCHEM_BOND_UDEF_STEREO_COUNT>
0

> <PUBCHEM_ISOTOPIC_ATOM_COUNT>
0

> <PUBCHEM_COMPONENT_COUNT>
1

> <PUBCHEM_CACTVS_TAUTO_COUNT>
1

> <PUBCHEM_CONFORMER_ID>
048097B800000001

> <PUBCHEM_MMFF94_ENERGY>
69.2499

> <PUBCHEM_FEATURE_SELFOVERLAP>
55.824

> <PUBCHEM_SHAPE_FINGERPRINT>
10006869 2 18335690599566500915
10316853 100 18119823417349964985
10670039 82 18261124006272519422
10864689 126 17760938342239859029
1100329 8 17975688386441175938
11135609 187 18193255444078567069
11513181 2 18202279169507464471
12422481 6 18193021346727063675
12788726 201 18048049745987798100
13140716 1 18264201427001083250
13402501 40 18410855464444234613
1361 2 18192995916242053769
14363568 33 17541399258737164600
14840074 17 18123479533492438042
15927050 60 18340484457631371101
15968369 153 18342747347029268677
17852330 162 18193870166242267964
20764821 26 18335703823210915071
21133410 90 17561358495911334953
21197605 99 18412547583423541831
21796203 349 17684401676637520384
24941158 1 16700918006605376924
3052486 1 18261116296579336868
338550 245 18261682552945763908
463206 1 18410856512606828109
469060 322 16805318903142033679
508706 21 18335986444986384162
5309563 4 17975981178466762123
653340 110 18340481257400784936

> <PUBCHEM_SHAPE_MULTIPOLES>
583.95
11.99
5.66
1.23
7.72
1.03
0.21
3.84
2.96
-6.69
-0.34
-0.04
-0.46
0.93

> <PUBCHEM_SHAPE_SELFOVERLAP>
1247.737

> <PUBCHEM_SHAPE_VOLUME>
324.4

> <PUBCHEM_COORDINATE_TYPE>
2
5
10

$$$$
