40778215
  -OEChem-12032416173D

 66 68  0     1  0  0  0  0  0999 V2000
   -3.5274   -0.3792   -0.5028 O   0  0  0  0  0  0  0  0  0  0  0  0
   -4.6537   -3.3528    1.1671 O   0  0  0  0  0  0  0  0  0  0  0  0
   -6.2156   -1.8045   -0.4857 O   0  0  0  0  0  0  0  0  0  0  0  0
   -1.4438   -1.2362   -1.8827 O   0  0  0  0  0  0  0  0  0  0  0  0
    5.2260   -1.1523   -1.4281 O   0  0  0  0  0  0  0  0  0  0  0  0
   -1.7261    1.6148    0.7796 O   0  0  0  0  0  0  0  0  0  0  0  0
    0.3966   -1.7190   -0.5525 N   0  0  0  0  0  0  0  0  0  0  0  0
    2.9480   -0.7486    0.1631 N   0  0  0  0  0  0  0  0  0  0  0  0
   -3.9119    2.3027    0.3965 N   0  0  0  0  0  0  0  0  0  0  0  0
   -2.1509    3.6245   -0.2993 N   0  0  0  0  0  0  0  0  0  0  0  0
   -3.3377   -1.7461   -0.0968 C   0  0  2  0  0  0  0  0  0  0  0  0
   -4.3377   -1.9847    1.0218 C   0  0  1  0  0  0  0  0  0  0  0  0
   -5.5111   -1.1431    0.5644 C   0  0  1  0  0  0  0  0  0  0  0  0
   -4.8147    0.0771   -0.0280 C   0  0  1  0  0  0  0  0  0  0  0  0
   -1.8959   -1.9578    0.3290 C   0  0  0  0  0  0  0  0  0  0  0  0
   -4.5706    1.1788    0.9939 C   0  0  0  0  0  0  0  0  0  0  0  0
   -0.9681   -1.6044   -0.8057 C   0  0  0  0  0  0  0  0  0  0  0  0
    0.9995   -2.1516    0.7097 C   0  0  0  0  0  0  0  0  0  0  0  0
    1.3684   -1.4203   -1.6013 C   0  0  0  0  0  0  0  0  0  0  0  0
    1.9925   -1.1075    1.2201 C   0  0  0  0  0  0  0  0  0  0  0  0
    2.3632   -0.3618   -1.1309 C   0  0  0  0  0  0  0  0  0  0  0  0
    4.1851   -0.1930    0.5091 C   0  0  0  0  0  0  0  0  0  0  0  0
   -2.5214    2.4402    0.3326 C   0  0  0  0  0  0  0  0  0  0  0  0
    5.3069   -0.4020   -0.2932 C   0  0  0  0  0  0  0  0  0  0  0  0
    4.2898    0.5772    1.6674 C   0  0  0  0  0  0  0  0  0  0  0  0
   -0.7729    4.0088   -0.4956 C   0  0  0  0  0  0  0  0  0  0  0  0
    6.5334    0.1588    0.0628 C   0  0  0  0  0  0  0  0  0  0  0  0
    5.5163    1.1384    2.0233 C   0  0  0  0  0  0  0  0  0  0  0  0
    6.6382    0.9291    1.2211 C   0  0  0  0  0  0  0  0  0  0  0  0
   -0.6353    5.5252   -0.4555 C   0  0  0  0  0  0  0  0  0  0  0  0
   -0.2407    3.4405   -1.8052 C   0  0  0  0  0  0  0  0  0  0  0  0
    5.4716   -2.5511   -1.2982 C   0  0  0  0  0  0  0  0  0  0  0  0
   -3.5660   -2.3868   -0.9593 H   0  0  0  0  0  0  0  0  0  0  0  0
   -3.9517   -1.6072    1.9762 H   0  0  0  0  0  0  0  0  0  0  0  0
   -6.2260   -0.9222    1.3621 H   0  0  0  0  0  0  0  0  0  0  0  0
   -5.3550    0.4782   -0.8935 H   0  0  0  0  0  0  0  0  0  0  0  0
   -1.7378   -3.0004    0.6228 H   0  0  0  0  0  0  0  0  0  0  0  0
   -1.6618   -1.2970    1.1717 H   0  0  0  0  0  0  0  0  0  0  0  0
   -3.9486    0.8191    1.8209 H   0  0  0  0  0  0  0  0  0  0  0  0
   -5.5195    1.5373    1.4059 H   0  0  0  0  0  0  0  0  0  0  0  0
    1.5174   -3.0970    0.5064 H   0  0  0  0  0  0  0  0  0  0  0  0
    0.2532   -2.3527    1.4800 H   0  0  0  0  0  0  0  0  0  0  0  0
    0.8685   -1.0813   -2.5141 H   0  0  0  0  0  0  0  0  0  0  0  0
    1.8896   -2.3559   -1.8378 H   0  0  0  0  0  0  0  0  0  0  0  0
    1.4454   -0.2118    1.5405 H   0  0  0  0  0  0  0  0  0  0  0  0
    2.5091   -1.5273    2.0918 H   0  0  0  0  0  0  0  0  0  0  0  0
    3.1067   -0.2092   -1.9182 H   0  0  0  0  0  0  0  0  0  0  0  0
    1.8433    0.5969   -1.0017 H   0  0  0  0  0  0  0  0  0  0  0  0
   -5.3783   -3.4175    1.8123 H   0  0  0  0  0  0  0  0  0  0  0  0
   -6.9333   -1.2137   -0.7711 H   0  0  0  0  0  0  0  0  0  0  0  0
   -4.4864    3.0342   -0.0107 H   0  0  0  0  0  0  0  0  0  0  0  0
    3.4356    0.7758    2.3083 H   0  0  0  0  0  0  0  0  0  0  0  0
   -2.8803    4.2050   -0.7022 H   0  0  0  0  0  0  0  0  0  0  0  0
   -0.1811    3.5871    0.3259 H   0  0  0  0  0  0  0  0  0  0  0  0
    7.4115    0.0009   -0.5575 H   0  0  0  0  0  0  0  0  0  0  0  0
    5.5975    1.7415    2.9230 H   0  0  0  0  0  0  0  0  0  0  0  0
    7.5928    1.3668    1.4978 H   0  0  0  0  0  0  0  0  0  0  0  0
   -1.2148    5.9992   -1.2557 H   0  0  0  0  0  0  0  0  0  0  0  0
   -1.0023    5.9231    0.4970 H   0  0  0  0  0  0  0  0  0  0  0  0
    0.4113    5.8267   -0.5678 H   0  0  0  0  0  0  0  0  0  0  0  0
   -0.8119    3.8153   -2.6618 H   0  0  0  0  0  0  0  0  0  0  0  0
   -0.3123    2.3472   -1.8156 H   0  0  0  0  0  0  0  0  0  0  0  0
    0.8105    3.7101   -1.9508 H   0  0  0  0  0  0  0  0  0  0  0  0
    5.3534   -3.0119   -2.2828 H   0  0  0  0  0  0  0  0  0  0  0  0
    4.7533   -3.0085   -0.6105 H   0  0  0  0  0  0  0  0  0  0  0  0
    6.4933   -2.7297   -0.9483 H   0  0  0  0  0  0  0  0  0  0  0  0
  1 11  1  0  0  0  0
  1 14  1  0  0  0  0
  2 12  1  0  0  0  0
  2 49  1  0  0  0  0
  3 13  1  0  0  0  0
  3 50  1  0  0  0  0
  4 17  2  0  0  0  0
  5 24  1  0  0  0  0
  5 32  1  0  0  0  0
  6 23  2  0  0  0  0
  7 17  1  0  0  0  0
  7 18  1  0  0  0  0
  7 19  1  0  0  0  0
  8 20  1  0  0  0  0
  8 21  1  0  0  0  0
  8 22  1  0  0  0  0
  9 16  1  0  0  0  0
  9 23  1  0  0  0  0
  9 51  1  0  0  0  0
 10 23  1  0  0  0  0
 10 26  1  0  0  0  0
 10 53  1  0  0  0  0
 11 12  1  0  0  0  0
 11 15  1  0  0  0  0
 11 33  1  0  0  0  0
 12 13  1  0  0  0  0
 12 34  1  0  0  0  0
 13 14  1  0  0  0  0
 13 35  1  0  0  0  0
 14 16  1  0  0  0  0
 14 36  1  0  0  0  0
 15 17  1  0  0  0  0
 15 37  1  0  0  0  0
 15 38  1  0  0  0  0
 16 39  1  0  0  0  0
 16 40  1  0  0  0  0
 18 20  1  0  0  0  0
 18 41  1  0  0  0  0
 18 42  1  0  0  0  0
 19 21  1  0  0  0  0
 19 43  1  0  0  0  0
 19 44  1  0  0  0  0
 20 45  1  0  0  0  0
 20 46  1  0  0  0  0
 21 47  1  0  0  0  0
 21 48  1  0  0  0  0
 22 24  1  0  0  0  0
 22 25  2  0  0  0  0
 24 27  2  0  0  0  0
 25 28  1  0  0  0  0
 25 52  1  0  0  0  0
 26 30  1  0  0  0  0
 26 31  1  0  0  0  0
 26 54  1  0  0  0  0
 27 29  1  0  0  0  0
 27 55  1  0  0  0  0
 28 29  2  0  0  0  0
 28 56  1  0  0  0  0
 29 57  1  0  0  0  0
 30 58  1  0  0  0  0
 30 59  1  0  0  0  0
 30 60  1  0  0  0  0
 31 61  1  0  0  0  0
 31 62  1  0  0  0  0
 31 63  1  0  0  0  0
 32 64  1  0  0  0  0
 32 65  1  0  0  0  0
 32 66  1  0  0  0  0
M  END
> <PUBCHEM_COMPOUND_CID>
40778215

> <PUBCHEM_CONFORMER_RMSD>
1.2

> <PUBCHEM_CONFORMER_DIVERSEORDER>
1
121
203
22
202
204
112
169
102
96
26
210
33
216
116
179
129
71
55
120
67
43
36
53
232
12
143
200
163
65
159
164
80
207
128
78
189
218
108
152
155
132
110
171
197
124
66
173
167
196
77
181
56
170
106
174
107
137
168
190
213
98
74
90
175
32
156
226
183
28
219
62
148
114
157
209
6
38
150
158
222
91
187
75
153
119
57
79
31
223
208
70
118
228
211
50
178
149
122
142
103
130
100
113
49
88
59
165
191
44
192
180
17
34
194
140
61
133
135
199
99
154
93
126
9
15
127
63
182
141
214
161
212
139
184
195
46
198
60
201
229
205
45
176
147
2
5
54
215
85
40
188
123
233
185
29
89
86
193
217
97
144
172
166
30
115
11
14
41
177
94
84
64
83
224
21
221
134
81
68
95
24
25
111
225
206
104
220
42
69
151
48
20
7
47
162
87
109
145
52
146
3
73
101
27
105
227
76
125
23
230
82
19
117
51
231
160
136
37
16
72
138
58
131
18
4
186
13
35
39
10
92
8

> <PUBCHEM_MMFF94_PARTIAL_CHARGES>
38
1 -0.56
10 -0.73
11 0.28
12 0.28
13 0.28
14 0.28
15 0.06
16 0.3
17 0.57
18 0.3
19 0.3
2 -0.68
20 0.37
21 0.37
22 0.1
23 0.69
24 0.08
25 -0.15
26 0.3
27 -0.15
28 -0.15
29 -0.15
3 -0.68
32 0.28
4 -0.57
49 0.4
5 -0.36
50 0.4
51 0.37
52 0.15
53 0.37
55 0.15
56 0.15
57 0.15
6 -0.57
7 -0.66
8 -0.84
9 -0.73

> <PUBCHEM_EFFECTIVE_ROTOR_COUNT>
12.2

> <PUBCHEM_PHARMACOPHORE_FEATURES>
15
1 1 acceptor
1 10 donor
1 2 acceptor
1 2 donor
1 3 acceptor
1 3 donor
1 4 acceptor
1 5 acceptor
1 6 acceptor
1 8 cation
1 9 donor
3 26 30 31 hydrophobe
5 1 11 12 13 14 rings
6 22 24 25 27 28 29 rings
6 7 8 18 19 20 21 rings

> <PUBCHEM_HEAVY_ATOM_COUNT>
32

> <PUBCHEM_ATOM_DEF_STEREO_COUNT>
4

> <PUBCHEM_ATOM_UDEF_STEREO_COUNT>
0

> <PUBCHEM_BOND_DEF_STEREO_COUNT>
0

> <PUBCHEM_BOND_UDEF_STEREO_COUNT>
0

> <PUBCHEM_ISOTOPIC_ATOM_COUNT>
0

> <PUBCHEM_COMPONENT_COUNT>
1

> <PUBCHEM_CACTVS_TAUTO_COUNT>
3

> <PUBCHEM_CONFORMER_ID>
026E39E700000001

> <PUBCHEM_MMFF94_ENERGY>
97.8551

> <PUBCHEM_FEATURE_SELFOVERLAP>
76.193

> <PUBCHEM_SHAPE_FINGERPRINT>
10256941 240 17609762107286063380
10670039 82 18335144142423925518
11059845 2 17541070110478037656
11578080 2 12246585301306864537
11595378 159 18188760665980926760
12128747 34 18195534688453633798
12422481 6 18201728361510548761
12596602 18 17676763271107167266
13402501 40 18131628989097049912
13561361 72 18411413995462494616
13782708 43 17988933227889454878
14028597 1 17604133879694276232
14394314 77 18337112264165015945
15001296 14 18114752645500317284
15183329 4 15913333511214279226
15419008 145 18336531735083707392
15419008 47 18201723968260282272
15961568 22 18412262835217573453
15968369 153 18271522117480082996
16067690 210 18187635912688460632
17627616 140 17686627152928807837
18336668 15 18040718091037754733
19611394 137 18043541714128466251
21033648 29 17917703612982318563
21315764 268 18201717336862022474
21716022 299 16118199143306825333
22956985 138 17323525563044527715
24771293 8 18272092635772431321
25019877 29 17059780034799933247
373842 8 18264771154328657640
392239 28 18261396688775974115
469060 322 17749107764423277748
508706 21 18339919299374104748
653340 110 18265613178335167228

> <PUBCHEM_SHAPE_MULTIPOLES>
603.41
15.47
4.98
1.59
10.95
7.95
-0.1
-5.65
4.28
-5.01
-1.19
1.56
-0.06
2.1

> <PUBCHEM_SHAPE_SELFOVERLAP>
1250.762

> <PUBCHEM_SHAPE_VOLUME>
343.8

> <PUBCHEM_COORDINATE_TYPE>
2
5
10

$$$$
