45783784
  -OEChem-12032416263D

 49 52  0     1  0  0  0  0  0999 V2000
   -1.1916   -1.5311    1.9568 O   0  0  0  0  0  0  0  0  0  0  0  0
   -3.4603   -0.3985   -0.7031 N   0  0  1  0  0  0  0  0  0  0  0  0
   -0.5917   -0.9973   -0.1341 N   0  0  0  0  0  0  0  0  0  0  0  0
    0.2063   -1.4442    1.9630 N   0  0  0  0  0  0  0  0  0  0  0  0
    4.1955   -0.8933    0.6999 N   0  0  0  0  0  0  0  0  0  0  0  0
    5.7326   -0.3849   -1.0478 N   0  0  0  0  0  0  0  0  0  0  0  0
   -3.0697   -1.2833    0.4126 C   0  0  1  0  0  0  0  0  0  0  0  0
   -3.5714   -2.6791   -0.0010 C   0  0  0  0  0  0  0  0  0  0  0  0
   -4.2825   -2.4684   -1.3302 C   0  0  0  0  0  0  0  0  0  0  0  0
   -4.6490   -0.9982   -1.3096 C   0  0  0  0  0  0  0  0  0  0  0  0
   -3.6918    0.9795   -0.2895 C   0  0  0  0  0  0  0  0  0  0  0  0
   -1.5803   -1.2544    0.6846 C   0  0  0  0  0  0  0  0  0  0  0  0
   -2.4025    1.7393   -0.1241 C   0  0  0  0  0  0  0  0  0  0  0  0
   -2.0852    2.3146    1.1064 C   0  0  0  0  0  0  0  0  0  0  0  0
   -1.5268    1.8705   -1.2019 C   0  0  0  0  0  0  0  0  0  0  0  0
    0.4843   -1.1257    0.6952 C   0  0  0  0  0  0  0  0  0  0  0  0
   -0.8923    3.0210    1.2590 C   0  0  0  0  0  0  0  0  0  0  0  0
   -0.3339    2.5770   -1.0493 C   0  0  0  0  0  0  0  0  0  0  0  0
   -0.0164    3.1522    0.1812 C   0  0  0  0  0  0  0  0  0  0  0  0
    1.8254   -0.9305    0.2249 C   0  0  0  0  0  0  0  0  0  0  0  0
    1.2588    3.9082    0.3448 C   0  0  0  0  0  0  0  0  0  0  0  0
    2.0785   -0.6011   -1.1020 C   0  0  0  0  0  0  0  0  0  0  0  0
    2.9088   -1.0637    1.0782 C   0  0  0  0  0  0  0  0  0  0  0  0
    3.3892   -0.4178   -1.5291 C   0  0  0  0  0  0  0  0  0  0  0  0
    4.4027   -0.5739   -0.5973 C   0  0  0  0  0  0  0  0  0  0  0  0
    6.8634   -0.5169   -0.1878 C   0  0  0  0  0  0  0  0  0  0  0  0
   -3.5961   -1.0014    1.3355 H   0  0  0  0  0  0  0  0  0  0  0  0
   -2.7748   -3.4245   -0.0998 H   0  0  0  0  0  0  0  0  0  0  0  0
   -4.2875   -3.0488    0.7432 H   0  0  0  0  0  0  0  0  0  0  0  0
   -5.1564   -3.1174   -1.4394 H   0  0  0  0  0  0  0  0  0  0  0  0
   -3.5948   -2.6799   -2.1584 H   0  0  0  0  0  0  0  0  0  0  0  0
   -4.8350   -0.6161   -2.3181 H   0  0  0  0  0  0  0  0  0  0  0  0
   -5.5444   -0.8378   -0.6956 H   0  0  0  0  0  0  0  0  0  0  0  0
   -4.2595    1.5115   -1.0660 H   0  0  0  0  0  0  0  0  0  0  0  0
   -4.3108    1.0339    0.6156 H   0  0  0  0  0  0  0  0  0  0  0  0
   -2.7570    2.2186    1.9551 H   0  0  0  0  0  0  0  0  0  0  0  0
   -1.7622    1.4317   -2.1680 H   0  0  0  0  0  0  0  0  0  0  0  0
   -0.6553    3.4623    2.2235 H   0  0  0  0  0  0  0  0  0  0  0  0
    0.3414    2.6707   -1.8956 H   0  0  0  0  0  0  0  0  0  0  0  0
    1.1700    4.6737    1.1231 H   0  0  0  0  0  0  0  0  0  0  0  0
    1.5320    4.4235   -0.5822 H   0  0  0  0  0  0  0  0  0  0  0  0
    2.0678    3.2234    0.6182 H   0  0  0  0  0  0  0  0  0  0  0  0
    1.2753   -0.4810   -1.8243 H   0  0  0  0  0  0  0  0  0  0  0  0
    2.7971   -1.3183    2.1280 H   0  0  0  0  0  0  0  0  0  0  0  0
    3.5933   -0.1611   -2.5635 H   0  0  0  0  0  0  0  0  0  0  0  0
    5.8562    0.0719   -1.9450 H   0  0  0  0  0  0  0  0  0  0  0  0
    6.9272   -1.5263    0.2315 H   0  0  0  0  0  0  0  0  0  0  0  0
    7.7837   -0.3331   -0.7510 H   0  0  0  0  0  0  0  0  0  0  0  0
    6.8245    0.2069    0.6328 H   0  0  0  0  0  0  0  0  0  0  0  0
  1  4  1  0  0  0  0
  1 12  1  0  0  0  0
  2  7  1  0  0  0  0
  2 10  1  0  0  0  0
  2 11  1  0  0  0  0
  3 12  2  0  0  0  0
  3 16  1  0  0  0  0
  4 16  2  0  0  0  0
  5 23  1  0  0  0  0
  5 25  2  0  0  0  0
  6 25  1  0  0  0  0
  6 26  1  0  0  0  0
  6 46  1  0  0  0  0
  7  8  1  0  0  0  0
  7 12  1  0  0  0  0
  7 27  1  0  0  0  0
  8  9  1  0  0  0  0
  8 28  1  0  0  0  0
  8 29  1  0  0  0  0
  9 10  1  0  0  0  0
  9 30  1  0  0  0  0
  9 31  1  0  0  0  0
 10 32  1  0  0  0  0
 10 33  1  0  0  0  0
 11 13  1  0  0  0  0
 11 34  1  0  0  0  0
 11 35  1  0  0  0  0
 13 14  2  0  0  0  0
 13 15  1  0  0  0  0
 14 17  1  0  0  0  0
 14 36  1  0  0  0  0
 15 18  2  0  0  0  0
 15 37  1  0  0  0  0
 16 20  1  0  0  0  0
 17 19  2  0  0  0  0
 17 38  1  0  0  0  0
 18 19  1  0  0  0  0
 18 39  1  0  0  0  0
 19 21  1  0  0  0  0
 20 22  1  0  0  0  0
 20 23  2  0  0  0  0
 21 40  1  0  0  0  0
 21 41  1  0  0  0  0
 21 42  1  0  0  0  0
 22 24  2  0  0  0  0
 22 43  1  0  0  0  0
 23 44  1  0  0  0  0
 24 25  1  0  0  0  0
 24 45  1  0  0  0  0
 26 47  1  0  0  0  0
 26 48  1  0  0  0  0
 26 49  1  0  0  0  0
M  END
> <PUBCHEM_COMPOUND_CID>
45783784

> <PUBCHEM_CONFORMER_RMSD>
0.8

> <PUBCHEM_CONFORMER_DIVERSEORDER>
1
59
46
14
41
17
58
7
51
12
29
53
57
3
43
18
45
50
21
48
52
33
5
55
19
44
36
8
10
30
56
60
35
20
24
15
2
39
22
38
27
28
42
54
31
37
9
25
32
47
40
13
26
16
4
34
49
11
23
6

> <PUBCHEM_MMFF94_PARTIAL_CHARGES>
32
1 -0.02
10 0.27
11 0.41
12 0.3
13 -0.14
14 -0.15
15 -0.15
16 0.46
17 -0.15
18 -0.15
19 -0.14
2 -0.81
20 0.05
21 0.14
22 -0.15
23 0.16
24 -0.15
25 0.41
26 0.37
3 -0.57
36 0.15
37 0.15
38 0.15
39 0.15
4 -0.41
43 0.15
44 0.15
45 0.15
46 0.4
5 -0.62
6 -0.87
7 0.45

> <PUBCHEM_EFFECTIVE_ROTOR_COUNT>
6

> <PUBCHEM_PHARMACOPHORE_FEATURES>
8
1 2 cation
1 6 donor
3 3 4 16 cation
3 5 6 25 cation
5 1 3 4 12 16 rings
5 2 7 8 9 10 rings
6 13 14 15 17 18 19 rings
6 5 20 22 23 24 25 rings

> <PUBCHEM_HEAVY_ATOM_COUNT>
26

> <PUBCHEM_ATOM_DEF_STEREO_COUNT>
1

> <PUBCHEM_ATOM_UDEF_STEREO_COUNT>
0

> <PUBCHEM_BOND_DEF_STEREO_COUNT>
0

> <PUBCHEM_BOND_UDEF_STEREO_COUNT>
0

> <PUBCHEM_ISOTOPIC_ATOM_COUNT>
0

> <PUBCHEM_COMPONENT_COUNT>
1

> <PUBCHEM_CACTVS_TAUTO_COUNT>
8

> <PUBCHEM_CONFORMER_ID>
02BA9AE800000001

> <PUBCHEM_MMFF94_ENERGY>
61.4133

> <PUBCHEM_FEATURE_SELFOVERLAP>
40.598

> <PUBCHEM_SHAPE_FINGERPRINT>
10871710 139 18115026277903330589
10937287 8 17405996154144962432
1100329 8 18411984642144977489
121448 382 18115313267575558904
12156800 1 15218586133953029692
12166972 35 17604153734779640966
12293681 25 17031631618201551235
12596599 1 18201726115337786817
12788726 201 18262513693568169698
13009979 54 17681529477519614651
13782708 43 17560532707720207950
14787075 74 18334012796272049076
14790565 3 17835799699640837209
14910302 57 17845091770837466326
14955137 171 18269014037262381019
16090146 7 17846506942120694667
17349148 13 17895194372779556658
17357779 13 18341888623419908489
17492 54 18115855322966837461
17818456 19 17975961078067335522
19319366 153 17679299668523390939
20642791 239 18188479208374443693
20642791 35 18336531782059698229
20691752 17 17677033755410571849
20715895 44 16669345350068600149
20775438 99 17259318490223729415
20905425 154 18122906701272800109
21344244 246 17837199751203360559
21623110 236 18337122249542005080
23402539 116 18410294713720271638
23419403 2 18046878701610979789
23557571 272 18272933795403317702
23559900 14 18339913939397097145
392239 28 18410858742232840712
4280585 95 18339632421243548476
469060 322 17387442114832954473
5171179 24 18270674389171455000
531348 171 18127701431064206742
57527585 103 17388857203135172194
7471813 234 18339924938902995886

> <PUBCHEM_SHAPE_MULTIPOLES>
504.29
10.23
3.88
1.52
14.25
4.1
0.2
-6.92
-3.75
-2.76
0.5
-0.13
-0.3
-0.53

> <PUBCHEM_SHAPE_SELFOVERLAP>
1091.324

> <PUBCHEM_SHAPE_VOLUME>
278.6

> <PUBCHEM_COORDINATE_TYPE>
2
5
10

$$$$
