9424632
  -OEChem-12032416333D

 64 68  0     1  0  0  0  0  0999 V2000
   -8.4458   -2.8317   -0.1738 Cl  0  0  0  0  0  0  0  0  0  0  0  0
    2.3261    3.7547   -2.6569 O   0  0  0  0  0  0  0  0  0  0  0  0
    5.2700   -4.4895   -1.5799 O   0  0  0  0  0  0  0  0  0  0  0  0
   -2.6956    0.6051   -1.4892 O   0  0  0  0  0  0  0  0  0  0  0  0
    2.6385    0.3886    1.0517 N   0  0  2  0  0  0  0  0  0  0  0  0
    1.6242    2.9419   -0.5755 N   0  0  0  0  0  0  0  0  0  0  0  0
    3.8550   -3.5156   -0.0154 N   0  0  0  0  0  0  0  0  0  0  0  0
   -1.6972    1.6634    0.3155 N   0  0  0  0  0  0  0  0  0  0  0  0
   -3.6313    0.4857    0.6600 N   0  0  0  0  0  0  0  0  0  0  0  0
    3.2039    2.8006    1.4385 C   0  0  1  0  0  0  0  0  0  0  0  0
    0.8827    2.0568    1.6582 C   0  0  2  0  0  0  0  0  0  0  0  0
    1.9353    2.9895    2.2530 C   0  0  0  0  0  0  0  0  0  0  0  0
    3.6683    1.3306    1.5069 C   0  0  0  0  0  0  0  0  0  0  0  0
    1.3705    0.5940    1.7675 C   0  0  0  0  0  0  0  0  0  0  0  0
    3.0962   -0.9923    1.1841 C   0  0  0  0  0  0  0  0  0  0  0  0
    2.9331    3.2699    0.0062 C   0  0  0  0  0  0  0  0  0  0  0  0
    0.5806    2.4092    0.2030 C   0  0  0  0  0  0  0  0  0  0  0  0
    4.4431   -1.1713    0.4719 C   0  0  0  0  0  0  0  0  0  0  0  0
    2.0502   -1.9517    0.6015 C   0  0  0  0  0  0  0  0  0  0  0  0
    4.8936   -2.6305    0.5163 C   0  0  0  0  0  0  0  0  0  0  0  0
    2.5484   -3.3962    0.6434 C   0  0  0  0  0  0  0  0  0  0  0  0
   -0.6331    2.2019   -0.3560 C   0  0  0  0  0  0  0  0  0  0  0  0
    1.4549    3.2727   -1.9322 C   0  0  0  0  0  0  0  0  0  0  0  0
   -0.8594    2.5273   -1.7437 C   0  0  0  0  0  0  0  0  0  0  0  0
    0.1114    3.0256   -2.5114 C   0  0  0  0  0  0  0  0  0  0  0  0
    4.1627   -4.4082   -1.0417 C   0  0  0  0  0  0  0  0  0  0  0  0
    3.0513   -5.3168   -1.5028 C   0  0  0  0  0  0  0  0  0  0  0  0
   -2.6863    0.8833   -0.2922 C   0  0  0  0  0  0  0  0  0  0  0  0
   -4.7846   -0.3084    0.4602 C   0  0  0  0  0  0  0  0  0  0  0  0
   -5.6048   -0.5962    1.5387 C   0  0  0  0  0  0  0  0  0  0  0  0
   -5.0700   -0.7823   -0.8099 C   0  0  0  0  0  0  0  0  0  0  0  0
   -6.7419   -1.3798    1.3418 C   0  0  0  0  0  0  0  0  0  0  0  0
   -6.2071   -1.5658   -1.0069 C   0  0  0  0  0  0  0  0  0  0  0  0
   -7.0432   -1.8646    0.0690 C   0  0  0  0  0  0  0  0  0  0  0  0
    4.0055    3.4209    1.8591 H   0  0  0  0  0  0  0  0  0  0  0  0
   -0.0130    2.1719    2.2785 H   0  0  0  0  0  0  0  0  0  0  0  0
    2.1156    2.7425    3.3065 H   0  0  0  0  0  0  0  0  0  0  0  0
    1.5994    4.0335    2.2201 H   0  0  0  0  0  0  0  0  0  0  0  0
    3.9740    1.1020    2.5369 H   0  0  0  0  0  0  0  0  0  0  0  0
    4.5613    1.2850    0.8761 H   0  0  0  0  0  0  0  0  0  0  0  0
    0.5687   -0.0262    1.3564 H   0  0  0  0  0  0  0  0  0  0  0  0
    1.4774    0.3286    2.8281 H   0  0  0  0  0  0  0  0  0  0  0  0
    3.2380   -1.2392    2.2465 H   0  0  0  0  0  0  0  0  0  0  0  0
    2.9993    4.3665   -0.0190 H   0  0  0  0  0  0  0  0  0  0  0  0
    3.7167    2.9080   -0.6715 H   0  0  0  0  0  0  0  0  0  0  0  0
    4.3674   -0.8478   -0.5747 H   0  0  0  0  0  0  0  0  0  0  0  0
    5.2456   -0.5982    0.9469 H   0  0  0  0  0  0  0  0  0  0  0  0
    1.1122   -1.9375    1.1645 H   0  0  0  0  0  0  0  0  0  0  0  0
    1.8214   -1.6779   -0.4370 H   0  0  0  0  0  0  0  0  0  0  0  0
    5.0899   -2.9414    1.5494 H   0  0  0  0  0  0  0  0  0  0  0  0
    5.8278   -2.7460   -0.0425 H   0  0  0  0  0  0  0  0  0  0  0  0
    1.8008   -4.0486    0.1888 H   0  0  0  0  0  0  0  0  0  0  0  0
    2.6784   -3.7263    1.6811 H   0  0  0  0  0  0  0  0  0  0  0  0
   -1.8471    2.5055   -2.1874 H   0  0  0  0  0  0  0  0  0  0  0  0
   -0.0665    3.3169   -3.5400 H   0  0  0  0  0  0  0  0  0  0  0  0
   -1.6578    1.6236    1.3281 H   0  0  0  0  0  0  0  0  0  0  0  0
    2.6998   -5.9368   -0.6739 H   0  0  0  0  0  0  0  0  0  0  0  0
    3.4260   -5.9801   -2.2886 H   0  0  0  0  0  0  0  0  0  0  0  0
    2.2295   -4.7270   -1.9176 H   0  0  0  0  0  0  0  0  0  0  0  0
   -3.4798    0.8052    1.6135 H   0  0  0  0  0  0  0  0  0  0  0  0
   -5.3793   -0.2238    2.5341 H   0  0  0  0  0  0  0  0  0  0  0  0
   -4.4745   -0.5956   -1.6911 H   0  0  0  0  0  0  0  0  0  0  0  0
   -7.3842   -1.6047    2.1895 H   0  0  0  0  0  0  0  0  0  0  0  0
   -6.4305   -1.9375   -2.0039 H   0  0  0  0  0  0  0  0  0  0  0  0
  1 34  1  0  0  0  0
  2 23  2  0  0  0  0
  3 26  2  0  0  0  0
  4 28  2  0  0  0  0
  5 13  1  0  0  0  0
  5 14  1  0  0  0  0
  5 15  1  0  0  0  0
  6 16  1  0  0  0  0
  6 17  1  0  0  0  0
  6 23  1  0  0  0  0
  7 20  1  0  0  0  0
  7 21  1  0  0  0  0
  7 26  1  0  0  0  0
  8 22  1  0  0  0  0
  8 28  1  0  0  0  0
  8 56  1  0  0  0  0
  9 28  1  0  0  0  0
  9 29  1  0  0  0  0
  9 60  1  0  0  0  0
 10 12  1  0  0  0  0
 10 13  1  0  0  0  0
 10 16  1  0  0  0  0
 10 35  1  0  0  0  0
 11 12  1  0  0  0  0
 11 14  1  0  0  0  0
 11 17  1  0  0  0  0
 11 36  1  0  0  0  0
 12 37  1  0  0  0  0
 12 38  1  0  0  0  0
 13 39  1  0  0  0  0
 13 40  1  0  0  0  0
 14 41  1  0  0  0  0
 14 42  1  0  0  0  0
 15 18  1  0  0  0  0
 15 19  1  0  0  0  0
 15 43  1  0  0  0  0
 16 44  1  0  0  0  0
 16 45  1  0  0  0  0
 17 22  2  0  0  0  0
 18 20  1  0  0  0  0
 18 46  1  0  0  0  0
 18 47  1  0  0  0  0
 19 21  1  0  0  0  0
 19 48  1  0  0  0  0
 19 49  1  0  0  0  0
 20 50  1  0  0  0  0
 20 51  1  0  0  0  0
 21 52  1  0  0  0  0
 21 53  1  0  0  0  0
 22 24  1  0  0  0  0
 23 25  1  0  0  0  0
 24 25  2  0  0  0  0
 24 54  1  0  0  0  0
 25 55  1  0  0  0  0
 26 27  1  0  0  0  0
 27 57  1  0  0  0  0
 27 58  1  0  0  0  0
 27 59  1  0  0  0  0
 29 30  2  0  0  0  0
 29 31  1  0  0  0  0
 30 32  1  0  0  0  0
 30 61  1  0  0  0  0
 31 33  2  0  0  0  0
 31 62  1  0  0  0  0
 32 34  2  0  0  0  0
 32 63  1  0  0  0  0
 33 34  1  0  0  0  0
 33 64  1  0  0  0  0
M  END
> <PUBCHEM_COMPOUND_CID>
9424632

> <PUBCHEM_CONFORMER_RMSD>
1

> <PUBCHEM_CONFORMER_DIVERSEORDER>
2
20
16
9
18
21
13
19
17
7
22
5
15
23
11
10
4
14
3
12
6
8
1

> <PUBCHEM_MMFF94_PARTIAL_CHARGES>
38
1 -0.18
11 0.14
13 0.27
14 0.27
15 0.27
16 0.3
17 -0.03
2 -0.57
20 0.3
21 0.3
22 0.11
23 0.62
24 -0.15
25 -0.14
26 0.57
27 0.06
28 0.69
29 0.12
3 -0.57
30 -0.15
31 -0.15
32 -0.15
33 -0.15
34 0.18
4 -0.57
5 -0.81
54 0.15
55 0.15
56 0.37
6 -0.47
60 0.37
61 0.15
62 0.15
63 0.15
64 0.15
7 -0.66
8 -0.54
9 -0.55

> <PUBCHEM_EFFECTIVE_ROTOR_COUNT>
8.2

> <PUBCHEM_PHARMACOPHORE_FEATURES>
11
1 2 acceptor
1 3 acceptor
1 4 acceptor
1 5 cation
1 8 donor
1 9 donor
6 29 30 31 32 33 34 rings
6 5 10 11 12 13 14 rings
6 6 10 11 12 16 17 rings
6 6 17 22 23 24 25 rings
6 7 15 18 19 20 21 rings

> <PUBCHEM_HEAVY_ATOM_COUNT>
34

> <PUBCHEM_ATOM_DEF_STEREO_COUNT>
2

> <PUBCHEM_ATOM_UDEF_STEREO_COUNT>
0

> <PUBCHEM_BOND_DEF_STEREO_COUNT>
0

> <PUBCHEM_BOND_UDEF_STEREO_COUNT>
0

> <PUBCHEM_ISOTOPIC_ATOM_COUNT>
0

> <PUBCHEM_COMPONENT_COUNT>
1

> <PUBCHEM_CACTVS_TAUTO_COUNT>
3

> <PUBCHEM_CONFORMER_ID>
008FCEF800000002

> <PUBCHEM_MMFF94_ENERGY>
96.8468

> <PUBCHEM_FEATURE_SELFOVERLAP>
57.421

> <PUBCHEM_SHAPE_FINGERPRINT>
10319688 140 18412265060116205778
11093857 51 18189909788844393894
11181472 205 18188213204582168149
11399939 17 18269560601489209727
11456790 92 12318642980553099965
117089 54 18128542565374462078
11954058 11 18410013243233317287
12107183 9 17914907444108657881
12623949 98 18411980256386801366
13383661 66 18269838610348171506
13533116 47 18270114742838330891
13989917 61 18339078319567465627
14251740 57 18408318908736707145
14863182 85 18264484173161747032
14918310 93 17604141649232508004
15475509 35 18272367615660974217
15484559 13 17315074595981768764
15803439 3 17393360966440610748
18365409 1 17546163468870631260
19301679 30 18335984255666062049
19315092 285 18060138765019057977
19319366 153 17772740813105543352
1979834 28 18190450748212468305
20771845 140 18192425501245380648
20775530 9 18192712250135488618
21133410 38 17843382232046008151
21307412 95 18048026377439693989
21344244 181 18266755756470471820
21360442 43 16828695315519810246
21365058 27 18124033696460145624
21796203 349 16486113000436806586
23523787 8 17758990359838999196
23569914 2 12389837269587141451
239999 70 17386557106767801257
3737641 26 18341045220776317834
3886686 26 17912653402111189817
4017518 198 18048051945918571172
4394409 98 15234685922020792070
46194498 28 17677041455896758261
484985 159 17478613404106612776
49967989 163 16900181163453499566
57527585 103 17049932491007635310
5951187 136 12862979774048106070
6201320 221 17701228509318491047
86090 222 18040712589263952235
9555976 147 17131562644300533115
9831232 110 18187356658821725335

> <PUBCHEM_SHAPE_MULTIPOLES>
659.06
15.94
6.97
2.18
41.44
6.55
-0.71
19.92
1.95
-12.74
-4.01
-1.23
-1.77
1.99

> <PUBCHEM_SHAPE_SELFOVERLAP>
1413.731

> <PUBCHEM_SHAPE_VOLUME>
360.9

> <PUBCHEM_COORDINATE_TYPE>
2
5
10

$$$$
