45361527
  -OEChem-12032416203D

 74 77  0     1  0  0  0  0  0999 V2000
   -0.4474    2.3738   -0.8309 O   0  0  0  0  0  0  0  0  0  0  0  0
   -5.5954    2.2678    0.6037 O   0  0  0  0  0  0  0  0  0  0  0  0
    4.7168   -2.1168   -0.2032 O   0  0  0  0  0  0  0  0  0  0  0  0
    3.8287   -0.3724    1.0441 N   0  0  0  0  0  0  0  0  0  0  0  0
   -4.8128    1.3618   -1.3829 N   0  0  0  0  0  0  0  0  0  0  0  0
   -7.5079   -2.0505    0.0909 N   0  0  0  0  0  0  0  0  0  0  0  0
   -0.4400   -0.6065    1.5551 C   0  0  1  0  0  0  0  0  0  0  0  0
    0.0910    0.3757    0.4587 C   0  0  2  0  0  0  0  0  0  0  0  0
    1.6126    0.6951    0.6837 C   0  0  1  0  0  0  0  0  0  0  0  0
   -0.8380    1.6155    0.3148 C   0  0  2  0  0  0  0  0  0  0  0  0
   -1.9056   -0.9882    1.2399 C   0  0  0  0  0  0  0  0  0  0  0  0
    0.4017   -1.9031    1.5209 C   0  0  0  0  0  0  0  0  0  0  0  0
   -2.3198    1.2269    0.1034 C   0  0  1  0  0  0  0  0  0  0  0  0
    2.4390   -0.6211    0.7225 C   0  0  2  0  0  0  0  0  0  0  0  0
   -2.8258    0.2210    1.1373 C   0  0  0  0  0  0  0  0  0  0  0  0
    1.8914   -1.6536    1.7076 C   0  0  0  0  0  0  0  0  0  0  0  0
   -0.3796    0.0034    2.9786 C   0  0  0  0  0  0  0  0  0  0  0  0
   -3.2352    2.4573    0.0950 C   0  0  2  0  0  0  0  0  0  0  0  0
    2.2082    1.6351   -0.3780 C   0  0  0  0  0  0  0  0  0  0  0  0
   -3.1169    3.2084    1.4166 C   0  0  0  0  0  0  0  0  0  0  0  0
   -4.6750    2.0324   -0.1763 C   0  0  0  0  0  0  0  0  0  0  0  0
    4.8590   -1.1536    0.5455 C   0  0  0  0  0  0  0  0  0  0  0  0
    6.2090   -0.6675    1.0368 C   0  0  0  0  0  0  0  0  0  0  0  0
   -6.0815    0.8598   -1.8573 C   0  0  0  0  0  0  0  0  0  0  0  0
    7.1356   -0.2546   -0.0760 C   0  0  0  0  0  0  0  0  0  0  0  0
   -6.3373   -0.5459   -1.3961 C   0  0  0  0  0  0  0  0  0  0  0  0
    7.9931   -1.1913   -0.6529 C   0  0  0  0  0  0  0  0  0  0  0  0
    7.1366    1.0643   -0.5300 C   0  0  0  0  0  0  0  0  0  0  0  0
   -5.6815   -1.6232   -1.9817 C   0  0  0  0  0  0  0  0  0  0  0  0
   -7.2331   -0.8106   -0.3726 C   0  0  0  0  0  0  0  0  0  0  0  0
    8.8517   -0.8092   -1.6838 C   0  0  0  0  0  0  0  0  0  0  0  0
    7.9950    1.4465   -1.5607 C   0  0  0  0  0  0  0  0  0  0  0  0
    8.8526    0.5097   -2.1377 C   0  0  0  0  0  0  0  0  0  0  0  0
   -5.9378   -2.9138   -1.5322 C   0  0  0  0  0  0  0  0  0  0  0  0
   -6.8513   -3.0726   -0.5025 C   0  0  0  0  0  0  0  0  0  0  0  0
    0.0436   -0.1525   -0.5073 H   0  0  0  0  0  0  0  0  0  0  0  0
    1.7282    1.2096    1.6461 H   0  0  0  0  0  0  0  0  0  0  0  0
   -0.6870    2.2485    1.1908 H   0  0  0  0  0  0  0  0  0  0  0  0
   -2.2941   -1.6704    2.0070 H   0  0  0  0  0  0  0  0  0  0  0  0
   -1.9482   -1.5399    0.2910 H   0  0  0  0  0  0  0  0  0  0  0  0
    0.0562   -2.6011    2.2940 H   0  0  0  0  0  0  0  0  0  0  0  0
    0.2541   -2.4132    0.5594 H   0  0  0  0  0  0  0  0  0  0  0  0
   -2.3733    0.7365   -0.8778 H   0  0  0  0  0  0  0  0  0  0  0  0
    2.4059   -1.0688   -0.2805 H   0  0  0  0  0  0  0  0  0  0  0  0
   -3.8208   -0.1501    0.8659 H   0  0  0  0  0  0  0  0  0  0  0  0
   -2.9299    0.6559    2.1335 H   0  0  0  0  0  0  0  0  0  0  0  0
    2.0943   -1.3378    2.7382 H   0  0  0  0  0  0  0  0  0  0  0  0
    2.4265   -2.6042    1.5850 H   0  0  0  0  0  0  0  0  0  0  0  0
    0.6403    0.2262    3.3020 H   0  0  0  0  0  0  0  0  0  0  0  0
   -0.8020   -0.6919    3.7135 H   0  0  0  0  0  0  0  0  0  0  0  0
   -0.9402    0.9390    3.0576 H   0  0  0  0  0  0  0  0  0  0  0  0
   -2.9467    3.1368   -0.7173 H   0  0  0  0  0  0  0  0  0  0  0  0
    1.8250    2.6529   -0.2638 H   0  0  0  0  0  0  0  0  0  0  0  0
    3.2957    1.7211   -0.2846 H   0  0  0  0  0  0  0  0  0  0  0  0
    1.9901    1.2802   -1.3905 H   0  0  0  0  0  0  0  0  0  0  0  0
    4.0331    0.3667    1.7100 H   0  0  0  0  0  0  0  0  0  0  0  0
   -0.5236    1.8011   -1.6131 H   0  0  0  0  0  0  0  0  0  0  0  0
   -2.1229    3.6285    1.5850 H   0  0  0  0  0  0  0  0  0  0  0  0
   -3.7962    4.0710    1.3999 H   0  0  0  0  0  0  0  0  0  0  0  0
   -3.4113    2.6253    2.2922 H   0  0  0  0  0  0  0  0  0  0  0  0
   -4.0119    1.2530   -1.9967 H   0  0  0  0  0  0  0  0  0  0  0  0
    6.6582   -1.4853    1.6150 H   0  0  0  0  0  0  0  0  0  0  0  0
    6.1046    0.1621    1.7467 H   0  0  0  0  0  0  0  0  0  0  0  0
   -6.0653    0.8960   -2.9525 H   0  0  0  0  0  0  0  0  0  0  0  0
   -6.8830    1.5301   -1.5256 H   0  0  0  0  0  0  0  0  0  0  0  0
    8.0007   -2.2223   -0.3093 H   0  0  0  0  0  0  0  0  0  0  0  0
    6.4711    1.8022   -0.0898 H   0  0  0  0  0  0  0  0  0  0  0  0
   -4.9689   -1.4680   -2.7871 H   0  0  0  0  0  0  0  0  0  0  0  0
   -7.7746   -0.0126    0.1258 H   0  0  0  0  0  0  0  0  0  0  0  0
    9.5191   -1.5387   -2.1334 H   0  0  0  0  0  0  0  0  0  0  0  0
    7.9953    2.4733   -1.9147 H   0  0  0  0  0  0  0  0  0  0  0  0
    9.5208    0.8073   -2.9406 H   0  0  0  0  0  0  0  0  0  0  0  0
   -5.4378   -3.7684   -1.9735 H   0  0  0  0  0  0  0  0  0  0  0  0
   -7.0861   -4.0587   -0.1156 H   0  0  0  0  0  0  0  0  0  0  0  0
  1 10  1  0  0  0  0
  1 57  1  0  0  0  0
  2 21  2  0  0  0  0
  3 22  2  0  0  0  0
  4 14  1  0  0  0  0
  4 22  1  0  0  0  0
  4 56  1  0  0  0  0
  5 21  1  0  0  0  0
  5 24  1  0  0  0  0
  5 61  1  0  0  0  0
  6 30  1  0  0  0  0
  6 35  2  0  0  0  0
  7  8  1  0  0  0  0
  7 11  1  0  0  0  0
  7 12  1  0  0  0  0
  7 17  1  0  0  0  0
  8  9  1  0  0  0  0
  8 10  1  0  0  0  0
  8 36  1  0  0  0  0
  9 14  1  0  0  0  0
  9 19  1  0  0  0  0
  9 37  1  0  0  0  0
 10 13  1  0  0  0  0
 10 38  1  0  0  0  0
 11 15  1  0  0  0  0
 11 39  1  0  0  0  0
 11 40  1  0  0  0  0
 12 16  1  0  0  0  0
 12 41  1  0  0  0  0
 12 42  1  0  0  0  0
 13 15  1  0  0  0  0
 13 18  1  0  0  0  0
 13 43  1  0  0  0  0
 14 16  1  0  0  0  0
 14 44  1  0  0  0  0
 15 45  1  0  0  0  0
 15 46  1  0  0  0  0
 16 47  1  0  0  0  0
 16 48  1  0  0  0  0
 17 49  1  0  0  0  0
 17 50  1  0  0  0  0
 17 51  1  0  0  0  0
 18 20  1  0  0  0  0
 18 21  1  0  0  0  0
 18 52  1  0  0  0  0
 19 53  1  0  0  0  0
 19 54  1  0  0  0  0
 19 55  1  0  0  0  0
 20 58  1  0  0  0  0
 20 59  1  0  0  0  0
 20 60  1  0  0  0  0
 22 23  1  0  0  0  0
 23 25  1  0  0  0  0
 23 62  1  0  0  0  0
 23 63  1  0  0  0  0
 24 26  1  0  0  0  0
 24 64  1  0  0  0  0
 24 65  1  0  0  0  0
 25 27  2  0  0  0  0
 25 28  1  0  0  0  0
 26 29  1  0  0  0  0
 26 30  2  0  0  0  0
 27 31  1  0  0  0  0
 27 66  1  0  0  0  0
 28 32  2  0  0  0  0
 28 67  1  0  0  0  0
 29 34  2  0  0  0  0
 29 68  1  0  0  0  0
 30 69  1  0  0  0  0
 31 33  2  0  0  0  0
 31 70  1  0  0  0  0
 32 33  1  0  0  0  0
 32 71  1  0  0  0  0
 33 72  1  0  0  0  0
 34 35  1  0  0  0  0
 34 73  1  0  0  0  0
 35 74  1  0  0  0  0
M  END
> <PUBCHEM_COMPOUND_CID>
45361527

> <PUBCHEM_CONFORMER_RMSD>
1.2

> <PUBCHEM_CONFORMER_DIVERSEORDER>
1
42
155
266
131
209
161
273
170
124
58
26
171
215
72
67
53
104
193
274
60
153
230
80
181
267
280
212
138
62
276
246
269
166
237
197
47
223
238
188
99
279
133
263
108
35
176
11
217
65
113
84
164
70
249
123
55
175
162
152
255
20
254
119
240
24
43
222
216
157
125
256
78
82
264
159
262
16
221
214
227
253
109
182
21
224
132
52
204
190
59
66
275
75
13
77
151
271
34
270
194
10
23
92
19
29
245
144
180
112
202
231
187
178
142
199
126
139
76
101
3
37
156
206
185
71
272
117
107
148
201
98
242
116
85
115
179
25
186
44
277
95
136
48
143
83
158
149
257
251
105
15
241
54
174
56
260
184
167
36
12
134
88
79
218
103
243
114
68
46
208
91
9
17
268
191
278
213
219
89
74
122
49
73
18
183
198
137
169
2
94
265
173
250
261
41
168
106
160
129
127
205
120
211
141
252
22
14
100
229
27
172
87
234
154
45
203
28
130
135
7
248
39
239
244
189
97
96
110
226
150
220
177
5
195
30
200
165
235
247
163
146
90
61
259
50
64
210
147
118
63
207
6
51
86
102
93
31
258
145
8
128
69
38
4
81
225
121
32
33
192
232
40
140
233
111
236
228
57
196

> <PUBCHEM_MMFF94_PARTIAL_CHARGES>
36
1 -0.68
10 0.28
14 0.3
18 0.06
2 -0.57
21 0.57
22 0.57
23 0.2
24 0.44
25 -0.14
26 -0.14
27 -0.15
28 -0.15
29 -0.15
3 -0.57
30 0.16
31 -0.15
32 -0.15
33 -0.15
34 -0.15
35 0.16
4 -0.73
5 -0.73
56 0.37
57 0.4
6 -0.62
61 0.37
66 0.15
67 0.15
68 0.15
69 0.15
70 0.15
71 0.15
72 0.15
73 0.15
74 0.15

> <PUBCHEM_EFFECTIVE_ROTOR_COUNT>
10.6

> <PUBCHEM_PHARMACOPHORE_FEATURES>
12
1 1 acceptor
1 1 donor
1 2 acceptor
1 20 hydrophobe
1 3 acceptor
1 4 donor
1 5 donor
1 6 acceptor
6 25 27 28 31 32 33 rings
6 6 26 29 30 34 35 rings
6 7 8 10 11 13 15 rings
6 7 8 9 12 14 16 rings

> <PUBCHEM_HEAVY_ATOM_COUNT>
35

> <PUBCHEM_ATOM_DEF_STEREO_COUNT>
6

> <PUBCHEM_ATOM_UDEF_STEREO_COUNT>
1

> <PUBCHEM_BOND_DEF_STEREO_COUNT>
0

> <PUBCHEM_BOND_UDEF_STEREO_COUNT>
0

> <PUBCHEM_ISOTOPIC_ATOM_COUNT>
0

> <PUBCHEM_COMPONENT_COUNT>
1

> <PUBCHEM_CACTVS_TAUTO_COUNT>
4

> <PUBCHEM_CONFORMER_ID>
02B4297700000001

> <PUBCHEM_MMFF94_ENERGY>
97.7662

> <PUBCHEM_FEATURE_SELFOVERLAP>
60.912

> <PUBCHEM_SHAPE_FINGERPRINT>
10076449 9 18411701019594623363
10554248 39 17531522080372989850
11007060 377 17603587430393672249
11456790 92 10087634906333084134
11578821 258 14851616479141299286
11621639 254 17676491661195920293
117089 54 18121493825027790319
11973863 73 13470416530569912222
11973864 196 16879357924855277102
12655364 131 11167953480034716453
13627175 4 14907913635474147302
13782708 43 17131536323796417159
14444916 359 16272210794804747158
14856354 85 17775563109937257729
15183329 4 18113336393245916580
15461852 350 18411986858020470014
19246450 95 9943534015949953395
20982279 24 15697737956025869366
21033648 29 13767927906020552146
21150785 3 18334573542817271182
21756936 100 11025794302302371939
21781051 124 16988842774881497910
21867018 265 18343022224430395590
21927370 108 16845580815833272697
22288116 15 18410009944566837919
23569914 2 13263803087179516295
23576562 1 17677620941590294374
4169191 19 17095528374765044484
445580 167 18186522111677609476
4567818 161 17531539796733096588
4616759 239 9871462141272380909
484989 97 18263081166565421475
49967989 163 18334859467217603083
504579 68 18333734641499964206
54039377 194 18410013278289784087
57366028 249 18042697276144698117
6058803 2 17755287981585227202
9980921 7 16660654015919937916
999808 66 15410892963665252790

> <PUBCHEM_SHAPE_MULTIPOLES>
687.73
26.92
3.03
2.09
34.11
0.27
0.18
-9.16
-19.88
-5.81
-0.2
0.32
-0.32
-2.46

> <PUBCHEM_SHAPE_SELFOVERLAP>
1450.175

> <PUBCHEM_SHAPE_VOLUME>
380.9

> <PUBCHEM_COORDINATE_TYPE>
2
5
10

$$$$
