11885097
  -OEChem-12032416313D

 81 84  0     1  0  0  0  0  0999 V2000
   -0.8225    3.2720    0.2099 S   0  0  0  0  0  0  0  0  0  0  0  0
   -7.7295   -0.3427   -0.7138 O   0  0  0  0  0  0  0  0  0  0  0  0
   -7.7224    1.4791    0.8436 O   0  0  0  0  0  0  0  0  0  0  0  0
    0.1982   -1.6992   -1.4601 O   0  0  0  0  0  0  0  0  0  0  0  0
    3.0670    0.7335   -0.1777 O   0  0  0  0  0  0  0  0  0  0  0  0
    0.1069    0.8728   -0.0596 N   0  0  0  0  0  0  0  0  0  0  0  0
    0.6656   -3.1659    0.2812 N   0  0  0  0  0  0  0  0  0  0  0  0
    1.7224    2.6575    0.0619 N   0  0  0  0  0  0  0  0  0  0  0  0
   -3.5000   -0.4300    0.3409 C   0  0  2  0  0  0  0  0  0  0  0  0
   -4.1286    0.8752   -0.3200 C   0  0  1  0  0  0  0  0  0  0  0  0
   -5.7021    0.9848   -0.3317 C   0  0  1  0  0  0  0  0  0  0  0  0
   -1.9799   -0.5422   -0.1388 C   0  0  1  0  0  0  0  0  0  0  0  0
   -4.2648   -1.6820   -0.1618 C   0  0  0  0  0  0  0  0  0  0  0  0
   -6.3060   -0.3643   -0.8144 C   0  0  1  0  0  0  0  0  0  0  0  0
   -3.4139    2.1653    0.1779 C   0  0  0  0  0  0  0  0  0  0  0  0
   -5.7781   -1.5691   -0.0434 C   0  0  0  0  0  0  0  0  0  0  0  0
   -3.5510   -0.4046    1.8884 C   0  0  0  0  0  0  0  0  0  0  0  0
   -1.2718    0.7820   -0.0102 C   0  0  0  0  0  0  0  0  0  0  0  0
   -6.3242    1.4163    1.0147 C   0  0  0  0  0  0  0  0  0  0  0  0
   -6.1268    2.0745   -1.3565 C   0  0  0  0  0  0  0  0  0  0  0  0
   -1.9347    1.9862    0.1126 C   0  0  0  0  0  0  0  0  0  0  0  0
   -1.1828   -1.6724    0.5265 C   0  0  0  0  0  0  0  0  0  0  0  0
   -0.0464   -2.1536   -0.3456 C   0  0  0  0  0  0  0  0  0  0  0  0
    0.4560    2.1359    0.0544 C   0  0  0  0  0  0  0  0  0  0  0  0
    1.8059   -3.8185   -0.3204 C   0  0  2  0  0  0  0  0  0  0  0  0
    2.9321    1.9459   -0.0518 C   0  0  0  0  0  0  0  0  0  0  0  0
    1.8785   -5.2743    0.1359 C   0  0  0  0  0  0  0  0  0  0  0  0
    3.0862   -3.0592   -0.0469 C   0  0  0  0  0  0  0  0  0  0  0  0
    4.1293    2.8862   -0.0023 C   0  0  0  0  0  0  0  0  0  0  0  0
    3.2549   -2.3903    1.1655 C   0  0  0  0  0  0  0  0  0  0  0  0
    4.0978   -3.0286   -1.0069 C   0  0  0  0  0  0  0  0  0  0  0  0
    5.4618    2.1497   -0.1229 C   0  0  0  0  0  0  0  0  0  0  0  0
    6.6398    3.1246   -0.1081 C   0  0  0  0  0  0  0  0  0  0  0  0
    4.4349   -1.6905    1.4178 C   0  0  0  0  0  0  0  0  0  0  0  0
    5.2778   -2.3289   -0.7545 C   0  0  0  0  0  0  0  0  0  0  0  0
    5.4464   -1.6599    0.4578 C   0  0  0  0  0  0  0  0  0  0  0  0
    7.9746    2.3853   -0.1948 C   0  0  0  0  0  0  0  0  0  0  0  0
    9.1493    3.3491   -0.1467 C   0  0  0  0  0  0  0  0  0  0  0  0
   -3.8595    0.7871   -1.3870 H   0  0  0  0  0  0  0  0  0  0  0  0
   -2.0238   -0.7377   -1.2208 H   0  0  0  0  0  0  0  0  0  0  0  0
   -3.9486   -2.5775    0.3849 H   0  0  0  0  0  0  0  0  0  0  0  0
   -4.0179   -1.8643   -1.2162 H   0  0  0  0  0  0  0  0  0  0  0  0
   -6.0678   -0.5007   -1.8777 H   0  0  0  0  0  0  0  0  0  0  0  0
   -3.7007    3.0191   -0.4452 H   0  0  0  0  0  0  0  0  0  0  0  0
   -3.7002    2.3985    1.2088 H   0  0  0  0  0  0  0  0  0  0  0  0
   -6.2383   -2.4828   -0.4412 H   0  0  0  0  0  0  0  0  0  0  0  0
   -6.0940   -1.5278    1.0048 H   0  0  0  0  0  0  0  0  0  0  0  0
   -3.0860   -1.3003    2.3148 H   0  0  0  0  0  0  0  0  0  0  0  0
   -4.5658   -0.3984    2.2808 H   0  0  0  0  0  0  0  0  0  0  0  0
   -3.0254    0.4555    2.3122 H   0  0  0  0  0  0  0  0  0  0  0  0
   -5.9728    2.4042    1.3277 H   0  0  0  0  0  0  0  0  0  0  0  0
   -6.1316    0.7106    1.8187 H   0  0  0  0  0  0  0  0  0  0  0  0
   -5.6474    1.9071   -2.3280 H   0  0  0  0  0  0  0  0  0  0  0  0
   -5.8517    3.0796   -1.0202 H   0  0  0  0  0  0  0  0  0  0  0  0
   -7.2077    2.0808   -1.5358 H   0  0  0  0  0  0  0  0  0  0  0  0
   -1.8146   -2.5479    0.7070 H   0  0  0  0  0  0  0  0  0  0  0  0
   -0.7728   -1.3533    1.4931 H   0  0  0  0  0  0  0  0  0  0  0  0
   -8.0629   -1.1843   -1.0685 H   0  0  0  0  0  0  0  0  0  0  0  0
   -8.1058    1.7607    1.6916 H   0  0  0  0  0  0  0  0  0  0  0  0
    0.4096   -3.4313    1.2285 H   0  0  0  0  0  0  0  0  0  0  0  0
    1.7695    3.6685    0.1607 H   0  0  0  0  0  0  0  0  0  0  0  0
    1.6337   -3.8140   -1.4048 H   0  0  0  0  0  0  0  0  0  0  0  0
    2.7061   -5.8004   -0.3520 H   0  0  0  0  0  0  0  0  0  0  0  0
    0.9499   -5.8039   -0.1041 H   0  0  0  0  0  0  0  0  0  0  0  0
    2.0297   -5.3467    1.2192 H   0  0  0  0  0  0  0  0  0  0  0  0
    4.0912    3.4391    0.9439 H   0  0  0  0  0  0  0  0  0  0  0  0
    4.0264    3.6091   -0.8204 H   0  0  0  0  0  0  0  0  0  0  0  0
    5.4806    1.5607   -1.0481 H   0  0  0  0  0  0  0  0  0  0  0  0
    5.5616    1.4416    0.7084 H   0  0  0  0  0  0  0  0  0  0  0  0
    2.4912   -2.4075    1.9378 H   0  0  0  0  0  0  0  0  0  0  0  0
    3.9796   -3.5470   -1.9547 H   0  0  0  0  0  0  0  0  0  0  0  0
    6.6101    3.7207    0.8122 H   0  0  0  0  0  0  0  0  0  0  0  0
    6.5504    3.8235   -0.9487 H   0  0  0  0  0  0  0  0  0  0  0  0
    4.5673   -1.1708    2.3622 H   0  0  0  0  0  0  0  0  0  0  0  0
    6.0656   -2.3047   -1.5018 H   0  0  0  0  0  0  0  0  0  0  0  0
    6.3656   -1.1160    0.6543 H   0  0  0  0  0  0  0  0  0  0  0  0
    8.0609    1.6734    0.6344 H   0  0  0  0  0  0  0  0  0  0  0  0
    8.0198    1.8067   -1.1248 H   0  0  0  0  0  0  0  0  0  0  0  0
    9.1515    3.9189    0.7879 H   0  0  0  0  0  0  0  0  0  0  0  0
   10.0935    2.7992   -0.2114 H   0  0  0  0  0  0  0  0  0  0  0  0
    9.1104    4.0568   -0.9809 H   0  0  0  0  0  0  0  0  0  0  0  0
  1 21  1  0  0  0  0
  1 24  1  0  0  0  0
  2 14  1  0  0  0  0
  2 58  1  0  0  0  0
  3 19  1  0  0  0  0
  3 59  1  0  0  0  0
  4 23  2  0  0  0  0
  5 26  2  0  0  0  0
  6 18  1  0  0  0  0
  6 24  2  0  0  0  0
  7 23  1  0  0  0  0
  7 25  1  0  0  0  0
  7 60  1  0  0  0  0
  8 24  1  0  0  0  0
  8 26  1  0  0  0  0
  8 61  1  0  0  0  0
  9 10  1  0  0  0  0
  9 12  1  0  0  0  0
  9 13  1  0  0  0  0
  9 17  1  0  0  0  0
 10 11  1  0  0  0  0
 10 15  1  0  0  0  0
 10 39  1  0  0  0  0
 11 14  1  0  0  0  0
 11 19  1  0  0  0  0
 11 20  1  0  0  0  0
 12 18  1  0  0  0  0
 12 22  1  0  0  0  0
 12 40  1  0  0  0  0
 13 16  1  0  0  0  0
 13 41  1  0  0  0  0
 13 42  1  0  0  0  0
 14 16  1  0  0  0  0
 14 43  1  0  0  0  0
 15 21  1  0  0  0  0
 15 44  1  0  0  0  0
 15 45  1  0  0  0  0
 16 46  1  0  0  0  0
 16 47  1  0  0  0  0
 17 48  1  0  0  0  0
 17 49  1  0  0  0  0
 17 50  1  0  0  0  0
 18 21  2  0  0  0  0
 19 51  1  0  0  0  0
 19 52  1  0  0  0  0
 20 53  1  0  0  0  0
 20 54  1  0  0  0  0
 20 55  1  0  0  0  0
 22 23  1  0  0  0  0
 22 56  1  0  0  0  0
 22 57  1  0  0  0  0
 25 27  1  0  0  0  0
 25 28  1  0  0  0  0
 25 62  1  0  0  0  0
 26 29  1  0  0  0  0
 27 63  1  0  0  0  0
 27 64  1  0  0  0  0
 27 65  1  0  0  0  0
 28 30  2  0  0  0  0
 28 31  1  0  0  0  0
 29 32  1  0  0  0  0
 29 66  1  0  0  0  0
 29 67  1  0  0  0  0
 30 34  1  0  0  0  0
 30 70  1  0  0  0  0
 31 35  2  0  0  0  0
 31 71  1  0  0  0  0
 32 33  1  0  0  0  0
 32 68  1  0  0  0  0
 32 69  1  0  0  0  0
 33 37  1  0  0  0  0
 33 72  1  0  0  0  0
 33 73  1  0  0  0  0
 34 36  2  0  0  0  0
 34 74  1  0  0  0  0
 35 36  1  0  0  0  0
 35 75  1  0  0  0  0
 36 76  1  0  0  0  0
 37 38  1  0  0  0  0
 37 77  1  0  0  0  0
 37 78  1  0  0  0  0
 38 79  1  0  0  0  0
 38 80  1  0  0  0  0
 38 81  1  0  0  0  0
M  END
> <PUBCHEM_COMPOUND_CID>
11885097

> <PUBCHEM_CONFORMER_RMSD>
1.2

> <PUBCHEM_CONFORMER_DIVERSEORDER>
1
73
41
40
16
63
38
17
12
44
74
50
45
53
24
54
65
62
23
20
39
28
77
43
13
69
36
22
78
14
35
19
75
52
71
56
32
18
31
48
15
6
70
21
8
25
60
30
46
9
47
76
81
49
79
42
37
58
26
4
5
55
80
29
57
67
2
82
11
61
68
66
34
7
10
51
33
72
27
64
59
3

> <PUBCHEM_MMFF94_PARTIAL_CHARGES>
35
1 -0.08
12 0.18
14 0.28
15 0.18
18 0.05
19 0.28
2 -0.68
21 -0.14
22 0.06
23 0.57
24 0.44
25 0.44
26 0.57
28 -0.14
29 0.06
3 -0.68
30 -0.15
31 -0.15
34 -0.15
35 -0.15
36 -0.15
4 -0.57
5 -0.57
58 0.4
59 0.4
6 -0.57
60 0.37
61 0.37
7 -0.73
70 0.15
71 0.15
74 0.15
75 0.15
76 0.15
8 -0.49

> <PUBCHEM_EFFECTIVE_ROTOR_COUNT>
13.2

> <PUBCHEM_PHARMACOPHORE_FEATURES>
14
1 2 acceptor
1 2 donor
1 3 acceptor
1 3 donor
1 38 hydrophobe
1 4 acceptor
1 5 acceptor
1 7 donor
1 8 donor
4 29 32 33 37 hydrophobe
5 1 6 18 21 24 rings
6 28 30 31 34 35 36 rings
6 9 10 11 13 14 16 rings
6 9 10 12 15 18 21 rings

> <PUBCHEM_HEAVY_ATOM_COUNT>
38

> <PUBCHEM_ATOM_DEF_STEREO_COUNT>
6

> <PUBCHEM_ATOM_UDEF_STEREO_COUNT>
0

> <PUBCHEM_BOND_DEF_STEREO_COUNT>
0

> <PUBCHEM_BOND_UDEF_STEREO_COUNT>
0

> <PUBCHEM_ISOTOPIC_ATOM_COUNT>
0

> <PUBCHEM_COMPONENT_COUNT>
1

> <PUBCHEM_CACTVS_TAUTO_COUNT>
6

> <PUBCHEM_CONFORMER_ID>
00B55A2900000001

> <PUBCHEM_MMFF94_ENERGY>
99.9289

> <PUBCHEM_FEATURE_SELFOVERLAP>
71.192

> <PUBCHEM_SHAPE_FINGERPRINT>
10050765 1 18266458711609863908
11135609 187 18410291428049165144
11135926 11 18408599292496955789
11136131 41 18334007281919429506
11227688 84 17550934224718957991
11719270 70 18410569618045917720
12522641 33 18409734002362767724
12677640 9 17979637062913168158
12838862 33 18267007518583671352
1361 2 18410572873177200826
13811026 1 18334856147555380363
14040222 383 18268708501853141184
14394314 77 18411985788152458065
14725015 67 18189607260138913042
14840074 17 17845361160029231935
15001296 14 18408037424774552858
15351339 4 18342460331719294256
15400415 2 18194401315219487860
15439362 3 18409448055691793745
15890870 6 18410292554079325572
15927050 60 18269551818254488086
16067689 302 18412830214058211319
20609170 92 18187916266868585165
20721686 56 18408045125861898378
21133665 82 18337955705736858908
21360443 120 18336265725720070804
23559900 14 18339914919039693227
24771293 8 18272075076964560194
24771750 20 18188506773220913925
3411729 13 18335138717896093606
4017518 198 18199755898549988246
4169191 19 18411697682199312141
5265222 85 18049165767744543020
5776283 40 18339377310037332030
6669772 16 18411702097504489382
99344 41 18410011061269092284

> <PUBCHEM_SHAPE_MULTIPOLES>
747.45
20.67
5.74
1.04
4.55
3.59
-0.15
-15.75
1.44
10.43
0.27
-0.58
0.29
-0.28

> <PUBCHEM_SHAPE_SELFOVERLAP>
1552.838

> <PUBCHEM_SHAPE_VOLUME>
428.2

> <PUBCHEM_COORDINATE_TYPE>
2
5
10

$$$$
