11939952
  -OEChem-12032416383D

 65 69  0     1  0  0  0  0  0999 V2000
   -6.6065   -3.7009   -1.7000 F   0  0  0  0  0  0  0  0  0  0  0  0
   -8.6560   -3.1978   -1.1997 F   0  0  0  0  0  0  0  0  0  0  0  0
   -7.2967   -3.8803    0.3543 F   0  0  0  0  0  0  0  0  0  0  0  0
   -0.0055    4.2240    0.8921 O   0  0  0  0  0  0  0  0  0  0  0  0
    0.9278    1.5158    2.1295 O   0  0  0  0  0  0  0  0  0  0  0  0
   -3.9764    2.5192    0.9395 O   0  0  0  0  0  0  0  0  0  0  0  0
    2.2045    3.0487   -0.9282 N   0  0  0  0  0  0  0  0  0  0  0  0
   -2.0967    1.2756    1.4546 N   0  0  0  0  0  0  0  0  0  0  0  0
   -3.9763    0.1825    0.7141 N   0  0  0  0  0  0  0  0  0  0  0  0
    3.5945    1.1887   -0.9034 N   0  0  0  0  0  0  0  0  0  0  0  0
    3.1279    2.3738   -2.9491 N   0  0  0  0  0  0  0  0  0  0  0  0
    6.8248   -3.7566    1.3882 N   0  0  0  0  0  0  0  0  0  0  0  0
    0.8411    2.0031    0.7798 C   0  0  1  0  0  0  0  0  0  0  0  0
   -0.4073    2.8589    0.6899 C   0  0  1  0  0  0  0  0  0  0  0  0
    1.9702    2.9657    0.4969 C   0  0  2  0  0  0  0  0  0  0  0  0
   -1.2615    2.3859    1.8439 C   0  0  2  0  0  0  0  0  0  0  0  0
    1.4231    4.2825    1.0166 C   0  0  0  0  0  0  0  0  0  0  0  0
   -0.2214    1.9609    2.8652 C   0  0  0  0  0  0  0  0  0  0  0  0
    3.0106    2.1651   -1.6238 C   0  0  0  0  0  0  0  0  0  0  0  0
   -3.4196    1.4270    1.0221 C   0  0  0  0  0  0  0  0  0  0  0  0
    4.3733    0.3459   -1.6130 C   0  0  0  0  0  0  0  0  0  0  0  0
   -5.2825   -0.0923    0.2462 C   0  0  0  0  0  0  0  0  0  0  0  0
    3.9210    1.4945   -3.5959 C   0  0  0  0  0  0  0  0  0  0  0  0
    4.5752    0.4509   -2.9740 C   0  0  0  0  0  0  0  0  0  0  0  0
    5.0001   -0.7028   -0.8445 C   0  0  0  0  0  0  0  0  0  0  0  0
   -5.6694   -1.4074   -0.0113 C   0  0  0  0  0  0  0  0  0  0  0  0
   -6.1834    0.9527    0.0414 C   0  0  0  0  0  0  0  0  0  0  0  0
   -6.9574   -1.6775   -0.4738 C   0  0  0  0  0  0  0  0  0  0  0  0
    6.3909   -0.8022   -0.8046 C   0  0  0  0  0  0  0  0  0  0  0  0
    4.2151   -1.6178   -0.1429 C   0  0  0  0  0  0  0  0  0  0  0  0
   -7.4714    0.6825   -0.4212 C   0  0  0  0  0  0  0  0  0  0  0  0
   -7.8584   -0.6325   -0.6788 C   0  0  0  0  0  0  0  0  0  0  0  0
    6.9967   -1.8165   -0.0633 C   0  0  0  0  0  0  0  0  0  0  0  0
    4.8209   -2.6322    0.5984 C   0  0  0  0  0  0  0  0  0  0  0  0
    6.2116   -2.7316    0.6382 C   0  0  0  0  0  0  0  0  0  0  0  0
   -7.3708   -3.0834   -0.7513 C   0  0  0  0  0  0  0  0  0  0  0  0
    6.0189   -4.7044    2.1321 C   0  0  0  0  0  0  0  0  0  0  0  0
    8.2692   -3.8674    1.4361 C   0  0  0  0  0  0  0  0  0  0  0  0
    0.8039    1.1291    0.1217 H   0  0  0  0  0  0  0  0  0  0  0  0
   -0.8962    2.8022   -0.2880 H   0  0  0  0  0  0  0  0  0  0  0  0
    2.8976    2.7283    1.0307 H   0  0  0  0  0  0  0  0  0  0  0  0
   -1.8982    3.1782    2.2521 H   0  0  0  0  0  0  0  0  0  0  0  0
    1.7973    5.1616    0.4828 H   0  0  0  0  0  0  0  0  0  0  0  0
    1.6497    4.4064    2.0813 H   0  0  0  0  0  0  0  0  0  0  0  0
   -0.5574    1.1612    3.5323 H   0  0  0  0  0  0  0  0  0  0  0  0
    0.0956    2.8115    3.4786 H   0  0  0  0  0  0  0  0  0  0  0  0
    1.7206    3.7540   -1.4724 H   0  0  0  0  0  0  0  0  0  0  0  0
   -1.6860    0.3470    1.4311 H   0  0  0  0  0  0  0  0  0  0  0  0
   -3.3769   -0.6292    0.8396 H   0  0  0  0  0  0  0  0  0  0  0  0
    4.0180    1.6567   -4.6641 H   0  0  0  0  0  0  0  0  0  0  0  0
    5.1984   -0.2336   -3.5363 H   0  0  0  0  0  0  0  0  0  0  0  0
   -4.9694   -2.2248    0.1467 H   0  0  0  0  0  0  0  0  0  0  0  0
   -5.9587    1.9950    0.2175 H   0  0  0  0  0  0  0  0  0  0  0  0
    7.0207   -0.0956   -1.3401 H   0  0  0  0  0  0  0  0  0  0  0  0
    3.1293   -1.5577   -0.1649 H   0  0  0  0  0  0  0  0  0  0  0  0
   -8.1738    1.4955   -0.5813 H   0  0  0  0  0  0  0  0  0  0  0  0
   -8.8657   -0.8228   -1.0389 H   0  0  0  0  0  0  0  0  0  0  0  0
    8.0816   -1.8502   -0.0629 H   0  0  0  0  0  0  0  0  0  0  0  0
    4.1669   -3.3195    1.1258 H   0  0  0  0  0  0  0  0  0  0  0  0
    5.4128   -4.1983    2.8917 H   0  0  0  0  0  0  0  0  0  0  0  0
    5.3670   -5.2792    1.4648 H   0  0  0  0  0  0  0  0  0  0  0  0
    6.6396   -5.4338    2.6643 H   0  0  0  0  0  0  0  0  0  0  0  0
    8.6870   -4.0360    0.4373 H   0  0  0  0  0  0  0  0  0  0  0  0
    8.7204   -2.9716    1.8771 H   0  0  0  0  0  0  0  0  0  0  0  0
    8.5900   -4.7139    2.0535 H   0  0  0  0  0  0  0  0  0  0  0  0
  1 36  1  0  0  0  0
  2 36  1  0  0  0  0
  3 36  1  0  0  0  0
  4 14  1  0  0  0  0
  4 17  1  0  0  0  0
  5 13  1  0  0  0  0
  5 18  1  0  0  0  0
  6 20  2  0  0  0  0
  7 15  1  0  0  0  0
  7 19  1  0  0  0  0
  7 47  1  0  0  0  0
  8 16  1  0  0  0  0
  8 20  1  0  0  0  0
  8 48  1  0  0  0  0
  9 20  1  0  0  0  0
  9 22  1  0  0  0  0
  9 49  1  0  0  0  0
 10 19  1  0  0  0  0
 10 21  2  0  0  0  0
 11 19  2  0  0  0  0
 11 23  1  0  0  0  0
 12 35  1  0  0  0  0
 12 37  1  0  0  0  0
 12 38  1  0  0  0  0
 13 14  1  0  0  0  0
 13 15  1  0  0  0  0
 13 39  1  0  0  0  0
 14 16  1  0  0  0  0
 14 40  1  0  0  0  0
 15 17  1  0  0  0  0
 15 41  1  0  0  0  0
 16 18  1  0  0  0  0
 16 42  1  0  0  0  0
 17 43  1  0  0  0  0
 17 44  1  0  0  0  0
 18 45  1  0  0  0  0
 18 46  1  0  0  0  0
 21 24  1  0  0  0  0
 21 25  1  0  0  0  0
 22 26  1  0  0  0  0
 22 27  2  0  0  0  0
 23 24  2  0  0  0  0
 23 50  1  0  0  0  0
 24 51  1  0  0  0  0
 25 29  2  0  0  0  0
 25 30  1  0  0  0  0
 26 28  2  0  0  0  0
 26 52  1  0  0  0  0
 27 31  1  0  0  0  0
 27 53  1  0  0  0  0
 28 32  1  0  0  0  0
 28 36  1  0  0  0  0
 29 33  1  0  0  0  0
 29 54  1  0  0  0  0
 30 34  2  0  0  0  0
 30 55  1  0  0  0  0
 31 32  2  0  0  0  0
 31 56  1  0  0  0  0
 32 57  1  0  0  0  0
 33 35  2  0  0  0  0
 33 58  1  0  0  0  0
 34 35  1  0  0  0  0
 34 59  1  0  0  0  0
 37 60  1  0  0  0  0
 37 61  1  0  0  0  0
 37 62  1  0  0  0  0
 38 63  1  0  0  0  0
 38 64  1  0  0  0  0
 38 65  1  0  0  0  0
M  END
> <PUBCHEM_COMPOUND_CID>
11939952

> <PUBCHEM_CONFORMER_RMSD>
1.2

> <PUBCHEM_CONFORMER_DIVERSEORDER>
1
38
44
66
272
127
157
244
217
109
242
61
287
72
224
86
251
69
136
24
240
282
288
285
171
210
166
35
199
11
258
83
220
266
161
18
15
189
197
138
149
65
237
21
286
221
81
195
7
259
99
162
203
219
206
184
143
165
48
16
183
34
246
28
25
88
215
191
146
174
273
233
277
85
247
269
153
141
137
148
125
39
41
155
79
56
192
62
252
239
283
139
257
196
178
201
49
129
225
107
14
275
260
156
151
181
193
50
93
280
52
75
271
209
158
59
70
268
263
108
228
36
218
122
119
51
17
10
12
278
207
132
159
31
187
234
123
114
104
274
198
202
216
232
222
264
172
9
30
249
180
214
182
226
208
6
92
186
90
248
32
204
265
130
212
145
163
261
188
169
73
276
113
74
131
231
96
78
173
101
60
55
168
238
279
29
111
82
150
241
33
100
87
110
154
45
13
134
27
76
116
58
43
135
175
68
267
40
177
37
53
46
89
5
213
281
230
185
245
94
124
128
103
243
133
194
84
115
223
23
26
190
67
63
140
200
118
8
284
106
42
102
121
22
205
20
179
19
250
126
253
112
254
164
152
71
289
91
170
160
98
167
270
236
105
57
256
211
227
95
4
54
120
47
2
117
235
144
147
80
97
229
77
255
64
176
142
262
3

> <PUBCHEM_MMFF94_PARTIAL_CHARGES>
50
1 -0.34
10 -0.62
11 -0.62
12 -0.84
13 0.28
14 0.28
15 0.37
16 0.3
17 0.28
18 0.28
19 0.72
2 -0.34
20 0.69
21 0.31
22 0.12
23 0.16
24 -0.15
26 -0.15
27 -0.15
28 -0.14
29 -0.15
3 -0.34
30 -0.15
31 -0.15
32 -0.15
33 -0.15
34 -0.15
35 0.1
36 1.16
37 0.37
38 0.37
4 -0.56
47 0.4
48 0.37
49 0.37
5 -0.56
50 0.15
51 0.15
52 0.15
53 0.15
54 0.15
55 0.15
56 0.15
57 0.15
58 0.15
59 0.15
6 -0.57
7 -0.87
8 -0.73
9 -0.55

> <PUBCHEM_EFFECTIVE_ROTOR_COUNT>
10.2

> <PUBCHEM_PHARMACOPHORE_FEATURES>
14
1 10 acceptor
1 12 cation
1 4 acceptor
1 5 acceptor
1 6 acceptor
1 7 donor
1 8 donor
1 9 donor
4 7 10 11 19 cation
5 4 13 14 15 17 rings
5 5 13 14 16 18 rings
6 10 11 19 21 23 24 rings
6 22 26 27 28 31 32 rings
6 25 29 30 33 34 35 rings

> <PUBCHEM_HEAVY_ATOM_COUNT>
38

> <PUBCHEM_ATOM_DEF_STEREO_COUNT>
4

> <PUBCHEM_ATOM_UDEF_STEREO_COUNT>
0

> <PUBCHEM_BOND_DEF_STEREO_COUNT>
0

> <PUBCHEM_BOND_UDEF_STEREO_COUNT>
0

> <PUBCHEM_ISOTOPIC_ATOM_COUNT>
0

> <PUBCHEM_COMPONENT_COUNT>
1

> <PUBCHEM_CACTVS_TAUTO_COUNT>
9

> <PUBCHEM_CONFORMER_ID>
00B6307000000001

> <PUBCHEM_MMFF94_ENERGY>
122.827

> <PUBCHEM_FEATURE_SELFOVERLAP>
71.805

> <PUBCHEM_SHAPE_FINGERPRINT>
10622 236 18043260046194192056
10693767 8 18408038524238864200
11227150 75 18334571305434923554
11399510 152 15194734376792831030
11476731 50 18263085419527919934
11478447 62 17896032149665317690
11607047 403 18199455740587307664
12047536 79 12894804579820815955
12758862 65 17346878966257775146
13782708 43 17916595362082493037
14068700 675 18265052440801301368
14340393 91 17604139321059209053
14951699 99 7925918071674167657
15230672 131 18272094890687660127
15350500 16 17968656009265203362
15510800 12 17418106407357338117
16990366 60 18342452647041359784
17324776 126 18190177880614580282
19303781 99 18059844087312866269
19304671 126 15357989996255393244
19841028 212 18343021098890065648
20775438 99 18187929551122745064
21585483 132 18334852797106726794
21895439 516 17822579399709190899
25025965 108 17390220431084288002
3504750 166 17977671909623045560
42767 23 18408889524821669310
437795 139 18201723916309490897
439807 62 18412832412986008021
4408954 87 17131255888677378630
4440575 13 18410571791193913478
4756088 132 17553470780500364559
4756326 101 13541363571690123363
4760202 70 18261405408815157942
50009960 94 18131339822065968485
50742298 180 17917716798521485287
58902169 19 18041566836562099991
6677587 24 16736376380512864060
96874 4 18409729521846545786

> <PUBCHEM_SHAPE_MULTIPOLES>
712.71
26.47
6.38
2.63
29.86
2.93
-1.31
41.04
-5.13
-2.92
2.29
-3.82
-1.38
-8.61

> <PUBCHEM_SHAPE_SELFOVERLAP>
1554.631

> <PUBCHEM_SHAPE_VOLUME>
389.8

> <PUBCHEM_COORDINATE_TYPE>
2
5
10

$$$$
