11866346
  -OEChem-12032416153D

 48 49  0     1  0  0  0  0  0999 V2000
   -6.7716   -2.4644    1.1411 F   0  0  0  0  0  0  0  0  0  0  0  0
    0.6179    2.3992    1.9603 O   0  0  0  0  0  0  0  0  0  0  0  0
    2.0336    4.0692   -0.9706 O   0  0  0  0  0  0  0  0  0  0  0  0
    5.1254    0.5941   -0.7838 O   0  0  0  0  0  0  0  0  0  0  0  0
   -2.1744    1.7013   -1.1648 O   0  0  0  0  0  0  0  0  0  0  0  0
    2.6723   -3.4546    0.6292 O   0  0  0  0  0  0  0  0  0  0  0  0
   -0.5372    0.6901    0.1167 N   0  0  0  0  0  0  0  0  0  0  0  0
    4.0224   -0.8553    0.6712 N   0  0  0  0  0  0  0  0  0  0  0  0
   -2.6847   -0.1160    0.2308 N   0  0  0  0  0  0  0  0  0  0  0  0
    3.3524   -4.6264   -1.2278 N   0  0  0  0  0  0  0  0  0  0  0  0
    0.6856    2.7828    0.5852 C   0  0  2  0  0  0  0  0  0  0  0  0
    0.5534    1.5337   -0.3071 C   0  0  1  0  0  0  0  0  0  0  0  0
    2.0136    3.5101    0.3413 C   0  0  1  0  0  0  0  0  0  0  0  0
    3.2258    2.5837    0.5385 C   0  0  0  0  0  0  0  0  0  0  0  0
    3.0011    1.1903    0.0236 C   0  0  0  0  0  0  0  0  0  0  0  0
    1.8110    0.7096   -0.3667 C   0  0  0  0  0  0  0  0  0  0  0  0
    4.1592    0.2979   -0.0815 C   0  0  0  0  0  0  0  0  0  0  0  0
   -1.8475    0.8389   -0.3530 C   0  0  0  0  0  0  0  0  0  0  0  0
    5.0328   -1.8873    0.7254 C   0  0  0  0  0  0  0  0  0  0  0  0
    4.8347   -2.9446   -0.3519 C   0  0  0  0  0  0  0  0  0  0  0  0
   -4.0714   -0.2993    0.0207 C   0  0  0  0  0  0  0  0  0  0  0  0
    3.5084   -3.6750   -0.2422 C   0  0  0  0  0  0  0  0  0  0  0  0
   -4.7512   -1.3120    0.6972 C   0  0  0  0  0  0  0  0  0  0  0  0
   -4.7591    0.5332   -0.8623 C   0  0  0  0  0  0  0  0  0  0  0  0
   -6.1189   -1.4921    0.4911 C   0  0  0  0  0  0  0  0  0  0  0  0
   -6.1269    0.3529   -1.0686 C   0  0  0  0  0  0  0  0  0  0  0  0
   -6.8067   -0.6597   -0.3919 C   0  0  0  0  0  0  0  0  0  0  0  0
   -0.1605    3.4520    0.3866 H   0  0  0  0  0  0  0  0  0  0  0  0
    0.3439    1.8623   -1.3336 H   0  0  0  0  0  0  0  0  0  0  0  0
    2.1051    4.3476    1.0437 H   0  0  0  0  0  0  0  0  0  0  0  0
    4.1047    3.0193    0.0484 H   0  0  0  0  0  0  0  0  0  0  0  0
    3.4486    2.5105    1.6104 H   0  0  0  0  0  0  0  0  0  0  0  0
    1.7285   -0.2966   -0.7728 H   0  0  0  0  0  0  0  0  0  0  0  0
   -0.3598   -0.0125    0.8288 H   0  0  0  0  0  0  0  0  0  0  0  0
    0.6747    3.2105    2.4933 H   0  0  0  0  0  0  0  0  0  0  0  0
    2.8684    4.5577   -1.0697 H   0  0  0  0  0  0  0  0  0  0  0  0
    3.1830   -0.9979    1.2260 H   0  0  0  0  0  0  0  0  0  0  0  0
    6.0201   -1.4261    0.6151 H   0  0  0  0  0  0  0  0  0  0  0  0
    4.9766   -2.3376    1.7223 H   0  0  0  0  0  0  0  0  0  0  0  0
   -2.2529   -0.7614    0.8873 H   0  0  0  0  0  0  0  0  0  0  0  0
    5.6393   -3.6861   -0.2850 H   0  0  0  0  0  0  0  0  0  0  0  0
    4.8851   -2.4823   -1.3454 H   0  0  0  0  0  0  0  0  0  0  0  0
   -4.2275   -1.9676    1.3881 H   0  0  0  0  0  0  0  0  0  0  0  0
   -4.3033    1.3375   -1.4220 H   0  0  0  0  0  0  0  0  0  0  0  0
   -6.6638    1.0004   -1.7559 H   0  0  0  0  0  0  0  0  0  0  0  0
   -7.8716   -0.8002   -0.5522 H   0  0  0  0  0  0  0  0  0  0  0  0
    2.5135   -5.1951   -1.2760 H   0  0  0  0  0  0  0  0  0  0  0  0
    4.0591   -4.7943   -1.9369 H   0  0  0  0  0  0  0  0  0  0  0  0
  1 25  1  0  0  0  0
  2 11  1  0  0  0  0
  2 35  1  0  0  0  0
  3 13  1  0  0  0  0
  3 36  1  0  0  0  0
  4 17  2  0  0  0  0
  5 18  2  0  0  0  0
  6 22  2  0  0  0  0
  7 12  1  0  0  0  0
  7 18  1  0  0  0  0
  7 34  1  0  0  0  0
  8 17  1  0  0  0  0
  8 19  1  0  0  0  0
  8 37  1  0  0  0  0
  9 18  1  0  0  0  0
  9 21  1  0  0  0  0
  9 40  1  0  0  0  0
 10 22  1  0  0  0  0
 10 47  1  0  0  0  0
 10 48  1  0  0  0  0
 11 12  1  0  0  0  0
 11 13  1  0  0  0  0
 11 28  1  0  0  0  0
 12 16  1  0  0  0  0
 12 29  1  0  0  0  0
 13 14  1  0  0  0  0
 13 30  1  0  0  0  0
 14 15  1  0  0  0  0
 14 31  1  0  0  0  0
 14 32  1  0  0  0  0
 15 16  2  0  0  0  0
 15 17  1  0  0  0  0
 16 33  1  0  0  0  0
 19 20  1  0  0  0  0
 19 38  1  0  0  0  0
 19 39  1  0  0  0  0
 20 22  1  0  0  0  0
 20 41  1  0  0  0  0
 20 42  1  0  0  0  0
 21 23  2  0  0  0  0
 21 24  1  0  0  0  0
 23 25  1  0  0  0  0
 23 43  1  0  0  0  0
 24 26  2  0  0  0  0
 24 44  1  0  0  0  0
 25 27  2  0  0  0  0
 26 27  1  0  0  0  0
 26 45  1  0  0  0  0
 27 46  1  0  0  0  0
M  END
> <PUBCHEM_COMPOUND_CID>
11866346

> <PUBCHEM_CONFORMER_RMSD>
1

> <PUBCHEM_CONFORMER_DIVERSEORDER>
1
73
34
103
100
58
16
131
27
104
15
107
49
114
122
55
79
75
115
135
10
54
97
72
93
144
5
139
134
106
45
127
40
136
113
87
65
76
60
99
69
143
9
145
118
121
83
35
33
119
147
84
123
128
53
95
124
14
18
92
101
130
31
77
70
4
38
30
12
125
88
51
117
41
91
29
89
7
63
13
109
52
62
85
110
120
28
20
140
6
112
68
21
57
32
90
11
86
111
74
47
67
78
59
133
37
66
36
26
42
3
94
56
105
80
141
25
146
142
43
44
48
8
102
82
81
98
96
61
24
138
2
129
17
137
126
116
46
108
71
132
64
39
23
22
19
50

> <PUBCHEM_MMFF94_PARTIAL_CHARGES>
39
1 -0.19
10 -0.8
11 0.28
12 0.44
13 0.28
14 0.14
15 -0.12
16 -0.29
17 0.62
18 0.69
19 0.3
2 -0.68
20 0.06
21 0.12
22 0.57
23 -0.15
24 -0.15
25 0.19
26 -0.15
27 -0.15
3 -0.68
33 0.15
34 0.37
35 0.4
36 0.4
37 0.37
4 -0.57
40 0.37
43 0.15
44 0.15
45 0.15
46 0.15
47 0.37
48 0.37
5 -0.57
6 -0.57
7 -0.73
8 -0.73
9 -0.55

> <PUBCHEM_EFFECTIVE_ROTOR_COUNT>
9.8

> <PUBCHEM_PHARMACOPHORE_FEATURES>
13
1 10 donor
1 2 acceptor
1 2 donor
1 3 acceptor
1 3 donor
1 4 acceptor
1 5 acceptor
1 6 acceptor
1 7 donor
1 8 donor
1 9 donor
6 11 12 13 14 15 16 rings
6 21 23 24 25 26 27 rings

> <PUBCHEM_HEAVY_ATOM_COUNT>
27

> <PUBCHEM_ATOM_DEF_STEREO_COUNT>
3

> <PUBCHEM_ATOM_UDEF_STEREO_COUNT>
0

> <PUBCHEM_BOND_DEF_STEREO_COUNT>
0

> <PUBCHEM_BOND_UDEF_STEREO_COUNT>
0

> <PUBCHEM_ISOTOPIC_ATOM_COUNT>
0

> <PUBCHEM_COMPONENT_COUNT>
1

> <PUBCHEM_CACTVS_TAUTO_COUNT>
12

> <PUBCHEM_CONFORMER_ID>
00B510EA00000001

> <PUBCHEM_MMFF94_ENERGY>
52.1539

> <PUBCHEM_FEATURE_SELFOVERLAP>
66.033

> <PUBCHEM_SHAPE_FINGERPRINT>
117089 54 18126574414255175982
11719270 70 18338510967393391560
11796584 16 18041550326549662441
12107183 9 18127140675991788433
12616971 3 17632296839358766421
12623949 98 18335709381199504231
13533116 47 18342457075516651601
13782708 43 18333446569532802799
13785724 45 18127986199605197398
13911852 28 18268989795591697558
13955234 65 18126562551143911368
13989917 61 18412265068654380215
14251740 57 18129946659387953542
14429380 30 18050284770203017786
15003188 105 18115024079244526842
15250474 111 18056747952669007831
15927050 60 17981323701429380966
17492 89 18052255103640054390
17844677 252 18262521506942486093
17909252 39 18411978036099855984
19319366 153 18056476394550314932
19427546 62 17905888437614954856
1979834 28 18271795831418878026
21033650 10 16371001833615703797
21279426 13 18261385590965537925
21285901 2 17822286864700712388
23559900 14 18261385689829309493
23569914 152 17617902900774309527
239999 70 17895186774539545544
3004659 81 18040996207450071290
314194 84 18271799133873935167
3421961 26 18411976962342239656
345986 75 17632296739703970504
34797466 226 16805607014238796981
4435113 14 18041575727382553235
46194498 28 17822007640297719908
463206 1 18411133649719414702
465052 167 18342459248770019028
5104073 3 18202566185514278113
5309563 4 18268710502917510502
6299153 45 18200039430932480897
7970288 3 18267583511962581870

> <PUBCHEM_SHAPE_MULTIPOLES>
499.1
16.21
5.13
1.08
25.28
2.31
0.11
13.1
-0.22
-8.88
-0.27
0.31
-0.1
1.65

> <PUBCHEM_SHAPE_SELFOVERLAP>
1042.036

> <PUBCHEM_SHAPE_VOLUME>
280.4

> <PUBCHEM_COORDINATE_TYPE>
2
5
10

$$$$
