75368677
  -OEChem-12032416383D

 52 55  0     1  0  0  0  0  0999 V2000
   -4.4758   -3.9858   -0.0554 F   0  0  0  0  0  0  0  0  0  0  0  0
   -3.2765   -2.9389    1.4417 F   0  0  0  0  0  0  0  0  0  0  0  0
   -2.9902   -2.5228   -0.7100 F   0  0  0  0  0  0  0  0  0  0  0  0
    5.8016   -2.9778   -0.1884 O   0  0  0  0  0  0  0  0  0  0  0  0
    4.1672    2.5589    0.2407 O   0  0  0  0  0  0  0  0  0  0  0  0
   -4.9058   -1.8003    0.3099 O   0  0  0  0  0  0  0  0  0  0  0  0
    1.8846    2.1132   -0.0913 N   0  0  0  0  0  0  0  0  0  0  0  0
    3.3238    0.3898   -0.1438 N   0  0  0  0  0  0  0  0  0  0  0  0
   -0.8975    2.2313    0.3046 N   0  0  2  0  0  0  0  0  0  0  0  0
    1.0732    0.9736   -0.4651 C   0  0  1  0  0  0  0  0  0  0  0  0
    2.0102   -0.2172   -0.2726 C   0  0  0  0  0  0  0  0  0  0  0  0
    4.5254   -0.4014   -0.0523 C   0  0  0  0  0  0  0  0  0  0  0  0
   -0.2022    0.9301    0.3759 C   0  0  0  0  0  0  0  0  0  0  0  0
    1.2671    3.4187    0.0154 C   0  0  0  0  0  0  0  0  0  0  0  0
    3.2424    1.7868    0.0248 C   0  0  0  0  0  0  0  0  0  0  0  0
   -0.0355    3.3175    0.8130 C   0  0  0  0  0  0  0  0  0  0  0  0
    4.8211   -1.1010   -1.3793 C   0  0  0  0  0  0  0  0  0  0  0  0
    4.4265   -1.4271    1.0778 C   0  0  0  0  0  0  0  0  0  0  0  0
   -2.1508    2.1808    1.0572 C   0  0  0  0  0  0  0  0  0  0  0  0
    6.0155   -2.0363   -1.2398 C   0  0  0  0  0  0  0  0  0  0  0  0
    5.6440   -2.3427    1.0802 C   0  0  0  0  0  0  0  0  0  0  0  0
   -3.2296    1.4516    0.3015 C   0  0  0  0  0  0  0  0  0  0  0  0
   -3.5729    0.1481    0.6604 C   0  0  0  0  0  0  0  0  0  0  0  0
   -3.8853    2.0791   -0.7578 C   0  0  0  0  0  0  0  0  0  0  0  0
   -4.5719   -0.5280   -0.0401 C   0  0  0  0  0  0  0  0  0  0  0  0
   -4.8842    1.4029   -1.4584 C   0  0  0  0  0  0  0  0  0  0  0  0
   -5.2277    0.0994   -1.0994 C   0  0  0  0  0  0  0  0  0  0  0  0
   -3.8969   -2.8024    0.2505 C   0  0  0  0  0  0  0  0  0  0  0  0
    0.8279    1.0909   -1.5289 H   0  0  0  0  0  0  0  0  0  0  0  0
    1.9688   -0.8990   -1.1255 H   0  0  0  0  0  0  0  0  0  0  0  0
    1.7772   -0.7634    0.6464 H   0  0  0  0  0  0  0  0  0  0  0  0
    5.3594    0.2770    0.1691 H   0  0  0  0  0  0  0  0  0  0  0  0
   -0.8289    0.1213   -0.0150 H   0  0  0  0  0  0  0  0  0  0  0  0
    0.0379    0.6871    1.4200 H   0  0  0  0  0  0  0  0  0  0  0  0
    1.0684    3.7687   -1.0041 H   0  0  0  0  0  0  0  0  0  0  0  0
    1.9663    4.1183    0.4841 H   0  0  0  0  0  0  0  0  0  0  0  0
    0.1984    3.1477    1.8726 H   0  0  0  0  0  0  0  0  0  0  0  0
   -0.5555    4.2802    0.7407 H   0  0  0  0  0  0  0  0  0  0  0  0
    5.0050   -0.3652   -2.1705 H   0  0  0  0  0  0  0  0  0  0  0  0
    3.9570   -1.6993   -1.6917 H   0  0  0  0  0  0  0  0  0  0  0  0
    3.5409   -2.0591    0.9408 H   0  0  0  0  0  0  0  0  0  0  0  0
    4.3226   -0.9270    2.0474 H   0  0  0  0  0  0  0  0  0  0  0  0
   -2.5293    3.1973    1.2356 H   0  0  0  0  0  0  0  0  0  0  0  0
   -2.0084    1.7491    2.0574 H   0  0  0  0  0  0  0  0  0  0  0  0
    6.1585   -2.5991   -2.1677 H   0  0  0  0  0  0  0  0  0  0  0  0
    6.9387   -1.4774   -1.0466 H   0  0  0  0  0  0  0  0  0  0  0  0
    6.5580   -1.7900    1.3277 H   0  0  0  0  0  0  0  0  0  0  0  0
    5.5189   -3.1275    1.8330 H   0  0  0  0  0  0  0  0  0  0  0  0
   -3.0665   -0.3383    1.4904 H   0  0  0  0  0  0  0  0  0  0  0  0
   -3.6266    3.0943   -1.0472 H   0  0  0  0  0  0  0  0  0  0  0  0
   -5.3945    1.8912   -2.2834 H   0  0  0  0  0  0  0  0  0  0  0  0
   -6.0063   -0.4224   -1.6491 H   0  0  0  0  0  0  0  0  0  0  0  0
  1 28  1  0  0  0  0
  2 28  1  0  0  0  0
  3 28  1  0  0  0  0
  4 20  1  0  0  0  0
  4 21  1  0  0  0  0
  5 15  2  0  0  0  0
  6 25  1  0  0  0  0
  6 28  1  0  0  0  0
  7 10  1  0  0  0  0
  7 14  1  0  0  0  0
  7 15  1  0  0  0  0
  8 11  1  0  0  0  0
  8 12  1  0  0  0  0
  8 15  1  0  0  0  0
  9 13  1  0  0  0  0
  9 16  1  0  0  0  0
  9 19  1  0  0  0  0
 10 11  1  0  0  0  0
 10 13  1  0  0  0  0
 10 29  1  0  0  0  0
 11 30  1  0  0  0  0
 11 31  1  0  0  0  0
 12 17  1  0  0  0  0
 12 18  1  0  0  0  0
 12 32  1  0  0  0  0
 13 33  1  0  0  0  0
 13 34  1  0  0  0  0
 14 16  1  0  0  0  0
 14 35  1  0  0  0  0
 14 36  1  0  0  0  0
 16 37  1  0  0  0  0
 16 38  1  0  0  0  0
 17 20  1  0  0  0  0
 17 39  1  0  0  0  0
 17 40  1  0  0  0  0
 18 21  1  0  0  0  0
 18 41  1  0  0  0  0
 18 42  1  0  0  0  0
 19 22  1  0  0  0  0
 19 43  1  0  0  0  0
 19 44  1  0  0  0  0
 20 45  1  0  0  0  0
 20 46  1  0  0  0  0
 21 47  1  0  0  0  0
 21 48  1  0  0  0  0
 22 23  2  0  0  0  0
 22 24  1  0  0  0  0
 23 25  1  0  0  0  0
 23 49  1  0  0  0  0
 24 26  2  0  0  0  0
 24 50  1  0  0  0  0
 25 27  2  0  0  0  0
 26 27  1  0  0  0  0
 26 51  1  0  0  0  0
 27 52  1  0  0  0  0
M  END
> <PUBCHEM_COMPOUND_CID>
75368677

> <PUBCHEM_CONFORMER_RMSD>
1

> <PUBCHEM_CONFORMER_DIVERSEORDER>
1
46
89
88
99
83
52
137
63
7
25
125
117
97
50
44
84
11
73
53
116
108
62
17
91
129
90
39
36
126
32
109
18
20
135
115
40
49
72
79
119
8
122
68
41
10
107
86
19
103
102
30
15
43
101
93
82
121
76
106
33
111
65
16
123
57
120
22
3
69
80
54
70
114
55
66
48
38
45
24
138
13
94
87
128
110
28
29
6
96
42
9
104
71
5
100
61
31
64
81
134
56
37
35
12
112
2
26
131
47
118
92
60
21
85
75
127
67
95
59
74
124
58
130
23
77
133
14
132
105
51
4
98
78
27
113
34
136

> <PUBCHEM_MMFF94_PARTIAL_CHARGES>
30
1 -0.34
10 0.3
11 0.3
12 0.3
13 0.27
14 0.3
15 0.69
16 0.27
19 0.41
2 -0.34
20 0.28
21 0.28
22 -0.14
23 -0.15
24 -0.15
25 0.08
26 -0.15
27 -0.15
28 1.3
3 -0.34
4 -0.56
49 0.15
5 -0.57
50 0.15
51 0.15
52 0.15
6 -0.36
7 -0.66
8 -0.66
9 -0.81

> <PUBCHEM_EFFECTIVE_ROTOR_COUNT>
7.4

> <PUBCHEM_PHARMACOPHORE_FEATURES>
8
1 4 acceptor
1 5 acceptor
1 6 acceptor
1 9 cation
5 7 8 10 11 15 rings
6 22 23 24 25 26 27 rings
6 4 12 17 18 20 21 rings
6 7 9 10 13 14 16 rings

> <PUBCHEM_HEAVY_ATOM_COUNT>
28

> <PUBCHEM_ATOM_DEF_STEREO_COUNT>
1

> <PUBCHEM_ATOM_UDEF_STEREO_COUNT>
0

> <PUBCHEM_BOND_DEF_STEREO_COUNT>
0

> <PUBCHEM_BOND_UDEF_STEREO_COUNT>
0

> <PUBCHEM_ISOTOPIC_ATOM_COUNT>
0

> <PUBCHEM_COMPONENT_COUNT>
1

> <PUBCHEM_CACTVS_TAUTO_COUNT>
1

> <PUBCHEM_CONFORMER_ID>
047E08E500000001

> <PUBCHEM_MMFF94_ENERGY>
71.4603

> <PUBCHEM_FEATURE_SELFOVERLAP>
40.693

> <PUBCHEM_SHAPE_FINGERPRINT>
10391435 84 18411691081150875218
10571361 74 18046338635660731378
11135609 99 18410569562290191462
11211813 140 17753306717899806882
11315621 136 18335426811332992100
11796584 16 18334564733449457393
12422481 6 17132115697941967790
14211702 104 18412543223720565050
14461889 52 18272076190215547922
14866123 147 18270407079851331713
14910302 57 18187071863107314557
14931854 50 18262222345326964959
15001296 14 18261666077488217723
15250474 111 18262520265422364802
15322534 239 18186523176587614603
15510800 12 18059864925940707935
15728490 51 18410851054705253618
16992828 155 15094497081720732963
17138139 8 18040716948776901330
17349148 13 18060425685587284564
17492 89 18338799043096253083
17627616 140 17899413091247403419
17857418 61 18336826373570820016
17909252 39 18123474048792639641
18222031 100 18268990900121063388
18393751 57 9727639436544206029
19958102 18 18114450219925876535
20028762 73 18059005086837180662
20567600 70 18410287013276140832
221490 88 18194684989060821833
22393880 68 18114455708566902929
23379529 103 18411141376375441149
23428019 142 17676492752054797035
23559900 14 18411411830392763097
23572383 38 18341886385805153386
25122255 55 18342742896715455038
25222932 49 18056200417315821020
3004659 81 18261672588895917484
312425 54 17702101366187420360
312425 83 17458622380275748581
316301 35 18411417315397854752
32027 91 18340480088953467624
3383291 50 18342733001960572695
373842 8 18125156035512461926
4280585 95 18336259038271368096
44062 13 18335137596698762743
4461854 278 15958378651452064131
463206 1 18335424530119873641
5104073 3 18131355197711707376
7970288 3 18193838146496657826
9709674 26 18262801912065697009

> <PUBCHEM_SHAPE_MULTIPOLES>
521.85
15.2
4.59
1.15
8.17
1.46
0.11
12.57
2.71
-1.58
-0.85
0.07
0.24
0.81

> <PUBCHEM_SHAPE_SELFOVERLAP>
1109.945

> <PUBCHEM_SHAPE_VOLUME>
292

> <PUBCHEM_COORDINATE_TYPE>
2
5
10

$$$$
