71693050
  -OEChem-12032416303D

 67 70  0     1  0  0  0  0  0999 V2000
    6.6966   -1.8624    1.5484 F   0  0  0  0  0  0  0  0  0  0  0  0
   -4.2591   -1.2491    1.1929 O   0  0  0  0  0  0  0  0  0  0  0  0
   -3.8097    0.3736   -0.4180 N   0  0  0  0  0  0  0  0  0  0  0  0
    2.2553   -0.4800    0.0856 N   0  0  0  0  0  0  0  0  0  0  0  0
    3.0357    0.8390   -1.5240 N   0  0  0  0  0  0  0  0  0  0  0  0
   -1.4785    1.4989    1.1125 C   0  0  1  0  0  0  0  0  0  0  0  0
   -2.6088    2.3160    0.4383 C   0  0  1  0  0  0  0  0  0  0  0  0
   -0.1052    2.0903    0.7593 C   0  0  0  0  0  0  0  0  0  0  0  0
    0.1469    2.1107   -0.7601 C   0  0  2  0  0  0  0  0  0  0  0  0
   -1.6446    1.4466    2.6345 C   0  0  0  0  0  0  0  0  0  0  0  0
   -1.0426    2.6603   -1.5210 C   0  0  0  0  0  0  0  0  0  0  0  0
   -2.2632    2.7571   -0.9648 C   0  0  0  0  0  0  0  0  0  0  0  0
   -3.9236    1.5283    0.4168 C   0  0  0  0  0  0  0  0  0  0  0  0
    0.5322    0.7193   -1.2748 C   0  0  0  0  0  0  0  0  0  0  0  0
   -1.1024    2.7213    3.2729 C   0  0  0  0  0  0  0  0  0  0  0  0
   -0.9454    0.2165    3.2042 C   0  0  0  0  0  0  0  0  0  0  0  0
   -3.8358   -1.9531   -1.0506 C   0  0  0  0  0  0  0  0  0  0  0  0
   -0.7870    3.1395   -2.9229 C   0  0  0  0  0  0  0  0  0  0  0  0
   -2.4528   -1.8644   -1.6992 C   0  0  0  0  0  0  0  0  0  0  0  0
   -4.1469   -3.3497   -0.5086 C   0  0  0  0  0  0  0  0  0  0  0  0
   -3.9873   -0.9307    0.0382 C   0  0  0  0  0  0  0  0  0  0  0  0
    1.9550    0.3820   -0.9320 C   0  0  0  0  0  0  0  0  0  0  0  0
   -1.3404   -2.4711   -0.8447 C   0  0  0  0  0  0  0  0  0  0  0  0
   -3.0183   -3.9257    0.3449 C   0  0  0  0  0  0  0  0  0  0  0  0
   -1.6819   -3.8844   -0.3871 C   0  0  0  0  0  0  0  0  0  0  0  0
    3.6207   -0.5867    0.1548 C   0  0  0  0  0  0  0  0  0  0  0  0
    4.0846    0.2459   -0.8598 C   0  0  0  0  0  0  0  0  0  0  0  0
    4.4639   -1.3176    0.9923 C   0  0  0  0  0  0  0  0  0  0  0  0
    5.4691    0.3689   -1.0653 C   0  0  0  0  0  0  0  0  0  0  0  0
    5.8389   -1.1835    0.7736 C   0  0  0  0  0  0  0  0  0  0  0  0
    6.3348   -0.3557   -0.2363 C   0  0  0  0  0  0  0  0  0  0  0  0
   -1.5131    0.4726    0.7323 H   0  0  0  0  0  0  0  0  0  0  0  0
   -2.7891    3.2342    1.0113 H   0  0  0  0  0  0  0  0  0  0  0  0
    0.7042    1.5616    1.2719 H   0  0  0  0  0  0  0  0  0  0  0  0
   -0.0437    3.1382    1.0811 H   0  0  0  0  0  0  0  0  0  0  0  0
    0.9879    2.7991   -0.9285 H   0  0  0  0  0  0  0  0  0  0  0  0
   -2.7030    1.3585    2.9003 H   0  0  0  0  0  0  0  0  0  0  0  0
   -3.0702    3.2034   -1.5427 H   0  0  0  0  0  0  0  0  0  0  0  0
   -4.2465    1.2425    1.4215 H   0  0  0  0  0  0  0  0  0  0  0  0
   -4.7267    2.1439   -0.0064 H   0  0  0  0  0  0  0  0  0  0  0  0
    0.4522    0.6637   -2.3669 H   0  0  0  0  0  0  0  0  0  0  0  0
   -0.1386   -0.0456   -0.8850 H   0  0  0  0  0  0  0  0  0  0  0  0
   -1.3962    2.7471    4.3297 H   0  0  0  0  0  0  0  0  0  0  0  0
   -1.5097    3.6288    2.8175 H   0  0  0  0  0  0  0  0  0  0  0  0
   -0.0085    2.7736    3.2679 H   0  0  0  0  0  0  0  0  0  0  0  0
   -1.0932    0.1601    4.2883 H   0  0  0  0  0  0  0  0  0  0  0  0
   -1.3536   -0.7022    2.7690 H   0  0  0  0  0  0  0  0  0  0  0  0
    0.1333    0.2280    3.0197 H   0  0  0  0  0  0  0  0  0  0  0  0
   -4.5923   -1.7083   -1.8088 H   0  0  0  0  0  0  0  0  0  0  0  0
   -3.6945    0.5292   -1.4148 H   0  0  0  0  0  0  0  0  0  0  0  0
    0.0185    3.8811   -2.9298 H   0  0  0  0  0  0  0  0  0  0  0  0
   -1.6712    3.6133   -3.3627 H   0  0  0  0  0  0  0  0  0  0  0  0
   -0.5022    2.3099   -3.5761 H   0  0  0  0  0  0  0  0  0  0  0  0
   -2.1794   -0.8399   -1.9698 H   0  0  0  0  0  0  0  0  0  0  0  0
   -2.4890   -2.4199   -2.6462 H   0  0  0  0  0  0  0  0  0  0  0  0
   -4.3089   -4.0220   -1.3617 H   0  0  0  0  0  0  0  0  0  0  0  0
   -5.0820   -3.3561    0.0645 H   0  0  0  0  0  0  0  0  0  0  0  0
   -1.1720   -1.8473    0.0404 H   0  0  0  0  0  0  0  0  0  0  0  0
   -0.4037   -2.4858   -1.4132 H   0  0  0  0  0  0  0  0  0  0  0  0
   -3.2567   -4.9636    0.6053 H   0  0  0  0  0  0  0  0  0  0  0  0
   -2.9320   -3.3813    1.2916 H   0  0  0  0  0  0  0  0  0  0  0  0
   -1.7190   -4.5520   -1.2567 H   0  0  0  0  0  0  0  0  0  0  0  0
   -0.8898   -4.2603    0.2702 H   0  0  0  0  0  0  0  0  0  0  0  0
    1.5910   -0.9545    0.6830 H   0  0  0  0  0  0  0  0  0  0  0  0
    4.0768   -1.9593    1.7756 H   0  0  0  0  0  0  0  0  0  0  0  0
    5.8643    1.0094   -1.8473 H   0  0  0  0  0  0  0  0  0  0  0  0
    7.4086   -0.2721   -0.3818 H   0  0  0  0  0  0  0  0  0  0  0  0
  1 30  1  0  0  0  0
  2 21  2  0  0  0  0
  3 13  1  0  0  0  0
  3 21  1  0  0  0  0
  3 50  1  0  0  0  0
  4 22  1  0  0  0  0
  4 26  1  0  0  0  0
  4 64  1  0  0  0  0
  5 22  2  0  0  0  0
  5 27  1  0  0  0  0
  6  7  1  0  0  0  0
  6  8  1  0  0  0  0
  6 10  1  0  0  0  0
  6 32  1  0  0  0  0
  7 12  1  0  0  0  0
  7 13  1  0  0  0  0
  7 33  1  0  0  0  0
  8  9  1  0  0  0  0
  8 34  1  0  0  0  0
  8 35  1  0  0  0  0
  9 11  1  0  0  0  0
  9 14  1  0  0  0  0
  9 36  1  0  0  0  0
 10 15  1  0  0  0  0
 10 16  1  0  0  0  0
 10 37  1  0  0  0  0
 11 12  2  0  0  0  0
 11 18  1  0  0  0  0
 12 38  1  0  0  0  0
 13 39  1  0  0  0  0
 13 40  1  0  0  0  0
 14 22  1  0  0  0  0
 14 41  1  0  0  0  0
 14 42  1  0  0  0  0
 15 43  1  0  0  0  0
 15 44  1  0  0  0  0
 15 45  1  0  0  0  0
 16 46  1  0  0  0  0
 16 47  1  0  0  0  0
 16 48  1  0  0  0  0
 17 19  1  0  0  0  0
 17 20  1  0  0  0  0
 17 21  1  0  0  0  0
 17 49  1  0  0  0  0
 18 51  1  0  0  0  0
 18 52  1  0  0  0  0
 18 53  1  0  0  0  0
 19 23  1  0  0  0  0
 19 54  1  0  0  0  0
 19 55  1  0  0  0  0
 20 24  1  0  0  0  0
 20 56  1  0  0  0  0
 20 57  1  0  0  0  0
 23 25  1  0  0  0  0
 23 58  1  0  0  0  0
 23 59  1  0  0  0  0
 24 25  1  0  0  0  0
 24 60  1  0  0  0  0
 24 61  1  0  0  0  0
 25 62  1  0  0  0  0
 25 63  1  0  0  0  0
 26 27  2  0  0  0  0
 26 28  1  0  0  0  0
 27 29  1  0  0  0  0
 28 30  2  0  0  0  0
 28 65  1  0  0  0  0
 29 31  2  0  0  0  0
 29 66  1  0  0  0  0
 30 31  1  0  0  0  0
 31 67  1  0  0  0  0
M  END
> <PUBCHEM_COMPOUND_CID>
71693050

> <PUBCHEM_CONFORMER_RMSD>
1

> <PUBCHEM_CONFORMER_DIVERSEORDER>
1
210
81
245
10
84
8
107
214
64
165
123
85
100
71
67
192
163
24
157
32
169
93
116
246
34
242
44
190
233
138
52
41
225
174
55
69
208
211
221
247
51
28
19
172
170
244
121
153
184
206
76
203
25
90
46
146
7
70
119
59
183
241
240
135
112
158
186
149
229
193
248
77
30
92
147
72
128
99
145
199
74
88
113
40
198
39
111
213
179
23
15
31
2
181
114
232
176
42
197
78
222
144
216
95
16
156
82
139
129
132
4
154
151
36
103
94
86
65
236
155
167
79
12
249
173
117
131
162
87
11
171
136
209
207
104
5
134
204
108
130
3
66
160
73
49
50
148
226
45
9
202
230
58
106
33
105
43
137
124
178
185
133
27
251
22
159
75
61
96
140
168
60
161
126
63
205
91
142
237
141
195
98
150
228
235
38
177
101
115
250
53
122
120
182
187
125
29
17
68
89
102
80
196
234
188
166
238
62
110
14
194
220
37
13
224
6
152
212
219
243
175
109
218
35
118
239
180
18
223
164
56
83
227
143
201
215
57
48
20
127
191
231
47
54
217
26
97
189
21
200

> <PUBCHEM_MMFF94_PARTIAL_CHARGES>
27
1 -0.19
11 -0.28
12 -0.29
13 0.3
14 0.18
17 0.06
18 0.14
2 -0.57
21 0.57
22 0.01
26 -0.15
27 0.23
28 -0.15
29 -0.15
3 -0.73
30 0.19
31 -0.15
38 0.15
4 0.03
5 -0.57
50 0.37
64 0.27
65 0.15
66 0.15
67 0.15
7 0.14
9 0.14

> <PUBCHEM_EFFECTIVE_ROTOR_COUNT>
9

> <PUBCHEM_PHARMACOPHORE_FEATURES>
9
1 2 acceptor
1 3 donor
1 4 donor
3 10 15 16 hydrophobe
3 4 5 22 cation
5 4 5 22 26 27 rings
6 17 19 20 23 24 25 rings
6 26 27 28 29 30 31 rings
6 6 7 8 9 11 12 rings

> <PUBCHEM_HEAVY_ATOM_COUNT>
31

> <PUBCHEM_ATOM_DEF_STEREO_COUNT>
3

> <PUBCHEM_ATOM_UDEF_STEREO_COUNT>
0

> <PUBCHEM_BOND_DEF_STEREO_COUNT>
0

> <PUBCHEM_BOND_UDEF_STEREO_COUNT>
0

> <PUBCHEM_ISOTOPIC_ATOM_COUNT>
0

> <PUBCHEM_COMPONENT_COUNT>
1

> <PUBCHEM_CACTVS_TAUTO_COUNT>
6

> <PUBCHEM_CONFORMER_ID>
0445F2FA00000001

> <PUBCHEM_MMFF94_ENERGY>
48.738

> <PUBCHEM_FEATURE_SELFOVERLAP>
45.778

> <PUBCHEM_SHAPE_FINGERPRINT>
10483366 6 18190720022120157743
11285246 1 17170672456724457627
11315621 246 18335992999834381638
11456790 92 18199483228641986251
12128747 34 16986336888865505158
12156800 1 17613102561434412085
12422481 6 18049752658045281793
12523318 42 18342450418269895984
12633257 1 17775016716554735337
12788726 201 18200040658744325414
14020679 6 17059788697880734137
14068700 675 18272089452399220253
14114207 22 17972024843967763863
15274700 242 17530954774720986744
15799311 1 18265349317884423406
17349148 13 16877662340644859492
18603816 31 17461983385959439586
19611394 137 17774995822345910562
19958102 18 18339074866138888302
20511986 3 18041269985634494896
20600515 1 18271537497329871183
20775530 9 17909836766647796343
3027735 51 18412258402616775406
35225 105 17916852518247316391
392239 28 17775849025244845568
469060 322 18334303071145969710
484985 159 18114727253479330415
5080951 261 18116131325712217968
56638632 33 18129935809957646817
86090 222 14885111322301562939

> <PUBCHEM_SHAPE_MULTIPOLES>
609.88
11.58
4.57
2.56
22
2.26
-1.5
8.43
-1.11
-6.22
0.62
-0.78
-2.34
-1.83

> <PUBCHEM_SHAPE_SELFOVERLAP>
1291.732

> <PUBCHEM_SHAPE_VOLUME>
343.5

> <PUBCHEM_COORDINATE_TYPE>
2
5
10

$$$$
