28960388
  -OEChem-12032416413D

 59 63  0     1  0  0  0  0  0999 V2000
    2.6603   -1.9800   -1.4220 O   0  0  0  0  0  0  0  0  0  0  0  0
    3.0672   -3.6997    0.0795 O   0  0  0  0  0  0  0  0  0  0  0  0
    2.9731   -1.9782    2.3771 O   0  0  0  0  0  0  0  0  0  0  0  0
    3.8001    3.9946    0.2241 O   0  0  0  0  0  0  0  0  0  0  0  0
    0.2719   -1.2678    0.0390 N   0  0  0  0  0  0  0  0  0  0  0  0
    3.1286    0.6178   -0.1896 N   0  0  0  0  0  0  0  0  0  0  0  0
    1.3501   -2.0808    0.6033 C   0  0  2  0  0  0  0  0  0  0  0  0
    2.3825   -1.1904    1.3330 C   0  0  2  0  0  0  0  0  0  0  0  0
    3.5129   -0.6615    0.4164 C   0  0  1  0  0  0  0  0  0  0  0  0
    2.0343   -2.8940   -0.5114 C   0  0  1  0  0  0  0  0  0  0  0  0
    3.8638   -1.6476   -0.7213 C   0  0  1  0  0  0  0  0  0  0  0  0
   -0.6945   -0.8998    1.0824 C   0  0  0  0  0  0  0  0  0  0  0  0
   -0.3853   -1.9803   -1.0650 C   0  0  0  0  0  0  0  0  0  0  0  0
   -2.5123   -0.6735   -0.6613 C   0  0  0  0  0  0  0  0  0  0  0  0
    4.2917   -3.0231   -0.2425 C   0  0  0  0  0  0  0  0  0  0  0  0
   -1.8004   -0.0046    0.5196 C   0  0  0  0  0  0  0  0  0  0  0  0
   -1.4802   -1.1217   -1.7015 C   0  0  0  0  0  0  0  0  0  0  0  0
   -3.5452    0.2634   -1.2812 C   0  0  0  0  0  0  0  0  0  0  0  0
    3.2333    1.6936    0.7810 C   0  0  0  0  0  0  0  0  0  0  0  0
   -4.8122    0.3070   -0.4714 C   0  0  0  0  0  0  0  0  0  0  0  0
    2.8503    3.0232    0.1877 C   0  0  0  0  0  0  0  0  0  0  0  0
   -5.8448   -0.5909   -0.7423 C   0  0  0  0  0  0  0  0  0  0  0  0
   -4.9544    1.2456    0.5505 C   0  0  0  0  0  0  0  0  0  0  0  0
    1.7026    3.4916   -0.4086 C   0  0  0  0  0  0  0  0  0  0  0  0
   -7.0195   -0.5501    0.0088 C   0  0  0  0  0  0  0  0  0  0  0  0
   -6.1289    1.2864    1.3017 C   0  0  0  0  0  0  0  0  0  0  0  0
   -7.1616    0.3886    1.0306 C   0  0  0  0  0  0  0  0  0  0  0  0
    1.9640    4.8371   -0.7615 C   0  0  0  0  0  0  0  0  0  0  0  0
    3.2528    5.0950   -0.3554 C   0  0  0  0  0  0  0  0  0  0  0  0
    0.9447   -2.8124    1.3177 H   0  0  0  0  0  0  0  0  0  0  0  0
    1.8859   -0.3842    1.8746 H   0  0  0  0  0  0  0  0  0  0  0  0
    4.4342   -0.5242    0.9991 H   0  0  0  0  0  0  0  0  0  0  0  0
    1.3902   -3.6007   -1.0405 H   0  0  0  0  0  0  0  0  0  0  0  0
    4.6011   -1.2200   -1.4093 H   0  0  0  0  0  0  0  0  0  0  0  0
   -0.2132   -0.3480    1.8961 H   0  0  0  0  0  0  0  0  0  0  0  0
   -1.1477   -1.7958    1.5277 H   0  0  0  0  0  0  0  0  0  0  0  0
   -0.8169   -2.9327   -0.7295 H   0  0  0  0  0  0  0  0  0  0  0  0
    0.2817   -2.1714   -1.9101 H   0  0  0  0  0  0  0  0  0  0  0  0
   -3.0144   -1.5788   -0.2906 H   0  0  0  0  0  0  0  0  0  0  0  0
    4.7660   -3.5886   -1.0519 H   0  0  0  0  0  0  0  0  0  0  0  0
    4.9633   -3.0078    0.6200 H   0  0  0  0  0  0  0  0  0  0  0  0
   -2.5061    0.2092    1.3287 H   0  0  0  0  0  0  0  0  0  0  0  0
   -1.3665    0.9547    0.2080 H   0  0  0  0  0  0  0  0  0  0  0  0
   -1.0259   -0.2426   -2.1783 H   0  0  0  0  0  0  0  0  0  0  0  0
   -1.9746   -1.6945   -2.4957 H   0  0  0  0  0  0  0  0  0  0  0  0
    3.7502    0.8225   -0.9724 H   0  0  0  0  0  0  0  0  0  0  0  0
   -3.7992   -0.0728   -2.2955 H   0  0  0  0  0  0  0  0  0  0  0  0
   -3.1405    1.2761   -1.4062 H   0  0  0  0  0  0  0  0  0  0  0  0
    3.5753   -1.3999    2.8757 H   0  0  0  0  0  0  0  0  0  0  0  0
    4.2602    1.7643    1.1617 H   0  0  0  0  0  0  0  0  0  0  0  0
    2.5782    1.5406    1.6442 H   0  0  0  0  0  0  0  0  0  0  0  0
   -5.7455   -1.3285   -1.5342 H   0  0  0  0  0  0  0  0  0  0  0  0
   -4.1625    1.9576    0.7672 H   0  0  0  0  0  0  0  0  0  0  0  0
    0.7902    2.9349   -0.5694 H   0  0  0  0  0  0  0  0  0  0  0  0
   -7.8234   -1.2495   -0.2016 H   0  0  0  0  0  0  0  0  0  0  0  0
   -6.2404    2.0185    2.0961 H   0  0  0  0  0  0  0  0  0  0  0  0
   -8.0764    0.4206    1.6153 H   0  0  0  0  0  0  0  0  0  0  0  0
    1.2967    5.5319   -1.2503 H   0  0  0  0  0  0  0  0  0  0  0  0
    3.8919    5.9646   -0.4036 H   0  0  0  0  0  0  0  0  0  0  0  0
  1 10  1  0  0  0  0
  1 11  1  0  0  0  0
  2 10  1  0  0  0  0
  2 15  1  0  0  0  0
  3  8  1  0  0  0  0
  3 49  1  0  0  0  0
  4 21  1  0  0  0  0
  4 29  1  0  0  0  0
  5  7  1  0  0  0  0
  5 12  1  0  0  0  0
  5 13  1  0  0  0  0
  6  9  1  0  0  0  0
  6 19  1  0  0  0  0
  6 46  1  0  0  0  0
  7  8  1  0  0  0  0
  7 10  1  0  0  0  0
  7 30  1  0  0  0  0
  8  9  1  0  0  0  0
  8 31  1  0  0  0  0
  9 11  1  0  0  0  0
  9 32  1  0  0  0  0
 10 33  1  0  0  0  0
 11 15  1  0  0  0  0
 11 34  1  0  0  0  0
 12 16  1  0  0  0  0
 12 35  1  0  0  0  0
 12 36  1  0  0  0  0
 13 17  1  0  0  0  0
 13 37  1  0  0  0  0
 13 38  1  0  0  0  0
 14 16  1  0  0  0  0
 14 17  1  0  0  0  0
 14 18  1  0  0  0  0
 14 39  1  0  0  0  0
 15 40  1  0  0  0  0
 15 41  1  0  0  0  0
 16 42  1  0  0  0  0
 16 43  1  0  0  0  0
 17 44  1  0  0  0  0
 17 45  1  0  0  0  0
 18 20  1  0  0  0  0
 18 47  1  0  0  0  0
 18 48  1  0  0  0  0
 19 21  1  0  0  0  0
 19 50  1  0  0  0  0
 19 51  1  0  0  0  0
 20 22  2  0  0  0  0
 20 23  1  0  0  0  0
 21 24  2  0  0  0  0
 22 25  1  0  0  0  0
 22 52  1  0  0  0  0
 23 26  2  0  0  0  0
 23 53  1  0  0  0  0
 24 28  1  0  0  0  0
 24 54  1  0  0  0  0
 25 27  2  0  0  0  0
 25 55  1  0  0  0  0
 26 27  1  0  0  0  0
 26 56  1  0  0  0  0
 27 57  1  0  0  0  0
 28 29  2  0  0  0  0
 28 58  1  0  0  0  0
 29 59  1  0  0  0  0
M  END
> <PUBCHEM_COMPOUND_CID>
28960388

> <PUBCHEM_CONFORMER_RMSD>
1

> <PUBCHEM_CONFORMER_DIVERSEORDER>
1
29
64
74
71
28
110
96
105
16
92
85
34
45
88
50
63
10
79
55
47
35
98
108
39
26
54
97
17
9
59
78
69
90
27
100
94
44
111
6
21
89
23
57
84
52
49
32
73
22
11
80
93
33
95
107
66
12
81
15
75
20
38
40
101
25
30
41
58
31
86
43
48
2
8
67
61
68
87
42
5
70
76
102
104
109
65
14
37
72
91
46
51
4
77
13
56
62
82
103
106
60
36
7
83
19
53
18
3
24
99

> <PUBCHEM_MMFF94_PARTIAL_CHARGES>
36
1 -0.56
10 0.56
11 0.28
12 0.27
13 0.27
15 0.28
18 0.14
19 0.45
2 -0.56
20 -0.14
21 -0.04
22 -0.15
23 -0.15
24 -0.15
25 -0.15
26 -0.15
27 -0.15
28 -0.15
29 -0.01
3 -0.68
4 -0.28
46 0.36
49 0.4
5 -0.81
52 0.15
53 0.15
54 0.15
55 0.15
56 0.15
57 0.15
58 0.15
59 0.15
6 -0.9
7 0.27
8 0.28
9 0.27

> <PUBCHEM_EFFECTIVE_ROTOR_COUNT>
8.4

> <PUBCHEM_PHARMACOPHORE_FEATURES>
12
1 1 acceptor
1 2 acceptor
1 3 acceptor
1 3 donor
1 4 acceptor
1 5 cation
1 6 cation
1 6 donor
5 4 21 24 28 29 rings
6 20 22 23 25 26 27 rings
6 5 12 13 14 16 17 rings
8 1 2 7 8 9 10 11 15 rings

> <PUBCHEM_HEAVY_ATOM_COUNT>
29

> <PUBCHEM_ATOM_DEF_STEREO_COUNT>
5

> <PUBCHEM_ATOM_UDEF_STEREO_COUNT>
0

> <PUBCHEM_BOND_DEF_STEREO_COUNT>
0

> <PUBCHEM_BOND_UDEF_STEREO_COUNT>
0

> <PUBCHEM_ISOTOPIC_ATOM_COUNT>
0

> <PUBCHEM_COMPONENT_COUNT>
1

> <PUBCHEM_CACTVS_TAUTO_COUNT>
1

> <PUBCHEM_CONFORMER_ID>
01B9E68400000001

> <PUBCHEM_MMFF94_ENERGY>
68.3403

> <PUBCHEM_FEATURE_SELFOVERLAP>
60.946

> <PUBCHEM_SHAPE_FINGERPRINT>
10483366 6 18339095860688104428
10675989 125 18268715076562451873
10937287 8 17979353384897607964
11445158 3 18343013364207802319
11763715 3 17834422036849862703
12107183 9 17831275549111810184
12166972 35 18272091543926850987
13398642 44 18044662137989020365
13590594 115 18194685860770137560
13631057 29 9941881484819240344
14251764 75 18122628511577520141
14849402 71 18410299116045691892
15021287 119 18270391690534922151
15081414 286 18411130304150439652
15082195 135 18197758094085180639
15183329 4 13973677309603436235
15439362 3 18197500834693539356
15664445 248 18271819973139911726
1768 85 18335704992043802549
17844677 252 18341335483915453483
18785283 64 18408600379233957429
19301679 30 17832699072740385666
21033648 29 17023171739861601893
21365058 113 18198076793379792150
21716022 299 15337182735369034854
22224240 67 10809641337157649174
23522609 53 17774459273651506977
23559900 14 18410576171475252707
245318 6 18118131492124832365
3411729 13 18338237180001685797
394071 54 18334294297108409365
397830 11 18188500189711340731
474 4 18339354279272281200
513532 50 17988935478625995084
53794403 172 18337677528219164132
57724786 102 18413673509158411865
5776283 40 18193295185463782620
6034566 193 17831305260814368021
9849439 229 17910663594785998768

> <PUBCHEM_SHAPE_MULTIPOLES>
563.37
14.24
5.67
1.39
30.91
7.96
-0.22
2.35
-2.39
-12.67
0.97
0.22
-0.53
-1.15

> <PUBCHEM_SHAPE_SELFOVERLAP>
1212.701

> <PUBCHEM_SHAPE_VOLUME>
307.5

> <PUBCHEM_COORDINATE_TYPE>
2
5
10

$$$$
