75536593
  -OEChem-12032416343D

 50 52  0     1  0  0  0  0  0999 V2000
    6.9867    0.0346    1.6221 S   0  0  0  0  0  0  0  0  0  0  0  0
    1.2381    0.6624   -0.9513 O   0  0  0  0  0  0  0  0  0  0  0  0
    0.0716   -2.4847    0.3294 O   0  0  0  0  0  0  0  0  0  0  0  0
   -7.4728    0.0057    1.9832 O   0  0  0  0  0  0  0  0  0  0  0  0
    4.5535   -1.5441    1.0848 O   0  0  0  0  0  0  0  0  0  0  0  0
   -2.1393   -0.6876   -0.9967 N   0  0  0  0  0  0  0  0  0  0  0  0
   -5.8799    0.6690    0.4274 N   0  0  0  0  0  0  0  0  0  0  0  0
    3.8743   -0.4843   -0.8641 N   0  0  0  0  0  0  0  0  0  0  0  0
   -0.8446   -0.3519   -0.4267 C   0  0  1  0  0  0  0  0  0  0  0  0
   -3.1748    0.2144   -0.4985 C   0  0  0  0  0  0  0  0  0  0  0  0
    0.2013   -1.4359   -0.6106 C   0  0  1  0  0  0  0  0  0  0  0  0
    1.4848   -0.6432   -0.4032 C   0  0  1  0  0  0  0  0  0  0  0  0
   -3.6325   -0.2290    0.8969 C   0  0  0  0  0  0  0  0  0  0  0  0
   -4.3624    0.2400   -1.4694 C   0  0  0  0  0  0  0  0  0  0  0  0
   -0.1809    0.8270   -1.1194 C   0  0  0  0  0  0  0  0  0  0  0  0
   -4.7823    0.6440    1.3966 C   0  0  0  0  0  0  0  0  0  0  0  0
   -5.4991    1.1036   -0.9224 C   0  0  0  0  0  0  0  0  0  0  0  0
    2.6913   -1.2657   -1.0829 C   0  0  0  0  0  0  0  0  0  0  0  0
   -7.1713    0.3335    0.8327 C   0  0  0  0  0  0  0  0  0  0  0  0
   -8.2451    0.3810   -0.2248 C   0  0  0  0  0  0  0  0  0  0  0  0
    4.7234   -0.6897    0.2190 C   0  0  0  0  0  0  0  0  0  0  0  0
    5.8930    0.2210    0.3179 C   0  0  0  0  0  0  0  0  0  0  0  0
    6.2591    1.2510   -0.5206 C   0  0  0  0  0  0  0  0  0  0  0  0
    7.4534    1.8953   -0.0865 C   0  0  0  0  0  0  0  0  0  0  0  0
    7.9545    1.3335    1.0671 C   0  0  0  0  0  0  0  0  0  0  0  0
   -0.9207   -0.1521    0.6493 H   0  0  0  0  0  0  0  0  0  0  0  0
   -2.7941    1.2427   -0.4386 H   0  0  0  0  0  0  0  0  0  0  0  0
    0.1572   -1.8596   -1.6217 H   0  0  0  0  0  0  0  0  0  0  0  0
    1.6927   -0.5141    0.6672 H   0  0  0  0  0  0  0  0  0  0  0  0
   -2.3822   -1.6525   -0.7746 H   0  0  0  0  0  0  0  0  0  0  0  0
   -2.8187   -0.1786    1.6276 H   0  0  0  0  0  0  0  0  0  0  0  0
   -3.9714   -1.2734    0.8655 H   0  0  0  0  0  0  0  0  0  0  0  0
   -4.7356   -0.7804   -1.6301 H   0  0  0  0  0  0  0  0  0  0  0  0
   -4.0471    0.6262   -2.4462 H   0  0  0  0  0  0  0  0  0  0  0  0
   -0.4831    1.7916   -0.7008 H   0  0  0  0  0  0  0  0  0  0  0  0
   -0.3783    0.8416   -2.1976 H   0  0  0  0  0  0  0  0  0  0  0  0
   -5.1285    0.2767    2.3678 H   0  0  0  0  0  0  0  0  0  0  0  0
   -4.4463    1.6781    1.5382 H   0  0  0  0  0  0  0  0  0  0  0  0
   -5.1808    2.1502   -0.8471 H   0  0  0  0  0  0  0  0  0  0  0  0
   -6.3415    1.0729   -1.6155 H   0  0  0  0  0  0  0  0  0  0  0  0
    2.5448   -1.3035   -2.1680 H   0  0  0  0  0  0  0  0  0  0  0  0
    2.8566   -2.2855   -0.7192 H   0  0  0  0  0  0  0  0  0  0  0  0
    0.1085   -2.1018    1.2222 H   0  0  0  0  0  0  0  0  0  0  0  0
    4.0703    0.2515   -1.5341 H   0  0  0  0  0  0  0  0  0  0  0  0
   -8.0142   -0.3215   -1.0300 H   0  0  0  0  0  0  0  0  0  0  0  0
   -8.3451    1.3965   -0.6171 H   0  0  0  0  0  0  0  0  0  0  0  0
   -9.2035    0.0901    0.2165 H   0  0  0  0  0  0  0  0  0  0  0  0
    5.7154    1.5485   -1.4075 H   0  0  0  0  0  0  0  0  0  0  0  0
    7.9213    2.7286   -0.5944 H   0  0  0  0  0  0  0  0  0  0  0  0
    8.8427    1.6238    1.6104 H   0  0  0  0  0  0  0  0  0  0  0  0
  1 22  1  0  0  0  0
  1 25  1  0  0  0  0
  2 12  1  0  0  0  0
  2 15  1  0  0  0  0
  3 11  1  0  0  0  0
  3 43  1  0  0  0  0
  4 19  2  0  0  0  0
  5 21  2  0  0  0  0
  6  9  1  0  0  0  0
  6 10  1  0  0  0  0
  6 30  1  0  0  0  0
  7 16  1  0  0  0  0
  7 17  1  0  0  0  0
  7 19  1  0  0  0  0
  8 18  1  0  0  0  0
  8 21  1  0  0  0  0
  8 44  1  0  0  0  0
  9 11  1  0  0  0  0
  9 15  1  0  0  0  0
  9 26  1  0  0  0  0
 10 13  1  0  0  0  0
 10 14  1  0  0  0  0
 10 27  1  0  0  0  0
 11 12  1  0  0  0  0
 11 28  1  0  0  0  0
 12 18  1  0  0  0  0
 12 29  1  0  0  0  0
 13 16  1  0  0  0  0
 13 31  1  0  0  0  0
 13 32  1  0  0  0  0
 14 17  1  0  0  0  0
 14 33  1  0  0  0  0
 14 34  1  0  0  0  0
 15 35  1  0  0  0  0
 15 36  1  0  0  0  0
 16 37  1  0  0  0  0
 16 38  1  0  0  0  0
 17 39  1  0  0  0  0
 17 40  1  0  0  0  0
 18 41  1  0  0  0  0
 18 42  1  0  0  0  0
 19 20  1  0  0  0  0
 20 45  1  0  0  0  0
 20 46  1  0  0  0  0
 20 47  1  0  0  0  0
 21 22  1  0  0  0  0
 22 23  2  0  0  0  0
 23 24  1  0  0  0  0
 23 48  1  0  0  0  0
 24 25  2  0  0  0  0
 24 49  1  0  0  0  0
 25 50  1  0  0  0  0
M  END
> <PUBCHEM_COMPOUND_CID>
75536593

> <PUBCHEM_CONFORMER_RMSD>
1

> <PUBCHEM_CONFORMER_DIVERSEORDER>
1
80
60
56
106
102
89
90
87
69
29
82
23
104
51
86
61
70
32
35
81
77
65
84
101
88
73
64
99
71
58
36
37
27
39
93
59
91
21
97
17
72
31
95
66
83
67
12
103
98
15
78
54
8
85
47
68
53
40
76
43
57
92
55
75
25
10
62
18
45
16
38
24
20
26
100
4
63
79
48
96
105
50
2
94
14
19
5
74
52
7
46
28
30
11
9
42
49
44
34
33
41
3
13
22
6

> <PUBCHEM_MMFF94_PARTIAL_CHARGES>
29
1 -0.08
10 0.27
11 0.28
12 0.28
15 0.28
16 0.3
17 0.3
18 0.3
19 0.57
2 -0.56
20 0.06
21 0.71
22 -0.05
23 -0.15
24 -0.15
25 -0.11
3 -0.68
30 0.36
4 -0.57
43 0.4
44 0.37
48 0.15
49 0.15
5 -0.57
50 0.15
6 -0.9
7 -0.66
8 -0.73
9 0.27

> <PUBCHEM_EFFECTIVE_ROTOR_COUNT>
9.2

> <PUBCHEM_PHARMACOPHORE_FEATURES>
11
1 2 acceptor
1 3 acceptor
1 3 donor
1 4 acceptor
1 5 acceptor
1 6 cation
1 6 donor
1 8 donor
5 1 22 23 24 25 rings
5 2 9 11 12 15 rings
6 7 10 13 14 16 17 rings

> <PUBCHEM_HEAVY_ATOM_COUNT>
25

> <PUBCHEM_ATOM_DEF_STEREO_COUNT>
3

> <PUBCHEM_ATOM_UDEF_STEREO_COUNT>
0

> <PUBCHEM_BOND_DEF_STEREO_COUNT>
0

> <PUBCHEM_BOND_UDEF_STEREO_COUNT>
0

> <PUBCHEM_ISOTOPIC_ATOM_COUNT>
0

> <PUBCHEM_COMPONENT_COUNT>
1

> <PUBCHEM_CACTVS_TAUTO_COUNT>
2

> <PUBCHEM_CONFORMER_ID>
048098D100000001

> <PUBCHEM_MMFF94_ENERGY>
38.2979

> <PUBCHEM_FEATURE_SELFOVERLAP>
55.822

> <PUBCHEM_SHAPE_FINGERPRINT>
10 15 18040718077915040244
10162869 55 18337666512350379535
10454371 7 14261361232290888219
106641 1 18333733541782562491
10670039 82 13110974110581527106
10906281 52 18271815648508355206
11315181 36 17703789228970018695
11456790 92 18337098000631075128
11638347 137 17385719171928210322
11991303 11 11599709693029401084
12236239 1 17632018538420630335
13073987 5 17895752889825399925
13540713 5 17680719416970782518
13668630 136 8934997070692685677
13673619 4 11241967088279048054
13685833 64 12612751316187148620
13862211 1 11169909481524393044
13885169 127 14707200003430592375
14216079 64 11458419137761224240
14251764 18 18411417336508570935
14849402 71 18272652397810482297
14933364 13 15267340721384981349
15048467 5 17775283867910309846
15183329 4 13470695841025387214
15188451 53 14273453678405570142
15348495 7 17168148983312849760
15690457 1 14345794967644169713
15706992 2 17846510260916650216
15716309 27 15574716906353841047
1577012 14 17203605969612648919
16994733 274 17704073958556163195
1768 124 14562801141613564784
1768 4 18343585174104105288
17980427 23 18336542837136616758
190975 80 17458627843273090664
2026 5 12685079380847580232
20281389 69 17846779581404814952
21095123 293 17131843045092347081
21130935 74 18041280946618076595
21150785 3 14189575243410602476
21344244 78 16008748018455744502
21424621 283 17703799084944361187
21637258 2 13118001110674014974
21792934 111 17022899056071257085
221357 26 12895074029443323202
22224240 67 18334576841283998475
23035841 295 12757153485140030969
23081809 10 17346588647653264926
23559900 14 8790300223975804271
23569943 247 10737547411538112436
23576562 1 13325983635505669697
3178227 256 18113339716880677717
3383291 50 15430325736944658169
3633792 109 13398629481249527818
3711267 37 16773525437856337169
4073 2 17632579361769707079
4340502 62 17022900143167311978
445580 37 13614530636614722499
5104073 3 18042675291118914762
5283156 175 11602536524607024021
5470011 282 12031785890446160568
5758199 1 18060420213835716967
59682541 35 18334859441399449833
59682541 52 12967136021554044692
59755656 215 10807939249511651645
6438161 24 14129060334983051617
9953998 17 18186805794810914051

> <PUBCHEM_SHAPE_MULTIPOLES>
479.92
26.1
1.53
1.46
0.5
0.32
0.25
-14.77
5.83
-1.8
0.14
0.51
-0.14
-0.89

> <PUBCHEM_SHAPE_SELFOVERLAP>
981.899

> <PUBCHEM_SHAPE_VOLUME>
278.2

> <PUBCHEM_COORDINATE_TYPE>
2
5
10

$$$$
