26743712
  -OEChem-12032416373D

 53 56  0     1  0  0  0  0  0999 V2000
    7.5724    0.6231   -0.7596 F   0  0  0  0  0  0  0  0  0  0  0  0
    5.8539   -0.4640   -1.5602 F   0  0  0  0  0  0  0  0  0  0  0  0
    5.9719    1.7349   -1.7487 F   0  0  0  0  0  0  0  0  0  0  0  0
   -4.8688   -3.0085   -2.5384 O   0  0  0  0  0  0  0  0  0  0  0  0
   -1.0908   -2.6160    1.7119 O   0  0  0  0  0  0  0  0  0  0  0  0
    5.5970    0.8210    0.3143 O   0  0  0  0  0  0  0  0  0  0  0  0
   -3.4469   -0.6254   -0.2866 N   0  0  1  0  0  0  0  0  0  0  0  0
   -0.5334   -1.0435    0.2175 N   0  0  0  0  0  0  0  0  0  0  0  0
    0.2724   -2.3599    1.9062 N   0  0  0  0  0  0  0  0  0  0  0  0
   -3.9276    1.7432    0.1629 C   0  0  0  0  0  0  0  0  0  0  0  0
   -3.9198    0.3195    0.7166 C   0  0  0  0  0  0  0  0  0  0  0  0
   -2.9425   -1.8867    0.2934 C   0  0  1  0  0  0  0  0  0  0  0  0
   -4.4023    2.7376    1.2311 C   0  0  0  0  0  0  0  0  0  0  0  0
   -2.5381    2.1279   -0.3628 C   0  0  0  0  0  0  0  0  0  0  0  0
   -4.4981   -0.9959   -1.2322 C   0  0  0  0  0  0  0  0  0  0  0  0
   -3.1951   -2.9485   -0.7931 C   0  0  0  0  0  0  0  0  0  0  0  0
   -3.8852   -2.1979   -1.9252 C   0  0  1  0  0  0  0  0  0  0  0  0
   -4.3681    4.1753    0.7177 C   0  0  0  0  0  0  0  0  0  0  0  0
   -2.5069    3.5665   -0.8734 C   0  0  0  0  0  0  0  0  0  0  0  0
   -2.9876    4.5511    0.1881 C   0  0  0  0  0  0  0  0  0  0  0  0
   -1.4866   -1.7999    0.7002 C   0  0  0  0  0  0  0  0  0  0  0  0
    0.5268   -1.4223    0.9887 C   0  0  0  0  0  0  0  0  0  0  0  0
    1.8284   -0.8450    0.8156 C   0  0  0  0  0  0  0  0  0  0  0  0
    2.0357    0.1299   -0.1604 C   0  0  0  0  0  0  0  0  0  0  0  0
    2.8876   -1.2597    1.6230 C   0  0  0  0  0  0  0  0  0  0  0  0
    3.3020    0.6897   -0.3291 C   0  0  0  0  0  0  0  0  0  0  0  0
    4.1539   -0.6999    1.4543 C   0  0  0  0  0  0  0  0  0  0  0  0
    4.3612    0.2749    0.4782 C   0  0  0  0  0  0  0  0  0  0  0  0
    6.2345    0.6785   -0.9501 C   0  0  0  0  0  0  0  0  0  0  0  0
   -4.6372    1.7975   -0.6741 H   0  0  0  0  0  0  0  0  0  0  0  0
   -4.9107    0.0425    1.0993 H   0  0  0  0  0  0  0  0  0  0  0  0
   -3.2460    0.3041    1.5842 H   0  0  0  0  0  0  0  0  0  0  0  0
   -3.5365   -2.1630    1.1762 H   0  0  0  0  0  0  0  0  0  0  0  0
   -3.7680    2.6597    2.1235 H   0  0  0  0  0  0  0  0  0  0  0  0
   -5.4235    2.4904    1.5448 H   0  0  0  0  0  0  0  0  0  0  0  0
   -2.2314    1.4708   -1.1846 H   0  0  0  0  0  0  0  0  0  0  0  0
   -1.7908    2.0128    0.4332 H   0  0  0  0  0  0  0  0  0  0  0  0
   -4.7172   -0.2013   -1.9529 H   0  0  0  0  0  0  0  0  0  0  0  0
   -5.4386   -1.2732   -0.7380 H   0  0  0  0  0  0  0  0  0  0  0  0
   -2.2771   -3.4239   -1.1572 H   0  0  0  0  0  0  0  0  0  0  0  0
   -3.8398   -3.7454   -0.4020 H   0  0  0  0  0  0  0  0  0  0  0  0
   -3.1567   -1.8814   -2.6818 H   0  0  0  0  0  0  0  0  0  0  0  0
   -4.6527    4.8609    1.5237 H   0  0  0  0  0  0  0  0  0  0  0  0
   -5.1106    4.2952   -0.0808 H   0  0  0  0  0  0  0  0  0  0  0  0
   -3.1411    3.6514   -1.7644 H   0  0  0  0  0  0  0  0  0  0  0  0
   -1.4876    3.8261   -1.1812 H   0  0  0  0  0  0  0  0  0  0  0  0
   -3.0166    5.5625   -0.2327 H   0  0  0  0  0  0  0  0  0  0  0  0
   -2.2712    4.5706    1.0187 H   0  0  0  0  0  0  0  0  0  0  0  0
   -4.4194   -3.7940   -2.8943 H   0  0  0  0  0  0  0  0  0  0  0  0
    1.2301    0.4754   -0.8036 H   0  0  0  0  0  0  0  0  0  0  0  0
    2.7645   -2.0166    2.3936 H   0  0  0  0  0  0  0  0  0  0  0  0
    3.4481    1.4531   -1.0882 H   0  0  0  0  0  0  0  0  0  0  0  0
    4.9756   -1.0269    2.0857 H   0  0  0  0  0  0  0  0  0  0  0  0
  1 29  1  0  0  0  0
  2 29  1  0  0  0  0
  3 29  1  0  0  0  0
  4 17  1  0  0  0  0
  4 49  1  0  0  0  0
  5  9  1  0  0  0  0
  5 21  1  0  0  0  0
  6 28  1  0  0  0  0
  6 29  1  0  0  0  0
  7 11  1  0  0  0  0
  7 12  1  0  0  0  0
  7 15  1  0  0  0  0
  8 21  2  0  0  0  0
  8 22  1  0  0  0  0
  9 22  2  0  0  0  0
 10 11  1  0  0  0  0
 10 13  1  0  0  0  0
 10 14  1  0  0  0  0
 10 30  1  0  0  0  0
 11 31  1  0  0  0  0
 11 32  1  0  0  0  0
 12 16  1  0  0  0  0
 12 21  1  0  0  0  0
 12 33  1  0  0  0  0
 13 18  1  0  0  0  0
 13 34  1  0  0  0  0
 13 35  1  0  0  0  0
 14 19  1  0  0  0  0
 14 36  1  0  0  0  0
 14 37  1  0  0  0  0
 15 17  1  0  0  0  0
 15 38  1  0  0  0  0
 15 39  1  0  0  0  0
 16 17  1  0  0  0  0
 16 40  1  0  0  0  0
 16 41  1  0  0  0  0
 17 42  1  0  0  0  0
 18 20  1  0  0  0  0
 18 43  1  0  0  0  0
 18 44  1  0  0  0  0
 19 20  1  0  0  0  0
 19 45  1  0  0  0  0
 19 46  1  0  0  0  0
 20 47  1  0  0  0  0
 20 48  1  0  0  0  0
 22 23  1  0  0  0  0
 23 24  2  0  0  0  0
 23 25  1  0  0  0  0
 24 26  1  0  0  0  0
 24 50  1  0  0  0  0
 25 27  2  0  0  0  0
 25 51  1  0  0  0  0
 26 28  2  0  0  0  0
 26 52  1  0  0  0  0
 27 28  1  0  0  0  0
 27 53  1  0  0  0  0
M  END
> <PUBCHEM_COMPOUND_CID>
26743712

> <PUBCHEM_CONFORMER_RMSD>
1

> <PUBCHEM_CONFORMER_DIVERSEORDER>
1
8
21
35
23
22
17
26
34
27
3
4
20
5
9
25
19
31
2
16
15
28
10
29
32
7
30
18
13
6
33
11
24
12
14

> <PUBCHEM_MMFF94_PARTIAL_CHARGES>
27
1 -0.34
11 0.27
12 0.45
15 0.27
17 0.28
2 -0.34
21 0.3
22 0.46
23 0.05
24 -0.15
25 -0.15
26 -0.15
27 -0.15
28 0.08
29 1.3
3 -0.34
4 -0.68
49 0.4
5 -0.02
50 0.15
51 0.15
52 0.15
53 0.15
6 -0.36
7 -0.81
8 -0.57
9 -0.41

> <PUBCHEM_EFFECTIVE_ROTOR_COUNT>
8.2

> <PUBCHEM_PHARMACOPHORE_FEATURES>
9
1 4 acceptor
1 4 donor
1 6 acceptor
1 7 cation
3 8 9 22 cation
5 5 8 9 21 22 rings
5 7 12 15 16 17 rings
6 10 13 14 18 19 20 rings
6 23 24 25 26 27 28 rings

> <PUBCHEM_HEAVY_ATOM_COUNT>
29

> <PUBCHEM_ATOM_DEF_STEREO_COUNT>
2

> <PUBCHEM_ATOM_UDEF_STEREO_COUNT>
0

> <PUBCHEM_BOND_DEF_STEREO_COUNT>
0

> <PUBCHEM_BOND_UDEF_STEREO_COUNT>
0

> <PUBCHEM_ISOTOPIC_ATOM_COUNT>
0

> <PUBCHEM_COMPONENT_COUNT>
1

> <PUBCHEM_CACTVS_TAUTO_COUNT>
1

> <PUBCHEM_CONFORMER_ID>
019813A000000001

> <PUBCHEM_MMFF94_ENERGY>
55.9298

> <PUBCHEM_FEATURE_SELFOVERLAP>
45.672

> <PUBCHEM_SHAPE_FINGERPRINT>
10087517 78 18409163342204513232
10165383 225 17560813100343781187
10670039 82 18407759244438619808
10864689 126 18124593090017531656
10871710 139 18409161087799902249
10937287 8 17981880844734730561
11049842 53 17912061877329560739
11211813 163 18339930303755193190
11315621 246 18059288872258292135
11477941 20 18129086991233525981
11513181 2 18340486664786184326
11578080 2 17774177698882999383
12107183 9 17903343819678378202
12390115 104 18337401434820605737
12788726 201 18408597080593520843
13383668 90 17988372550057726974
13540713 5 18190162512777911834
13761468 95 17985845743271891433
14114211 80 17770787819279415393
14187579 7 18339082712991487408
14251764 75 17979643329676979665
14294032 229 18201159863445773001
14790565 3 18114750326454626480
15021287 119 17315621912475220810
15064981 113 18129645405843972910
15183329 4 18040431101818894602
15198563 99 18129364026274200269
15289351 153 18191023612238097708
15448158 71 17973436603443363369
15575132 122 18263077730918833237
15876981 60 18338521953502698717
16992828 155 18115582626529591677
21033650 10 18342462538651911274
21120745 212 18341325691485119909
21756936 100 18261684717772727083
249057 25 18115569505656897546
25147074 1 18115014226604692130
255183 451 17554309695203376391
3388396 114 17978792642489357837
3552219 110 17025463220704457987
3610482 184 18262533532375486020
38570 142 18042985180871462994
397830 11 8213852623732438694
50677037 204 18114465668960845836
5171179 24 18058724857111186256
5252454 2 18194956353790052249
5283173 99 18341899589062402024
531348 171 18272937089828311470
550186 7 18273496758215085735
6058803 2 18119225304378589755
636775 72 18336830918274947736
6608658 132 18337380617351284511
6700243 42 17622770721469846078
7288768 16 17604160224796745123
7808743 9 18337674118046818729
9982175 49 17532111512704687132

> <PUBCHEM_SHAPE_MULTIPOLES>
542.43
15.02
4.84
1.76
26.29
3.82
-0.36
6.81
-6.17
-10.24
-0.39
0.05
-1.15
-3.96

> <PUBCHEM_SHAPE_SELFOVERLAP>
1159.636

> <PUBCHEM_SHAPE_VOLUME>
303.5

> <PUBCHEM_COORDINATE_TYPE>
2
5
10

$$$$
