56775047
  -OEChem-12032416273D

 49 52  0     1  0  0  0  0  0999 V2000
   -6.5225    3.5010    1.1351 F   0  0  0  0  0  0  0  0  0  0  0  0
   -0.8727   -2.8529    1.0379 O   0  0  0  0  0  0  0  0  0  0  0  0
   -4.1785   -2.8365   -0.1820 O   0  0  0  0  0  0  0  0  0  0  0  0
    7.8395    0.5905    1.2577 O   0  0  0  0  0  0  0  0  0  0  0  0
    7.3823    2.6021    0.3032 O   0  0  0  0  0  0  0  0  0  0  0  0
    1.0616   -0.6698   -0.4945 N   0  0  1  0  0  0  0  0  0  0  0  0
   -2.5511   -1.1836   -0.3710 N   0  0  0  0  0  0  0  0  0  0  0  0
   -1.2048   -0.7218   -0.0447 C   0  0  1  0  0  0  0  0  0  0  0  0
   -0.5247   -1.4718    1.0962 C   0  0  2  0  0  0  0  0  0  0  0  0
   -0.2065   -0.9018   -1.1851 C   0  0  0  0  0  0  0  0  0  0  0  0
    0.9743   -1.3547    0.8018 C   0  0  0  0  0  0  0  0  0  0  0  0
    2.2136   -1.0862   -1.2784 C   0  0  0  0  0  0  0  0  0  0  0  0
   -3.0865   -2.3637    0.1366 C   0  0  0  0  0  0  0  0  0  0  0  0
   -2.2589   -3.0314    1.2138 C   0  0  0  0  0  0  0  0  0  0  0  0
   -3.3016   -0.4012   -1.3445 C   0  0  0  0  0  0  0  0  0  0  0  0
    3.4817   -0.4270   -0.8050 C   0  0  0  0  0  0  0  0  0  0  0  0
   -4.1621    0.6416   -0.6821 C   0  0  0  0  0  0  0  0  0  0  0  0
    3.7370    0.9057   -1.1283 C   0  0  0  0  0  0  0  0  0  0  0  0
    4.4012   -1.1487   -0.0438 C   0  0  0  0  0  0  0  0  0  0  0  0
   -5.4705    0.3323   -0.3103 C   0  0  0  0  0  0  0  0  0  0  0  0
   -3.6513    1.9168   -0.4400 C   0  0  0  0  0  0  0  0  0  0  0  0
    4.9117    1.5168   -0.6900 C   0  0  0  0  0  0  0  0  0  0  0  0
    5.5759   -0.5375    0.3944 C   0  0  0  0  0  0  0  0  0  0  0  0
    5.8312    0.7952    0.0715 C   0  0  0  0  0  0  0  0  0  0  0  0
   -6.2681    1.2982    0.3033 C   0  0  0  0  0  0  0  0  0  0  0  0
   -4.4489    2.8827    0.1736 C   0  0  0  0  0  0  0  0  0  0  0  0
   -5.7572    2.5734    0.5452 C   0  0  0  0  0  0  0  0  0  0  0  0
    7.0558    1.4323    0.5293 C   0  0  0  0  0  0  0  0  0  0  0  0
   -1.2639    0.3410    0.2241 H   0  0  0  0  0  0  0  0  0  0  0  0
   -0.7821   -1.0651    2.0811 H   0  0  0  0  0  0  0  0  0  0  0  0
   -0.3603   -0.1734   -1.9872 H   0  0  0  0  0  0  0  0  0  0  0  0
   -0.2681   -1.9118   -1.6116 H   0  0  0  0  0  0  0  0  0  0  0  0
    1.4647   -0.7372    1.5620 H   0  0  0  0  0  0  0  0  0  0  0  0
    1.4487   -2.3436    0.7993 H   0  0  0  0  0  0  0  0  0  0  0  0
    2.0774   -0.7881   -2.3278 H   0  0  0  0  0  0  0  0  0  0  0  0
    2.3214   -2.1789   -1.3063 H   0  0  0  0  0  0  0  0  0  0  0  0
   -2.5735   -2.6551    2.1938 H   0  0  0  0  0  0  0  0  0  0  0  0
   -2.4600   -4.1070    1.1824 H   0  0  0  0  0  0  0  0  0  0  0  0
   -3.9394   -1.0737   -1.9320 H   0  0  0  0  0  0  0  0  0  0  0  0
   -2.6201    0.0644   -2.0646 H   0  0  0  0  0  0  0  0  0  0  0  0
    3.0283    1.4784   -1.7208 H   0  0  0  0  0  0  0  0  0  0  0  0
    4.2133   -2.1872    0.2156 H   0  0  0  0  0  0  0  0  0  0  0  0
   -5.8843   -0.6550   -0.4955 H   0  0  0  0  0  0  0  0  0  0  0  0
   -2.6356    2.1731   -0.7286 H   0  0  0  0  0  0  0  0  0  0  0  0
    5.0920    2.5560   -0.9522 H   0  0  0  0  0  0  0  0  0  0  0  0
    6.2639   -1.1360    0.9849 H   0  0  0  0  0  0  0  0  0  0  0  0
   -7.2870    1.0580    0.5923 H   0  0  0  0  0  0  0  0  0  0  0  0
   -4.0518    3.8759    0.3614 H   0  0  0  0  0  0  0  0  0  0  0  0
    8.6624    1.0297    1.5617 H   0  0  0  0  0  0  0  0  0  0  0  0
  1 27  1  0  0  0  0
  2  9  1  0  0  0  0
  2 14  1  0  0  0  0
  3 13  2  0  0  0  0
  4 28  1  0  0  0  0
  4 49  1  0  0  0  0
  5 28  2  0  0  0  0
  6 10  1  0  0  0  0
  6 11  1  0  0  0  0
  6 12  1  0  0  0  0
  7  8  1  0  0  0  0
  7 13  1  0  0  0  0
  7 15  1  0  0  0  0
  8  9  1  0  0  0  0
  8 10  1  0  0  0  0
  8 29  1  0  0  0  0
  9 11  1  0  0  0  0
  9 30  1  0  0  0  0
 10 31  1  0  0  0  0
 10 32  1  0  0  0  0
 11 33  1  0  0  0  0
 11 34  1  0  0  0  0
 12 16  1  0  0  0  0
 12 35  1  0  0  0  0
 12 36  1  0  0  0  0
 13 14  1  0  0  0  0
 14 37  1  0  0  0  0
 14 38  1  0  0  0  0
 15 17  1  0  0  0  0
 15 39  1  0  0  0  0
 15 40  1  0  0  0  0
 16 18  2  0  0  0  0
 16 19  1  0  0  0  0
 17 20  2  0  0  0  0
 17 21  1  0  0  0  0
 18 22  1  0  0  0  0
 18 41  1  0  0  0  0
 19 23  2  0  0  0  0
 19 42  1  0  0  0  0
 20 25  1  0  0  0  0
 20 43  1  0  0  0  0
 21 26  2  0  0  0  0
 21 44  1  0  0  0  0
 22 24  2  0  0  0  0
 22 45  1  0  0  0  0
 23 24  1  0  0  0  0
 23 46  1  0  0  0  0
 24 28  1  0  0  0  0
 25 27  2  0  0  0  0
 25 47  1  0  0  0  0
 26 27  1  0  0  0  0
 26 48  1  0  0  0  0
M  END
> <PUBCHEM_COMPOUND_CID>
56775047

> <PUBCHEM_CONFORMER_RMSD>
0.8

> <PUBCHEM_CONFORMER_DIVERSEORDER>
1
14
44
24
42
73
45
27
57
68
6
53
15
51
81
26
75
69
58
92
50
4
46
76
16
23
63
87
62
72
77
61
79
3
8
38
28
67
31
90
59
91
70
89
33
48
56
66
84
88
65
49
78
71
17
7
64
36
80
39
41
11
35
43
9
82
12
10
13
34
83
25
30
21
18
40
54
32
85
22
86
29
2
52
20
74
19
60
55
37
5
47

> <PUBCHEM_MMFF94_PARTIAL_CHARGES>
37
1 -0.19
10 0.27
11 0.27
12 0.41
13 0.57
14 0.34
15 0.44
16 -0.14
17 -0.14
18 -0.15
19 -0.15
2 -0.56
20 -0.15
21 -0.15
22 -0.15
23 -0.15
24 0.09
25 -0.15
26 -0.15
27 0.19
28 0.63
3 -0.57
4 -0.65
41 0.15
42 0.15
43 0.15
44 0.15
45 0.15
46 0.15
47 0.15
48 0.15
49 0.5
5 -0.57
6 -0.81
7 -0.66
8 0.3
9 0.28

> <PUBCHEM_EFFECTIVE_ROTOR_COUNT>
6.2

> <PUBCHEM_PHARMACOPHORE_FEATURES>
10
1 2 acceptor
1 3 acceptor
1 4 acceptor
1 5 acceptor
1 6 cation
3 4 5 28 anion
5 6 8 9 10 11 rings
6 16 18 19 22 23 24 rings
6 17 20 21 25 26 27 rings
6 2 7 8 9 13 14 rings

> <PUBCHEM_HEAVY_ATOM_COUNT>
28

> <PUBCHEM_ATOM_DEF_STEREO_COUNT>
2

> <PUBCHEM_ATOM_UDEF_STEREO_COUNT>
0

> <PUBCHEM_BOND_DEF_STEREO_COUNT>
0

> <PUBCHEM_BOND_UDEF_STEREO_COUNT>
0

> <PUBCHEM_ISOTOPIC_ATOM_COUNT>
0

> <PUBCHEM_COMPONENT_COUNT>
1

> <PUBCHEM_CACTVS_TAUTO_COUNT>
2

> <PUBCHEM_CONFORMER_ID>
0362518700000001

> <PUBCHEM_MMFF94_ENERGY>
79.0225

> <PUBCHEM_FEATURE_SELFOVERLAP>
50.958

> <PUBCHEM_SHAPE_FINGERPRINT>
10087517 78 18408601487398836669
10291535 26 18412267259244774627
10411042 1 17905609153620347139
10554248 39 16415213239260213196
10692045 39 18042963182139059722
10835480 77 18411976988465139972
10883706 163 18260263049196665900
11135609 201 18199479771087311449
11475781 23 18201444649288419900
11720765 8 17264982692950808791
12107183 9 18116143382081213194
12403259 118 18337674234569715286
12616971 3 16298387989525202102
12895836 83 17846494808209608941
12895837 130 18201718491786609141
13073987 5 18334012817588961162
13540713 5 16807593900195676974
13690498 29 15984241059381592661
13782708 43 10881403136233048004
13911987 19 16630528444415494383
14394314 77 18339364063562404825
14598715 104 17917416675519253640
14739800 52 18338785741619220864
14790565 3 18192997011373830841
15021287 119 16225764138292776220
15183329 4 17967526900695842014
16126227 98 18412549791195137217
16993089 31 13479405012668310472
17913733 40 17023185985656232203
17980427 23 18114464560494643830
18222031 100 11167930334329123207
18608769 82 18411422847795896939
19438510 23 18341051835015404289
21130935 74 18260823844057218602
21236236 1 18334012834958591439
21267235 1 11167935888497043671
21424621 283 18411420566434760305
21623969 137 13479126879192051048
21756936 100 18412259528651911831
21774942 28 18201719523201271624
22122407 14 18337959021056498576
23522609 53 17313967311053498876
23569943 247 16155084168385401938
249057 25 17823139089143715606
2838139 119 18273207621101556340
2916195 48 18411420575167158637
4073 2 18261114110509970490
44249763 50 17346018065843443524
44802255 64 17417812884844102582
465052 167 12324250451279230998
5104073 3 17967248706911031290
5283173 99 18413107272874299898
5385378 56 18041276565862184762
5718773 13 11459011800731552745
5969126 39 18198899409041482055
636775 72 18341327894397921272
7226269 152 18341610391070075761
7808743 9 18410573951551303147

> <PUBCHEM_SHAPE_MULTIPOLES>
535.51
19.79
3.51
1.18
20.51
0.33
-0.06
18.4
4.41
-5.15
1.26
0.14
-0.18
-0.41

> <PUBCHEM_SHAPE_SELFOVERLAP>
1163.569

> <PUBCHEM_SHAPE_VOLUME>
293.3

> <PUBCHEM_COORDINATE_TYPE>
2
5
10

$$$$
