45783513
  -OEChem-12032416363D

 58 63  0     1  0  0  0  0  0999 V2000
   -2.3019   -2.4749    1.3345 O   0  0  0  0  0  0  0  0  0  0  0  0
    7.5728    0.2995   -0.3599 O   0  0  0  0  0  0  0  0  0  0  0  0
   -4.3289   -0.2173   -0.7390 N   0  0  1  0  0  0  0  0  0  0  0  0
   -1.5183   -1.0931   -0.2446 N   0  0  0  0  0  0  0  0  0  0  0  0
   -1.8130    2.0375    2.2862 N   0  0  0  0  0  0  0  0  0  0  0  0
   -0.9115   -2.4424    1.5005 N   0  0  0  0  0  0  0  0  0  0  0  0
    4.8386   -0.3391   -0.2351 N   0  0  0  0  0  0  0  0  0  0  0  0
    3.1706   -1.5139    0.9642 N   0  0  0  0  0  0  0  0  0  0  0  0
   -4.0328   -1.5147   -0.0992 C   0  0  1  0  0  0  0  0  0  0  0  0
   -4.4788   -2.5694   -1.1286 C   0  0  0  0  0  0  0  0  0  0  0  0
   -5.4501   -0.4518   -1.6492 C   0  0  0  0  0  0  0  0  0  0  0  0
   -5.0670   -1.7730   -2.2847 C   0  0  0  0  0  0  0  0  0  0  0  0
   -4.6128    0.8439    0.2185 C   0  0  0  0  0  0  0  0  0  0  0  0
   -2.5750   -1.6542    0.2866 C   0  0  0  0  0  0  0  0  0  0  0  0
   -3.3527    1.4132    0.8143 C   0  0  0  0  0  0  0  0  0  0  0  0
   -2.2775    2.0172    0.1043 C   0  0  0  0  0  0  0  0  0  0  0  0
   -3.0379    1.4405    2.1533 C   0  0  0  0  0  0  0  0  0  0  0  0
   -1.3249    2.4000    1.0511 C   0  0  0  0  0  0  0  0  0  0  0  0
   -0.5217   -1.6067    0.5333 C   0  0  0  0  0  0  0  0  0  0  0  0
   -2.0225    2.2758   -1.2571 C   0  0  0  0  0  0  0  0  0  0  0  0
   -0.1253    3.0308    0.7030 C   0  0  0  0  0  0  0  0  0  0  0  0
    0.8546   -1.2654    0.3166 C   0  0  0  0  0  0  0  0  0  0  0  0
    5.8526   -1.3426    0.1172 C   0  0  0  0  0  0  0  0  0  0  0  0
    5.2790    1.0565   -0.1325 C   0  0  0  0  0  0  0  0  0  0  0  0
    3.4925   -0.6622   -0.0350 C   0  0  0  0  0  0  0  0  0  0  0  0
    7.1533   -1.0403   -0.6183 C   0  0  0  0  0  0  0  0  0  0  0  0
    6.6109    1.2308   -0.8539 C   0  0  0  0  0  0  0  0  0  0  0  0
   -0.8267    2.9062   -1.6201 C   0  0  0  0  0  0  0  0  0  0  0  0
    0.1058    3.2771   -0.6534 C   0  0  0  0  0  0  0  0  0  0  0  0
    1.2250   -0.3931   -0.7008 C   0  0  0  0  0  0  0  0  0  0  0  0
    2.5672   -0.0806   -0.8867 C   0  0  0  0  0  0  0  0  0  0  0  0
    1.8565   -1.7941    1.1145 C   0  0  0  0  0  0  0  0  0  0  0  0
   -4.6448   -1.6522    0.8034 H   0  0  0  0  0  0  0  0  0  0  0  0
   -5.2560   -3.2070   -0.6898 H   0  0  0  0  0  0  0  0  0  0  0  0
   -3.6682   -3.2190   -1.4763 H   0  0  0  0  0  0  0  0  0  0  0  0
   -6.3999   -0.5508   -1.1083 H   0  0  0  0  0  0  0  0  0  0  0  0
   -5.5467    0.3411   -2.3974 H   0  0  0  0  0  0  0  0  0  0  0  0
   -5.9198   -2.2804   -2.7452 H   0  0  0  0  0  0  0  0  0  0  0  0
   -4.3036   -1.6188   -3.0574 H   0  0  0  0  0  0  0  0  0  0  0  0
   -5.1112    1.6785   -0.2944 H   0  0  0  0  0  0  0  0  0  0  0  0
   -5.3053    0.5147    1.0040 H   0  0  0  0  0  0  0  0  0  0  0  0
   -3.5733    1.0881    3.0239 H   0  0  0  0  0  0  0  0  0  0  0  0
   -1.3350    2.1895    3.1636 H   0  0  0  0  0  0  0  0  0  0  0  0
   -2.7380    1.9959   -2.0249 H   0  0  0  0  0  0  0  0  0  0  0  0
    0.6022    3.3184    1.4546 H   0  0  0  0  0  0  0  0  0  0  0  0
    6.0221   -1.3114    1.2006 H   0  0  0  0  0  0  0  0  0  0  0  0
    5.5202   -2.3521   -0.1522 H   0  0  0  0  0  0  0  0  0  0  0  0
    4.5510    1.7536   -0.5611 H   0  0  0  0  0  0  0  0  0  0  0  0
    5.3965    1.3065    0.9291 H   0  0  0  0  0  0  0  0  0  0  0  0
    7.0439   -1.1855   -1.6999 H   0  0  0  0  0  0  0  0  0  0  0  0
    7.9435   -1.7136   -0.2716 H   0  0  0  0  0  0  0  0  0  0  0  0
    6.4987    1.0995   -1.9370 H   0  0  0  0  0  0  0  0  0  0  0  0
    6.9997    2.2392   -0.6807 H   0  0  0  0  0  0  0  0  0  0  0  0
   -0.6242    3.1074   -2.6687 H   0  0  0  0  0  0  0  0  0  0  0  0
    1.0289    3.7638   -0.9576 H   0  0  0  0  0  0  0  0  0  0  0  0
    0.4914    0.0471   -1.3701 H   0  0  0  0  0  0  0  0  0  0  0  0
    2.8563    0.5876   -1.6913 H   0  0  0  0  0  0  0  0  0  0  0  0
    1.6516   -2.4816    1.9297 H   0  0  0  0  0  0  0  0  0  0  0  0
  1  6  1  0  0  0  0
  1 14  1  0  0  0  0
  2 26  1  0  0  0  0
  2 27  1  0  0  0  0
  3  9  1  0  0  0  0
  3 11  1  0  0  0  0
  3 13  1  0  0  0  0
  4 14  2  0  0  0  0
  4 19  1  0  0  0  0
  5 17  1  0  0  0  0
  5 18  1  0  0  0  0
  5 43  1  0  0  0  0
  6 19  2  0  0  0  0
  7 23  1  0  0  0  0
  7 24  1  0  0  0  0
  7 25  1  0  0  0  0
  8 25  2  0  0  0  0
  8 32  1  0  0  0  0
  9 10  1  0  0  0  0
  9 14  1  0  0  0  0
  9 33  1  0  0  0  0
 10 12  1  0  0  0  0
 10 34  1  0  0  0  0
 10 35  1  0  0  0  0
 11 12  1  0  0  0  0
 11 36  1  0  0  0  0
 11 37  1  0  0  0  0
 12 38  1  0  0  0  0
 12 39  1  0  0  0  0
 13 15  1  0  0  0  0
 13 40  1  0  0  0  0
 13 41  1  0  0  0  0
 15 16  1  0  0  0  0
 15 17  2  0  0  0  0
 16 18  1  0  0  0  0
 16 20  2  0  0  0  0
 17 42  1  0  0  0  0
 18 21  2  0  0  0  0
 19 22  1  0  0  0  0
 20 28  1  0  0  0  0
 20 44  1  0  0  0  0
 21 29  1  0  0  0  0
 21 45  1  0  0  0  0
 22 30  1  0  0  0  0
 22 32  2  0  0  0  0
 23 26  1  0  0  0  0
 23 46  1  0  0  0  0
 23 47  1  0  0  0  0
 24 27  1  0  0  0  0
 24 48  1  0  0  0  0
 24 49  1  0  0  0  0
 25 31  1  0  0  0  0
 26 50  1  0  0  0  0
 26 51  1  0  0  0  0
 27 52  1  0  0  0  0
 27 53  1  0  0  0  0
 28 29  2  0  0  0  0
 28 54  1  0  0  0  0
 29 55  1  0  0  0  0
 30 31  2  0  0  0  0
 30 56  1  0  0  0  0
 31 57  1  0  0  0  0
 32 58  1  0  0  0  0
M  END
> <PUBCHEM_COMPOUND_CID>
45783513

> <PUBCHEM_CONFORMER_RMSD>
1

> <PUBCHEM_CONFORMER_DIVERSEORDER>
1
118
90
96
112
149
110
68
80
108
81
18
131
109
128
25
29
58
16
136
66
87
37
132
145
51
148
6
26
12
125
28
98
137
30
152
56
36
45
86
105
135
54
7
55
119
133
48
99
23
47
120
77
147
76
46
163
150
130
2
11
21
97
138
20
123
31
146
5
167
141
84
83
140
82
162
157
151
115
64
60
121
75
19
74
72
89
122
139
134
107
142
41
13
70
166
67
91
154
42
126
9
170
71
169
113
85
79
44
124
93
4
104
73
3
114
95
143
35
40
117
101
103
32
43
127
158
59
22
156
92
34
129
24
17
165
57
78
144
33
100
39
88
38
161
14
50
168
164
106
65
10
111
63
155
94
102
52
153
116
15
27
53
69
159
160
8
61
49
62

> <PUBCHEM_MMFF94_PARTIAL_CHARGES>
38
1 -0.02
11 0.27
13 0.45
14 0.3
15 -0.18
17 -0.3
18 -0.15
19 0.46
2 -0.56
20 -0.15
21 -0.15
22 0.05
23 0.37
24 0.37
25 0.41
26 0.28
27 0.28
28 -0.15
29 -0.15
3 -0.81
30 -0.15
31 -0.15
32 0.16
4 -0.57
42 0.15
43 0.27
44 0.15
45 0.15
5 0.03
54 0.15
55 0.15
56 0.15
57 0.15
58 0.15
6 -0.41
7 -0.84
8 -0.62
9 0.45

> <PUBCHEM_EFFECTIVE_ROTOR_COUNT>
7.2

> <PUBCHEM_PHARMACOPHORE_FEATURES>
12
1 2 acceptor
1 3 cation
1 5 cation
1 5 donor
3 4 6 19 cation
3 7 8 25 cation
5 1 4 6 14 19 rings
5 3 9 10 11 12 rings
5 5 15 16 17 18 rings
6 16 18 20 21 28 29 rings
6 2 7 23 24 26 27 rings
6 8 22 25 30 31 32 rings

> <PUBCHEM_HEAVY_ATOM_COUNT>
32

> <PUBCHEM_ATOM_DEF_STEREO_COUNT>
1

> <PUBCHEM_ATOM_UDEF_STEREO_COUNT>
0

> <PUBCHEM_BOND_DEF_STEREO_COUNT>
0

> <PUBCHEM_BOND_UDEF_STEREO_COUNT>
0

> <PUBCHEM_ISOTOPIC_ATOM_COUNT>
0

> <PUBCHEM_COMPONENT_COUNT>
1

> <PUBCHEM_CACTVS_TAUTO_COUNT>
1

> <PUBCHEM_CONFORMER_ID>
02BA99D900000001

> <PUBCHEM_MMFF94_ENERGY>
72.3662

> <PUBCHEM_FEATURE_SELFOVERLAP>
60.992

> <PUBCHEM_SHAPE_FINGERPRINT>
10454371 7 18271816718050410532
10670039 82 18409165498752498858
10871710 139 18263360300980049617
12107698 1 18131630118952958204
12156800 1 16522661861627672877
12166972 35 17896039995704747951
12645989 146 18342181017074196918
12788726 201 18261663788339045186
13782708 43 17132121230171555454
14068700 675 17988921223439537385
14394314 77 18334862662910505189
14931854 50 18335405877578242631
15183329 4 18334579002417562770
15297060 5 17774726368544999467
15876981 60 18342460382709846893
17492 54 18187914067992404565
17686467 74 18270110357703257618
18336668 15 18186527626315787445
19958102 18 18335707088088329926
20775438 99 16975016665086812527
21236236 1 18412549799463097194
21304303 64 17894911794376079093
21344244 246 17837197548233271415
21623110 236 18411146860991312144
23419403 2 17697552811385710721
23559900 14 18265326386077700153
392239 28 18339932532611546448
469060 322 17821447967193023692
484989 97 17971190576852038371
497634 4 18202002092777392580
5171179 24 17916575578450512048
57527585 103 17971223458678317787
7226269 152 18113898264518961998

> <PUBCHEM_SHAPE_MULTIPOLES>
616.92
14.7
3.65
1.7
27.27
1.76
0.14
-4.77
-5.61
-2.86
0.15
-2.13
0.22
-1.85

> <PUBCHEM_SHAPE_SELFOVERLAP>
1363.435

> <PUBCHEM_SHAPE_VOLUME>
332.1

> <PUBCHEM_COORDINATE_TYPE>
2
5
10

$$$$
