45360924
  -OEChem-12032416233D

 66 69  0     1  0  0  0  0  0999 V2000
   -3.6464    4.6957   -0.0952 F   0  0  0  0  0  0  0  0  0  0  0  0
    1.8572   -2.6495    0.6875 O   0  0  0  0  0  0  0  0  0  0  0  0
   -5.5188   -1.7762   -1.4308 O   0  0  0  0  0  0  0  0  0  0  0  0
    8.9129    1.6680   -0.6089 O   0  0  0  0  0  0  0  0  0  0  0  0
    9.1764   -0.5598   -0.2428 O   0  0  0  0  0  0  0  0  0  0  0  0
    2.0330   -0.0583   -0.0526 N   0  0  1  0  0  0  0  0  0  0  0  0
   -1.2283   -1.2621   -1.1951 N   0  0  1  0  0  0  0  0  0  0  0  0
   -0.3624   -2.5524    1.2356 N   0  0  0  0  0  0  0  0  0  0  0  0
   -5.5855   -1.2440    0.8278 N   0  0  0  0  0  0  0  0  0  0  0  0
   -0.2814   -0.2081   -0.7684 C   0  0  1  0  0  0  0  0  0  0  0  0
    0.7065   -0.5249    0.3926 C   0  0  1  0  0  0  0  0  0  0  0  0
    0.6727    0.2629   -1.8818 C   0  0  0  0  0  0  0  0  0  0  0  0
    1.8104    0.9099   -1.1205 C   0  0  0  0  0  0  0  0  0  0  0  0
   -2.2124   -1.6654   -0.1521 C   0  0  2  0  0  0  0  0  0  0  0  0
    0.8141   -2.0016    0.7640 C   0  0  0  0  0  0  0  0  0  0  0  0
   -1.6245   -1.8402    1.2618 C   0  0  0  0  0  0  0  0  0  0  0  0
    2.8435    0.4919    1.0263 C   0  0  0  0  0  0  0  0  0  0  0  0
   -2.8942   -2.9948   -0.5388 C   0  0  0  0  0  0  0  0  0  0  0  0
   -1.9269   -0.8695   -2.4308 C   0  0  0  0  0  0  0  0  0  0  0  0
   -4.2489   -3.1185    0.1336 C   0  0  0  0  0  0  0  0  0  0  0  0
    4.3107    0.4778    0.6887 C   0  0  0  0  0  0  0  0  0  0  0  0
   -5.1795   -1.9889   -0.2698 C   0  0  0  0  0  0  0  0  0  0  0  0
    5.0287   -0.7165    0.7514 C   0  0  0  0  0  0  0  0  0  0  0  0
    4.9519    1.6584    0.3134 C   0  0  0  0  0  0  0  0  0  0  0  0
    6.3879   -0.7300    0.4387 C   0  0  0  0  0  0  0  0  0  0  0  0
    6.3112    1.6447    0.0007 C   0  0  0  0  0  0  0  0  0  0  0  0
    7.0292    0.4504    0.0632 C   0  0  0  0  0  0  0  0  0  0  0  0
   -6.4734   -0.1122    0.7056 C   0  0  0  0  0  0  0  0  0  0  0  0
    8.4462    0.4366   -0.2639 C   0  0  0  0  0  0  0  0  0  0  0  0
   -5.7180    1.1724    0.4914 C   0  0  0  0  0  0  0  0  0  0  0  0
   -5.3171    1.9365    1.5875 C   0  0  0  0  0  0  0  0  0  0  0  0
   -5.4191    1.5988   -0.8026 C   0  0  0  0  0  0  0  0  0  0  0  0
   -4.6175    3.1267    1.3896 C   0  0  0  0  0  0  0  0  0  0  0  0
   -4.7195    2.7891   -1.0007 C   0  0  0  0  0  0  0  0  0  0  0  0
   -4.3187    3.5530    0.0954 C   0  0  0  0  0  0  0  0  0  0  0  0
   -0.8644    0.6752   -0.4637 H   0  0  0  0  0  0  0  0  0  0  0  0
    0.3929    0.0352    1.2836 H   0  0  0  0  0  0  0  0  0  0  0  0
    0.1987    0.9735   -2.5668 H   0  0  0  0  0  0  0  0  0  0  0  0
    1.0473   -0.5879   -2.4666 H   0  0  0  0  0  0  0  0  0  0  0  0
    2.6895    1.0386   -1.7591 H   0  0  0  0  0  0  0  0  0  0  0  0
    1.4986    1.8904   -0.7387 H   0  0  0  0  0  0  0  0  0  0  0  0
   -2.9517   -0.8593   -0.0793 H   0  0  0  0  0  0  0  0  0  0  0  0
   -1.4764   -0.8643    1.7354 H   0  0  0  0  0  0  0  0  0  0  0  0
   -2.2885   -2.3960    1.9295 H   0  0  0  0  0  0  0  0  0  0  0  0
    2.7275   -0.1151    1.9354 H   0  0  0  0  0  0  0  0  0  0  0  0
    2.5143    1.4992    1.3154 H   0  0  0  0  0  0  0  0  0  0  0  0
   -2.2655   -3.8510   -0.2635 H   0  0  0  0  0  0  0  0  0  0  0  0
   -3.0579   -3.0991   -1.6136 H   0  0  0  0  0  0  0  0  0  0  0  0
   -0.3535   -3.5264    1.5223 H   0  0  0  0  0  0  0  0  0  0  0  0
   -2.6292   -1.6182   -2.8011 H   0  0  0  0  0  0  0  0  0  0  0  0
   -1.2220   -0.7336   -3.2574 H   0  0  0  0  0  0  0  0  0  0  0  0
   -2.4824    0.0660   -2.2950 H   0  0  0  0  0  0  0  0  0  0  0  0
   -4.1551   -3.1897    1.2210 H   0  0  0  0  0  0  0  0  0  0  0  0
   -4.7288   -4.0522   -0.1853 H   0  0  0  0  0  0  0  0  0  0  0  0
    4.5421   -1.6428    1.0441 H   0  0  0  0  0  0  0  0  0  0  0  0
    4.4031    2.5949    0.2593 H   0  0  0  0  0  0  0  0  0  0  0  0
    6.9297   -1.6707    0.4937 H   0  0  0  0  0  0  0  0  0  0  0  0
    6.7703    2.5862   -0.2871 H   0  0  0  0  0  0  0  0  0  0  0  0
   -5.2362   -1.4714    1.7539 H   0  0  0  0  0  0  0  0  0  0  0  0
   -7.1766   -0.2821   -0.1184 H   0  0  0  0  0  0  0  0  0  0  0  0
   -7.0675   -0.0582    1.6249 H   0  0  0  0  0  0  0  0  0  0  0  0
   -5.5422    1.6139    2.6006 H   0  0  0  0  0  0  0  0  0  0  0  0
   -5.7268    1.0156   -1.6660 H   0  0  0  0  0  0  0  0  0  0  0  0
    9.8690    1.6478   -0.8277 H   0  0  0  0  0  0  0  0  0  0  0  0
   -4.3046    3.7215    2.2426 H   0  0  0  0  0  0  0  0  0  0  0  0
   -4.4864    3.1211   -2.0080 H   0  0  0  0  0  0  0  0  0  0  0  0
  1 35  1  0  0  0  0
  2 15  2  0  0  0  0
  3 22  2  0  0  0  0
  4 29  1  0  0  0  0
  4 64  1  0  0  0  0
  5 29  2  0  0  0  0
  6 11  1  0  0  0  0
  6 13  1  0  0  0  0
  6 17  1  0  0  0  0
  7 10  1  0  0  0  0
  7 14  1  0  0  0  0
  7 19  1  0  0  0  0
  8 15  1  0  0  0  0
  8 16  1  0  0  0  0
  8 49  1  0  0  0  0
  9 22  1  0  0  0  0
  9 28  1  0  0  0  0
  9 59  1  0  0  0  0
 10 11  1  0  0  0  0
 10 12  1  0  0  0  0
 10 36  1  0  0  0  0
 11 15  1  0  0  0  0
 11 37  1  0  0  0  0
 12 13  1  0  0  0  0
 12 38  1  0  0  0  0
 12 39  1  0  0  0  0
 13 40  1  0  0  0  0
 13 41  1  0  0  0  0
 14 16  1  0  0  0  0
 14 18  1  0  0  0  0
 14 42  1  0  0  0  0
 16 43  1  0  0  0  0
 16 44  1  0  0  0  0
 17 21  1  0  0  0  0
 17 45  1  0  0  0  0
 17 46  1  0  0  0  0
 18 20  1  0  0  0  0
 18 47  1  0  0  0  0
 18 48  1  0  0  0  0
 19 50  1  0  0  0  0
 19 51  1  0  0  0  0
 19 52  1  0  0  0  0
 20 22  1  0  0  0  0
 20 53  1  0  0  0  0
 20 54  1  0  0  0  0
 21 23  2  0  0  0  0
 21 24  1  0  0  0  0
 23 25  1  0  0  0  0
 23 55  1  0  0  0  0
 24 26  2  0  0  0  0
 24 56  1  0  0  0  0
 25 27  2  0  0  0  0
 25 57  1  0  0  0  0
 26 27  1  0  0  0  0
 26 58  1  0  0  0  0
 27 29  1  0  0  0  0
 28 30  1  0  0  0  0
 28 60  1  0  0  0  0
 28 61  1  0  0  0  0
 30 31  2  0  0  0  0
 30 32  1  0  0  0  0
 31 33  1  0  0  0  0
 31 62  1  0  0  0  0
 32 34  2  0  0  0  0
 32 63  1  0  0  0  0
 33 35  2  0  0  0  0
 33 65  1  0  0  0  0
 34 35  1  0  0  0  0
 34 66  1  0  0  0  0
M  END
> <PUBCHEM_COMPOUND_CID>
45360924

> <PUBCHEM_CONFORMER_RMSD>
1

> <PUBCHEM_CONFORMER_DIVERSEORDER>
4
66
128
112
10
83
53
126
141
29
26
129
43
56
110
11
42
90
76
62
71
54
89
117
35
142
131
125
81
133
96
32
78
87
67
68
52
97
80
109
135
116
122
95
22
104
82
46
75
138
33
108
70
123
47
15
140
41
5
55
94
23
28
50
59
130
105
86
143
74
136
40
3
137
88
51
118
25
77
107
30
57
39
69
49
100
121
64
91
13
38
27
102
18
20
84
111
120
16
93
17
113
85
134
139
36
115
58
19
45
14
103
65
7
99
61
60
6
124
114
106
132
63
72
44
92
21
73
127
119
1
34
2
9
24
101
37
8
98
79
31
48
12

> <PUBCHEM_MMFF94_PARTIAL_CHARGES>
44
1 -0.19
10 0.27
11 0.33
13 0.27
14 0.27
15 0.57
16 0.3
17 0.41
19 0.27
2 -0.57
20 0.06
21 -0.14
22 0.57
23 -0.15
24 -0.15
25 -0.15
26 -0.15
27 0.09
28 0.44
29 0.63
3 -0.57
30 -0.14
31 -0.15
32 -0.15
33 -0.15
34 -0.15
35 0.19
4 -0.65
49 0.37
5 -0.57
55 0.15
56 0.15
57 0.15
58 0.15
59 0.37
6 -0.81
62 0.15
63 0.15
64 0.5
65 0.15
66 0.15
7 -0.81
8 -0.73
9 -0.73

> <PUBCHEM_EFFECTIVE_ROTOR_COUNT>
10.4

> <PUBCHEM_PHARMACOPHORE_FEATURES>
13
1 2 acceptor
1 3 acceptor
1 4 acceptor
1 5 acceptor
1 6 cation
1 7 cation
1 8 donor
1 9 donor
3 4 5 29 anion
5 6 10 11 12 13 rings
6 21 23 24 25 26 27 rings
6 30 31 32 33 34 35 rings
7 7 8 10 11 14 15 16 rings

> <PUBCHEM_HEAVY_ATOM_COUNT>
35

> <PUBCHEM_ATOM_DEF_STEREO_COUNT>
3

> <PUBCHEM_ATOM_UDEF_STEREO_COUNT>
0

> <PUBCHEM_BOND_DEF_STEREO_COUNT>
0

> <PUBCHEM_BOND_UDEF_STEREO_COUNT>
0

> <PUBCHEM_ISOTOPIC_ATOM_COUNT>
0

> <PUBCHEM_COMPONENT_COUNT>
1

> <PUBCHEM_CACTVS_TAUTO_COUNT>
6

> <PUBCHEM_CONFORMER_ID>
02B4271C00000004

> <PUBCHEM_MMFF94_ENERGY>
92.9849

> <PUBCHEM_FEATURE_SELFOVERLAP>
66.065

> <PUBCHEM_SHAPE_FINGERPRINT>
100830 39 18411419505504485289
10462385 53 16081084870729285474
10554248 39 14333129724065421048
10577160 183 16774071843938521302
10580692 12 18412545409996367466
10670039 82 18413102888377497939
10674148 151 18408321104287889586
10815517 723 18186801387325350373
10951579 204 18267888115644027172
11374522 101 18334294262374404428
11434127 23 17916865704077243605
12104220 1 18333446569221475709
12128747 34 18342457006470276455
13383665 225 18114481015537455284
13885169 127 18412545431692373266
13914758 101 18202569492849676074
14294032 229 18113897118490961012
14856354 85 18338514261353758807
15021287 119 17240206538369103037
15183329 4 18260256478296849570
15484559 13 13747170020004980075
15604295 49 18058723762770336184
15876981 60 18266739272290557207
18603816 31 12324246117968804593
21756936 100 18343015580416149077
21927370 108 18267306629186787775
23522609 53 17895774962343102484
23569943 247 17096902734182870810
2838139 119 17704067386998198265
4098825 35 18411699885849753514
4169191 19 18259981561455514502
4197921 191 18335133177061332083
4280585 95 9871744694016746195
4403749 210 18042116579376068597
44802255 64 17704071815447104119
4616759 239 17750505368155623401
550186 7 18201718457959497303
563151 97 18408318878261311075
6086070 43 16343407475564897082
6201320 215 18201153261400875592
9953998 17 11169905079083110199

> <PUBCHEM_SHAPE_MULTIPOLES>
669.61
22.71
4.01
1.46
42.84
2.07
-0.46
9.84
1.07
-8.4
0.45
-1.32
-0.05
-1.28

> <PUBCHEM_SHAPE_SELFOVERLAP>
1425.865

> <PUBCHEM_SHAPE_VOLUME>
372.9

> <PUBCHEM_COORDINATE_TYPE>
2
5
10

$$$$
