56774669
  -OEChem-12032416213D

 48 50  0     1  0  0  0  0  0999 V2000
   -6.6702   -2.6915    1.1400 F   0  0  0  0  0  0  0  0  0  0  0  0
   -0.0565    2.4062    1.4695 O   0  0  0  0  0  0  0  0  0  0  0  0
    0.1064    0.4570   -2.2571 O   0  0  0  0  0  0  0  0  0  0  0  0
   -3.1958    2.9788   -0.2212 O   0  0  0  0  0  0  0  0  0  0  0  0
    7.0367    0.4372    0.4106 O   0  0  0  0  0  0  0  0  0  0  0  0
   -1.8183    1.1038   -0.2798 N   0  0  0  0  0  0  0  0  0  0  0  0
    5.6015   -1.4230    0.2139 N   0  0  0  0  0  0  0  0  0  0  0  0
   -0.5164    0.5230    0.0714 C   0  0  1  0  0  0  0  0  0  0  0  0
    0.5397    0.8948   -0.9736 C   0  0  1  0  0  0  0  0  0  0  0  0
   -0.0980    0.9842    1.4624 C   0  0  0  0  0  0  0  0  0  0  0  0
   -2.6255    0.3989   -1.2665 C   0  0  0  0  0  0  0  0  0  0  0  0
   -2.2016    2.3653    0.1711 C   0  0  0  0  0  0  0  0  0  0  0  0
    1.8799    0.2809   -0.6586 C   0  0  0  0  0  0  0  0  0  0  0  0
   -1.3449    2.9502    1.2884 C   0  0  0  0  0  0  0  0  0  0  0  0
   -3.7042   -0.4251   -0.6249 C   0  0  0  0  0  0  0  0  0  0  0  0
    2.9948    1.0983   -0.4726 C   0  0  0  0  0  0  0  0  0  0  0  0
    2.0056   -1.1044   -0.5533 C   0  0  0  0  0  0  0  0  0  0  0  0
   -3.4513   -1.7503   -0.2700 C   0  0  0  0  0  0  0  0  0  0  0  0
   -4.9590    0.1341   -0.3835 C   0  0  0  0  0  0  0  0  0  0  0  0
    4.2352    0.5308   -0.1817 C   0  0  0  0  0  0  0  0  0  0  0  0
    3.2459   -1.6721   -0.2626 C   0  0  0  0  0  0  0  0  0  0  0  0
    4.3608   -0.8545   -0.0768 C   0  0  0  0  0  0  0  0  0  0  0  0
   -4.4532   -2.5161    0.3260 C   0  0  0  0  0  0  0  0  0  0  0  0
   -5.9609   -0.6316    0.2124 C   0  0  0  0  0  0  0  0  0  0  0  0
   -5.7081   -1.9567    0.5671 C   0  0  0  0  0  0  0  0  0  0  0  0
    6.8224   -0.7706    0.4310 C   0  0  0  0  0  0  0  0  0  0  0  0
    7.9349   -1.7475    0.7183 C   0  0  0  0  0  0  0  0  0  0  0  0
   -0.6619   -0.5631    0.1054 H   0  0  0  0  0  0  0  0  0  0  0  0
    0.6303    1.9852   -1.0459 H   0  0  0  0  0  0  0  0  0  0  0  0
    0.8839    0.6069    1.7607 H   0  0  0  0  0  0  0  0  0  0  0  0
   -0.8106    0.6392    2.2230 H   0  0  0  0  0  0  0  0  0  0  0  0
   -2.0190   -0.2571   -1.8942 H   0  0  0  0  0  0  0  0  0  0  0  0
   -3.0797    1.1321   -1.9448 H   0  0  0  0  0  0  0  0  0  0  0  0
   -1.2230    4.0202    1.0907 H   0  0  0  0  0  0  0  0  0  0  0  0
   -1.9058    2.8481    2.2249 H   0  0  0  0  0  0  0  0  0  0  0  0
    0.1774   -0.5108   -2.3063 H   0  0  0  0  0  0  0  0  0  0  0  0
    2.9107    2.1791   -0.5506 H   0  0  0  0  0  0  0  0  0  0  0  0
    1.1536   -1.7627   -0.6981 H   0  0  0  0  0  0  0  0  0  0  0  0
   -2.4791   -2.1997   -0.4538 H   0  0  0  0  0  0  0  0  0  0  0  0
   -5.1748    1.1623   -0.6596 H   0  0  0  0  0  0  0  0  0  0  0  0
    5.0514    1.2274   -0.0511 H   0  0  0  0  0  0  0  0  0  0  0  0
    3.3296   -2.7532   -0.1846 H   0  0  0  0  0  0  0  0  0  0  0  0
   -4.2568   -3.5478    0.6022 H   0  0  0  0  0  0  0  0  0  0  0  0
   -6.9385   -0.1970    0.3993 H   0  0  0  0  0  0  0  0  0  0  0  0
    5.6103   -2.4391    0.2733 H   0  0  0  0  0  0  0  0  0  0  0  0
    8.0418   -2.4448   -0.1174 H   0  0  0  0  0  0  0  0  0  0  0  0
    7.7107   -2.3039    1.6327 H   0  0  0  0  0  0  0  0  0  0  0  0
    8.8767   -1.2080    0.8519 H   0  0  0  0  0  0  0  0  0  0  0  0
  1 25  1  0  0  0  0
  2 10  1  0  0  0  0
  2 14  1  0  0  0  0
  3  9  1  0  0  0  0
  3 36  1  0  0  0  0
  4 12  2  0  0  0  0
  5 26  2  0  0  0  0
  6  8  1  0  0  0  0
  6 11  1  0  0  0  0
  6 12  1  0  0  0  0
  7 22  1  0  0  0  0
  7 26  1  0  0  0  0
  7 45  1  0  0  0  0
  8  9  1  0  0  0  0
  8 10  1  0  0  0  0
  8 28  1  0  0  0  0
  9 13  1  0  0  0  0
  9 29  1  0  0  0  0
 10 30  1  0  0  0  0
 10 31  1  0  0  0  0
 11 15  1  0  0  0  0
 11 32  1  0  0  0  0
 11 33  1  0  0  0  0
 12 14  1  0  0  0  0
 13 16  2  0  0  0  0
 13 17  1  0  0  0  0
 14 34  1  0  0  0  0
 14 35  1  0  0  0  0
 15 18  2  0  0  0  0
 15 19  1  0  0  0  0
 16 20  1  0  0  0  0
 16 37  1  0  0  0  0
 17 21  2  0  0  0  0
 17 38  1  0  0  0  0
 18 23  1  0  0  0  0
 18 39  1  0  0  0  0
 19 24  2  0  0  0  0
 19 40  1  0  0  0  0
 20 22  2  0  0  0  0
 20 41  1  0  0  0  0
 21 22  1  0  0  0  0
 21 42  1  0  0  0  0
 23 25  2  0  0  0  0
 23 43  1  0  0  0  0
 24 25  1  0  0  0  0
 24 44  1  0  0  0  0
 26 27  1  0  0  0  0
 27 46  1  0  0  0  0
 27 47  1  0  0  0  0
 27 48  1  0  0  0  0
M  END
> <PUBCHEM_COMPOUND_CID>
56774669

> <PUBCHEM_CONFORMER_RMSD>
0.8

> <PUBCHEM_CONFORMER_DIVERSEORDER>
1
17
29
53
30
50
12
45
52
24
41
25
34
37
36
39
10
48
3
44
27
46
43
33
49
18
9
8
31
42
14
13
11
51
23
26
35
32
28
21
16
40
38
7
15
47
6
22
19
54
4
2
20
55
5

> <PUBCHEM_MMFF94_PARTIAL_CHARGES>
37
1 -0.19
10 0.28
11 0.44
12 0.57
13 -0.14
14 0.34
15 -0.14
16 -0.15
17 -0.15
18 -0.15
19 -0.15
2 -0.56
20 -0.15
21 -0.15
22 0.12
23 -0.15
24 -0.15
25 0.19
26 0.57
27 0.06
3 -0.68
36 0.4
37 0.15
38 0.15
39 0.15
4 -0.57
40 0.15
41 0.15
42 0.15
43 0.15
44 0.15
45 0.37
5 -0.57
6 -0.66
7 -0.55
8 0.3
9 0.42

> <PUBCHEM_EFFECTIVE_ROTOR_COUNT>
7

> <PUBCHEM_PHARMACOPHORE_FEATURES>
9
1 2 acceptor
1 3 acceptor
1 3 donor
1 4 acceptor
1 5 acceptor
1 7 donor
6 13 16 17 20 21 22 rings
6 15 18 19 23 24 25 rings
6 2 6 8 10 12 14 rings

> <PUBCHEM_HEAVY_ATOM_COUNT>
27

> <PUBCHEM_ATOM_DEF_STEREO_COUNT>
2

> <PUBCHEM_ATOM_UDEF_STEREO_COUNT>
0

> <PUBCHEM_BOND_DEF_STEREO_COUNT>
0

> <PUBCHEM_BOND_UDEF_STEREO_COUNT>
0

> <PUBCHEM_ISOTOPIC_ATOM_COUNT>
0

> <PUBCHEM_COMPONENT_COUNT>
1

> <PUBCHEM_CACTVS_TAUTO_COUNT>
6

> <PUBCHEM_CONFORMER_ID>
0362500D00000001

> <PUBCHEM_MMFF94_ENERGY>
79.3691

> <PUBCHEM_FEATURE_SELFOVERLAP>
45.673

> <PUBCHEM_SHAPE_FINGERPRINT>
11135609 99 18261677068953417926
11315181 36 18260829276583692468
11456790 92 18270978929340675923
11796584 16 18261388928102483167
12166972 35 18187365446103215228
12596602 18 18410568449940939880
12633257 1 16916791837910996511
12760667 363 18342735222136326887
13103583 49 17916323769772659523
13257819 101 9799424303751529387
13540713 4 16915114906031487708
13631057 29 18408318882529417138
14068700 675 18334579074413336598
14211702 104 18269840831178475430
14251740 79 18113338604842851139
14251751 18 18335421278877193951
15183329 4 11458421319899931614
15338160 23 16916515748343507297
17492 89 18270123392312368150
19784866 135 18411702089210096513
21033650 10 15285627747259761181
21130935 74 18263637374159069138
21267235 1 18411985754541104406
21756936 100 11887662979338546580
22224240 67 15841831161689041871
23522609 53 17678766461398589892
23559900 14 18337663213114466704
2838139 119 9727631700527260435
3004659 81 18040712597368205795
329604 57 18411140255141108988
3418910 222 18343026606067761768
350125 39 18413387666220910828
392239 28 18272656769928310290
4015057 19 16226343581063448228
439807 62 18187930620765228163
463206 1 18265336299216407123
5104073 3 18059009450776978810
5372103 7 12246857967269533603
59682541 35 18201433718812987858
6009941 240 18334853879917902893
6376802 90 17973719182083867852
9862886 166 18407758135909861043

> <PUBCHEM_SHAPE_MULTIPOLES>
514.93
17.52
2.92
1.21
18.92
0.81
-0.12
-14.25
4.47
-3.54
1.08
-0.36
0.35
0.36

> <PUBCHEM_SHAPE_SELFOVERLAP>
1101.009

> <PUBCHEM_SHAPE_VOLUME>
284.5

> <PUBCHEM_COORDINATE_TYPE>
2
5
10

$$$$
