75367021
  -OEChem-12032416383D

 59 62  0     1  0  0  0  0  0999 V2000
   -2.8851    0.6996    1.7223 F   0  0  0  0  0  0  0  0  0  0  0  0
    3.1609   -0.3043    0.5704 O   0  0  0  0  0  0  0  0  0  0  0  0
    5.9951    0.4993    0.4684 O   0  0  0  0  0  0  0  0  0  0  0  0
   -0.8822   -1.8717    1.5413 O   0  0  0  0  0  0  0  0  0  0  0  0
   -5.0344   -0.4326   -1.9278 O   0  0  0  0  0  0  0  0  0  0  0  0
    1.7212    3.7218   -0.3712 O   0  0  0  0  0  0  0  0  0  0  0  0
    1.4292    1.4608   -0.8037 N   0  0  0  0  0  0  0  0  0  0  0  0
   -3.1994   -1.8264   -0.2570 N   0  0  0  0  0  0  0  0  0  0  0  0
    0.4798   -1.7197    1.7713 N   0  0  0  0  0  0  0  0  0  0  0  0
    3.1718   -1.5596   -0.1136 C   0  0  1  0  0  0  0  0  0  0  0  0
    3.6910    0.8004   -0.1740 C   0  0  1  0  0  0  0  0  0  0  0  0
    5.1173    0.5129   -0.6604 C   0  0  2  0  0  0  0  0  0  0  0  0
    4.5956   -1.9428   -0.5143 C   0  0  0  0  0  0  0  0  0  0  0  0
    5.2326   -0.8408   -1.3560 C   0  0  0  0  0  0  0  0  0  0  0  0
    2.5744   -2.5991    0.8268 C   0  0  0  0  0  0  0  0  0  0  0  0
    2.7464    1.2070   -1.3031 C   0  0  0  0  0  0  0  0  0  0  0  0
    1.0726   -2.5115    0.8732 C   0  0  0  0  0  0  0  0  0  0  0  0
    0.1445   -3.1816    0.0575 C   0  0  0  0  0  0  0  0  0  0  0  0
   -2.4599   -3.0227    0.1403 C   0  0  0  0  0  0  0  0  0  0  0  0
   -1.0692   -2.7446    0.5184 C   0  0  0  0  0  0  0  0  0  0  0  0
   -4.6483   -2.0539   -0.1646 C   0  0  0  0  0  0  0  0  0  0  0  0
   -2.8397   -1.4202   -1.6227 C   0  0  0  0  0  0  0  0  0  0  0  0
   -5.3987   -0.7971   -0.5958 C   0  0  0  0  0  0  0  0  0  0  0  0
   -3.6322   -0.1778   -2.0187 C   0  0  0  0  0  0  0  0  0  0  0  0
    1.0135    2.7181   -0.3702 C   0  0  0  0  0  0  0  0  0  0  0  0
   -0.3769    2.8108    0.1446 C   0  0  0  0  0  0  0  0  0  0  0  0
   -0.9904    1.6892    0.7026 C   0  0  0  0  0  0  0  0  0  0  0  0
   -1.0693    4.0194    0.0692 C   0  0  0  0  0  0  0  0  0  0  0  0
   -2.2963    1.7761    1.1853 C   0  0  0  0  0  0  0  0  0  0  0  0
   -2.3753    4.1064    0.5516 C   0  0  0  0  0  0  0  0  0  0  0  0
   -2.9887    2.9847    1.1099 C   0  0  0  0  0  0  0  0  0  0  0  0
    2.5510   -1.4894   -1.0147 H   0  0  0  0  0  0  0  0  0  0  0  0
    3.7376    1.6267    0.5470 H   0  0  0  0  0  0  0  0  0  0  0  0
    5.4623    1.3142   -1.3233 H   0  0  0  0  0  0  0  0  0  0  0  0
    4.5986   -2.8851   -1.0738 H   0  0  0  0  0  0  0  0  0  0  0  0
    5.2048   -2.0959    0.3856 H   0  0  0  0  0  0  0  0  0  0  0  0
    6.2840   -1.0934   -1.5362 H   0  0  0  0  0  0  0  0  0  0  0  0
    4.7360   -0.7987   -2.3325 H   0  0  0  0  0  0  0  0  0  0  0  0
    2.9754   -2.4804    1.8416 H   0  0  0  0  0  0  0  0  0  0  0  0
    2.8382   -3.6103    0.4913 H   0  0  0  0  0  0  0  0  0  0  0  0
    2.6482    0.4252   -2.0616 H   0  0  0  0  0  0  0  0  0  0  0  0
    3.1236    2.1055   -1.8043 H   0  0  0  0  0  0  0  0  0  0  0  0
    6.8989    0.3635    0.1362 H   0  0  0  0  0  0  0  0  0  0  0  0
    0.7800    0.6814   -0.8150 H   0  0  0  0  0  0  0  0  0  0  0  0
    0.3288   -3.8776   -0.7475 H   0  0  0  0  0  0  0  0  0  0  0  0
   -2.5040   -3.7959   -0.6380 H   0  0  0  0  0  0  0  0  0  0  0  0
   -2.9332   -3.4675    1.0268 H   0  0  0  0  0  0  0  0  0  0  0  0
   -4.9327   -2.2963    0.8658 H   0  0  0  0  0  0  0  0  0  0  0  0
   -4.9421   -2.8945   -0.8067 H   0  0  0  0  0  0  0  0  0  0  0  0
   -3.0575   -2.2291   -2.3323 H   0  0  0  0  0  0  0  0  0  0  0  0
   -1.7716   -1.1855   -1.6926 H   0  0  0  0  0  0  0  0  0  0  0  0
   -6.4771   -0.9849   -0.5856 H   0  0  0  0  0  0  0  0  0  0  0  0
   -5.2021    0.0438    0.0803 H   0  0  0  0  0  0  0  0  0  0  0  0
   -3.4105    0.0886   -3.0572 H   0  0  0  0  0  0  0  0  0  0  0  0
   -3.3765    0.6863   -1.3960 H   0  0  0  0  0  0  0  0  0  0  0  0
   -0.4759    0.7409    0.8017 H   0  0  0  0  0  0  0  0  0  0  0  0
   -0.6099    4.9028   -0.3664 H   0  0  0  0  0  0  0  0  0  0  0  0
   -2.9151    5.0469    0.4917 H   0  0  0  0  0  0  0  0  0  0  0  0
   -4.0056    3.0516    1.4850 H   0  0  0  0  0  0  0  0  0  0  0  0
  1 29  1  0  0  0  0
  2 10  1  0  0  0  0
  2 11  1  0  0  0  0
  3 12  1  0  0  0  0
  3 43  1  0  0  0  0
  4  9  1  0  0  0  0
  4 20  1  0  0  0  0
  5 23  1  0  0  0  0
  5 24  1  0  0  0  0
  6 25  2  0  0  0  0
  7 16  1  0  0  0  0
  7 25  1  0  0  0  0
  7 44  1  0  0  0  0
  8 19  1  0  0  0  0
  8 21  1  0  0  0  0
  8 22  1  0  0  0  0
  9 17  2  0  0  0  0
 10 13  1  0  0  0  0
 10 15  1  0  0  0  0
 10 32  1  0  0  0  0
 11 12  1  0  0  0  0
 11 16  1  0  0  0  0
 11 33  1  0  0  0  0
 12 14  1  0  0  0  0
 12 34  1  0  0  0  0
 13 14  1  0  0  0  0
 13 35  1  0  0  0  0
 13 36  1  0  0  0  0
 14 37  1  0  0  0  0
 14 38  1  0  0  0  0
 15 17  1  0  0  0  0
 15 39  1  0  0  0  0
 15 40  1  0  0  0  0
 16 41  1  0  0  0  0
 16 42  1  0  0  0  0
 17 18  1  0  0  0  0
 18 20  2  0  0  0  0
 18 45  1  0  0  0  0
 19 20  1  0  0  0  0
 19 46  1  0  0  0  0
 19 47  1  0  0  0  0
 21 23  1  0  0  0  0
 21 48  1  0  0  0  0
 21 49  1  0  0  0  0
 22 24  1  0  0  0  0
 22 50  1  0  0  0  0
 22 51  1  0  0  0  0
 23 52  1  0  0  0  0
 23 53  1  0  0  0  0
 24 54  1  0  0  0  0
 24 55  1  0  0  0  0
 25 26  1  0  0  0  0
 26 27  2  0  0  0  0
 26 28  1  0  0  0  0
 27 29  1  0  0  0  0
 27 56  1  0  0  0  0
 28 30  2  0  0  0  0
 28 57  1  0  0  0  0
 29 31  2  0  0  0  0
 30 31  1  0  0  0  0
 30 58  1  0  0  0  0
 31 59  1  0  0  0  0
M  END
> <PUBCHEM_COMPOUND_CID>
75367021

> <PUBCHEM_CONFORMER_RMSD>
1.4

> <PUBCHEM_CONFORMER_DIVERSEORDER>
1
33
43
14
15
30
47
77
99
44
97
88
79
55
68
86
73
24
28
66
40
16
50
39
78
84
51
56
89
67
63
80
69
52
53
2
32
75
25
57
65
61
19
64
93
41
3
34
101
17
102
38
49
74
54
81
100
29
10
48
98
60
96
27
36
90
85
4
71
82
72
62
45
7
87
37
76
22
59
20
91
46
70
35
58
11
92
21
31
23
6
5
95
26
12
18
42
94
8
83
13
9

> <PUBCHEM_MMFF94_PARTIAL_CHARGES>
36
1 -0.19
10 0.28
11 0.28
12 0.28
15 0.18
16 0.3
17 0.11
18 -0.15
19 0.45
2 -0.56
20 -0.04
21 0.27
22 0.27
23 0.28
24 0.28
25 0.54
26 0.09
27 -0.15
28 -0.15
29 0.19
3 -0.68
30 -0.15
31 -0.15
4 -0.02
43 0.4
44 0.37
45 0.15
5 -0.56
56 0.15
57 0.15
58 0.15
59 0.15
6 -0.57
7 -0.73
8 -0.81
9 -0.41

> <PUBCHEM_EFFECTIVE_ROTOR_COUNT>
10.4

> <PUBCHEM_PHARMACOPHORE_FEATURES>
12
1 2 acceptor
1 3 acceptor
1 3 donor
1 5 acceptor
1 6 acceptor
1 7 donor
1 8 cation
1 9 acceptor
5 4 9 17 18 20 rings
6 2 10 11 12 13 14 rings
6 26 27 28 29 30 31 rings
6 5 8 21 22 23 24 rings

> <PUBCHEM_HEAVY_ATOM_COUNT>
31

> <PUBCHEM_ATOM_DEF_STEREO_COUNT>
3

> <PUBCHEM_ATOM_UDEF_STEREO_COUNT>
0

> <PUBCHEM_BOND_DEF_STEREO_COUNT>
0

> <PUBCHEM_BOND_UDEF_STEREO_COUNT>
0

> <PUBCHEM_ISOTOPIC_ATOM_COUNT>
0

> <PUBCHEM_COMPONENT_COUNT>
1

> <PUBCHEM_CACTVS_TAUTO_COUNT>
2

> <PUBCHEM_CONFORMER_ID>
047E026D00000001

> <PUBCHEM_MMFF94_ENERGY>
53.7139

> <PUBCHEM_FEATURE_SELFOVERLAP>
60.9

> <PUBCHEM_SHAPE_FINGERPRINT>
10190206 1 18262256490559210812
10670039 82 18338804420907095134
10675989 125 18264485272984571893
10871710 139 18340207367599816243
11479125 193 15289342078438945902
11513181 2 18126574409659138694
11646440 116 18337956808414819578
12035759 4 18408598145940621403
12788726 201 18341324522341327394
1361 2 16751822951230771285
140371 6 18337678628263217014
14251757 17 18190171476548263563
14279260 333 18337104550424974878
14394314 77 18341336621908610425
14464042 87 18412825785250213383
14681490 219 18411412938667892279
14840074 17 18270125587646980201
14931854 50 18335693944971024319
15001296 14 18335419075574873281
15297060 5 17844242917964538995
15351339 4 18262784208315705569
15968369 153 18269856305327938537
19930381 70 17402621143189700955
20764821 26 18049170156788954632
20775438 99 16689877015978224695
21133410 62 17895476909013798033
23536364 44 18409440384837921309
25265897 201 17411645505360103903
3027735 51 18342745083048974511
3524813 1 17896588664765601863
463206 1 18338240366772675385
469060 322 17095537179342590767
5171179 24 18129668620949289744
6036956 94 18117570723724861292
653340 110 18412260623773750360

> <PUBCHEM_SHAPE_MULTIPOLES>
586.4
10.58
5.45
1.51
5.66
3.55
-0.25
-3.1
-3.87
-3.06
1.16
-1.03
-0.31
-1.69

> <PUBCHEM_SHAPE_SELFOVERLAP>
1239.825

> <PUBCHEM_SHAPE_VOLUME>
328.2

> <PUBCHEM_COORDINATE_TYPE>
2
5
10

$$$$
