7134871
  -OEChem-12032416343D

 76 80  0     1  0  0  0  0  0999 V2000
   -0.1257    2.6319   -0.5078 S   0  0  0  0  0  0  0  0  0  0  0  0
    8.4667    2.6401   -0.0395 F   0  0  0  0  0  0  0  0  0  0  0  0
   -7.5970    0.2515   -0.8806 O   0  0  0  0  0  0  0  0  0  0  0  0
   -7.2811    2.5707   -0.3646 O   0  0  0  0  0  0  0  0  0  0  0  0
    0.6816   -1.7977    2.4506 O   0  0  0  0  0  0  0  0  0  0  0  0
    3.0712   -0.3879    1.0197 O   0  0  0  0  0  0  0  0  0  0  0  0
    0.2341    0.2893    0.5293 N   0  0  0  0  0  0  0  0  0  0  0  0
   -0.3609   -2.9507    0.7228 N   0  0  0  0  0  0  0  0  0  0  0  0
    2.2085    1.6041    0.1016 N   0  0  0  0  0  0  0  0  0  0  0  0
   -3.5973   -0.0219    0.8327 C   0  0  2  0  0  0  0  0  0  0  0  0
   -3.8513    0.8790   -0.4555 C   0  0  1  0  0  0  0  0  0  0  0  0
   -5.3500    1.2326   -0.7975 C   0  0  1  0  0  0  0  0  0  0  0  0
   -2.1139   -0.6088    0.7392 C   0  0  1  0  0  0  0  0  0  0  0  0
   -4.5937   -1.2103    0.8356 C   0  0  0  0  0  0  0  0  0  0  0  0
   -6.2147   -0.0563   -0.7037 C   0  0  1  0  0  0  0  0  0  0  0  0
   -2.8941    2.1060   -0.4891 C   0  0  0  0  0  0  0  0  0  0  0  0
   -6.0430   -0.8004    0.6160 C   0  0  0  0  0  0  0  0  0  0  0  0
   -3.7574    0.7642    2.1573 C   0  0  0  0  0  0  0  0  0  0  0  0
   -1.1273    0.4684    0.3676 C   0  0  0  0  0  0  0  0  0  0  0  0
   -5.9535    2.3646    0.0631 C   0  0  0  0  0  0  0  0  0  0  0  0
   -5.4294    1.7368   -2.2663 C   0  0  0  0  0  0  0  0  0  0  0  0
   -1.4974    1.6712   -0.1989 C   0  0  0  0  0  0  0  0  0  0  0  0
   -1.6559   -1.3860    1.9806 C   0  0  0  0  0  0  0  0  0  0  0  0
   -0.3119   -2.0451    1.7725 C   0  0  0  0  0  0  0  0  0  0  0  0
    0.8594    1.3675    0.1090 C   0  0  0  0  0  0  0  0  0  0  0  0
    0.7808   -3.7268    0.2957 C   0  0  1  0  0  0  0  0  0  0  0  0
    3.2167    0.7339    0.5469 C   0  0  0  0  0  0  0  0  0  0  0  0
    0.3362   -5.0852   -0.2427 C   0  0  0  0  0  0  0  0  0  0  0  0
    1.6264   -2.9591   -0.6973 C   0  0  0  0  0  0  0  0  0  0  0  0
    4.6069    1.2386    0.3925 C   0  0  0  0  0  0  0  0  0  0  0  0
    3.0129   -3.1120   -0.6980 C   0  0  0  0  0  0  0  0  0  0  0  0
    1.0195   -2.0982   -1.6116 C   0  0  0  0  0  0  0  0  0  0  0  0
    5.6636    0.3393    0.2500 C   0  0  0  0  0  0  0  0  0  0  0  0
    4.8542    2.6115    0.3890 C   0  0  0  0  0  0  0  0  0  0  0  0
    3.7924   -2.4042   -1.6129 C   0  0  0  0  0  0  0  0  0  0  0  0
    1.7988   -1.3902   -2.5266 C   0  0  0  0  0  0  0  0  0  0  0  0
    3.1853   -1.5433   -2.5272 C   0  0  0  0  0  0  0  0  0  0  0  0
    6.9675    0.8127    0.1042 C   0  0  0  0  0  0  0  0  0  0  0  0
    6.1581    3.0849    0.2432 C   0  0  0  0  0  0  0  0  0  0  0  0
    7.2147    2.1855    0.1007 C   0  0  0  0  0  0  0  0  0  0  0  0
   -3.5306    0.2371   -1.2946 H   0  0  0  0  0  0  0  0  0  0  0  0
   -2.1178   -1.2869   -0.1251 H   0  0  0  0  0  0  0  0  0  0  0  0
   -4.3174   -1.9226    0.0469 H   0  0  0  0  0  0  0  0  0  0  0  0
   -4.5316   -1.7627    1.7806 H   0  0  0  0  0  0  0  0  0  0  0  0
   -5.9356   -0.7326   -1.5227 H   0  0  0  0  0  0  0  0  0  0  0  0
   -2.9258    2.5823   -1.4747 H   0  0  0  0  0  0  0  0  0  0  0  0
   -3.1945    2.8558    0.2504 H   0  0  0  0  0  0  0  0  0  0  0  0
   -6.6733   -1.6989    0.6096 H   0  0  0  0  0  0  0  0  0  0  0  0
   -6.4169   -0.1990    1.4520 H   0  0  0  0  0  0  0  0  0  0  0  0
   -3.0467    1.5908    2.2441 H   0  0  0  0  0  0  0  0  0  0  0  0
   -4.7560    1.1719    2.2931 H   0  0  0  0  0  0  0  0  0  0  0  0
   -3.6003    0.1133    3.0246 H   0  0  0  0  0  0  0  0  0  0  0  0
   -5.4051    3.3038   -0.0561 H   0  0  0  0  0  0  0  0  0  0  0  0
   -5.9964    2.1209    1.1211 H   0  0  0  0  0  0  0  0  0  0  0  0
   -4.9307    1.0382   -2.9481 H   0  0  0  0  0  0  0  0  0  0  0  0
   -4.9530    2.7152   -2.3878 H   0  0  0  0  0  0  0  0  0  0  0  0
   -6.4622    1.8370   -2.6184 H   0  0  0  0  0  0  0  0  0  0  0  0
   -2.3707   -2.1704    2.2504 H   0  0  0  0  0  0  0  0  0  0  0  0
   -1.5495   -0.7216    2.8461 H   0  0  0  0  0  0  0  0  0  0  0  0
   -8.0904   -0.5860   -0.8610 H   0  0  0  0  0  0  0  0  0  0  0  0
   -7.6506    3.2912    0.1737 H   0  0  0  0  0  0  0  0  0  0  0  0
   -1.2361   -3.1003    0.2302 H   0  0  0  0  0  0  0  0  0  0  0  0
    2.4610    2.4961   -0.3120 H   0  0  0  0  0  0  0  0  0  0  0  0
    1.3897   -3.9053    1.1919 H   0  0  0  0  0  0  0  0  0  0  0  0
   -0.2949   -4.9751   -1.1322 H   0  0  0  0  0  0  0  0  0  0  0  0
    1.1978   -5.7024   -0.5192 H   0  0  0  0  0  0  0  0  0  0  0  0
   -0.2456   -5.6295    0.5093 H   0  0  0  0  0  0  0  0  0  0  0  0
    3.4981   -3.7804    0.0083 H   0  0  0  0  0  0  0  0  0  0  0  0
   -0.0588   -1.9729   -1.6479 H   0  0  0  0  0  0  0  0  0  0  0  0
    5.4961   -0.7336    0.2547 H   0  0  0  0  0  0  0  0  0  0  0  0
    4.0686    3.3470    0.5329 H   0  0  0  0  0  0  0  0  0  0  0  0
    4.8716   -2.5248   -1.6149 H   0  0  0  0  0  0  0  0  0  0  0  0
    1.3260   -0.7215   -3.2398 H   0  0  0  0  0  0  0  0  0  0  0  0
    3.7923   -0.9915   -3.2389 H   0  0  0  0  0  0  0  0  0  0  0  0
    7.7906    0.1128   -0.0058 H   0  0  0  0  0  0  0  0  0  0  0  0
    6.3526    4.1534    0.2482 H   0  0  0  0  0  0  0  0  0  0  0  0
  1 22  1  0  0  0  0
  1 25  1  0  0  0  0
  2 40  1  0  0  0  0
  3 15  1  0  0  0  0
  3 60  1  0  0  0  0
  4 20  1  0  0  0  0
  4 61  1  0  0  0  0
  5 24  2  0  0  0  0
  6 27  2  0  0  0  0
  7 19  1  0  0  0  0
  7 25  2  0  0  0  0
  8 24  1  0  0  0  0
  8 26  1  0  0  0  0
  8 62  1  0  0  0  0
  9 25  1  0  0  0  0
  9 27  1  0  0  0  0
  9 63  1  0  0  0  0
 10 11  1  0  0  0  0
 10 13  1  0  0  0  0
 10 14  1  0  0  0  0
 10 18  1  0  0  0  0
 11 12  1  0  0  0  0
 11 16  1  0  0  0  0
 11 41  1  0  0  0  0
 12 15  1  0  0  0  0
 12 20  1  0  0  0  0
 12 21  1  0  0  0  0
 13 19  1  0  0  0  0
 13 23  1  0  0  0  0
 13 42  1  0  0  0  0
 14 17  1  0  0  0  0
 14 43  1  0  0  0  0
 14 44  1  0  0  0  0
 15 17  1  0  0  0  0
 15 45  1  0  0  0  0
 16 22  1  0  0  0  0
 16 46  1  0  0  0  0
 16 47  1  0  0  0  0
 17 48  1  0  0  0  0
 17 49  1  0  0  0  0
 18 50  1  0  0  0  0
 18 51  1  0  0  0  0
 18 52  1  0  0  0  0
 19 22  2  0  0  0  0
 20 53  1  0  0  0  0
 20 54  1  0  0  0  0
 21 55  1  0  0  0  0
 21 56  1  0  0  0  0
 21 57  1  0  0  0  0
 23 24  1  0  0  0  0
 23 58  1  0  0  0  0
 23 59  1  0  0  0  0
 26 28  1  0  0  0  0
 26 29  1  0  0  0  0
 26 64  1  0  0  0  0
 27 30  1  0  0  0  0
 28 65  1  0  0  0  0
 28 66  1  0  0  0  0
 28 67  1  0  0  0  0
 29 31  2  0  0  0  0
 29 32  1  0  0  0  0
 30 33  2  0  0  0  0
 30 34  1  0  0  0  0
 31 35  1  0  0  0  0
 31 68  1  0  0  0  0
 32 36  2  0  0  0  0
 32 69  1  0  0  0  0
 33 38  1  0  0  0  0
 33 70  1  0  0  0  0
 34 39  2  0  0  0  0
 34 71  1  0  0  0  0
 35 37  2  0  0  0  0
 35 72  1  0  0  0  0
 36 37  1  0  0  0  0
 36 73  1  0  0  0  0
 37 74  1  0  0  0  0
 38 40  2  0  0  0  0
 38 75  1  0  0  0  0
 39 40  1  0  0  0  0
 39 76  1  0  0  0  0
M  END
> <PUBCHEM_COMPOUND_CID>
7134871

> <PUBCHEM_CONFORMER_RMSD>
1.2

> <PUBCHEM_CONFORMER_DIVERSEORDER>
1
20
10
5
9
16
18
13
23
24
12
15
21
6
25
7
19
22
26
3
2
17
14
4
11
8

> <PUBCHEM_MMFF94_PARTIAL_CHARGES>
45
1 -0.08
13 0.18
15 0.28
16 0.18
19 0.05
2 -0.19
20 0.28
22 -0.14
23 0.06
24 0.57
25 0.44
26 0.44
27 0.54
29 -0.14
3 -0.68
30 0.09
31 -0.15
32 -0.15
33 -0.15
34 -0.15
35 -0.15
36 -0.15
37 -0.15
38 -0.15
39 -0.15
4 -0.68
40 0.19
5 -0.57
6 -0.57
60 0.4
61 0.4
62 0.37
63 0.37
68 0.15
69 0.15
7 -0.57
70 0.15
71 0.15
72 0.15
73 0.15
74 0.15
75 0.15
76 0.15
8 -0.73
9 -0.49

> <PUBCHEM_EFFECTIVE_ROTOR_COUNT>
10.2

> <PUBCHEM_PHARMACOPHORE_FEATURES>
13
1 3 acceptor
1 3 donor
1 4 acceptor
1 4 donor
1 5 acceptor
1 6 acceptor
1 8 donor
1 9 donor
5 1 7 19 22 25 rings
6 10 11 12 14 15 17 rings
6 10 11 13 16 19 22 rings
6 29 31 32 35 36 37 rings
6 30 33 34 38 39 40 rings

> <PUBCHEM_HEAVY_ATOM_COUNT>
40

> <PUBCHEM_ATOM_DEF_STEREO_COUNT>
6

> <PUBCHEM_ATOM_UDEF_STEREO_COUNT>
0

> <PUBCHEM_BOND_DEF_STEREO_COUNT>
0

> <PUBCHEM_BOND_UDEF_STEREO_COUNT>
0

> <PUBCHEM_ISOTOPIC_ATOM_COUNT>
0

> <PUBCHEM_COMPONENT_COUNT>
1

> <PUBCHEM_CACTVS_TAUTO_COUNT>
6

> <PUBCHEM_CONFORMER_ID>
006CDE9700000001

> <PUBCHEM_MMFF94_ENERGY>
123.0792

> <PUBCHEM_FEATURE_SELFOVERLAP>
66.119

> <PUBCHEM_SHAPE_FINGERPRINT>
10369192 42 18334007324309686341
10906281 52 18335996327711835624
11135609 187 18412823581826788209
11421498 54 16702027435064875034
11578080 2 16517910850593540783
11991303 11 18267019638827919862
12156800 1 17199067297235574414
12422481 6 15068894226984843775
12522641 33 18412260653247742741
12597179 24 18343305903015290510
13402501 40 18408887356100795112
1361 2 18413105065498752844
13636023 20 18272640230694964515
13811026 1 18408322185359131279
14068700 686 18336825282111804116
15021287 119 11314310559677109817
15324884 4 18047226095978377226
15721738 202 16558752256566352143
16114785 44 17197961275206874398
19053607 189 17967829214405643116
19315958 150 18338518518220451221
20775438 99 18201999932446578975
21033648 29 18040727951839502239
23516275 137 16772980058540530615
23559900 14 18115606841280003023
27425 322 17531814679414684352
4017518 198 18341619256716070278
4073 2 18411141303878189097
4093350 32 17703228395918593997
4173938 306 17531234025347639551
5265222 85 18194404626596808760
59755656 215 18412825780691469573
6669772 16 18411418410251005518
9555976 147 13335031439513355669

> <PUBCHEM_SHAPE_MULTIPOLES>
781.34
17.85
4.67
1.85
1.6
4.03
0.34
-17.61
2.36
4.35
0.53
-0.64
1
2.77

> <PUBCHEM_SHAPE_SELFOVERLAP>
1676.023

> <PUBCHEM_SHAPE_VOLUME>
436.8

> <PUBCHEM_COORDINATE_TYPE>
2
5
10

$$$$
