28959956
  -OEChem-12032416353D

 62 65  0     1  0  0  0  0  0999 V2000
   -1.2576    3.4759   -1.1089 S   0  0  0  0  0  0  0  0  0  0  0  0
    9.0545   -0.5944   -0.7074 F   0  0  0  0  0  0  0  0  0  0  0  0
   -3.8466   -5.4234   -0.0292 O   0  0  0  0  0  0  0  0  0  0  0  0
   -4.1075    2.5908   -2.0997 O   0  0  0  0  0  0  0  0  0  0  0  0
   -5.6182   -3.9996    0.0938 O   0  0  0  0  0  0  0  0  0  0  0  0
   -4.0814    1.0797   -0.3137 N   0  0  0  0  0  0  0  0  0  0  0  0
    0.7845   -0.1054    0.5343 N   0  0  0  0  0  0  0  0  0  0  0  0
    3.6167   -0.3561    0.2601 N   0  0  0  0  0  0  0  0  0  0  0  0
   -2.9444   -0.7300    0.9543 C   0  0  2  0  0  0  0  0  0  0  0  0
   -3.9245   -1.7435    0.3101 C   0  0  1  0  0  0  0  0  0  0  0  0
   -3.5938    0.6651    1.0093 C   0  0  0  0  0  0  0  0  0  0  0  0
   -1.5796   -0.6549    0.2582 C   0  0  0  0  0  0  0  0  0  0  0  0
   -4.4427   -1.2437   -1.0491 C   0  0  0  0  0  0  0  0  0  0  0  0
   -5.0325    0.1592   -0.9338 C   0  0  0  0  0  0  0  0  0  0  0  0
   -0.5021   -0.1854    1.2251 C   0  0  0  0  0  0  0  0  0  0  0  0
   -3.3359   -3.1481    0.1788 C   0  0  0  0  0  0  0  0  0  0  0  0
    1.4089   -1.4314    0.4536 C   0  0  0  0  0  0  0  0  0  0  0  0
    1.6826    0.8283    1.2250 C   0  0  0  0  0  0  0  0  0  0  0  0
    2.7304   -1.3716   -0.3168 C   0  0  0  0  0  0  0  0  0  0  0  0
    3.0122    0.9640    0.4795 C   0  0  0  0  0  0  0  0  0  0  0  0
   -3.7063    2.2428   -0.9904 C   0  0  0  0  0  0  0  0  0  0  0  0
   -4.4120   -4.1937    0.0804 C   0  0  0  0  0  0  0  0  0  0  0  0
   -2.7493    3.1427   -0.3371 C   0  0  0  0  0  0  0  0  0  0  0  0
    4.9931   -0.4164    0.0155 C   0  0  0  0  0  0  0  0  0  0  0  0
   -2.8661    3.8003    0.8679 C   0  0  0  0  0  0  0  0  0  0  0  0
    5.4657   -0.9643   -1.1771 C   0  0  0  0  0  0  0  0  0  0  0  0
    5.8925    0.0715    0.9635 C   0  0  0  0  0  0  0  0  0  0  0  0
   -1.7157    4.5881    1.1611 C   0  0  0  0  0  0  0  0  0  0  0  0
    6.8375   -1.0243   -1.4217 C   0  0  0  0  0  0  0  0  0  0  0  0
    7.2645    0.0115    0.7190 C   0  0  0  0  0  0  0  0  0  0  0  0
   -0.7636    4.5026    0.1692 C   0  0  0  0  0  0  0  0  0  0  0  0
    7.7370   -0.5364   -0.4735 C   0  0  0  0  0  0  0  0  0  0  0  0
   -2.7841   -1.0621    1.9896 H   0  0  0  0  0  0  0  0  0  0  0  0
   -4.7915   -1.7943    0.9855 H   0  0  0  0  0  0  0  0  0  0  0  0
   -4.4693    0.6392    1.6703 H   0  0  0  0  0  0  0  0  0  0  0  0
   -2.8989    1.3771    1.4471 H   0  0  0  0  0  0  0  0  0  0  0  0
   -1.6187    0.0010   -0.6197 H   0  0  0  0  0  0  0  0  0  0  0  0
   -1.3037   -1.6416   -0.1196 H   0  0  0  0  0  0  0  0  0  0  0  0
   -5.2067   -1.9175   -1.4513 H   0  0  0  0  0  0  0  0  0  0  0  0
   -3.6196   -1.2275   -1.7748 H   0  0  0  0  0  0  0  0  0  0  0  0
   -5.3301    0.5170   -1.9247 H   0  0  0  0  0  0  0  0  0  0  0  0
   -5.9321    0.1462   -0.3071 H   0  0  0  0  0  0  0  0  0  0  0  0
   -0.4461   -0.8322    2.1102 H   0  0  0  0  0  0  0  0  0  0  0  0
   -0.7820    0.8107    1.5873 H   0  0  0  0  0  0  0  0  0  0  0  0
   -2.7021   -3.2316   -0.7109 H   0  0  0  0  0  0  0  0  0  0  0  0
   -2.7396   -3.3850    1.0680 H   0  0  0  0  0  0  0  0  0  0  0  0
    0.7624   -2.1469   -0.0650 H   0  0  0  0  0  0  0  0  0  0  0  0
    1.5948   -1.8336    1.4590 H   0  0  0  0  0  0  0  0  0  0  0  0
    1.8688    0.4960    2.2553 H   0  0  0  0  0  0  0  0  0  0  0  0
    1.2246    1.8235    1.2795 H   0  0  0  0  0  0  0  0  0  0  0  0
    3.1957   -2.3641   -0.2700 H   0  0  0  0  0  0  0  0  0  0  0  0
    2.5305   -1.1384   -1.3706 H   0  0  0  0  0  0  0  0  0  0  0  0
    2.8526    1.4528   -0.4905 H   0  0  0  0  0  0  0  0  0  0  0  0
    3.6661    1.6189    1.0667 H   0  0  0  0  0  0  0  0  0  0  0  0
   -4.5220   -6.1316   -0.0959 H   0  0  0  0  0  0  0  0  0  0  0  0
    4.7945   -1.3405   -1.9438 H   0  0  0  0  0  0  0  0  0  0  0  0
    5.5451    0.4891    1.9049 H   0  0  0  0  0  0  0  0  0  0  0  0
   -3.7354    3.7319    1.5098 H   0  0  0  0  0  0  0  0  0  0  0  0
   -1.5933    5.1882    2.0533 H   0  0  0  0  0  0  0  0  0  0  0  0
    7.2062   -1.4479   -2.3512 H   0  0  0  0  0  0  0  0  0  0  0  0
    7.9653    0.3882    1.4582 H   0  0  0  0  0  0  0  0  0  0  0  0
    0.1987    4.9935    0.1342 H   0  0  0  0  0  0  0  0  0  0  0  0
  1 23  1  0  0  0  0
  1 31  1  0  0  0  0
  2 32  1  0  0  0  0
  3 22  1  0  0  0  0
  3 55  1  0  0  0  0
  4 21  2  0  0  0  0
  5 22  2  0  0  0  0
  6 11  1  0  0  0  0
  6 14  1  0  0  0  0
  6 21  1  0  0  0  0
  7 15  1  0  0  0  0
  7 17  1  0  0  0  0
  7 18  1  0  0  0  0
  8 19  1  0  0  0  0
  8 20  1  0  0  0  0
  8 24  1  0  0  0  0
  9 10  1  0  0  0  0
  9 11  1  0  0  0  0
  9 12  1  0  0  0  0
  9 33  1  0  0  0  0
 10 13  1  0  0  0  0
 10 16  1  0  0  0  0
 10 34  1  0  0  0  0
 11 35  1  0  0  0  0
 11 36  1  0  0  0  0
 12 15  1  0  0  0  0
 12 37  1  0  0  0  0
 12 38  1  0  0  0  0
 13 14  1  0  0  0  0
 13 39  1  0  0  0  0
 13 40  1  0  0  0  0
 14 41  1  0  0  0  0
 14 42  1  0  0  0  0
 15 43  1  0  0  0  0
 15 44  1  0  0  0  0
 16 22  1  0  0  0  0
 16 45  1  0  0  0  0
 16 46  1  0  0  0  0
 17 19  1  0  0  0  0
 17 47  1  0  0  0  0
 17 48  1  0  0  0  0
 18 20  1  0  0  0  0
 18 49  1  0  0  0  0
 18 50  1  0  0  0  0
 19 51  1  0  0  0  0
 19 52  1  0  0  0  0
 20 53  1  0  0  0  0
 20 54  1  0  0  0  0
 21 23  1  0  0  0  0
 23 25  2  0  0  0  0
 24 26  2  0  0  0  0
 24 27  1  0  0  0  0
 25 28  1  0  0  0  0
 25 58  1  0  0  0  0
 26 29  1  0  0  0  0
 26 56  1  0  0  0  0
 27 30  2  0  0  0  0
 27 57  1  0  0  0  0
 28 31  2  0  0  0  0
 28 59  1  0  0  0  0
 29 32  2  0  0  0  0
 29 60  1  0  0  0  0
 30 32  1  0  0  0  0
 30 61  1  0  0  0  0
 31 62  1  0  0  0  0
M  END
> <PUBCHEM_COMPOUND_CID>
28959956

> <PUBCHEM_CONFORMER_RMSD>
1

> <PUBCHEM_CONFORMER_DIVERSEORDER>
1
65
54
83
97
119
89
38
22
114
90
112
86
126
12
56
125
35
69
31
53
81
27
91
19
15
107
94
51
79
137
39
45
40
72
111
99
77
106
133
80
124
5
71
92
58
116
104
30
109
47
73
75
122
78
7
120
121
41
33
20
29
23
87
6
68
34
132
21
117
24
4
118
28
88
32
16
43
55
95
100
9
48
60
113
37
11
44
13
18
84
82
66
10
62
131
130
136
25
26
108
102
64
52
76
96
14
8
63
49
135
110
3
70
57
127
67
59
98
129
115
42
85
36
123
93
103
105
46
134
128
101
50
61
2
74
17

> <PUBCHEM_MMFF94_PARTIAL_CHARGES>
36
1 -0.08
11 0.3
14 0.3
15 0.27
16 0.06
17 0.27
18 0.27
19 0.37
2 -0.19
20 0.37
21 0.71
22 0.66
23 -0.05
24 0.1
25 -0.15
26 -0.15
27 -0.15
28 -0.15
29 -0.15
3 -0.65
30 -0.15
31 -0.11
32 0.19
4 -0.57
5 -0.57
55 0.5
56 0.15
57 0.15
58 0.15
59 0.15
6 -0.66
60 0.15
61 0.15
62 0.15
7 -0.81
8 -0.84

> <PUBCHEM_EFFECTIVE_ROTOR_COUNT>
10.4

> <PUBCHEM_PHARMACOPHORE_FEATURES>
10
1 3 acceptor
1 4 acceptor
1 5 acceptor
1 7 cation
1 8 cation
3 3 5 22 anion
5 1 23 25 28 31 rings
6 24 26 27 29 30 32 rings
6 6 9 10 11 13 14 rings
6 7 8 17 18 19 20 rings

> <PUBCHEM_HEAVY_ATOM_COUNT>
32

> <PUBCHEM_ATOM_DEF_STEREO_COUNT>
2

> <PUBCHEM_ATOM_UDEF_STEREO_COUNT>
0

> <PUBCHEM_BOND_DEF_STEREO_COUNT>
0

> <PUBCHEM_BOND_UDEF_STEREO_COUNT>
0

> <PUBCHEM_ISOTOPIC_ATOM_COUNT>
0

> <PUBCHEM_COMPONENT_COUNT>
1

> <PUBCHEM_CACTVS_TAUTO_COUNT>
1

> <PUBCHEM_CONFORMER_ID>
01B9E4D400000001

> <PUBCHEM_MMFF94_ENERGY>
81.9437

> <PUBCHEM_FEATURE_SELFOVERLAP>
50.806

> <PUBCHEM_SHAPE_FINGERPRINT>
100830 39 18410573968683939918
10290309 65 18046620110926623949
10411042 1 18266742579130765283
10454371 7 18410578340987495428
11049842 53 17690259531330472531
11434127 23 18272084933650617972
11756154 67 18337112362980372763
13690498 29 18410575127639853251
13782708 43 17989205933070051330
14068700 675 18187646959111704340
14856354 85 18412546509175446190
15183329 4 18040153994739073208
15297060 5 18198340650749359569
15324884 4 17913459571656768665
15400415 2 17762335817145719360
15419008 47 18131347540153848568
15876981 60 18261681449360436061
16114785 44 17985279478194756353
17686467 74 18268988851606150176
19958102 18 18122624959802219990
20101258 96 18263085577887230987
20771845 65 17984990551692191731
20775438 99 17474899619807606471
22956985 138 17616533295564423023
23081809 10 17385438822365124746
255183 451 18050283971301885295
4435113 14 17630338445692592140
531348 171 18335421201684314666
57527306 92 15502934109568578189
57527452 28 15840972452663385917
6700243 42 17841471199268848550

> <PUBCHEM_SHAPE_MULTIPOLES>
622.57
18.51
6.04
1.3
45.74
0.17
-0.25
-10.49
-4.72
-14.6
0.23
-0.07
0.65
1.32

> <PUBCHEM_SHAPE_SELFOVERLAP>
1301.94

> <PUBCHEM_SHAPE_VOLUME>
354.3

> <PUBCHEM_COORDINATE_TYPE>
2
5
10

$$$$
