45783544
  -OEChem-12032416263D

 52 55  0     1  0  0  0  0  0999 V2000
    4.8595   -5.3431   -0.2169 Cl  0  0  0  0  0  0  0  0  0  0  0  0
    0.8064    3.2487    1.0842 O   0  0  0  0  0  0  0  0  0  0  0  0
   -5.3786   -0.9859   -0.0720 O   0  0  0  0  0  0  0  0  0  0  0  0
   -7.9898   -1.2839   -1.0347 O   0  0  0  0  0  0  0  0  0  0  0  0
    3.5158    1.2157   -0.3412 N   0  0  1  0  0  0  0  0  0  0  0  0
    0.5426    1.3902   -0.1379 N   0  0  0  0  0  0  0  0  0  0  0  0
   -0.5383    2.8810    1.2197 N   0  0  0  0  0  0  0  0  0  0  0  0
   -4.1840    0.7907    0.8229 N   0  0  0  0  0  0  0  0  0  0  0  0
    2.8431    2.4943   -0.0367 C   0  0  1  0  0  0  0  0  0  0  0  0
    3.0920    3.3723   -1.2771 C   0  0  0  0  0  0  0  0  0  0  0  0
    3.9624    2.5260   -2.1952 C   0  0  0  0  0  0  0  0  0  0  0  0
    4.6142    1.5334   -1.2538 C   0  0  0  0  0  0  0  0  0  0  0  0
    3.9775    0.5120    0.8484 C   0  0  0  0  0  0  0  0  0  0  0  0
    1.3704    2.3190    0.2694 C   0  0  0  0  0  0  0  0  0  0  0  0
    4.1990   -0.9533    0.5825 C   0  0  0  0  0  0  0  0  0  0  0  0
    3.1561   -1.8609    0.7680 C   0  0  0  0  0  0  0  0  0  0  0  0
    5.4466   -1.4034    0.1504 C   0  0  0  0  0  0  0  0  0  0  0  0
   -0.6158    1.7770    0.4707 C   0  0  0  0  0  0  0  0  0  0  0  0
    3.3607   -3.2184    0.5218 C   0  0  0  0  0  0  0  0  0  0  0  0
    5.6514   -2.7610   -0.0958 C   0  0  0  0  0  0  0  0  0  0  0  0
   -1.8347    1.0385    0.3087 C   0  0  0  0  0  0  0  0  0  0  0  0
    4.6085   -3.6685    0.0899 C   0  0  0  0  0  0  0  0  0  0  0  0
   -1.8792   -0.1059   -0.4800 C   0  0  0  0  0  0  0  0  0  0  0  0
   -3.0040    1.4414    0.9333 C   0  0  0  0  0  0  0  0  0  0  0  0
   -3.0747   -0.8024   -0.6179 C   0  0  0  0  0  0  0  0  0  0  0  0
   -4.1886   -0.3172    0.0481 C   0  0  0  0  0  0  0  0  0  0  0  0
   -6.4903   -0.4452    0.6323 C   0  0  0  0  0  0  0  0  0  0  0  0
   -7.7123   -1.3012    0.3603 C   0  0  0  0  0  0  0  0  0  0  0  0
   -9.1159   -2.0901   -1.3515 C   0  0  0  0  0  0  0  0  0  0  0  0
    3.3232    2.9823    0.8234 H   0  0  0  0  0  0  0  0  0  0  0  0
    2.1755    3.6849   -1.7892 H   0  0  0  0  0  0  0  0  0  0  0  0
    3.6388    4.2769   -0.9842 H   0  0  0  0  0  0  0  0  0  0  0  0
    4.6936    3.1282   -2.7426 H   0  0  0  0  0  0  0  0  0  0  0  0
    3.3339    2.0038   -2.9273 H   0  0  0  0  0  0  0  0  0  0  0  0
    5.4595    2.0051   -0.7369 H   0  0  0  0  0  0  0  0  0  0  0  0
    4.9738    0.6602   -1.8057 H   0  0  0  0  0  0  0  0  0  0  0  0
    3.2259    0.5854    1.6467 H   0  0  0  0  0  0  0  0  0  0  0  0
    4.8829    0.9667    1.2732 H   0  0  0  0  0  0  0  0  0  0  0  0
    2.1783   -1.5228    1.1011 H   0  0  0  0  0  0  0  0  0  0  0  0
    6.2697   -0.7085    0.0072 H   0  0  0  0  0  0  0  0  0  0  0  0
    2.5386   -3.9139    0.6695 H   0  0  0  0  0  0  0  0  0  0  0  0
    6.6290   -3.0975   -0.4313 H   0  0  0  0  0  0  0  0  0  0  0  0
   -0.9988   -0.4780   -0.9976 H   0  0  0  0  0  0  0  0  0  0  0  0
   -3.0540    2.3228    1.5658 H   0  0  0  0  0  0  0  0  0  0  0  0
   -3.1263   -1.6967   -1.2292 H   0  0  0  0  0  0  0  0  0  0  0  0
   -6.6837    0.5752    0.2787 H   0  0  0  0  0  0  0  0  0  0  0  0
   -6.2885   -0.4353    1.7100 H   0  0  0  0  0  0  0  0  0  0  0  0
   -7.5168   -2.3343    0.6705 H   0  0  0  0  0  0  0  0  0  0  0  0
   -8.5731   -0.9121    0.9152 H   0  0  0  0  0  0  0  0  0  0  0  0
   -8.9298   -3.1336   -1.0792 H   0  0  0  0  0  0  0  0  0  0  0  0
  -10.0093   -1.7201   -0.8393 H   0  0  0  0  0  0  0  0  0  0  0  0
   -9.2851   -2.0365   -2.4303 H   0  0  0  0  0  0  0  0  0  0  0  0
  1 22  1  0  0  0  0
  2  7  1  0  0  0  0
  2 14  1  0  0  0  0
  3 26  1  0  0  0  0
  3 27  1  0  0  0  0
  4 28  1  0  0  0  0
  4 29  1  0  0  0  0
  5  9  1  0  0  0  0
  5 12  1  0  0  0  0
  5 13  1  0  0  0  0
  6 14  2  0  0  0  0
  6 18  1  0  0  0  0
  7 18  2  0  0  0  0
  8 24  1  0  0  0  0
  8 26  2  0  0  0  0
  9 10  1  0  0  0  0
  9 14  1  0  0  0  0
  9 30  1  0  0  0  0
 10 11  1  0  0  0  0
 10 31  1  0  0  0  0
 10 32  1  0  0  0  0
 11 12  1  0  0  0  0
 11 33  1  0  0  0  0
 11 34  1  0  0  0  0
 12 35  1  0  0  0  0
 12 36  1  0  0  0  0
 13 15  1  0  0  0  0
 13 37  1  0  0  0  0
 13 38  1  0  0  0  0
 15 16  2  0  0  0  0
 15 17  1  0  0  0  0
 16 19  1  0  0  0  0
 16 39  1  0  0  0  0
 17 20  2  0  0  0  0
 17 40  1  0  0  0  0
 18 21  1  0  0  0  0
 19 22  2  0  0  0  0
 19 41  1  0  0  0  0
 20 22  1  0  0  0  0
 20 42  1  0  0  0  0
 21 23  1  0  0  0  0
 21 24  2  0  0  0  0
 23 25  2  0  0  0  0
 23 43  1  0  0  0  0
 24 44  1  0  0  0  0
 25 26  1  0  0  0  0
 25 45  1  0  0  0  0
 27 28  1  0  0  0  0
 27 46  1  0  0  0  0
 27 47  1  0  0  0  0
 28 48  1  0  0  0  0
 28 49  1  0  0  0  0
 29 50  1  0  0  0  0
 29 51  1  0  0  0  0
 29 52  1  0  0  0  0
M  END
> <PUBCHEM_COMPOUND_CID>
45783544

> <PUBCHEM_CONFORMER_RMSD>
1

> <PUBCHEM_CONFORMER_DIVERSEORDER>
1
69
16
90
4
72
76
71
79
109
39
65
17
9
58
77
47
22
67
106
108
104
7
98
95
78
60
59
30
29
13
31
70
38
12
91
54
93
52
28
23
45
43
32
111
101
2
51
100
18
73
8
33
87
62
10
74
44
64
80
5
92
61
55
40
66
99
35
96
14
83
34
85
41
21
42
53
86
89
3
19
97
49
26
105
37
94
6
50
20
81
63
103
110
48
84
27
107
75
82
24
68
11
25
56
57
102
36
46
88
15

> <PUBCHEM_MMFF94_PARTIAL_CHARGES>
34
1 -0.18
12 0.27
13 0.41
14 0.3
15 -0.14
16 -0.15
17 -0.15
18 0.46
19 -0.15
2 -0.02
20 -0.15
21 0.05
22 0.18
23 -0.15
24 0.16
25 -0.15
26 0.39
27 0.28
28 0.28
29 0.28
3 -0.36
39 0.15
4 -0.56
40 0.15
41 0.15
42 0.15
43 0.15
44 0.15
45 0.15
5 -0.81
6 -0.57
7 -0.41
8 -0.62
9 0.45

> <PUBCHEM_EFFECTIVE_ROTOR_COUNT>
9

> <PUBCHEM_PHARMACOPHORE_FEATURES>
7
1 4 acceptor
1 5 cation
3 6 7 18 cation
5 2 6 7 14 18 rings
5 5 9 10 11 12 rings
6 15 16 17 19 20 22 rings
6 8 21 23 24 25 26 rings

> <PUBCHEM_HEAVY_ATOM_COUNT>
29

> <PUBCHEM_ATOM_DEF_STEREO_COUNT>
1

> <PUBCHEM_ATOM_UDEF_STEREO_COUNT>
0

> <PUBCHEM_BOND_DEF_STEREO_COUNT>
0

> <PUBCHEM_BOND_UDEF_STEREO_COUNT>
0

> <PUBCHEM_ISOTOPIC_ATOM_COUNT>
0

> <PUBCHEM_COMPONENT_COUNT>
1

> <PUBCHEM_CACTVS_TAUTO_COUNT>
1

> <PUBCHEM_CONFORMER_ID>
02BA99F800000001

> <PUBCHEM_MMFF94_ENERGY>
64.0394

> <PUBCHEM_FEATURE_SELFOVERLAP>
35.523

> <PUBCHEM_SHAPE_FINGERPRINT>
10042902 136 17979928112336858646
10049733 168 17489597748871159303
10448021 39 18410856559682000732
10622 236 18340484452518576603
11014199 57 18049727317849004498
11069576 57 18409167723387199116
11181472 205 18333737918993313885
117089 54 18339091401631472771
12107183 9 18052268301600029249
12633257 1 15697130991031319736
12838863 1 18115015313448215946
13533116 47 18410293640173236641
1361 2 18409729556117036018
13782708 43 18186517705547702399
13989917 61 18337393837261602499
14347332 77 18341894087399531089
14863182 85 18409444830788753960
15152005 1 18124594184970889910
15183329 4 18059302075736657381
15475509 35 18201994451898568496
155225 6 9222932790581939515
15803439 3 17247847157156950172
16067689 302 18263089976251019899
16628084 112 18411696583199472183
16728300 4 18200871769439175599
17492 89 18266460914969271560
19319366 153 18196378232967990132
20165401 70 18342733036051584783
20587220 46 17988925587100657630
20775530 9 18266447716777545738
21133410 171 16809513394363969682
21304303 94 18187927330355582162
23522609 53 18054542259725319233
23523787 8 17902263279638353060
23559900 14 18265607697956637960
24893989 43 17270601605437993311
255183 451 18267591213108001926
27425 322 15503502736439907776
3004659 81 18260265239829550008
3014965 18 18409726292590093965
34797466 226 16588587625446589613
3534868 343 18261968434580890197
3680242 22 18342469114288798747
397830 11 11383828321094994133
4435113 14 17751095797553274603
46194498 28 17676486168328432612
463206 1 18340203094002115058
474113 269 18201992219596944015
59682541 52 18335416911491552801
6201320 221 18200011990428852463
6441014 3 17762615088704123410
70251023 43 18335703802242806024
7970288 3 18339080368013196930
9555976 147 17559966411675734377

> <PUBCHEM_SHAPE_MULTIPOLES>
561.14
20.3
5.46
1.24
49.68
3.8
-0.42
21.52
-5.27
-11.17
-0.68
-0.02
-0.75
-3.11

> <PUBCHEM_SHAPE_SELFOVERLAP>
1191.82

> <PUBCHEM_SHAPE_VOLUME>
316.5

> <PUBCHEM_COORDINATE_TYPE>
2
5
10

$$$$
