45783278
  -OEChem-12032416273D

 52 55  0     1  0  0  0  0  0999 V2000
   -2.6035    2.2324    0.1294 O   0  0  0  0  0  0  0  0  0  0  0  0
    5.4154   -2.3133    0.2953 O   0  0  0  0  0  0  0  0  0  0  0  0
   -3.2511   -1.3215    0.8046 N   0  0  1  0  0  0  0  0  0  0  0  0
   -1.0561    0.6949    0.6377 N   0  0  0  0  0  0  0  0  0  0  0  0
   -1.3630    2.8244   -0.1399 N   0  0  0  0  0  0  0  0  0  0  0  0
   -2.5934   -0.7548   -2.5543 N   0  0  0  0  0  0  0  0  0  0  0  0
    3.9903    0.1109    0.6536 N   0  0  0  0  0  0  0  0  0  0  0  0
    3.6880    2.3301   -0.1592 N   0  0  0  0  0  0  0  0  0  0  0  0
   -3.5252    0.1222    0.9485 C   0  0  1  0  0  0  0  0  0  0  0  0
   -3.9539    0.2944    2.4175 C   0  0  0  0  0  0  0  0  0  0  0  0
   -3.9494   -1.1116    3.0006 C   0  0  0  0  0  0  0  0  0  0  0  0
   -4.0978   -2.0028    1.7839 C   0  0  0  0  0  0  0  0  0  0  0  0
   -3.4709   -1.8159   -0.5484 C   0  0  0  0  0  0  0  0  0  0  0  0
   -2.3324    0.9806    0.5831 C   0  0  0  0  0  0  0  0  0  0  0  0
   -2.3146   -1.4947   -1.4576 C   0  0  0  0  0  0  0  0  0  0  0  0
   -0.5010    1.8561    0.1845 C   0  0  0  0  0  0  0  0  0  0  0  0
   -1.0496   -1.9604   -1.1372 C   0  0  0  0  0  0  0  0  0  0  0  0
    0.9196    2.0172    0.0691 C   0  0  0  0  0  0  0  0  0  0  0  0
   -0.0033   -1.6467   -1.9977 C   0  0  0  0  0  0  0  0  0  0  0  0
   -1.5514   -0.4699   -3.3672 C   0  0  0  0  0  0  0  0  0  0  0  0
   -0.2507   -0.8877   -3.1361 C   0  0  0  0  0  0  0  0  0  0  0  0
    1.7712    0.9757    0.4209 C   0  0  0  0  0  0  0  0  0  0  0  0
    1.4507    3.2149   -0.3968 C   0  0  0  0  0  0  0  0  0  0  0  0
    3.1352    1.1809    0.2896 C   0  0  0  0  0  0  0  0  0  0  0  0
    2.8289    3.3198   -0.4915 C   0  0  0  0  0  0  0  0  0  0  0  0
    3.4981   -1.1374    1.1381 C   0  0  0  0  0  0  0  0  0  0  0  0
    4.6585   -2.0593    1.4720 C   0  0  0  0  0  0  0  0  0  0  0  0
    6.5114   -3.1787    0.5575 C   0  0  0  0  0  0  0  0  0  0  0  0
   -4.3740    0.4220    0.3179 H   0  0  0  0  0  0  0  0  0  0  0  0
   -3.2998    0.9570    2.9947 H   0  0  0  0  0  0  0  0  0  0  0  0
   -4.9701    0.7052    2.4591 H   0  0  0  0  0  0  0  0  0  0  0  0
   -4.7512   -1.2597    3.7298 H   0  0  0  0  0  0  0  0  0  0  0  0
   -2.9925   -1.3042    3.5016 H   0  0  0  0  0  0  0  0  0  0  0  0
   -5.1465   -2.0360    1.4623 H   0  0  0  0  0  0  0  0  0  0  0  0
   -3.7550   -3.0218    1.9878 H   0  0  0  0  0  0  0  0  0  0  0  0
   -4.4138   -1.4460   -0.9719 H   0  0  0  0  0  0  0  0  0  0  0  0
   -3.5562   -2.9114   -0.5375 H   0  0  0  0  0  0  0  0  0  0  0  0
   -0.8635   -2.5557   -0.2497 H   0  0  0  0  0  0  0  0  0  0  0  0
    1.0030   -1.9920   -1.7809 H   0  0  0  0  0  0  0  0  0  0  0  0
   -1.7966    0.1255   -4.2404 H   0  0  0  0  0  0  0  0  0  0  0  0
    0.5498   -0.6300   -3.8200 H   0  0  0  0  0  0  0  0  0  0  0  0
    1.3532    0.0431    0.7819 H   0  0  0  0  0  0  0  0  0  0  0  0
    0.8363    4.0610   -0.6862 H   0  0  0  0  0  0  0  0  0  0  0  0
    3.2935    4.2328   -0.8492 H   0  0  0  0  0  0  0  0  0  0  0  0
    4.9855    0.2724    0.5494 H   0  0  0  0  0  0  0  0  0  0  0  0
    2.9008   -1.0010    2.0471 H   0  0  0  0  0  0  0  0  0  0  0  0
    2.8815   -1.6221    0.3714 H   0  0  0  0  0  0  0  0  0  0  0  0
    5.3042   -1.5986    2.2296 H   0  0  0  0  0  0  0  0  0  0  0  0
    4.2712   -3.0050    1.8685 H   0  0  0  0  0  0  0  0  0  0  0  0
    6.1570   -4.1463    0.9258 H   0  0  0  0  0  0  0  0  0  0  0  0
    7.0546   -3.3392   -0.3777 H   0  0  0  0  0  0  0  0  0  0  0  0
    7.1932   -2.7253    1.2835 H   0  0  0  0  0  0  0  0  0  0  0  0
  1  5  1  0  0  0  0
  1 14  1  0  0  0  0
  2 27  1  0  0  0  0
  2 28  1  0  0  0  0
  3  9  1  0  0  0  0
  3 12  1  0  0  0  0
  3 13  1  0  0  0  0
  4 14  2  0  0  0  0
  4 16  1  0  0  0  0
  5 16  2  0  0  0  0
  6 15  1  0  0  0  0
  6 20  2  0  0  0  0
  7 24  1  0  0  0  0
  7 26  1  0  0  0  0
  7 45  1  0  0  0  0
  8 24  2  0  0  0  0
  8 25  1  0  0  0  0
  9 10  1  0  0  0  0
  9 14  1  0  0  0  0
  9 29  1  0  0  0  0
 10 11  1  0  0  0  0
 10 30  1  0  0  0  0
 10 31  1  0  0  0  0
 11 12  1  0  0  0  0
 11 32  1  0  0  0  0
 11 33  1  0  0  0  0
 12 34  1  0  0  0  0
 12 35  1  0  0  0  0
 13 15  1  0  0  0  0
 13 36  1  0  0  0  0
 13 37  1  0  0  0  0
 15 17  2  0  0  0  0
 16 18  1  0  0  0  0
 17 19  1  0  0  0  0
 17 38  1  0  0  0  0
 18 22  2  0  0  0  0
 18 23  1  0  0  0  0
 19 21  2  0  0  0  0
 19 39  1  0  0  0  0
 20 21  1  0  0  0  0
 20 40  1  0  0  0  0
 21 41  1  0  0  0  0
 22 24  1  0  0  0  0
 22 42  1  0  0  0  0
 23 25  2  0  0  0  0
 23 43  1  0  0  0  0
 25 44  1  0  0  0  0
 26 27  1  0  0  0  0
 26 46  1  0  0  0  0
 26 47  1  0  0  0  0
 27 48  1  0  0  0  0
 27 49  1  0  0  0  0
 28 50  1  0  0  0  0
 28 51  1  0  0  0  0
 28 52  1  0  0  0  0
M  END
> <PUBCHEM_COMPOUND_CID>
45783278

> <PUBCHEM_CONFORMER_RMSD>
1

> <PUBCHEM_CONFORMER_DIVERSEORDER>
1
110
21
73
40
78
18
134
142
79
126
25
101
59
140
123
109
131
51
77
154
26
95
92
57
122
64
75
19
124
103
97
17
118
66
117
145
48
84
13
63
106
146
81
139
132
150
86
80
147
67
152
153
119
71
24
129
44
89
102
141
29
76
82
32
100
16
144
138
53
65
72
58
128
104
4
90
85
36
27
49
136
98
9
149
99
115
105
39
38
114
135
148
52
23
34
113
116
111
46
2
88
10
50
143
125
69
151
14
108
5
127
22
62
130
83
112
42
74
3
35
20
107
70
55
120
96
43
68
41
121
56
137
54
37
47
133
30
91
87
31
94
93
11
12
28
45
6
7
60
15
61
33
8

> <PUBCHEM_MMFF94_PARTIAL_CHARGES>
34
1 -0.02
12 0.27
13 0.41
14 0.3
15 0.17
16 0.46
17 -0.15
18 0.05
19 -0.15
2 -0.56
20 0.16
21 -0.15
22 -0.15
23 -0.15
24 0.41
25 0.16
26 0.37
27 0.28
28 0.28
3 -0.81
38 0.15
39 0.15
4 -0.57
40 0.15
41 0.15
42 0.15
43 0.15
44 0.15
45 0.4
5 -0.41
6 -0.62
7 -0.87
8 -0.62
9 0.45

> <PUBCHEM_EFFECTIVE_ROTOR_COUNT>
9

> <PUBCHEM_PHARMACOPHORE_FEATURES>
10
1 2 acceptor
1 3 cation
1 6 acceptor
1 7 donor
3 4 5 16 cation
3 7 8 24 cation
5 1 4 5 14 16 rings
5 3 9 10 11 12 rings
6 6 15 17 19 20 21 rings
6 8 18 22 23 24 25 rings

> <PUBCHEM_HEAVY_ATOM_COUNT>
28

> <PUBCHEM_ATOM_DEF_STEREO_COUNT>
1

> <PUBCHEM_ATOM_UDEF_STEREO_COUNT>
0

> <PUBCHEM_BOND_DEF_STEREO_COUNT>
0

> <PUBCHEM_BOND_UDEF_STEREO_COUNT>
0

> <PUBCHEM_ISOTOPIC_ATOM_COUNT>
0

> <PUBCHEM_COMPONENT_COUNT>
1

> <PUBCHEM_CACTVS_TAUTO_COUNT>
2

> <PUBCHEM_CONFORMER_ID>
02BA98EE00000001

> <PUBCHEM_MMFF94_ENERGY>
64.4004

> <PUBCHEM_FEATURE_SELFOVERLAP>
50.747

> <PUBCHEM_SHAPE_FINGERPRINT>
10764073 3 18189064101421047961
11135926 11 18263359365051933460
11607047 141 15938985139698119769
11725454 13 13829592924594930529
12422481 6 17845945017741102774
12633257 1 18341626905509381819
12788726 201 16410984757783856333
14910302 57 16226869159978685185
15537594 2 18341620338957735400
16110190 28 18272369738065661442
17809404 112 17682915008441898538
19319366 153 17835253615596453192
21796203 349 18198367142280825080
235170 7 16661198286380404996
345986 75 17127317652626985783
484985 159 18190163616632167479
7064713 232 17275111617155655787
9862522 239 17846511356771711321

> <PUBCHEM_SHAPE_MULTIPOLES>
534.6
10.25
3.9
2.85
12.42
1.56
-1.69
-8.87
7.09
4.69
0.05
-3.62
-1.84
-1.36

> <PUBCHEM_SHAPE_SELFOVERLAP>
1144.477

> <PUBCHEM_SHAPE_VOLUME>
296.2

> <PUBCHEM_COORDINATE_TYPE>
2
5
10

$$$$
