51137904
  -OEChem-12032416223D

 50 53  0     1  0  0  0  0  0999 V2000
   -1.6300   -2.1443    2.4465 O   0  0  0  0  0  0  0  0  0  0  0  0
   -4.7712    0.1137   -1.7548 O   0  0  0  0  0  0  0  0  0  0  0  0
   -5.0856    2.3911   -0.1918 O   0  0  0  0  0  0  0  0  0  0  0  0
   -0.4170   -1.9115    0.4798 N   0  0  0  0  0  0  0  0  0  0  0  0
    2.9634    0.2431   -1.3951 N   0  0  0  0  0  0  0  0  0  0  0  0
    2.9876   -0.7844    0.5757 N   0  0  0  0  0  0  0  0  0  0  0  0
    1.3331   -1.6677   -1.1143 C   0  0  1  0  0  0  0  0  0  0  0  0
    1.4178   -3.0567   -0.4629 C   0  0  0  0  0  0  0  0  0  0  0  0
   -0.1091   -1.2525   -0.7906 C   0  0  0  0  0  0  0  0  0  0  0  0
    0.5812   -2.9193    0.8019 C   0  0  0  0  0  0  0  0  0  0  0  0
    2.4329   -0.7466   -0.6152 C   0  0  0  0  0  0  0  0  0  0  0  0
   -1.4517   -1.6126    1.3525 C   0  0  0  0  0  0  0  0  0  0  0  0
    3.9242    0.8870   -0.6584 C   0  0  0  0  0  0  0  0  0  0  0  0
    3.9203    0.2273    0.5674 C   0  0  0  0  0  0  0  0  0  0  0  0
    2.5827    0.5580   -2.7536 C   0  0  0  0  0  0  0  0  0  0  0  0
   -2.4034   -0.5671    0.9456 C   0  0  0  0  0  0  0  0  0  0  0  0
    4.7707    1.9570   -0.9505 C   0  0  0  0  0  0  0  0  0  0  0  0
    4.8070    0.6467    1.5736 C   0  0  0  0  0  0  0  0  0  0  0  0
   -3.1476   -0.7182   -0.2245 C   0  0  0  0  0  0  0  0  0  0  0  0
   -2.5611    0.5757    1.7297 C   0  0  0  0  0  0  0  0  0  0  0  0
    5.6464    2.3613    0.0625 C   0  0  0  0  0  0  0  0  0  0  0  0
    5.6660    1.7192    1.3028 C   0  0  0  0  0  0  0  0  0  0  0  0
   -4.0497    0.2733   -0.6103 C   0  0  0  0  0  0  0  0  0  0  0  0
   -3.4630    1.5673    1.3437 C   0  0  0  0  0  0  0  0  0  0  0  0
   -4.2074    1.4161    0.1737 C   0  0  0  0  0  0  0  0  0  0  0  0
   -4.5503   -1.0831   -2.4985 C   0  0  0  0  0  0  0  0  0  0  0  0
   -5.1864    3.5268    0.6652 C   0  0  0  0  0  0  0  0  0  0  0  0
    1.4496   -1.7839   -2.1985 H   0  0  0  0  0  0  0  0  0  0  0  0
    0.9461   -3.7939   -1.1255 H   0  0  0  0  0  0  0  0  0  0  0  0
    2.4361   -3.3997   -0.2549 H   0  0  0  0  0  0  0  0  0  0  0  0
   -0.2415   -0.1692   -0.7154 H   0  0  0  0  0  0  0  0  0  0  0  0
   -0.7931   -1.6541   -1.5458 H   0  0  0  0  0  0  0  0  0  0  0  0
    0.0968   -3.8556    1.0953 H   0  0  0  0  0  0  0  0  0  0  0  0
    1.1713   -2.5541    1.6492 H   0  0  0  0  0  0  0  0  0  0  0  0
    2.9906   -0.2147   -3.4100 H   0  0  0  0  0  0  0  0  0  0  0  0
    1.4919    0.5854   -2.8184 H   0  0  0  0  0  0  0  0  0  0  0  0
    2.9750    1.5355   -3.0401 H   0  0  0  0  0  0  0  0  0  0  0  0
    4.7636    2.4591   -1.9110 H   0  0  0  0  0  0  0  0  0  0  0  0
    4.8298    0.1542    2.5405 H   0  0  0  0  0  0  0  0  0  0  0  0
   -3.0077   -1.6383   -0.7815 H   0  0  0  0  0  0  0  0  0  0  0  0
   -1.9845    0.7051    2.6421 H   0  0  0  0  0  0  0  0  0  0  0  0
    6.3251    3.1910   -0.1200 H   0  0  0  0  0  0  0  0  0  0  0  0
    6.3581    2.0561    2.0703 H   0  0  0  0  0  0  0  0  0  0  0  0
   -3.5325    2.4271    2.0010 H   0  0  0  0  0  0  0  0  0  0  0  0
   -3.5205   -1.1464   -2.8667 H   0  0  0  0  0  0  0  0  0  0  0  0
   -4.8467   -1.9716   -1.9306 H   0  0  0  0  0  0  0  0  0  0  0  0
   -5.1994   -1.0390   -3.3793 H   0  0  0  0  0  0  0  0  0  0  0  0
   -5.5588    3.2517    1.6578 H   0  0  0  0  0  0  0  0  0  0  0  0
   -4.2432    4.0818    0.7125 H   0  0  0  0  0  0  0  0  0  0  0  0
   -5.9286    4.1994    0.2227 H   0  0  0  0  0  0  0  0  0  0  0  0
  1 12  2  0  0  0  0
  2 23  1  0  0  0  0
  2 26  1  0  0  0  0
  3 25  1  0  0  0  0
  3 27  1  0  0  0  0
  4  9  1  0  0  0  0
  4 10  1  0  0  0  0
  4 12  1  0  0  0  0
  5 11  1  0  0  0  0
  5 13  1  0  0  0  0
  5 15  1  0  0  0  0
  6 11  2  0  0  0  0
  6 14  1  0  0  0  0
  7  8  1  0  0  0  0
  7  9  1  0  0  0  0
  7 11  1  0  0  0  0
  7 28  1  0  0  0  0
  8 10  1  0  0  0  0
  8 29  1  0  0  0  0
  8 30  1  0  0  0  0
  9 31  1  0  0  0  0
  9 32  1  0  0  0  0
 10 33  1  0  0  0  0
 10 34  1  0  0  0  0
 12 16  1  0  0  0  0
 13 14  1  0  0  0  0
 13 17  2  0  0  0  0
 14 18  2  0  0  0  0
 15 35  1  0  0  0  0
 15 36  1  0  0  0  0
 15 37  1  0  0  0  0
 16 19  2  0  0  0  0
 16 20  1  0  0  0  0
 17 21  1  0  0  0  0
 17 38  1  0  0  0  0
 18 22  1  0  0  0  0
 18 39  1  0  0  0  0
 19 23  1  0  0  0  0
 19 40  1  0  0  0  0
 20 24  2  0  0  0  0
 20 41  1  0  0  0  0
 21 22  2  0  0  0  0
 21 42  1  0  0  0  0
 22 43  1  0  0  0  0
 23 25  2  0  0  0  0
 24 25  1  0  0  0  0
 24 44  1  0  0  0  0
 26 45  1  0  0  0  0
 26 46  1  0  0  0  0
 26 47  1  0  0  0  0
 27 48  1  0  0  0  0
 27 49  1  0  0  0  0
 27 50  1  0  0  0  0
M  END
> <PUBCHEM_COMPOUND_CID>
51137904

> <PUBCHEM_CONFORMER_RMSD>
0.8

> <PUBCHEM_CONFORMER_DIVERSEORDER>
1
99
16
59
65
66
96
67
54
101
55
83
21
41
98
38
62
76
77
60
93
39
27
36
44
95
81
82
97
4
11
90
45
87
28
29
58
71
10
89
13
94
84
91
19
70
26
33
56
72
53
73
22
42
92
85
31
78
79
57
40
30
47
34
12
75
64
25
18
46
68
74
6
35
32
50
23
102
88
61
9
48
80
63
3
37
5
52
69
100
14
2
51
15
20
49
8
86
17
24
7
43

> <PUBCHEM_MMFF94_PARTIAL_CHARGES>
33
1 -0.57
10 0.3
11 0.01
12 0.54
13 -0.15
14 0.23
15 0.26
16 0.09
17 -0.15
18 -0.15
19 -0.15
2 -0.36
20 -0.15
21 -0.15
22 -0.15
23 0.08
24 -0.15
25 0.08
26 0.28
27 0.28
3 -0.36
38 0.15
39 0.15
4 -0.66
40 0.15
41 0.15
42 0.15
43 0.15
44 0.15
5 0.05
6 -0.57
7 0.18
9 0.3

> <PUBCHEM_EFFECTIVE_ROTOR_COUNT>
6

> <PUBCHEM_PHARMACOPHORE_FEATURES>
8
1 1 acceptor
1 2 acceptor
1 3 acceptor
3 5 6 11 cation
5 4 7 8 9 10 rings
5 5 6 11 13 14 rings
6 13 14 17 18 21 22 rings
6 16 19 20 23 24 25 rings

> <PUBCHEM_HEAVY_ATOM_COUNT>
27

> <PUBCHEM_ATOM_DEF_STEREO_COUNT>
1

> <PUBCHEM_ATOM_UDEF_STEREO_COUNT>
0

> <PUBCHEM_BOND_DEF_STEREO_COUNT>
0

> <PUBCHEM_BOND_UDEF_STEREO_COUNT>
0

> <PUBCHEM_ISOTOPIC_ATOM_COUNT>
0

> <PUBCHEM_COMPONENT_COUNT>
1

> <PUBCHEM_CACTVS_TAUTO_COUNT>
1

> <PUBCHEM_CONFORMER_ID>
030C4D7000000001

> <PUBCHEM_MMFF94_ENERGY>
88.814

> <PUBCHEM_FEATURE_SELFOVERLAP>
40.709

> <PUBCHEM_SHAPE_FINGERPRINT>
10319926 262 13768209320994314249
10498660 4 17775570822996433944
10692045 39 17968371230815271962
10928967 22 10375872939615373573
12107183 9 18187351109634172602
12422481 6 17458337507868922308
12633257 1 16805608096311884550
12788726 201 17975967988601642874
12892183 10 13046244791538853863
13103583 49 11242246308318365343
13947920 24 16415194654166778550
13965767 371 17967251979670380878
14251740 57 9078239233999579041
14251764 30 11455888113386148021
14251764 38 18340485698065049352
14420673 8 11675144922415413033
14480069 147 12462754857072702868
14848178 96 18341623572588139568
14932701 244 18339076112159152999
14950920 106 15502667056190018408
15475509 35 8641633067232468629
17780758 139 12612742532198475644
1813 80 9223230766986161626
20429585 67 15697718237240577755
20511986 3 18268697343385596909
20715895 44 18262518074466979761
20775438 99 10373856418284450700
21304303 282 17773571984278452158
21315763 191 8286211577670132204
21401589 2 18336276699218834633
21403212 168 12035985969209167983
22393880 68 17775286027951844789
22950370 63 8935002598552771058
235170 7 16200155386826160924
23559900 14 18042981882194752298
23569914 2 16881287340499191957
2838139 119 18343858935725474304
312425 83 16700635401688737261
341906 21 18337117868669341384
3737641 26 9799400135913136074
376196 1 18338802221193022595
44062 13 10231488371411602579
44317340 157 18058459720569097619
445580 182 13479121406659936933
469060 322 18053678146237613235
474 4 18334862667025494331
474113 269 12973901338243867049
508180 173 17399535423835097715
5486654 36 8142084282107829853
57724786 102 17895206480181328372
6328613 192 18261124002183254108
633830 44 18190747436327142979
67856867 119 18199179598978789459
77296 10 17489579057410544742
7970288 3 9007064556262342512
9849439 229 18334869289844102201
9981440 41 18408888455370155187

> <PUBCHEM_SHAPE_MULTIPOLES>
523.1
13.4
3.33
2.15
2.43
0.39
-0.59
13.22
-1.2
-1.51
0.71
-0.5
-0.47
-0.51

> <PUBCHEM_SHAPE_SELFOVERLAP>
1142.947

> <PUBCHEM_SHAPE_VOLUME>
286.2

> <PUBCHEM_COORDINATE_TYPE>
2
5
10

$$$$
