45361453
  -OEChem-12032416313D

 72 75  0     1  0  0  0  0  0999 V2000
   -1.4881   -1.5713   -1.3252 O   0  0  0  0  0  0  0  0  0  0  0  0
   -6.1315    0.8812   -0.5872 O   0  0  0  0  0  0  0  0  0  0  0  0
    4.6136   -0.1283    1.5517 O   0  0  0  0  0  0  0  0  0  0  0  0
    3.4286    0.4848   -0.3555 N   0  0  0  0  0  0  0  0  0  0  0  0
   -5.8601   -1.3287    0.0574 N   0  0  0  0  0  0  0  0  0  0  0  0
   -0.6257    1.7376    0.3728 C   0  0  1  0  0  0  0  0  0  0  0  0
   -0.4169    0.2778   -0.1511 C   0  0  2  0  0  0  0  0  0  0  0  0
    1.0092    0.1113   -0.7886 C   0  0  1  0  0  0  0  0  0  0  0  0
   -1.6061   -0.1755   -1.0462 C   0  0  2  0  0  0  0  0  0  0  0  0
   -1.9910    1.8368    1.0934 C   0  0  0  0  0  0  0  0  0  0  0  0
   -2.9772    0.0236   -0.3590 C   0  0  1  0  0  0  0  0  0  0  0  0
    0.4767    2.0649    1.4064 C   0  0  0  0  0  0  0  0  0  0  0  0
    2.1072    0.5150    0.2354 C   0  0  2  0  0  0  0  0  0  0  0  0
   -3.1615    1.4314    0.2074 C   0  0  0  0  0  0  0  0  0  0  0  0
    1.8842    1.8954    0.8527 C   0  0  0  0  0  0  0  0  0  0  0  0
   -0.5861    2.7886   -0.7655 C   0  0  0  0  0  0  0  0  0  0  0  0
   -4.1400   -0.3051   -1.3033 C   0  0  2  0  0  0  0  0  0  0  0  0
    1.2930   -1.3113   -1.2998 C   0  0  0  0  0  0  0  0  0  0  0  0
   -4.0920    0.6000   -2.5297 C   0  0  0  0  0  0  0  0  0  0  0  0
   -5.4788   -0.1605   -0.5878 C   0  0  0  0  0  0  0  0  0  0  0  0
    4.5679    0.1644    0.3597 C   0  0  0  0  0  0  0  0  0  0  0  0
   -7.0811   -1.4338    0.8040 C   0  0  0  0  0  0  0  0  0  0  0  0
    5.7993    0.1839   -0.4989 C   0  0  0  0  0  0  0  0  0  0  0  0
   -7.1579   -0.9842    2.2334 C   0  0  0  0  0  0  0  0  0  0  0  0
   -7.2364   -2.4454    1.9013 C   0  0  0  0  0  0  0  0  0  0  0  0
    5.9770   -1.1665   -1.1959 C   0  0  0  0  0  0  0  0  0  0  0  0
    7.0288    0.5974    0.3127 C   0  0  0  0  0  0  0  0  0  0  0  0
    6.5061   -2.2557   -0.2645 C   0  0  0  0  0  0  0  0  0  0  0  0
    7.5621   -0.5132    1.2170 C   0  0  0  0  0  0  0  0  0  0  0  0
    7.7767   -1.8144    0.4528 C   0  0  0  0  0  0  0  0  0  0  0  0
   -0.4250   -0.3906    0.7249 H   0  0  0  0  0  0  0  0  0  0  0  0
    1.0860    0.7706   -1.6625 H   0  0  0  0  0  0  0  0  0  0  0  0
   -1.5306    0.3537   -1.9978 H   0  0  0  0  0  0  0  0  0  0  0  0
   -1.9868    1.1915    1.9823 H   0  0  0  0  0  0  0  0  0  0  0  0
   -2.1547    2.8587    1.4590 H   0  0  0  0  0  0  0  0  0  0  0  0
   -3.0343   -0.6789    0.4860 H   0  0  0  0  0  0  0  0  0  0  0  0
    0.3588    3.0915    1.7758 H   0  0  0  0  0  0  0  0  0  0  0  0
    0.3679    1.4100    2.2814 H   0  0  0  0  0  0  0  0  0  0  0  0
    2.0950   -0.2201    1.0521 H   0  0  0  0  0  0  0  0  0  0  0  0
   -4.0628    1.4804    0.8292 H   0  0  0  0  0  0  0  0  0  0  0  0
   -3.2833    2.1913   -0.5668 H   0  0  0  0  0  0  0  0  0  0  0  0
    2.6052    2.0599    1.6640 H   0  0  0  0  0  0  0  0  0  0  0  0
    2.0955    2.6785    0.1143 H   0  0  0  0  0  0  0  0  0  0  0  0
    0.3816    2.8298   -1.2718 H   0  0  0  0  0  0  0  0  0  0  0  0
   -0.7814    3.7922   -0.3697 H   0  0  0  0  0  0  0  0  0  0  0  0
   -1.3327    2.5947   -1.5406 H   0  0  0  0  0  0  0  0  0  0  0  0
   -4.0537   -1.3420   -1.6532 H   0  0  0  0  0  0  0  0  0  0  0  0
    1.0778   -2.0603   -0.5308 H   0  0  0  0  0  0  0  0  0  0  0  0
    2.3378   -1.4371   -1.6012 H   0  0  0  0  0  0  0  0  0  0  0  0
    0.7038   -1.5345   -2.1935 H   0  0  0  0  0  0  0  0  0  0  0  0
    3.5143    0.7623   -1.3291 H   0  0  0  0  0  0  0  0  0  0  0  0
   -1.5019   -2.0507   -0.4793 H   0  0  0  0  0  0  0  0  0  0  0  0
   -4.1608    1.6674   -2.3094 H   0  0  0  0  0  0  0  0  0  0  0  0
   -3.2149    0.4230   -3.1565 H   0  0  0  0  0  0  0  0  0  0  0  0
   -4.9579    0.3801   -3.1681 H   0  0  0  0  0  0  0  0  0  0  0  0
   -7.9571   -1.2620    0.1860 H   0  0  0  0  0  0  0  0  0  0  0  0
   -5.2626   -2.1498    0.0141 H   0  0  0  0  0  0  0  0  0  0  0  0
    5.6542    0.9509   -1.2721 H   0  0  0  0  0  0  0  0  0  0  0  0
   -6.2546   -0.6245    2.7110 H   0  0  0  0  0  0  0  0  0  0  0  0
   -8.0652   -0.4901    2.5586 H   0  0  0  0  0  0  0  0  0  0  0  0
   -8.1968   -2.9354    2.0046 H   0  0  0  0  0  0  0  0  0  0  0  0
   -6.3862   -3.0654    2.1580 H   0  0  0  0  0  0  0  0  0  0  0  0
    6.6878   -1.0419   -2.0231 H   0  0  0  0  0  0  0  0  0  0  0  0
    5.0343   -1.5032   -1.6435 H   0  0  0  0  0  0  0  0  0  0  0  0
    6.8109    1.4851    0.9191 H   0  0  0  0  0  0  0  0  0  0  0  0
    7.8257    0.8850   -0.3856 H   0  0  0  0  0  0  0  0  0  0  0  0
    6.7094   -3.1637   -0.8438 H   0  0  0  0  0  0  0  0  0  0  0  0
    5.7391   -2.5183    0.4739 H   0  0  0  0  0  0  0  0  0  0  0  0
    6.8903   -0.6902    2.0628 H   0  0  0  0  0  0  0  0  0  0  0  0
    8.5156   -0.1912    1.6525 H   0  0  0  0  0  0  0  0  0  0  0  0
    8.5827   -1.6807   -0.2792 H   0  0  0  0  0  0  0  0  0  0  0  0
    8.1018   -2.5993    1.1450 H   0  0  0  0  0  0  0  0  0  0  0  0
  1  9  1  0  0  0  0
  1 52  1  0  0  0  0
  2 20  2  0  0  0  0
  3 21  2  0  0  0  0
  4 13  1  0  0  0  0
  4 21  1  0  0  0  0
  4 51  1  0  0  0  0
  5 20  1  0  0  0  0
  5 22  1  0  0  0  0
  5 57  1  0  0  0  0
  6  7  1  0  0  0  0
  6 10  1  0  0  0  0
  6 12  1  0  0  0  0
  6 16  1  0  0  0  0
  7  8  1  0  0  0  0
  7  9  1  0  0  0  0
  7 31  1  0  0  0  0
  8 13  1  0  0  0  0
  8 18  1  0  0  0  0
  8 32  1  0  0  0  0
  9 11  1  0  0  0  0
  9 33  1  0  0  0  0
 10 14  1  0  0  0  0
 10 34  1  0  0  0  0
 10 35  1  0  0  0  0
 11 14  1  0  0  0  0
 11 17  1  0  0  0  0
 11 36  1  0  0  0  0
 12 15  1  0  0  0  0
 12 37  1  0  0  0  0
 12 38  1  0  0  0  0
 13 15  1  0  0  0  0
 13 39  1  0  0  0  0
 14 40  1  0  0  0  0
 14 41  1  0  0  0  0
 15 42  1  0  0  0  0
 15 43  1  0  0  0  0
 16 44  1  0  0  0  0
 16 45  1  0  0  0  0
 16 46  1  0  0  0  0
 17 19  1  0  0  0  0
 17 20  1  0  0  0  0
 17 47  1  0  0  0  0
 18 48  1  0  0  0  0
 18 49  1  0  0  0  0
 18 50  1  0  0  0  0
 19 53  1  0  0  0  0
 19 54  1  0  0  0  0
 19 55  1  0  0  0  0
 21 23  1  0  0  0  0
 22 24  1  0  0  0  0
 22 25  1  0  0  0  0
 22 56  1  0  0  0  0
 23 26  1  0  0  0  0
 23 27  1  0  0  0  0
 23 58  1  0  0  0  0
 24 25  1  0  0  0  0
 24 59  1  0  0  0  0
 24 60  1  0  0  0  0
 25 61  1  0  0  0  0
 25 62  1  0  0  0  0
 26 28  1  0  0  0  0
 26 63  1  0  0  0  0
 26 64  1  0  0  0  0
 27 29  1  0  0  0  0
 27 65  1  0  0  0  0
 27 66  1  0  0  0  0
 28 30  1  0  0  0  0
 28 67  1  0  0  0  0
 28 68  1  0  0  0  0
 29 30  1  0  0  0  0
 29 69  1  0  0  0  0
 29 70  1  0  0  0  0
 30 71  1  0  0  0  0
 30 72  1  0  0  0  0
M  END
> <PUBCHEM_COMPOUND_CID>
45361453

> <PUBCHEM_CONFORMER_RMSD>
1

> <PUBCHEM_CONFORMER_DIVERSEORDER>
1
88
123
103
63
98
119
82
28
31
117
95
11
125
75
83
54
27
112
44
124
47
73
74
36
49
85
58
30
5
89
108
17
18
62
115
34
127
114
104
56
120
55
12
40
32
84
78
24
81
122
42
59
97
76
96
43
68
6
52
87
94
15
13
110
86
109
41
60
116
72
46
33
14
25
21
92
118
4
45
7
19
16
107
22
2
26
29
57
20
80
101
38
51
106
93
61
105
65
64
39
100
99
9
69
121
48
126
50
8
79
77
91
23
71
3
102
37
90
113
67
66
70
53
35
10
111

> <PUBCHEM_MMFF94_PARTIAL_CHARGES>
22
1 -0.68
13 0.3
17 0.06
2 -0.57
20 0.57
21 0.57
22 0.05
23 0.06
24 -0.2
25 -0.2
3 -0.57
4 -0.73
5 -0.58
51 0.37
52 0.4
56 0.1
57 0.37
59 0.1
60 0.1
61 0.1
62 0.1
9 0.28

> <PUBCHEM_EFFECTIVE_ROTOR_COUNT>
10.4

> <PUBCHEM_PHARMACOPHORE_FEATURES>
10
1 1 acceptor
1 1 donor
1 19 hydrophobe
1 2 acceptor
1 3 acceptor
1 4 donor
1 5 donor
6 23 26 27 28 29 30 rings
6 6 7 8 12 13 15 rings
6 6 7 9 10 11 14 rings

> <PUBCHEM_HEAVY_ATOM_COUNT>
30

> <PUBCHEM_ATOM_DEF_STEREO_COUNT>
6

> <PUBCHEM_ATOM_UDEF_STEREO_COUNT>
1

> <PUBCHEM_BOND_DEF_STEREO_COUNT>
0

> <PUBCHEM_BOND_UDEF_STEREO_COUNT>
0

> <PUBCHEM_ISOTOPIC_ATOM_COUNT>
0

> <PUBCHEM_COMPONENT_COUNT>
1

> <PUBCHEM_CACTVS_TAUTO_COUNT>
4

> <PUBCHEM_CONFORMER_ID>
02B4292D00000001

> <PUBCHEM_MMFF94_ENERGY>
75.8777

> <PUBCHEM_FEATURE_SELFOVERLAP>
50.76

> <PUBCHEM_SHAPE_FINGERPRINT>
10554248 39 10809609433655044232
11007060 377 12251905888896011077
11181472 205 12391251404400232922
11456790 92 16917069962544672258
11607047 74 16519362481004631453
11646440 116 17846782922520093360
12035758 1 17847065501403697263
12166972 35 17822014232682148565
12236239 1 18408601432139378332
125118 31 12823294615725646906
13668630 136 18040997328315118786
13673619 4 17968096469368127917
13685833 64 18343582949732642536
13782708 43 18113895009471860619
13862211 1 17989196054091045308
14028597 1 16630536093700124699
14251764 18 17489585663037797976
14344974 204 18045229477731905827
14767858 380 13479129112210950247
14849402 71 16988276615886419648
15131766 46 12174461839450687690
15183329 4 17846494821068292958
16994733 274 12319453273062158310
18335252 98 18411140251827135184
18608769 82 18259986006784057091
19841028 212 17823409393596967338
20721686 146 13182753519682132329
20982279 24 18263944167314336122
21130935 74 15052014563446132414
21150785 3 15574432137031790811
21236236 1 17917706860141156516
21267235 1 18272655645137398012
21781051 124 18334588961803293406
21792961 116 18335130961026869445
22149856 69 17417543427829340138
22288116 15 14345801573910253513
23522609 53 17130720563547273401
23559900 14 18058994203057697232
23569943 247 17631730448403883791
23576562 1 8574129628248534291
312425 54 15769772468281910830
3178227 256 18201163229618769571
335352 9 17988916791133690733
3383291 50 18412543227715670738
4149490 64 18040995190128034314
4169191 19 8718834201806714727
4339292 15 17968087681928766011
437795 83 10809608330181426855
44880568 143 17023180496862387556
465052 167 18411420630954351572
484989 97 12902130738004452657
5104073 3 17702674228493103458
58083652 198 17489295413227248113
6009941 240 18335421219686927861
6058803 2 16698626856634316581
636775 8 18260555511263558726
6691757 9 15339119061967762199
999808 66 18409732872221626171

> <PUBCHEM_SHAPE_MULTIPOLES>
589.82
22.69
2.34
1.75
9.06
0.19
-0.03
-16.81
7.53
-0.81
0.59
-2.38
-0.28
2.25

> <PUBCHEM_SHAPE_SELFOVERLAP>
1215.889

> <PUBCHEM_SHAPE_VOLUME>
333.9

> <PUBCHEM_COORDINATE_TYPE>
2
5
10

$$$$
