11865733
  -OEChem-12032416363D

 60 61  0     1  0  0  0  0  0999 V2000
    4.3156   -2.4688    1.8156 S   0  0  0  0  0  0  0  0  0  0  0  0
    0.9907    0.3256    0.8673 O   0  0  0  0  0  0  0  0  0  0  0  0
    4.3801    0.2363   -0.1476 O   0  0  0  0  0  0  0  0  0  0  0  0
   -2.2810   -2.6675   -1.5307 O   0  0  0  0  0  0  0  0  0  0  0  0
    2.3211    4.5269   -0.4213 O   0  0  0  0  0  0  0  0  0  0  0  0
    2.5984   -1.0990   -0.7799 N   0  0  0  0  0  0  0  0  0  0  0  0
   -0.3851   -2.0487   -0.3407 N   0  0  0  0  0  0  0  0  0  0  0  0
    1.0183    2.1144   -0.6223 N   0  0  0  0  0  0  0  0  0  0  0  0
   -2.4108   -2.2133    0.7410 N   0  0  0  0  0  0  0  0  0  0  0  0
    1.4891    4.7583    1.7072 N   0  0  0  0  0  0  0  0  0  0  0  0
    0.5472   -2.0994   -1.4390 C   0  0  1  0  0  0  0  0  0  0  0  0
    1.7926   -0.0308   -1.3528 C   0  0  1  0  0  0  0  0  0  0  0  0
    0.6868   -0.7407   -2.1309 C   0  0  0  0  0  0  0  0  0  0  0  0
    1.9650   -2.4044   -0.9659 C   0  0  0  0  0  0  0  0  0  0  0  0
    1.2335    0.8018   -0.2385 C   0  0  0  0  0  0  0  0  0  0  0  0
    3.8775   -0.8795   -0.2915 C   0  0  0  0  0  0  0  0  0  0  0  0
    0.4643    3.1154    0.2606 C   0  0  2  0  0  0  0  0  0  0  0  0
    4.6521   -2.1176    0.0841 C   0  0  0  0  0  0  0  0  0  0  0  0
   -1.7424   -2.3398   -0.4741 C   0  0  0  0  0  0  0  0  0  0  0  0
   -0.8172    3.7400   -0.3030 C   0  0  0  0  0  0  0  0  0  0  0  0
    1.5324    4.1816    0.4551 C   0  0  0  0  0  0  0  0  0  0  0  0
   -2.0308    2.8660   -0.1002 C   0  0  0  0  0  0  0  0  0  0  0  0
   -3.8267   -2.4574    0.8844 C   0  0  0  0  0  0  0  0  0  0  0  0
   -2.3842    1.9273   -1.0697 C   0  0  0  0  0  0  0  0  0  0  0  0
   -2.7990    2.9964    1.0569 C   0  0  0  0  0  0  0  0  0  0  0  0
    5.3344   -3.9531    2.0029 C   0  0  0  0  0  0  0  0  0  0  0  0
   -3.5057    1.1194   -0.8824 C   0  0  0  0  0  0  0  0  0  0  0  0
   -3.9205    2.1882    1.2442 C   0  0  0  0  0  0  0  0  0  0  0  0
   -4.0421   -3.8960    1.2186 C   0  0  0  0  0  0  0  0  0  0  0  0
   -4.2737    1.2497    0.2745 C   0  0  0  0  0  0  0  0  0  0  0  0
   -4.7798   -4.7311    0.4782 C   0  0  0  0  0  0  0  0  0  0  0  0
    0.1971   -2.8632   -2.1419 H   0  0  0  0  0  0  0  0  0  0  0  0
    2.4213    0.5842   -2.0067 H   0  0  0  0  0  0  0  0  0  0  0  0
   -0.2506   -0.1784   -2.1748 H   0  0  0  0  0  0  0  0  0  0  0  0
    1.0300   -0.9044   -3.1605 H   0  0  0  0  0  0  0  0  0  0  0  0
    2.0020   -2.9976   -0.0486 H   0  0  0  0  0  0  0  0  0  0  0  0
    2.5208   -2.9253   -1.7538 H   0  0  0  0  0  0  0  0  0  0  0  0
   -0.0516   -1.7272    0.5630 H   0  0  0  0  0  0  0  0  0  0  0  0
    1.2772    2.4057   -1.5607 H   0  0  0  0  0  0  0  0  0  0  0  0
    0.2602    2.6531    1.2346 H   0  0  0  0  0  0  0  0  0  0  0  0
    4.4098   -2.9714   -0.5512 H   0  0  0  0  0  0  0  0  0  0  0  0
    5.7181   -1.9031   -0.0478 H   0  0  0  0  0  0  0  0  0  0  0  0
   -1.0082    4.7109    0.1740 H   0  0  0  0  0  0  0  0  0  0  0  0
   -0.7007    3.9655   -1.3718 H   0  0  0  0  0  0  0  0  0  0  0  0
   -1.8785   -1.9548    1.5662 H   0  0  0  0  0  0  0  0  0  0  0  0
   -4.1906   -1.8265    1.7012 H   0  0  0  0  0  0  0  0  0  0  0  0
   -4.3427   -2.1658   -0.0366 H   0  0  0  0  0  0  0  0  0  0  0  0
   -1.7960    1.8184   -1.9767 H   0  0  0  0  0  0  0  0  0  0  0  0
   -2.5323    3.7219    1.8207 H   0  0  0  0  0  0  0  0  0  0  0  0
    2.1389    5.4940    1.9639 H   0  0  0  0  0  0  0  0  0  0  0  0
    0.8158    4.4798    2.4139 H   0  0  0  0  0  0  0  0  0  0  0  0
    5.2534   -4.3181    3.0302 H   0  0  0  0  0  0  0  0  0  0  0  0
    6.3829   -3.7230    1.7966 H   0  0  0  0  0  0  0  0  0  0  0  0
    4.9888   -4.7388    1.3261 H   0  0  0  0  0  0  0  0  0  0  0  0
   -3.7801    0.3877   -1.6367 H   0  0  0  0  0  0  0  0  0  0  0  0
   -4.5179    2.2887    2.1455 H   0  0  0  0  0  0  0  0  0  0  0  0
   -3.5820   -4.2772    2.1270 H   0  0  0  0  0  0  0  0  0  0  0  0
   -5.1465    0.6202    0.4206 H   0  0  0  0  0  0  0  0  0  0  0  0
   -4.9054   -5.7658    0.7780 H   0  0  0  0  0  0  0  0  0  0  0  0
   -5.2667   -4.4019   -0.4330 H   0  0  0  0  0  0  0  0  0  0  0  0
  1 18  1  0  0  0  0
  1 26  1  0  0  0  0
  2 15  2  0  0  0  0
  3 16  2  0  0  0  0
  4 19  2  0  0  0  0
  5 21  2  0  0  0  0
  6 12  1  0  0  0  0
  6 14  1  0  0  0  0
  6 16  1  0  0  0  0
  7 11  1  0  0  0  0
  7 19  1  0  0  0  0
  7 38  1  0  0  0  0
  8 15  1  0  0  0  0
  8 17  1  0  0  0  0
  8 39  1  0  0  0  0
  9 19  1  0  0  0  0
  9 23  1  0  0  0  0
  9 45  1  0  0  0  0
 10 21  1  0  0  0  0
 10 50  1  0  0  0  0
 10 51  1  0  0  0  0
 11 13  1  0  0  0  0
 11 14  1  0  0  0  0
 11 32  1  0  0  0  0
 12 13  1  0  0  0  0
 12 15  1  0  0  0  0
 12 33  1  0  0  0  0
 13 34  1  0  0  0  0
 13 35  1  0  0  0  0
 14 36  1  0  0  0  0
 14 37  1  0  0  0  0
 16 18  1  0  0  0  0
 17 20  1  0  0  0  0
 17 21  1  0  0  0  0
 17 40  1  0  0  0  0
 18 41  1  0  0  0  0
 18 42  1  0  0  0  0
 20 22  1  0  0  0  0
 20 43  1  0  0  0  0
 20 44  1  0  0  0  0
 22 24  2  0  0  0  0
 22 25  1  0  0  0  0
 23 29  1  0  0  0  0
 23 46  1  0  0  0  0
 23 47  1  0  0  0  0
 24 27  1  0  0  0  0
 24 48  1  0  0  0  0
 25 28  2  0  0  0  0
 25 49  1  0  0  0  0
 26 52  1  0  0  0  0
 26 53  1  0  0  0  0
 26 54  1  0  0  0  0
 27 30  2  0  0  0  0
 27 55  1  0  0  0  0
 28 30  1  0  0  0  0
 28 56  1  0  0  0  0
 29 31  2  0  0  0  0
 29 57  1  0  0  0  0
 30 58  1  0  0  0  0
 31 59  1  0  0  0  0
 31 60  1  0  0  0  0
M  END
> <PUBCHEM_COMPOUND_CID>
11865733

> <PUBCHEM_CONFORMER_RMSD>
1.2

> <PUBCHEM_CONFORMER_DIVERSEORDER>
1
2
14
9
12
8
7
11
13
5
6
3
10
4

> <PUBCHEM_MMFF94_PARTIAL_CHARGES>
43
1 -0.46
10 -0.8
11 0.3
12 0.36
14 0.3
15 0.57
16 0.57
17 0.36
18 0.29
19 0.69
2 -0.57
20 0.14
21 0.57
22 -0.14
23 0.44
24 -0.15
25 -0.15
26 0.23
27 -0.15
28 -0.15
29 -0.29
3 -0.57
30 -0.15
31 -0.3
38 0.37
39 0.37
4 -0.57
45 0.37
48 0.15
49 0.15
5 -0.57
50 0.37
51 0.37
55 0.15
56 0.15
57 0.15
58 0.15
59 0.15
6 -0.66
60 0.15
7 -0.73
8 -0.73
9 -0.73

> <PUBCHEM_EFFECTIVE_ROTOR_COUNT>
15

> <PUBCHEM_PHARMACOPHORE_FEATURES>
12
1 10 donor
1 2 acceptor
1 26 hydrophobe
1 3 acceptor
1 31 hydrophobe
1 4 acceptor
1 5 acceptor
1 7 donor
1 8 donor
1 9 donor
5 6 11 12 13 14 rings
6 22 24 25 27 28 30 rings

> <PUBCHEM_HEAVY_ATOM_COUNT>
31

> <PUBCHEM_ATOM_DEF_STEREO_COUNT>
3

> <PUBCHEM_ATOM_UDEF_STEREO_COUNT>
0

> <PUBCHEM_BOND_DEF_STEREO_COUNT>
0

> <PUBCHEM_BOND_UDEF_STEREO_COUNT>
0

> <PUBCHEM_ISOTOPIC_ATOM_COUNT>
0

> <PUBCHEM_COMPONENT_COUNT>
1

> <PUBCHEM_CACTVS_TAUTO_COUNT>
12

> <PUBCHEM_CONFORMER_ID>
00B50E8500000001

> <PUBCHEM_MMFF94_ENERGY>
65.7694

> <PUBCHEM_FEATURE_SELFOVERLAP>
60.948

> <PUBCHEM_SHAPE_FINGERPRINT>
10006869 2 18056207010380640471
10074138 170 18050260619263991130
10190108 129 17831318441926314641
1100329 8 18411143515643934797
12553582 1 18054804887715284149
12788726 201 18194682554219923186
13140716 1 18339932622784422725
14725015 67 18336259038878062073
15328829 1 17534087189608781190
15420108 30 17196308734393911559
15815584 197 17327482700280138019
16728300 4 17684895349090132800
17349148 13 17463715094923537012
21033648 29 17489304144542546842
21304304 249 18120086182805699023
21796203 349 17979396050891932016
392239 28 18124312697076329248
6004065 56 18198895925780851909

> <PUBCHEM_SHAPE_MULTIPOLES>
593.43
9.49
7.68
1.67
8.02
0.05
0.06
-7.89
4.69
-6.05
2.89
0.93
-0.63
-0.61

> <PUBCHEM_SHAPE_SELFOVERLAP>
1204.546

> <PUBCHEM_SHAPE_VOLUME>
346.4

> <PUBCHEM_COORDINATE_TYPE>
2
5
10

$$$$
