25338997
  -OEChem-12032416173D

 42 43  0     1  0  0  0  0  0999 V2000
    0.8388    3.4803    0.3284 O   0  0  0  0  0  0  0  0  0  0  0  0
    1.0310    1.6115    1.6728 O   0  0  0  0  0  0  0  0  0  0  0  0
    3.3743    0.0273   -0.9240 O   0  0  0  0  0  0  0  0  0  0  0  0
    3.9556   -2.2811   -0.0693 O   0  0  0  0  0  0  0  0  0  0  0  0
    1.1088   -0.0426   -0.3741 N   0  0  0  0  0  0  0  0  0  0  0  0
   -2.5571   -0.7494   -0.0379 N   0  0  0  0  0  0  0  0  0  0  0  0
   -2.8153    1.0649   -1.3147 N   0  0  0  0  0  0  0  0  0  0  0  0
    0.9099    1.3895   -0.7251 C   0  0  1  0  0  0  0  0  0  0  0  0
   -1.3052   -0.2620   -0.2700 C   0  0  0  0  0  0  0  0  0  0  0  0
   -0.3707    1.6802   -1.5360 C   0  0  0  0  0  0  0  0  0  0  0  0
   -0.0258   -0.8007    0.2255 C   0  0  0  0  0  0  0  0  0  0  0  0
   -1.4917    0.8507   -1.0508 C   0  0  0  0  0  0  0  0  0  0  0  0
   -2.9115   -1.9105    0.7416 C   0  0  0  0  0  0  0  0  0  0  0  0
   -3.4327    0.0836   -0.6879 C   0  0  0  0  0  0  0  0  0  0  0  0
    0.9359    2.1428    0.5747 C   0  0  0  0  0  0  0  0  0  0  0  0
    2.4090   -0.5664   -0.4369 C   0  0  0  0  0  0  0  0  0  0  0  0
   -3.6063   -2.9725   -0.1142 C   0  0  0  0  0  0  0  0  0  0  0  0
   -3.7725   -1.5359    1.9505 C   0  0  0  0  0  0  0  0  0  0  0  0
    2.6031   -1.9510    0.1314 C   0  0  0  0  0  0  0  0  0  0  0  0
    0.8519    4.3213    1.4863 C   0  0  0  0  0  0  0  0  0  0  0  0
    4.2705   -3.5801    0.4298 C   0  0  0  0  0  0  0  0  0  0  0  0
    1.7761    1.7393   -1.2996 H   0  0  0  0  0  0  0  0  0  0  0  0
   -0.1884    1.4130   -2.5845 H   0  0  0  0  0  0  0  0  0  0  0  0
   -0.6436    2.7403   -1.5164 H   0  0  0  0  0  0  0  0  0  0  0  0
    0.0482   -0.7181    1.3143 H   0  0  0  0  0  0  0  0  0  0  0  0
    0.0599   -1.8559   -0.0444 H   0  0  0  0  0  0  0  0  0  0  0  0
   -1.9828   -2.3495    1.1234 H   0  0  0  0  0  0  0  0  0  0  0  0
   -4.5032   -0.0699   -0.6719 H   0  0  0  0  0  0  0  0  0  0  0  0
   -4.5712   -2.6208   -0.4955 H   0  0  0  0  0  0  0  0  0  0  0  0
   -3.7881   -3.8805    0.4706 H   0  0  0  0  0  0  0  0  0  0  0  0
   -2.9869   -3.2453   -0.9759 H   0  0  0  0  0  0  0  0  0  0  0  0
   -4.7438   -1.1294    1.6481 H   0  0  0  0  0  0  0  0  0  0  0  0
   -3.2723   -0.7802    2.5664 H   0  0  0  0  0  0  0  0  0  0  0  0
   -3.9578   -2.4135    2.5788 H   0  0  0  0  0  0  0  0  0  0  0  0
    1.9767   -2.6649   -0.4114 H   0  0  0  0  0  0  0  0  0  0  0  0
    2.3619   -1.9474    1.1991 H   0  0  0  0  0  0  0  0  0  0  0  0
    0.7687    5.3593    1.1536 H   0  0  0  0  0  0  0  0  0  0  0  0
    1.7932    4.2010    2.0309 H   0  0  0  0  0  0  0  0  0  0  0  0
   -0.0009    4.0897    2.1316 H   0  0  0  0  0  0  0  0  0  0  0  0
    5.3309   -3.7707    0.2447 H   0  0  0  0  0  0  0  0  0  0  0  0
    3.6802   -4.3410   -0.0895 H   0  0  0  0  0  0  0  0  0  0  0  0
    4.0869   -3.6285    1.5074 H   0  0  0  0  0  0  0  0  0  0  0  0
  1 15  1  0  0  0  0
  1 20  1  0  0  0  0
  2 15  2  0  0  0  0
  3 16  2  0  0  0  0
  4 19  1  0  0  0  0
  4 21  1  0  0  0  0
  5  8  1  0  0  0  0
  5 11  1  0  0  0  0
  5 16  1  0  0  0  0
  6  9  1  0  0  0  0
  6 13  1  0  0  0  0
  6 14  1  0  0  0  0
  7 12  1  0  0  0  0
  7 14  2  0  0  0  0
  8 10  1  0  0  0  0
  8 15  1  0  0  0  0
  8 22  1  0  0  0  0
  9 11  1  0  0  0  0
  9 12  2  0  0  0  0
 10 12  1  0  0  0  0
 10 23  1  0  0  0  0
 10 24  1  0  0  0  0
 11 25  1  0  0  0  0
 11 26  1  0  0  0  0
 13 17  1  0  0  0  0
 13 18  1  0  0  0  0
 13 27  1  0  0  0  0
 14 28  1  0  0  0  0
 16 19  1  0  0  0  0
 17 29  1  0  0  0  0
 17 30  1  0  0  0  0
 17 31  1  0  0  0  0
 18 32  1  0  0  0  0
 18 33  1  0  0  0  0
 18 34  1  0  0  0  0
 19 35  1  0  0  0  0
 19 36  1  0  0  0  0
 20 37  1  0  0  0  0
 20 38  1  0  0  0  0
 20 39  1  0  0  0  0
 21 40  1  0  0  0  0
 21 41  1  0  0  0  0
 21 42  1  0  0  0  0
M  END
> <PUBCHEM_COMPOUND_CID>
25338997

> <PUBCHEM_CONFORMER_RMSD>
0.8

> <PUBCHEM_CONFORMER_DIVERSEORDER>
1
23
16
14
27
25
15
2
24
28
17
20
13
12
9
11
21
29
10
8
19
4
30
7
26
5
18
6
22
3
31

> <PUBCHEM_MMFF94_PARTIAL_CHARGES>
20
1 -0.43
10 0.18
11 0.48
12 0.05
13 0.26
14 0.04
15 0.66
16 0.57
19 0.34
2 -0.57
20 0.28
21 0.28
28 0.15
3 -0.57
4 -0.56
5 -0.66
6 0.05
7 -0.57
8 0.36
9 -0.33

> <PUBCHEM_EFFECTIVE_ROTOR_COUNT>
6.8

> <PUBCHEM_PHARMACOPHORE_FEATURES>
7
1 2 acceptor
1 3 acceptor
1 4 acceptor
3 13 17 18 hydrophobe
3 6 7 14 cation
5 6 7 9 12 14 rings
6 5 8 9 10 11 12 rings

> <PUBCHEM_HEAVY_ATOM_COUNT>
21

> <PUBCHEM_ATOM_DEF_STEREO_COUNT>
1

> <PUBCHEM_ATOM_UDEF_STEREO_COUNT>
0

> <PUBCHEM_BOND_DEF_STEREO_COUNT>
0

> <PUBCHEM_BOND_UDEF_STEREO_COUNT>
0

> <PUBCHEM_ISOTOPIC_ATOM_COUNT>
0

> <PUBCHEM_COMPONENT_COUNT>
1

> <PUBCHEM_CACTVS_TAUTO_COUNT>
1

> <PUBCHEM_CONFORMER_ID>
0182A47500000001

> <PUBCHEM_MMFF94_ENERGY>
43.498

> <PUBCHEM_FEATURE_SELFOVERLAP>
35.641

> <PUBCHEM_SHAPE_FINGERPRINT>
11036077 51 17402046700082942194
12293681 160 17618475715381957021
12506688 2 18409452462096228374
12532896 13 16974211298308616388
12633257 1 17844557520398660619
12788726 201 17764013680177920498
12969540 37 18192988442376616006
13134695 92 18343011194674622500
13140716 1 18338519616898122466
13533116 47 18195540409692878843
14863182 85 17396427577189813783
14866123 147 17403738848166982971
15475509 84 18195555669542727545
16945 1 18197209458883125717
18785283 64 17907578382660204912
20600515 1 18264777553697378324
20645477 70 17174052424709820295
21524375 3 17194882697550447848
21731228 192 17333922552842848568
221490 88 18114190717928265214
22182313 1 17897992763269265479
23526113 38 18335967714581070316
23557571 272 18121195629351889266
23559900 14 18115581711732211709
238078 22 18337121051293147958
2748010 2 18042955657371622701
3084891 72 17907571433296786901
31174 14 18268154338822064443
458136 41 17833284381606948289
6049 1 18261391221562187205
6442390 28 17331404683994213001
7364860 26 18196655322165496964
81228 2 17769378223322412216
9709674 26 17979069384686278238

> <PUBCHEM_SHAPE_MULTIPOLES>
393.75
6.71
4.59
1.42
0.27
1.77
-0.37
-8.35
-0.63
-3.78
-2.04
0.72
0.79
1.2

> <PUBCHEM_SHAPE_SELFOVERLAP>
815.211

> <PUBCHEM_SHAPE_VOLUME>
225.5

> <PUBCHEM_COORDINATE_TYPE>
2
5
10

$$$$
