71694325
  -OEChem-12032416273D

 42 44  0     1  0  0  0  0  0999 V2000
    3.8058   -1.9793    0.0291 S   0  0  0  0  0  0  0  0  0  0  0  0
   -6.0867    0.5594   -1.0498 F   0  0  0  0  0  0  0  0  0  0  0  0
   -7.5906    0.3930    0.5271 F   0  0  0  0  0  0  0  0  0  0  0  0
   -6.7193   -1.4262   -0.3139 F   0  0  0  0  0  0  0  0  0  0  0  0
    5.3400    2.2252    0.6011 O   0  0  0  0  0  0  0  0  0  0  0  0
    4.8260   -2.8755   -0.4579 O   0  0  0  0  0  0  0  0  0  0  0  0
    2.4492   -2.0173   -0.4600 O   0  0  0  0  0  0  0  0  0  0  0  0
   -5.4492   -0.0965    1.0465 O   0  0  0  0  0  0  0  0  0  0  0  0
    4.3894   -0.3634   -0.1178 N   0  0  1  0  0  0  0  0  0  0  0  0
    0.9255    0.5144    0.3347 N   0  0  0  0  0  0  0  0  0  0  0  0
    1.8243    0.6766   -1.6894 N   0  0  0  0  0  0  0  0  0  0  0  0
    3.4299    0.7413    0.2691 C   0  0  1  0  0  0  0  0  0  0  0  0
    5.7305   -0.1532    0.5170 C   0  0  0  0  0  0  0  0  0  0  0  0
    4.0803    2.0952   -0.0602 C   0  0  0  0  0  0  0  0  0  0  0  0
    2.0716    0.6469   -0.3987 C   0  0  0  0  0  0  0  0  0  0  0  0
    6.2524    1.2251    0.1505 C   0  0  0  0  0  0  0  0  0  0  0  0
    3.7634   -2.0932    1.7972 C   0  0  0  0  0  0  0  0  0  0  0  0
   -0.1191    0.4560   -0.5443 C   0  0  0  0  0  0  0  0  0  0  0  0
    0.4605    0.5581   -1.7870 C   0  0  0  0  0  0  0  0  0  0  0  0
   -1.4917    0.3148   -0.1354 C   0  0  0  0  0  0  0  0  0  0  0  0
   -2.4021   -0.3423   -0.9631 C   0  0  0  0  0  0  0  0  0  0  0  0
   -1.9116    0.8343    1.0892 C   0  0  0  0  0  0  0  0  0  0  0  0
   -3.7322   -0.4797   -0.5665 C   0  0  0  0  0  0  0  0  0  0  0  0
   -3.2417    0.6970    1.4859 C   0  0  0  0  0  0  0  0  0  0  0  0
   -4.1520    0.0400    0.6580 C   0  0  0  0  0  0  0  0  0  0  0  0
   -6.4527   -0.1506    0.0386 C   0  0  0  0  0  0  0  0  0  0  0  0
    3.3046    0.7024    1.3590 H   0  0  0  0  0  0  0  0  0  0  0  0
    6.4396   -0.9105    0.1700 H   0  0  0  0  0  0  0  0  0  0  0  0
    5.6405   -0.2070    1.6062 H   0  0  0  0  0  0  0  0  0  0  0  0
    3.4425    2.9172    0.2840 H   0  0  0  0  0  0  0  0  0  0  0  0
    4.2244    2.2281   -1.1403 H   0  0  0  0  0  0  0  0  0  0  0  0
    7.2138    1.4045    0.6421 H   0  0  0  0  0  0  0  0  0  0  0  0
    6.4056    1.3267   -0.9306 H   0  0  0  0  0  0  0  0  0  0  0  0
    0.8716    0.4571    1.3433 H   0  0  0  0  0  0  0  0  0  0  0  0
    3.3082   -3.0579    2.0406 H   0  0  0  0  0  0  0  0  0  0  0  0
    4.7727   -2.0836    2.2080 H   0  0  0  0  0  0  0  0  0  0  0  0
    3.1408   -1.3068    2.2218 H   0  0  0  0  0  0  0  0  0  0  0  0
   -0.0262    0.5558   -2.7521 H   0  0  0  0  0  0  0  0  0  0  0  0
   -2.0968   -0.7687   -1.9156 H   0  0  0  0  0  0  0  0  0  0  0  0
   -1.2294    1.3609    1.7518 H   0  0  0  0  0  0  0  0  0  0  0  0
   -4.3984   -1.0327   -1.2220 H   0  0  0  0  0  0  0  0  0  0  0  0
   -3.5638    1.1055    2.4399 H   0  0  0  0  0  0  0  0  0  0  0  0
  1  6  2  0  0  0  0
  1  7  2  0  0  0  0
  1  9  1  0  0  0  0
  1 17  1  0  0  0  0
  2 26  1  0  0  0  0
  3 26  1  0  0  0  0
  4 26  1  0  0  0  0
  5 14  1  0  0  0  0
  5 16  1  0  0  0  0
  8 25  1  0  0  0  0
  8 26  1  0  0  0  0
  9 12  1  0  0  0  0
  9 13  1  0  0  0  0
 10 15  1  0  0  0  0
 10 18  1  0  0  0  0
 10 34  1  0  0  0  0
 11 15  2  0  0  0  0
 11 19  1  0  0  0  0
 12 14  1  0  0  0  0
 12 15  1  0  0  0  0
 12 27  1  0  0  0  0
 13 16  1  0  0  0  0
 13 28  1  0  0  0  0
 13 29  1  0  0  0  0
 14 30  1  0  0  0  0
 14 31  1  0  0  0  0
 16 32  1  0  0  0  0
 16 33  1  0  0  0  0
 17 35  1  0  0  0  0
 17 36  1  0  0  0  0
 17 37  1  0  0  0  0
 18 19  2  0  0  0  0
 18 20  1  0  0  0  0
 19 38  1  0  0  0  0
 20 21  2  0  0  0  0
 20 22  1  0  0  0  0
 21 23  1  0  0  0  0
 21 39  1  0  0  0  0
 22 24  2  0  0  0  0
 22 40  1  0  0  0  0
 23 25  2  0  0  0  0
 23 41  1  0  0  0  0
 24 25  1  0  0  0  0
 24 42  1  0  0  0  0
M  END
> <PUBCHEM_COMPOUND_CID>
71694325

> <PUBCHEM_CONFORMER_RMSD>
0.8

> <PUBCHEM_CONFORMER_DIVERSEORDER>
3
134
165
73
117
6
63
157
57
113
28
79
118
58
20
83
18
13
55
120
47
22
91
102
50
129
12
151
40
70
125
92
144
93
116
132
131
112
60
137
16
153
7
163
110
143
148
64
31
42
87
94
158
98
164
90
100
27
69
19
29
43
152
146
166
45
68
86
26
32
96
122
107
160
21
161
77
154
89
106
124
76
48
97
44
71
33
95
5
41
121
149
159
78
128
81
34
150
37
114
136
39
82
133
62
141
103
59
126
142
14
23
74
135
105
138
119
24
101
80
61
54
85
66
123
30
167
127
147
145
17
49
111
11
156
99
8
67
115
84
25
46
36
1
65
155
15
162
53
139
4
72
9
130
52
88
38
35
10
109
140
51
108
2
75
56
104

> <PUBCHEM_MMFF94_PARTIAL_CHARGES>
32
1 1.33
10 0.03
11 -0.57
12 0.54
13 0.36
14 0.28
15 0.01
16 0.28
17 0.11
18 -0.2
19 0.08
2 -0.34
20 0.05
21 -0.15
22 -0.15
23 -0.15
24 -0.15
25 0.08
26 1.3
3 -0.34
34 0.27
38 0.15
39 0.15
4 -0.34
40 0.15
41 0.15
42 0.15
5 -0.56
6 -0.65
7 -0.65
8 -0.36
9 -0.85

> <PUBCHEM_EFFECTIVE_ROTOR_COUNT>
6.2

> <PUBCHEM_PHARMACOPHORE_FEATURES>
9
1 10 donor
1 5 acceptor
1 6 acceptor
1 7 acceptor
1 8 acceptor
3 10 11 15 cation
5 10 11 15 18 19 rings
6 20 21 22 23 24 25 rings
6 5 9 12 13 14 16 rings

> <PUBCHEM_HEAVY_ATOM_COUNT>
26

> <PUBCHEM_ATOM_DEF_STEREO_COUNT>
1

> <PUBCHEM_ATOM_UDEF_STEREO_COUNT>
0

> <PUBCHEM_BOND_DEF_STEREO_COUNT>
0

> <PUBCHEM_BOND_UDEF_STEREO_COUNT>
0

> <PUBCHEM_ISOTOPIC_ATOM_COUNT>
0

> <PUBCHEM_COMPONENT_COUNT>
1

> <PUBCHEM_CACTVS_TAUTO_COUNT>
2

> <PUBCHEM_CONFORMER_ID>
0445F7F500000003

> <PUBCHEM_MMFF94_ENERGY>
61.2168

> <PUBCHEM_FEATURE_SELFOVERLAP>
45.689

> <PUBCHEM_SHAPE_FINGERPRINT>
10165383 225 18335703901818610724
10670039 82 15195022530591653704
10951579 204 16879344503208980709
11059845 2 16051832162209899746
11719270 70 17131835335525498839
12107183 9 17624426281248925808
12236239 1 18272370871620373291
12516196 113 18186237333602334797
12596602 18 18272091591124284803
12788726 201 17132124524173730907
13073987 5 18341336621955576241
13533116 47 18413389817461527466
13685833 64 17676207961626284595
13914758 101 18335983057191013601
14211702 104 18261685878058111627
14341114 328 17846780706533369426
14386348 63 17240203222822791306
15183329 4 15140960647681438733
17492 89 18127132974888273954
1813 80 17240490178230688588
19377110 9 17632588136582415059
20397935 70 18408326570773993574
20511986 3 18340756130923045423
20645477 70 18334853888439252494
21065198 48 18130514045672806768
21344244 78 17988068999349800920
21623969 137 18259705605406316746
2215653 11 17022624161184786331
22224240 67 18260826055732766872
23081809 10 17917992776751945345
23557571 272 16153697688158845270
23559900 14 18340202007375428569
239999 70 17676489458568403128
314173 85 17167868543001375045
3633792 109 18336260155411075941
4073 2 18187650274673781291
42630746 31 18407760339913749658
4325135 7 16486978405891626669
4340502 62 18410291441318792462
5104073 3 18189045409069469232
5758199 1 18271523208839223560
59755656 215 17022900138255023411
8988823 20 18408040710762183240

> <PUBCHEM_SHAPE_MULTIPOLES>
478.68
17.83
1.99
1.31
19.93
1.01
-0.01
0.8
2.77
-4.36
0.16
0.24
0.03
-0.26

> <PUBCHEM_SHAPE_SELFOVERLAP>
1014.93

> <PUBCHEM_SHAPE_VOLUME>
271

> <PUBCHEM_COORDINATE_TYPE>
2
5
10

$$$$
