75536567
  -OEChem-12032416333D

 46 48  0     1  0  0  0  0  0999 V2000
    0.2236   -1.2045   -0.2616 O   0  0  0  0  0  0  0  0  0  0  0  0
   -0.6999    2.1721    0.5452 O   0  0  0  0  0  0  0  0  0  0  0  0
    3.8856    1.3942   -0.0428 O   0  0  0  0  0  0  0  0  0  0  0  0
    2.8380   -0.5361    0.7335 N   0  0  0  0  0  0  0  0  0  0  0  0
   -3.1089    0.1909    0.1608 N   0  0  0  0  0  0  0  0  0  0  0  0
   -6.0068   -1.0941    0.3000 N   0  0  0  0  0  0  0  0  0  0  0  0
   -6.3536    0.8872   -0.6414 N   0  0  0  0  0  0  0  0  0  0  0  0
    0.5632    0.1278    0.1574 C   0  0  1  0  0  0  0  0  0  0  0  0
   -0.7353    0.7613    0.6384 C   0  0  2  0  0  0  0  0  0  0  0  0
   -1.7363    0.1361   -0.3155 C   0  0  1  0  0  0  0  0  0  0  0  0
    5.0169   -0.6948   -0.2697 C   0  0  0  0  0  0  0  0  0  0  0  0
    6.0383   -0.7922    0.8692 C   0  0  0  0  0  0  0  0  0  0  0  0
    5.7612   -0.0905   -1.4614 C   0  0  0  0  0  0  0  0  0  0  0  0
   -1.2035   -1.2833   -0.4229 C   0  0  0  0  0  0  0  0  0  0  0  0
    7.3675   -0.3372    0.2763 C   0  0  0  0  0  0  0  0  0  0  0  0
    6.9705    0.6013   -0.8488 C   0  0  0  0  0  0  0  0  0  0  0  0
    1.6366    0.0707    1.2297 C   0  0  0  0  0  0  0  0  0  0  0  0
    3.8691    0.1790    0.1350 C   0  0  0  0  0  0  0  0  0  0  0  0
   -4.0496   -0.1057   -0.9130 C   0  0  0  0  0  0  0  0  0  0  0  0
   -5.4765   -0.0698   -0.4339 C   0  0  0  0  0  0  0  0  0  0  0  0
   -7.3047   -0.7696    0.5783 C   0  0  0  0  0  0  0  0  0  0  0  0
   -7.4954    0.4570   -0.0129 C   0  0  0  0  0  0  0  0  0  0  0  0
    0.9515    0.6579   -0.7223 H   0  0  0  0  0  0  0  0  0  0  0  0
   -0.9513    0.4809    1.6769 H   0  0  0  0  0  0  0  0  0  0  0  0
   -1.6501    0.6499   -1.2835 H   0  0  0  0  0  0  0  0  0  0  0  0
    4.6394   -1.6872   -0.5440 H   0  0  0  0  0  0  0  0  0  0  0  0
    6.1154   -1.8159    1.2510 H   0  0  0  0  0  0  0  0  0  0  0  0
    5.7675   -0.1511    1.7169 H   0  0  0  0  0  0  0  0  0  0  0  0
    5.1639    0.5923   -2.0739 H   0  0  0  0  0  0  0  0  0  0  0  0
    6.1064   -0.8988   -2.1187 H   0  0  0  0  0  0  0  0  0  0  0  0
   -1.4338   -1.7495   -1.3856 H   0  0  0  0  0  0  0  0  0  0  0  0
   -1.5829   -1.9324    0.3748 H   0  0  0  0  0  0  0  0  0  0  0  0
    7.9105   -1.2001   -0.1277 H   0  0  0  0  0  0  0  0  0  0  0  0
    8.0083    0.1476    1.0185 H   0  0  0  0  0  0  0  0  0  0  0  0
    6.6903    1.5820   -0.4473 H   0  0  0  0  0  0  0  0  0  0  0  0
    7.7769    0.7452   -1.5735 H   0  0  0  0  0  0  0  0  0  0  0  0
    1.3067   -0.5448    2.0737 H   0  0  0  0  0  0  0  0  0  0  0  0
    1.8664    1.0756    1.5998 H   0  0  0  0  0  0  0  0  0  0  0  0
    2.9291   -1.5430    0.8334 H   0  0  0  0  0  0  0  0  0  0  0  0
   -3.3009    1.1269    0.5189 H   0  0  0  0  0  0  0  0  0  0  0  0
   -0.5091    2.4130   -0.3772 H   0  0  0  0  0  0  0  0  0  0  0  0
   -3.8565   -1.0983   -1.3376 H   0  0  0  0  0  0  0  0  0  0  0  0
   -3.9451    0.6246   -1.7251 H   0  0  0  0  0  0  0  0  0  0  0  0
   -5.5279   -1.9378    0.5860 H   0  0  0  0  0  0  0  0  0  0  0  0
   -7.9499   -1.4193    1.1517 H   0  0  0  0  0  0  0  0  0  0  0  0
   -8.3967    1.0524   -0.0179 H   0  0  0  0  0  0  0  0  0  0  0  0
  1  8  1  0  0  0  0
  1 14  1  0  0  0  0
  2  9  1  0  0  0  0
  2 41  1  0  0  0  0
  3 18  2  0  0  0  0
  4 17  1  0  0  0  0
  4 18  1  0  0  0  0
  4 39  1  0  0  0  0
  5 10  1  0  0  0  0
  5 19  1  0  0  0  0
  5 40  1  0  0  0  0
  6 20  1  0  0  0  0
  6 21  1  0  0  0  0
  6 44  1  0  0  0  0
  7 20  2  0  0  0  0
  7 22  1  0  0  0  0
  8  9  1  0  0  0  0
  8 17  1  0  0  0  0
  8 23  1  0  0  0  0
  9 10  1  0  0  0  0
  9 24  1  0  0  0  0
 10 14  1  0  0  0  0
 10 25  1  0  0  0  0
 11 12  1  0  0  0  0
 11 13  1  0  0  0  0
 11 18  1  0  0  0  0
 11 26  1  0  0  0  0
 12 15  1  0  0  0  0
 12 27  1  0  0  0  0
 12 28  1  0  0  0  0
 13 16  1  0  0  0  0
 13 29  1  0  0  0  0
 13 30  1  0  0  0  0
 14 31  1  0  0  0  0
 14 32  1  0  0  0  0
 15 16  1  0  0  0  0
 15 33  1  0  0  0  0
 15 34  1  0  0  0  0
 16 35  1  0  0  0  0
 16 36  1  0  0  0  0
 17 37  1  0  0  0  0
 17 38  1  0  0  0  0
 19 20  1  0  0  0  0
 19 42  1  0  0  0  0
 19 43  1  0  0  0  0
 21 22  2  0  0  0  0
 21 45  1  0  0  0  0
 22 46  1  0  0  0  0
M  END
> <PUBCHEM_COMPOUND_CID>
75536567

> <PUBCHEM_CONFORMER_RMSD>
0.8

> <PUBCHEM_CONFORMER_DIVERSEORDER>
1
131
166
135
21
128
20
28
172
125
41
112
7
49
186
157
90
24
51
22
168
100
144
156
52
30
153
146
119
147
66
118
88
181
174
158
91
29
187
159
38
42
160
104
93
67
53
134
165
77
8
188
50
140
117
11
23
150
114
133
73
139
85
16
110
61
25
59
184
84
70
127
94
132
111
108
113
15
177
169
45
149
121
75
161
79
92
141
58
68
96
10
173
162
64
5
109
44
101
152
155
154
39
71
179
54
142
136
48
143
62
180
6
163
106
56
145
122
43
120
46
86
124
102
178
183
37
130
182
97
78
98
40
80
35
105
34
18
82
32
47
57
13
137
176
89
151
95
14
99
171
170
167
138
129
17
72
175
55
60
69
31
36
12
107
164
126
185
27
3
116
76
26
83
123
81
63
103
148
4
87
33
115
19
65
2
74
9

> <PUBCHEM_MMFF94_PARTIAL_CHARGES>
24
1 -0.56
10 0.27
11 0.06
14 0.28
17 0.3
18 0.57
19 0.45
2 -0.68
20 0.01
21 -0.3
22 0.08
3 -0.57
39 0.37
4 -0.73
40 0.36
41 0.4
44 0.27
45 0.15
46 0.15
5 -0.9
6 0.03
7 -0.57
8 0.28
9 0.28

> <PUBCHEM_EFFECTIVE_ROTOR_COUNT>
9

> <PUBCHEM_PHARMACOPHORE_FEATURES>
12
1 1 acceptor
1 2 acceptor
1 2 donor
1 3 acceptor
1 4 donor
1 5 cation
1 5 donor
1 6 donor
3 6 7 20 cation
5 1 8 9 10 14 rings
5 11 12 13 15 16 rings
5 6 7 20 21 22 rings

> <PUBCHEM_HEAVY_ATOM_COUNT>
22

> <PUBCHEM_ATOM_DEF_STEREO_COUNT>
3

> <PUBCHEM_ATOM_UDEF_STEREO_COUNT>
0

> <PUBCHEM_BOND_DEF_STEREO_COUNT>
0

> <PUBCHEM_BOND_UDEF_STEREO_COUNT>
0

> <PUBCHEM_ISOTOPIC_ATOM_COUNT>
0

> <PUBCHEM_COMPONENT_COUNT>
1

> <PUBCHEM_CACTVS_TAUTO_COUNT>
2

> <PUBCHEM_CONFORMER_ID>
048098B700000001

> <PUBCHEM_MMFF94_ENERGY>
30.1139

> <PUBCHEM_FEATURE_SELFOVERLAP>
60.899

> <PUBCHEM_SHAPE_FINGERPRINT>
10066227 49 18187923907710700546
10299344 5 18040152916285765067
10319688 140 16916235338714371878
11315181 36 13110959847596269903
11524674 6 17846778533786970207
11638347 137 11097848584493623108
12091667 2 15647051552401399895
12166972 35 17894633668614308804
12236239 1 17967250888405828734
13533116 47 16660631922159943384
13685833 64 16487256565052786386
14123256 10 18410293605391400974
14251752 14 18342454833496250037
14251764 18 13254795745847098034
14251764 46 17748826311126806723
14617045 38 17775567529073341062
14856354 85 18411985784843297871
14933364 13 18113336410109073461
15048467 5 16877942737246791863
15183329 4 16702303446959313791
15849732 13 18408041827279386639
18006028 8 16128655249567965433
18335252 98 17676491644369536843
20157964 124 16588024602863495250
21095086 128 17022900151098019515
21150785 3 18040156227420590180
21267235 1 18341897389421883432
21315763 28 16877659046051171390
22224240 67 14273455894355571856
23035841 295 18411135844700364875
23559900 14 17346022489522446402
23622692 88 9439399142663492130
246663 6 17989210347425857247
28498 318 15554451773166855933
3004659 81 18344145908613848912
335352 9 18201716276084254421
34797466 226 16877666751154208006
4325135 7 16008746914158888655
4463277 17 18342454850691943545
5283156 175 18409446956486108266
5758199 1 15068340095079224857
59682541 35 14057009325831783797
59755656 215 17775568611083138351
59755656 520 17313380153805099435
8209 1 18410573985151457638

> <PUBCHEM_SHAPE_MULTIPOLES>
415.22
23.33
1.19
1.01
8.54
0.25
0.07
-1.55
2.29
0.23
-0.09
-0.79
0
-0.14

> <PUBCHEM_SHAPE_SELFOVERLAP>
864.762

> <PUBCHEM_SHAPE_VOLUME>
236.2

> <PUBCHEM_COORDINATE_TYPE>
2
5
10

$$$$
