71693178
  -OEChem-12032416303D

 75 78  0     1  0  0  0  0  0999 V2000
    3.9389    5.5767   -0.5735 O   0  0  0  0  0  0  0  0  0  0  0  0
    4.6455   -2.3551   -1.1453 O   0  0  0  0  0  0  0  0  0  0  0  0
    5.0910   -3.5379    0.7785 O   0  0  0  0  0  0  0  0  0  0  0  0
   -1.2823    2.6026    0.7304 N   0  0  0  0  0  0  0  0  0  0  0  0
    2.7547    3.7692    0.2800 N   0  0  0  0  0  0  0  0  0  0  0  0
   -0.4779   -2.7619   -1.4048 N   0  0  0  0  0  0  0  0  0  0  0  0
   -1.2720   -2.7426    0.6710 N   0  0  0  0  0  0  0  0  0  0  0  0
   -3.4427    1.1529   -0.6098 C   0  0  1  0  0  0  0  0  0  0  0  0
   -3.1998    1.0799    0.9157 C   0  0  2  0  0  0  0  0  0  0  0  0
   -3.0114   -0.1559   -1.2863 C   0  0  0  0  0  0  0  0  0  0  0  0
   -3.7183   -1.4027   -0.7129 C   0  0  2  0  0  0  0  0  0  0  0  0
   -4.9068    1.4856   -0.9279 C   0  0  0  0  0  0  0  0  0  0  0  0
   -1.7295    1.3289    1.2673 C   0  0  0  0  0  0  0  0  0  0  0  0
   -3.8834   -1.3513    0.7984 C   0  0  0  0  0  0  0  0  0  0  0  0
   -3.6354   -0.2357    1.5091 C   0  0  0  0  0  0  0  0  0  0  0  0
   -2.9680   -2.6530   -1.1887 C   0  0  0  0  0  0  0  0  0  0  0  0
    0.1221    2.8445    1.0520 C   0  0  0  0  0  0  0  0  0  0  0  0
   -5.2304    1.1308   -2.3756 C   0  0  0  0  0  0  0  0  0  0  0  0
   -5.1885    2.9600   -0.6564 C   0  0  0  0  0  0  0  0  0  0  0  0
    0.4428    4.3388    0.9189 C   0  0  0  0  0  0  0  0  0  0  0  0
    1.0242    2.0180    0.1264 C   0  0  0  0  0  0  0  0  0  0  0  0
   -4.3975   -2.5877    1.4836 C   0  0  0  0  0  0  0  0  0  0  0  0
    1.9287    4.6008    1.1578 C   0  0  0  0  0  0  0  0  0  0  0  0
    2.4997    2.3267    0.3803 C   0  0  0  0  0  0  0  0  0  0  0  0
   -1.5858   -2.7188   -0.6050 C   0  0  0  0  0  0  0  0  0  0  0  0
    3.7190    4.3634   -0.5335 C   0  0  0  0  0  0  0  0  0  0  0  0
    0.6243   -2.8171   -0.5908 C   0  0  0  0  0  0  0  0  0  0  0  0
    0.1023   -2.8040    0.6997 C   0  0  0  0  0  0  0  0  0  0  0  0
    4.5262    3.4394   -1.4100 C   0  0  0  0  0  0  0  0  0  0  0  0
    1.9912   -2.8756   -0.8642 C   0  0  0  0  0  0  0  0  0  0  0  0
    0.9817   -2.8515    1.7945 C   0  0  0  0  0  0  0  0  0  0  0  0
    2.8520   -2.9225    0.2374 C   0  0  0  0  0  0  0  0  0  0  0  0
    2.3583   -2.9108    1.5440 C   0  0  0  0  0  0  0  0  0  0  0  0
    4.2887   -2.9850    0.0153 C   0  0  0  0  0  0  0  0  0  0  0  0
    6.0386   -2.3490   -1.4754 C   0  0  0  0  0  0  0  0  0  0  0  0
   -2.8341    1.9474   -1.0597 H   0  0  0  0  0  0  0  0  0  0  0  0
   -3.7870    1.8578    1.4176 H   0  0  0  0  0  0  0  0  0  0  0  0
   -1.9272   -0.2334   -1.1361 H   0  0  0  0  0  0  0  0  0  0  0  0
   -3.1100   -0.1267   -2.3770 H   0  0  0  0  0  0  0  0  0  0  0  0
   -4.7307   -1.4607   -1.1303 H   0  0  0  0  0  0  0  0  0  0  0  0
   -5.5818    0.8994   -0.2919 H   0  0  0  0  0  0  0  0  0  0  0  0
   -1.6192    1.3270    2.3603 H   0  0  0  0  0  0  0  0  0  0  0  0
   -1.1223    0.5004    0.8881 H   0  0  0  0  0  0  0  0  0  0  0  0
   -3.7687   -0.2494    2.5887 H   0  0  0  0  0  0  0  0  0  0  0  0
   -2.9154   -2.6545   -2.2852 H   0  0  0  0  0  0  0  0  0  0  0  0
   -3.5101   -3.5653   -0.9126 H   0  0  0  0  0  0  0  0  0  0  0  0
    0.3214    2.5643    2.0958 H   0  0  0  0  0  0  0  0  0  0  0  0
   -1.8595    3.3472    1.1213 H   0  0  0  0  0  0  0  0  0  0  0  0
   -5.2869    0.0566   -2.5634 H   0  0  0  0  0  0  0  0  0  0  0  0
   -6.2192    1.5238   -2.6427 H   0  0  0  0  0  0  0  0  0  0  0  0
   -4.5150    1.5807   -3.0731 H   0  0  0  0  0  0  0  0  0  0  0  0
   -5.0468    3.2259    0.3943 H   0  0  0  0  0  0  0  0  0  0  0  0
   -6.2264    3.2049   -0.9085 H   0  0  0  0  0  0  0  0  0  0  0  0
   -4.5422    3.6074   -1.2594 H   0  0  0  0  0  0  0  0  0  0  0  0
   -0.1490    4.9235    1.6335 H   0  0  0  0  0  0  0  0  0  0  0  0
    0.1750    4.6897   -0.0868 H   0  0  0  0  0  0  0  0  0  0  0  0
    0.7877    2.2424   -0.9225 H   0  0  0  0  0  0  0  0  0  0  0  0
    0.8727    0.9427    0.2676 H   0  0  0  0  0  0  0  0  0  0  0  0
   -3.6714   -3.4037    1.4578 H   0  0  0  0  0  0  0  0  0  0  0  0
   -5.3193   -2.9283    0.9999 H   0  0  0  0  0  0  0  0  0  0  0  0
   -4.6371   -2.4023    2.5366 H   0  0  0  0  0  0  0  0  0  0  0  0
    2.1444    5.6630    1.0051 H   0  0  0  0  0  0  0  0  0  0  0  0
    2.2008    4.3567    2.1915 H   0  0  0  0  0  0  0  0  0  0  0  0
    2.7852    2.0174    1.3929 H   0  0  0  0  0  0  0  0  0  0  0  0
    3.1138    1.7529   -0.3160 H   0  0  0  0  0  0  0  0  0  0  0  0
   -0.4688   -2.7531   -2.4162 H   0  0  0  0  0  0  0  0  0  0  0  0
    3.8695    2.9045   -2.1012 H   0  0  0  0  0  0  0  0  0  0  0  0
    5.0935    2.7350   -0.7959 H   0  0  0  0  0  0  0  0  0  0  0  0
    5.2367    4.0261   -2.0003 H   0  0  0  0  0  0  0  0  0  0  0  0
    2.3453   -2.8953   -1.8892 H   0  0  0  0  0  0  0  0  0  0  0  0
    0.6076   -2.8415    2.8132 H   0  0  0  0  0  0  0  0  0  0  0  0
    3.0381   -2.9440    2.3926 H   0  0  0  0  0  0  0  0  0  0  0  0
    6.1622   -1.8137   -2.4205 H   0  0  0  0  0  0  0  0  0  0  0  0
    6.4009   -3.3737   -1.6003 H   0  0  0  0  0  0  0  0  0  0  0  0
    6.6076   -1.8295   -0.6987 H   0  0  0  0  0  0  0  0  0  0  0  0
  1 26  2  0  0  0  0
  2 34  1  0  0  0  0
  2 35  1  0  0  0  0
  3 34  2  0  0  0  0
  4 13  1  0  0  0  0
  4 17  1  0  0  0  0
  4 48  1  0  0  0  0
  5 23  1  0  0  0  0
  5 24  1  0  0  0  0
  5 26  1  0  0  0  0
  6 25  1  0  0  0  0
  6 27  1  0  0  0  0
  6 66  1  0  0  0  0
  7 25  2  0  0  0  0
  7 28  1  0  0  0  0
  8  9  1  0  0  0  0
  8 10  1  0  0  0  0
  8 12  1  0  0  0  0
  8 36  1  0  0  0  0
  9 13  1  0  0  0  0
  9 15  1  0  0  0  0
  9 37  1  0  0  0  0
 10 11  1  0  0  0  0
 10 38  1  0  0  0  0
 10 39  1  0  0  0  0
 11 14  1  0  0  0  0
 11 16  1  0  0  0  0
 11 40  1  0  0  0  0
 12 18  1  0  0  0  0
 12 19  1  0  0  0  0
 12 41  1  0  0  0  0
 13 42  1  0  0  0  0
 13 43  1  0  0  0  0
 14 15  2  0  0  0  0
 14 22  1  0  0  0  0
 15 44  1  0  0  0  0
 16 25  1  0  0  0  0
 16 45  1  0  0  0  0
 16 46  1  0  0  0  0
 17 20  1  0  0  0  0
 17 21  1  0  0  0  0
 17 47  1  0  0  0  0
 18 49  1  0  0  0  0
 18 50  1  0  0  0  0
 18 51  1  0  0  0  0
 19 52  1  0  0  0  0
 19 53  1  0  0  0  0
 19 54  1  0  0  0  0
 20 23  1  0  0  0  0
 20 55  1  0  0  0  0
 20 56  1  0  0  0  0
 21 24  1  0  0  0  0
 21 57  1  0  0  0  0
 21 58  1  0  0  0  0
 22 59  1  0  0  0  0
 22 60  1  0  0  0  0
 22 61  1  0  0  0  0
 23 62  1  0  0  0  0
 23 63  1  0  0  0  0
 24 64  1  0  0  0  0
 24 65  1  0  0  0  0
 26 29  1  0  0  0  0
 27 28  2  0  0  0  0
 27 30  1  0  0  0  0
 28 31  1  0  0  0  0
 29 67  1  0  0  0  0
 29 68  1  0  0  0  0
 29 69  1  0  0  0  0
 30 32  2  0  0  0  0
 30 70  1  0  0  0  0
 31 33  2  0  0  0  0
 31 71  1  0  0  0  0
 32 33  1  0  0  0  0
 32 34  1  0  0  0  0
 33 72  1  0  0  0  0
 35 73  1  0  0  0  0
 35 74  1  0  0  0  0
 35 75  1  0  0  0  0
M  END
> <PUBCHEM_COMPOUND_CID>
71693178

> <PUBCHEM_CONFORMER_RMSD>
1.2

> <PUBCHEM_CONFORMER_DIVERSEORDER>
5
26
8
53
20
40
24
56
59
39
47
63
16
27
31
4
12
19
60
51
21
64
35
33
30
48
58
61
10
62
14
36
46
54
49
23
57
29
13
43
15
18
28
25
32
37
55
50
45
3
52
6
38
2
22
41
7
34
42
17
9
11
44
1

> <PUBCHEM_MMFF94_PARTIAL_CHARGES>
34
1 -0.57
11 0.14
13 0.27
14 -0.28
15 -0.29
16 0.18
17 0.27
2 -0.43
22 0.14
23 0.3
24 0.3
25 0.01
26 0.57
27 -0.15
28 0.23
29 0.06
3 -0.57
30 -0.15
31 -0.15
32 0.09
33 -0.15
34 0.63
35 0.28
4 -0.9
44 0.15
48 0.36
5 -0.66
6 0.03
66 0.27
7 -0.57
70 0.15
71 0.15
72 0.15
9 0.14

> <PUBCHEM_EFFECTIVE_ROTOR_COUNT>
11

> <PUBCHEM_PHARMACOPHORE_FEATURES>
11
1 1 acceptor
1 3 acceptor
1 4 cation
1 4 donor
1 6 donor
3 12 18 19 hydrophobe
3 6 7 25 cation
5 6 7 25 27 28 rings
6 27 28 30 31 32 33 rings
6 5 17 20 21 23 24 rings
6 8 9 10 11 14 15 rings

> <PUBCHEM_HEAVY_ATOM_COUNT>
35

> <PUBCHEM_ATOM_DEF_STEREO_COUNT>
3

> <PUBCHEM_ATOM_UDEF_STEREO_COUNT>
0

> <PUBCHEM_BOND_DEF_STEREO_COUNT>
0

> <PUBCHEM_BOND_UDEF_STEREO_COUNT>
0

> <PUBCHEM_ISOTOPIC_ATOM_COUNT>
0

> <PUBCHEM_COMPONENT_COUNT>
1

> <PUBCHEM_CACTVS_TAUTO_COUNT>
7

> <PUBCHEM_CONFORMER_ID>
0445F37A00000005

> <PUBCHEM_MMFF94_ENERGY>
67.9428

> <PUBCHEM_FEATURE_SELFOVERLAP>
55.928

> <PUBCHEM_SHAPE_FINGERPRINT>
10290309 65 18123753316177927536
10771551 21 18264508238765483276
10871710 139 17695063302148186169
12788726 201 17762327025251627803
14068700 675 17914034422532004513
14394314 77 17979636732126885352
14725015 67 17262702786564506819
15322534 239 17908152314975993748
15351339 4 18337394937325981042
15927050 60 17910117142144819687
15968369 26 18337658824153645504
16067690 210 17686627844276176714
16719943 64 17619068773709757288
17627616 140 18338520862712697948
19958102 18 17762615496625276372
20764821 26 17981046633057343744
21133410 230 17249502028856773275
21796203 349 17835003777648681536
24771750 20 18409731755599019749
3298306 158 18338229491862442009
3383291 50 16899893687979390194
463206 1 18266744588579237424
50677037 204 18197501727945958106
6036956 94 18191882127900509860
6608658 132 18050299072475171070

> <PUBCHEM_SHAPE_MULTIPOLES>
682.75
11.38
8.32
1.74
2.21
7.79
-0.16
-0.1
-4.68
11.39
0.61
-0.82
-0.34
0.48

> <PUBCHEM_SHAPE_SELFOVERLAP>
1438.288

> <PUBCHEM_SHAPE_VOLUME>
381.8

> <PUBCHEM_COORDINATE_TYPE>
2
5
10

$$$$
