51137081
  -OEChem-12032416243D

 38 40  0     1  0  0  0  0  0999 V2000
    1.8286    1.2085    1.4597 S   0  0  0  0  0  0  0  0  0  0  0  0
   -2.8511    0.5874   -0.3733 N   0  0  1  0  0  0  0  0  0  0  0  0
    1.2622   -0.1051   -0.6864 N   0  0  0  0  0  0  0  0  0  0  0  0
   -0.6676    1.1869    0.2368 C   0  0  2  0  0  0  0  0  0  0  0  0
   -1.6888    0.0455    0.3337 C   0  0  0  0  0  0  0  0  0  0  0  0
   -1.0906    1.9833   -1.0098 C   0  0  0  0  0  0  0  0  0  0  0  0
   -2.2997    1.2389   -1.5614 C   0  0  0  0  0  0  0  0  0  0  0  0
   -3.8266   -0.4398   -0.7071 C   0  0  0  0  0  0  0  0  0  0  0  0
   -4.4591   -1.0774    0.5420 C   0  0  0  0  0  0  0  0  0  0  0  0
    0.7625    0.6985    0.2232 C   0  0  0  0  0  0  0  0  0  0  0  0
   -5.1734   -0.0023    1.3653 C   0  0  0  0  0  0  0  0  0  0  0  0
   -5.4426   -2.1982    0.1954 C   0  0  0  0  0  0  0  0  0  0  0  0
    3.0917    0.2821    0.7390 C   0  0  0  0  0  0  0  0  0  0  0  0
    2.5975   -0.3532   -0.4042 C   0  0  0  0  0  0  0  0  0  0  0  0
    4.4240    0.1287    1.1554 C   0  0  0  0  0  0  0  0  0  0  0  0
    3.4698   -1.1704   -1.1555 C   0  0  0  0  0  0  0  0  0  0  0  0
    5.2660   -0.6856    0.3940 C   0  0  0  0  0  0  0  0  0  0  0  0
    4.7972   -1.3277   -0.7468 C   0  0  0  0  0  0  0  0  0  0  0  0
   -0.8181    1.8480    1.1029 H   0  0  0  0  0  0  0  0  0  0  0  0
   -1.9029   -0.1788    1.3840 H   0  0  0  0  0  0  0  0  0  0  0  0
   -1.3138   -0.8689   -0.1450 H   0  0  0  0  0  0  0  0  0  0  0  0
   -1.3772    3.0000   -0.7130 H   0  0  0  0  0  0  0  0  0  0  0  0
   -0.2989    2.0687   -1.7616 H   0  0  0  0  0  0  0  0  0  0  0  0
   -1.9744    0.5076   -2.3125 H   0  0  0  0  0  0  0  0  0  0  0  0
   -3.0150    1.9243   -2.0267 H   0  0  0  0  0  0  0  0  0  0  0  0
   -3.3707   -1.2268   -1.3231 H   0  0  0  0  0  0  0  0  0  0  0  0
   -4.6256    0.0058   -1.3146 H   0  0  0  0  0  0  0  0  0  0  0  0
   -3.6808   -1.5315    1.1667 H   0  0  0  0  0  0  0  0  0  0  0  0
   -4.4769    0.7564    1.7360 H   0  0  0  0  0  0  0  0  0  0  0  0
   -5.6585   -0.4474    2.2412 H   0  0  0  0  0  0  0  0  0  0  0  0
   -5.9471    0.5026    0.7765 H   0  0  0  0  0  0  0  0  0  0  0  0
   -4.9403   -2.9895   -0.3707 H   0  0  0  0  0  0  0  0  0  0  0  0
   -5.8602   -2.6473    1.1026 H   0  0  0  0  0  0  0  0  0  0  0  0
   -6.2730   -1.8224   -0.4120 H   0  0  0  0  0  0  0  0  0  0  0  0
    4.7969    0.6269    2.0451 H   0  0  0  0  0  0  0  0  0  0  0  0
    3.1140   -1.6767   -2.0484 H   0  0  0  0  0  0  0  0  0  0  0  0
    6.3009   -0.8178    0.6988 H   0  0  0  0  0  0  0  0  0  0  0  0
    5.4668   -1.9572   -1.3265 H   0  0  0  0  0  0  0  0  0  0  0  0
  1 10  1  0  0  0  0
  1 13  1  0  0  0  0
  2  5  1  0  0  0  0
  2  7  1  0  0  0  0
  2  8  1  0  0  0  0
  3 10  2  0  0  0  0
  3 14  1  0  0  0  0
  4  5  1  0  0  0  0
  4  6  1  0  0  0  0
  4 10  1  0  0  0  0
  4 19  1  0  0  0  0
  5 20  1  0  0  0  0
  5 21  1  0  0  0  0
  6  7  1  0  0  0  0
  6 22  1  0  0  0  0
  6 23  1  0  0  0  0
  7 24  1  0  0  0  0
  7 25  1  0  0  0  0
  8  9  1  0  0  0  0
  8 26  1  0  0  0  0
  8 27  1  0  0  0  0
  9 11  1  0  0  0  0
  9 12  1  0  0  0  0
  9 28  1  0  0  0  0
 11 29  1  0  0  0  0
 11 30  1  0  0  0  0
 11 31  1  0  0  0  0
 12 32  1  0  0  0  0
 12 33  1  0  0  0  0
 12 34  1  0  0  0  0
 13 14  1  0  0  0  0
 13 15  2  0  0  0  0
 14 16  2  0  0  0  0
 15 17  1  0  0  0  0
 15 35  1  0  0  0  0
 16 18  1  0  0  0  0
 16 36  1  0  0  0  0
 17 18  2  0  0  0  0
 17 37  1  0  0  0  0
 18 38  1  0  0  0  0
M  END
> <PUBCHEM_COMPOUND_CID>
51137081

> <PUBCHEM_CONFORMER_RMSD>
0.6

> <PUBCHEM_CONFORMER_DIVERSEORDER>
1
32
30
19
10
20
22
41
43
9
24
11
31
33
12
35
23
28
37
14
13
16
36
7
26
6
38
29
5
4
40
17
27
2
34
15
25
39
3
42
21
18
8

> <PUBCHEM_MMFF94_PARTIAL_CHARGES>
18
1 -0.08
10 0.2
13 0.04
14 0.23
15 -0.15
16 -0.15
17 -0.15
18 -0.15
2 -0.81
3 -0.57
35 0.15
36 0.15
37 0.15
38 0.15
4 0.18
5 0.27
7 0.27
8 0.27

> <PUBCHEM_EFFECTIVE_ROTOR_COUNT>
4

> <PUBCHEM_PHARMACOPHORE_FEATURES>
6
1 2 cation
1 3 acceptor
3 9 11 12 hydrophobe
5 1 3 10 13 14 rings
5 2 4 5 6 7 rings
6 13 14 15 16 17 18 rings

> <PUBCHEM_HEAVY_ATOM_COUNT>
18

> <PUBCHEM_ATOM_DEF_STEREO_COUNT>
1

> <PUBCHEM_ATOM_UDEF_STEREO_COUNT>
0

> <PUBCHEM_BOND_DEF_STEREO_COUNT>
0

> <PUBCHEM_BOND_UDEF_STEREO_COUNT>
0

> <PUBCHEM_ISOTOPIC_ATOM_COUNT>
0

> <PUBCHEM_COMPONENT_COUNT>
1

> <PUBCHEM_CACTVS_TAUTO_COUNT>
1

> <PUBCHEM_CONFORMER_ID>
030C4A3900000001

> <PUBCHEM_MMFF94_ENERGY>
30.4185

> <PUBCHEM_FEATURE_SELFOVERLAP>
30.518

> <PUBCHEM_SHAPE_FINGERPRINT>
11046707 91 18113616794332856781
11089746 13 8646769967733003054
11128504 68 16660370293805035766
11543360 7 13479129116716927217
11552529 35 16700594917580259103
11796584 16 17973715884208594186
12236239 1 16153425021896411432
12553582 1 17531245097831135929
12596602 18 16271929333024654275
12616971 3 16415470546250285348
12633257 1 17060057081512146247
12670546 177 14562528483539866011
12892183 10 17203620280718005067
13103583 49 17703805721032804707
13402501 40 18413393141624439295
13544653 18 18273210915541698525
13675066 3 17203610367527479497
13740256 8 18335986453823972163
14123255 352 10159696893505142783
14251732 14 18187097147806210710
14251757 5 15864934160362914627
14251758 9 14261364526425412236
14252887 29 17203329979657412750
14341114 176 17203615890770902770
14386348 63 18412543206271709319
14528608 73 12540695941961848379
14576447 43 16805318899004957856
15238133 3 12895074037379175402
15375462 189 16343693323208373888
15475509 84 15625671488258720122
15527383 91 17632578249193348001
15537594 2 17822010900478447875
15880784 105 18271810176551436027
16752209 62 17168134642248087833
17349148 13 16588023476927936008
17834072 33 14707213227107486186
17844677 252 18334014990721041493
1813 80 18260552251103624725
18222031 100 18187363276927867973
18785283 64 18057031622442591552
19050596 39 15769766962239111044
19141452 34 18272933860397766743
193927 3 18261118508281811139
200 152 15791730793398709917
20300324 65 17022903415146492524
20374829 77 18187362143056631671
20871999 31 16732979821695933109
21054139 6 16732979834554617690
21065201 7 18189324672454253892
21150785 3 17749402447252631262
23016692 55 17821728360412884307
23402539 116 16805603638062010781
23402655 69 12901536945178273571
23503953 91 14908172041332138718
23557571 272 18263072245449238925
23559900 14 17749384905625044740
23590187 135 18333726927216506330
26918003 58 17989487420440696507
2767999 5 11599727246918572075
2838139 119 8574442984672413603
29717793 49 16225759692943894218
312425 54 18131079229516053187
314173 85 18335139795795962237
351380 3 17530967999210088355
5104073 3 17702942501531592074
5352402 22 17988929971902752223
57096353 35 16081089259748127941
621550 5 18413106151914988856
7495541 125 18408882949743963152
7970288 3 18040714805340722843
8217 86 14780413278916068033

> <PUBCHEM_SHAPE_MULTIPOLES>
364.32
12.55
1.71
1.37
3.74
0.17
-0.03
7.58
2.62
1.03
-0.25
0.14
-0.33
1.45

> <PUBCHEM_SHAPE_SELFOVERLAP>
757.864

> <PUBCHEM_SHAPE_VOLUME>
210.6

> <PUBCHEM_COORDINATE_TYPE>
2
5
10

$$$$
