45784016
  -OEChem-12032416203D

 39 42  0     1  0  0  0  0  0999 V2000
   -6.7915   -1.5550   -0.0223 F   0  0  0  0  0  0  0  0  0  0  0  0
    5.6195   -2.8944   -1.1169 F   0  0  0  0  0  0  0  0  0  0  0  0
    2.7826    1.5894    2.2066 O   0  0  0  0  0  0  0  0  0  0  0  0
    1.4361    1.6777    0.3163 N   0  0  0  0  0  0  0  0  0  0  0  0
   -2.8222    1.0060   -1.2316 N   0  0  0  0  0  0  0  0  0  0  0  0
   -1.5258   -0.0260    0.2497 N   0  0  0  0  0  0  0  0  0  0  0  0
   -0.4226    1.7620   -1.1675 C   0  0  1  0  0  0  0  0  0  0  0  0
   -0.3358    3.0747   -0.3735 C   0  0  0  0  0  0  0  0  0  0  0  0
    0.9908    1.1894   -0.9899 C   0  0  0  0  0  0  0  0  0  0  0  0
    0.5591    2.7286    0.8088 C   0  0  0  0  0  0  0  0  0  0  0  0
   -1.5724    0.8926   -0.6889 C   0  0  0  0  0  0  0  0  0  0  0  0
    2.4888    1.1967    1.0792 C   0  0  0  0  0  0  0  0  0  0  0  0
   -3.6361    0.1000   -0.6013 C   0  0  0  0  0  0  0  0  0  0  0  0
   -2.8037   -0.5315    0.3187 C   0  0  0  0  0  0  0  0  0  0  0  0
    3.3107    0.1217    0.5021 C   0  0  0  0  0  0  0  0  0  0  0  0
   -4.9876   -0.2117   -0.7522 C   0  0  0  0  0  0  0  0  0  0  0  0
   -3.3343   -1.5360    1.1455 C   0  0  0  0  0  0  0  0  0  0  0  0
    3.9939    0.3329   -0.6957 C   0  0  0  0  0  0  0  0  0  0  0  0
    3.4075   -1.1084    1.1525 C   0  0  0  0  0  0  0  0  0  0  0  0
   -5.4990   -1.2140    0.0787 C   0  0  0  0  0  0  0  0  0  0  0  0
   -4.6888   -1.8656    1.0115 C   0  0  0  0  0  0  0  0  0  0  0  0
    4.7735   -0.6859   -1.2429 C   0  0  0  0  0  0  0  0  0  0  0  0
    4.1873   -2.1273    0.6053 C   0  0  0  0  0  0  0  0  0  0  0  0
    4.8702   -1.9160   -0.5924 C   0  0  0  0  0  0  0  0  0  0  0  0
   -0.5949    1.9718   -2.2311 H   0  0  0  0  0  0  0  0  0  0  0  0
    0.1597    3.8360   -0.9895 H   0  0  0  0  0  0  0  0  0  0  0  0
   -1.3035    3.4759   -0.0570 H   0  0  0  0  0  0  0  0  0  0  0  0
    1.0283    0.0972   -1.0388 H   0  0  0  0  0  0  0  0  0  0  0  0
    1.6631    1.6118   -1.7443 H   0  0  0  0  0  0  0  0  0  0  0  0
   -0.0168    2.3215    1.6473 H   0  0  0  0  0  0  0  0  0  0  0  0
    1.1444    3.5807    1.1673 H   0  0  0  0  0  0  0  0  0  0  0  0
   -3.0999    1.6440   -1.9656 H   0  0  0  0  0  0  0  0  0  0  0  0
   -5.6147    0.2953   -1.4766 H   0  0  0  0  0  0  0  0  0  0  0  0
   -2.7130   -2.0481    1.8733 H   0  0  0  0  0  0  0  0  0  0  0  0
    3.9493    1.2918   -1.2051 H   0  0  0  0  0  0  0  0  0  0  0  0
    2.8781   -1.2860    2.0851 H   0  0  0  0  0  0  0  0  0  0  0  0
   -5.1153   -2.6403    1.6433 H   0  0  0  0  0  0  0  0  0  0  0  0
    5.3096   -0.5202   -2.1728 H   0  0  0  0  0  0  0  0  0  0  0  0
    4.2625   -3.0853    1.1112 H   0  0  0  0  0  0  0  0  0  0  0  0
  1 20  1  0  0  0  0
  2 24  1  0  0  0  0
  3 12  2  0  0  0  0
  4  9  1  0  0  0  0
  4 10  1  0  0  0  0
  4 12  1  0  0  0  0
  5 11  1  0  0  0  0
  5 13  1  0  0  0  0
  5 32  1  0  0  0  0
  6 11  2  0  0  0  0
  6 14  1  0  0  0  0
  7  8  1  0  0  0  0
  7  9  1  0  0  0  0
  7 11  1  0  0  0  0
  7 25  1  0  0  0  0
  8 10  1  0  0  0  0
  8 26  1  0  0  0  0
  8 27  1  0  0  0  0
  9 28  1  0  0  0  0
  9 29  1  0  0  0  0
 10 30  1  0  0  0  0
 10 31  1  0  0  0  0
 12 15  1  0  0  0  0
 13 14  2  0  0  0  0
 13 16  1  0  0  0  0
 14 17  1  0  0  0  0
 15 18  2  0  0  0  0
 15 19  1  0  0  0  0
 16 20  2  0  0  0  0
 16 33  1  0  0  0  0
 17 21  2  0  0  0  0
 17 34  1  0  0  0  0
 18 22  1  0  0  0  0
 18 35  1  0  0  0  0
 19 23  2  0  0  0  0
 19 36  1  0  0  0  0
 20 21  1  0  0  0  0
 21 37  1  0  0  0  0
 22 24  2  0  0  0  0
 22 38  1  0  0  0  0
 23 24  1  0  0  0  0
 23 39  1  0  0  0  0
M  END
> <PUBCHEM_COMPOUND_CID>
45784016

> <PUBCHEM_CONFORMER_RMSD>
0.8

> <PUBCHEM_CONFORMER_DIVERSEORDER>
1
33
14
24
16
32
28
18
27
31
12
21
19
11
17
29
22
13
15
8
20
2
5
30
26
7
6
25
9
10
23
4
3

> <PUBCHEM_MMFF94_PARTIAL_CHARGES>
31
1 -0.19
10 0.3
11 0.01
12 0.54
13 -0.15
14 0.23
15 0.09
16 -0.15
17 -0.15
18 -0.15
19 -0.15
2 -0.19
20 0.19
21 -0.15
22 -0.15
23 -0.15
24 0.19
3 -0.57
32 0.27
33 0.15
34 0.15
35 0.15
36 0.15
37 0.15
38 0.15
39 0.15
4 -0.66
5 0.03
6 -0.57
7 0.18
9 0.3

> <PUBCHEM_EFFECTIVE_ROTOR_COUNT>
4

> <PUBCHEM_PHARMACOPHORE_FEATURES>
7
1 3 acceptor
1 5 donor
3 5 6 11 cation
5 4 7 8 9 10 rings
5 5 6 11 13 14 rings
6 13 14 16 17 20 21 rings
6 15 18 19 22 23 24 rings

> <PUBCHEM_HEAVY_ATOM_COUNT>
24

> <PUBCHEM_ATOM_DEF_STEREO_COUNT>
1

> <PUBCHEM_ATOM_UDEF_STEREO_COUNT>
0

> <PUBCHEM_BOND_DEF_STEREO_COUNT>
0

> <PUBCHEM_BOND_UDEF_STEREO_COUNT>
0

> <PUBCHEM_ISOTOPIC_ATOM_COUNT>
0

> <PUBCHEM_COMPONENT_COUNT>
1

> <PUBCHEM_CACTVS_TAUTO_COUNT>
2

> <PUBCHEM_CONFORMER_ID>
02BA9BD000000001

> <PUBCHEM_MMFF94_ENERGY>
53.8899

> <PUBCHEM_FEATURE_SELFOVERLAP>
35.629

> <PUBCHEM_SHAPE_FINGERPRINT>
10319926 262 13182742562893817644
10928967 22 18411976944999405318
11211813 74 9655039731992977603
117089 54 18054800481427433550
11796584 16 18113891633094497893
11991303 11 17753892714885361973
12403259 118 11743537908532327740
12422481 6 14404918959307647627
12549972 3 17700386132269944712
12596602 18 16486404533197756714
12633257 1 16702018690653703132
12760667 363 18340208483816721950
12925494 130 11382464836145479523
13103583 49 17916884446917955809
13135754 10 17416140373403688520
13402501 40 18408044008954707938
13533116 47 18270962474666641609
13631057 29 18335707075424629494
13673619 4 18201444645177834788
13911852 28 18342738490147750215
13911882 115 18337106865116188208
13914758 101 17632294546104484969
13955234 65 18127129899344193184
13965767 371 12103560845455293256
14251740 57 18340204206087577251
14251764 30 18272376334729694478
14739800 52 11527681730249520551
14866123 147 18122342376977635249
14951699 99 11743535701742798074
14957384 54 8141212322738553286
15061688 2 8934993768168861604
15142526 21 16122716997936575600
15342816 4 17168409541503644328
15537594 2 18272934964030035622
15664445 248 17313668273465404348
17349148 13 17346600820043878877
17909252 39 18337950074634457530
193927 3 18260552238076050897
20388580 30 18114188561648779308
20403669 9 18409166597415073343
20567600 254 11167945727628750219
21033650 10 16878503415068153004
21279426 13 18260817182304063693
21682296 61 18413393133730525159
2215653 11 18261384573132245703
22950370 63 18409174289743594532
23016692 55 18187368731272648455
23559900 14 17968659444906542061
239999 70 18041274491239999704
2838139 119 9079113319941818834
2916195 48 9583514309127452359
3004659 81 17749106677970429902
329604 57 18335988580386866638
3421961 26 18339921618688002200
345986 75 17561083583670675298
3472631 163 9367340422990684934
3737641 26 17272866307744827030
38570 142 14763204861226727096
437815 12 18412545396915890561
44317340 157 11097843069997967969
46194498 28 17386288821371419053
463206 1 18335421321896094851
465052 167 18273217499647409934
5309563 4 18341049631608004087
56633871 153 17917989456093945135
6823239 73 18260824938350076442
7970288 3 18412827954167123798
8217 86 18339088099365344798
960060 61 16370720439514981203

> <PUBCHEM_SHAPE_MULTIPOLES>
458.55
13.48
2.98
1.4
7
0.61
-0.29
-12.87
1.79
-1.63
-0.18
-1.02
0.18
1.9

> <PUBCHEM_SHAPE_SELFOVERLAP>
1017.869

> <PUBCHEM_SHAPE_VOLUME>
248.2

> <PUBCHEM_COORDINATE_TYPE>
2
5
10

$$$$
