11886217
  -OEChem-12032416123D

 53 58  0     1  0  0  0  0  0999 V2000
   -1.1085   -2.5630    0.9909 O   0  0  0  0  0  0  0  0  0  0  0  0
   -0.8190   -1.4798   -1.9476 O   0  0  0  0  0  0  0  0  0  0  0  0
    3.5102   -0.3088   -0.3307 O   0  0  0  0  0  0  0  0  0  0  0  0
   -5.2276   -1.3438    0.6835 O   0  0  0  0  0  0  0  0  0  0  0  0
    8.2308   -0.2924    0.6536 O   0  0  0  0  0  0  0  0  0  0  0  0
    8.5751    1.7284   -0.6136 O   0  0  0  0  0  0  0  0  0  0  0  0
    1.4128   -0.4782    0.7643 N   0  0  0  0  0  0  0  0  0  0  0  0
   -3.6742   -0.8307   -0.9502 N   0  0  0  0  0  0  0  0  0  0  0  0
    0.8153    0.0539    1.8346 N   0  0  0  0  0  0  0  0  0  0  0  0
    2.8781    0.8685    1.6066 N   0  0  0  0  0  0  0  0  0  0  0  0
    1.7187    0.8796    2.3487 N   0  0  0  0  0  0  0  0  0  0  0  0
   -5.5467    0.4850   -0.7533 N   0  0  0  0  0  0  0  0  0  0  0  0
   -0.5805   -0.9125   -0.6465 C   0  0  1  0  0  0  0  0  0  0  0  0
   -1.6583   -1.4437    0.2783 C   0  0  1  0  0  0  0  0  0  0  0  0
    0.7170   -1.4547   -0.0777 C   0  0  2  0  0  0  0  0  0  0  0  0
   -2.7567   -1.9041   -0.6535 C   0  0  2  0  0  0  0  0  0  0  0  0
    0.2725   -2.7249    0.6393 C   0  0  0  0  0  0  0  0  0  0  0  0
   -1.9799   -2.3203   -1.8887 C   0  0  0  0  0  0  0  0  0  0  0  0
    2.6648    0.0182    0.6289 C   0  0  0  0  0  0  0  0  0  0  0  0
   -4.8664   -0.6253   -0.2453 C   0  0  0  0  0  0  0  0  0  0  0  0
    4.7842    0.2346   -0.4218 C   0  0  0  0  0  0  0  0  0  0  0  0
   -6.7818    1.0199   -0.3184 C   0  0  0  0  0  0  0  0  0  0  0  0
    5.8308   -0.4038    0.2212 C   0  0  0  0  0  0  0  0  0  0  0  0
    4.9614    1.4036   -1.1594 C   0  0  0  0  0  0  0  0  0  0  0  0
   -7.2992    2.1362   -0.9553 C   0  0  0  0  0  0  0  0  0  0  0  0
   -7.4492    0.4165    0.7351 C   0  0  0  0  0  0  0  0  0  0  0  0
    7.0780    0.1739    0.1007 C   0  0  0  0  0  0  0  0  0  0  0  0
    7.2746    1.3279   -0.6229 C   0  0  0  0  0  0  0  0  0  0  0  0
    6.2348    1.9679   -1.2658 C   0  0  0  0  0  0  0  0  0  0  0  0
   -8.5174    2.6637   -0.5269 C   0  0  0  0  0  0  0  0  0  0  0  0
   -8.6674    0.9440    1.1634 C   0  0  0  0  0  0  0  0  0  0  0  0
    9.1754    0.6968    0.1960 C   0  0  0  0  0  0  0  0  0  0  0  0
   -9.2015    2.0676    0.5323 C   0  0  0  0  0  0  0  0  0  0  0  0
   -0.6093    0.1761   -0.7589 H   0  0  0  0  0  0  0  0  0  0  0  0
   -1.9823   -0.7097    1.0230 H   0  0  0  0  0  0  0  0  0  0  0  0
    1.4256   -1.7214   -0.8708 H   0  0  0  0  0  0  0  0  0  0  0  0
   -3.3247   -2.7509   -0.2535 H   0  0  0  0  0  0  0  0  0  0  0  0
    0.8520   -2.9466    1.5406 H   0  0  0  0  0  0  0  0  0  0  0  0
    0.3351   -3.5894   -0.0307 H   0  0  0  0  0  0  0  0  0  0  0  0
   -1.6293   -3.3547   -1.8018 H   0  0  0  0  0  0  0  0  0  0  0  0
   -2.5456   -2.2248   -2.8206 H   0  0  0  0  0  0  0  0  0  0  0  0
   -3.4121   -0.1536   -1.6604 H   0  0  0  0  0  0  0  0  0  0  0  0
   -5.1074    0.9720   -1.5305 H   0  0  0  0  0  0  0  0  0  0  0  0
    5.6823   -1.3132    0.7917 H   0  0  0  0  0  0  0  0  0  0  0  0
    4.1191    1.8798   -1.6534 H   0  0  0  0  0  0  0  0  0  0  0  0
   -6.7746    2.6082   -1.7815 H   0  0  0  0  0  0  0  0  0  0  0  0
   -7.1026   -0.4529    1.2736 H   0  0  0  0  0  0  0  0  0  0  0  0
    6.3939    2.8768   -1.8348 H   0  0  0  0  0  0  0  0  0  0  0  0
   -8.9333    3.5386   -1.0180 H   0  0  0  0  0  0  0  0  0  0  0  0
   -9.2014    0.4809    1.9882 H   0  0  0  0  0  0  0  0  0  0  0  0
    9.9513    0.1949   -0.3935 H   0  0  0  0  0  0  0  0  0  0  0  0
    9.6443    1.1645    1.0694 H   0  0  0  0  0  0  0  0  0  0  0  0
  -10.1500    2.4782    0.8659 H   0  0  0  0  0  0  0  0  0  0  0  0
  1 14  1  0  0  0  0
  1 17  1  0  0  0  0
  2 13  1  0  0  0  0
  2 18  1  0  0  0  0
  3 19  1  0  0  0  0
  3 21  1  0  0  0  0
  4 20  2  0  0  0  0
  5 27  1  0  0  0  0
  5 32  1  0  0  0  0
  6 28  1  0  0  0  0
  6 32  1  0  0  0  0
  7  9  1  0  0  0  0
  7 15  1  0  0  0  0
  7 19  1  0  0  0  0
  8 16  1  0  0  0  0
  8 20  1  0  0  0  0
  8 42  1  0  0  0  0
  9 11  2  0  0  0  0
 10 11  1  0  0  0  0
 10 19  2  0  0  0  0
 12 20  1  0  0  0  0
 12 22  1  0  0  0  0
 12 43  1  0  0  0  0
 13 14  1  0  0  0  0
 13 15  1  0  0  0  0
 13 34  1  0  0  0  0
 14 16  1  0  0  0  0
 14 35  1  0  0  0  0
 15 17  1  0  0  0  0
 15 36  1  0  0  0  0
 16 18  1  0  0  0  0
 16 37  1  0  0  0  0
 17 38  1  0  0  0  0
 17 39  1  0  0  0  0
 18 40  1  0  0  0  0
 18 41  1  0  0  0  0
 21 23  2  0  0  0  0
 21 24  1  0  0  0  0
 22 25  2  0  0  0  0
 22 26  1  0  0  0  0
 23 27  1  0  0  0  0
 23 44  1  0  0  0  0
 24 29  2  0  0  0  0
 24 45  1  0  0  0  0
 25 30  1  0  0  0  0
 25 46  1  0  0  0  0
 26 31  2  0  0  0  0
 26 47  1  0  0  0  0
 27 28  2  0  0  0  0
 28 29  1  0  0  0  0
 29 48  1  0  0  0  0
 30 33  2  0  0  0  0
 30 49  1  0  0  0  0
 31 33  1  0  0  0  0
 31 50  1  0  0  0  0
 32 51  1  0  0  0  0
 32 52  1  0  0  0  0
 33 53  1  0  0  0  0
M  END
> <PUBCHEM_COMPOUND_CID>
11886217

> <PUBCHEM_CONFORMER_RMSD>
1.2

> <PUBCHEM_CONFORMER_DIVERSEORDER>
1
159
493
317
8
426
207
45
380
582
38
500
455
544
518
318
406
542
197
95
410
557
167
394
259
277
185
417
336
574
451
178
208
334
82
315
295
384
562
215
18
55
556
526
377
63
449
44
7
114
563
536
499
537
56
195
363
27
29
357
399
414
540
31
397
141
511
15
479
210
283
268
160
516
316
575
232
9
541
260
289
331
83
237
403
23
60
116
170
267
77
220
547
153
25
20
105
180
354
287
392
194
231
239
108
560
246
228
311
297
71
245
36
450
5
247
145
440
352
6
149
249
348
109
186
430
42
62
456
321
324
80
26
532
236
198
326
293
126
530
57
90
218
413
70
404
286
419
580
48
533
213
355
241
226
284
386
188
359
221
51
161
12
306
529
137
379
534
472
68
282
387
10
2
3
240
376
251
52
296
342
223
402
243
398
43

> <PUBCHEM_MMFF94_PARTIAL_CHARGES>
42
1 -0.56
10 -0.34
12 -0.55
13 0.28
14 0.28
15 0.26
16 0.3
17 0.28
18 0.28
19 0.25
2 -0.56
20 0.69
21 0.08
22 0.12
23 -0.15
24 -0.15
25 -0.15
26 -0.15
27 0.08
28 0.08
29 -0.15
3 -0.15
30 -0.15
31 -0.15
32 0.56
33 -0.15
4 -0.57
42 0.37
43 0.37
44 0.15
45 0.15
46 0.15
47 0.15
48 0.15
49 0.15
5 -0.36
50 0.15
53 0.15
6 -0.36
7 0.31
8 -0.73
9 -0.42

> <PUBCHEM_EFFECTIVE_ROTOR_COUNT>
8.8

> <PUBCHEM_PHARMACOPHORE_FEATURES>
14
1 1 acceptor
1 12 donor
1 2 acceptor
1 4 acceptor
1 5 acceptor
1 6 acceptor
1 8 donor
3 7 10 19 cation
5 1 13 14 15 17 rings
5 2 13 14 16 18 rings
5 5 6 27 28 32 rings
5 7 9 10 11 19 rings
6 21 23 24 27 28 29 rings
6 22 25 26 30 31 33 rings

> <PUBCHEM_HEAVY_ATOM_COUNT>
33

> <PUBCHEM_ATOM_DEF_STEREO_COUNT>
4

> <PUBCHEM_ATOM_UDEF_STEREO_COUNT>
0

> <PUBCHEM_BOND_DEF_STEREO_COUNT>
0

> <PUBCHEM_BOND_UDEF_STEREO_COUNT>
0

> <PUBCHEM_ISOTOPIC_ATOM_COUNT>
0

> <PUBCHEM_COMPONENT_COUNT>
1

> <PUBCHEM_CACTVS_TAUTO_COUNT>
3

> <PUBCHEM_CONFORMER_ID>
00B55E8900000001

> <PUBCHEM_MMFF94_ENERGY>
88.834

> <PUBCHEM_FEATURE_SELFOVERLAP>
71.951

> <PUBCHEM_SHAPE_FINGERPRINT>
10 15 17894631431943246369
10190108 129 16081084870771762052
10190206 1 17560806485862349081
10483366 6 17275105011854475539
106641 1 16950004742775380067
10883706 17 12463271649408259205
10904742 90 18186801374630124947
11135609 99 8790589417230155145
11211813 128 12757146862116039736
11386260 185 15482378833337212240
11410812 94 14907910331636669579
11411753 29 16844153744926466379
11621639 179 17916863509348526361
11621639 336 18192147105517933252
11646440 116 15791725326670116998
12098696 120 18335702715531716413
12120059 9 15195564594498897054
12218070 45 15647631076554847123
12664476 115 18201441398657300043
12758862 65 11819287637179450893
12838862 33 16487249972689742798
13540713 4 16771809203232072915
14117953 113 16056887948992829212
15183329 4 17132119043378930410
15198563 99 15625958516438039304
15347590 135 14634864236866600133
1577012 14 18409722963521272471
16087824 20 18059859424752512697
16992727 255 18410294730868316728
17852330 162 14475811173962165080
19302320 297 18040721380829943724
20105231 36 14562526259453442130
2026 5 10087640391133486461
20505436 4 18408316679649667971
20721686 146 18339923711086116845
21095123 293 18186806893674325812
21360443 89 9151174234385196660
21585482 111 18189049807913020389
22149856 69 13984937356121188613
23389318 12 11671778295747821362
23559900 14 15051446193566489634
23576562 1 16701440399425688509
24771293 8 18187085066189944399
249057 3 16630524068133761791
2747138 104 13695584429979135831
3009799 131 17275106158938050706
3178227 256 14418137318319589142
3383291 50 11530489913576718337
3633792 109 18412830166850357654
3711267 37 18411147917833094953
44426699 302 18338795612124915330
444735 79 12901544637506807953
4461854 278 13912330074889214793
474113 269 15625671497233289340
4760202 170 16773507881021937888
54039377 194 9439396931203928769
5718773 13 10303814276704828525
57527295 17 18269823363109061354
59682541 35 12757152393938737276
6698420 124 17894914070502595522
9689198 14 18186806872362213369
9953998 17 16877665673887290243

> <PUBCHEM_SHAPE_MULTIPOLES>
614.02
31.26
2.59
1.49
6.89
0.43
0.16
-28.26
0.15
3.11
-0.59
0.1
0.08
-1.06

> <PUBCHEM_SHAPE_SELFOVERLAP>
1363.488

> <PUBCHEM_SHAPE_VOLUME>
326.9

> <PUBCHEM_COORDINATE_TYPE>
2
5
10

$$$$
