28962508
  -OEChem-12032416143D

 62 64  0     1  0  0  0  0  0999 V2000
    6.6400    1.4852    0.1199 S   0  0  0  0  0  0  0  0  0  0  0  0
   -0.5959   -1.7307   -1.7740 O   0  0  0  0  0  0  0  0  0  0  0  0
    3.8152   -1.7213    1.1485 O   0  0  0  0  0  0  0  0  0  0  0  0
   -6.1828    2.2445   -1.0160 O   0  0  0  0  0  0  0  0  0  0  0  0
   -5.4326    0.1769   -0.2544 N   0  0  0  0  0  0  0  0  0  0  0  0
    3.9062   -1.1308   -1.0927 N   0  0  0  0  0  0  0  0  0  0  0  0
   -1.4583    0.2054    1.4014 C   0  0  1  0  0  0  0  0  0  0  0  0
   -1.6132   -0.3213   -0.0641 C   0  0  2  0  0  0  0  0  0  0  0  0
   -3.1079   -0.6969   -0.3681 C   0  0  1  0  0  0  0  0  0  0  0  0
   -0.5682   -1.4306   -0.3778 C   0  0  2  0  0  0  0  0  0  0  0  0
   -0.0011    0.6714    1.6309 C   0  0  0  0  0  0  0  0  0  0  0  0
   -2.3805    1.4310    1.5968 C   0  0  0  0  0  0  0  0  0  0  0  0
    0.8786   -0.9950   -0.0479 C   0  0  1  0  0  0  0  0  0  0  0  0
   -4.0351    0.5210   -0.0961 C   0  0  2  0  0  0  0  0  0  0  0  0
    1.0224   -0.4240    1.3627 C   0  0  0  0  0  0  0  0  0  0  0  0
   -3.8416    1.1343    1.2905 C   0  0  0  0  0  0  0  0  0  0  0  0
   -1.8092   -0.8710    2.4597 C   0  0  0  0  0  0  0  0  0  0  0  0
    1.8763   -2.1438   -0.2398 C   0  0  2  0  0  0  0  0  0  0  0  0
   -3.3375   -1.1963   -1.8046 C   0  0  0  0  0  0  0  0  0  0  0  0
    1.5073   -3.3158    0.6629 C   0  0  0  0  0  0  0  0  0  0  0  0
    3.2939   -1.6530    0.0374 C   0  0  0  0  0  0  0  0  0  0  0  0
   -6.3847    1.0743   -0.7022 C   0  0  0  0  0  0  0  0  0  0  0  0
   -7.7515    0.4509   -0.7978 C   0  0  0  0  0  0  0  0  0  0  0  0
    5.2501   -0.6015   -1.0791 C   0  0  0  0  0  0  0  0  0  0  0  0
    5.2842    0.8565   -0.7160 C   0  0  0  0  0  0  0  0  0  0  0  0
    4.3364    1.8245   -0.9656 C   0  0  0  0  0  0  0  0  0  0  0  0
    4.7285    3.0992   -0.4642 C   0  0  0  0  0  0  0  0  0  0  0  0
    5.9611    3.0568    0.1496 C   0  0  0  0  0  0  0  0  0  0  0  0
   -1.3789    0.5159   -0.7411 H   0  0  0  0  0  0  0  0  0  0  0  0
   -3.4080   -1.5199    0.2928 H   0  0  0  0  0  0  0  0  0  0  0  0
   -0.8681   -2.3346    0.1554 H   0  0  0  0  0  0  0  0  0  0  0  0
    0.1241    1.0360    2.6587 H   0  0  0  0  0  0  0  0  0  0  0  0
    0.2212    1.5243    0.9753 H   0  0  0  0  0  0  0  0  0  0  0  0
   -2.0493    2.2495    0.9436 H   0  0  0  0  0  0  0  0  0  0  0  0
   -2.2997    1.8075    2.6245 H   0  0  0  0  0  0  0  0  0  0  0  0
    1.1574   -0.1978   -0.7533 H   0  0  0  0  0  0  0  0  0  0  0  0
   -3.8009    1.2970   -0.8380 H   0  0  0  0  0  0  0  0  0  0  0  0
    2.0104    0.0312    1.4958 H   0  0  0  0  0  0  0  0  0  0  0  0
    0.9271   -1.1811    2.1432 H   0  0  0  0  0  0  0  0  0  0  0  0
   -4.2606    0.4728    2.0585 H   0  0  0  0  0  0  0  0  0  0  0  0
   -4.4149    2.0673    1.3671 H   0  0  0  0  0  0  0  0  0  0  0  0
   -2.8521   -1.1936    2.4075 H   0  0  0  0  0  0  0  0  0  0  0  0
   -1.6461   -0.4830    3.4721 H   0  0  0  0  0  0  0  0  0  0  0  0
   -1.2006   -1.7736    2.3565 H   0  0  0  0  0  0  0  0  0  0  0  0
    1.8386   -2.5007   -1.2772 H   0  0  0  0  0  0  0  0  0  0  0  0
   -2.9116   -0.5048   -2.5387 H   0  0  0  0  0  0  0  0  0  0  0  0
   -4.4021   -1.3081   -2.0338 H   0  0  0  0  0  0  0  0  0  0  0  0
   -2.9025   -2.1889   -1.9516 H   0  0  0  0  0  0  0  0  0  0  0  0
   -5.7293   -0.7515    0.0334 H   0  0  0  0  0  0  0  0  0  0  0  0
   -0.3800   -0.9179   -2.2621 H   0  0  0  0  0  0  0  0  0  0  0  0
    1.4828   -3.0783    1.7285 H   0  0  0  0  0  0  0  0  0  0  0  0
    2.2702   -4.0986    0.5581 H   0  0  0  0  0  0  0  0  0  0  0  0
    0.5626   -3.7877    0.3823 H   0  0  0  0  0  0  0  0  0  0  0  0
    3.3899   -1.0899   -1.9667 H   0  0  0  0  0  0  0  0  0  0  0  0
   -8.0310    0.0112    0.1639 H   0  0  0  0  0  0  0  0  0  0  0  0
   -8.4879    1.2144   -1.0631 H   0  0  0  0  0  0  0  0  0  0  0  0
   -7.7481   -0.3260   -1.5675 H   0  0  0  0  0  0  0  0  0  0  0  0
    5.6608   -0.7355   -2.0858 H   0  0  0  0  0  0  0  0  0  0  0  0
    5.8511   -1.1976   -0.3830 H   0  0  0  0  0  0  0  0  0  0  0  0
    3.4042    1.6386   -1.4840 H   0  0  0  0  0  0  0  0  0  0  0  0
    4.1369    4.0014   -0.5496 H   0  0  0  0  0  0  0  0  0  0  0  0
    6.4952    3.8737    0.6140 H   0  0  0  0  0  0  0  0  0  0  0  0
  1 25  1  0  0  0  0
  1 28  1  0  0  0  0
  2 10  1  0  0  0  0
  2 50  1  0  0  0  0
  3 21  2  0  0  0  0
  4 22  2  0  0  0  0
  5 14  1  0  0  0  0
  5 22  1  0  0  0  0
  5 49  1  0  0  0  0
  6 21  1  0  0  0  0
  6 24  1  0  0  0  0
  6 54  1  0  0  0  0
  7  8  1  0  0  0  0
  7 11  1  0  0  0  0
  7 12  1  0  0  0  0
  7 17  1  0  0  0  0
  8  9  1  0  0  0  0
  8 10  1  0  0  0  0
  8 29  1  0  0  0  0
  9 14  1  0  0  0  0
  9 19  1  0  0  0  0
  9 30  1  0  0  0  0
 10 13  1  0  0  0  0
 10 31  1  0  0  0  0
 11 15  1  0  0  0  0
 11 32  1  0  0  0  0
 11 33  1  0  0  0  0
 12 16  1  0  0  0  0
 12 34  1  0  0  0  0
 12 35  1  0  0  0  0
 13 15  1  0  0  0  0
 13 18  1  0  0  0  0
 13 36  1  0  0  0  0
 14 16  1  0  0  0  0
 14 37  1  0  0  0  0
 15 38  1  0  0  0  0
 15 39  1  0  0  0  0
 16 40  1  0  0  0  0
 16 41  1  0  0  0  0
 17 42  1  0  0  0  0
 17 43  1  0  0  0  0
 17 44  1  0  0  0  0
 18 20  1  0  0  0  0
 18 21  1  0  0  0  0
 18 45  1  0  0  0  0
 19 46  1  0  0  0  0
 19 47  1  0  0  0  0
 19 48  1  0  0  0  0
 20 51  1  0  0  0  0
 20 52  1  0  0  0  0
 20 53  1  0  0  0  0
 22 23  1  0  0  0  0
 23 55  1  0  0  0  0
 23 56  1  0  0  0  0
 23 57  1  0  0  0  0
 24 25  1  0  0  0  0
 24 58  1  0  0  0  0
 24 59  1  0  0  0  0
 25 26  2  0  0  0  0
 26 27  1  0  0  0  0
 26 60  1  0  0  0  0
 27 28  2  0  0  0  0
 27 61  1  0  0  0  0
 28 62  1  0  0  0  0
M  END
> <PUBCHEM_COMPOUND_CID>
28962508

> <PUBCHEM_CONFORMER_RMSD>
1

> <PUBCHEM_CONFORMER_DIVERSEORDER>
1
30
3
98
46
67
58
8
42
61
83
78
50
47
45
95
92
97
7
71
26
63
54
29
41
52
91
65
96
74
43
79
49
10
20
12
38
27
59
37
25
14
31
40
23
93
66
87
22
94
86
53
90
62
34
85
35
28
17
88
89
48
69
2
32
56
68
75
81
18
60
33
36
84
51
16
5
64
19
9
57
80
76
13
39
15
77
24
21
55
72
11
70
82
73
44
4
6

> <PUBCHEM_MMFF94_PARTIAL_CHARGES>
23
1 -0.08
10 0.28
14 0.3
18 0.06
2 -0.68
21 0.57
22 0.57
23 0.06
24 0.48
25 -0.14
26 -0.15
27 -0.15
28 -0.11
3 -0.57
4 -0.57
49 0.37
5 -0.73
50 0.4
54 0.37
6 -0.73
60 0.15
61 0.15
62 0.15

> <PUBCHEM_EFFECTIVE_ROTOR_COUNT>
8.6

> <PUBCHEM_PHARMACOPHORE_FEATURES>
10
1 2 acceptor
1 2 donor
1 20 hydrophobe
1 3 acceptor
1 4 acceptor
1 5 donor
1 6 donor
5 1 25 26 27 28 rings
6 7 8 10 11 13 15 rings
6 7 8 9 12 14 16 rings

> <PUBCHEM_HEAVY_ATOM_COUNT>
28

> <PUBCHEM_ATOM_DEF_STEREO_COUNT>
7

> <PUBCHEM_ATOM_UDEF_STEREO_COUNT>
0

> <PUBCHEM_BOND_DEF_STEREO_COUNT>
0

> <PUBCHEM_BOND_UDEF_STEREO_COUNT>
0

> <PUBCHEM_ISOTOPIC_ATOM_COUNT>
0

> <PUBCHEM_COMPONENT_COUNT>
1

> <PUBCHEM_CACTVS_TAUTO_COUNT>
4

> <PUBCHEM_CONFORMER_ID>
01B9EECC00000001

> <PUBCHEM_MMFF94_ENERGY>
69.337

> <PUBCHEM_FEATURE_SELFOVERLAP>
50.76

> <PUBCHEM_SHAPE_FINGERPRINT>
10 15 13262689122970223447
10673678 19 18412546509170086791
10692045 39 14056989495382391504
10928967 22 9294747333275161584
11135609 127 18336815416766817901
11135609 187 18270115867682672248
117089 54 8357168569634579232
11961588 58 18412545418185161283
12633257 1 15574999528540403222
12788726 201 17561086865326564481
13150687 139 18060430123127018830
13165053 68 18119247518450279783
13583140 156 17386286627355209218
13617811 41 16630527327803300265
13673619 4 12607406585183980947
13690498 29 17559102397436967999
14251757 5 17345753130606858230
14251757 52 18335979788367531989
14289278 72 14202219550179265928
14556957 393 17418103087326922169
14767858 380 17703790314658065861
14931854 50 17988936608471762860
15082195 135 18198055872515185857
15183329 4 17917996087555013585
15840311 113 18409451366990143581
16994733 274 17894625916978924501
17492 54 17989490735807341338
18335252 114 18410293576191689686
19319366 153 18342734087722414871
20157964 124 18409451375527310380
20511986 3 18130498743279577924
20554085 129 16370720427142152809
20715895 44 18409729599715100228
21033648 29 17022912250036469488
21049683 118 17968365853864292810
21049683 271 18202560709931992305
21150785 3 18131912667824460653
21267235 1 17132109127269939871
21298829 104 18410859880098824948
21315763 76 18271813440958949176
21521721 280 18408610241101374739
21792934 111 13479399532405876439
22122407 14 18263935349249968545
23522609 53 17416708898451468577
23559900 14 16773503473435282529
23569914 2 17100259573263300141
23845131 108 18114466742644543602
2838139 119 18260543450309674189
3459 39 15647040565163043677
3472631 163 18343304786291840214
34797466 226 18272657813958739431
4072396 5 13334741210886490395
474 4 18410299125200018370
56633871 153 11242238684815114896
6034566 193 17827659250650568268
7237137 82 17703508904026678855
9831232 110 12319738055300901781

> <PUBCHEM_SHAPE_MULTIPOLES>
552.51
17.05
3
1.71
5.65
0.13
-0.54
13.82
6.59
-4.14
0.15
1.19
-0.22
-0.32

> <PUBCHEM_SHAPE_SELFOVERLAP>
1130.904

> <PUBCHEM_SHAPE_VOLUME>
321.8

> <PUBCHEM_COORDINATE_TYPE>
2
5
10

$$$$
