11885063
  -OEChem-12032416133D

 77 80  0     1  0  0  0  0  0999 V2000
   -1.3700    3.3269   -0.1549 S   0  0  0  0  0  0  0  0  0  0  0  0
   -7.5017   -1.5419   -0.7222 O   0  0  0  0  0  0  0  0  0  0  0  0
   -7.8931    0.4631    0.5311 O   0  0  0  0  0  0  0  0  0  0  0  0
    0.5710   -1.5793   -0.9950 O   0  0  0  0  0  0  0  0  0  0  0  0
    3.4303    3.7237   -0.1417 O   0  0  0  0  0  0  0  0  0  0  0  0
    2.9148    1.5014   -0.0186 O   0  0  0  0  0  0  0  0  0  0  0  0
    7.3620   -2.5175   -0.9959 O   0  0  0  0  0  0  0  0  0  0  0  0
   -0.0348    1.1153   -0.0168 N   0  0  0  0  0  0  0  0  0  0  0  0
    1.1768   -2.6664    0.9679 N   0  0  0  0  0  0  0  0  0  0  0  0
    1.2464    3.1541   -0.1241 N   0  0  0  0  0  0  0  0  0  0  0  0
    4.8460   -2.7572    0.3130 N   0  0  0  0  0  0  0  0  0  0  0  0
   -3.3872   -0.7273    0.4672 C   0  0  2  0  0  0  0  0  0  0  0  0
   -4.1873    0.3346   -0.4090 C   0  0  1  0  0  0  0  0  0  0  0  0
   -5.7533    0.1630   -0.4877 C   0  0  1  0  0  0  0  0  0  0  0  0
   -1.8445   -0.6403    0.0595 C   0  0  1  0  0  0  0  0  0  0  0  0
   -3.8990   -2.1546    0.1421 C   0  0  0  0  0  0  0  0  0  0  0  0
   -6.0916   -1.3277   -0.7728 C   0  0  1  0  0  0  0  0  0  0  0  0
   -3.7310    1.7895   -0.0962 C   0  0  0  0  0  0  0  0  0  0  0  0
   -5.4138   -2.2932    0.1932 C   0  0  0  0  0  0  0  0  0  0  0  0
   -3.5320   -0.4821    1.9894 C   0  0  0  0  0  0  0  0  0  0  0  0
   -1.3789    0.7919    0.0022 C   0  0  0  0  0  0  0  0  0  0  0  0
   -6.5170    0.6732    0.7544 C   0  0  0  0  0  0  0  0  0  0  0  0
   -6.2953    0.9970   -1.6830 C   0  0  0  0  0  0  0  0  0  0  0  0
   -2.2416    1.8654   -0.0856 C   0  0  0  0  0  0  0  0  0  0  0  0
   -0.9083   -1.5015    0.9180 C   0  0  0  0  0  0  0  0  0  0  0  0
    0.3420   -1.8994    0.1683 C   0  0  0  0  0  0  0  0  0  0  0  0
    0.0888    2.4228   -0.0904 C   0  0  0  0  0  0  0  0  0  0  0  0
    2.4440   -3.1904    0.5121 C   0  0  0  0  0  0  0  0  0  0  0  0
    3.5764   -2.2128    0.7900 C   0  0  0  0  0  0  0  0  0  0  0  0
    2.5558    2.6703   -0.0877 C   0  0  0  0  0  0  0  0  0  0  0  0
    5.9796   -2.0701    0.9472 C   0  0  0  0  0  0  0  0  0  0  0  0
    4.9443   -2.6471   -1.1491 C   0  0  0  0  0  0  0  0  0  0  0  0
    7.2926   -2.6462    0.4248 C   0  0  0  0  0  0  0  0  0  0  0  0
    6.2815   -3.2104   -1.6216 C   0  0  0  0  0  0  0  0  0  0  0  0
    4.8228    3.3887   -0.1133 C   0  0  0  0  0  0  0  0  0  0  0  0
    5.6208    4.6484   -0.1797 C   0  0  0  0  0  0  0  0  0  0  0  0
    6.4845    5.0363    0.7650 C   0  0  0  0  0  0  0  0  0  0  0  0
   -3.8453    0.1380   -1.4401 H   0  0  0  0  0  0  0  0  0  0  0  0
   -1.7916   -0.9987   -0.9797 H   0  0  0  0  0  0  0  0  0  0  0  0
   -3.4686   -2.8896    0.8316 H   0  0  0  0  0  0  0  0  0  0  0  0
   -3.5637   -2.4450   -0.8624 H   0  0  0  0  0  0  0  0  0  0  0  0
   -5.7722   -1.5763   -1.7937 H   0  0  0  0  0  0  0  0  0  0  0  0
   -4.1122    2.1190    0.8761 H   0  0  0  0  0  0  0  0  0  0  0  0
   -4.1209    2.4776   -0.8537 H   0  0  0  0  0  0  0  0  0  0  0  0
   -5.6892   -3.3222   -0.0715 H   0  0  0  0  0  0  0  0  0  0  0  0
   -5.7928   -2.1530    1.2116 H   0  0  0  0  0  0  0  0  0  0  0  0
   -4.5544   -0.5962    2.3435 H   0  0  0  0  0  0  0  0  0  0  0  0
   -2.9482   -1.2088    2.5650 H   0  0  0  0  0  0  0  0  0  0  0  0
   -3.1847    0.5102    2.2901 H   0  0  0  0  0  0  0  0  0  0  0  0
   -6.2553    0.1394    1.6645 H   0  0  0  0  0  0  0  0  0  0  0  0
   -6.3562    1.7427    0.9202 H   0  0  0  0  0  0  0  0  0  0  0  0
   -7.3495    0.7866   -1.8954 H   0  0  0  0  0  0  0  0  0  0  0  0
   -6.2140    2.0733   -1.4992 H   0  0  0  0  0  0  0  0  0  0  0  0
   -5.7387    0.7744   -2.6008 H   0  0  0  0  0  0  0  0  0  0  0  0
   -0.6153   -0.9759    1.8356 H   0  0  0  0  0  0  0  0  0  0  0  0
   -1.3930   -2.4378    1.2125 H   0  0  0  0  0  0  0  0  0  0  0  0
   -7.6670   -2.4722   -0.9516 H   0  0  0  0  0  0  0  0  0  0  0  0
   -8.3675    0.7954    1.3121 H   0  0  0  0  0  0  0  0  0  0  0  0
    0.8997   -2.8700    1.9238 H   0  0  0  0  0  0  0  0  0  0  0  0
    1.1268    4.1615   -0.1827 H   0  0  0  0  0  0  0  0  0  0  0  0
    2.6096   -4.1348    1.0428 H   0  0  0  0  0  0  0  0  0  0  0  0
    2.3433   -3.4166   -0.5533 H   0  0  0  0  0  0  0  0  0  0  0  0
    3.3669   -1.2289    0.3516 H   0  0  0  0  0  0  0  0  0  0  0  0
    3.6172   -2.0596    1.8771 H   0  0  0  0  0  0  0  0  0  0  0  0
    5.9397   -0.9943    0.7313 H   0  0  0  0  0  0  0  0  0  0  0  0
    5.9461   -2.2005    2.0349 H   0  0  0  0  0  0  0  0  0  0  0  0
    4.1507   -3.2074   -1.6519 H   0  0  0  0  0  0  0  0  0  0  0  0
    4.8654   -1.5964   -1.4582 H   0  0  0  0  0  0  0  0  0  0  0  0
    8.1370   -2.0946    0.8502 H   0  0  0  0  0  0  0  0  0  0  0  0
    7.4112   -3.7005    0.7031 H   0  0  0  0  0  0  0  0  0  0  0  0
    6.3821   -3.0744   -2.7032 H   0  0  0  0  0  0  0  0  0  0  0  0
    6.3651   -4.2842   -1.4133 H   0  0  0  0  0  0  0  0  0  0  0  0
    5.0417    2.8251    0.8013 H   0  0  0  0  0  0  0  0  0  0  0  0
    5.0634    2.7665   -0.9829 H   0  0  0  0  0  0  0  0  0  0  0  0
    5.4874    5.2790   -1.0548 H   0  0  0  0  0  0  0  0  0  0  0  0
    7.0368    5.9634    0.6569 H   0  0  0  0  0  0  0  0  0  0  0  0
    6.6557    4.4426    1.6562 H   0  0  0  0  0  0  0  0  0  0  0  0
  1 24  1  0  0  0  0
  1 27  1  0  0  0  0
  2 17  1  0  0  0  0
  2 57  1  0  0  0  0
  3 22  1  0  0  0  0
  3 58  1  0  0  0  0
  4 26  2  0  0  0  0
  5 30  1  0  0  0  0
  5 35  1  0  0  0  0
  6 30  2  0  0  0  0
  7 33  1  0  0  0  0
  7 34  1  0  0  0  0
  8 21  1  0  0  0  0
  8 27  2  0  0  0  0
  9 26  1  0  0  0  0
  9 28  1  0  0  0  0
  9 59  1  0  0  0  0
 10 27  1  0  0  0  0
 10 30  1  0  0  0  0
 10 60  1  0  0  0  0
 11 29  1  0  0  0  0
 11 31  1  0  0  0  0
 11 32  1  0  0  0  0
 12 13  1  0  0  0  0
 12 15  1  0  0  0  0
 12 16  1  0  0  0  0
 12 20  1  0  0  0  0
 13 14  1  0  0  0  0
 13 18  1  0  0  0  0
 13 38  1  0  0  0  0
 14 17  1  0  0  0  0
 14 22  1  0  0  0  0
 14 23  1  0  0  0  0
 15 21  1  0  0  0  0
 15 25  1  0  0  0  0
 15 39  1  0  0  0  0
 16 19  1  0  0  0  0
 16 40  1  0  0  0  0
 16 41  1  0  0  0  0
 17 19  1  0  0  0  0
 17 42  1  0  0  0  0
 18 24  1  0  0  0  0
 18 43  1  0  0  0  0
 18 44  1  0  0  0  0
 19 45  1  0  0  0  0
 19 46  1  0  0  0  0
 20 47  1  0  0  0  0
 20 48  1  0  0  0  0
 20 49  1  0  0  0  0
 21 24  2  0  0  0  0
 22 50  1  0  0  0  0
 22 51  1  0  0  0  0
 23 52  1  0  0  0  0
 23 53  1  0  0  0  0
 23 54  1  0  0  0  0
 25 26  1  0  0  0  0
 25 55  1  0  0  0  0
 25 56  1  0  0  0  0
 28 29  1  0  0  0  0
 28 61  1  0  0  0  0
 28 62  1  0  0  0  0
 29 63  1  0  0  0  0
 29 64  1  0  0  0  0
 31 33  1  0  0  0  0
 31 65  1  0  0  0  0
 31 66  1  0  0  0  0
 32 34  1  0  0  0  0
 32 67  1  0  0  0  0
 32 68  1  0  0  0  0
 33 69  1  0  0  0  0
 33 70  1  0  0  0  0
 34 71  1  0  0  0  0
 34 72  1  0  0  0  0
 35 36  1  0  0  0  0
 35 73  1  0  0  0  0
 35 74  1  0  0  0  0
 36 37  2  0  0  0  0
 36 75  1  0  0  0  0
 37 76  1  0  0  0  0
 37 77  1  0  0  0  0
M  END
> <PUBCHEM_COMPOUND_CID>
11885063

> <PUBCHEM_CONFORMER_RMSD>
1.2

> <PUBCHEM_CONFORMER_DIVERSEORDER>
1
10
14
8
13
3
11
5
2
12
4
9
6
7

> <PUBCHEM_MMFF94_PARTIAL_CHARGES>
37
1 -0.08
10 -0.49
11 -0.81
15 0.18
17 0.28
18 0.18
2 -0.68
21 0.05
22 0.28
24 -0.14
25 0.06
26 0.57
27 0.44
28 0.3
29 0.27
3 -0.68
30 0.78
31 0.27
32 0.27
33 0.28
34 0.28
35 0.42
36 -0.29
37 -0.3
4 -0.57
5 -0.43
57 0.4
58 0.4
59 0.37
6 -0.57
60 0.37
7 -0.56
75 0.15
76 0.15
77 0.15
8 -0.57
9 -0.73

> <PUBCHEM_EFFECTIVE_ROTOR_COUNT>
14.4

> <PUBCHEM_PHARMACOPHORE_FEATURES>
15
1 10 donor
1 11 cation
1 2 acceptor
1 2 donor
1 3 acceptor
1 3 donor
1 37 hydrophobe
1 4 acceptor
1 6 acceptor
1 7 acceptor
1 9 donor
5 1 8 21 24 27 rings
6 12 13 14 16 17 19 rings
6 12 13 15 18 21 24 rings
6 7 11 31 32 33 34 rings

> <PUBCHEM_HEAVY_ATOM_COUNT>
37

> <PUBCHEM_ATOM_DEF_STEREO_COUNT>
5

> <PUBCHEM_ATOM_UDEF_STEREO_COUNT>
0

> <PUBCHEM_BOND_DEF_STEREO_COUNT>
0

> <PUBCHEM_BOND_UDEF_STEREO_COUNT>
0

> <PUBCHEM_ISOTOPIC_ATOM_COUNT>
0

> <PUBCHEM_COMPONENT_COUNT>
1

> <PUBCHEM_CACTVS_TAUTO_COUNT>
6

> <PUBCHEM_CONFORMER_ID>
00B55A0700000001

> <PUBCHEM_MMFF94_ENERGY>
91.866

> <PUBCHEM_FEATURE_SELFOVERLAP>
76.268

> <PUBCHEM_SHAPE_FINGERPRINT>
10050765 1 18410012182603254827
10290309 65 17831595523578918312
11135926 11 18336259167542737605
11621639 179 17462552911613468573
12107698 1 18411418367401299330
12677640 9 18124880049767803496
12857493 111 18340767027176616700
14068700 675 18338516339959024512
14117953 113 18270677568122136791
15264996 44 18272094916278051252
15351339 4 18334866000911678448
15400415 2 17905326587194552540
15444296 7 18060127761682285734
15927050 60 18123750018138617758
16067689 302 18266461087201291871
16087824 20 18120653523508543797
18738133 686 18337652188972447760
20609170 92 18114449128846266085
20642791 35 18334010571210009907
20721686 56 18335140899233182154
21344244 246 18337667650406189471
21360443 120 18191305081948708484
21779490 94 18200579363976964256
21781055 127 16844747352577804611
22311459 1 18337110055765939530
23559900 14 18337663140616760259
24771750 20 18116167712432329998
335352 9 18265044753458174789
4017518 198 18053671549642041972
5776283 40 18335712685020994768
59520647 208 18411981390822832536
6669772 16 18338799047744525188
99344 41 18337667641431477304
9961470 85 18265052608499756322

> <PUBCHEM_SHAPE_MULTIPOLES>
710.15
20.85
6.25
1.14
2.43
5.84
-0.04
-5.97
-2.78
16.83
-0.04
-0.09
-0.58
1.46

> <PUBCHEM_SHAPE_SELFOVERLAP>
1464.492

> <PUBCHEM_SHAPE_VOLUME>
409.5

> <PUBCHEM_COORDINATE_TYPE>
2
5
10

$$$$
