45784008
  -OEChem-12032416243D

 44 47  0     1  0  0  0  0  0999 V2000
    7.9574    1.9627   -0.4108 F   0  0  0  0  0  0  0  0  0  0  0  0
    5.8705    2.3567    0.1043 F   0  0  0  0  0  0  0  0  0  0  0  0
    7.1870    1.2830    1.5180 F   0  0  0  0  0  0  0  0  0  0  0  0
   -5.4339   -0.7894    0.0783 O   0  0  0  0  0  0  0  0  0  0  0  0
    0.6048   -1.2796    1.7729 O   0  0  0  0  0  0  0  0  0  0  0  0
    6.5210    0.2217   -0.3957 O   0  0  0  0  0  0  0  0  0  0  0  0
   -1.0066   -1.7961    0.2218 N   0  0  0  0  0  0  0  0  0  0  0  0
   -3.5795    0.4978    0.2828 N   0  0  0  0  0  0  0  0  0  0  0  0
    1.1506   -1.2428   -0.4953 N   0  0  0  0  0  0  0  0  0  0  0  0
   -3.3639   -2.0421    0.4247 C   0  0  1  0  0  0  0  0  0  0  0  0
   -2.9075   -2.6030   -0.9302 C   0  0  0  0  0  0  0  0  0  0  0  0
   -2.0506   -2.0194    1.2162 C   0  0  0  0  0  0  0  0  0  0  0  0
   -1.5196   -2.0054   -1.1301 C   0  0  0  0  0  0  0  0  0  0  0  0
   -4.0863   -0.7154    0.2648 C   0  0  0  0  0  0  0  0  0  0  0  0
    0.2926   -1.4259    0.5898 C   0  0  0  0  0  0  0  0  0  0  0  0
   -5.8142    0.5174   -0.0326 C   0  0  0  0  0  0  0  0  0  0  0  0
   -4.6771    1.3018    0.0931 C   0  0  0  0  0  0  0  0  0  0  0  0
    2.5171   -0.8702   -0.4695 C   0  0  0  0  0  0  0  0  0  0  0  0
   -7.0976    1.0102   -0.2348 C   0  0  0  0  0  0  0  0  0  0  0  0
   -4.8036    2.6961    0.0141 C   0  0  0  0  0  0  0  0  0  0  0  0
   -7.2064    2.4029   -0.3110 C   0  0  0  0  0  0  0  0  0  0  0  0
   -6.0838    3.2312   -0.1894 C   0  0  0  0  0  0  0  0  0  0  0  0
    3.2182   -0.7087   -1.6646 C   0  0  0  0  0  0  0  0  0  0  0  0
    3.1615   -0.6645    0.7503 C   0  0  0  0  0  0  0  0  0  0  0  0
    4.5636   -0.3420   -1.6398 C   0  0  0  0  0  0  0  0  0  0  0  0
    4.5070   -0.2979    0.7753 C   0  0  0  0  0  0  0  0  0  0  0  0
    5.2081   -0.1366   -0.4197 C   0  0  0  0  0  0  0  0  0  0  0  0
    6.8712    1.4576    0.2171 C   0  0  0  0  0  0  0  0  0  0  0  0
   -4.0676   -2.7322    0.9066 H   0  0  0  0  0  0  0  0  0  0  0  0
   -2.8218   -3.6948   -0.8570 H   0  0  0  0  0  0  0  0  0  0  0  0
   -3.5805   -2.3738   -1.7623 H   0  0  0  0  0  0  0  0  0  0  0  0
   -2.0154   -1.2502    1.9942 H   0  0  0  0  0  0  0  0  0  0  0  0
   -1.8507   -2.9942    1.6759 H   0  0  0  0  0  0  0  0  0  0  0  0
   -1.5652   -1.0316   -1.6292 H   0  0  0  0  0  0  0  0  0  0  0  0
   -0.8645   -2.6725   -1.6979 H   0  0  0  0  0  0  0  0  0  0  0  0
    0.7689   -1.3668   -1.4275 H   0  0  0  0  0  0  0  0  0  0  0  0
   -7.9592    0.3609   -0.3276 H   0  0  0  0  0  0  0  0  0  0  0  0
   -3.9407    3.3473    0.1069 H   0  0  0  0  0  0  0  0  0  0  0  0
   -8.1843    2.8518   -0.4681 H   0  0  0  0  0  0  0  0  0  0  0  0
   -6.2062    4.3096   -0.2539 H   0  0  0  0  0  0  0  0  0  0  0  0
    2.7280   -0.8656   -2.6220 H   0  0  0  0  0  0  0  0  0  0  0  0
    2.6937   -0.7749    1.7178 H   0  0  0  0  0  0  0  0  0  0  0  0
    5.1047   -0.2174   -2.5738 H   0  0  0  0  0  0  0  0  0  0  0  0
    5.0000   -0.1484    1.7320 H   0  0  0  0  0  0  0  0  0  0  0  0
  1 28  1  0  0  0  0
  2 28  1  0  0  0  0
  3 28  1  0  0  0  0
  4 14  1  0  0  0  0
  4 16  1  0  0  0  0
  5 15  2  0  0  0  0
  6 27  1  0  0  0  0
  6 28  1  0  0  0  0
  7 12  1  0  0  0  0
  7 13  1  0  0  0  0
  7 15  1  0  0  0  0
  8 14  2  0  0  0  0
  8 17  1  0  0  0  0
  9 15  1  0  0  0  0
  9 18  1  0  0  0  0
  9 36  1  0  0  0  0
 10 11  1  0  0  0  0
 10 12  1  0  0  0  0
 10 14  1  0  0  0  0
 10 29  1  0  0  0  0
 11 13  1  0  0  0  0
 11 30  1  0  0  0  0
 11 31  1  0  0  0  0
 12 32  1  0  0  0  0
 12 33  1  0  0  0  0
 13 34  1  0  0  0  0
 13 35  1  0  0  0  0
 16 17  1  0  0  0  0
 16 19  2  0  0  0  0
 17 20  2  0  0  0  0
 18 23  2  0  0  0  0
 18 24  1  0  0  0  0
 19 21  1  0  0  0  0
 19 37  1  0  0  0  0
 20 22  1  0  0  0  0
 20 38  1  0  0  0  0
 21 22  2  0  0  0  0
 21 39  1  0  0  0  0
 22 40  1  0  0  0  0
 23 25  1  0  0  0  0
 23 41  1  0  0  0  0
 24 26  2  0  0  0  0
 24 42  1  0  0  0  0
 25 27  2  0  0  0  0
 25 43  1  0  0  0  0
 26 27  1  0  0  0  0
 26 44  1  0  0  0  0
M  END
> <PUBCHEM_COMPOUND_CID>
45784008

> <PUBCHEM_CONFORMER_RMSD>
1

> <PUBCHEM_CONFORMER_DIVERSEORDER>
1
82
17
76
69
20
70
29
59
61
43
30
68
5
18
77
91
38
54
86
11
24
66
63
34
78
9
37
89
58
10
71
84
48
45
56
32
80
55
85
36
79
90
33
81
53
50
65
72
35
47
67
49
31
73
92
23
13
40
15
87
19
75
6
60
62
25
41
26
39
64
51
3
28
83
16
27
88
12
57
8
52
42
14
4
46
7
2
21
44
74
22

> <PUBCHEM_MMFF94_PARTIAL_CHARGES>
36
1 -0.34
10 0.18
12 0.3
13 0.3
14 0.3
15 0.69
16 0.14
17 0.23
18 0.12
19 -0.15
2 -0.34
20 -0.15
21 -0.15
22 -0.15
23 -0.15
24 -0.15
25 -0.15
26 -0.15
27 0.08
28 1.3
3 -0.34
36 0.37
37 0.15
38 0.15
39 0.15
4 -0.28
40 0.15
41 0.15
42 0.15
43 0.15
44 0.15
5 -0.57
6 -0.36
7 -0.66
8 -0.57
9 -0.55

> <PUBCHEM_EFFECTIVE_ROTOR_COUNT>
7

> <PUBCHEM_PHARMACOPHORE_FEATURES>
7
1 5 acceptor
1 6 acceptor
1 9 donor
5 4 8 14 16 17 rings
5 7 10 11 12 13 rings
6 16 17 19 20 21 22 rings
6 18 23 24 25 26 27 rings

> <PUBCHEM_HEAVY_ATOM_COUNT>
28

> <PUBCHEM_ATOM_DEF_STEREO_COUNT>
1

> <PUBCHEM_ATOM_UDEF_STEREO_COUNT>
0

> <PUBCHEM_BOND_DEF_STEREO_COUNT>
0

> <PUBCHEM_BOND_UDEF_STEREO_COUNT>
0

> <PUBCHEM_ISOTOPIC_ATOM_COUNT>
0

> <PUBCHEM_COMPONENT_COUNT>
1

> <PUBCHEM_CACTVS_TAUTO_COUNT>
2

> <PUBCHEM_CONFORMER_ID>
02BA9BC800000001

> <PUBCHEM_MMFF94_ENERGY>
73.0001

> <PUBCHEM_FEATURE_SELFOVERLAP>
35.641

> <PUBCHEM_SHAPE_FINGERPRINT>
10087517 78 18335135422960027549
10280341 67 18263916662412259525
10369192 42 18343586205961366735
10411042 1 17905610253300871043
10554248 39 16916800543772886502
10835480 77 18131355211139368726
10883706 163 18113615681736796853
10906281 52 17531541970450654182
11181472 205 18260552221982930228
11409948 8 18262252062917901337
11475781 23 18342745091960500318
11761917 87 15141505950073314328
11991303 11 16702013222902003375
12838862 33 18114732764666169501
12895836 83 18342174454058213095
12895837 130 18338800121111588431
13073987 5 18187648024201076130
13668630 136 11672064137946694538
13782708 43 10809335659823304240
13911987 19 16917071053524244183
14394314 77 18335423409909889029
14598715 104 18130495436144081008
14739800 52 18334566911118864803
14767858 380 14979960267948543358
14930077 153 17987788748359557349
14950920 106 14273751654641552477
15183329 4 16558751187446581531
15188451 53 9079114449275709099
15238133 3 18040445416696563614
155225 5 18339362938122542305
1577012 14 18333727996974917803
15803439 3 16916775250726344423
16126227 98 18412268303491825665
16989713 51 17416395679403609071
18608769 82 18410017672030590347
19438510 23 18187087217804801915
20281389 69 18335140873268238171
20511986 3 17968088682180879113
21033648 29 18271514416866621290
21130935 74 17894628197712346642
21150785 3 12391515304618512778
21267235 1 10807926077653556575
21424621 283 18333169474948078178
21756936 100 18261110790410748867
21774942 28 18411418397977682528
21781051 124 12252182923477846616
21781055 127 17604159143161539062
22122407 14 17968392232899341493
23559900 14 16199866293174014930
23569943 247 10085719548809830532
249057 25 17241054330575031735
25122255 55 8790888505456192268
270888 7 18335983048400268053
2748736 6 18336823092195025309
2838139 119 18339637842130722527
306946 40 17274809295668623352
3918712 181 18337383826083088817
392239 28 14923952262257866259
439807 62 9007061270342757620
44249763 50 17845638356896553978
44802255 64 17988648535755399495
5104073 3 15864925394645781642
5385378 56 17385436601709037426
54039377 194 11743831500477119309
563151 74 16950568727483474891
5718773 13 9223221945365746593
5937810 71 17846505786141626673
6327066 14 18339638950353435461
636775 72 18409729594687371152
636775 8 7997695333481341000
7808743 9 18336546024260831659
8863177 126 10881407551617482484
9896288 288 11386627604284109751
9981440 41 18188782652451973379

> <PUBCHEM_SHAPE_MULTIPOLES>
521.85
22.73
3.12
1.2
15.12
1.16
-0.05
22.16
-0.64
-3.69
-0.05
1.33
-0.45
0.86

> <PUBCHEM_SHAPE_SELFOVERLAP>
1144.595

> <PUBCHEM_SHAPE_VOLUME>
284.2

> <PUBCHEM_COORDINATE_TYPE>
2
5
10

$$$$
