75536903
  -OEChem-12032416403D

 43 45  0     1  0  0  0  0  0999 V2000
   -1.5664   -2.6026   -1.3304 O   0  0  0  0  0  0  0  0  0  0  0  0
   -1.9887    0.7925   -0.1346 O   0  0  0  0  0  0  0  0  0  0  0  0
    2.8879   -2.6136    0.5310 O   0  0  0  0  0  0  0  0  0  0  0  0
    4.1795    2.2653   -1.5613 O   0  0  0  0  0  0  0  0  0  0  0  0
    0.7574   -1.6369    0.5377 N   0  0  0  0  0  0  0  0  0  0  0  0
   -4.0637   -0.1712    0.2789 N   0  0  0  0  0  0  0  0  0  0  0  0
   -5.2421    2.3688    0.1188 N   0  0  0  0  0  0  0  0  0  0  0  0
   -1.4729   -0.5358   -0.0369 C   0  0  2  0  0  0  0  0  0  0  0  0
   -0.0624   -0.4195    0.5478 C   0  0  0  0  0  0  0  0  0  0  0  0
    0.0791   -2.9313    0.4522 C   0  0  0  0  0  0  0  0  0  0  0  0
   -1.4989   -1.1827   -1.4201 C   0  0  0  0  0  0  0  0  0  0  0  0
   -0.3406   -3.2360   -0.9801 C   0  0  0  0  0  0  0  0  0  0  0  0
    2.1617   -1.6209    0.5694 C   0  0  0  0  0  0  0  0  0  0  0  0
    2.8432   -0.3197    0.6565 C   0  0  0  0  0  0  0  0  0  0  0  0
   -3.3379    0.9381    0.0354 C   0  0  0  0  0  0  0  0  0  0  0  0
    3.1926    0.3640   -0.5080 C   0  0  0  0  0  0  0  0  0  0  0  0
    3.1397    0.2301    1.9038 C   0  0  0  0  0  0  0  0  0  0  0  0
    3.8386    1.5975   -0.4254 C   0  0  0  0  0  0  0  0  0  0  0  0
    3.7858    1.4634    1.9865 C   0  0  0  0  0  0  0  0  0  0  0  0
    4.1351    2.1474    0.8220 C   0  0  0  0  0  0  0  0  0  0  0  0
   -3.9167    2.1857   -0.0432 C   0  0  0  0  0  0  0  0  0  0  0  0
   -5.3892    0.0120    0.4409 C   0  0  0  0  0  0  0  0  0  0  0  0
   -5.9679    1.2595    0.3622 C   0  0  0  0  0  0  0  0  0  0  0  0
    3.8466    1.6459   -2.8030 C   0  0  0  0  0  0  0  0  0  0  0  0
   -2.0463   -1.1419    0.6761 H   0  0  0  0  0  0  0  0  0  0  0  0
    0.4685    0.3832    0.0255 H   0  0  0  0  0  0  0  0  0  0  0  0
   -0.1306   -0.0909    1.5929 H   0  0  0  0  0  0  0  0  0  0  0  0
   -0.7689   -2.9339    1.1446 H   0  0  0  0  0  0  0  0  0  0  0  0
    0.7708   -3.7130    0.7847 H   0  0  0  0  0  0  0  0  0  0  0  0
   -2.3938   -0.8682   -1.9683 H   0  0  0  0  0  0  0  0  0  0  0  0
   -0.6456   -0.8732   -2.0363 H   0  0  0  0  0  0  0  0  0  0  0  0
    0.4373   -2.9749   -1.7073 H   0  0  0  0  0  0  0  0  0  0  0  0
   -0.5214   -4.3125   -1.0694 H   0  0  0  0  0  0  0  0  0  0  0  0
    2.9367   -0.1114   -1.4495 H   0  0  0  0  0  0  0  0  0  0  0  0
    2.8712   -0.2942    2.8173 H   0  0  0  0  0  0  0  0  0  0  0  0
    4.0165    1.8916    2.9575 H   0  0  0  0  0  0  0  0  0  0  0  0
    4.6380    3.1080    0.8928 H   0  0  0  0  0  0  0  0  0  0  0  0
   -3.3371    3.0799   -0.2388 H   0  0  0  0  0  0  0  0  0  0  0  0
   -5.9729   -0.8790    0.6365 H   0  0  0  0  0  0  0  0  0  0  0  0
   -7.0330    1.4058    0.4925 H   0  0  0  0  0  0  0  0  0  0  0  0
    4.1900    2.3143   -3.5995 H   0  0  0  0  0  0  0  0  0  0  0  0
    2.7630    1.5384   -2.9214 H   0  0  0  0  0  0  0  0  0  0  0  0
    4.3755    0.6957   -2.9334 H   0  0  0  0  0  0  0  0  0  0  0  0
  1 11  1  0  0  0  0
  1 12  1  0  0  0  0
  2  8  1  0  0  0  0
  2 15  1  0  0  0  0
  3 13  2  0  0  0  0
  4 18  1  0  0  0  0
  4 24  1  0  0  0  0
  5  9  1  0  0  0  0
  5 10  1  0  0  0  0
  5 13  1  0  0  0  0
  6 15  2  0  0  0  0
  6 22  1  0  0  0  0
  7 21  2  0  0  0  0
  7 23  1  0  0  0  0
  8  9  1  0  0  0  0
  8 11  1  0  0  0  0
  8 25  1  0  0  0  0
  9 26  1  0  0  0  0
  9 27  1  0  0  0  0
 10 12  1  0  0  0  0
 10 28  1  0  0  0  0
 10 29  1  0  0  0  0
 11 30  1  0  0  0  0
 11 31  1  0  0  0  0
 12 32  1  0  0  0  0
 12 33  1  0  0  0  0
 13 14  1  0  0  0  0
 14 16  2  0  0  0  0
 14 17  1  0  0  0  0
 15 21  1  0  0  0  0
 16 18  1  0  0  0  0
 16 34  1  0  0  0  0
 17 19  2  0  0  0  0
 17 35  1  0  0  0  0
 18 20  2  0  0  0  0
 19 20  1  0  0  0  0
 19 36  1  0  0  0  0
 20 37  1  0  0  0  0
 21 38  1  0  0  0  0
 22 23  2  0  0  0  0
 22 39  1  0  0  0  0
 23 40  1  0  0  0  0
 24 41  1  0  0  0  0
 24 42  1  0  0  0  0
 24 43  1  0  0  0  0
M  END
> <PUBCHEM_COMPOUND_CID>
75536903

> <PUBCHEM_CONFORMER_RMSD>
1

> <PUBCHEM_CONFORMER_DIVERSEORDER>
1
107
178
28
117
54
103
102
154
29
27
228
80
116
218
30
108
49
189
225
43
119
22
237
170
3
149
16
53
76
205
174
159
34
137
231
69
209
129
166
164
200
220
177
135
77
217
14
211
234
15
126
187
17
233
94
146
58
173
31
224
122
145
210
128
221
203
208
140
104
185
8
132
109
79
198
72
40
222
51
212
152
227
42
196
93
144
32
21
133
143
106
193
75
82
191
111
169
105
168
90
81
55
57
96
232
2
155
186
86
199
35
162
241
180
127
120
52
62
73
188
71
240
100
38
101
84
142
123
229
192
176
110
175
158
138
26
36
60
206
236
74
190
148
78
197
4
89
238
12
204
39
95
67
115
141
6
213
219
239
207
66
160
226
46
182
195
114
136
184
235
130
134
50
131
99
59
172
216
44
147
153
20
125
10
85
47
230
37
61
201
65
165
179
223
9
48
124
161
202
25
157
70
41
97
68
92
112
33
13
121
63
88
171
5
150
24
214
45
118
181
194
113
18
83
19
167
23
139
64
87
151
215
11
98
56
183
163
7
156
91

> <PUBCHEM_MMFF94_PARTIAL_CHARGES>
31
1 -0.56
10 0.3
11 0.28
12 0.28
13 0.54
14 0.09
15 0.39
16 -0.15
17 -0.15
18 0.08
19 -0.15
2 -0.36
20 -0.15
21 0.16
22 0.16
23 0.16
24 0.28
3 -0.57
34 0.15
35 0.15
36 0.15
37 0.15
38 0.15
39 0.15
4 -0.36
40 0.15
5 -0.66
6 -0.62
7 -0.62
8 0.28
9 0.3

> <PUBCHEM_EFFECTIVE_ROTOR_COUNT>
6.4

> <PUBCHEM_PHARMACOPHORE_FEATURES>
7
1 1 acceptor
1 3 acceptor
1 4 acceptor
1 7 acceptor
6 14 16 17 18 19 20 rings
6 6 7 15 21 22 23 rings
7 1 5 8 9 10 11 12 rings

> <PUBCHEM_HEAVY_ATOM_COUNT>
24

> <PUBCHEM_ATOM_DEF_STEREO_COUNT>
1

> <PUBCHEM_ATOM_UDEF_STEREO_COUNT>
0

> <PUBCHEM_BOND_DEF_STEREO_COUNT>
0

> <PUBCHEM_BOND_UDEF_STEREO_COUNT>
0

> <PUBCHEM_ISOTOPIC_ATOM_COUNT>
0

> <PUBCHEM_COMPONENT_COUNT>
1

> <PUBCHEM_CACTVS_TAUTO_COUNT>
1

> <PUBCHEM_CONFORMER_ID>
04809A0700000001

> <PUBCHEM_MMFF94_ENERGY>
89.9133

> <PUBCHEM_FEATURE_SELFOVERLAP>
35.524

> <PUBCHEM_SHAPE_FINGERPRINT>
10763959 59 18043805381832578973
11640471 11 18042957852215961526
11720765 8 17416979339952444836
11796584 16 9511454529267948081
12173636 292 18270951440431752879
12403259 118 18189321399620596305
12633257 1 16226044535122198160
12788726 201 17756429618242400234
13828863 39 16300096712120153460
13965767 371 18116410662164545608
14341114 328 17458345264447918457
14528608 73 18343578530411917401
1454969 45 18342174519015466191
146900 427 18201725016421894873
14790565 3 18343299280196565753
14955137 171 18052531067799613386
15342168 16 18113902692603604252
15342816 4 10015585029992307272
17349148 13 12252188420687883601
18222031 100 11241972564224797753
18785283 64 18263924341312449410
20465049 17 18340781329744409342
20567600 234 17821731641883995149
20567600 9 18127422154567165977
20626108 58 8430305814811278065
21756936 100 17679031636873755652
21864079 5 18045788042295947996
22149856 69 18339936939843409681
22620623 9 17202196520307936511
23227448 37 18129372877310265833
23557571 272 17558829735373841090
23559900 14 18044097856637629643
3472631 163 18129093588472311528
34797466 226 16917344870732475977
350125 39 18339077065182631800
38570 142 17313967332454598956
44154327 71 18409730646985286140
474 4 18186801370076545216
5048184 11 18411134779205623020
5104073 3 18335984156506982787
59682541 52 13254796790263233129
6034566 193 17896320396855063637
633830 44 16917071023469736817
6438754 60 11455896819321455493
7808743 9 18267300022725064688
8988823 20 14562815486287069175
960060 61 13326853357144386856
9999458 23 18264208010922437838

> <PUBCHEM_SHAPE_MULTIPOLES>
455.49
11.71
3.45
1.7
11.9
2.03
-0.75
-10.88
0.81
-0.38
-0.66
-2.86
-0.63
-1.33

> <PUBCHEM_SHAPE_SELFOVERLAP>
968.108

> <PUBCHEM_SHAPE_VOLUME>
249.6

> <PUBCHEM_COORDINATE_TYPE>
2
5
10

$$$$
