26742198
  -OEChem-12032416173D

 64 66  0     1  0  0  0  0  0999 V2000
   -4.1602   -2.9338    1.5529 O   0  0  0  0  0  0  0  0  0  0  0  0
   -3.3089    2.8588    0.5645 O   0  0  0  0  0  0  0  0  0  0  0  0
   -1.5069   -2.7846   -1.9438 O   0  0  0  0  0  0  0  0  0  0  0  0
    4.2794   -2.1802    0.5444 O   0  0  0  0  0  0  0  0  0  0  0  0
    3.0087    2.0207   -1.1367 O   0  0  0  0  0  0  0  0  0  0  0  0
    5.8654    0.0308    1.2093 O   0  0  0  0  0  0  0  0  0  0  0  0
   -4.0341    0.9221   -0.4686 N   0  0  0  0  0  0  0  0  0  0  0  0
   -2.0231   -1.5748   -0.0350 N   0  0  0  0  0  0  0  0  0  0  0  0
   -1.7511    1.5309   -0.5340 N   0  0  0  0  0  0  0  0  0  0  0  0
   -3.4552   -1.5202   -0.2574 C   0  0  1  0  0  0  0  0  0  0  0  0
   -4.1747   -1.5721    1.1029 C   0  0  1  0  0  0  0  0  0  0  0  0
   -5.6371   -1.1164    1.1002 C   0  0  0  0  0  0  0  0  0  0  0  0
   -3.8144   -0.3462   -1.1769 C   0  0  0  0  0  0  0  0  0  0  0  0
   -5.7986    0.4018    1.2059 C   0  0  0  0  0  0  0  0  0  0  0  0
   -5.4172    1.1669   -0.0554 C   0  0  0  0  0  0  0  0  0  0  0  0
   -3.0352    1.8537   -0.0962 C   0  0  0  0  0  0  0  0  0  0  0  0
   -1.1656   -2.2120   -0.9122 C   0  0  0  0  0  0  0  0  0  0  0  0
    0.2695   -2.2020   -0.5284 C   0  0  0  0  0  0  0  0  0  0  0  0
   -0.5510    2.2562   -0.3240 C   0  0  0  0  0  0  0  0  0  0  0  0
    1.2551   -2.2827   -1.5123 C   0  0  0  0  0  0  0  0  0  0  0  0
    0.6315   -2.1139    0.8158 C   0  0  0  0  0  0  0  0  0  0  0  0
    0.6528    1.7759   -0.8398 C   0  0  0  0  0  0  0  0  0  0  0  0
   -0.5735    3.4488    0.3992 C   0  0  0  0  0  0  0  0  0  0  0  0
    2.6025   -2.2755   -1.1520 C   0  0  0  0  0  0  0  0  0  0  0  0
    1.9790   -2.1069    1.1762 C   0  0  0  0  0  0  0  0  0  0  0  0
    2.9644   -2.1877    0.1923 C   0  0  0  0  0  0  0  0  0  0  0  0
    1.8339    2.4883   -0.6327 C   0  0  0  0  0  0  0  0  0  0  0  0
    0.6077    4.1610    0.6063 C   0  0  0  0  0  0  0  0  0  0  0  0
    1.8114    3.6808    0.0905 C   0  0  0  0  0  0  0  0  0  0  0  0
    5.1985   -1.6193   -0.3918 C   0  0  0  0  0  0  0  0  0  0  0  0
    6.3591   -1.0011    0.3638 C   0  0  0  0  0  0  0  0  0  0  0  0
    4.1777    2.8000   -0.8877 C   0  0  0  0  0  0  0  0  0  0  0  0
    6.9104    0.6325    1.9607 C   0  0  0  0  0  0  0  0  0  0  0  0
   -3.7075   -2.4358   -0.8100 H   0  0  0  0  0  0  0  0  0  0  0  0
   -3.6160   -0.9947    1.8506 H   0  0  0  0  0  0  0  0  0  0  0  0
   -6.1515   -1.5612    1.9625 H   0  0  0  0  0  0  0  0  0  0  0  0
   -6.1611   -1.5050    0.2183 H   0  0  0  0  0  0  0  0  0  0  0  0
   -3.0655   -0.2073   -1.9634 H   0  0  0  0  0  0  0  0  0  0  0  0
   -4.7408   -0.5886   -1.7131 H   0  0  0  0  0  0  0  0  0  0  0  0
   -6.8484    0.6239    1.4336 H   0  0  0  0  0  0  0  0  0  0  0  0
   -5.2113    0.7724    2.0552 H   0  0  0  0  0  0  0  0  0  0  0  0
   -6.0848    0.9053   -0.8847 H   0  0  0  0  0  0  0  0  0  0  0  0
   -5.5620    2.2376    0.1274 H   0  0  0  0  0  0  0  0  0  0  0  0
   -1.6526   -1.0277    0.7353 H   0  0  0  0  0  0  0  0  0  0  0  0
   -4.4960   -2.9462    2.4655 H   0  0  0  0  0  0  0  0  0  0  0  0
   -1.6213    0.6690   -1.0510 H   0  0  0  0  0  0  0  0  0  0  0  0
    0.9920   -2.3529   -2.5645 H   0  0  0  0  0  0  0  0  0  0  0  0
   -0.1041   -2.0791    1.6140 H   0  0  0  0  0  0  0  0  0  0  0  0
    0.6776    0.8508   -1.4096 H   0  0  0  0  0  0  0  0  0  0  0  0
   -1.4586    3.8909    0.8319 H   0  0  0  0  0  0  0  0  0  0  0  0
    3.3371   -2.3676   -1.9464 H   0  0  0  0  0  0  0  0  0  0  0  0
    2.2555   -2.0439    2.2252 H   0  0  0  0  0  0  0  0  0  0  0  0
    0.5907    5.0899    1.1695 H   0  0  0  0  0  0  0  0  0  0  0  0
    2.6908    4.2840    0.2887 H   0  0  0  0  0  0  0  0  0  0  0  0
    5.5617   -2.4078   -1.0595 H   0  0  0  0  0  0  0  0  0  0  0  0
    4.7282   -0.8196   -0.9786 H   0  0  0  0  0  0  0  0  0  0  0  0
    7.0881   -0.5875   -0.3416 H   0  0  0  0  0  0  0  0  0  0  0  0
    6.8453   -1.7642    0.9827 H   0  0  0  0  0  0  0  0  0  0  0  0
    5.0185    2.2792   -1.3578 H   0  0  0  0  0  0  0  0  0  0  0  0
    4.3998    2.8610    0.1831 H   0  0  0  0  0  0  0  0  0  0  0  0
    4.1105    3.7879   -1.3557 H   0  0  0  0  0  0  0  0  0  0  0  0
    6.4763    1.4176    2.5856 H   0  0  0  0  0  0  0  0  0  0  0  0
    7.6499    1.0865    1.2941 H   0  0  0  0  0  0  0  0  0  0  0  0
    7.3904   -0.1055    2.6106 H   0  0  0  0  0  0  0  0  0  0  0  0
  1 11  1  0  0  0  0
  1 45  1  0  0  0  0
  2 16  2  0  0  0  0
  3 17  2  0  0  0  0
  4 26  1  0  0  0  0
  4 30  1  0  0  0  0
  5 27  1  0  0  0  0
  5 32  1  0  0  0  0
  6 31  1  0  0  0  0
  6 33  1  0  0  0  0
  7 13  1  0  0  0  0
  7 15  1  0  0  0  0
  7 16  1  0  0  0  0
  8 10  1  0  0  0  0
  8 17  1  0  0  0  0
  8 44  1  0  0  0  0
  9 16  1  0  0  0  0
  9 19  1  0  0  0  0
  9 46  1  0  0  0  0
 10 11  1  0  0  0  0
 10 13  1  0  0  0  0
 10 34  1  0  0  0  0
 11 12  1  0  0  0  0
 11 35  1  0  0  0  0
 12 14  1  0  0  0  0
 12 36  1  0  0  0  0
 12 37  1  0  0  0  0
 13 38  1  0  0  0  0
 13 39  1  0  0  0  0
 14 15  1  0  0  0  0
 14 40  1  0  0  0  0
 14 41  1  0  0  0  0
 15 42  1  0  0  0  0
 15 43  1  0  0  0  0
 17 18  1  0  0  0  0
 18 20  2  0  0  0  0
 18 21  1  0  0  0  0
 19 22  2  0  0  0  0
 19 23  1  0  0  0  0
 20 24  1  0  0  0  0
 20 47  1  0  0  0  0
 21 25  2  0  0  0  0
 21 48  1  0  0  0  0
 22 27  1  0  0  0  0
 22 49  1  0  0  0  0
 23 28  2  0  0  0  0
 23 50  1  0  0  0  0
 24 26  2  0  0  0  0
 24 51  1  0  0  0  0
 25 26  1  0  0  0  0
 25 52  1  0  0  0  0
 27 29  2  0  0  0  0
 28 29  1  0  0  0  0
 28 53  1  0  0  0  0
 29 54  1  0  0  0  0
 30 31  1  0  0  0  0
 30 55  1  0  0  0  0
 30 56  1  0  0  0  0
 31 57  1  0  0  0  0
 31 58  1  0  0  0  0
 32 59  1  0  0  0  0
 32 60  1  0  0  0  0
 32 61  1  0  0  0  0
 33 62  1  0  0  0  0
 33 63  1  0  0  0  0
 33 64  1  0  0  0  0
M  END
> <PUBCHEM_COMPOUND_CID>
26742198

> <PUBCHEM_CONFORMER_RMSD>
1.2

> <PUBCHEM_CONFORMER_DIVERSEORDER>
1
40
21
23
8
3
14
30
11
35
27
39
38
34
36
29
4
6
42
7
31
25
18
24
41
13
33
22
32
20
10
37
5
16
26
28
17
12
19
9
15
2

> <PUBCHEM_MMFF94_PARTIAL_CHARGES>
42
1 -0.68
10 0.3
11 0.28
13 0.3
15 0.3
16 0.69
17 0.54
18 0.09
19 0.12
2 -0.57
20 -0.15
21 -0.15
22 -0.15
23 -0.15
24 -0.15
25 -0.15
26 0.08
27 0.08
28 -0.15
29 -0.15
3 -0.57
30 0.28
31 0.28
32 0.28
33 0.28
4 -0.36
44 0.37
45 0.4
46 0.37
47 0.15
48 0.15
49 0.15
5 -0.36
50 0.15
51 0.15
52 0.15
53 0.15
54 0.15
6 -0.56
7 -0.66
8 -0.73
9 -0.55

> <PUBCHEM_EFFECTIVE_ROTOR_COUNT>
12.4

> <PUBCHEM_PHARMACOPHORE_FEATURES>
12
1 1 acceptor
1 1 donor
1 2 acceptor
1 3 acceptor
1 4 acceptor
1 5 acceptor
1 6 acceptor
1 8 donor
1 9 donor
6 18 20 21 24 25 26 rings
6 19 22 23 27 28 29 rings
7 7 10 11 12 13 14 15 rings

> <PUBCHEM_HEAVY_ATOM_COUNT>
33

> <PUBCHEM_ATOM_DEF_STEREO_COUNT>
2

> <PUBCHEM_ATOM_UDEF_STEREO_COUNT>
0

> <PUBCHEM_BOND_DEF_STEREO_COUNT>
0

> <PUBCHEM_BOND_UDEF_STEREO_COUNT>
0

> <PUBCHEM_ISOTOPIC_ATOM_COUNT>
0

> <PUBCHEM_COMPONENT_COUNT>
1

> <PUBCHEM_CACTVS_TAUTO_COUNT>
4

> <PUBCHEM_CONFORMER_ID>
01980DB600000001

> <PUBCHEM_MMFF94_ENERGY>
105.9051

> <PUBCHEM_FEATURE_SELFOVERLAP>
60.905

> <PUBCHEM_SHAPE_FINGERPRINT>
10290309 65 18043527201476345519
10675989 125 16388160558227884533
10939801 23 18265331893260209744
1100329 8 18410011026681974510
11513181 2 17916299433717957830
12107698 1 18335421275004622723
12422481 6 18338792416167086696
13111901 25 18334858364185824776
13140716 1 18338526222752911613
14394314 77 18267867358009309384
14955137 171 18411708668499068590
15001296 14 18334576858764677860
15264996 55 16819668328716760402
15968369 153 18272371988312162764
18336668 15 18114466669181011556
19611394 137 18262249883798008603
20567600 70 18334579022868623312
20721686 56 18335423512629537515
21033648 29 17702087098227630163
3298306 158 18265622163707073725
338550 245 18334858355184407908
373842 8 18410013243212263776
392239 28 18260274048675806859
42626532 9 17833865705399488939
463206 1 18410014342523782028
469060 322 17095804305302986286
5265222 85 17614580545296430492
57091435 65 18338237184180322665

> <PUBCHEM_SHAPE_MULTIPOLES>
628.97
13.52
5.24
1.44
6.11
3.63
0.11
-2.7
6.24
1.59
-0.26
0.42
-0.64
0.2

> <PUBCHEM_SHAPE_SELFOVERLAP>
1313.136

> <PUBCHEM_SHAPE_VOLUME>
352.6

> <PUBCHEM_COORDINATE_TYPE>
2
5
10

$$$$
