11884596
  -OEChem-12032416413D

 56 59  0     1  0  0  0  0  0999 V2000
    1.4000    1.0564   -1.1720 O   0  0  0  0  0  0  0  0  0  0  0  0
    2.8913    2.7244    0.9083 O   0  0  0  0  0  0  0  0  0  0  0  0
   -0.4768    1.5079    0.8258 O   0  0  0  0  0  0  0  0  0  0  0  0
   -0.5306   -0.7675    1.0488 O   0  0  0  0  0  0  0  0  0  0  0  0
    4.3878    0.1737   -1.3080 N   0  0  0  0  0  0  0  0  0  0  0  0
   -2.4336    0.4537    0.4431 N   0  0  0  0  0  0  0  0  0  0  0  0
    3.1230    1.3853    0.4195 C   0  0  1  0  0  0  0  0  0  0  0  0
    1.7605    0.7632    0.1893 C   0  0  1  0  0  0  0  0  0  0  0  0
    3.7426    1.4386   -0.9603 C   0  0  2  0  0  0  0  0  0  0  0  0
    0.8904    1.5117    1.1699 C   0  0  1  0  0  0  0  0  0  0  0  0
    2.5205    1.6557   -1.8408 C   0  0  0  0  0  0  0  0  0  0  0  0
    1.4840    2.9018    1.1270 C   0  0  0  0  0  0  0  0  0  0  0  0
    5.5541   -0.0588   -0.4698 C   0  0  0  0  0  0  0  0  0  0  0  0
    6.2310   -1.3734   -0.8616 C   0  0  0  0  0  0  0  0  0  0  0  0
    7.4828   -1.6893   -0.0211 C   0  0  0  0  0  0  0  0  0  0  0  0
   -1.1087    0.2819    0.7940 C   0  0  0  0  0  0  0  0  0  0  0  0
    7.1151   -1.7253    1.4645 C   0  0  0  0  0  0  0  0  0  0  0  0
    8.1378   -3.0119   -0.4221 C   0  0  0  0  0  0  0  0  0  0  0  0
   -3.4305   -0.5374    0.2953 C   0  0  0  0  0  0  0  0  0  0  0  0
   -4.7383   -0.2041   -0.0671 C   0  0  0  0  0  0  0  0  0  0  0  0
   -3.0514   -1.8535    0.5269 C   0  0  0  0  0  0  0  0  0  0  0  0
   -5.6940   -1.2395   -0.1995 C   0  0  0  0  0  0  0  0  0  0  0  0
   -5.1281    1.1245   -0.3026 C   0  0  0  0  0  0  0  0  0  0  0  0
   -3.9912   -2.8716    0.3964 C   0  0  0  0  0  0  0  0  0  0  0  0
   -5.3043   -2.5681    0.0357 C   0  0  0  0  0  0  0  0  0  0  0  0
   -7.0112   -0.9159   -0.5634 C   0  0  0  0  0  0  0  0  0  0  0  0
   -6.4412    1.4278   -0.6631 C   0  0  0  0  0  0  0  0  0  0  0  0
   -7.3811    0.4096   -0.7932 C   0  0  0  0  0  0  0  0  0  0  0  0
    3.6815    0.8801    1.2083 H   0  0  0  0  0  0  0  0  0  0  0  0
    1.7651   -0.3235    0.3075 H   0  0  0  0  0  0  0  0  0  0  0  0
    4.4443    2.2707   -1.0900 H   0  0  0  0  0  0  0  0  0  0  0  0
    1.0250    1.1049    2.1813 H   0  0  0  0  0  0  0  0  0  0  0  0
    2.6123    1.2360   -2.8478 H   0  0  0  0  0  0  0  0  0  0  0  0
    2.3046    2.7250   -1.9472 H   0  0  0  0  0  0  0  0  0  0  0  0
    1.3242    3.4507    2.0599 H   0  0  0  0  0  0  0  0  0  0  0  0
    1.0722    3.5057    0.3106 H   0  0  0  0  0  0  0  0  0  0  0  0
    4.6686    0.1916   -2.2882 H   0  0  0  0  0  0  0  0  0  0  0  0
    6.2729    0.7631   -0.5724 H   0  0  0  0  0  0  0  0  0  0  0  0
    5.2635   -0.1285    0.5776 H   0  0  0  0  0  0  0  0  0  0  0  0
    5.5116   -2.1981   -0.7669 H   0  0  0  0  0  0  0  0  0  0  0  0
    6.5217   -1.3335   -1.9197 H   0  0  0  0  0  0  0  0  0  0  0  0
    8.2197   -0.8905   -0.1735 H   0  0  0  0  0  0  0  0  0  0  0  0
    6.8793   -0.7288    1.8496 H   0  0  0  0  0  0  0  0  0  0  0  0
    6.2611   -2.3851    1.6522 H   0  0  0  0  0  0  0  0  0  0  0  0
    7.9575   -2.0941    2.0607 H   0  0  0  0  0  0  0  0  0  0  0  0
    9.0449   -3.1935    0.1638 H   0  0  0  0  0  0  0  0  0  0  0  0
    7.4564   -3.8550   -0.2656 H   0  0  0  0  0  0  0  0  0  0  0  0
    8.4197   -2.9965   -1.4801 H   0  0  0  0  0  0  0  0  0  0  0  0
   -2.6981    1.4175    0.2766 H   0  0  0  0  0  0  0  0  0  0  0  0
   -2.0654   -2.1878    0.8085 H   0  0  0  0  0  0  0  0  0  0  0  0
   -4.4473    1.9654   -0.2193 H   0  0  0  0  0  0  0  0  0  0  0  0
   -3.7046   -3.9042    0.5751 H   0  0  0  0  0  0  0  0  0  0  0  0
   -6.0223   -3.3800   -0.0604 H   0  0  0  0  0  0  0  0  0  0  0  0
   -7.7625   -1.6956   -0.6710 H   0  0  0  0  0  0  0  0  0  0  0  0
   -6.7306    2.4593   -0.8425 H   0  0  0  0  0  0  0  0  0  0  0  0
   -8.4032    0.6465   -1.0740 H   0  0  0  0  0  0  0  0  0  0  0  0
  1  8  1  0  0  0  0
  1 11  1  0  0  0  0
  2  7  1  0  0  0  0
  2 12  1  0  0  0  0
  3 10  1  0  0  0  0
  3 16  1  0  0  0  0
  4 16  2  0  0  0  0
  5  9  1  0  0  0  0
  5 13  1  0  0  0  0
  5 37  1  0  0  0  0
  6 16  1  0  0  0  0
  6 19  1  0  0  0  0
  6 49  1  0  0  0  0
  7  8  1  0  0  0  0
  7  9  1  0  0  0  0
  7 29  1  0  0  0  0
  8 10  1  0  0  0  0
  8 30  1  0  0  0  0
  9 11  1  0  0  0  0
  9 31  1  0  0  0  0
 10 12  1  0  0  0  0
 10 32  1  0  0  0  0
 11 33  1  0  0  0  0
 11 34  1  0  0  0  0
 12 35  1  0  0  0  0
 12 36  1  0  0  0  0
 13 14  1  0  0  0  0
 13 38  1  0  0  0  0
 13 39  1  0  0  0  0
 14 15  1  0  0  0  0
 14 40  1  0  0  0  0
 14 41  1  0  0  0  0
 15 17  1  0  0  0  0
 15 18  1  0  0  0  0
 15 42  1  0  0  0  0
 17 43  1  0  0  0  0
 17 44  1  0  0  0  0
 17 45  1  0  0  0  0
 18 46  1  0  0  0  0
 18 47  1  0  0  0  0
 18 48  1  0  0  0  0
 19 20  1  0  0  0  0
 19 21  2  0  0  0  0
 20 22  1  0  0  0  0
 20 23  2  0  0  0  0
 21 24  1  0  0  0  0
 21 50  1  0  0  0  0
 22 25  1  0  0  0  0
 22 26  2  0  0  0  0
 23 27  1  0  0  0  0
 23 51  1  0  0  0  0
 24 25  2  0  0  0  0
 24 52  1  0  0  0  0
 25 53  1  0  0  0  0
 26 28  1  0  0  0  0
 26 54  1  0  0  0  0
 27 28  2  0  0  0  0
 27 55  1  0  0  0  0
 28 56  1  0  0  0  0
M  END
> <PUBCHEM_COMPOUND_CID>
11884596

> <PUBCHEM_CONFORMER_RMSD>
1

> <PUBCHEM_CONFORMER_DIVERSEORDER>
1
35
81
108
51
49
70
78
42
11
107
95
94
82
73
120
32
36
116
14
102
109
2
34
10
43
56
40
25
113
97
83
64
96
38
39
103
50
9
110
29
72
23
114
104
86
101
5
66
88
60
13
119
69
28
48
99
12
118
117
26
115
67
58
84
53
45
76
79
52
85
89
21
112
77
47
16
100
30
121
65
106
17
61
57
105
122
31
75
27
59
90
22
3
15
98
18
55
93
20
92
63
37
62
4
74
80
33
87
19
41
111
6
8
54
68
91
7
46
44
71
24

> <PUBCHEM_MMFF94_PARTIAL_CHARGES>
31
1 -0.56
10 0.28
11 0.28
12 0.28
13 0.27
16 0.78
19 0.12
2 -0.56
21 -0.15
23 -0.15
24 -0.15
25 -0.15
26 -0.15
27 -0.15
28 -0.15
3 -0.43
37 0.36
4 -0.57
49 0.37
5 -0.9
50 0.15
51 0.15
52 0.15
53 0.15
54 0.15
55 0.15
56 0.15
6 -0.55
7 0.28
8 0.28
9 0.27

> <PUBCHEM_EFFECTIVE_ROTOR_COUNT>
9.2

> <PUBCHEM_PHARMACOPHORE_FEATURES>
11
1 1 acceptor
1 2 acceptor
1 4 acceptor
1 5 cation
1 5 donor
1 6 donor
3 15 17 18 hydrophobe
5 1 7 8 9 11 rings
5 2 7 8 10 12 rings
6 19 20 21 22 24 25 rings
6 20 22 23 26 27 28 rings

> <PUBCHEM_HEAVY_ATOM_COUNT>
28

> <PUBCHEM_ATOM_DEF_STEREO_COUNT>
4

> <PUBCHEM_ATOM_UDEF_STEREO_COUNT>
0

> <PUBCHEM_BOND_DEF_STEREO_COUNT>
0

> <PUBCHEM_BOND_UDEF_STEREO_COUNT>
0

> <PUBCHEM_ISOTOPIC_ATOM_COUNT>
0

> <PUBCHEM_COMPONENT_COUNT>
1

> <PUBCHEM_CACTVS_TAUTO_COUNT>
2

> <PUBCHEM_CONFORMER_ID>
00B5583400000001

> <PUBCHEM_MMFF94_ENERGY>
80.4315

> <PUBCHEM_FEATURE_SELFOVERLAP>
56.566

> <PUBCHEM_SHAPE_FINGERPRINT>
10369192 42 7853568002836698114
106641 1 10447920681620173349
10670039 82 17894627020775022365
10673678 19 7925912600059646376
10674148 151 16732984202752602788
10917259 69 18126566718106246177
11135609 99 18272369781057656022
11273773 46 18411703153655610815
11719270 70 18202847647706164022
11796584 16 18409171043054163426
12013929 112 17677043535030110655
13177829 20 12031785859695515572
13782708 43 18269279130828240063
14068700 675 18336266752565673928
14251752 14 18334576841246594493
14840074 17 15285350756809305007
15183329 4 17894349960401672910
15188451 53 18271526404215432458
15230672 131 18333727997043866523
15475509 8 17240202131700846308
15510800 12 17988655047474043542
15961568 22 10159702395353598226
16126227 98 8574130745224743742
16991971 28 17988379113442851620
16992610 120 10375576158783169922
19377110 9 12751243614066346393
19841028 212 18188205387520494314
2026 5 18273494568204784327
20567600 234 14908175366011294506
21315764 119 18259988184368710823
21781055 127 18059011658764475443
22061861 79 17846505880693651437
22224240 67 14045737115222162548
22393880 68 18338514257121672651
23559900 14 18269833276225227529
3004659 81 18333447651352657314
32027 91 18343020033864750746
3298306 158 18272090539311309167
38570 142 15068343410234840801
4149490 64 15122926535741631839
437795 51 11097863994894342974
444769 64 18261965063615812729
5085150 59 18273494563456019255
5104073 3 17560533887933926440
531348 171 18411420652899193103
559249 180 18410294714010311343
5718773 13 18343022164759528886
5758199 1 11599999951677325436
59682541 35 10663807599047326231
6126387 218 18412821370334816504
6438161 24 18413666920193244114
6697151 62 17845923104501740024
9689198 14 10737293433199700670

> <PUBCHEM_SHAPE_MULTIPOLES>
542.79
23.28
3.16
1.26
10.96
0.72
0.1
16.91
4.92
2.38
-0.51
1.31
-0.43
0.49

> <PUBCHEM_SHAPE_SELFOVERLAP>
1164.127

> <PUBCHEM_SHAPE_VOLUME>
301.5

> <PUBCHEM_COORDINATE_TYPE>
2
5
10

$$$$
