11879614
  -OEChem-12032416373D

 65 70  0     1  0  0  0  0  0999 V2000
   -2.7791   -3.3172    1.1961 S   0  0  0  0  0  0  0  0  0  0  0  0
   -4.5386    1.0651    0.6562 O   0  0  0  0  0  0  0  0  0  0  0  0
   -3.0656    0.0712   -1.8937 O   0  0  0  0  0  0  0  0  0  0  0  0
   -0.0437    1.8810   -0.2687 O   0  0  0  0  0  0  0  0  0  0  0  0
   -3.6424   -4.2388    0.4824 O   0  0  0  0  0  0  0  0  0  0  0  0
   -2.2929   -3.6503    2.5213 O   0  0  0  0  0  0  0  0  0  0  0  0
    6.8045   -0.9425   -0.7586 O   0  0  0  0  0  0  0  0  0  0  0  0
   -3.5096   -1.7857    1.2511 N   0  0  0  0  0  0  0  0  0  0  0  0
   -1.9953    3.2067   -0.5139 N   0  0  0  0  0  0  0  0  0  0  0  0
   -2.3247    4.4989   -0.4281 N   0  0  0  0  0  0  0  0  0  0  0  0
   -0.1526    4.2178   -0.0117 N   0  0  0  0  0  0  0  0  0  0  0  0
   -1.1906    5.1156   -0.1192 N   0  0  0  0  0  0  0  0  0  0  0  0
    4.3981    0.1153    0.2362 N   0  0  0  0  0  0  0  0  0  0  0  0
   -2.8814   -0.1901   -0.4973 C   0  0  1  0  0  0  0  0  0  0  0  0
   -3.1683    1.1147    0.2180 C   0  0  1  0  0  0  0  0  0  0  0  0
   -3.9489   -1.1331   -0.0051 C   0  0  2  0  0  0  0  0  0  0  0  0
   -2.9987    2.1973   -0.8429 C   0  0  2  0  0  0  0  0  0  0  0  0
   -5.1071   -0.1981    0.2810 C   0  0  0  0  0  0  0  0  0  0  0  0
   -2.6906    1.4321   -2.1276 C   0  0  0  0  0  0  0  0  0  0  0  0
   -0.6763    3.0396   -0.2605 C   0  0  0  0  0  0  0  0  0  0  0  0
   -1.3596   -3.0088    0.1888 C   0  0  0  0  0  0  0  0  0  0  0  0
   -1.4589   -3.1619   -1.1832 C   0  0  0  0  0  0  0  0  0  0  0  0
   -0.1752   -2.6204    0.7905 C   0  0  0  0  0  0  0  0  0  0  0  0
    1.0631    1.6278    0.5299 C   0  0  0  0  0  0  0  0  0  0  0  0
   -0.3388   -2.9190   -1.9783 C   0  0  0  0  0  0  0  0  0  0  0  0
    0.9449   -2.3774   -0.0046 C   0  0  0  0  0  0  0  0  0  0  0  0
    2.1620    1.0013   -0.0253 C   0  0  0  0  0  0  0  0  0  0  0  0
    0.8630   -2.5268   -1.3889 C   0  0  0  0  0  0  0  0  0  0  0  0
    3.2744    0.7482    0.7775 C   0  0  0  0  0  0  0  0  0  0  0  0
    5.2476   -0.7227    1.0895 C   0  0  0  0  0  0  0  0  0  0  0  0
    5.0878    0.7661   -0.8863 C   0  0  0  0  0  0  0  0  0  0  0  0
    1.0334    2.0112    1.8570 C   0  0  0  0  0  0  0  0  0  0  0  0
    6.0702   -1.6713    0.2245 C   0  0  0  0  0  0  0  0  0  0  0  0
    5.9171   -0.2626   -1.6463 C   0  0  0  0  0  0  0  0  0  0  0  0
    3.2662    1.1268    2.1199 C   0  0  0  0  0  0  0  0  0  0  0  0
    2.1458    1.7582    2.6597 C   0  0  0  0  0  0  0  0  0  0  0  0
    2.0608   -2.2684   -2.2391 C   0  0  0  0  0  0  0  0  0  0  0  0
   -1.8453   -0.4927   -0.3470 H   0  0  0  0  0  0  0  0  0  0  0  0
   -2.5529    1.2490    1.1134 H   0  0  0  0  0  0  0  0  0  0  0  0
   -4.2527   -1.8873   -0.7373 H   0  0  0  0  0  0  0  0  0  0  0  0
   -3.9432    2.7422   -0.9742 H   0  0  0  0  0  0  0  0  0  0  0  0
   -5.7050   -0.0283   -0.6213 H   0  0  0  0  0  0  0  0  0  0  0  0
   -5.7715   -0.5468    1.0772 H   0  0  0  0  0  0  0  0  0  0  0  0
   -1.6318    1.4494   -2.4059 H   0  0  0  0  0  0  0  0  0  0  0  0
   -3.2646    1.8160   -2.9768 H   0  0  0  0  0  0  0  0  0  0  0  0
   -3.2999   -1.1619    2.0405 H   0  0  0  0  0  0  0  0  0  0  0  0
   -2.3859   -3.4625   -1.6613 H   0  0  0  0  0  0  0  0  0  0  0  0
   -0.0926   -2.4914    1.8652 H   0  0  0  0  0  0  0  0  0  0  0  0
   -0.4139   -3.0358   -3.0562 H   0  0  0  0  0  0  0  0  0  0  0  0
    1.8759   -2.0807    0.4697 H   0  0  0  0  0  0  0  0  0  0  0  0
    2.1464    0.7074   -1.0708 H   0  0  0  0  0  0  0  0  0  0  0  0
    4.6467   -1.3176    1.7874 H   0  0  0  0  0  0  0  0  0  0  0  0
    5.9248   -0.0809    1.6663 H   0  0  0  0  0  0  0  0  0  0  0  0
    4.3888    1.2393   -1.5843 H   0  0  0  0  0  0  0  0  0  0  0  0
    5.7434    1.5489   -0.4851 H   0  0  0  0  0  0  0  0  0  0  0  0
    0.1641    2.4898    2.2977 H   0  0  0  0  0  0  0  0  0  0  0  0
    5.4324   -2.4123   -0.2727 H   0  0  0  0  0  0  0  0  0  0  0  0
    6.7880   -2.2160    0.8460 H   0  0  0  0  0  0  0  0  0  0  0  0
    6.5226    0.2365   -2.4094 H   0  0  0  0  0  0  0  0  0  0  0  0
    5.2787   -0.9944   -2.1556 H   0  0  0  0  0  0  0  0  0  0  0  0
    4.1192    0.9573    2.7707 H   0  0  0  0  0  0  0  0  0  0  0  0
    2.1388    2.0524    3.7052 H   0  0  0  0  0  0  0  0  0  0  0  0
    2.1851   -3.0635   -2.9818 H   0  0  0  0  0  0  0  0  0  0  0  0
    2.9792   -2.2364   -1.6434 H   0  0  0  0  0  0  0  0  0  0  0  0
    1.9554   -1.3106   -2.7582 H   0  0  0  0  0  0  0  0  0  0  0  0
  1  5  2  0  0  0  0
  1  6  2  0  0  0  0
  1  8  1  0  0  0  0
  1 21  1  0  0  0  0
  2 15  1  0  0  0  0
  2 18  1  0  0  0  0
  3 14  1  0  0  0  0
  3 19  1  0  0  0  0
  4 20  1  0  0  0  0
  4 24  1  0  0  0  0
  7 33  1  0  0  0  0
  7 34  1  0  0  0  0
  8 16  1  0  0  0  0
  8 46  1  0  0  0  0
  9 10  1  0  0  0  0
  9 17  1  0  0  0  0
  9 20  1  0  0  0  0
 10 12  2  0  0  0  0
 11 12  1  0  0  0  0
 11 20  2  0  0  0  0
 13 29  1  0  0  0  0
 13 30  1  0  0  0  0
 13 31  1  0  0  0  0
 14 15  1  0  0  0  0
 14 16  1  0  0  0  0
 14 38  1  0  0  0  0
 15 17  1  0  0  0  0
 15 39  1  0  0  0  0
 16 18  1  0  0  0  0
 16 40  1  0  0  0  0
 17 19  1  0  0  0  0
 17 41  1  0  0  0  0
 18 42  1  0  0  0  0
 18 43  1  0  0  0  0
 19 44  1  0  0  0  0
 19 45  1  0  0  0  0
 21 22  2  0  0  0  0
 21 23  1  0  0  0  0
 22 25  1  0  0  0  0
 22 47  1  0  0  0  0
 23 26  2  0  0  0  0
 23 48  1  0  0  0  0
 24 27  1  0  0  0  0
 24 32  2  0  0  0  0
 25 28  2  0  0  0  0
 25 49  1  0  0  0  0
 26 28  1  0  0  0  0
 26 50  1  0  0  0  0
 27 29  2  0  0  0  0
 27 51  1  0  0  0  0
 28 37  1  0  0  0  0
 29 35  1  0  0  0  0
 30 33  1  0  0  0  0
 30 52  1  0  0  0  0
 30 53  1  0  0  0  0
 31 34  1  0  0  0  0
 31 54  1  0  0  0  0
 31 55  1  0  0  0  0
 32 36  1  0  0  0  0
 32 56  1  0  0  0  0
 33 57  1  0  0  0  0
 33 58  1  0  0  0  0
 34 59  1  0  0  0  0
 34 60  1  0  0  0  0
 35 36  2  0  0  0  0
 35 61  1  0  0  0  0
 36 62  1  0  0  0  0
 37 63  1  0  0  0  0
 37 64  1  0  0  0  0
 37 65  1  0  0  0  0
M  END
> <PUBCHEM_COMPOUND_CID>
11879614

> <PUBCHEM_CONFORMER_RMSD>
1.2

> <PUBCHEM_CONFORMER_DIVERSEORDER>
1
84
47
193
213
345
15
328
318
286
40
273
279
23
206
232
327
344
165
29
191
276
48
221
204
71
73
31
211
116
288
233
342
64
83
168
244
324
143
225
335
291
197
36
37
177
266
326
6
38
140
290
87
100
141
68
88
99
226
54
181
124
137
155
30
336
194
252
77
353
346
222
63
130
65
305
236
278
315
261
166
340
275
97
321
146
89
175
265
138
51
16
212
227
59
45
39
231
111
341
245
3
317
287
58
297
251
170
220
26
96
25
42
298
214
152
185
196
354
271
158
55
303
20
230
14
219
56
184
216
10
262
283
80
294
115
174
147
169
107
329
195
176
310
347
153
12
122
53
74
136
133
348
292
144
352
331
7
307
179
249
258
112
333
186
228
332
109
92
311
128
207
243
161
263
313
171
94
323
95
218
277
350
250
5
103
118
102
201
160
351
60
123
203
24
241
162
173
198
322
270
293
78
27
319
259
235
106
117
338
264
35
289
237
132
52
157
268
260
101
247
306
295
199
145
285
334
69
2
121
242
309
164
72
129
256
104
159
180
82
224
269
22
325
238
125
19
120
200
314
208
32
17
151
255
349
156
296
312
148
9
223
190
343
300
70
302
154
49
257
149
172
299
316
163
33
301
44
254
21
210
18
62
187
183
28
240
205
284
127
50
98
248
105
282
239
61
119
34
85
110
11
337
178
4
66
272
189
234
192
76
57
267
274
304
46
108
131
134
217
93
135
8
339
43
188
209
150
41
246
167
13
86
113
330
81
79
114
91
280
281
139
215
202
182
67
90
126
320
142
308
253
75
229

> <PUBCHEM_MMFF94_PARTIAL_CHARGES>
45
1 1.45
10 -0.42
11 -0.34
13 -0.84
14 0.28
15 0.28
16 0.36
17 0.26
18 0.28
19 0.28
2 -0.56
20 0.25
21 -0.01
22 -0.15
23 -0.15
24 0.08
25 -0.15
26 -0.15
27 -0.15
28 -0.14
29 0.1
3 -0.56
30 0.37
31 0.37
32 -0.15
33 0.28
34 0.28
35 -0.15
36 -0.15
37 0.14
4 -0.15
46 0.42
47 0.15
48 0.15
49 0.15
5 -0.65
50 0.15
51 0.15
56 0.15
6 -0.65
61 0.15
62 0.15
7 -0.56
8 -0.91
9 0.31

> <PUBCHEM_EFFECTIVE_ROTOR_COUNT>
9.4

> <PUBCHEM_PHARMACOPHORE_FEATURES>
14
1 13 cation
1 2 acceptor
1 3 acceptor
1 5 acceptor
1 6 acceptor
1 7 acceptor
1 8 donor
3 9 11 20 cation
5 2 14 15 16 18 rings
5 3 14 15 17 19 rings
5 9 10 11 12 20 rings
6 21 22 23 25 26 28 rings
6 24 27 29 32 35 36 rings
6 7 13 30 31 33 34 rings

> <PUBCHEM_HEAVY_ATOM_COUNT>
37

> <PUBCHEM_ATOM_DEF_STEREO_COUNT>
4

> <PUBCHEM_ATOM_UDEF_STEREO_COUNT>
0

> <PUBCHEM_BOND_DEF_STEREO_COUNT>
0

> <PUBCHEM_BOND_UDEF_STEREO_COUNT>
0

> <PUBCHEM_ISOTOPIC_ATOM_COUNT>
0

> <PUBCHEM_COMPONENT_COUNT>
1

> <PUBCHEM_CACTVS_TAUTO_COUNT>
1

> <PUBCHEM_CONFORMER_ID>
00B544BE00000001

> <PUBCHEM_MMFF94_ENERGY>
96.112

> <PUBCHEM_FEATURE_SELFOVERLAP>
71.622

> <PUBCHEM_SHAPE_FINGERPRINT>
10032420 55 18053638331674150972
10462674 296 17478602873522581958
11513181 2 17913192179683136854
11756154 5 18335978744526474746
12128747 34 18334576807215014526
12156800 1 11831984088929503615
12422481 6 18050298252300364115
13402501 40 18342741801435536439
14117953 113 18411132550919112357
14251757 5 18333734628219553168
14363568 33 17615144607650616160
14725015 67 18194392304530451859
15001296 14 18042687376445216148
150020 26 17984433102758504514
15324884 4 18124852780777198553
15927050 60 17836638631497428925
16067690 210 18260268581451041738
20764821 26 18267037213348947727
238918 7 18200864102637838482
25223398 141 18338232666481824044
3298306 158 18128806444359705860
3493558 16 18115323210699487574
508706 21 18413107251415651622
5265222 85 18341898481150997172
563151 40 17910695179980722696
70634741 139 18341900663363414604

> <PUBCHEM_SHAPE_MULTIPOLES>
700.19
10.99
6.03
2.07
14.92
2.5
0.3
-3.2
-0.48
-5.68
0
0.59
-0.69
2.72

> <PUBCHEM_SHAPE_SELFOVERLAP>
1512.477

> <PUBCHEM_SHAPE_VOLUME>
386.2

> <PUBCHEM_COORDINATE_TYPE>
2
5
10

$$$$
