45784266
  -OEChem-12032416283D

 47 50  0     1  0  0  0  0  0999 V2000
    7.8177    0.4722   -0.6702 F   0  0  0  0  0  0  0  0  0  0  0  0
    7.4478   -0.6235    1.1711 F   0  0  0  0  0  0  0  0  0  0  0  0
    7.2064   -1.6132   -0.7436 F   0  0  0  0  0  0  0  0  0  0  0  0
   -5.0430   -1.9563   -0.5406 O   0  0  0  0  0  0  0  0  0  0  0  0
   -2.5780    0.0651    0.0359 N   0  0  1  0  0  0  0  0  0  0  0  0
    2.0584   -0.9006    0.7641 N   0  0  0  0  0  0  0  0  0  0  0  0
    1.5304    1.0434   -0.1749 N   0  0  0  0  0  0  0  0  0  0  0  0
   -0.3821   -0.3140    0.7665 C   0  0  1  0  0  0  0  0  0  0  0  0
   -1.0571    0.7228    1.6813 C   0  0  0  0  0  0  0  0  0  0  0  0
   -1.2797   -0.3781   -0.4766 C   0  0  0  0  0  0  0  0  0  0  0  0
   -2.2728    1.2050    0.9005 C   0  0  0  0  0  0  0  0  0  0  0  0
    1.0633   -0.0228    0.4351 C   0  0  0  0  0  0  0  0  0  0  0  0
   -3.5070    0.4110   -1.0298 C   0  0  0  0  0  0  0  0  0  0  0  0
   -4.9320    0.4383   -0.5445 C   0  0  0  0  0  0  0  0  0  0  0  0
    3.2468   -0.3653    0.3378 C   0  0  0  0  0  0  0  0  0  0  0  0
    2.8906    0.8479   -0.2447 C   0  0  0  0  0  0  0  0  0  0  0  0
   -5.6324   -0.7473   -0.3228 C   0  0  0  0  0  0  0  0  0  0  0  0
    4.5625   -0.8240    0.4096 C   0  0  0  0  0  0  0  0  0  0  0  0
   -5.5512    1.6673   -0.3170 C   0  0  0  0  0  0  0  0  0  0  0  0
    3.8937    1.6650   -0.7931 C   0  0  0  0  0  0  0  0  0  0  0  0
    5.5480    0.0018   -0.1412 C   0  0  0  0  0  0  0  0  0  0  0  0
    5.2217    1.2246   -0.7322 C   0  0  0  0  0  0  0  0  0  0  0  0
   -6.9521   -0.7040    0.1265 C   0  0  0  0  0  0  0  0  0  0  0  0
   -6.8711    1.7106    0.1324 C   0  0  0  0  0  0  0  0  0  0  0  0
   -7.5717    0.5249    0.3542 C   0  0  0  0  0  0  0  0  0  0  0  0
    6.9759   -0.4342   -0.0955 C   0  0  0  0  0  0  0  0  0  0  0  0
   -5.8329   -3.1167   -0.2881 C   0  0  0  0  0  0  0  0  0  0  0  0
   -0.4328   -1.2854    1.2796 H   0  0  0  0  0  0  0  0  0  0  0  0
   -1.3758    0.2348    2.6110 H   0  0  0  0  0  0  0  0  0  0  0  0
   -0.4010    1.5567    1.9521 H   0  0  0  0  0  0  0  0  0  0  0  0
   -0.9138    0.2879   -1.2695 H   0  0  0  0  0  0  0  0  0  0  0  0
   -1.3285   -1.3958   -0.8792 H   0  0  0  0  0  0  0  0  0  0  0  0
   -3.0975    1.4556    1.5750 H   0  0  0  0  0  0  0  0  0  0  0  0
   -2.0073    2.0996    0.3224 H   0  0  0  0  0  0  0  0  0  0  0  0
   -3.4532   -0.3373   -1.8332 H   0  0  0  0  0  0  0  0  0  0  0  0
   -3.2398    1.3600   -1.5147 H   0  0  0  0  0  0  0  0  0  0  0  0
    1.9430   -1.7872    1.2370 H   0  0  0  0  0  0  0  0  0  0  0  0
    4.8050   -1.7752    0.8709 H   0  0  0  0  0  0  0  0  0  0  0  0
   -5.0174    2.5991   -0.4837 H   0  0  0  0  0  0  0  0  0  0  0  0
    3.6500    2.6166   -1.2545 H   0  0  0  0  0  0  0  0  0  0  0  0
    5.9935    1.8611   -1.1583 H   0  0  0  0  0  0  0  0  0  0  0  0
   -7.5583   -1.5820    0.3205 H   0  0  0  0  0  0  0  0  0  0  0  0
   -7.3533    2.6674    0.3101 H   0  0  0  0  0  0  0  0  0  0  0  0
   -8.5993    0.5599    0.7042 H   0  0  0  0  0  0  0  0  0  0  0  0
   -6.1132   -3.1926    0.7680 H   0  0  0  0  0  0  0  0  0  0  0  0
   -6.6998   -3.1685   -0.9557 H   0  0  0  0  0  0  0  0  0  0  0  0
   -5.2072   -3.9867   -0.5132 H   0  0  0  0  0  0  0  0  0  0  0  0
  1 26  1  0  0  0  0
  2 26  1  0  0  0  0
  3 26  1  0  0  0  0
  4 17  1  0  0  0  0
  4 27  1  0  0  0  0
  5 10  1  0  0  0  0
  5 11  1  0  0  0  0
  5 13  1  0  0  0  0
  6 12  1  0  0  0  0
  6 15  1  0  0  0  0
  6 37  1  0  0  0  0
  7 12  2  0  0  0  0
  7 16  1  0  0  0  0
  8  9  1  0  0  0  0
  8 10  1  0  0  0  0
  8 12  1  0  0  0  0
  8 28  1  0  0  0  0
  9 11  1  0  0  0  0
  9 29  1  0  0  0  0
  9 30  1  0  0  0  0
 10 31  1  0  0  0  0
 10 32  1  0  0  0  0
 11 33  1  0  0  0  0
 11 34  1  0  0  0  0
 13 14  1  0  0  0  0
 13 35  1  0  0  0  0
 13 36  1  0  0  0  0
 14 17  1  0  0  0  0
 14 19  2  0  0  0  0
 15 16  2  0  0  0  0
 15 18  1  0  0  0  0
 16 20  1  0  0  0  0
 17 23  2  0  0  0  0
 18 21  2  0  0  0  0
 18 38  1  0  0  0  0
 19 24  1  0  0  0  0
 19 39  1  0  0  0  0
 20 22  2  0  0  0  0
 20 40  1  0  0  0  0
 21 22  1  0  0  0  0
 21 26  1  0  0  0  0
 22 41  1  0  0  0  0
 23 25  1  0  0  0  0
 23 42  1  0  0  0  0
 24 25  2  0  0  0  0
 24 43  1  0  0  0  0
 25 44  1  0  0  0  0
 27 45  1  0  0  0  0
 27 46  1  0  0  0  0
 27 47  1  0  0  0  0
M  END
> <PUBCHEM_COMPOUND_CID>
45784266

> <PUBCHEM_CONFORMER_RMSD>
0.8

> <PUBCHEM_CONFORMER_DIVERSEORDER>
1
99
26
65
72
81
10
101
79
66
88
56
107
84
34
28
73
76
68
69
112
29
54
96
104
53
77
106
47
55
70
22
93
85
49
61
87
108
44
64
94
100
115
46
105
57
25
98
111
39
50
13
80
4
92
95
40
8
91
14
63
90
103
33
109
17
74
18
52
6
62
7
2
38
41
58
67
78
51
60
97
110
27
5
42
102
48
59
89
3
114
19
9
24
75
82
20
21
45
83
71
113
86
12
37
23
11
15
32
31
30
16
43
36
35

> <PUBCHEM_MMFF94_PARTIAL_CHARGES>
34
1 -0.34
10 0.27
11 0.27
12 0.01
13 0.41
14 -0.14
15 -0.15
16 0.23
17 0.08
18 -0.15
19 -0.15
2 -0.34
20 -0.15
21 -0.14
22 -0.15
23 -0.15
24 -0.15
25 -0.15
26 1.16
27 0.28
3 -0.34
37 0.27
38 0.15
39 0.15
4 -0.36
40 0.15
41 0.15
42 0.15
43 0.15
44 0.15
5 -0.81
6 0.03
7 -0.57
8 0.18

> <PUBCHEM_EFFECTIVE_ROTOR_COUNT>
6

> <PUBCHEM_PHARMACOPHORE_FEATURES>
8
1 4 acceptor
1 5 cation
1 6 donor
3 6 7 12 cation
5 5 8 9 10 11 rings
5 6 7 12 15 16 rings
6 14 17 19 23 24 25 rings
6 15 16 18 20 21 22 rings

> <PUBCHEM_HEAVY_ATOM_COUNT>
27

> <PUBCHEM_ATOM_DEF_STEREO_COUNT>
1

> <PUBCHEM_ATOM_UDEF_STEREO_COUNT>
0

> <PUBCHEM_BOND_DEF_STEREO_COUNT>
0

> <PUBCHEM_BOND_UDEF_STEREO_COUNT>
0

> <PUBCHEM_ISOTOPIC_ATOM_COUNT>
0

> <PUBCHEM_COMPONENT_COUNT>
1

> <PUBCHEM_CACTVS_TAUTO_COUNT>
2

> <PUBCHEM_CONFORMER_ID>
02BA9CCA00000001

> <PUBCHEM_MMFF94_ENERGY>
62.6853

> <PUBCHEM_FEATURE_SELFOVERLAP>
40.704

> <PUBCHEM_SHAPE_FINGERPRINT>
10 15 11674884398193862561
10066227 49 18129666284123389422
10299344 5 18334013900004531015
10595046 47 18333729139530819653
106641 1 11025808595257388893
10670039 82 15140951825259522252
11135926 11 18409158888550352383
11315181 36 16702301257222071985
11408170 108 18129100010540747678
11524674 6 16988842804888571783
11719270 70 18060701667760007030
11991303 11 15068913000344995635
12091667 2 17022901238383874773
12166972 35 18260550051859245316
12236239 1 18411699902354422004
13533116 47 16370995266362658688
13668630 136 18342460327091796278
13885169 127 18341613694284606353
13914758 101 18334014956387449712
14251752 14 18343582936768827257
14251764 18 17530964670383541384
14251764 46 18411136930809924640
14294032 229 17772484390968879017
14856354 85 18413389861276168975
14933364 13 18407478860320461333
15183329 4 18113328713453936219
15419008 47 17131825443841848440
15419008 91 18129924729158521712
15461852 350 18410862079374333244
15849732 13 18272650143189366188
17093844 174 16917063370159703443
18006028 8 14261348050914670609
18681886 176 18340199782371034706
19841028 212 18340205169026005978
20281389 69 12035451644664115622
21150785 3 18333170574860235900
21267235 1 18409732850240380820
21792961 116 18131633357801177155
220451 1 18187077343680431675
22224240 67 11095878259751470940
23035841 295 18413389843716400355
23198884 109 18113900468454337329
23516275 137 18191885439389283435
23536379 177 18407759227327387369
23559900 14 17917137403132758881
23569943 247 16806993351866120219
23576562 1 17459771391786414582
249057 3 18408039624472963757
2838139 119 17095241427725731381
29717793 49 18343025480495237740
3004659 81 18409445890801326008
314173 85 15338841980099029841
335352 9 17967537866243227142
3545911 37 17094961039227962232
4073 2 17822297932472841995
4098825 35 18333731295182545573
4325135 7 18260547827587567741
4339292 15 17774712182732530663
44317340 157 18131066091015980528
44802255 64 17531231844237943583
5283156 175 17988646268159638264
5758199 1 17530685394335004649
58083652 198 15410889687101423363
58902169 19 18113621213342482790
59755656 215 16988848245968109046
59755656 520 16587743152970949171

> <PUBCHEM_SHAPE_MULTIPOLES>
513.01
24.35
1.86
1
9.73
0.92
-0.19
3.06
2.71
-2.81
0.28
0.21
-0.11
-0.98

> <PUBCHEM_SHAPE_SELFOVERLAP>
1124.222

> <PUBCHEM_SHAPE_VOLUME>
282.8

> <PUBCHEM_COORDINATE_TYPE>
2
5
10

$$$$
