56775457
  -OEChem-12032416273D

 46 48  0     0  0  0  0  0  0999 V2000
    3.8179   -3.8132   -0.8912 Cl  0  0  0  0  0  0  0  0  0  0  0  0
    0.4468    4.0304   -1.1345 O   0  0  0  0  0  0  0  0  0  0  0  0
   -3.8782    0.5069   -0.1842 O   0  0  0  0  0  0  0  0  0  0  0  0
    0.9232    1.0613   -0.3665 N   0  0  0  0  0  0  0  0  0  0  0  0
   -3.0775    1.6005    0.1217 N   0  0  0  0  0  0  0  0  0  0  0  0
    0.1179    2.2293   -0.0373 C   0  0  0  0  0  0  0  0  0  0  0  0
    1.0318    3.4463    0.0516 C   0  0  0  0  0  0  0  0  0  0  0  0
   -0.3819    2.8619   -1.3311 C   0  0  0  0  0  0  0  0  0  0  0  0
   -0.8812    1.9662    1.0973 C   0  0  0  0  0  0  0  0  0  0  0  0
   -1.9681    1.0789    0.6529 C   0  0  0  0  0  0  0  0  0  0  0  0
    1.6172    0.5869    0.8284 C   0  0  0  0  0  0  0  0  0  0  0  0
   -3.9749   -1.9537   -0.0984 C   0  0  0  0  0  0  0  0  0  0  0  0
   -2.0115   -0.3249    0.7073 C   0  0  0  0  0  0  0  0  0  0  0  0
   -3.2327   -0.6340    0.1692 C   0  0  0  0  0  0  0  0  0  0  0  0
    2.8667   -0.1793    0.4839 C   0  0  0  0  0  0  0  0  0  0  0  0
   -5.3679   -1.7683   -0.7419 C   0  0  0  0  0  0  0  0  0  0  0  0
   -4.1840   -2.7107    1.2311 C   0  0  0  0  0  0  0  0  0  0  0  0
   -3.1433   -2.8326   -1.0576 C   0  0  0  0  0  0  0  0  0  0  0  0
    2.7743   -1.4882    0.0108 C   0  0  0  0  0  0  0  0  0  0  0  0
    4.1169    0.4205    0.6369 C   0  0  0  0  0  0  0  0  0  0  0  0
    3.9319   -2.1976   -0.3093 C   0  0  0  0  0  0  0  0  0  0  0  0
    5.2745   -0.2889    0.3171 C   0  0  0  0  0  0  0  0  0  0  0  0
    5.1822   -1.5978   -0.1562 C   0  0  0  0  0  0  0  0  0  0  0  0
    0.8731    4.0916    0.9219 H   0  0  0  0  0  0  0  0  0  0  0  0
    2.1088    3.2976   -0.0823 H   0  0  0  0  0  0  0  0  0  0  0  0
   -0.1330    2.3570   -2.2711 H   0  0  0  0  0  0  0  0  0  0  0  0
   -1.4354    3.1535   -1.3620 H   0  0  0  0  0  0  0  0  0  0  0  0
   -1.3203    2.9260    1.4058 H   0  0  0  0  0  0  0  0  0  0  0  0
   -0.4075    1.5818    2.0068 H   0  0  0  0  0  0  0  0  0  0  0  0
    0.4122    0.2920   -0.7977 H   0  0  0  0  0  0  0  0  0  0  0  0
    0.9710   -0.0734    1.4195 H   0  0  0  0  0  0  0  0  0  0  0  0
    1.9022    1.4072    1.5005 H   0  0  0  0  0  0  0  0  0  0  0  0
   -1.2705   -1.0149    1.0823 H   0  0  0  0  0  0  0  0  0  0  0  0
   -5.2918   -1.2527   -1.7063 H   0  0  0  0  0  0  0  0  0  0  0  0
   -6.0226   -1.1675   -0.0998 H   0  0  0  0  0  0  0  0  0  0  0  0
   -5.8625   -2.7308   -0.9157 H   0  0  0  0  0  0  0  0  0  0  0  0
   -4.7755   -2.1142    1.9357 H   0  0  0  0  0  0  0  0  0  0  0  0
   -3.2271   -2.9365    1.7160 H   0  0  0  0  0  0  0  0  0  0  0  0
   -4.7062   -3.6610    1.0723 H   0  0  0  0  0  0  0  0  0  0  0  0
   -2.1577   -3.0613   -0.6353 H   0  0  0  0  0  0  0  0  0  0  0  0
   -2.9790   -2.3246   -2.0152 H   0  0  0  0  0  0  0  0  0  0  0  0
   -3.6441   -3.7856   -1.2626 H   0  0  0  0  0  0  0  0  0  0  0  0
    1.7983   -1.9540   -0.1069 H   0  0  0  0  0  0  0  0  0  0  0  0
    4.2044    1.4405    1.0016 H   0  0  0  0  0  0  0  0  0  0  0  0
    6.2478    0.1782    0.4358 H   0  0  0  0  0  0  0  0  0  0  0  0
    6.0927   -2.1384   -0.4015 H   0  0  0  0  0  0  0  0  0  0  0  0
  1 21  1  0  0  0  0
  2  7  1  0  0  0  0
  2  8  1  0  0  0  0
  3  5  1  0  0  0  0
  3 14  1  0  0  0  0
  4  6  1  0  0  0  0
  4 11  1  0  0  0  0
  4 30  1  0  0  0  0
  5 10  2  0  0  0  0
  6  7  1  0  0  0  0
  6  8  1  0  0  0  0
  6  9  1  0  0  0  0
  7 24  1  0  0  0  0
  7 25  1  0  0  0  0
  8 26  1  0  0  0  0
  8 27  1  0  0  0  0
  9 10  1  0  0  0  0
  9 28  1  0  0  0  0
  9 29  1  0  0  0  0
 10 13  1  0  0  0  0
 11 15  1  0  0  0  0
 11 31  1  0  0  0  0
 11 32  1  0  0  0  0
 12 14  1  0  0  0  0
 12 16  1  0  0  0  0
 12 17  1  0  0  0  0
 12 18  1  0  0  0  0
 13 14  2  0  0  0  0
 13 33  1  0  0  0  0
 15 19  2  0  0  0  0
 15 20  1  0  0  0  0
 16 34  1  0  0  0  0
 16 35  1  0  0  0  0
 16 36  1  0  0  0  0
 17 37  1  0  0  0  0
 17 38  1  0  0  0  0
 17 39  1  0  0  0  0
 18 40  1  0  0  0  0
 18 41  1  0  0  0  0
 18 42  1  0  0  0  0
 19 21  1  0  0  0  0
 19 43  1  0  0  0  0
 20 22  2  0  0  0  0
 20 44  1  0  0  0  0
 21 23  2  0  0  0  0
 22 23  1  0  0  0  0
 22 45  1  0  0  0  0
 23 46  1  0  0  0  0
M  END
> <PUBCHEM_COMPOUND_CID>
56775457

> <PUBCHEM_CONFORMER_RMSD>
0.8

> <PUBCHEM_CONFORMER_DIVERSEORDER>
1
15
159
108
178
135
94
158
204
163
181
64
167
172
140
162
9
145
103
67
81
99
205
82
106
146
192
73
97
83
52
49
120
171
54
125
189
197
143
150
149
153
183
119
123
141
164
136
122
185
138
87
157
147
190
84
116
194
188
107
203
11
105
98
175
134
191
126
115
201
90
121
152
89
130
117
20
33
199
179
184
111
32
56
113
187
129
92
57
174
7
161
100
30
118
200
41
132
102
131
71
142
14
72
151
85
124
112
63
196
13
8
180
186
35
165
177
24
156
27
169
34
173
39
148
40
91
182
110
101
70
96
198
48
114
195
42
28
95
75
18
10
155
65
50
170
80
45
160
168
37
127
166
144
193
51
12
55
137
79
154
93
59
66
76
139
60
133
23
69
128
31
38
74
22
104
47
77
61
53
26
21
62
46
86
109
17
6
19
202
2
5
78
43
25
68
4
16
58
88
44
3
36
176
29

> <PUBCHEM_MMFF94_PARTIAL_CHARGES>
26
1 -0.18
10 0.11
11 0.41
12 0.18
13 -0.15
14 -0.04
15 -0.14
19 -0.15
2 -0.52
20 -0.15
21 0.18
22 -0.15
23 -0.15
3 -0.02
30 0.36
33 0.15
4 -0.84
43 0.15
44 0.15
45 0.15
46 0.15
5 -0.41
6 0.21
7 0.26
8 0.26
9 0.18

> <PUBCHEM_EFFECTIVE_ROTOR_COUNT>
6.8

> <PUBCHEM_PHARMACOPHORE_FEATURES>
8
1 2 acceptor
1 4 cation
1 4 donor
1 5 acceptor
4 12 16 17 18 hydrophobe
4 2 6 7 8 rings
5 3 5 10 13 14 rings
6 15 19 20 21 22 23 rings

> <PUBCHEM_HEAVY_ATOM_COUNT>
23

> <PUBCHEM_ATOM_DEF_STEREO_COUNT>
0

> <PUBCHEM_ATOM_UDEF_STEREO_COUNT>
0

> <PUBCHEM_BOND_DEF_STEREO_COUNT>
0

> <PUBCHEM_BOND_UDEF_STEREO_COUNT>
0

> <PUBCHEM_ISOTOPIC_ATOM_COUNT>
0

> <PUBCHEM_COMPONENT_COUNT>
1

> <PUBCHEM_CACTVS_TAUTO_COUNT>
1

> <PUBCHEM_CONFORMER_ID>
0362532100000001

> <PUBCHEM_MMFF94_ENERGY>
53.1619

> <PUBCHEM_FEATURE_SELFOVERLAP>
40.596

> <PUBCHEM_SHAPE_FINGERPRINT>
11069576 57 17838600511990441215
11315621 246 18196669410481323758
11552529 35 17988920037870119994
12623949 98 17846791689118596294
12633257 1 17628365874250312434
12788726 201 17897722063859501080
12969540 37 18269828869288023336
13544653 18 18343585161218839625
13989917 61 17978793738043946195
1454969 45 18338232799715357468
14863182 85 17907578378106502016
14910302 57 18123747561443360162
15352361 1 18411980269161134907
15415430 10 18410571807798328000
15849732 13 18191316983540709641
15927050 60 17259343796603170404
17492 89 18192993944725412307
1813 80 18333731338047731548
19141452 34 18268716013038798113
20645477 70 17973433593119083819
20775530 9 18411697694641226050
21315759 227 17969499492827974723
21344244 181 17834092170877704301
221490 88 18190463955273216075
23379529 103 18127700318646532526
23559900 14 18265042725469109617
26353 1 17676206861941142868
2838139 119 8070035445297494995
314194 84 18270120252448220243
325973 47 17835798973237684238
3421961 26 18339078323186381129
4280585 95 18260817211936149144
46194498 28 17824810377204277509
463206 1 18126564750430709179
5207 123 18410567405894524215
56633871 153 18269569256000785155
613672 6 18336539503625199115
7399639 24 18270664421485661000
9709674 26 18196936565715204898

> <PUBCHEM_SHAPE_MULTIPOLES>
453.5
11.15
4.84
1.08
1.66
1.15
-0.06
-11.97
-0.04
0.34
-1.72
-0.41
0.09
0.57

> <PUBCHEM_SHAPE_SELFOVERLAP>
947.426

> <PUBCHEM_SHAPE_VOLUME>
260.9

> <PUBCHEM_COORDINATE_TYPE>
2
5
10

$$$$
