45783710
  -OEChem-12032416263D

 52 55  0     1  0  0  0  0  0999 V2000
   -1.8565   -1.7854    1.8595 O   0  0  0  0  0  0  0  0  0  0  0  0
    5.1827   -1.8443   -0.9635 O   0  0  0  0  0  0  0  0  0  0  0  0
    2.5910    2.9461   -1.4302 O   0  0  0  0  0  0  0  0  0  0  0  0
   -3.7939   -0.0054   -0.7062 N   0  0  1  0  0  0  0  0  0  0  0  0
   -1.1184   -1.2192   -0.1780 N   0  0  0  0  0  0  0  0  0  0  0  0
   -0.4703   -1.9856    1.8779 N   0  0  0  0  0  0  0  0  0  0  0  0
    1.5893    3.1154    0.6973 N   0  0  0  0  0  0  0  0  0  0  0  0
    3.5733   -2.1571    0.6785 N   0  0  0  0  0  0  0  0  0  0  0  0
   -3.6135   -1.0376    0.3342 C   0  0  1  0  0  0  0  0  0  0  0  0
   -4.3791   -2.2643   -0.1950 C   0  0  0  0  0  0  0  0  0  0  0  0
   -5.0056   -1.8076   -1.5049 C   0  0  0  0  0  0  0  0  0  0  0  0
   -5.0669   -0.3000   -1.3644 C   0  0  0  0  0  0  0  0  0  0  0  0
   -3.7498    1.3533   -0.1811 C   0  0  0  0  0  0  0  0  0  0  0  0
   -2.1550   -1.3344    0.6131 C   0  0  0  0  0  0  0  0  0  0  0  0
   -2.3370    1.8190    0.0512 C   0  0  0  0  0  0  0  0  0  0  0  0
   -1.9350    2.2172    1.3261 C   0  0  0  0  0  0  0  0  0  0  0  0
   -1.4301    1.8526   -1.0082 C   0  0  0  0  0  0  0  0  0  0  0  0
   -0.1078   -1.6299    0.6418 C   0  0  0  0  0  0  0  0  0  0  0  0
   -0.6265    2.6493    1.5417 C   0  0  0  0  0  0  0  0  0  0  0  0
   -0.1215    2.2847   -0.7928 C   0  0  0  0  0  0  0  0  0  0  0  0
    0.2802    2.6831    0.4823 C   0  0  0  0  0  0  0  0  0  0  0  0
    1.2543   -1.6749    0.1941 C   0  0  0  0  0  0  0  0  0  0  0  0
    1.5951   -1.2987   -1.1003 C   0  0  0  0  0  0  0  0  0  0  0  0
    2.2713   -2.0928    1.0372 C   0  0  0  0  0  0  0  0  0  0  0  0
    2.9241   -1.3513   -1.5064 C   0  0  0  0  0  0  0  0  0  0  0  0
    2.6309    3.2170   -0.2345 C   0  0  0  0  0  0  0  0  0  0  0  0
    3.8664   -1.7837   -0.5873 C   0  0  0  0  0  0  0  0  0  0  0  0
    3.8998    3.7296    0.3992 C   0  0  0  0  0  0  0  0  0  0  0  0
    6.1086   -2.2950    0.0184 C   0  0  0  0  0  0  0  0  0  0  0  0
   -4.0906   -0.7292    1.2752 H   0  0  0  0  0  0  0  0  0  0  0  0
   -3.7482   -3.1459   -0.3521 H   0  0  0  0  0  0  0  0  0  0  0  0
   -5.1702   -2.5388    0.5135 H   0  0  0  0  0  0  0  0  0  0  0  0
   -4.3582   -2.0877   -2.3452 H   0  0  0  0  0  0  0  0  0  0  0  0
   -5.9904   -2.2542   -1.6704 H   0  0  0  0  0  0  0  0  0  0  0  0
   -5.1511    0.1914   -2.3386 H   0  0  0  0  0  0  0  0  0  0  0  0
   -5.9235   -0.0104   -0.7425 H   0  0  0  0  0  0  0  0  0  0  0  0
   -4.1819    2.0501   -0.9132 H   0  0  0  0  0  0  0  0  0  0  0  0
   -4.3634    1.4599    0.7231 H   0  0  0  0  0  0  0  0  0  0  0  0
   -2.6302    2.1942    2.1611 H   0  0  0  0  0  0  0  0  0  0  0  0
   -1.7308    1.5492   -2.0077 H   0  0  0  0  0  0  0  0  0  0  0  0
   -0.3267    2.9558    2.5406 H   0  0  0  0  0  0  0  0  0  0  0  0
    0.5225    2.2822   -1.6610 H   0  0  0  0  0  0  0  0  0  0  0  0
    1.8048    3.3883    1.6540 H   0  0  0  0  0  0  0  0  0  0  0  0
    0.8476   -0.9600   -1.8130 H   0  0  0  0  0  0  0  0  0  0  0  0
    2.0895   -2.4024    2.0621 H   0  0  0  0  0  0  0  0  0  0  0  0
    3.2066   -1.0605   -2.5122 H   0  0  0  0  0  0  0  0  0  0  0  0
    4.6936    3.7825   -0.3510 H   0  0  0  0  0  0  0  0  0  0  0  0
    3.7308    4.7292    0.8093 H   0  0  0  0  0  0  0  0  0  0  0  0
    4.2134    3.0537    1.1998 H   0  0  0  0  0  0  0  0  0  0  0  0
    6.1230   -1.6225    0.8827 H   0  0  0  0  0  0  0  0  0  0  0  0
    5.8857   -3.3220    0.3265 H   0  0  0  0  0  0  0  0  0  0  0  0
    7.1061   -2.2872   -0.4311 H   0  0  0  0  0  0  0  0  0  0  0  0
  1  6  1  0  0  0  0
  1 14  1  0  0  0  0
  2 27  1  0  0  0  0
  2 29  1  0  0  0  0
  3 26  2  0  0  0  0
  4  9  1  0  0  0  0
  4 12  1  0  0  0  0
  4 13  1  0  0  0  0
  5 14  2  0  0  0  0
  5 18  1  0  0  0  0
  6 18  2  0  0  0  0
  7 21  1  0  0  0  0
  7 26  1  0  0  0  0
  7 43  1  0  0  0  0
  8 24  1  0  0  0  0
  8 27  2  0  0  0  0
  9 10  1  0  0  0  0
  9 14  1  0  0  0  0
  9 30  1  0  0  0  0
 10 11  1  0  0  0  0
 10 31  1  0  0  0  0
 10 32  1  0  0  0  0
 11 12  1  0  0  0  0
 11 33  1  0  0  0  0
 11 34  1  0  0  0  0
 12 35  1  0  0  0  0
 12 36  1  0  0  0  0
 13 15  1  0  0  0  0
 13 37  1  0  0  0  0
 13 38  1  0  0  0  0
 15 16  2  0  0  0  0
 15 17  1  0  0  0  0
 16 19  1  0  0  0  0
 16 39  1  0  0  0  0
 17 20  2  0  0  0  0
 17 40  1  0  0  0  0
 18 22  1  0  0  0  0
 19 21  2  0  0  0  0
 19 41  1  0  0  0  0
 20 21  1  0  0  0  0
 20 42  1  0  0  0  0
 22 23  1  0  0  0  0
 22 24  2  0  0  0  0
 23 25  2  0  0  0  0
 23 44  1  0  0  0  0
 24 45  1  0  0  0  0
 25 27  1  0  0  0  0
 25 46  1  0  0  0  0
 26 28  1  0  0  0  0
 28 47  1  0  0  0  0
 28 48  1  0  0  0  0
 28 49  1  0  0  0  0
 29 50  1  0  0  0  0
 29 51  1  0  0  0  0
 29 52  1  0  0  0  0
M  END
> <PUBCHEM_COMPOUND_CID>
45783710

> <PUBCHEM_CONFORMER_RMSD>
1

> <PUBCHEM_CONFORMER_DIVERSEORDER>
1
70
48
3
29
47
67
11
61
63
19
59
12
16
7
27
69
8
46
55
21
54
53
38
2
34
26
9
24
68
57
51
56
40
62
28
35
4
10
18
65
66
14
33
52
50
17
5
64
42
37
43
39
31
20
49
60
6
32
15
44
25
41
30
22
58
13
23
36
45

> <PUBCHEM_MMFF94_PARTIAL_CHARGES>
35
1 -0.02
12 0.27
13 0.41
14 0.3
15 -0.14
16 -0.15
17 -0.15
18 0.46
19 -0.15
2 -0.36
20 -0.15
21 0.12
22 0.05
23 -0.15
24 0.16
25 -0.15
26 0.57
27 0.39
28 0.06
29 0.28
3 -0.57
39 0.15
4 -0.81
40 0.15
41 0.15
42 0.15
43 0.37
44 0.15
45 0.15
46 0.15
5 -0.57
6 -0.41
7 -0.55
8 -0.62
9 0.45

> <PUBCHEM_EFFECTIVE_ROTOR_COUNT>
8

> <PUBCHEM_PHARMACOPHORE_FEATURES>
8
1 3 acceptor
1 4 cation
1 7 donor
3 5 6 18 cation
5 1 5 6 14 18 rings
5 4 9 10 11 12 rings
6 15 16 17 19 20 21 rings
6 8 22 23 24 25 27 rings

> <PUBCHEM_HEAVY_ATOM_COUNT>
29

> <PUBCHEM_ATOM_DEF_STEREO_COUNT>
1

> <PUBCHEM_ATOM_UDEF_STEREO_COUNT>
0

> <PUBCHEM_BOND_DEF_STEREO_COUNT>
0

> <PUBCHEM_BOND_UDEF_STEREO_COUNT>
0

> <PUBCHEM_ISOTOPIC_ATOM_COUNT>
0

> <PUBCHEM_COMPONENT_COUNT>
1

> <PUBCHEM_CACTVS_TAUTO_COUNT>
2

> <PUBCHEM_CONFORMER_ID>
02BA9A9E00000001

> <PUBCHEM_MMFF94_ENERGY>
68.9401

> <PUBCHEM_FEATURE_SELFOVERLAP>
40.597

> <PUBCHEM_SHAPE_FINGERPRINT>
107951 10 17099446119220129681
1100329 8 18268155258103821817
12107698 1 18342453725452801102
12156800 1 15649268115776206676
12166972 35 17967538956184102646
12645989 146 18270402660288052414
13761468 95 17325227134201744926
14784336 7 18187352191391535354
14790565 3 17476921251744455065
16090146 7 17703796856890276931
17492 54 17972869277545553405
18336668 15 18041289751369280292
20028762 73 16539330874833771447
20642791 239 18117828911900056321
20642791 35 18335409129195487349
20691752 17 17821721741715417221
20721686 56 18410012170066350328
20764821 26 18337688442295403352
20775438 99 17691942171059000879
20905425 154 18268997651498117829
21344244 246 18124303068049951679
22182313 1 17969790876747216155
23557571 272 18058165033798665983
23559900 14 18411409605477754225
238918 7 17907017627487195728
3298306 158 18050565441244754069
373842 8 18411133659179319960
392239 28 18265617572771883408
4280585 95 18337380527246628784
532947 4 18265330792634784102
59755656 215 17905316687658178927
7471813 234 18342174479442882366

> <PUBCHEM_SHAPE_MULTIPOLES>
554.29
10.08
4.91
1.5
2.93
4.08
0.15
-6.95
-3.5
4.45
0.57
-0.4
-0.22
-0.26

> <PUBCHEM_SHAPE_SELFOVERLAP>
1196.809

> <PUBCHEM_SHAPE_VOLUME>
305.7

> <PUBCHEM_COORDINATE_TYPE>
2
5
10

$$$$
