45784243
  -OEChem-12032416243D

 47 50  0     1  0  0  0  0  0999 V2000
   -7.7098   -1.1883   -0.3073 F   0  0  0  0  0  0  0  0  0  0  0  0
    7.5395    0.0690    0.1083 O   0  0  0  0  0  0  0  0  0  0  0  0
    1.4711    0.9182   -0.4024 N   0  0  1  0  0  0  0  0  0  0  0  0
    5.3337   -0.6076    0.3812 N   0  0  0  0  0  0  0  0  0  0  0  0
   -3.1813    0.2839   -1.3571 N   0  0  0  0  0  0  0  0  0  0  0  0
   -2.5503    0.3451    0.7731 N   0  0  0  0  0  0  0  0  0  0  0  0
    2.5808    0.2856    0.3066 C   0  0  0  0  0  0  0  0  0  0  0  0
   -0.8101    0.9934   -0.9410 C   0  0  2  0  0  0  0  0  0  0  0  0
    0.3137    0.0308   -0.5341 C   0  0  0  0  0  0  0  0  0  0  0  0
    0.9638    2.0986    0.2971 C   0  0  0  0  0  0  0  0  0  0  0  0
   -0.3627    2.3638   -0.4033 C   0  0  0  0  0  0  0  0  0  0  0  0
    3.7437    1.2751    0.4544 C   0  0  0  0  0  0  0  0  0  0  0  0
    3.0382   -0.9710   -0.4455 C   0  0  0  0  0  0  0  0  0  0  0  0
    4.9504    0.6044    1.1084 C   0  0  0  0  0  0  0  0  0  0  0  0
    4.2603   -1.5973    0.2261 C   0  0  0  0  0  0  0  0  0  0  0  0
   -2.1730    0.5407   -0.4704 C   0  0  0  0  0  0  0  0  0  0  0  0
    6.6452   -0.7630   -0.0661 C   0  0  0  0  0  0  0  0  0  0  0  0
   -4.2827   -0.1036   -0.6378 C   0  0  0  0  0  0  0  0  0  0  0  0
   -3.8635   -0.0571    0.6888 C   0  0  0  0  0  0  0  0  0  0  0  0
    6.9594   -2.0371   -0.8088 C   0  0  0  0  0  0  0  0  0  0  0  0
   -5.5703   -0.4791   -1.0221 C   0  0  0  0  0  0  0  0  0  0  0  0
   -4.7694   -0.4025    1.7058 C   0  0  0  0  0  0  0  0  0  0  0  0
   -6.4590   -0.8196    0.0031 C   0  0  0  0  0  0  0  0  0  0  0  0
   -6.0677   -0.7826    1.3435 C   0  0  0  0  0  0  0  0  0  0  0  0
    2.2593   -0.0169    1.3140 H   0  0  0  0  0  0  0  0  0  0  0  0
   -0.8263    1.0626   -2.0386 H   0  0  0  0  0  0  0  0  0  0  0  0
    0.0808   -0.4772    0.4112 H   0  0  0  0  0  0  0  0  0  0  0  0
    0.4506   -0.7278   -1.3122 H   0  0  0  0  0  0  0  0  0  0  0  0
    1.6165    2.9713    0.1994 H   0  0  0  0  0  0  0  0  0  0  0  0
    0.7881    1.9012    1.3624 H   0  0  0  0  0  0  0  0  0  0  0  0
   -0.2147    3.0534   -1.2438 H   0  0  0  0  0  0  0  0  0  0  0  0
   -1.0880    2.8215    0.2777 H   0  0  0  0  0  0  0  0  0  0  0  0
    4.0374    1.6600   -0.5314 H   0  0  0  0  0  0  0  0  0  0  0  0
    3.4676    2.1353    1.0738 H   0  0  0  0  0  0  0  0  0  0  0  0
    2.2512   -1.7324   -0.4765 H   0  0  0  0  0  0  0  0  0  0  0  0
    3.2910   -0.7168   -1.4836 H   0  0  0  0  0  0  0  0  0  0  0  0
    5.7848    1.3114    1.1547 H   0  0  0  0  0  0  0  0  0  0  0  0
    4.7149    0.3080    2.1375 H   0  0  0  0  0  0  0  0  0  0  0  0
    4.5844   -2.4655   -0.3503 H   0  0  0  0  0  0  0  0  0  0  0  0
    4.0027   -1.9543    1.2305 H   0  0  0  0  0  0  0  0  0  0  0  0
   -3.1285    0.3638   -2.3640 H   0  0  0  0  0  0  0  0  0  0  0  0
    8.0112   -2.0321   -1.1111 H   0  0  0  0  0  0  0  0  0  0  0  0
    6.7952   -2.9026   -0.1615 H   0  0  0  0  0  0  0  0  0  0  0  0
    6.3465   -2.1097   -1.7111 H   0  0  0  0  0  0  0  0  0  0  0  0
   -5.8719   -0.5071   -2.0629 H   0  0  0  0  0  0  0  0  0  0  0  0
   -4.4750   -0.3769    2.7501 H   0  0  0  0  0  0  0  0  0  0  0  0
   -6.7811   -1.0528    2.1178 H   0  0  0  0  0  0  0  0  0  0  0  0
  1 23  1  0  0  0  0
  2 17  2  0  0  0  0
  3  7  1  0  0  0  0
  3  9  1  0  0  0  0
  3 10  1  0  0  0  0
  4 14  1  0  0  0  0
  4 15  1  0  0  0  0
  4 17  1  0  0  0  0
  5 16  1  0  0  0  0
  5 18  1  0  0  0  0
  5 41  1  0  0  0  0
  6 16  2  0  0  0  0
  6 19  1  0  0  0  0
  7 12  1  0  0  0  0
  7 13  1  0  0  0  0
  7 25  1  0  0  0  0
  8  9  1  0  0  0  0
  8 11  1  0  0  0  0
  8 16  1  0  0  0  0
  8 26  1  0  0  0  0
  9 27  1  0  0  0  0
  9 28  1  0  0  0  0
 10 11  1  0  0  0  0
 10 29  1  0  0  0  0
 10 30  1  0  0  0  0
 11 31  1  0  0  0  0
 11 32  1  0  0  0  0
 12 14  1  0  0  0  0
 12 33  1  0  0  0  0
 12 34  1  0  0  0  0
 13 15  1  0  0  0  0
 13 35  1  0  0  0  0
 13 36  1  0  0  0  0
 14 37  1  0  0  0  0
 14 38  1  0  0  0  0
 15 39  1  0  0  0  0
 15 40  1  0  0  0  0
 17 20  1  0  0  0  0
 18 19  2  0  0  0  0
 18 21  1  0  0  0  0
 19 22  1  0  0  0  0
 20 42  1  0  0  0  0
 20 43  1  0  0  0  0
 20 44  1  0  0  0  0
 21 23  2  0  0  0  0
 21 45  1  0  0  0  0
 22 24  2  0  0  0  0
 22 46  1  0  0  0  0
 23 24  1  0  0  0  0
 24 47  1  0  0  0  0
M  END
> <PUBCHEM_COMPOUND_CID>
45784243

> <PUBCHEM_CONFORMER_RMSD>
0.8

> <PUBCHEM_CONFORMER_DIVERSEORDER>
1
44
24
54
46
53
17
13
26
38
41
36
48
32
31
29
34
50
12
22
5
23
42
15
25
28
43
11
16
14
40
21
49
8
37
45
39
30
51
18
2
52
47
10
7
33
20
9
3
27
6
35
4
19

> <PUBCHEM_MMFF94_PARTIAL_CHARGES>
25
1 -0.19
10 0.27
14 0.3
15 0.3
16 0.01
17 0.57
18 -0.15
19 0.23
2 -0.57
20 0.06
21 -0.15
22 -0.15
23 0.19
24 -0.15
3 -0.81
4 -0.66
41 0.27
45 0.15
46 0.15
47 0.15
5 0.03
6 -0.57
7 0.27
8 0.18
9 0.27

> <PUBCHEM_EFFECTIVE_ROTOR_COUNT>
5.2

> <PUBCHEM_PHARMACOPHORE_FEATURES>
8
1 2 acceptor
1 3 cation
1 5 donor
3 5 6 16 cation
5 3 8 9 10 11 rings
5 5 6 16 18 19 rings
6 18 19 21 22 23 24 rings
6 4 7 12 13 14 15 rings

> <PUBCHEM_HEAVY_ATOM_COUNT>
24

> <PUBCHEM_ATOM_DEF_STEREO_COUNT>
1

> <PUBCHEM_ATOM_UDEF_STEREO_COUNT>
0

> <PUBCHEM_BOND_DEF_STEREO_COUNT>
0

> <PUBCHEM_BOND_UDEF_STEREO_COUNT>
0

> <PUBCHEM_ISOTOPIC_ATOM_COUNT>
0

> <PUBCHEM_COMPONENT_COUNT>
1

> <PUBCHEM_CACTVS_TAUTO_COUNT>
2

> <PUBCHEM_CONFORMER_ID>
02BA9CB300000001

> <PUBCHEM_MMFF94_ENERGY>
39.1249

> <PUBCHEM_FEATURE_SELFOVERLAP>
40.704

> <PUBCHEM_SHAPE_FINGERPRINT>
10299344 5 17632859733255754806
106641 1 17775281698893855090
11315181 36 17095245821994174613
11796584 16 17167858686378075825
12166972 35 18130787884271888776
12236239 1 17418091044127178049
12516196 113 18409444791010266129
12596602 18 17203606012251391042
12760667 363 18407761430687834233
13288520 33 17385723608729659957
13402501 40 18186804681560212435
13533116 47 18272086149343023296
13668630 136 18333450945413549859
13673619 4 18333168366683238676
13685833 64 18409729560400751710
13885169 127 18334856079126060501
13914758 101 18343019974816837889
14123256 34 18260834799399854146
1420 363 18334296457460654258
14251764 18 17346598590707984020
14739800 52 15839846654960117064
14849402 71 17059484275115495304
15183329 4 14851602180925767319
15238133 3 14836402549753541136
15301273 46 17703795777545171924
15461852 350 15195276518136690189
15510800 12 18041292057804200315
15537594 2 18410849958745164926
15690457 1 18131064970393292375
15716309 27 18130787858364531655
17492 89 18048593725719668474
17844677 252 18410013234264217661
18006028 8 18334857220832883165
1813 80 18341625797154794117
18335252 114 8718833059028740514
18335252 98 18412263922846573670
18681886 176 15647337484615446325
19784866 240 18186806880915608077
20281389 69 12679459781465671330
20715895 44 8934991586789562462
21033650 10 15719666572701563741
21049683 271 18334580179086037268
21150785 3 15213020457637641798
21267235 1 18342739598934737868
21623969 137 18410576175870063598
22224240 67 17846776321514406094
22288116 15 12468653750024856081
23522609 53 18127159491700764512
23559900 14 16733832033649933221
246663 6 18343305851813111286
2767999 5 10015863176190080146
2838139 119 11527942327020901138
300161 21 7853570210634484404
3004659 81 16805041839064905196
3009799 131 13334740132965665926
335352 9 16081361974299901487
34797466 226 17022905691658559628
4340502 62 14764350435941188188
437815 12 18187082871461785253
465052 167 18413673526005647132
5104073 3 18199177387988030352
5385378 56 11815627367254872196
54039377 194 18058454215181245126
59755656 215 17967249784636722546
59755656 520 12103557567826021461
636775 8 17749120988664648298
9663363 56 18334006198722130285
9862886 166 17240490216721870242
999808 66 18187373129483079755

> <PUBCHEM_SHAPE_MULTIPOLES>
460.84
20.79
1.72
1.17
3.68
0.46
0.18
-12.24
1.62
1.64
-0.15
-1.25
-0.07
1.01

> <PUBCHEM_SHAPE_SELFOVERLAP>
992.811

> <PUBCHEM_SHAPE_VOLUME>
257

> <PUBCHEM_COORDINATE_TYPE>
2
5
10

$$$$
