11882114
  -OEChem-12032416123D

 81 84  0     1  0  0  0  0  0999 V2000
    3.0653   -1.9864   -1.5526 O   0  0  0  0  0  0  0  0  0  0  0  0
    2.8259    0.2278    1.2627 O   0  0  0  0  0  0  0  0  0  0  0  0
   -2.9558   -0.0068    1.4443 O   0  0  0  0  0  0  0  0  0  0  0  0
    3.9338    1.9053   -2.1755 O   0  0  0  0  0  0  0  0  0  0  0  0
    1.6679   -1.9691    0.2927 N   0  0  0  0  0  0  0  0  0  0  0  0
   -1.3656   -1.1908    0.2387 N   0  0  0  0  0  0  0  0  0  0  0  0
   -3.5972   -1.4818   -0.2302 N   0  0  0  0  0  0  0  0  0  0  0  0
    1.8563    1.5120   -0.4193 N   0  0  0  0  0  0  0  0  0  0  0  0
    5.0334    3.1009   -0.5516 N   0  0  0  0  0  0  0  0  0  0  0  0
   -0.7475    4.9073    1.6521 N   0  0  0  0  0  0  0  0  0  0  0  0
   -0.2059   -0.6533    0.9096 C   0  0  2  0  0  0  0  0  0  0  0  0
    1.0215   -0.6939   -0.0007 C   0  0  1  0  0  0  0  0  0  0  0  0
    0.2036   -1.5258    2.0992 C   0  0  0  0  0  0  0  0  0  0  0  0
    1.0885   -2.5980    1.4765 C   0  0  0  0  0  0  0  0  0  0  0  0
   -5.0250   -1.2868   -0.1087 C   0  0  0  0  0  0  0  0  0  0  0  0
    2.5959   -2.5464   -0.5605 C   0  0  0  0  0  0  0  0  0  0  0  0
    2.0078    0.3772    0.3590 C   0  0  0  0  0  0  0  0  0  0  0  0
   -5.6245   -2.2386    0.9319 C   0  0  0  0  0  0  0  0  0  0  0  0
   -5.7191   -1.4395   -1.4663 C   0  0  0  0  0  0  0  0  0  0  0  0
    3.0302   -3.9445   -0.1987 C   0  0  0  0  0  0  0  0  0  0  0  0
    4.5345   -4.0413    0.1131 C   0  0  0  0  0  0  0  0  0  0  0  0
   -5.6578   -3.6883    0.4480 C   0  0  0  0  0  0  0  0  0  0  0  0
   -5.7524   -2.8905   -1.9462 C   0  0  0  0  0  0  0  0  0  0  0  0
   -6.3631   -3.8163   -0.8987 C   0  0  0  0  0  0  0  0  0  0  0  0
   -2.6672   -0.8179    0.5653 C   0  0  0  0  0  0  0  0  0  0  0  0
    2.6687    2.6960   -0.2573 C   0  0  2  0  0  0  0  0  0  0  0  0
    4.8342   -3.0944    1.2904 C   0  0  0  0  0  0  0  0  0  0  0  0
    4.9262   -5.4714    0.5222 C   0  0  0  0  0  0  0  0  0  0  0  0
    5.3814   -3.6051   -1.0946 C   0  0  0  0  0  0  0  0  0  0  0  0
    1.9302    3.9704   -0.6856 C   0  0  0  0  0  0  0  0  0  0  0  0
    3.9207    2.4982   -1.0994 C   0  0  0  0  0  0  0  0  0  0  0  0
    0.6660    4.2076    0.0902 C   0  0  0  0  0  0  0  0  0  0  0  0
   -0.6353    3.7402   -0.2460 C   0  0  0  0  0  0  0  0  0  0  0  0
    0.5646    4.9218    1.2618 C   0  0  0  0  0  0  0  0  0  0  0  0
   -1.5034    4.1929    0.7499 C   0  0  0  0  0  0  0  0  0  0  0  0
   -1.1596    2.9730   -1.3052 C   0  0  0  0  0  0  0  0  0  0  0  0
   -2.8750    3.9156    0.7394 C   0  0  0  0  0  0  0  0  0  0  0  0
   -2.5297    2.6878   -1.3287 C   0  0  0  0  0  0  0  0  0  0  0  0
   -3.3724    3.1529   -0.3211 C   0  0  0  0  0  0  0  0  0  0  0  0
   -0.4443    0.3632    1.2435 H   0  0  0  0  0  0  0  0  0  0  0  0
    0.7780   -0.6474   -1.0687 H   0  0  0  0  0  0  0  0  0  0  0  0
   -0.6400   -1.9546    2.6488 H   0  0  0  0  0  0  0  0  0  0  0  0
    0.7960   -0.9303    2.8045 H   0  0  0  0  0  0  0  0  0  0  0  0
    0.4899   -3.4558    1.1506 H   0  0  0  0  0  0  0  0  0  0  0  0
    1.8667   -2.9344    2.1661 H   0  0  0  0  0  0  0  0  0  0  0  0
   -1.2324   -1.9212   -0.4543 H   0  0  0  0  0  0  0  0  0  0  0  0
   -5.1822   -0.2586    0.2406 H   0  0  0  0  0  0  0  0  0  0  0  0
   -5.0638   -2.1834    1.8727 H   0  0  0  0  0  0  0  0  0  0  0  0
   -6.6504   -1.9195    1.1561 H   0  0  0  0  0  0  0  0  0  0  0  0
   -6.7501   -1.0723   -1.3828 H   0  0  0  0  0  0  0  0  0  0  0  0
   -5.2206   -0.8186   -2.2204 H   0  0  0  0  0  0  0  0  0  0  0  0
    2.4581   -4.3801    0.6221 H   0  0  0  0  0  0  0  0  0  0  0  0
    2.7950   -4.5737   -1.0682 H   0  0  0  0  0  0  0  0  0  0  0  0
   -6.1698   -4.3106    1.1909 H   0  0  0  0  0  0  0  0  0  0  0  0
   -4.6344   -4.0738    0.3635 H   0  0  0  0  0  0  0  0  0  0  0  0
   -4.7390   -3.2299   -2.1901 H   0  0  0  0  0  0  0  0  0  0  0  0
   -6.3346   -2.9539   -2.8728 H   0  0  0  0  0  0  0  0  0  0  0  0
   -7.4266   -3.5762   -0.7766 H   0  0  0  0  0  0  0  0  0  0  0  0
   -6.3087   -4.8539   -1.2467 H   0  0  0  0  0  0  0  0  0  0  0  0
   -3.2536   -2.1848   -0.8768 H   0  0  0  0  0  0  0  0  0  0  0  0
    1.2121    1.4842   -1.2033 H   0  0  0  0  0  0  0  0  0  0  0  0
    2.9530    2.7664    0.8004 H   0  0  0  0  0  0  0  0  0  0  0  0
    4.6395   -2.0453    1.0453 H   0  0  0  0  0  0  0  0  0  0  0  0
    5.8896   -3.1609    1.5804 H   0  0  0  0  0  0  0  0  0  0  0  0
    4.2392   -3.3545    2.1726 H   0  0  0  0  0  0  0  0  0  0  0  0
    4.3531   -5.8039    1.3950 H   0  0  0  0  0  0  0  0  0  0  0  0
    4.7312   -6.1767   -0.2933 H   0  0  0  0  0  0  0  0  0  0  0  0
    5.9898   -5.5387    0.7769 H   0  0  0  0  0  0  0  0  0  0  0  0
    5.3560   -2.5251   -1.2664 H   0  0  0  0  0  0  0  0  0  0  0  0
    5.0583   -4.1129   -2.0099 H   0  0  0  0  0  0  0  0  0  0  0  0
    6.4365   -3.8599   -0.9371 H   0  0  0  0  0  0  0  0  0  0  0  0
    1.6926    3.9256   -1.7569 H   0  0  0  0  0  0  0  0  0  0  0  0
    2.5937    4.8371   -0.5662 H   0  0  0  0  0  0  0  0  0  0  0  0
    1.3072    5.4383    1.8539 H   0  0  0  0  0  0  0  0  0  0  0  0
   -1.1098    5.3556    2.4822 H   0  0  0  0  0  0  0  0  0  0  0  0
    5.9325    3.0571   -1.0197 H   0  0  0  0  0  0  0  0  0  0  0  0
    5.0025    3.6071    0.3276 H   0  0  0  0  0  0  0  0  0  0  0  0
   -0.5225    2.6088   -2.1057 H   0  0  0  0  0  0  0  0  0  0  0  0
   -3.5317    4.2764    1.5239 H   0  0  0  0  0  0  0  0  0  0  0  0
   -2.9398    2.0961   -2.1428 H   0  0  0  0  0  0  0  0  0  0  0  0
   -4.4330    2.9176   -0.3583 H   0  0  0  0  0  0  0  0  0  0  0  0
  1 16  2  0  0  0  0
  2 17  2  0  0  0  0
  3 25  2  0  0  0  0
  4 31  2  0  0  0  0
  5 12  1  0  0  0  0
  5 14  1  0  0  0  0
  5 16  1  0  0  0  0
  6 11  1  0  0  0  0
  6 25  1  0  0  0  0
  6 46  1  0  0  0  0
  7 15  1  0  0  0  0
  7 25  1  0  0  0  0
  7 60  1  0  0  0  0
  8 17  1  0  0  0  0
  8 26  1  0  0  0  0
  8 61  1  0  0  0  0
  9 31  1  0  0  0  0
  9 76  1  0  0  0  0
  9 77  1  0  0  0  0
 10 34  1  0  0  0  0
 10 35  1  0  0  0  0
 10 75  1  0  0  0  0
 11 12  1  0  0  0  0
 11 13  1  0  0  0  0
 11 40  1  0  0  0  0
 12 17  1  0  0  0  0
 12 41  1  0  0  0  0
 13 14  1  0  0  0  0
 13 42  1  0  0  0  0
 13 43  1  0  0  0  0
 14 44  1  0  0  0  0
 14 45  1  0  0  0  0
 15 18  1  0  0  0  0
 15 19  1  0  0  0  0
 15 47  1  0  0  0  0
 16 20  1  0  0  0  0
 18 22  1  0  0  0  0
 18 48  1  0  0  0  0
 18 49  1  0  0  0  0
 19 23  1  0  0  0  0
 19 50  1  0  0  0  0
 19 51  1  0  0  0  0
 20 21  1  0  0  0  0
 20 52  1  0  0  0  0
 20 53  1  0  0  0  0
 21 27  1  0  0  0  0
 21 28  1  0  0  0  0
 21 29  1  0  0  0  0
 22 24  1  0  0  0  0
 22 54  1  0  0  0  0
 22 55  1  0  0  0  0
 23 24  1  0  0  0  0
 23 56  1  0  0  0  0
 23 57  1  0  0  0  0
 24 58  1  0  0  0  0
 24 59  1  0  0  0  0
 26 30  1  0  0  0  0
 26 31  1  0  0  0  0
 26 62  1  0  0  0  0
 27 63  1  0  0  0  0
 27 64  1  0  0  0  0
 27 65  1  0  0  0  0
 28 66  1  0  0  0  0
 28 67  1  0  0  0  0
 28 68  1  0  0  0  0
 29 69  1  0  0  0  0
 29 70  1  0  0  0  0
 29 71  1  0  0  0  0
 30 32  1  0  0  0  0
 30 72  1  0  0  0  0
 30 73  1  0  0  0  0
 32 33  1  0  0  0  0
 32 34  2  0  0  0  0
 33 35  1  0  0  0  0
 33 36  2  0  0  0  0
 34 74  1  0  0  0  0
 35 37  2  0  0  0  0
 36 38  1  0  0  0  0
 36 78  1  0  0  0  0
 37 39  1  0  0  0  0
 37 79  1  0  0  0  0
 38 39  2  0  0  0  0
 38 80  1  0  0  0  0
 39 81  1  0  0  0  0
M  END
> <PUBCHEM_COMPOUND_CID>
11882114

> <PUBCHEM_CONFORMER_RMSD>
1.4

> <PUBCHEM_CONFORMER_DIVERSEORDER>
1
35
19
9
10
26
44
37
7
43
27
17
31
20
49
21
45
32
46
23
40
48
13
47
50
6
22
41
24
33
30
36
11
38
18
39
12
29
34
52
16
28
3
4
51
8
42
25
15
2
5
14

> <PUBCHEM_MMFF94_PARTIAL_CHARGES>
39
1 -0.57
10 0.03
11 0.3
12 0.36
14 0.3
15 0.3
16 0.57
17 0.57
2 -0.57
20 0.06
25 0.69
26 0.36
3 -0.57
30 0.18
31 0.57
32 -0.18
34 -0.3
35 -0.15
36 -0.15
37 -0.15
38 -0.15
39 -0.15
4 -0.57
46 0.37
5 -0.66
6 -0.73
60 0.37
61 0.37
7 -0.73
74 0.15
75 0.27
76 0.37
77 0.37
78 0.15
79 0.15
8 -0.73
80 0.15
81 0.15
9 -0.8

> <PUBCHEM_EFFECTIVE_ROTOR_COUNT>
15.2

> <PUBCHEM_PHARMACOPHORE_FEATURES>
15
1 1 acceptor
1 10 cation
1 10 donor
1 2 acceptor
1 3 acceptor
1 4 acceptor
1 6 donor
1 7 donor
1 8 donor
1 9 donor
4 21 27 28 29 hydrophobe
5 10 32 33 34 35 rings
5 5 11 12 13 14 rings
6 15 18 19 22 23 24 rings
6 33 35 36 37 38 39 rings

> <PUBCHEM_HEAVY_ATOM_COUNT>
39

> <PUBCHEM_ATOM_DEF_STEREO_COUNT>
3

> <PUBCHEM_ATOM_UDEF_STEREO_COUNT>
0

> <PUBCHEM_BOND_DEF_STEREO_COUNT>
0

> <PUBCHEM_BOND_UDEF_STEREO_COUNT>
0

> <PUBCHEM_ISOTOPIC_ATOM_COUNT>
0

> <PUBCHEM_COMPONENT_COUNT>
1

> <PUBCHEM_CACTVS_TAUTO_COUNT>
12

> <PUBCHEM_CONFORMER_ID>
00B54E8200000001

> <PUBCHEM_MMFF94_ENERGY>
75.9947

> <PUBCHEM_FEATURE_SELFOVERLAP>
76.266

> <PUBCHEM_SHAPE_FINGERPRINT>
10940486 97 17977673009028463668
1100329 8 18046636594557853968
11014199 57 18339077069076776354
11093857 51 17754746248839345924
11513181 2 18341343231603900269
1361 2 17836366317400331463
13692115 46 17624437288886862630
14725015 67 18196089082526395256
14856354 85 17837204879716163238
15219648 60 17972869543353602002
15484559 13 17909831268630656807
15815584 197 17977132324254544238
15876981 60 18190470359032999335
15927050 60 18338811004665309013
19311894 1 17903916660719857346
20028762 73 18054794150185800085
20764821 26 18265064530643706796
20775438 99 17834347425485033981
21968339 14 18264764531367430198
3383291 50 17835522618356940185
3504750 166 17613704926335514122
4461854 278 17549840884584016257
6700243 42 17772218338971477198
70251023 43 18408604747390186915
86090 222 17975693115273755573

> <PUBCHEM_SHAPE_MULTIPOLES>
749.24
12.79
9.64
1.62
7.72
4.28
0.07
-20.78
3.87
-2.57
-0.53
0.18
-0.01
-2.27

> <PUBCHEM_SHAPE_SELFOVERLAP>
1578.136

> <PUBCHEM_SHAPE_VOLUME>
420.2

> <PUBCHEM_COORDINATE_TYPE>
2
5
10

$$$$
