11886002
  -OEChem-12032416123D

 60 65  0     1  0  0  0  0  0999 V2000
   -6.6167    0.2613   -0.8458 S   0  0  0  0  0  0  0  0  0  0  0  0
   -1.5167    1.9607    0.8152 O   0  0  0  0  0  0  0  0  0  0  0  0
   -2.6132    1.7990   -2.0705 O   0  0  0  0  0  0  0  0  0  0  0  0
    0.7335    1.9041   -0.7982 O   0  0  0  0  0  0  0  0  0  0  0  0
    1.7390   -0.1497   -0.7691 O   0  0  0  0  0  0  0  0  0  0  0  0
    7.9199   -0.0879    1.3143 O   0  0  0  0  0  0  0  0  0  0  0  0
   -4.4741    0.5179    0.8128 N   0  0  0  0  0  0  0  0  0  0  0  0
   -3.9767    0.0429    1.9632 N   0  0  0  0  0  0  0  0  0  0  0  0
   -5.9293   -0.9321    1.5077 N   0  0  0  0  0  0  0  0  0  0  0  0
   -4.8711   -0.8433    2.3838 N   0  0  0  0  0  0  0  0  0  0  0  0
    2.8750    1.7847   -0.0999 N   0  0  0  0  0  0  0  0  0  0  0  0
   -2.7569    0.9266   -0.9280 C   0  0  1  0  0  0  0  0  0  0  0  0
   -1.4303    0.9433   -0.1947 C   0  0  1  0  0  0  0  0  0  0  0  0
   -3.7413    1.5334    0.0530 C   0  0  2  0  0  0  0  0  0  0  0  0
   -0.4533    1.3189   -1.2834 C   0  0  1  0  0  0  0  0  0  0  0  0
   -2.8599    2.4611    0.8830 C   0  0  0  0  0  0  0  0  0  0  0  0
   -1.2639    2.2829   -2.1181 C   0  0  0  0  0  0  0  0  0  0  0  0
   -5.6632   -0.0812    0.5436 C   0  0  0  0  0  0  0  0  0  0  0  0
    1.7981    1.0572   -0.5685 C   0  0  0  0  0  0  0  0  0  0  0  0
   -7.9904   -0.8546   -0.5487 C   0  0  0  0  0  0  0  0  0  0  0  0
    4.1570    1.3092    0.2580 C   0  0  0  0  0  0  0  0  0  0  0  0
   -9.0995   -0.4184    0.1760 C   0  0  0  0  0  0  0  0  0  0  0  0
   -7.9490   -2.1583   -1.0429 C   0  0  0  0  0  0  0  0  0  0  0  0
    5.1285    2.1995    0.7158 C   0  0  0  0  0  0  0  0  0  0  0  0
    4.4505   -0.0505    0.1547 C   0  0  0  0  0  0  0  0  0  0  0  0
  -10.1673   -1.2858    0.4065 C   0  0  0  0  0  0  0  0  0  0  0  0
   -9.0168   -3.0257   -0.8126 C   0  0  0  0  0  0  0  0  0  0  0  0
    6.3932    1.7301    1.0701 C   0  0  0  0  0  0  0  0  0  0  0  0
    5.7152   -0.5200    0.5090 C   0  0  0  0  0  0  0  0  0  0  0  0
    6.6866    0.3703    0.9666 C   0  0  0  0  0  0  0  0  0  0  0  0
  -10.1259   -2.5895   -0.0877 C   0  0  0  0  0  0  0  0  0  0  0  0
    8.5347   -0.9910    0.4632 C   0  0  0  0  0  0  0  0  0  0  0  0
    8.5296   -0.7666   -0.9135 C   0  0  0  0  0  0  0  0  0  0  0  0
    9.1583   -2.1254    0.9825 C   0  0  0  0  0  0  0  0  0  0  0  0
    9.1480   -1.6766   -1.7709 C   0  0  0  0  0  0  0  0  0  0  0  0
    9.7767   -3.0355    0.1252 C   0  0  0  0  0  0  0  0  0  0  0  0
    9.7715   -2.8111   -1.2516 C   0  0  0  0  0  0  0  0  0  0  0  0
   -3.0304   -0.0644   -1.3038 H   0  0  0  0  0  0  0  0  0  0  0  0
   -1.1872    0.0013    0.3052 H   0  0  0  0  0  0  0  0  0  0  0  0
   -4.5032    2.1450   -0.4432 H   0  0  0  0  0  0  0  0  0  0  0  0
   -0.2494    0.4389   -1.9091 H   0  0  0  0  0  0  0  0  0  0  0  0
   -3.1621    2.5607    1.9297 H   0  0  0  0  0  0  0  0  0  0  0  0
   -2.8443    3.4651    0.4440 H   0  0  0  0  0  0  0  0  0  0  0  0
   -1.2380    3.3032   -1.7191 H   0  0  0  0  0  0  0  0  0  0  0  0
   -0.9236    2.3234   -3.1572 H   0  0  0  0  0  0  0  0  0  0  0  0
    2.7309    2.7865    0.0013 H   0  0  0  0  0  0  0  0  0  0  0  0
   -9.1494    0.5941    0.5690 H   0  0  0  0  0  0  0  0  0  0  0  0
   -7.0930   -2.5160   -1.6096 H   0  0  0  0  0  0  0  0  0  0  0  0
    4.9127    3.2615    0.8012 H   0  0  0  0  0  0  0  0  0  0  0  0
    3.7480   -0.7988   -0.1854 H   0  0  0  0  0  0  0  0  0  0  0  0
  -11.0309   -0.9463    0.9708 H   0  0  0  0  0  0  0  0  0  0  0  0
   -8.9847   -4.0409   -1.1973 H   0  0  0  0  0  0  0  0  0  0  0  0
    7.1459    2.4282    1.4261 H   0  0  0  0  0  0  0  0  0  0  0  0
    5.9093   -1.5873    0.4412 H   0  0  0  0  0  0  0  0  0  0  0  0
  -10.9573   -3.2649    0.0918 H   0  0  0  0  0  0  0  0  0  0  0  0
    8.0705    0.1198   -1.3432 H   0  0  0  0  0  0  0  0  0  0  0  0
    9.1648   -2.3054    2.0540 H   0  0  0  0  0  0  0  0  0  0  0  0
    9.1484   -1.4995   -2.8424 H   0  0  0  0  0  0  0  0  0  0  0  0
   10.2624   -3.9188    0.5295 H   0  0  0  0  0  0  0  0  0  0  0  0
   10.2541   -3.5191   -1.9190 H   0  0  0  0  0  0  0  0  0  0  0  0
  1 18  1  0  0  0  0
  1 20  1  0  0  0  0
  2 13  1  0  0  0  0
  2 16  1  0  0  0  0
  3 12  1  0  0  0  0
  3 17  1  0  0  0  0
  4 15  1  0  0  0  0
  4 19  1  0  0  0  0
  5 19  2  0  0  0  0
  6 30  1  0  0  0  0
  6 32  1  0  0  0  0
  7  8  1  0  0  0  0
  7 14  1  0  0  0  0
  7 18  1  0  0  0  0
  8 10  2  0  0  0  0
  9 10  1  0  0  0  0
  9 18  2  0  0  0  0
 11 19  1  0  0  0  0
 11 21  1  0  0  0  0
 11 46  1  0  0  0  0
 12 13  1  0  0  0  0
 12 14  1  0  0  0  0
 12 38  1  0  0  0  0
 13 15  1  0  0  0  0
 13 39  1  0  0  0  0
 14 16  1  0  0  0  0
 14 40  1  0  0  0  0
 15 17  1  0  0  0  0
 15 41  1  0  0  0  0
 16 42  1  0  0  0  0
 16 43  1  0  0  0  0
 17 44  1  0  0  0  0
 17 45  1  0  0  0  0
 20 22  2  0  0  0  0
 20 23  1  0  0  0  0
 21 24  2  0  0  0  0
 21 25  1  0  0  0  0
 22 26  1  0  0  0  0
 22 47  1  0  0  0  0
 23 27  2  0  0  0  0
 23 48  1  0  0  0  0
 24 28  1  0  0  0  0
 24 49  1  0  0  0  0
 25 29  2  0  0  0  0
 25 50  1  0  0  0  0
 26 31  2  0  0  0  0
 26 51  1  0  0  0  0
 27 31  1  0  0  0  0
 27 52  1  0  0  0  0
 28 30  2  0  0  0  0
 28 53  1  0  0  0  0
 29 30  1  0  0  0  0
 29 54  1  0  0  0  0
 31 55  1  0  0  0  0
 32 33  2  0  0  0  0
 32 34  1  0  0  0  0
 33 35  1  0  0  0  0
 33 56  1  0  0  0  0
 34 36  2  0  0  0  0
 34 57  1  0  0  0  0
 35 37  2  0  0  0  0
 35 58  1  0  0  0  0
 36 37  1  0  0  0  0
 36 59  1  0  0  0  0
 37 60  1  0  0  0  0
M  END
> <PUBCHEM_COMPOUND_CID>
11886002

> <PUBCHEM_CONFORMER_RMSD>
1.2

> <PUBCHEM_CONFORMER_DIVERSEORDER>
1
41
75
52
43
29
48
4
93
28
109
49
84
108
79
36
50
34
96
111
26
88
94
72
106
16
69
45
91
70
18
56
78
47
86
83
63
10
46
85
81
30
95
59
73
64
71
76
77
2
62
89
101
105
92
55
20
35
54
74
5
100
23
7
12
24
25
39
37
19
87
44
61
11
113
97
3
80
99
57
102
90
103
9
66
14
13
17
51
31
32
42
6
21
27
104
98
112
15
82
60
107
33
53
65
58
8
22
38
110
67
68
40

> <PUBCHEM_MMFF94_PARTIAL_CHARGES>
51
1 -0.16
11 -0.55
12 0.28
13 0.28
14 0.26
15 0.28
16 0.28
17 0.28
18 0.24
19 0.78
2 -0.56
20 0.1
21 0.12
22 -0.15
23 -0.15
24 -0.15
25 -0.15
26 -0.15
27 -0.15
28 -0.15
29 -0.15
3 -0.56
30 0.08
31 -0.15
32 0.08
33 -0.15
34 -0.15
35 -0.15
36 -0.15
37 -0.15
4 -0.43
46 0.37
47 0.15
48 0.15
49 0.15
5 -0.57
50 0.15
51 0.15
52 0.15
53 0.15
54 0.15
55 0.15
56 0.15
57 0.15
58 0.15
59 0.15
6 -0.17
60 0.15
7 0.31
8 -0.42
9 -0.34

> <PUBCHEM_EFFECTIVE_ROTOR_COUNT>
10.2

> <PUBCHEM_PHARMACOPHORE_FEATURES>
12
1 11 donor
1 2 acceptor
1 3 acceptor
1 5 acceptor
1 6 acceptor
3 7 9 18 cation
5 2 12 13 14 16 rings
5 3 12 13 15 17 rings
5 7 8 9 10 18 rings
6 20 22 23 26 27 31 rings
6 21 24 25 28 29 30 rings
6 32 33 34 35 36 37 rings

> <PUBCHEM_HEAVY_ATOM_COUNT>
37

> <PUBCHEM_ATOM_DEF_STEREO_COUNT>
4

> <PUBCHEM_ATOM_UDEF_STEREO_COUNT>
0

> <PUBCHEM_BOND_DEF_STEREO_COUNT>
0

> <PUBCHEM_BOND_UDEF_STEREO_COUNT>
0

> <PUBCHEM_ISOTOPIC_ATOM_COUNT>
0

> <PUBCHEM_COMPONENT_COUNT>
1

> <PUBCHEM_CACTVS_TAUTO_COUNT>
2

> <PUBCHEM_CONFORMER_ID>
00B55DB200000001

> <PUBCHEM_MMFF94_ENERGY>
112.7654

> <PUBCHEM_FEATURE_SELFOVERLAP>
61.6

> <PUBCHEM_SHAPE_FINGERPRINT>
10 15 14764355951064246141
10029044 110 9583516525446991918
10190206 1 14635134708980552677
10533779 47 16415204443162241342
11061554 47 10592049050534572507
11211813 74 10809343339536247750
11408170 108 18410296900148918523
11411753 29 18410285896633149256
11456790 92 16415478255057218968
11534866 41 18130794422140937766
11578821 258 8358242758008220054
11607047 74 18117001186199067020
11621639 179 7997699666180617919
11638347 137 18272088313821540560
12098696 120 13038913209223121643
12539745 222 18343302531624693161
13008946 119 11600005440350599141
13165054 160 15626233398871831774
14040221 8 15791726382857590631
14117953 113 17313101977294004971
14202775 3 18337111267621924275
15065858 18 18409160035343296441
15198563 99 16298374739640966989
15461852 350 17676485012507385501
16067689 68 18342174497545645119
16728433 281 12324778191297268863
16991971 28 17749114383468930532
16993089 31 18336544928922644518
17852330 31 17489011769887768498
1818759 1 18408602569487943663
19302320 297 14405178496097747914
20105231 36 18343024351436154518
2026 5 18335979792108741347
212700 22 18262231231329866499
21781051 124 18261681390296743762
21792934 111 8358259238588005908
21792965 169 15647061460701197669
21792965 39 15769786741017405660
21895431 317 18338794512639726450
23569917 315 18411703179626050310
23576562 1 15213598856356370478
3711267 37 9078836337506759247
3918712 181 7997671092971070758
4339292 15 17967246486686777522
45270241 37 10953728985956029000
474113 269 18408602591337384609
504579 68 15140969448280489956
5470011 282 14418135102380332080
5758199 1 12607416511803214829
6673363 416 11891333159045523639
9689198 14 9871480833239096865
9937071 3 17847058866196390942

> <PUBCHEM_SHAPE_MULTIPOLES>
711.04
42.15
3.17
1.64
10.53
1.26
0.08
46.3
-1.26
1.25
0.63
-0.09
-0.18
1.36

> <PUBCHEM_SHAPE_SELFOVERLAP>
1550.373

> <PUBCHEM_SHAPE_VOLUME>
387.5

> <PUBCHEM_COORDINATE_TYPE>
2
5
10

$$$$
