75536765
  -OEChem-12032416343D

 41 42  0     1  0  0  0  0  0999 V2000
   -2.0687   -1.4075    0.0582 O   0  0  0  0  0  0  0  0  0  0  0  0
   -3.2028    2.0012    0.0650 O   0  0  0  0  0  0  0  0  0  0  0  0
    1.3913    1.4075    0.2901 O   0  0  0  0  0  0  0  0  0  0  0  0
   -5.4679   -0.1526   -0.2616 N   0  0  0  0  0  0  0  0  0  0  0  0
    0.3494   -0.4161    1.2590 N   0  0  0  0  0  0  0  0  0  0  0  0
    2.5528   -0.6067    0.6135 N   0  0  0  0  0  0  0  0  0  0  0  0
   -4.0392   -0.2156   -0.5235 C   0  0  1  0  0  0  0  0  0  0  0  0
   -3.2088    0.6326    0.4219 C   0  0  1  0  0  0  0  0  0  0  0  0
   -1.8351   -0.0032    0.2564 C   0  0  1  0  0  0  0  0  0  0  0  0
   -3.4536   -1.5971   -0.2812 C   0  0  0  0  0  0  0  0  0  0  0  0
   -0.9298    0.2021    1.4579 C   0  0  0  0  0  0  0  0  0  0  0  0
   -5.9726    1.2105   -0.4521 C   0  0  0  0  0  0  0  0  0  0  0  0
   -6.1976   -1.0847   -1.1261 C   0  0  0  0  0  0  0  0  0  0  0  0
    1.4446    0.2424    0.6769 C   0  0  0  0  0  0  0  0  0  0  0  0
    3.8385   -0.3190    0.0985 C   0  0  0  0  0  0  0  0  0  0  0  0
    4.8317   -1.2982    0.1159 C   0  0  0  0  0  0  0  0  0  0  0  0
    4.1130    0.9436   -0.4266 C   0  0  0  0  0  0  0  0  0  0  0  0
    6.0997   -1.0146   -0.3916 C   0  0  0  0  0  0  0  0  0  0  0  0
    5.3808    1.2273   -0.9342 C   0  0  0  0  0  0  0  0  0  0  0  0
    6.3742    0.2482   -0.9166 C   0  0  0  0  0  0  0  0  0  0  0  0
   -3.8285    0.0874   -1.5602 H   0  0  0  0  0  0  0  0  0  0  0  0
   -3.5639    0.5373    1.4558 H   0  0  0  0  0  0  0  0  0  0  0  0
   -1.3382    0.3759   -0.6464 H   0  0  0  0  0  0  0  0  0  0  0  0
   -3.9207   -2.1084    0.5687 H   0  0  0  0  0  0  0  0  0  0  0  0
   -3.5195   -2.2480   -1.1584 H   0  0  0  0  0  0  0  0  0  0  0  0
   -1.3611   -0.2660    2.3495 H   0  0  0  0  0  0  0  0  0  0  0  0
   -0.7896    1.2694    1.6587 H   0  0  0  0  0  0  0  0  0  0  0  0
   -2.8943    2.0758   -0.8539 H   0  0  0  0  0  0  0  0  0  0  0  0
   -7.0662    1.2278   -0.3700 H   0  0  0  0  0  0  0  0  0  0  0  0
   -5.7053    1.6238   -1.4313 H   0  0  0  0  0  0  0  0  0  0  0  0
   -5.6197    1.8826    0.3355 H   0  0  0  0  0  0  0  0  0  0  0  0
   -7.2756   -1.0160   -0.9385 H   0  0  0  0  0  0  0  0  0  0  0  0
   -5.9280   -2.1254   -0.9189 H   0  0  0  0  0  0  0  0  0  0  0  0
   -6.0248   -0.8828   -2.1896 H   0  0  0  0  0  0  0  0  0  0  0  0
    0.4630   -1.3843    1.5429 H   0  0  0  0  0  0  0  0  0  0  0  0
    2.4283   -1.5473    0.9794 H   0  0  0  0  0  0  0  0  0  0  0  0
    4.6310   -2.2862    0.5222 H   0  0  0  0  0  0  0  0  0  0  0  0
    3.3978    1.7524   -0.4748 H   0  0  0  0  0  0  0  0  0  0  0  0
    6.8732   -1.7768   -0.3780 H   0  0  0  0  0  0  0  0  0  0  0  0
    5.5960    2.2102   -1.3433 H   0  0  0  0  0  0  0  0  0  0  0  0
    7.3614    0.4691   -1.3118 H   0  0  0  0  0  0  0  0  0  0  0  0
  1  9  1  0  0  0  0
  1 10  1  0  0  0  0
  2  8  1  0  0  0  0
  2 28  1  0  0  0  0
  3 14  2  0  0  0  0
  4  7  1  0  0  0  0
  4 12  1  0  0  0  0
  4 13  1  0  0  0  0
  5 11  1  0  0  0  0
  5 14  1  0  0  0  0
  5 35  1  0  0  0  0
  6 14  1  0  0  0  0
  6 15  1  0  0  0  0
  6 36  1  0  0  0  0
  7  8  1  0  0  0  0
  7 10  1  0  0  0  0
  7 21  1  0  0  0  0
  8  9  1  0  0  0  0
  8 22  1  0  0  0  0
  9 11  1  0  0  0  0
  9 23  1  0  0  0  0
 10 24  1  0  0  0  0
 10 25  1  0  0  0  0
 11 26  1  0  0  0  0
 11 27  1  0  0  0  0
 12 29  1  0  0  0  0
 12 30  1  0  0  0  0
 12 31  1  0  0  0  0
 13 32  1  0  0  0  0
 13 33  1  0  0  0  0
 13 34  1  0  0  0  0
 15 16  2  0  0  0  0
 15 17  1  0  0  0  0
 16 18  1  0  0  0  0
 16 37  1  0  0  0  0
 17 19  2  0  0  0  0
 17 38  1  0  0  0  0
 18 20  2  0  0  0  0
 18 39  1  0  0  0  0
 19 20  1  0  0  0  0
 19 40  1  0  0  0  0
 20 41  1  0  0  0  0
M  END
> <PUBCHEM_COMPOUND_CID>
75536765

> <PUBCHEM_CONFORMER_RMSD>
0.8

> <PUBCHEM_CONFORMER_DIVERSEORDER>
1
65
14
56
36
16
33
46
51
60
6
66
32
21
12
25
44
55
26
39
59
50
58
11
48
43
63
54
64
38
19
34
7
47
52
35
18
10
57
20
27
42
45
49
29
2
40
30
67
61
68
15
4
17
41
23
24
9
31
22
62
13
8
53
28
5
3
37

> <PUBCHEM_MMFF94_PARTIAL_CHARGES>
28
1 -0.56
10 0.28
11 0.3
12 0.27
13 0.27
14 0.69
15 0.12
16 -0.15
17 -0.15
18 -0.15
19 -0.15
2 -0.68
20 -0.15
28 0.4
3 -0.57
35 0.37
36 0.37
37 0.15
38 0.15
39 0.15
4 -0.81
40 0.15
41 0.15
5 -0.73
6 -0.55
7 0.27
8 0.28
9 0.28

> <PUBCHEM_EFFECTIVE_ROTOR_COUNT>
7

> <PUBCHEM_PHARMACOPHORE_FEATURES>
9
1 1 acceptor
1 2 acceptor
1 2 donor
1 3 acceptor
1 4 cation
1 5 donor
1 6 donor
5 1 7 8 9 10 rings
6 15 16 17 18 19 20 rings

> <PUBCHEM_HEAVY_ATOM_COUNT>
20

> <PUBCHEM_ATOM_DEF_STEREO_COUNT>
3

> <PUBCHEM_ATOM_UDEF_STEREO_COUNT>
0

> <PUBCHEM_BOND_DEF_STEREO_COUNT>
0

> <PUBCHEM_BOND_UDEF_STEREO_COUNT>
0

> <PUBCHEM_ISOTOPIC_ATOM_COUNT>
0

> <PUBCHEM_COMPONENT_COUNT>
1

> <PUBCHEM_CACTVS_TAUTO_COUNT>
3

> <PUBCHEM_CONFORMER_ID>
0480997D00000001

> <PUBCHEM_MMFF94_ENERGY>
52.9632

> <PUBCHEM_FEATURE_SELFOVERLAP>
45.721

> <PUBCHEM_SHAPE_FINGERPRINT>
10 15 10665232544383734654
10354089 29 8934999266254306666
10595046 47 18409167710143516020
106641 1 12324250447406438917
11315181 36 17632580460985233616
11524674 6 15554445223985243847
11646440 116 15502382209547442645
12236239 1 18186800270855074087
12516196 113 17203607099347368392
12670543 26 18409448076702185752
12730499 353 16805325470315704626
12916748 109 13045940188384572526
12954195 1 17988360374184248561
13288520 33 17846779611854629841
13668630 136 17132120147501764262
13685833 64 15626223532831025366
1420 363 15267345119616076382
14251752 14 18412823551840748261
14528608 73 18333733533335020038
14844126 61 9222643615472828285
14848160 23 15267341816575255078
14849402 71 10087339129437686490
15183329 4 18410855438658606589
15575132 122 17385996231499361797
15716309 27 12895354383095575740
17834072 33 18411136948327442996
17834072 8 18272088300936502154
17844677 252 15913332390322144058
17870717 6 17846502538908232727
1813 80 14045471071994472360
18222031 100 16200435780082835056
19489759 90 16702306728540934521
200 152 18272092686731094888
20281389 69 14562526284585000372
20374829 77 17489866051139934371
20645477 56 14634868664877161835
20871999 31 18413953879695310665
21150785 3 18059858398212578124
21267235 1 18340768239295715187
221357 26 18334290972408155076
22224240 67 14129062513238404697
2297311 6 18131632292517581489
23198884 109 18260267443284701703
23402539 116 18273209786281823693
23402655 69 18259703402235468608
23536379 177 18408041801414708174
23559900 14 17987788734757509761
246663 6 17846499271024020783
26918003 58 12463566296822117231
2767999 5 15502372339728329134
29717793 49 18343588421853345750
300161 21 18334293189085494226
3004659 81 18410855435149947714
314173 85 15482676779460923682
34797466 226 17418097659031182136
351380 3 17203889664950528846
3545911 37 14201115700402315122
3663271 9 9367344834159501308
44062 13 17703220836470731127
465052 167 15769779070031616972
542803 24 17749105591011160873
59682541 35 13254784747269699102
59682541 52 18410283701286695446
59755656 215 17060340708220084191
59755656 520 16443063906840109627
960060 61 18408046221621754100

> <PUBCHEM_SHAPE_MULTIPOLES>
379.04
17.97
1.52
1.04
3.2
0.12
0.11
-0.85
-7.49
-0.54
-0.17
-0.02
0
-0.83

> <PUBCHEM_SHAPE_SELFOVERLAP>
781.717

> <PUBCHEM_SHAPE_VOLUME>
218.8

> <PUBCHEM_COORDINATE_TYPE>
2
5
10

$$$$
