7662925
  -OEChem-12032416113D

 50 53  0     1  0  0  0  0  0999 V2000
    3.3093   -1.8334    2.5253 O   0  0  0  0  0  0  0  0  0  0  0  0
    3.1118    2.3571   -0.6599 O   0  0  0  0  0  0  0  0  0  0  0  0
    0.2211    5.7274    1.4356 O   0  0  0  0  0  0  0  0  0  0  0  0
   -1.2261    4.1501    0.6725 O   0  0  0  0  0  0  0  0  0  0  0  0
    1.8253    0.6378   -1.5462 N   0  0  0  0  0  0  0  0  0  0  0  0
    1.9516   -1.6880    0.6223 N   0  0  0  0  0  0  0  0  0  0  0  0
   -4.9234    1.9438   -0.6174 N   0  0  0  0  0  0  0  0  0  0  0  0
    2.9542   -1.5743   -1.7344 C   0  0  1  0  0  0  0  0  0  0  0  0
    0.5169   -1.4771   -1.4316 C   0  0  2  0  0  0  0  0  0  0  0  0
    1.6403   -2.2056   -2.1672 C   0  0  0  0  0  0  0  0  0  0  0  0
    2.9823   -0.0773   -2.0843 C   0  0  0  0  0  0  0  0  0  0  0  0
    3.1379   -1.8145   -0.2354 C   0  0  0  0  0  0  0  0  0  0  0  0
    0.5259    0.0141   -1.8287 C   0  0  0  0  0  0  0  0  0  0  0  0
    0.6498   -1.6211    0.0870 C   0  0  0  0  0  0  0  0  0  0  0  0
   -0.4254   -1.6580    0.9167 C   0  0  0  0  0  0  0  0  0  0  0  0
    2.1957   -1.7595    2.0054 C   0  0  0  0  0  0  0  0  0  0  0  0
    2.0089    1.8524   -0.8861 C   0  0  0  0  0  0  0  0  0  0  0  0
   -0.2123   -1.7280    2.3499 C   0  0  0  0  0  0  0  0  0  0  0  0
    1.0067   -1.7620    2.8875 C   0  0  0  0  0  0  0  0  0  0  0  0
   -1.8108   -1.6096    0.4000 C   0  0  0  0  0  0  0  0  0  0  0  0
    0.7634    2.5656   -0.4238 C   0  0  0  0  0  0  0  0  0  0  0  0
    1.1388    3.8598    0.2696 C   0  0  0  0  0  0  0  0  0  0  0  0
   -2.4384   -0.3813    0.2156 C   0  0  0  0  0  0  0  0  0  0  0  0
   -2.4778   -2.7943    0.1036 C   0  0  0  0  0  0  0  0  0  0  0  0
   -3.7453   -0.3375   -0.2699 C   0  0  0  0  0  0  0  0  0  0  0  0
   -3.7847   -2.7506   -0.3820 C   0  0  0  0  0  0  0  0  0  0  0  0
   -0.0821    4.5652    0.8061 C   0  0  0  0  0  0  0  0  0  0  0  0
   -4.4185   -1.5221   -0.5688 C   0  0  0  0  0  0  0  0  0  0  0  0
   -4.3950    0.9208   -0.4615 C   0  0  0  0  0  0  0  0  0  0  0  0
    3.7856   -2.0537   -2.2658 H   0  0  0  0  0  0  0  0  0  0  0  0
   -0.4242   -1.9171   -1.7800 H   0  0  0  0  0  0  0  0  0  0  0  0
    1.6277   -3.2775   -1.9328 H   0  0  0  0  0  0  0  0  0  0  0  0
    1.5109   -2.1130   -3.2525 H   0  0  0  0  0  0  0  0  0  0  0  0
    3.9161    0.3757   -1.7348 H   0  0  0  0  0  0  0  0  0  0  0  0
    2.9533    0.0506   -3.1735 H   0  0  0  0  0  0  0  0  0  0  0  0
    3.4969   -2.8427   -0.0891 H   0  0  0  0  0  0  0  0  0  0  0  0
    3.9279   -1.1634    0.1605 H   0  0  0  0  0  0  0  0  0  0  0  0
    0.3618    0.1108   -2.9095 H   0  0  0  0  0  0  0  0  0  0  0  0
   -0.2907    0.5487   -1.3458 H   0  0  0  0  0  0  0  0  0  0  0  0
   -1.0829   -1.7398    2.9990 H   0  0  0  0  0  0  0  0  0  0  0  0
    1.1566   -1.8085    3.9595 H   0  0  0  0  0  0  0  0  0  0  0  0
    0.2249    1.9170    0.2762 H   0  0  0  0  0  0  0  0  0  0  0  0
    0.1207    2.7714   -1.2870 H   0  0  0  0  0  0  0  0  0  0  0  0
    1.8069    3.6640    1.1166 H   0  0  0  0  0  0  0  0  0  0  0  0
    1.6425    4.5370   -0.4298 H   0  0  0  0  0  0  0  0  0  0  0  0
   -1.9185    0.5430    0.4590 H   0  0  0  0  0  0  0  0  0  0  0  0
   -1.9964   -3.7589    0.2438 H   0  0  0  0  0  0  0  0  0  0  0  0
   -4.3086   -3.6730   -0.6149 H   0  0  0  0  0  0  0  0  0  0  0  0
   -5.4374   -1.5043   -0.9481 H   0  0  0  0  0  0  0  0  0  0  0  0
   -0.5808    6.1824    1.7707 H   0  0  0  0  0  0  0  0  0  0  0  0
  1 16  2  0  0  0  0
  2 17  2  0  0  0  0
  3 27  1  0  0  0  0
  3 50  1  0  0  0  0
  4 27  2  0  0  0  0
  5 11  1  0  0  0  0
  5 13  1  0  0  0  0
  5 17  1  0  0  0  0
  6 12  1  0  0  0  0
  6 14  1  0  0  0  0
  6 16  1  0  0  0  0
  7 29  3  0  0  0  0
  8 10  1  0  0  0  0
  8 11  1  0  0  0  0
  8 12  1  0  0  0  0
  8 30  1  0  0  0  0
  9 10  1  0  0  0  0
  9 13  1  0  0  0  0
  9 14  1  0  0  0  0
  9 31  1  0  0  0  0
 10 32  1  0  0  0  0
 10 33  1  0  0  0  0
 11 34  1  0  0  0  0
 11 35  1  0  0  0  0
 12 36  1  0  0  0  0
 12 37  1  0  0  0  0
 13 38  1  0  0  0  0
 13 39  1  0  0  0  0
 14 15  2  0  0  0  0
 15 18  1  0  0  0  0
 15 20  1  0  0  0  0
 16 19  1  0  0  0  0
 17 21  1  0  0  0  0
 18 19  2  0  0  0  0
 18 40  1  0  0  0  0
 19 41  1  0  0  0  0
 20 23  1  0  0  0  0
 20 24  2  0  0  0  0
 21 22  1  0  0  0  0
 21 42  1  0  0  0  0
 21 43  1  0  0  0  0
 22 27  1  0  0  0  0
 22 44  1  0  0  0  0
 22 45  1  0  0  0  0
 23 25  2  0  0  0  0
 23 46  1  0  0  0  0
 24 26  1  0  0  0  0
 24 47  1  0  0  0  0
 25 28  1  0  0  0  0
 25 29  1  0  0  0  0
 26 28  2  0  0  0  0
 26 48  1  0  0  0  0
 28 49  1  0  0  0  0
M  END
> <PUBCHEM_COMPOUND_CID>
7662925

> <PUBCHEM_CONFORMER_RMSD>
0.8

> <PUBCHEM_CONFORMER_DIVERSEORDER>
1
17
9
22
15
8
6
4
13
3
20
10
12
16
14
11
5
19
18
2
7
21

> <PUBCHEM_MMFF94_PARTIAL_CHARGES>
34
1 -0.57
11 0.3
12 0.3
13 0.3
14 -0.03
15 -0.03
16 0.62
17 0.57
18 -0.15
19 -0.14
2 -0.57
20 0.03
21 0.06
22 0.06
23 -0.15
24 -0.15
25 0.07
26 -0.15
27 0.66
28 -0.15
29 0.48
3 -0.65
4 -0.57
40 0.15
41 0.15
46 0.15
47 0.15
48 0.15
49 0.15
5 -0.66
50 0.5
6 -0.47
7 -0.56
9 0.14

> <PUBCHEM_EFFECTIVE_ROTOR_COUNT>
6

> <PUBCHEM_PHARMACOPHORE_FEATURES>
10
1 1 acceptor
1 2 acceptor
1 3 acceptor
1 4 acceptor
1 7 acceptor
3 3 4 27 anion
6 20 23 24 25 26 28 rings
6 5 8 9 10 11 13 rings
6 6 14 15 16 18 19 rings
6 6 8 9 10 12 14 rings

> <PUBCHEM_HEAVY_ATOM_COUNT>
29

> <PUBCHEM_ATOM_DEF_STEREO_COUNT>
2

> <PUBCHEM_ATOM_UDEF_STEREO_COUNT>
0

> <PUBCHEM_BOND_DEF_STEREO_COUNT>
0

> <PUBCHEM_BOND_UDEF_STEREO_COUNT>
0

> <PUBCHEM_ISOTOPIC_ATOM_COUNT>
0

> <PUBCHEM_COMPONENT_COUNT>
1

> <PUBCHEM_CACTVS_TAUTO_COUNT>
1

> <PUBCHEM_CONFORMER_ID>
0074ED4D00000001

> <PUBCHEM_MMFF94_ENERGY>
71.4723

> <PUBCHEM_FEATURE_SELFOVERLAP>
52.371

> <PUBCHEM_SHAPE_FINGERPRINT>
10764073 3 12478116142313705926
11578080 2 17272855295284623066
11582403 64 17760359294559471806
11725454 13 17686616148995599358
12156800 1 17979632334739081962
12788726 201 18194416493206027124
13383661 66 13666034630471711413
1361 2 16902997596946609855
13965767 371 16532846396916426937
14142880 1 15247951216297596778
14466204 15 18195243558258494356
14468879 13 16899340633429690865
14725015 67 17760925538768607561
14863182 85 10015568524390797141
15297060 5 17335620808929209417
17974551 9 17246939041719461552
17980427 23 18054194817833504243
18681886 176 18201161065277512950
19930381 70 17696201683229945725
20600515 1 18265875987351912859
20691752 17 17095240354126475119
20905425 154 18335696195607512437
21315764 371 16974188216780691969
21860390 5 18268694155770321684
23419403 2 16810338199893866414
23559900 14 18271529809602824431
238 59 17624155079543810268
3052486 1 17833268614766076537
35225 105 16752348603228686208
563151 248 17035580553041467962
57527295 17 18042991872505110614
5895379 119 18270681939997566119
59444896 2 17608394358450621358
84936 182 18114461283302701259
9981440 41 16398590087605339456

> <PUBCHEM_SHAPE_MULTIPOLES>
558.39
6.7
5.8
2.36
8.47
11.12
-1.05
-0.65
2.23
-2.15
-2.61
-2.13
-1.75
0.13

> <PUBCHEM_SHAPE_SELFOVERLAP>
1214.217

> <PUBCHEM_SHAPE_VOLUME>
295.6

> <PUBCHEM_COORDINATE_TYPE>
2
5
10

$$$$
