40777724
  -OEChem-12032416353D

 55 58  0     1  0  0  0  0  0999 V2000
    7.2568   -3.1855   -1.3875 Br  0  0  0  0  0  0  0  0  0  0  0  0
   -8.9312    0.5591   -0.6181 O   0  0  0  0  0  0  0  0  0  0  0  0
   -2.7092   -0.4441    0.1124 N   0  0  0  0  0  0  0  0  0  0  0  0
    3.9558    0.7411   -0.1905 N   0  0  0  0  0  0  0  0  0  0  0  0
    3.7631    1.9357   -0.7755 N   0  0  0  0  0  0  0  0  0  0  0  0
    0.3171    0.8617    0.2155 C   0  0  2  0  0  0  0  0  0  0  0  0
   -0.2892   -0.3889   -0.4497 C   0  0  0  0  0  0  0  0  0  0  0  0
   -1.3805   -0.8972    0.5074 C   0  0  1  0  0  0  0  0  0  0  0  0
    1.7943    1.0266   -0.0577 C   0  0  0  0  0  0  0  0  0  0  0  0
   -0.0346    0.6549    1.6597 C   0  0  0  0  0  0  0  0  0  0  0  0
   -0.9627   -0.2956    1.8128 C   0  0  0  0  0  0  0  0  0  0  0  0
    2.8082    0.1548    0.2564 C   0  0  0  0  0  0  0  0  0  0  0  0
    2.4408    2.1047   -0.6915 C   0  0  0  0  0  0  0  0  0  0  0  0
   -3.7458   -1.1782    0.8267 C   0  0  0  0  0  0  0  0  0  0  0  0
    2.7781   -1.1596    0.9295 C   0  0  0  0  0  0  0  0  0  0  0  0
    1.8308    3.3290   -1.2392 C   0  0  0  0  0  0  0  0  0  0  0  0
    5.2460    0.2197   -0.0902 C   0  0  0  0  0  0  0  0  0  0  0  0
   -5.1262   -0.7156    0.4426 C   0  0  0  0  0  0  0  0  0  0  0  0
    5.5523   -1.0037   -0.6860 C   0  0  0  0  0  0  0  0  0  0  0  0
    6.2292    0.9213    0.6077 C   0  0  0  0  0  0  0  0  0  0  0  0
   -5.6245    0.4864    0.9451 C   0  0  0  0  0  0  0  0  0  0  0  0
   -5.9067   -1.4893   -0.4164 C   0  0  0  0  0  0  0  0  0  0  0  0
   -6.9032    0.9146    0.5890 C   0  0  0  0  0  0  0  0  0  0  0  0
   -7.1855   -1.0611   -0.7726 C   0  0  0  0  0  0  0  0  0  0  0  0
    6.8417   -1.5258   -0.5840 C   0  0  0  0  0  0  0  0  0  0  0  0
    7.5186    0.3992    0.7097 C   0  0  0  0  0  0  0  0  0  0  0  0
   -7.6837    0.1408   -0.2699 C   0  0  0  0  0  0  0  0  0  0  0  0
    7.8249   -0.8244    0.1141 C   0  0  0  0  0  0  0  0  0  0  0  0
   -9.6749   -0.2808   -1.5000 C   0  0  0  0  0  0  0  0  0  0  0  0
   -0.2179    1.7544   -0.1336 H   0  0  0  0  0  0  0  0  0  0  0  0
   -0.6717   -0.1548   -1.4511 H   0  0  0  0  0  0  0  0  0  0  0  0
    0.4533   -1.1827   -0.6000 H   0  0  0  0  0  0  0  0  0  0  0  0
   -1.3285   -1.9922    0.5405 H   0  0  0  0  0  0  0  0  0  0  0  0
    0.3797    1.2317    2.4749 H   0  0  0  0  0  0  0  0  0  0  0  0
   -1.3744   -0.5818    2.7706 H   0  0  0  0  0  0  0  0  0  0  0  0
   -2.8310   -0.5906   -0.8899 H   0  0  0  0  0  0  0  0  0  0  0  0
   -3.6436   -1.0559    1.9124 H   0  0  0  0  0  0  0  0  0  0  0  0
   -3.6556   -2.2545    0.6293 H   0  0  0  0  0  0  0  0  0  0  0  0
    2.8077   -1.9703    0.1944 H   0  0  0  0  0  0  0  0  0  0  0  0
    3.6221   -1.2830    1.6165 H   0  0  0  0  0  0  0  0  0  0  0  0
    1.8764   -1.2979    1.5299 H   0  0  0  0  0  0  0  0  0  0  0  0
    1.3204    3.8900   -0.4495 H   0  0  0  0  0  0  0  0  0  0  0  0
    2.5777    3.9915   -1.6894 H   0  0  0  0  0  0  0  0  0  0  0  0
    1.0972    3.0799   -2.0129 H   0  0  0  0  0  0  0  0  0  0  0  0
    4.7932   -1.5476   -1.2443 H   0  0  0  0  0  0  0  0  0  0  0  0
    6.0070    1.8740    1.0823 H   0  0  0  0  0  0  0  0  0  0  0  0
   -5.0257    1.0976    1.6154 H   0  0  0  0  0  0  0  0  0  0  0  0
   -5.5295   -2.4267   -0.8170 H   0  0  0  0  0  0  0  0  0  0  0  0
   -7.2860    1.8519    0.9835 H   0  0  0  0  0  0  0  0  0  0  0  0
   -7.7374   -1.7101   -1.4439 H   0  0  0  0  0  0  0  0  0  0  0  0
    8.2839    0.9447    1.2541 H   0  0  0  0  0  0  0  0  0  0  0  0
    8.8343   -1.2176    0.2038 H   0  0  0  0  0  0  0  0  0  0  0  0
  -10.6417    0.2044   -1.6696 H   0  0  0  0  0  0  0  0  0  0  0  0
   -9.8819   -1.2565   -1.0474 H   0  0  0  0  0  0  0  0  0  0  0  0
   -9.1870   -0.3711   -2.4765 H   0  0  0  0  0  0  0  0  0  0  0  0
  1 25  1  0  0  0  0
  2 27  1  0  0  0  0
  2 29  1  0  0  0  0
  3  8  1  0  0  0  0
  3 14  1  0  0  0  0
  3 36  1  0  0  0  0
  4  5  1  0  0  0  0
  4 12  1  0  0  0  0
  4 17  1  0  0  0  0
  5 13  2  0  0  0  0
  6  7  1  0  0  0  0
  6  9  1  0  0  0  0
  6 10  1  0  0  0  0
  6 30  1  0  0  0  0
  7  8  1  0  0  0  0
  7 31  1  0  0  0  0
  7 32  1  0  0  0  0
  8 11  1  0  0  0  0
  8 33  1  0  0  0  0
  9 12  2  0  0  0  0
  9 13  1  0  0  0  0
 10 11  2  0  0  0  0
 10 34  1  0  0  0  0
 11 35  1  0  0  0  0
 12 15  1  0  0  0  0
 13 16  1  0  0  0  0
 14 18  1  0  0  0  0
 14 37  1  0  0  0  0
 14 38  1  0  0  0  0
 15 39  1  0  0  0  0
 15 40  1  0  0  0  0
 15 41  1  0  0  0  0
 16 42  1  0  0  0  0
 16 43  1  0  0  0  0
 16 44  1  0  0  0  0
 17 19  2  0  0  0  0
 17 20  1  0  0  0  0
 18 21  2  0  0  0  0
 18 22  1  0  0  0  0
 19 25  1  0  0  0  0
 19 45  1  0  0  0  0
 20 26  2  0  0  0  0
 20 46  1  0  0  0  0
 21 23  1  0  0  0  0
 21 47  1  0  0  0  0
 22 24  2  0  0  0  0
 22 48  1  0  0  0  0
 23 27  2  0  0  0  0
 23 49  1  0  0  0  0
 24 27  1  0  0  0  0
 24 50  1  0  0  0  0
 25 28  2  0  0  0  0
 26 28  1  0  0  0  0
 26 51  1  0  0  0  0
 28 52  1  0  0  0  0
 29 53  1  0  0  0  0
 29 54  1  0  0  0  0
 29 55  1  0  0  0  0
M  END
> <PUBCHEM_COMPOUND_CID>
40777724

> <PUBCHEM_CONFORMER_RMSD>
1

> <PUBCHEM_CONFORMER_DIVERSEORDER>
1
144
70
149
148
109
127
63
30
52
119
104
122
74
33
152
159
2
76
145
79
102
5
96
50
151
111
99
154
107
113
93
7
39
67
54
26
110
162
146
112
15
90
105
51
88
28
10
47
44
114
25
123
108
157
147
13
98
37
86
95
134
48
121
164
83
143
82
22
117
58
46
141
124
61
71
4
65
140
97
53
56
163
49
66
160
138
75
129
17
87
57
21
77
150
92
68
142
14
153
78
137
120
132
32
59
156
36
81
23
9
60
16
12
42
38
126
62
131
6
27
91
3
136
103
11
31
41
84
73
18
85
118
69
101
130
155
161
35
135
20
43
89
94
29
133
158
139
128
55
100
115
125
106
24
34
19
64
116
45
72
80
8
40

> <PUBCHEM_MMFF94_PARTIAL_CHARGES>
39
1 -0.11
10 -0.29
11 -0.29
12 -0.33
13 0.11
14 0.41
15 0.18
16 0.18
17 -0.02
18 -0.14
19 -0.15
2 -0.36
20 -0.15
21 -0.15
22 -0.15
23 -0.15
24 -0.15
25 0.11
26 -0.15
27 0.08
28 -0.15
29 0.28
3 -0.9
34 0.15
35 0.15
36 0.36
4 0.59
45 0.15
46 0.15
47 0.15
48 0.15
49 0.15
5 -0.71
50 0.15
51 0.15
52 0.15
6 0.32
8 0.41
9 -0.18

> <PUBCHEM_EFFECTIVE_ROTOR_COUNT>
6.6

> <PUBCHEM_PHARMACOPHORE_FEATURES>
9
1 1 hydrophobe
1 2 acceptor
1 3 cation
1 3 donor
1 5 acceptor
5 4 5 9 12 13 rings
5 6 7 8 10 11 rings
6 17 19 20 25 26 28 rings
6 18 21 22 23 24 27 rings

> <PUBCHEM_HEAVY_ATOM_COUNT>
29

> <PUBCHEM_ATOM_DEF_STEREO_COUNT>
2

> <PUBCHEM_ATOM_UDEF_STEREO_COUNT>
0

> <PUBCHEM_BOND_DEF_STEREO_COUNT>
0

> <PUBCHEM_BOND_UDEF_STEREO_COUNT>
0

> <PUBCHEM_ISOTOPIC_ATOM_COUNT>
0

> <PUBCHEM_COMPONENT_COUNT>
1

> <PUBCHEM_CACTVS_TAUTO_COUNT>
1

> <PUBCHEM_CONFORMER_ID>
026E37FC00000001

> <PUBCHEM_MMFF94_ENERGY>
87.0866

> <PUBCHEM_FEATURE_SELFOVERLAP>
45.671

> <PUBCHEM_SHAPE_FINGERPRINT>
10 15 13470682642949823202
10162869 55 11959720565493551505
106641 1 13110959829751684650
11386260 185 18187642552824035661
11409948 41 18272081644112695463
11719270 70 17632581543539103726
11828422 8 17319318770989661972
12089408 11 17846780707155660427
12236239 1 18202569492469627818
12592606 108 18341895194968233159
12664476 115 16370717137592382143
12977781 61 17056982666554892332
13008946 170 18198338662206154168
13533116 47 18131355211598441362
13885169 127 18343021069321244489
13914758 101 18412268311174347113
14117953 113 18408891728683607254
14216079 64 18411139100597052014
14251764 46 18273213105658436866
14461889 52 12535629383828032676
14856354 85 13767931252153438899
14933364 13 11530480038654964194
15131766 46 16770398551863811264
15183329 4 18187364329005029691
15188451 53 17846503604371384562
15198563 99 17749669576142171637
15439362 3 17753339961258108828
15728490 51 10015577312279493633
15849732 13 18130787871418102294
16120349 18 18272929462398806472
18335252 114 18334290989804113701
18335252 98 10880000163485374604
19841028 212 18342739568992299286
21150785 3 16200432485900850081
21521721 280 8790880774963394212
21585482 111 17241595136821839661
21792934 111 18260821632222907352
21792938 131 17531799140476645138
22224240 67 11743838058354090348
22956985 138 14259136847849948660
23524908 199 18337666426367053143
23559900 14 18115874168708442968
249057 25 18131085843396599377
249057 3 18260550047753564723
28498 318 18408604746983595470
3004659 81 18410854373570118635
3092352 35 13406793333173136929
3103668 31 17822567188252479909
335352 9 18261115188208670934
34797466 226 11963388540594441386
3633792 109 18411983542042181467
4073 2 17459476717557571187
4339292 15 16128362828059424415
4340502 62 10807939258317831304
474113 269 17775287114832187534
5381727 24 11815902237368355980
54076057 255 13912326806476630766
5758199 1 9799691493408699452
58902169 19 18340762754537985653
59521099 67 18201153347264058225
59682541 35 11312053262315659663
59755656 215 17603583019345928635
6201320 82 17533763925228139077
6204607 403 10881695576046131599
6394761 36 17675924300600890967
9663363 56 18186517710180097992
9689198 14 12396302560222013362
99344 41 18202283593751059695
9953998 17 8502652619921535043

> <PUBCHEM_SHAPE_MULTIPOLES>
581.94
29.06
2.32
1.3
35.46
0.14
-0.1
-10.97
8.17
-4.53
1.25
0.44
0.06
0.49

> <PUBCHEM_SHAPE_SELFOVERLAP>
1243.742

> <PUBCHEM_SHAPE_VOLUME>
331.8

> <PUBCHEM_COORDINATE_TYPE>
2
5
10

$$$$
