7049356
  -OEChem-12032416293D

 53 53  0     1  0  0  0  0  0999 V2000
   -1.9514    1.8216    1.8501 O   0  0  0  0  0  0  0  0  0  0  0  0
   -1.6070    3.8113   -1.2004 O   0  0  0  0  0  0  0  0  0  0  0  0
    2.5409    1.7308   -1.4413 O   0  0  0  0  0  0  0  0  0  0  0  0
   -4.6369    0.0652   -0.9400 O   0  0  0  0  0  0  0  0  0  0  0  0
    4.0467    0.6480    2.0732 O   0  0  0  0  0  0  0  0  0  0  0  0
   -2.6006   -0.2452    0.1292 N   0  0  0  0  0  0  0  0  0  0  0  0
    2.2354    0.0169    0.1101 N   0  0  0  0  0  0  0  0  0  0  0  0
    5.7466    0.2848    0.5722 N   0  0  0  0  0  0  0  0  0  0  0  0
   -6.1639   -3.4609    0.8581 N   0  0  0  0  0  0  0  0  0  0  0  0
   -2.1919    2.1635    0.4834 C   0  0  2  0  0  0  0  0  0  0  0  0
   -1.9567    0.9288   -0.4076 C   0  0  1  0  0  0  0  0  0  0  0  0
   -1.2651    3.3221    0.0948 C   0  0  1  0  0  0  0  0  0  0  0  0
    0.2178    2.9141    0.1303 C   0  0  0  0  0  0  0  0  0  0  0  0
    0.4653    1.5220   -0.3775 C   0  0  0  0  0  0  0  0  0  0  0  0
   -0.4999    0.6253   -0.6309 C   0  0  0  0  0  0  0  0  0  0  0  0
    3.5494   -0.5655    0.0262 C   0  0  2  0  0  0  0  0  0  0  0  0
    1.8503    1.1170   -0.6352 C   0  0  0  0  0  0  0  0  0  0  0  0
    3.5460   -2.0604    0.3693 C   0  0  0  0  0  0  0  0  0  0  0  0
    2.6196   -2.9241   -0.5110 C   0  0  0  0  0  0  0  0  0  0  0  0
   -3.9089   -0.5800   -0.1904 C   0  0  0  0  0  0  0  0  0  0  0  0
    2.6621   -4.3784   -0.0337 C   0  0  0  0  0  0  0  0  0  0  0  0
    2.9942   -2.8572   -1.9921 C   0  0  0  0  0  0  0  0  0  0  0  0
    4.4384    0.1970    0.9995 C   0  0  0  0  0  0  0  0  0  0  0  0
   -4.3468   -1.8581    0.5028 C   0  0  0  0  0  0  0  0  0  0  0  0
   -5.7834   -2.2387    0.1608 C   0  0  0  0  0  0  0  0  0  0  0  0
   -3.2422    2.4678    0.3986 H   0  0  0  0  0  0  0  0  0  0  0  0
   -2.3896    1.1287   -1.3967 H   0  0  0  0  0  0  0  0  0  0  0  0
   -1.4079    4.1539    0.7954 H   0  0  0  0  0  0  0  0  0  0  0  0
    0.5759    2.9588    1.1666 H   0  0  0  0  0  0  0  0  0  0  0  0
    0.8094    3.6291   -0.4538 H   0  0  0  0  0  0  0  0  0  0  0  0
   -0.2516   -0.3516   -1.0410 H   0  0  0  0  0  0  0  0  0  0  0  0
   -2.0908   -0.8202    0.7948 H   0  0  0  0  0  0  0  0  0  0  0  0
    3.9325   -0.4080   -0.9887 H   0  0  0  0  0  0  0  0  0  0  0  0
    4.5730   -2.4445    0.3051 H   0  0  0  0  0  0  0  0  0  0  0  0
    3.2453   -2.1849    1.4190 H   0  0  0  0  0  0  0  0  0  0  0  0
    1.5866   -2.5712   -0.4019 H   0  0  0  0  0  0  0  0  0  0  0  0
    1.5944   -0.3660    0.8001 H   0  0  0  0  0  0  0  0  0  0  0  0
   -2.1365    2.6115    2.3861 H   0  0  0  0  0  0  0  0  0  0  0  0
   -1.0295    4.5702   -1.3904 H   0  0  0  0  0  0  0  0  0  0  0  0
    2.3597   -4.4523    1.0162 H   0  0  0  0  0  0  0  0  0  0  0  0
    1.9787   -5.0010   -0.6211 H   0  0  0  0  0  0  0  0  0  0  0  0
    3.6691   -4.7989   -0.1276 H   0  0  0  0  0  0  0  0  0  0  0  0
    2.3716   -3.5394   -2.5812 H   0  0  0  0  0  0  0  0  0  0  0  0
    2.8419   -1.8520   -2.3966 H   0  0  0  0  0  0  0  0  0  0  0  0
    4.0418   -3.1348   -2.1496 H   0  0  0  0  0  0  0  0  0  0  0  0
   -3.6600   -2.6597    0.2035 H   0  0  0  0  0  0  0  0  0  0  0  0
   -4.2418   -1.7111    1.5850 H   0  0  0  0  0  0  0  0  0  0  0  0
   -5.8912   -2.3858   -0.9198 H   0  0  0  0  0  0  0  0  0  0  0  0
   -6.4673   -1.4330    0.4500 H   0  0  0  0  0  0  0  0  0  0  0  0
    6.4472    0.7562    1.1345 H   0  0  0  0  0  0  0  0  0  0  0  0
    6.0614   -0.1126   -0.3071 H   0  0  0  0  0  0  0  0  0  0  0  0
   -7.1066   -3.7297    0.5792 H   0  0  0  0  0  0  0  0  0  0  0  0
   -5.5526   -4.2244    0.5713 H   0  0  0  0  0  0  0  0  0  0  0  0
  1 10  1  0  0  0  0
  1 38  1  0  0  0  0
  2 12  1  0  0  0  0
  2 39  1  0  0  0  0
  3 17  2  0  0  0  0
  4 20  2  0  0  0  0
  5 23  2  0  0  0  0
  6 11  1  0  0  0  0
  6 20  1  0  0  0  0
  6 32  1  0  0  0  0
  7 16  1  0  0  0  0
  7 17  1  0  0  0  0
  7 37  1  0  0  0  0
  8 23  1  0  0  0  0
  8 50  1  0  0  0  0
  8 51  1  0  0  0  0
  9 25  1  0  0  0  0
  9 52  1  0  0  0  0
  9 53  1  0  0  0  0
 10 11  1  0  0  0  0
 10 12  1  0  0  0  0
 10 26  1  0  0  0  0
 11 15  1  0  0  0  0
 11 27  1  0  0  0  0
 12 13  1  0  0  0  0
 12 28  1  0  0  0  0
 13 14  1  0  0  0  0
 13 29  1  0  0  0  0
 13 30  1  0  0  0  0
 14 15  2  0  0  0  0
 14 17  1  0  0  0  0
 15 31  1  0  0  0  0
 16 18  1  0  0  0  0
 16 23  1  0  0  0  0
 16 33  1  0  0  0  0
 18 19  1  0  0  0  0
 18 34  1  0  0  0  0
 18 35  1  0  0  0  0
 19 21  1  0  0  0  0
 19 22  1  0  0  0  0
 19 36  1  0  0  0  0
 20 24  1  0  0  0  0
 21 40  1  0  0  0  0
 21 41  1  0  0  0  0
 21 42  1  0  0  0  0
 22 43  1  0  0  0  0
 22 44  1  0  0  0  0
 22 45  1  0  0  0  0
 24 25  1  0  0  0  0
 24 46  1  0  0  0  0
 24 47  1  0  0  0  0
 25 48  1  0  0  0  0
 25 49  1  0  0  0  0
M  END
> <PUBCHEM_COMPOUND_CID>
7049356

> <PUBCHEM_CONFORMER_RMSD>
1

> <PUBCHEM_CONFORMER_DIVERSEORDER>
1
39
110
58
88
49
77
89
93
102
21
33
84
67
97
59
37
70
107
90
34
28
101
91
62
47
18
109
53
86
17
94
87
43
52
100
108
61
24
41
8
42
48
63
30
25
11
64
72
74
81
76
38
79
99
50
92
69
106
68
7
16
5
55
20
103
80
32
75
54
29
60
85
83
57
104
44
9
78
96
56
51
27
45
35
6
23
65
31
3
19
98
36
15
12
73
95
71
10
13
40
66
22
105
14
46
82
26
2
4

> <PUBCHEM_MMFF94_PARTIAL_CHARGES>
30
1 -0.68
10 0.28
11 0.44
12 0.28
13 0.14
14 -0.12
15 -0.29
16 0.36
17 0.62
2 -0.68
20 0.57
23 0.57
24 0.06
25 0.27
3 -0.57
31 0.15
32 0.37
37 0.37
38 0.4
39 0.4
4 -0.57
5 -0.57
50 0.37
51 0.37
52 0.36
53 0.36
6 -0.73
7 -0.73
8 -0.8
9 -0.99

> <PUBCHEM_EFFECTIVE_ROTOR_COUNT>
10.8

> <PUBCHEM_PHARMACOPHORE_FEATURES>
14
1 1 acceptor
1 1 donor
1 2 acceptor
1 2 donor
1 3 acceptor
1 4 acceptor
1 5 acceptor
1 6 donor
1 7 donor
1 8 donor
1 9 cation
1 9 donor
3 19 21 22 hydrophobe
6 10 11 12 13 14 15 rings

> <PUBCHEM_HEAVY_ATOM_COUNT>
25

> <PUBCHEM_ATOM_DEF_STEREO_COUNT>
4

> <PUBCHEM_ATOM_UDEF_STEREO_COUNT>
0

> <PUBCHEM_BOND_DEF_STEREO_COUNT>
0

> <PUBCHEM_BOND_UDEF_STEREO_COUNT>
0

> <PUBCHEM_ISOTOPIC_ATOM_COUNT>
0

> <PUBCHEM_COMPONENT_COUNT>
1

> <PUBCHEM_CACTVS_TAUTO_COUNT>
8

> <PUBCHEM_CONFORMER_ID>
006B908C00000001

> <PUBCHEM_MMFF94_ENERGY>
37.3642

> <PUBCHEM_FEATURE_SELFOVERLAP>
71.055

> <PUBCHEM_SHAPE_FINGERPRINT>
10928967 22 17757852038391227266
11552529 35 17774430590720466352
11796584 16 18041266721786020727
12553582 1 18270116941144311143
12596602 18 16916790746657565675
12892183 10 17989204824161218312
13140716 1 17983288515221629054
13533116 47 17913758432128388509
13583140 156 17844509051423946124
13911882 115 18272373049269519518
13955234 65 17618512421137728905
14178342 30 18264762173994652960
14429115 67 18342463629731807431
14863182 85 18411423946906741054
15927050 60 17331681757199657636
17492 89 18338234851923975318
18335252 114 9150636559992500611
19958102 18 17828472584264978501
20286276 3 18124599678522743286
20567600 70 18190175874626586043
21315759 227 18260823821928098215
23559900 14 18053090728250645064
3004659 81 17895190051604269309
3421961 26 18266458905056751121
463206 1 18193839473320019727
5104073 3 18200305499438949066
5309563 4 18411704300659805231
56633871 153 18267881492951629643
6433294 58 18049166858766326331
9709674 26 18053374410386547180

> <PUBCHEM_SHAPE_MULTIPOLES>
465.22
11.59
5.12
1.31
7.28
2.23
0.05
11.21
2.87
1.75
-0.55
-0.89
-0.1
1.69

> <PUBCHEM_SHAPE_SELFOVERLAP>
931.043

> <PUBCHEM_SHAPE_VOLUME>
271.2

> <PUBCHEM_COORDINATE_TYPE>
2
5
10

$$$$
