45783279
  -OEChem-12032416203D

 52 55  0     1  0  0  0  0  0999 V2000
   -2.6129    2.2246    0.1408 O   0  0  0  0  0  0  0  0  0  0  0  0
    5.4127   -2.3093    0.3017 O   0  0  0  0  0  0  0  0  0  0  0  0
   -3.2555   -1.3316    0.8088 N   0  0  1  0  0  0  0  0  0  0  0  0
   -1.0634    0.6884    0.6468 N   0  0  0  0  0  0  0  0  0  0  0  0
   -1.3732    2.8190   -0.1268 N   0  0  0  0  0  0  0  0  0  0  0  0
   -1.5061   -0.4210   -3.4594 N   0  0  0  0  0  0  0  0  0  0  0  0
    3.9838    0.1121    0.6640 N   0  0  0  0  0  0  0  0  0  0  0  0
    3.6785    2.3324   -0.1446 N   0  0  0  0  0  0  0  0  0  0  0  0
   -3.5319    0.1114    0.9554 C   0  0  1  0  0  0  0  0  0  0  0  0
   -3.9615    0.2801    2.4245 C   0  0  0  0  0  0  0  0  0  0  0  0
   -3.9551   -1.1270    3.0048 C   0  0  0  0  0  0  0  0  0  0  0  0
   -4.1017   -2.0160    1.7864 C   0  0  0  0  0  0  0  0  0  0  0  0
   -3.4739   -1.8237   -0.5453 C   0  0  0  0  0  0  0  0  0  0  0  0
   -2.3402    0.9724    0.5923 C   0  0  0  0  0  0  0  0  0  0  0  0
   -2.3177   -1.4989   -1.4533 C   0  0  0  0  0  0  0  0  0  0  0  0
   -0.5100    1.8514    0.1962 C   0  0  0  0  0  0  0  0  0  0  0  0
   -1.0332   -1.9470   -1.1656 C   0  0  0  0  0  0  0  0  0  0  0  0
   -2.4998   -0.7461   -2.6021 C   0  0  0  0  0  0  0  0  0  0  0  0
    0.9104    2.0148    0.0817 C   0  0  0  0  0  0  0  0  0  0  0  0
    0.0150   -1.6330   -2.0236 C   0  0  0  0  0  0  0  0  0  0  0  0
   -0.2713   -0.8742   -3.1469 C   0  0  0  0  0  0  0  0  0  0  0  0
    1.7635    0.9740    0.4320 C   0  0  0  0  0  0  0  0  0  0  0  0
    1.4400    3.2143   -0.3815 C   0  0  0  0  0  0  0  0  0  0  0  0
    3.1272    1.1815    0.3017 C   0  0  0  0  0  0  0  0  0  0  0  0
    2.8181    3.3215   -0.4754 C   0  0  0  0  0  0  0  0  0  0  0  0
    3.4933   -1.1379    1.1459 C   0  0  0  0  0  0  0  0  0  0  0  0
    4.6549   -2.0587    1.4786 C   0  0  0  0  0  0  0  0  0  0  0  0
    6.5100   -3.1735    0.5628 C   0  0  0  0  0  0  0  0  0  0  0  0
   -4.3809    0.4111    0.3249 H   0  0  0  0  0  0  0  0  0  0  0  0
   -3.3087    0.9426    3.0033 H   0  0  0  0  0  0  0  0  0  0  0  0
   -4.9783    0.6893    2.4664 H   0  0  0  0  0  0  0  0  0  0  0  0
   -4.7571   -1.2777    3.7334 H   0  0  0  0  0  0  0  0  0  0  0  0
   -2.9982   -1.3191    3.5059 H   0  0  0  0  0  0  0  0  0  0  0  0
   -5.1502   -2.0502    1.4643 H   0  0  0  0  0  0  0  0  0  0  0  0
   -3.7573   -3.0350    1.9885 H   0  0  0  0  0  0  0  0  0  0  0  0
   -4.4236   -1.4631   -0.9619 H   0  0  0  0  0  0  0  0  0  0  0  0
   -3.5528   -2.9199   -0.5358 H   0  0  0  0  0  0  0  0  0  0  0  0
   -0.8351   -2.5440   -0.2796 H   0  0  0  0  0  0  0  0  0  0  0  0
   -3.4778   -0.3659   -2.8805 H   0  0  0  0  0  0  0  0  0  0  0  0
    1.0246   -1.9704   -1.8185 H   0  0  0  0  0  0  0  0  0  0  0  0
    0.5116   -0.6012   -3.8467 H   0  0  0  0  0  0  0  0  0  0  0  0
    1.3467    0.0400    0.7909 H   0  0  0  0  0  0  0  0  0  0  0  0
    0.8244    4.0600   -0.6696 H   0  0  0  0  0  0  0  0  0  0  0  0
    3.2815    4.2359   -0.8311 H   0  0  0  0  0  0  0  0  0  0  0  0
    4.9788    0.2753    0.5607 H   0  0  0  0  0  0  0  0  0  0  0  0
    2.8953   -1.0042    2.0548 H   0  0  0  0  0  0  0  0  0  0  0  0
    2.8778   -1.6221    0.3779 H   0  0  0  0  0  0  0  0  0  0  0  0
    5.2996   -1.5985    2.2374 H   0  0  0  0  0  0  0  0  0  0  0  0
    4.2688   -3.0058    1.8731 H   0  0  0  0  0  0  0  0  0  0  0  0
    6.1568   -4.1424    0.9290 H   0  0  0  0  0  0  0  0  0  0  0  0
    7.0538   -3.3314   -0.3724 H   0  0  0  0  0  0  0  0  0  0  0  0
    7.1907   -2.7205    1.2900 H   0  0  0  0  0  0  0  0  0  0  0  0
  1  5  1  0  0  0  0
  1 14  1  0  0  0  0
  2 27  1  0  0  0  0
  2 28  1  0  0  0  0
  3  9  1  0  0  0  0
  3 12  1  0  0  0  0
  3 13  1  0  0  0  0
  4 14  2  0  0  0  0
  4 16  1  0  0  0  0
  5 16  2  0  0  0  0
  6 18  1  0  0  0  0
  6 21  2  0  0  0  0
  7 24  1  0  0  0  0
  7 26  1  0  0  0  0
  7 45  1  0  0  0  0
  8 24  2  0  0  0  0
  8 25  1  0  0  0  0
  9 10  1  0  0  0  0
  9 14  1  0  0  0  0
  9 29  1  0  0  0  0
 10 11  1  0  0  0  0
 10 30  1  0  0  0  0
 10 31  1  0  0  0  0
 11 12  1  0  0  0  0
 11 32  1  0  0  0  0
 11 33  1  0  0  0  0
 12 34  1  0  0  0  0
 12 35  1  0  0  0  0
 13 15  1  0  0  0  0
 13 36  1  0  0  0  0
 13 37  1  0  0  0  0
 15 17  1  0  0  0  0
 15 18  2  0  0  0  0
 16 19  1  0  0  0  0
 17 20  2  0  0  0  0
 17 38  1  0  0  0  0
 18 39  1  0  0  0  0
 19 22  2  0  0  0  0
 19 23  1  0  0  0  0
 20 21  1  0  0  0  0
 20 40  1  0  0  0  0
 21 41  1  0  0  0  0
 22 24  1  0  0  0  0
 22 42  1  0  0  0  0
 23 25  2  0  0  0  0
 23 43  1  0  0  0  0
 25 44  1  0  0  0  0
 26 27  1  0  0  0  0
 26 46  1  0  0  0  0
 26 47  1  0  0  0  0
 27 48  1  0  0  0  0
 27 49  1  0  0  0  0
 28 50  1  0  0  0  0
 28 51  1  0  0  0  0
 28 52  1  0  0  0  0
M  END
> <PUBCHEM_COMPOUND_CID>
45783279

> <PUBCHEM_CONFORMER_RMSD>
1

> <PUBCHEM_CONFORMER_DIVERSEORDER>
1
142
90
28
89
64
83
112
111
133
146
4
41
166
130
159
55
153
67
148
134
80
50
162
102
95
70
75
51
72
58
147
76
149
129
156
85
94
69
22
25
121
43
52
161
108
63
164
77
131
165
30
84
98
74
135
35
141
160
21
44
115
56
46
126
97
101
157
128
29
18
92
73
19
136
59
86
137
105
124
117
13
3
12
104
132
8
107
109
93
42
34
158
33
37
5
145
24
81
87
61
20
154
91
155
47
31
66
139
100
53
49
62
116
151
78
120
125
118
144
38
68
152
79
138
127
106
110
65
16
39
140
6
60
96
163
143
82
113
57
36
103
99
27
26
2
122
150
32
88
45
15
123
71
14
10
40
114
48
119
7
17
9
54
11
23

> <PUBCHEM_MMFF94_PARTIAL_CHARGES>
34
1 -0.02
12 0.27
13 0.41
14 0.3
15 -0.14
16 0.46
17 -0.15
18 0.16
19 0.05
2 -0.56
20 -0.15
21 0.16
22 -0.15
23 -0.15
24 0.41
25 0.16
26 0.37
27 0.28
28 0.28
3 -0.81
38 0.15
39 0.15
4 -0.57
40 0.15
41 0.15
42 0.15
43 0.15
44 0.15
45 0.4
5 -0.41
6 -0.62
7 -0.87
8 -0.62
9 0.45

> <PUBCHEM_EFFECTIVE_ROTOR_COUNT>
9

> <PUBCHEM_PHARMACOPHORE_FEATURES>
10
1 2 acceptor
1 3 cation
1 6 acceptor
1 7 donor
3 4 5 16 cation
3 7 8 24 cation
5 1 4 5 14 16 rings
5 3 9 10 11 12 rings
6 6 15 17 18 20 21 rings
6 8 19 22 23 24 25 rings

> <PUBCHEM_HEAVY_ATOM_COUNT>
28

> <PUBCHEM_ATOM_DEF_STEREO_COUNT>
1

> <PUBCHEM_ATOM_UDEF_STEREO_COUNT>
0

> <PUBCHEM_BOND_DEF_STEREO_COUNT>
0

> <PUBCHEM_BOND_UDEF_STEREO_COUNT>
0

> <PUBCHEM_ISOTOPIC_ATOM_COUNT>
0

> <PUBCHEM_COMPONENT_COUNT>
1

> <PUBCHEM_CACTVS_TAUTO_COUNT>
2

> <PUBCHEM_CONFORMER_ID>
02BA98EF00000001

> <PUBCHEM_MMFF94_ENERGY>
65.0639

> <PUBCHEM_FEATURE_SELFOVERLAP>
50.747

> <PUBCHEM_SHAPE_FINGERPRINT>
10764073 3 18189064101431584489
11135926 11 18263359365057208196
11607047 141 15938985139708643289
11725454 13 13829592924584368065
12422481 6 17845945017735821518
12633257 1 18341626905504120067
12788726 201 16410984757789118093
13383661 66 13345517691606141506
14910302 57 16298925654536614369
15484559 13 11541532582951203889
15537594 2 18341338863965206992
16110190 28 18272369742365929474
17809404 112 17683196487708295234
19319366 153 17835253615570072960
21796203 349 18198648621552496536
235170 7 16733255880413051668
345986 75 17127598028092055671
484985 159 18190443992102538103
7064713 232 17275111617155655795
9862522 239 17774735237715768801

> <PUBCHEM_SHAPE_MULTIPOLES>
534.6
10.27
3.89
2.85
12.49
1.56
-1.63
-8.88
7.05
4.7
0.04
-3.64
-1.85
-1.37

> <PUBCHEM_SHAPE_SELFOVERLAP>
1144.799

> <PUBCHEM_SHAPE_VOLUME>
295.9

> <PUBCHEM_COORDINATE_TYPE>
2
5
10

$$$$
