75536639
  -OEChem-12032416303D

 46 48  0     1  0  0  0  0  0999 V2000
    8.3327   -1.7210   -0.6049 F   0  0  0  0  0  0  0  0  0  0  0  0
    0.0911   -0.8338    0.1381 O   0  0  0  0  0  0  0  0  0  0  0  0
   -1.2323    2.5053    0.0687 O   0  0  0  0  0  0  0  0  0  0  0  0
    3.3921    2.1710   -0.1459 O   0  0  0  0  0  0  0  0  0  0  0  0
   -3.3900    0.2206    0.0960 N   0  0  0  0  0  0  0  0  0  0  0  0
    2.5543    0.3542    1.0289 N   0  0  0  0  0  0  0  0  0  0  0  0
   -1.9928    0.2158   -0.3060 C   0  0  1  0  0  0  0  0  0  0  0  0
   -1.1238    1.1628    0.5007 C   0  0  1  0  0  0  0  0  0  0  0  0
    0.2614    0.5903    0.2322 C   0  0  1  0  0  0  0  0  0  0  0  0
   -1.3072   -1.1157   -0.0473 C   0  0  0  0  0  0  0  0  0  0  0  0
    1.2673    0.9161    1.3218 C   0  0  0  0  0  0  0  0  0  0  0  0
   -4.2266   -0.4310   -0.9047 C   0  0  0  0  0  0  0  0  0  0  0  0
   -5.6759   -0.4502   -0.4973 C   0  0  0  0  0  0  0  0  0  0  0  0
    3.5283    1.0376    0.3073 C   0  0  0  0  0  0  0  0  0  0  0  0
   -6.1788   -1.5207    0.2422 C   0  0  0  0  0  0  0  0  0  0  0  0
   -6.5156    0.6030   -0.8591 C   0  0  0  0  0  0  0  0  0  0  0  0
    4.7993    0.3072    0.0657 C   0  0  0  0  0  0  0  0  0  0  0  0
   -7.5216   -1.5379    0.6199 C   0  0  0  0  0  0  0  0  0  0  0  0
   -7.8583    0.5861   -0.4814 C   0  0  0  0  0  0  0  0  0  0  0  0
   -8.3613   -0.4846    0.2579 C   0  0  0  0  0  0  0  0  0  0  0  0
    5.5779    0.6132   -1.0506 C   0  0  0  0  0  0  0  0  0  0  0  0
    5.2144   -0.6838    0.9551 C   0  0  0  0  0  0  0  0  0  0  0  0
    6.7713   -0.0720   -1.2775 C   0  0  0  0  0  0  0  0  0  0  0  0
    6.4078   -1.3691    0.7282 C   0  0  0  0  0  0  0  0  0  0  0  0
    7.1863   -1.0633   -0.3880 C   0  0  0  0  0  0  0  0  0  0  0  0
   -1.9022    0.4916   -1.3663 H   0  0  0  0  0  0  0  0  0  0  0  0
   -1.3720    1.1137    1.5683 H   0  0  0  0  0  0  0  0  0  0  0  0
    0.6442    0.9380   -0.7364 H   0  0  0  0  0  0  0  0  0  0  0  0
   -1.6638   -1.5967    0.8709 H   0  0  0  0  0  0  0  0  0  0  0  0
   -1.4275   -1.8211   -0.8751 H   0  0  0  0  0  0  0  0  0  0  0  0
    0.9536    0.4820    2.2776 H   0  0  0  0  0  0  0  0  0  0  0  0
    1.3635    1.9998    1.4474 H   0  0  0  0  0  0  0  0  0  0  0  0
   -3.7004    1.1860    0.2088 H   0  0  0  0  0  0  0  0  0  0  0  0
   -3.8989   -1.4650   -1.0714 H   0  0  0  0  0  0  0  0  0  0  0  0
   -4.1378    0.0775   -1.8740 H   0  0  0  0  0  0  0  0  0  0  0  0
   -1.0124    2.5407   -0.8776 H   0  0  0  0  0  0  0  0  0  0  0  0
    2.7058   -0.6074    1.3141 H   0  0  0  0  0  0  0  0  0  0  0  0
   -5.5345   -2.3465    0.5319 H   0  0  0  0  0  0  0  0  0  0  0  0
   -6.1355    1.4437   -1.4336 H   0  0  0  0  0  0  0  0  0  0  0  0
   -7.9131   -2.3711    1.1960 H   0  0  0  0  0  0  0  0  0  0  0  0
   -8.5121    1.4064   -0.7626 H   0  0  0  0  0  0  0  0  0  0  0  0
   -9.4067   -0.4977    0.5521 H   0  0  0  0  0  0  0  0  0  0  0  0
    5.2696    1.3790   -1.7574 H   0  0  0  0  0  0  0  0  0  0  0  0
    4.6543   -0.9313    1.8519 H   0  0  0  0  0  0  0  0  0  0  0  0
    7.3774    0.1651   -2.1468 H   0  0  0  0  0  0  0  0  0  0  0  0
    6.7353   -2.1362    1.4238 H   0  0  0  0  0  0  0  0  0  0  0  0
  1 25  1  0  0  0  0
  2  9  1  0  0  0  0
  2 10  1  0  0  0  0
  3  8  1  0  0  0  0
  3 36  1  0  0  0  0
  4 14  2  0  0  0  0
  5  7  1  0  0  0  0
  5 12  1  0  0  0  0
  5 33  1  0  0  0  0
  6 11  1  0  0  0  0
  6 14  1  0  0  0  0
  6 37  1  0  0  0  0
  7  8  1  0  0  0  0
  7 10  1  0  0  0  0
  7 26  1  0  0  0  0
  8  9  1  0  0  0  0
  8 27  1  0  0  0  0
  9 11  1  0  0  0  0
  9 28  1  0  0  0  0
 10 29  1  0  0  0  0
 10 30  1  0  0  0  0
 11 31  1  0  0  0  0
 11 32  1  0  0  0  0
 12 13  1  0  0  0  0
 12 34  1  0  0  0  0
 12 35  1  0  0  0  0
 13 15  2  0  0  0  0
 13 16  1  0  0  0  0
 14 17  1  0  0  0  0
 15 18  1  0  0  0  0
 15 38  1  0  0  0  0
 16 19  2  0  0  0  0
 16 39  1  0  0  0  0
 17 21  2  0  0  0  0
 17 22  1  0  0  0  0
 18 20  2  0  0  0  0
 18 40  1  0  0  0  0
 19 20  1  0  0  0  0
 19 41  1  0  0  0  0
 20 42  1  0  0  0  0
 21 23  1  0  0  0  0
 21 43  1  0  0  0  0
 22 24  2  0  0  0  0
 22 44  1  0  0  0  0
 23 25  2  0  0  0  0
 23 45  1  0  0  0  0
 24 25  1  0  0  0  0
 24 46  1  0  0  0  0
M  END
> <PUBCHEM_COMPOUND_CID>
75536639

> <PUBCHEM_CONFORMER_RMSD>
0.8

> <PUBCHEM_CONFORMER_DIVERSEORDER>
1
185
11
228
71
200
127
164
187
271
21
12
260
115
167
140
123
24
266
281
82
52
137
186
38
121
161
261
183
165
120
85
54
75
280
251
43
246
184
48
234
13
219
268
247
47
237
223
108
245
134
3
171
197
67
149
33
249
90
132
138
116
259
74
72
7
188
102
129
163
217
78
35
282
169
84
238
20
215
80
40
150
152
70
278
118
158
236
173
205
179
8
143
207
191
201
250
180
175
258
256
51
59
229
155
77
98
107
28
270
83
216
65
263
15
192
193
58
30
170
62
176
26
114
135
104
240
210
66
248
172
103
181
203
119
46
264
81
209
111
218
144
224
242
113
211
73
255
227
252
235
141
230
253
97
220
17
94
221
239
196
151
44
273
182
226
269
110
257
39
190
100
277
195
231
95
18
19
128
89
37
178
147
139
232
148
6
105
64
60
91
272
56
160
275
50
31
157
99
168
276
214
34
267
130
244
204
126
9
125
14
87
27
225
92
69
206
86
124
174
198
274
68
243
112
23
154
32
202
199
57
189
162
146
145
166
254
4
93
45
49
96
194
208
53
262
222
25
241
55
212
133
10
153
101
279
122
109
265
213
177
42
61
16
36
117
2
106
76
159
142
29
136
156
22
63
41
233
79
5
131
88

> <PUBCHEM_MMFF94_PARTIAL_CHARGES>
37
1 -0.19
10 0.28
11 0.3
12 0.41
13 -0.14
14 0.54
15 -0.15
16 -0.15
17 0.09
18 -0.15
19 -0.15
2 -0.56
20 -0.15
21 -0.15
22 -0.15
23 -0.15
24 -0.15
25 0.19
3 -0.68
33 0.36
36 0.4
37 0.37
38 0.15
39 0.15
4 -0.57
40 0.15
41 0.15
42 0.15
43 0.15
44 0.15
45 0.15
46 0.15
5 -0.9
6 -0.73
7 0.27
8 0.28
9 0.28

> <PUBCHEM_EFFECTIVE_ROTOR_COUNT>
8

> <PUBCHEM_PHARMACOPHORE_FEATURES>
10
1 2 acceptor
1 3 acceptor
1 3 donor
1 4 acceptor
1 5 cation
1 5 donor
1 6 donor
5 2 7 8 9 10 rings
6 13 15 16 18 19 20 rings
6 17 21 22 23 24 25 rings

> <PUBCHEM_HEAVY_ATOM_COUNT>
25

> <PUBCHEM_ATOM_DEF_STEREO_COUNT>
3

> <PUBCHEM_ATOM_UDEF_STEREO_COUNT>
0

> <PUBCHEM_BOND_DEF_STEREO_COUNT>
0

> <PUBCHEM_BOND_UDEF_STEREO_COUNT>
0

> <PUBCHEM_ISOTOPIC_ATOM_COUNT>
0

> <PUBCHEM_COMPONENT_COUNT>
1

> <PUBCHEM_CACTVS_TAUTO_COUNT>
2

> <PUBCHEM_CONFORMER_ID>
048098FF00000001

> <PUBCHEM_MMFF94_ENERGY>
57.4235

> <PUBCHEM_FEATURE_SELFOVERLAP>
50.747

> <PUBCHEM_SHAPE_FINGERPRINT>
10 15 10159696897657613860
10162869 55 9727341412630580001
10299344 5 18113335310718868827
10429389 143 9223238434098981059
106641 1 9367339349739601557
11135609 127 16878236372309990900
11524674 6 17275102860334875791
11638347 137 13110969712793180036
12166972 35 17967814972157400381
125118 31 10231765495412849467
12592606 108 18201716288864051031
13533116 47 16660911202023380360
13668630 136 18410292502075598238
13673619 4 18060698385845830096
13685833 64 17989768904102293656
13885169 127 18131070398894305425
14216079 64 17846218834891085366
14251752 14 18413103957613351293
14251764 18 11455886966682276465
14294032 229 18193842531305540873
14347424 109 16056873663440557658
14428016 86 12251901482734149320
14856354 85 17821729464578376975
14933364 13 18040432205255893405
15131766 46 13468682721139863306
15183329 4 18410575071788824160
15352257 5 18335138713301134795
15849732 13 17458345255931869471
16090146 7 16733279966447236433
17093844 174 12607407698624982879
1754911 235 15430033262593663751
18365409 1 15068918506704046339
21150785 3 16732702748570129214
21267235 1 18411419509640865681
21365058 27 15791729703136439891
21781051 124 18336270127566151522
21792961 116 18411976928557364845
220451 1 16805313410490414995
221357 26 17530681001179956228
22224240 67 12895353291488548556
23035841 295 18412542128867849371
23081809 10 14490735846488264581
23559900 14 18268422602611644432
246663 6 18343303664793834851
24771293 8 11025793176588904255
28498 318 18131349691636869143
3004659 81 18408882945533288008
328311 84 18412546535303893403
34797466 226 16225765216060697374
4107672 100 17967525736997465253
4339292 15 9943226149381034165
439807 62 18411139113197013278
444769 64 17918272069832841023
5470011 282 18113903767078774902
5758199 1 13117996678774277917
59682541 35 10303806588217639758
59755656 215 18272369754565250071
6438161 24 18335414652618427746

> <PUBCHEM_SHAPE_MULTIPOLES>
479.64
27.51
1.68
1.03
9.14
0.31
0.01
-11.25
4.76
-0.57
-0.14
-0.81
0.02
0.52

> <PUBCHEM_SHAPE_SELFOVERLAP>
1019.214

> <PUBCHEM_SHAPE_VOLUME>
268.2

> <PUBCHEM_COORDINATE_TYPE>
2
5
10

$$$$
