75536785
  -OEChem-12032416343D

 38 39  0     1  0  0  0  0  0999 V2000
   -1.3886    1.2413   -0.0969 O   0  0  0  0  0  0  0  0  0  0  0  0
   -2.9649   -1.9806    0.1052 O   0  0  0  0  0  0  0  0  0  0  0  0
    1.6731   -1.9970    0.2854 O   0  0  0  0  0  0  0  0  0  0  0  0
   -4.9402    0.4615    0.0013 N   0  0  0  0  0  0  0  0  0  0  0  0
    0.9689   -0.1661   -0.9534 N   0  0  0  0  0  0  0  0  0  0  0  0
    5.7092    0.9482    0.3904 N   0  0  0  0  0  0  0  0  0  0  0  0
   -3.5438    0.3732    0.3964 C   0  0  1  0  0  0  0  0  0  0  0  0
   -2.7565   -0.6676   -0.3779 C   0  0  1  0  0  0  0  0  0  0  0  0
   -1.3293   -0.1943   -0.1377 C   0  0  1  0  0  0  0  0  0  0  0  0
   -2.7596    1.6372    0.0842 C   0  0  0  0  0  0  0  0  0  0  0  0
   -0.3598   -0.6374   -1.2189 C   0  0  0  0  0  0  0  0  0  0  0  0
   -5.6377   -0.8000    0.2685 C   0  0  0  0  0  0  0  0  0  0  0  0
   -5.6099    1.5639    0.6976 C   0  0  0  0  0  0  0  0  0  0  0  0
    1.8927   -0.8953   -0.2111 C   0  0  0  0  0  0  0  0  0  0  0  0
    3.2180   -0.2569   -0.0032 C   0  0  0  0  0  0  0  0  0  0  0  0
    3.9779   -0.5745    1.1172 C   0  0  0  0  0  0  0  0  0  0  0  0
    3.7024    0.6626   -0.9270 C   0  0  0  0  0  0  0  0  0  0  0  0
    5.2056    0.0501    1.2664 C   0  0  0  0  0  0  0  0  0  0  0  0
    4.9425    1.2318   -0.6864 C   0  0  0  0  0  0  0  0  0  0  0  0
   -3.4655    0.1582    1.4728 H   0  0  0  0  0  0  0  0  0  0  0  0
   -3.0054   -0.6392   -1.4462 H   0  0  0  0  0  0  0  0  0  0  0  0
   -0.9674   -0.5341    0.8416 H   0  0  0  0  0  0  0  0  0  0  0  0
   -3.0791    2.1094   -0.8521 H   0  0  0  0  0  0  0  0  0  0  0  0
   -2.8127    2.3808    0.8853 H   0  0  0  0  0  0  0  0  0  0  0  0
   -0.6463   -0.2165   -2.1889 H   0  0  0  0  0  0  0  0  0  0  0  0
   -0.3484   -1.7293   -1.3038 H   0  0  0  0  0  0  0  0  0  0  0  0
   -2.7491   -1.9949    1.0530 H   0  0  0  0  0  0  0  0  0  0  0  0
   -6.7126   -0.6894    0.0804 H   0  0  0  0  0  0  0  0  0  0  0  0
   -5.5134   -1.1369    1.3040 H   0  0  0  0  0  0  0  0  0  0  0  0
   -5.3116   -1.5907   -0.4134 H   0  0  0  0  0  0  0  0  0  0  0  0
   -6.6672    1.6107    0.4114 H   0  0  0  0  0  0  0  0  0  0  0  0
   -5.1864    2.5348    0.4210 H   0  0  0  0  0  0  0  0  0  0  0  0
   -5.5579    1.4562    1.7872 H   0  0  0  0  0  0  0  0  0  0  0  0
    1.1936    0.7683   -1.2780 H   0  0  0  0  0  0  0  0  0  0  0  0
    3.6348   -1.2828    1.8637 H   0  0  0  0  0  0  0  0  0  0  0  0
    3.1716    0.9309   -1.8332 H   0  0  0  0  0  0  0  0  0  0  0  0
    5.8362   -0.1621    2.1235 H   0  0  0  0  0  0  0  0  0  0  0  0
    5.3686    1.9495   -1.3798 H   0  0  0  0  0  0  0  0  0  0  0  0
  1  9  1  0  0  0  0
  1 10  1  0  0  0  0
  2  8  1  0  0  0  0
  2 27  1  0  0  0  0
  3 14  2  0  0  0  0
  4  7  1  0  0  0  0
  4 12  1  0  0  0  0
  4 13  1  0  0  0  0
  5 11  1  0  0  0  0
  5 14  1  0  0  0  0
  5 34  1  0  0  0  0
  6 18  2  0  0  0  0
  6 19  1  0  0  0  0
  7  8  1  0  0  0  0
  7 10  1  0  0  0  0
  7 20  1  0  0  0  0
  8  9  1  0  0  0  0
  8 21  1  0  0  0  0
  9 11  1  0  0  0  0
  9 22  1  0  0  0  0
 10 23  1  0  0  0  0
 10 24  1  0  0  0  0
 11 25  1  0  0  0  0
 11 26  1  0  0  0  0
 12 28  1  0  0  0  0
 12 29  1  0  0  0  0
 12 30  1  0  0  0  0
 13 31  1  0  0  0  0
 13 32  1  0  0  0  0
 13 33  1  0  0  0  0
 14 15  1  0  0  0  0
 15 16  2  0  0  0  0
 15 17  1  0  0  0  0
 16 18  1  0  0  0  0
 16 35  1  0  0  0  0
 17 19  2  0  0  0  0
 17 36  1  0  0  0  0
 18 37  1  0  0  0  0
 19 38  1  0  0  0  0
M  END
> <PUBCHEM_COMPOUND_CID>
75536785

> <PUBCHEM_CONFORMER_RMSD>
0.8

> <PUBCHEM_CONFORMER_DIVERSEORDER>
1
9
18
12
27
22
20
19
11
28
16
13
23
6
3
17
15
21
2
25
8
14
7
10
26
4
24
5

> <PUBCHEM_MMFF94_PARTIAL_CHARGES>
25
1 -0.56
10 0.28
11 0.3
12 0.27
13 0.27
14 0.54
15 0.09
16 -0.15
17 -0.15
18 0.16
19 0.16
2 -0.68
27 0.4
3 -0.57
34 0.37
35 0.15
36 0.15
37 0.15
38 0.15
4 -0.81
5 -0.73
6 -0.62
7 0.27
8 0.28
9 0.28

> <PUBCHEM_EFFECTIVE_ROTOR_COUNT>
6

> <PUBCHEM_PHARMACOPHORE_FEATURES>
9
1 1 acceptor
1 2 acceptor
1 2 donor
1 3 acceptor
1 4 cation
1 5 donor
1 6 acceptor
5 1 7 8 9 10 rings
6 6 15 16 17 18 19 rings

> <PUBCHEM_HEAVY_ATOM_COUNT>
19

> <PUBCHEM_ATOM_DEF_STEREO_COUNT>
3

> <PUBCHEM_ATOM_UDEF_STEREO_COUNT>
0

> <PUBCHEM_BOND_DEF_STEREO_COUNT>
0

> <PUBCHEM_BOND_UDEF_STEREO_COUNT>
0

> <PUBCHEM_ISOTOPIC_ATOM_COUNT>
0

> <PUBCHEM_COMPONENT_COUNT>
1

> <PUBCHEM_CACTVS_TAUTO_COUNT>
2

> <PUBCHEM_CONFORMER_ID>
0480999100000001

> <PUBCHEM_MMFF94_ENERGY>
49.922

> <PUBCHEM_FEATURE_SELFOVERLAP>
45.672

> <PUBCHEM_SHAPE_FINGERPRINT>
10354089 29 18113899369153647548
10670039 82 17774738463236611024
117890 112 18343022151647793177
11796584 16 11458426834031648632
12107183 9 17612864903423963864
12236239 1 18113899364030323264
12596602 18 17894912936051188529
12616971 3 17458061594848245646
12730499 353 16343709841473383206
12916748 109 16845577513003213240
13288520 33 7853859386255331295
13533116 47 17313380094075730442
13897977 58 18342178869068036269
14251752 14 10879724156297327187
14341114 176 18334858294959562722
14341114 328 18334012804703403146
14848160 23 15140678089824414777
17870717 6 10953737764124791793
17980427 23 18410577314400206309
19050596 39 18260828211199648854
19784866 240 11674879965771665519
200 152 13767927914341246533
20645477 56 17561360690512658087
20645477 70 8142080975267744554
21065198 48 18261109638857768874
21150785 3 14333115382831944121
221357 26 13398631627894419018
2215653 11 11746932101122509665
22224240 67 16370724881524262008
23402539 116 18187641435910511119
23402655 69 12751237017228707630
23559900 14 18127711356258517343
26918003 58 17022905661619901913
2916195 48 17703216438792997752
29717793 49 9943531830022570664
300161 21 18410290281761927757
32948 21 10303813176676424371
3472631 163 17845931939861150548
34797466 226 17417540214503082908
3545911 37 18343023272565451958
465052 167 10665235830181584808
5104073 3 18114180890815777968
5374978 207 18186520986317115140
542803 24 18113620083750317349
559249 180 9078851661643616076
58051976 100 9871459916009893537
67856867 119 18042129928128655909
960060 61 11671780494676150816

> <PUBCHEM_SHAPE_MULTIPOLES>
358.46
14.45
1.6
1.02
0.64
0.11
0.02
-4.17
3.62
0.94
0.08
-0.93
0
-0.73

> <PUBCHEM_SHAPE_SELFOVERLAP>
743.438

> <PUBCHEM_SHAPE_VOLUME>
205

> <PUBCHEM_COORDINATE_TYPE>
2
5
10

$$$$
