56774170
  -OEChem-12032416383D

 51 52  0     1  0  0  0  0  0999 V2000
    4.1104    1.2924    0.2647 O   0  0  0  0  0  0  0  0  0  0  0  0
   -4.7295   -0.1334    1.2661 O   0  0  0  0  0  0  0  0  0  0  0  0
   -3.1295   -1.0553   -0.1374 N   0  0  0  0  0  0  0  0  0  0  0  0
    2.8350    1.8344    0.3668 N   0  0  0  0  0  0  0  0  0  0  0  0
   -5.3674   -1.3942   -0.5766 N   0  0  0  0  0  0  0  0  0  0  0  0
   -1.6902    0.9675    0.4434 C   0  0  0  0  0  0  0  0  0  0  0  0
   -0.1904    0.6188    0.3455 C   0  0  1  0  0  0  0  0  0  0  0  0
   -1.9546   -0.5462    0.5815 C   0  0  2  0  0  0  0  0  0  0  0  0
   -0.6254   -0.7691   -0.1694 C   0  0  0  0  0  0  0  0  0  0  0  0
    0.6583    1.4347   -0.6388 C   0  0  0  0  0  0  0  0  0  0  0  0
   -2.2398    1.6323   -0.7995 C   0  0  0  0  0  0  0  0  0  0  0  0
   -2.1083    1.7520    1.6736 C   0  0  0  0  0  0  0  0  0  0  0  0
    2.0896    1.1276   -0.4874 C   0  0  0  0  0  0  0  0  0  0  0  0
   -4.4396   -0.8004    0.2737 C   0  0  0  0  0  0  0  0  0  0  0  0
    2.8332    0.1360   -1.1505 C   0  0  0  0  0  0  0  0  0  0  0  0
    4.0966    0.2819   -0.6419 C   0  0  0  0  0  0  0  0  0  0  0  0
    5.4078   -0.4263   -0.8816 C   0  0  0  0  0  0  0  0  0  0  0  0
   -6.7926   -1.2830   -0.3743 C   0  0  0  0  0  0  0  0  0  0  0  0
    6.0420   -1.0126    0.3948 C   0  0  0  0  0  0  0  0  0  0  0  0
    5.1301   -2.0409    1.0686 C   0  0  0  0  0  0  0  0  0  0  0  0
    7.3863   -1.6607    0.0549 C   0  0  0  0  0  0  0  0  0  0  0  0
   -7.3221    0.0445   -0.8760 C   0  0  0  0  0  0  0  0  0  0  0  0
    0.2774    0.5685    1.3413 H   0  0  0  0  0  0  0  0  0  0  0  0
   -1.9208   -0.9279    1.6106 H   0  0  0  0  0  0  0  0  0  0  0  0
   -0.7157   -0.8573   -1.2588 H   0  0  0  0  0  0  0  0  0  0  0  0
   -0.0218   -1.6074    0.1919 H   0  0  0  0  0  0  0  0  0  0  0  0
    0.5062    2.5046   -0.4443 H   0  0  0  0  0  0  0  0  0  0  0  0
    0.3500    1.2621   -1.6768 H   0  0  0  0  0  0  0  0  0  0  0  0
   -3.3313    1.7231   -0.7516 H   0  0  0  0  0  0  0  0  0  0  0  0
   -2.0106    1.0836   -1.7194 H   0  0  0  0  0  0  0  0  0  0  0  0
   -1.8501    2.6500   -0.9165 H   0  0  0  0  0  0  0  0  0  0  0  0
   -3.1951    1.8583    1.7409 H   0  0  0  0  0  0  0  0  0  0  0  0
   -1.6806    2.7609    1.6541 H   0  0  0  0  0  0  0  0  0  0  0  0
   -1.7640    1.2735    2.5972 H   0  0  0  0  0  0  0  0  0  0  0  0
   -3.0095   -1.6248   -0.9708 H   0  0  0  0  0  0  0  0  0  0  0  0
    2.5016   -0.5804   -1.8875 H   0  0  0  0  0  0  0  0  0  0  0  0
   -5.0318   -1.9179   -1.3791 H   0  0  0  0  0  0  0  0  0  0  0  0
    5.2474   -1.2237   -1.6185 H   0  0  0  0  0  0  0  0  0  0  0  0
    6.0991    0.2926   -1.3393 H   0  0  0  0  0  0  0  0  0  0  0  0
    6.2267   -0.2012    1.1104 H   0  0  0  0  0  0  0  0  0  0  0  0
   -7.0087   -1.3954    0.6934 H   0  0  0  0  0  0  0  0  0  0  0  0
   -7.2665   -2.1101   -0.9120 H   0  0  0  0  0  0  0  0  0  0  0  0
    4.8780   -2.8573    0.3832 H   0  0  0  0  0  0  0  0  0  0  0  0
    4.1964   -1.5840    1.4117 H   0  0  0  0  0  0  0  0  0  0  0  0
    5.6202   -2.4766    1.9460 H   0  0  0  0  0  0  0  0  0  0  0  0
    7.2621   -2.4903   -0.6496 H   0  0  0  0  0  0  0  0  0  0  0  0
    8.0662   -0.9307   -0.3969 H   0  0  0  0  0  0  0  0  0  0  0  0
    7.8690   -2.0516    0.9569 H   0  0  0  0  0  0  0  0  0  0  0  0
   -8.4061    0.0999   -0.7370 H   0  0  0  0  0  0  0  0  0  0  0  0
   -7.1060    0.1742   -1.9418 H   0  0  0  0  0  0  0  0  0  0  0  0
   -6.8666    0.8839   -0.3407 H   0  0  0  0  0  0  0  0  0  0  0  0
  1  4  1  0  0  0  0
  1 16  1  0  0  0  0
  2 14  2  0  0  0  0
  3  8  1  0  0  0  0
  3 14  1  0  0  0  0
  3 35  1  0  0  0  0
  4 13  2  0  0  0  0
  5 14  1  0  0  0  0
  5 18  1  0  0  0  0
  5 37  1  0  0  0  0
  6  7  1  0  0  0  0
  6  8  1  0  0  0  0
  6 11  1  0  0  0  0
  6 12  1  0  0  0  0
  7  9  1  0  0  0  0
  7 10  1  0  0  0  0
  7 23  1  0  0  0  0
  8  9  1  0  0  0  0
  8 24  1  0  0  0  0
  9 25  1  0  0  0  0
  9 26  1  0  0  0  0
 10 13  1  0  0  0  0
 10 27  1  0  0  0  0
 10 28  1  0  0  0  0
 11 29  1  0  0  0  0
 11 30  1  0  0  0  0
 11 31  1  0  0  0  0
 12 32  1  0  0  0  0
 12 33  1  0  0  0  0
 12 34  1  0  0  0  0
 13 15  1  0  0  0  0
 15 16  2  0  0  0  0
 15 36  1  0  0  0  0
 16 17  1  0  0  0  0
 17 19  1  0  0  0  0
 17 38  1  0  0  0  0
 17 39  1  0  0  0  0
 18 22  1  0  0  0  0
 18 41  1  0  0  0  0
 18 42  1  0  0  0  0
 19 20  1  0  0  0  0
 19 21  1  0  0  0  0
 19 40  1  0  0  0  0
 20 43  1  0  0  0  0
 20 44  1  0  0  0  0
 20 45  1  0  0  0  0
 21 46  1  0  0  0  0
 21 47  1  0  0  0  0
 21 48  1  0  0  0  0
 22 49  1  0  0  0  0
 22 50  1  0  0  0  0
 22 51  1  0  0  0  0
M  END
> <PUBCHEM_COMPOUND_CID>
56774170

> <PUBCHEM_CONFORMER_RMSD>
1

> <PUBCHEM_CONFORMER_DIVERSEORDER>
1
160
208
12
166
175
130
188
112
205
71
59
197
179
46
108
5
167
181
184
107
9
180
189
81
64
200
87
53
2
27
22
76
163
121
194
171
47
148
120
88
109
190
54
132
153
62
94
110
195
131
98
162
86
10
21
141
77
192
20
106
91
204
119
137
26
19
211
92
183
158
83
17
66
36
51
186
90
206
57
150
7
50
55
65
126
129
139
111
146
117
170
6
199
11
85
102
123
42
101
52
24
37
207
105
39
136
70
82
161
80
174
116
168
165
61
16
157
15
23
114
29
103
191
95
145
18
14
187
45
75
4
182
159
100
176
143
209
113
152
41
78
173
96
144
48
32
185
40
124
164
122
99
93
13
28
89
104
72
142
69
147
74
201
169
38
25
118
3
133
60
177
79
203
125
56
67
134
34
31
156
149
210
84
154
8
63
193
172
35
202
151
196
68
33
138
178
44
30
140
127
43
128
198
58
73
97
135
49
115
155

> <PUBCHEM_MMFF94_PARTIAL_CHARGES>
16
1 -0.02
10 0.18
13 0.11
14 0.69
15 -0.15
16 -0.04
17 0.18
18 0.3
2 -0.57
3 -0.65
35 0.37
36 0.15
37 0.37
4 -0.41
5 -0.73
8 0.22

> <PUBCHEM_EFFECTIVE_ROTOR_COUNT>
8.8

> <PUBCHEM_PHARMACOPHORE_FEATURES>
8
1 2 acceptor
1 3 donor
1 4 acceptor
1 5 donor
3 19 20 21 hydrophobe
3 6 11 12 hydrophobe
4 6 7 8 9 rings
5 1 4 13 15 16 rings

> <PUBCHEM_HEAVY_ATOM_COUNT>
22

> <PUBCHEM_ATOM_DEF_STEREO_COUNT>
2

> <PUBCHEM_ATOM_UDEF_STEREO_COUNT>
0

> <PUBCHEM_BOND_DEF_STEREO_COUNT>
0

> <PUBCHEM_BOND_UDEF_STEREO_COUNT>
0

> <PUBCHEM_ISOTOPIC_ATOM_COUNT>
0

> <PUBCHEM_COMPONENT_COUNT>
1

> <PUBCHEM_CACTVS_TAUTO_COUNT>
3

> <PUBCHEM_CONFORMER_ID>
03624E1A00000001

> <PUBCHEM_MMFF94_ENERGY>
28.0227

> <PUBCHEM_FEATURE_SELFOVERLAP>
40.645

> <PUBCHEM_SHAPE_FINGERPRINT>
10 15 13110960933510793966
106641 1 11239995677337015479
11724838 91 11959722780910464970
11796584 16 16877943888340199970
12166972 35 18334016111633672556
12403259 118 16271657732166961425
12555020 224 18040437715324758339
12596602 18 18060138713795838082
12670543 26 17822006515168690351
12730499 353 8646499526343289748
12760667 363 18410013234501048811
12954195 1 18114736045894635109
13177829 20 12535624990503626551
13533116 47 18411136978608667448
13685833 64 18335138692157951338
13862211 1 18341897415518747759
13914758 101 17894908491102791645
14251752 14 17967527952725420253
14251764 18 18413113862129591780
14347332 77 18335979783433942780
15048467 5 9007060158035820822
15183329 4 16950559965391539303
15188451 53 18202281390353013506
15475509 8 16298383531222321063
17857418 61 18409168801033853130
19784866 240 18187369826547298636
200 152 18202286930945487765
20028762 73 18130790062126587790
21033648 29 9366763163182296998
21150785 3 8214136331590976801
21267235 1 18408610249364261182
21304304 249 18341897377239147718
21315764 119 17095522885633589031
21344244 78 17060337427450717144
21637258 2 18131347536001103901
22079108 93 13398631658017062556
2215653 11 17603303769236201778
22224240 67 13830131693676689053
23198884 109 13984660343325484566
23402539 116 18059861666682859269
23402655 69 10881403158108843484
23522609 53 18122099517894231252
23559900 14 18116152344934031056
28498 318 18333446530540474247
29717793 49 17385444332364767996
3004659 81 17822007614701449394
3472631 163 8574423249461043874
3633792 109 17967250901454488428
4340502 62 14620801500331943732
465052 167 18411706504325882566
5104073 3 18059585735875581552
559249 180 18334857160834930472
5718773 13 18410854356770518438
59682541 52 16443070483004900950
59755656 215 17821725013974231211
6438161 24 17894620453653702762

> <PUBCHEM_SHAPE_MULTIPOLES>
426.07
18.74
1.94
1.13
1.4
0.11
-0.2
-12
2.04
-0.83
-0.28
0.28
0.2
-1.02

> <PUBCHEM_SHAPE_SELFOVERLAP>
861.535

> <PUBCHEM_SHAPE_VOLUME>
252.6

> <PUBCHEM_COORDINATE_TYPE>
2
5
10

$$$$
