45361543
  -OEChem-12032416313D

 67 70  0     1  0  0  0  0  0999 V2000
    0.7768    1.6590    1.7416 O   0  0  0  0  0  0  0  0  0  0  0  0
    5.3152    1.6787   -0.9790 O   0  0  0  0  0  0  0  0  0  0  0  0
   -4.7676   -2.2288    0.6099 O   0  0  0  0  0  0  0  0  0  0  0  0
    6.1994   -1.2529   -0.3772 O   0  0  0  0  0  0  0  0  0  0  0  0
   -4.0081   -0.1401   -0.0503 N   0  0  0  0  0  0  0  0  0  0  0  0
    5.2977    1.0211    1.2453 N   0  0  0  0  0  0  0  0  0  0  0  0
   -6.5437    0.7582    0.0269 N   0  0  0  0  0  0  0  0  0  0  0  0
   -8.6945   -0.8848    0.7625 N   0  0  0  0  0  0  0  0  0  0  0  0
    0.0365   -0.1712   -1.5261 C   0  0  1  0  0  0  0  0  0  0  0  0
   -0.1784    0.3140   -0.0539 C   0  0  2  0  0  0  0  0  0  0  0  0
   -1.6809    0.6998    0.1939 C   0  0  1  0  0  0  0  0  0  0  0  0
    0.8641    1.3998    0.3397 C   0  0  2  0  0  0  0  0  0  0  0  0
    1.4970   -0.6491   -1.7040 C   0  0  0  0  0  0  0  0  0  0  0  0
   -0.8902   -1.3784   -1.7995 C   0  0  0  0  0  0  0  0  0  0  0  0
    2.3191    0.9555    0.0621 C   0  0  1  0  0  0  0  0  0  0  0  0
   -2.6090   -0.4974   -0.1560 C   0  0  2  0  0  0  0  0  0  0  0  0
    2.5200    0.4245   -1.3572 C   0  0  0  0  0  0  0  0  0  0  0  0
   -2.3600   -1.0719   -1.5503 C   0  0  0  0  0  0  0  0  0  0  0  0
   -0.2536    0.9404   -2.5663 C   0  0  0  0  0  0  0  0  0  0  0  0
    3.3205    2.0851    0.3330 C   0  0  2  0  0  0  0  0  0  0  0  0
   -1.9695    1.1595    1.6330 C   0  0  0  0  0  0  0  0  0  0  0  0
    3.0064    3.2879   -0.5497 C   0  0  0  0  0  0  0  0  0  0  0  0
    4.7433    1.5843    0.1050 C   0  0  0  0  0  0  0  0  0  0  0  0
   -4.9784   -1.0517    0.3291 C   0  0  0  0  0  0  0  0  0  0  0  0
   -6.3709   -0.5354    0.3637 C   0  0  0  0  0  0  0  0  0  0  0  0
    6.6347    0.4750    1.2762 C   0  0  0  0  0  0  0  0  0  0  0  0
   -7.4273   -1.3423    0.7250 C   0  0  0  0  0  0  0  0  0  0  0  0
    6.6610   -0.9700    0.8693 C   0  0  0  0  0  0  0  0  0  0  0  0
   -7.8109    1.2158    0.0645 C   0  0  0  0  0  0  0  0  0  0  0  0
    7.0667   -2.1194    1.5069 C   0  0  0  0  0  0  0  0  0  0  0  0
   -8.8672    0.4088    0.4258 C   0  0  0  0  0  0  0  0  0  0  0  0
    6.8402   -3.1764    0.5934 C   0  0  0  0  0  0  0  0  0  0  0  0
    6.3118   -2.5975   -0.5372 C   0  0  0  0  0  0  0  0  0  0  0  0
    0.0152   -0.5458    0.6076 H   0  0  0  0  0  0  0  0  0  0  0  0
   -1.9414    1.5457   -0.4548 H   0  0  0  0  0  0  0  0  0  0  0  0
    0.5992    2.3230   -0.1791 H   0  0  0  0  0  0  0  0  0  0  0  0
    1.6794   -1.5238   -1.0650 H   0  0  0  0  0  0  0  0  0  0  0  0
    1.6644   -0.9847   -2.7356 H   0  0  0  0  0  0  0  0  0  0  0  0
   -0.7674   -1.7254   -2.8334 H   0  0  0  0  0  0  0  0  0  0  0  0
   -0.5984   -2.2201   -1.1571 H   0  0  0  0  0  0  0  0  0  0  0  0
    2.5565    0.1342    0.7548 H   0  0  0  0  0  0  0  0  0  0  0  0
   -2.4145   -1.2970    0.5722 H   0  0  0  0  0  0  0  0  0  0  0  0
    2.4687    1.2056   -2.1180 H   0  0  0  0  0  0  0  0  0  0  0  0
    3.5076   -0.0391   -1.4598 H   0  0  0  0  0  0  0  0  0  0  0  0
   -2.9400   -1.9948   -1.6810 H   0  0  0  0  0  0  0  0  0  0  0  0
   -2.7362   -0.3826   -2.3161 H   0  0  0  0  0  0  0  0  0  0  0  0
    0.3601    1.8317   -2.4087 H   0  0  0  0  0  0  0  0  0  0  0  0
   -0.0494    0.5804   -3.5815 H   0  0  0  0  0  0  0  0  0  0  0  0
   -1.2941    1.2749   -2.5513 H   0  0  0  0  0  0  0  0  0  0  0  0
    3.2400    2.4117    1.3780 H   0  0  0  0  0  0  0  0  0  0  0  0
   -1.5854    0.4410    2.3644 H   0  0  0  0  0  0  0  0  0  0  0  0
   -3.0421    1.2784    1.8173 H   0  0  0  0  0  0  0  0  0  0  0  0
   -1.5301    2.1415    1.8292 H   0  0  0  0  0  0  0  0  0  0  0  0
   -4.2881    0.7988   -0.3204 H   0  0  0  0  0  0  0  0  0  0  0  0
    0.9605    0.8293    2.2142 H   0  0  0  0  0  0  0  0  0  0  0  0
    2.0555    3.7634   -0.2977 H   0  0  0  0  0  0  0  0  0  0  0  0
    3.7727    4.0572   -0.3872 H   0  0  0  0  0  0  0  0  0  0  0  0
    3.0273    3.0824   -1.6219 H   0  0  0  0  0  0  0  0  0  0  0  0
    4.7413    0.9582    2.0928 H   0  0  0  0  0  0  0  0  0  0  0  0
    7.0092    0.5866    2.2988 H   0  0  0  0  0  0  0  0  0  0  0  0
    7.2811    1.0545    0.6082 H   0  0  0  0  0  0  0  0  0  0  0  0
   -7.3068   -2.3837    0.9993 H   0  0  0  0  0  0  0  0  0  0  0  0
   -7.9504    2.2551   -0.2060 H   0  0  0  0  0  0  0  0  0  0  0  0
    7.4750   -2.1891    2.5049 H   0  0  0  0  0  0  0  0  0  0  0  0
   -9.8851    0.7773    0.4557 H   0  0  0  0  0  0  0  0  0  0  0  0
    7.0369   -4.2284    0.7404 H   0  0  0  0  0  0  0  0  0  0  0  0
    5.9807   -2.9838   -1.4901 H   0  0  0  0  0  0  0  0  0  0  0  0
  1 12  1  0  0  0  0
  1 55  1  0  0  0  0
  2 23  2  0  0  0  0
  3 24  2  0  0  0  0
  4 28  1  0  0  0  0
  4 33  1  0  0  0  0
  5 16  1  0  0  0  0
  5 24  1  0  0  0  0
  5 54  1  0  0  0  0
  6 23  1  0  0  0  0
  6 26  1  0  0  0  0
  6 59  1  0  0  0  0
  7 25  2  0  0  0  0
  7 29  1  0  0  0  0
  8 27  2  0  0  0  0
  8 31  1  0  0  0  0
  9 10  1  0  0  0  0
  9 13  1  0  0  0  0
  9 14  1  0  0  0  0
  9 19  1  0  0  0  0
 10 11  1  0  0  0  0
 10 12  1  0  0  0  0
 10 34  1  0  0  0  0
 11 16  1  0  0  0  0
 11 21  1  0  0  0  0
 11 35  1  0  0  0  0
 12 15  1  0  0  0  0
 12 36  1  0  0  0  0
 13 17  1  0  0  0  0
 13 37  1  0  0  0  0
 13 38  1  0  0  0  0
 14 18  1  0  0  0  0
 14 39  1  0  0  0  0
 14 40  1  0  0  0  0
 15 17  1  0  0  0  0
 15 20  1  0  0  0  0
 15 41  1  0  0  0  0
 16 18  1  0  0  0  0
 16 42  1  0  0  0  0
 17 43  1  0  0  0  0
 17 44  1  0  0  0  0
 18 45  1  0  0  0  0
 18 46  1  0  0  0  0
 19 47  1  0  0  0  0
 19 48  1  0  0  0  0
 19 49  1  0  0  0  0
 20 22  1  0  0  0  0
 20 23  1  0  0  0  0
 20 50  1  0  0  0  0
 21 51  1  0  0  0  0
 21 52  1  0  0  0  0
 21 53  1  0  0  0  0
 22 56  1  0  0  0  0
 22 57  1  0  0  0  0
 22 58  1  0  0  0  0
 24 25  1  0  0  0  0
 25 27  1  0  0  0  0
 26 28  1  0  0  0  0
 26 60  1  0  0  0  0
 26 61  1  0  0  0  0
 27 62  1  0  0  0  0
 28 30  2  0  0  0  0
 29 31  2  0  0  0  0
 29 63  1  0  0  0  0
 30 32  1  0  0  0  0
 30 64  1  0  0  0  0
 31 65  1  0  0  0  0
 32 33  2  0  0  0  0
 32 66  1  0  0  0  0
 33 67  1  0  0  0  0
M  END
> <PUBCHEM_COMPOUND_CID>
45361543

> <PUBCHEM_CONFORMER_RMSD>
1

> <PUBCHEM_CONFORMER_DIVERSEORDER>
1
33
180
91
64
113
189
36
200
112
221
38
199
209
107
48
165
218
171
72
223
235
181
142
208
60
50
210
156
114
143
233
174
225
166
164
232
141
24
213
100
197
111
230
6
203
81
82
226
162
207
167
183
10
179
187
85
47
190
92
122
184
147
241
62
238
130
119
101
133
240
152
215
176
137
220
104
78
69
216
149
150
90
30
127
242
37
229
211
40
35
109
182
56
237
228
99
155
75
234
105
28
194
74
54
138
66
136
83
144
95
4
71
173
67
160
222
191
3
161
231
123
244
96
120
49
134
236
145
121
41
188
98
102
177
201
227
185
148
13
110
163
219
89
151
139
186
27
172
146
45
195
20
157
25
63
198
158
129
18
168
59
39
202
132
11
175
140
58
217
239
65
53
131
77
124
73
87
19
46
224
204
86
97
84
68
34
206
103
21
55
169
9
23
43
243
2
51
128
57
135
17
12
108
178
52
42
116
115
26
61
118
170
14
5
193
80
214
93
126
44
192
32
159
125
70
31
8
106
154
117
16
153
7
22
76
79
88
15
205
29
94
212
196

> <PUBCHEM_MMFF94_PARTIAL_CHARGES>
31
1 -0.68
12 0.28
16 0.3
2 -0.57
20 0.06
23 0.57
24 0.54
25 0.4
26 0.48
27 0.16
28 -0.04
29 0.16
3 -0.57
30 -0.15
31 0.16
32 -0.15
33 -0.01
4 -0.28
5 -0.73
54 0.37
55 0.4
59 0.37
6 -0.73
62 0.15
63 0.15
64 0.15
65 0.15
66 0.15
67 0.15
7 -0.62
8 -0.62

> <PUBCHEM_EFFECTIVE_ROTOR_COUNT>
9.6

> <PUBCHEM_PHARMACOPHORE_FEATURES>
14
1 1 acceptor
1 1 donor
1 2 acceptor
1 22 hydrophobe
1 3 acceptor
1 4 acceptor
1 5 donor
1 6 donor
1 7 acceptor
1 8 acceptor
5 4 28 30 32 33 rings
6 7 8 25 27 29 31 rings
6 9 10 11 14 16 18 rings
6 9 10 12 13 15 17 rings

> <PUBCHEM_HEAVY_ATOM_COUNT>
33

> <PUBCHEM_ATOM_DEF_STEREO_COUNT>
6

> <PUBCHEM_ATOM_UDEF_STEREO_COUNT>
1

> <PUBCHEM_BOND_DEF_STEREO_COUNT>
0

> <PUBCHEM_BOND_UDEF_STEREO_COUNT>
0

> <PUBCHEM_ISOTOPIC_ATOM_COUNT>
0

> <PUBCHEM_COMPONENT_COUNT>
1

> <PUBCHEM_CACTVS_TAUTO_COUNT>
4

> <PUBCHEM_CONFORMER_ID>
02B4298700000001

> <PUBCHEM_MMFF94_ENERGY>
83.6524

> <PUBCHEM_FEATURE_SELFOVERLAP>
71.068

> <PUBCHEM_SHAPE_FINGERPRINT>
10 15 17704071824099971232
10076449 9 14779543487065183269
10319688 67 16200425870950087911
10533779 47 18335995190273373371
11181472 205 18260839197647663700
11331351 85 17894630366084937517
11408170 132 11242237572519182367
11456790 92 17704353264511027417
11638347 137 18260552242993627547
117089 54 17981612568520503558
11719270 70 17989492921872180015
12373685 5 17774998003889220775
12422481 6 17632015227063888838
12664476 115 13398634948969359386
12838862 33 16988555802141094921
13008946 113 17843110665881077496
13533116 47 18408602595969754312
13782708 43 17968093148773008114
13811026 1 18272652307995320757
13914758 101 18334577919478909193
14347424 109 18413105091595695288
14444916 359 17094961035724663539
15131766 46 17904766931101265900
15301273 46 17821726130934500311
1577012 14 17988358286043828004
15840311 113 17895194463385541469
16728300 4 18199180686217211182
16994733 274 12391518572598449827
19301679 30 18337950087740521584
19841028 212 18335980888206428890
2026 5 16299489597650946394
20554085 129 14980236240882497510
21057603 238 17825385176482462622
21150785 3 9079118864786620547
21344244 181 17312822680372356706
21591340 7 17632569471008104423
21781055 127 16226616165974469493
21792934 111 17560522811339531737
21814621 53 18114185293495165441
22224240 67 14836405826565778501
23576562 1 11819576860672717723
24771293 8 13973964311675380859
25269216 80 16950561035682538798
34797466 226 16153709856154707236
4258327 124 9222938301050516251
445580 167 10015578390141685907
58260988 647 17968375655100675714
6081469 158 18187081750612334893
9831232 110 17967810527340872038

> <PUBCHEM_SHAPE_MULTIPOLES>
635.72
24.87
2.7
1.68
26.43
0.27
-0.65
11.47
10.73
-5.28
0.24
-0.9
-0.01
-0.49

> <PUBCHEM_SHAPE_SELFOVERLAP>
1346.878

> <PUBCHEM_SHAPE_VOLUME>
351.3

> <PUBCHEM_COORDINATE_TYPE>
2
5
10

$$$$
