11911516
  -OEChem-12032416283D

 66 70  0     1  0  0  0  0  0999 V2000
   -0.4258    3.8278    1.1311 O   0  0  0  0  0  0  0  0  0  0  0  0
   -0.0020    3.2319   -1.9035 O   0  0  0  0  0  0  0  0  0  0  0  0
   -2.8694    1.9625   -0.0234 N   0  0  0  0  0  0  0  0  0  0  0  0
    2.4524    2.1430   -0.4181 N   0  0  0  0  0  0  0  0  0  0  0  0
   -2.9277    1.6544    1.2825 N   0  0  0  0  0  0  0  0  0  0  0  0
   -3.8217    0.6811    1.4184 N   0  0  0  0  0  0  0  0  0  0  0  0
    6.3050   -2.9367   -0.2335 N   0  0  0  0  0  0  0  0  0  0  0  0
   -0.5786    2.4738   -0.8229 C   0  0  1  0  0  0  0  0  0  0  0  0
    0.2424    2.7756    0.4152 C   0  0  1  0  0  0  0  0  0  0  0  0
   -1.9622    3.0075   -0.5043 C   0  0  2  0  0  0  0  0  0  0  0  0
    1.5682    3.2684   -0.1232 C   0  0  2  0  0  0  0  0  0  0  0  0
   -1.6744    4.1265    0.4911 C   0  0  0  0  0  0  0  0  0  0  0  0
    1.1466    3.9423   -1.4185 C   0  0  0  0  0  0  0  0  0  0  0  0
   -4.7165   -2.0255   -0.2679 C   0  0  0  0  0  0  0  0  0  0  0  0
   -5.3345   -0.6524   -0.0117 C   0  0  0  0  0  0  0  0  0  0  0  0
   -5.7190   -2.9479   -0.9744 C   0  0  0  0  0  0  0  0  0  0  0  0
   -4.2275   -2.6532    1.0445 C   0  0  0  0  0  0  0  0  0  0  0  0
   -3.7220    1.1975   -0.7581 C   0  0  0  0  0  0  0  0  0  0  0  0
   -4.2982    0.4095    0.1815 C   0  0  0  0  0  0  0  0  0  0  0  0
   -5.1424   -4.3448   -1.1938 C   0  0  0  0  0  0  0  0  0  0  0  0
   -3.6532   -4.0504    0.8215 C   0  0  0  0  0  0  0  0  0  0  0  0
   -4.6494   -4.9616    0.1113 C   0  0  0  0  0  0  0  0  0  0  0  0
    2.8618    1.4743    0.8070 C   0  0  0  0  0  0  0  0  0  0  0  0
    3.7726    0.3074    0.5318 C   0  0  0  0  0  0  0  0  0  0  0  0
    5.1449    0.5083    0.4848 C   0  0  0  0  0  0  0  0  0  0  0  0
    3.2268   -0.9524    0.3287 C   0  0  0  0  0  0  0  0  0  0  0  0
    5.9888   -0.5727    0.2295 C   0  0  0  0  0  0  0  0  0  0  0  0
    4.0708   -2.0332    0.0735 C   0  0  0  0  0  0  0  0  0  0  0  0
    5.4517   -1.8434    0.0239 C   0  0  0  0  0  0  0  0  0  0  0  0
    7.6457   -2.9665    0.3159 C   0  0  0  0  0  0  0  0  0  0  0  0
    5.8469   -4.0512   -1.0391 C   0  0  0  0  0  0  0  0  0  0  0  0
   -0.5502    1.4182   -1.1121 H   0  0  0  0  0  0  0  0  0  0  0  0
    0.2598    1.9283    1.1013 H   0  0  0  0  0  0  0  0  0  0  0  0
   -2.4580    3.4298   -1.3874 H   0  0  0  0  0  0  0  0  0  0  0  0
    2.0681    3.9915    0.5312 H   0  0  0  0  0  0  0  0  0  0  0  0
   -2.4499    4.2720    1.2490 H   0  0  0  0  0  0  0  0  0  0  0  0
   -1.5399    5.0780   -0.0358 H   0  0  0  0  0  0  0  0  0  0  0  0
    0.8408    4.9790   -1.2361 H   0  0  0  0  0  0  0  0  0  0  0  0
    1.9224    3.9563   -2.1907 H   0  0  0  0  0  0  0  0  0  0  0  0
    3.2772    2.4855   -0.9113 H   0  0  0  0  0  0  0  0  0  0  0  0
   -3.8501   -1.9129   -0.9354 H   0  0  0  0  0  0  0  0  0  0  0  0
   -5.9578   -0.3584   -0.8666 H   0  0  0  0  0  0  0  0  0  0  0  0
   -6.0034   -0.6788    0.8576 H   0  0  0  0  0  0  0  0  0  0  0  0
   -6.0034   -2.5215   -1.9438 H   0  0  0  0  0  0  0  0  0  0  0  0
   -6.6376   -3.0254   -0.3786 H   0  0  0  0  0  0  0  0  0  0  0  0
   -5.0558   -2.7170    1.7617 H   0  0  0  0  0  0  0  0  0  0  0  0
   -3.4546   -2.0286    1.5058 H   0  0  0  0  0  0  0  0  0  0  0  0
   -3.8258    1.2866   -1.8300 H   0  0  0  0  0  0  0  0  0  0  0  0
   -5.9049   -4.9916   -1.6420 H   0  0  0  0  0  0  0  0  0  0  0  0
   -4.3115   -4.2884   -1.9078 H   0  0  0  0  0  0  0  0  0  0  0  0
   -2.7358   -3.9767    0.2246 H   0  0  0  0  0  0  0  0  0  0  0  0
   -3.3727   -4.4914    1.7847 H   0  0  0  0  0  0  0  0  0  0  0  0
   -5.5049   -5.1512    0.7712 H   0  0  0  0  0  0  0  0  0  0  0  0
   -4.1820   -5.9315   -0.0924 H   0  0  0  0  0  0  0  0  0  0  0  0
    3.3810    2.1800    1.4697 H   0  0  0  0  0  0  0  0  0  0  0  0
    2.0216    1.0857    1.3894 H   0  0  0  0  0  0  0  0  0  0  0  0
    5.5730    1.4948    0.6392 H   0  0  0  0  0  0  0  0  0  0  0  0
    2.1526   -1.1110    0.3655 H   0  0  0  0  0  0  0  0  0  0  0  0
    7.0584   -0.3883    0.1854 H   0  0  0  0  0  0  0  0  0  0  0  0
    3.6205   -3.0112   -0.0705 H   0  0  0  0  0  0  0  0  0  0  0  0
    8.3224   -2.3433   -0.2780 H   0  0  0  0  0  0  0  0  0  0  0  0
    7.6607   -2.6224    1.3564 H   0  0  0  0  0  0  0  0  0  0  0  0
    8.0508   -3.9846    0.3155 H   0  0  0  0  0  0  0  0  0  0  0  0
    6.6914   -4.6354   -1.4215 H   0  0  0  0  0  0  0  0  0  0  0  0
    5.2805   -3.7092   -1.9127 H   0  0  0  0  0  0  0  0  0  0  0  0
    5.2208   -4.7268   -0.4469 H   0  0  0  0  0  0  0  0  0  0  0  0
  1  9  1  0  0  0  0
  1 12  1  0  0  0  0
  2  8  1  0  0  0  0
  2 13  1  0  0  0  0
  3  5  1  0  0  0  0
  3 10  1  0  0  0  0
  3 18  1  0  0  0  0
  4 11  1  0  0  0  0
  4 23  1  0  0  0  0
  4 40  1  0  0  0  0
  5  6  2  0  0  0  0
  6 19  1  0  0  0  0
  7 29  1  0  0  0  0
  7 30  1  0  0  0  0
  7 31  1  0  0  0  0
  8  9  1  0  0  0  0
  8 10  1  0  0  0  0
  8 32  1  0  0  0  0
  9 11  1  0  0  0  0
  9 33  1  0  0  0  0
 10 12  1  0  0  0  0
 10 34  1  0  0  0  0
 11 13  1  0  0  0  0
 11 35  1  0  0  0  0
 12 36  1  0  0  0  0
 12 37  1  0  0  0  0
 13 38  1  0  0  0  0
 13 39  1  0  0  0  0
 14 15  1  0  0  0  0
 14 16  1  0  0  0  0
 14 17  1  0  0  0  0
 14 41  1  0  0  0  0
 15 19  1  0  0  0  0
 15 42  1  0  0  0  0
 15 43  1  0  0  0  0
 16 20  1  0  0  0  0
 16 44  1  0  0  0  0
 16 45  1  0  0  0  0
 17 21  1  0  0  0  0
 17 46  1  0  0  0  0
 17 47  1  0  0  0  0
 18 19  2  0  0  0  0
 18 48  1  0  0  0  0
 20 22  1  0  0  0  0
 20 49  1  0  0  0  0
 20 50  1  0  0  0  0
 21 22  1  0  0  0  0
 21 51  1  0  0  0  0
 21 52  1  0  0  0  0
 22 53  1  0  0  0  0
 22 54  1  0  0  0  0
 23 24  1  0  0  0  0
 23 55  1  0  0  0  0
 23 56  1  0  0  0  0
 24 25  2  0  0  0  0
 24 26  1  0  0  0  0
 25 27  1  0  0  0  0
 25 57  1  0  0  0  0
 26 28  2  0  0  0  0
 26 58  1  0  0  0  0
 27 29  2  0  0  0  0
 27 59  1  0  0  0  0
 28 29  1  0  0  0  0
 28 60  1  0  0  0  0
 30 61  1  0  0  0  0
 30 62  1  0  0  0  0
 30 63  1  0  0  0  0
 31 64  1  0  0  0  0
 31 65  1  0  0  0  0
 31 66  1  0  0  0  0
M  END
> <PUBCHEM_COMPOUND_CID>
11911516

> <PUBCHEM_CONFORMER_RMSD>
1

> <PUBCHEM_CONFORMER_DIVERSEORDER>
3
7
47
116
140
123
98
86
163
80
161
65
12
39
69
48
33
30
106
151
117
160
129
110
146
83
92
2
60
93
147
31
37
145
128
28
18
135
99
42
46
73
52
50
107
44
51
157
141
102
132
17
122
62
66
58
11
57
148
150
54
72
90
103
19
16
126
20
27
105
97
43
23
84
70
8
75
14
130
133
78
91
5
121
6
127
64
101
139
24
55
22
87
138
108
29
13
38
49
25
143
68
156
40
154
85
88
56
94
137
36
41
77
152
158
112
59
9
96
45
113
74
26
76
114
34
81
21
89
162
134
53
144
111
71
118
155
149
136
32
120
79
63
119
104
4
125
142
131
100
159
61
95
35
1
124
109
10
67
15
153
82
115

> <PUBCHEM_MMFF94_PARTIAL_CHARGES>
31
1 -0.56
10 0.26
11 0.27
12 0.28
13 0.28
15 0.18
18 -0.3
19 0.05
2 -0.56
23 0.41
24 -0.14
25 -0.15
26 -0.15
27 -0.15
28 -0.15
29 0.1
3 0.31
30 0.37
31 0.37
4 -0.9
40 0.36
48 0.15
5 -0.42
57 0.15
58 0.15
59 0.15
6 -0.23
60 0.15
7 -0.84
8 0.28
9 0.28

> <PUBCHEM_EFFECTIVE_ROTOR_COUNT>
9.4

> <PUBCHEM_PHARMACOPHORE_FEATURES>
10
1 1 acceptor
1 2 acceptor
1 4 cation
1 4 donor
1 7 cation
5 1 8 9 10 12 rings
5 2 8 9 11 13 rings
5 3 5 6 18 19 rings
6 14 16 17 20 21 22 rings
6 24 25 26 27 28 29 rings

> <PUBCHEM_HEAVY_ATOM_COUNT>
31

> <PUBCHEM_ATOM_DEF_STEREO_COUNT>
4

> <PUBCHEM_ATOM_UDEF_STEREO_COUNT>
0

> <PUBCHEM_BOND_DEF_STEREO_COUNT>
0

> <PUBCHEM_BOND_UDEF_STEREO_COUNT>
0

> <PUBCHEM_ISOTOPIC_ATOM_COUNT>
0

> <PUBCHEM_COMPONENT_COUNT>
1

> <PUBCHEM_CACTVS_TAUTO_COUNT>
1

> <PUBCHEM_CONFORMER_ID>
00B5C15C00000003

> <PUBCHEM_MMFF94_ENERGY>
74.9496

> <PUBCHEM_FEATURE_SELFOVERLAP>
51.443

> <PUBCHEM_SHAPE_FINGERPRINT>
10042902 136 18409169883465981532
10049733 130 18129362939442402423
10290309 65 17255403721752725333
10305334 12 18199474273270429627
10391435 84 18338220588833139384
10622 236 18127124406618598215
10928967 22 18189060793673472136
11069576 57 17974572704002925165
11136131 41 17902219341743086536
11146346 40 16400250320094457999
11197282 1 18410854412262091379
11285246 1 18040436633029663819
11315621 246 18045788880056858868
11497681 19 18409451384855996372
117089 54 18338801229140122535
11756154 67 18410294692361551206
11761917 116 18412548734770599094
12645989 146 18411141316505076410
12841400 136 18263641921601566051
13553639 21 17829895690934203539
1361 4 18412545380390603742
1361 87 18338505344668706526
13690498 29 17967534523909981845
14429380 30 18409449223601287890
14444916 359 17619079325991287857
14950920 106 17418086590457492240
15264996 154 17902803190717733238
15320467 1 17834113426191102258
15399243 27 18120951747665861739
15448158 91 18261110820163985080
15728490 83 18336837463140092115
15803439 3 17029627878297299501
17492 89 18338233889987950869
17909252 39 17906733953539659361
19301676 85 18410285901117728511
19303781 99 17895198783784764746
19315092 285 17629489858754826313
19319366 153 17331682856553088901
20156587 161 16984596623794479943
20775438 99 17969789764545956144
20775530 9 18261391199966200817
21196832 93 18339085891931788582
21307412 95 18263914467593820357
21585480 29 17700391840291555594
23379529 103 18408885156924649729
23569914 152 11748591153311960808
3146121 3 18409448129550042304
32027 91 18341040926410863113
325973 47 18192434288606037163
3383291 50 18195809575161463281
373842 8 18195525011517671679
4017518 198 17833551198272013917
437795 96 18199190577015847606
4435113 14 17700986431543808646
463206 1 18335704996365007625
484985 159 18194680372013339017
56633871 153 18411146822710542385
5951187 136 9689371444843815813
6201320 221 17840287146228609055
6201460 15 18054784246108111359
6636798 310 17346595326781480435
7970288 3 18410854373543763876

> <PUBCHEM_SHAPE_MULTIPOLES>
601.32
17.67
8.03
1.18
15.04
2.18
0.16
28.79
0.32
-3.88
1.43
-0.64
-0.36
-0.16

> <PUBCHEM_SHAPE_SELFOVERLAP>
1278.828

> <PUBCHEM_SHAPE_VOLUME>
336.7

> <PUBCHEM_COORDINATE_TYPE>
2
5
10

$$$$
