75536071
  -OEChem-12032416293D

 47 49  0     1  0  0  0  0  0999 V2000
    3.8483   -2.8776    0.3520 O   0  0  0  0  0  0  0  0  0  0  0  0
    5.1260   -0.4581    0.1217 O   0  0  0  0  0  0  0  0  0  0  0  0
    0.1064   -0.5833    1.7915 O   0  0  0  0  0  0  0  0  0  0  0  0
   -5.8902    0.7382   -0.3687 O   0  0  0  0  0  0  0  0  0  0  0  0
    0.9860   -1.7367   -0.0217 N   0  0  0  0  0  0  0  0  0  0  0  0
    2.2648    3.0974    1.3509 N   0  0  0  0  0  0  0  0  0  0  0  0
    2.2537    0.1399   -1.0249 C   0  0  2  0  0  0  0  0  0  0  0  0
    2.2601   -1.0644   -0.0564 C   0  0  2  0  0  0  0  0  0  0  0  0
    3.3640   -1.9625   -0.6127 C   0  0  1  0  0  0  0  0  0  0  0  0
    3.6622    0.1684   -1.6728 C   0  0  0  0  0  0  0  0  0  0  0  0
    4.4454   -0.9690   -1.0204 C   0  0  1  0  0  0  0  0  0  0  0  0
    1.8486    1.4362   -0.3555 C   0  0  0  0  0  0  0  0  0  0  0  0
    0.7372    2.1500   -0.7897 C   0  0  0  0  0  0  0  0  0  0  0  0
    0.0024   -1.4353    0.9127 C   0  0  0  0  0  0  0  0  0  0  0  0
    2.5726    1.9479    0.7093 C   0  0  0  0  0  0  0  0  0  0  0  0
   -1.2361   -2.2881    0.7162 C   0  0  0  0  0  0  0  0  0  0  0  0
    0.3887    3.3370   -0.1549 C   0  0  0  0  0  0  0  0  0  0  0  0
    1.1779    3.7638    0.9009 C   0  0  0  0  0  0  0  0  0  0  0  0
   -2.4755   -1.4829    0.4277 C   0  0  0  0  0  0  0  0  0  0  0  0
   -3.2824   -1.0437    1.4774 C   0  0  0  0  0  0  0  0  0  0  0  0
   -2.8161   -1.1756   -0.8896 C   0  0  0  0  0  0  0  0  0  0  0  0
   -4.4301   -0.2977    1.2098 C   0  0  0  0  0  0  0  0  0  0  0  0
   -3.9638   -0.4296   -1.1573 C   0  0  0  0  0  0  0  0  0  0  0  0
   -4.7708    0.0094   -0.1076 C   0  0  0  0  0  0  0  0  0  0  0  0
   -6.1793    1.0160   -1.7381 C   0  0  0  0  0  0  0  0  0  0  0  0
    1.5370   -0.0600   -1.8352 H   0  0  0  0  0  0  0  0  0  0  0  0
    2.5094   -0.7744    0.9718 H   0  0  0  0  0  0  0  0  0  0  0  0
    3.0092   -2.5256   -1.4851 H   0  0  0  0  0  0  0  0  0  0  0  0
    3.5530   -0.0383   -2.7449 H   0  0  0  0  0  0  0  0  0  0  0  0
    4.1628    1.1371   -1.5713 H   0  0  0  0  0  0  0  0  0  0  0  0
    5.1907   -1.4153   -1.6854 H   0  0  0  0  0  0  0  0  0  0  0  0
    0.7886   -2.4137   -0.7527 H   0  0  0  0  0  0  0  0  0  0  0  0
    4.6051   -3.3439   -0.0421 H   0  0  0  0  0  0  0  0  0  0  0  0
    5.7737    0.1956   -0.1924 H   0  0  0  0  0  0  0  0  0  0  0  0
    0.1329    1.7929   -1.6190 H   0  0  0  0  0  0  0  0  0  0  0  0
    3.4520    1.4461    1.0982 H   0  0  0  0  0  0  0  0  0  0  0  0
   -1.3755   -2.8750    1.6333 H   0  0  0  0  0  0  0  0  0  0  0  0
   -1.0913   -3.0292   -0.0793 H   0  0  0  0  0  0  0  0  0  0  0  0
   -0.4740    3.9095   -0.4758 H   0  0  0  0  0  0  0  0  0  0  0  0
    0.9484    4.6830    1.4296 H   0  0  0  0  0  0  0  0  0  0  0  0
   -3.0266   -1.2748    2.5080 H   0  0  0  0  0  0  0  0  0  0  0  0
   -2.1926   -1.5105   -1.7145 H   0  0  0  0  0  0  0  0  0  0  0  0
   -5.0546    0.0422    2.0315 H   0  0  0  0  0  0  0  0  0  0  0  0
   -4.1688   -0.2262   -2.2027 H   0  0  0  0  0  0  0  0  0  0  0  0
   -7.1030    1.6035   -1.7606 H   0  0  0  0  0  0  0  0  0  0  0  0
   -6.3706    0.0976   -2.3034 H   0  0  0  0  0  0  0  0  0  0  0  0
   -5.3980    1.6312   -2.1974 H   0  0  0  0  0  0  0  0  0  0  0  0
  1  9  1  0  0  0  0
  1 33  1  0  0  0  0
  2 11  1  0  0  0  0
  2 34  1  0  0  0  0
  3 14  2  0  0  0  0
  4 24  1  0  0  0  0
  4 25  1  0  0  0  0
  5  8  1  0  0  0  0
  5 14  1  0  0  0  0
  5 32  1  0  0  0  0
  6 15  1  0  0  0  0
  6 18  2  0  0  0  0
  7  8  1  0  0  0  0
  7 10  1  0  0  0  0
  7 12  1  0  0  0  0
  7 26  1  0  0  0  0
  8  9  1  0  0  0  0
  8 27  1  0  0  0  0
  9 11  1  0  0  0  0
  9 28  1  0  0  0  0
 10 11  1  0  0  0  0
 10 29  1  0  0  0  0
 10 30  1  0  0  0  0
 11 31  1  0  0  0  0
 12 13  1  0  0  0  0
 12 15  2  0  0  0  0
 13 17  2  0  0  0  0
 13 35  1  0  0  0  0
 14 16  1  0  0  0  0
 15 36  1  0  0  0  0
 16 19  1  0  0  0  0
 16 37  1  0  0  0  0
 16 38  1  0  0  0  0
 17 18  1  0  0  0  0
 17 39  1  0  0  0  0
 18 40  1  0  0  0  0
 19 20  2  0  0  0  0
 19 21  1  0  0  0  0
 20 22  1  0  0  0  0
 20 41  1  0  0  0  0
 21 23  2  0  0  0  0
 21 42  1  0  0  0  0
 22 24  2  0  0  0  0
 22 43  1  0  0  0  0
 23 24  1  0  0  0  0
 23 44  1  0  0  0  0
 25 45  1  0  0  0  0
 25 46  1  0  0  0  0
 25 47  1  0  0  0  0
M  END
> <PUBCHEM_COMPOUND_CID>
75536071

> <PUBCHEM_CONFORMER_RMSD>
0.8

> <PUBCHEM_CONFORMER_DIVERSEORDER>
1
35
139
101
56
33
94
36
46
131
52
135
64
136
41
32
14
54
69
88
39
104
63
86
20
81
98
90
114
102
50
73
17
93
128
121
133
67
48
77
79
111
28
62
106
9
113
12
99
42
60
97
125
108
13
120
80
23
61
116
59
91
8
72
95
134
68
115
83
7
27
11
126
137
87
10
38
82
132
16
124
76
31
55
74
45
112
2
103
127
138
24
71
122
22
78
3
4
123
58
34
51
21
84
140
47
89
110
129
29
130
109
18
65
75
85
105
5
25
6
26
44
40
19
66
57
107
92
118
30
117
53
100
37
15
70
43
119
49
96

> <PUBCHEM_MMFF94_PARTIAL_CHARGES>
35
1 -0.68
11 0.28
12 -0.14
13 -0.15
14 0.57
15 0.16
16 0.2
17 -0.15
18 0.16
19 -0.14
2 -0.68
20 -0.15
21 -0.15
22 -0.15
23 -0.15
24 0.08
25 0.28
3 -0.57
32 0.37
33 0.4
34 0.4
35 0.15
36 0.15
39 0.15
4 -0.36
40 0.15
41 0.15
42 0.15
43 0.15
44 0.15
5 -0.73
6 -0.62
7 0.14
8 0.3
9 0.28

> <PUBCHEM_EFFECTIVE_ROTOR_COUNT>
7

> <PUBCHEM_PHARMACOPHORE_FEATURES>
11
1 1 acceptor
1 1 donor
1 2 acceptor
1 2 donor
1 3 acceptor
1 4 acceptor
1 5 donor
1 6 acceptor
5 7 8 9 10 11 rings
6 19 20 21 22 23 24 rings
6 6 12 13 15 17 18 rings

> <PUBCHEM_HEAVY_ATOM_COUNT>
25

> <PUBCHEM_ATOM_DEF_STEREO_COUNT>
4

> <PUBCHEM_ATOM_UDEF_STEREO_COUNT>
0

> <PUBCHEM_BOND_DEF_STEREO_COUNT>
0

> <PUBCHEM_BOND_UDEF_STEREO_COUNT>
0

> <PUBCHEM_ISOTOPIC_ATOM_COUNT>
0

> <PUBCHEM_COMPONENT_COUNT>
1

> <PUBCHEM_CACTVS_TAUTO_COUNT>
2

> <PUBCHEM_CONFORMER_ID>
048096C700000001

> <PUBCHEM_MMFF94_ENERGY>
77.2793

> <PUBCHEM_FEATURE_SELFOVERLAP>
55.834

> <PUBCHEM_SHAPE_FINGERPRINT>
10764073 3 18046313531750647680
11421498 54 12324232858845592478
12156800 1 17758085156415145976
12553582 1 18269015153437120682
12769317 202 18113892711722483583
12788726 201 18265906748409034990
13004483 165 18268705022686998762
13134695 92 18412831291540575518
13402501 40 18187643575067897661
13583140 156 18336276746480195027
13726171 33 16009025030254949525
14341114 328 12324250464111626135
14347329 18 17095794413850963557
15003188 100 18336819888481361797
15210252 30 17604158102877744300
15238133 3 17677035859585662705
15420108 30 17842823685119334130
17093844 170 18334572486008078716
17138139 8 17402571227270042453
17357779 13 18410581664985623036
17980427 23 17417830438665474104
18335252 114 18267575820340221845
20832881 197 18337110073029301597
21033648 29 17967531303053066421
21860390 5 18200877391219205956
22122407 14 18197520462825679073
221357 26 18336262358544676405
22289505 5 18335141972906512262
23559900 14 18271524294484468889
3014063 31 18409448046906875349
345986 75 17825652375520774066
3524813 1 17967247590176881487
508706 21 17822568430272597375
57124632 79 18054227910424684144
574716 61 17987789839202011943
5895379 119 16843916116310538528
7226269 152 18113616794522787034
7399639 24 17328880196722924259
9981440 41 17478320293852767368

> <PUBCHEM_SHAPE_MULTIPOLES>
481.05
11.21
3.64
1.52
12.5
3.1
0.03
-1.36
3.92
-3.34
-1.07
0.71
0.19
1.57

> <PUBCHEM_SHAPE_SELFOVERLAP>
1025.765

> <PUBCHEM_SHAPE_VOLUME>
266.6

> <PUBCHEM_COORDINATE_TYPE>
2
5
10

$$$$
