51137608
  -OEChem-12032416223D

 43 46  0     1  0  0  0  0  0999 V2000
    8.9849    1.0297    0.4259 F   0  0  0  0  0  0  0  0  0  0  0  0
    0.7413   -0.1223    0.3445 O   0  0  0  0  0  0  0  0  0  0  0  0
    3.6578   -0.0265   -0.4173 O   0  0  0  0  0  0  0  0  0  0  0  0
   -3.9872    0.0414    0.1947 N   0  0  1  0  0  0  0  0  0  0  0  0
   -0.2532   -1.9103   -0.5600 N   0  0  0  0  0  0  0  0  0  0  0  0
   -6.8101    1.1402    1.1336 N   0  0  0  0  0  0  0  0  0  0  0  0
   -7.2977   -0.1439   -0.6114 N   0  0  0  0  0  0  0  0  0  0  0  0
    1.0867   -2.2061   -0.3922 N   0  0  0  0  0  0  0  0  0  0  0  0
   -1.6580    0.1636   -0.0494 C   0  0  1  0  0  0  0  0  0  0  0  0
   -2.3324    0.4300   -1.4064 C   0  0  0  0  0  0  0  0  0  0  0  0
   -2.7602   -0.4618    0.8161 C   0  0  0  0  0  0  0  0  0  0  0  0
   -3.7582   -0.0810   -1.2450 C   0  0  0  0  0  0  0  0  0  0  0  0
   -5.1696   -0.6861    0.6316 C   0  0  0  0  0  0  0  0  0  0  0  0
   -0.4091   -0.6848   -0.1166 C   0  0  0  0  0  0  0  0  0  0  0  0
   -6.4346    0.0817    0.3542 C   0  0  0  0  0  0  0  0  0  0  0  0
    1.6278   -1.1342    0.1382 C   0  0  0  0  0  0  0  0  0  0  0  0
    3.0205   -0.8863    0.5313 C   0  0  0  0  0  0  0  0  0  0  0  0
   -7.9877    1.6201    0.6333 C   0  0  0  0  0  0  0  0  0  0  0  0
   -8.2683    0.8118   -0.4430 C   0  0  0  0  0  0  0  0  0  0  0  0
    4.9825    0.2361   -0.2076 C   0  0  0  0  0  0  0  0  0  0  0  0
    5.6403   -0.3256    0.8867 C   0  0  0  0  0  0  0  0  0  0  0  0
    5.6770    1.0657   -1.0881 C   0  0  0  0  0  0  0  0  0  0  0  0
    6.9921   -0.0575    1.1008 C   0  0  0  0  0  0  0  0  0  0  0  0
    7.0289    1.3339   -0.8741 C   0  0  0  0  0  0  0  0  0  0  0  0
    7.6865    0.7722    0.2203 C   0  0  0  0  0  0  0  0  0  0  0  0
   -1.3843    1.1370    0.3818 H   0  0  0  0  0  0  0  0  0  0  0  0
   -2.3392    1.5093   -1.6035 H   0  0  0  0  0  0  0  0  0  0  0  0
   -1.8266   -0.0582   -2.2462 H   0  0  0  0  0  0  0  0  0  0  0  0
   -2.6737   -0.1433    1.8606 H   0  0  0  0  0  0  0  0  0  0  0  0
   -2.7169   -1.5588    0.7863 H   0  0  0  0  0  0  0  0  0  0  0  0
   -4.4616    0.5159   -1.8342 H   0  0  0  0  0  0  0  0  0  0  0  0
   -3.8150   -1.1240   -1.5823 H   0  0  0  0  0  0  0  0  0  0  0  0
   -5.2324   -1.6842    0.1793 H   0  0  0  0  0  0  0  0  0  0  0  0
   -5.1261   -0.8459    1.7179 H   0  0  0  0  0  0  0  0  0  0  0  0
   -6.3093    1.5036    1.9337 H   0  0  0  0  0  0  0  0  0  0  0  0
    3.5260   -1.8598    0.5631 H   0  0  0  0  0  0  0  0  0  0  0  0
    3.0231   -0.4241    1.5264 H   0  0  0  0  0  0  0  0  0  0  0  0
   -8.4989    2.4635    1.0742 H   0  0  0  0  0  0  0  0  0  0  0  0
   -9.1197    0.8694   -1.1053 H   0  0  0  0  0  0  0  0  0  0  0  0
    5.1668   -0.9738    1.6157 H   0  0  0  0  0  0  0  0  0  0  0  0
    5.1699    1.5059   -1.9423 H   0  0  0  0  0  0  0  0  0  0  0  0
    7.5054   -0.4930    1.9531 H   0  0  0  0  0  0  0  0  0  0  0  0
    7.5699    1.9798   -1.5593 H   0  0  0  0  0  0  0  0  0  0  0  0
  1 25  1  0  0  0  0
  2 14  1  0  0  0  0
  2 16  1  0  0  0  0
  3 17  1  0  0  0  0
  3 20  1  0  0  0  0
  4 11  1  0  0  0  0
  4 12  1  0  0  0  0
  4 13  1  0  0  0  0
  5  8  1  0  0  0  0
  5 14  2  0  0  0  0
  6 15  1  0  0  0  0
  6 18  1  0  0  0  0
  6 35  1  0  0  0  0
  7 15  2  0  0  0  0
  7 19  1  0  0  0  0
  8 16  2  0  0  0  0
  9 10  1  0  0  0  0
  9 11  1  0  0  0  0
  9 14  1  0  0  0  0
  9 26  1  0  0  0  0
 10 12  1  0  0  0  0
 10 27  1  0  0  0  0
 10 28  1  0  0  0  0
 11 29  1  0  0  0  0
 11 30  1  0  0  0  0
 12 31  1  0  0  0  0
 12 32  1  0  0  0  0
 13 15  1  0  0  0  0
 13 33  1  0  0  0  0
 13 34  1  0  0  0  0
 16 17  1  0  0  0  0
 17 36  1  0  0  0  0
 17 37  1  0  0  0  0
 18 19  2  0  0  0  0
 18 38  1  0  0  0  0
 19 39  1  0  0  0  0
 20 21  2  0  0  0  0
 20 22  1  0  0  0  0
 21 23  1  0  0  0  0
 21 40  1  0  0  0  0
 22 24  2  0  0  0  0
 22 41  1  0  0  0  0
 23 25  2  0  0  0  0
 23 42  1  0  0  0  0
 24 25  1  0  0  0  0
 24 43  1  0  0  0  0
M  END
> <PUBCHEM_COMPOUND_CID>
51137608

> <PUBCHEM_CONFORMER_RMSD>
1

> <PUBCHEM_CONFORMER_DIVERSEORDER>
1
19
140
123
133
57
111
120
3
141
119
63
83
66
109
52
26
22
47
56
108
131
8
12
135
11
128
93
118
69
96
38
126
142
94
51
9
130
92
88
72
62
24
124
14
73
37
20
4
113
16
136
29
90
139
42
85
48
25
70
97
79
32
95
34
59
58
134
64
28
138
89
122
5
46
68
114
65
82
112
110
44
53
107
15
7
102
125
41
33
86
117
13
35
137
116
2
81
60
77
49
132
17
80
39
121
21
31
98
6
91
45
87
18
43
104
30
71
23
27
127
75
61
106
36
84
10
50
55
101
67
105
129
78
76
100
115
54
99
40
74
103

> <PUBCHEM_MMFF94_PARTIAL_CHARGES>
31
1 -0.19
11 0.27
12 0.27
13 0.45
14 0.3
15 0.01
16 0.3
17 0.46
18 -0.3
19 0.08
2 -0.28
20 0.08
21 -0.15
22 -0.15
23 -0.15
24 -0.15
25 0.19
3 -0.36
35 0.27
38 0.15
39 0.15
4 -0.81
40 0.15
41 0.15
42 0.15
43 0.15
5 -0.34
6 0.03
7 -0.57
8 -0.34
9 0.18

> <PUBCHEM_EFFECTIVE_ROTOR_COUNT>
7

> <PUBCHEM_PHARMACOPHORE_FEATURES>
8
1 3 acceptor
1 4 cation
1 6 donor
3 6 7 15 cation
5 2 5 8 14 16 rings
5 4 9 10 11 12 rings
5 6 7 15 18 19 rings
6 20 21 22 23 24 25 rings

> <PUBCHEM_HEAVY_ATOM_COUNT>
25

> <PUBCHEM_ATOM_DEF_STEREO_COUNT>
1

> <PUBCHEM_ATOM_UDEF_STEREO_COUNT>
0

> <PUBCHEM_BOND_DEF_STEREO_COUNT>
0

> <PUBCHEM_BOND_UDEF_STEREO_COUNT>
0

> <PUBCHEM_ISOTOPIC_ATOM_COUNT>
0

> <PUBCHEM_COMPONENT_COUNT>
1

> <PUBCHEM_CACTVS_TAUTO_COUNT>
1

> <PUBCHEM_CONFORMER_ID>
030C4C4800000001

> <PUBCHEM_MMFF94_ENERGY>
44.688

> <PUBCHEM_FEATURE_SELFOVERLAP>
40.599

> <PUBCHEM_SHAPE_FINGERPRINT>
10 15 17675925395495836991
10066227 49 12175636048432341412
10533779 47 16443628986817839040
106641 1 18041001752563872635
10670039 82 14476967757727482563
10904742 90 17989204841230610390
11135609 127 14907601460044629792
11135926 11 14056713570051579859
11315181 36 18411700985899178771
11386260 185 14261335956281724979
11638347 137 15502371210742884792
12592606 108 9871747996535639684
12645989 146 10735867371066384747
13668630 136 10665225951672174072
13673619 4 10015863167627201691
13685833 64 8070025562498495286
13885169 127 10591769774907768515
14251764 18 18113056038606849852
14251764 46 18260547822564691129
14344974 52 16916776435414454969
14617042 71 17895482548475514348
15183329 4 14333134056922303990
15419008 47 14418125240397345735
155225 1 18343019990741400673
15690457 1 10809344451310447656
15849732 13 16200149902548751025
17093844 174 16660364775995874129
18006028 8 8790888484329807782
1818759 1 8070027791607880944
19841028 212 10809605009934330528
20157964 124 18186800262856308178
20554085 129 17774712113622890802
20721686 146 17773881901093131133
20735858 18 15213019349351463338
21150785 3 15626222412282235665
21267235 1 8574713502802345747
22224240 67 18186519908291146315
23576562 1 16127507386206504889
246663 6 8790885185573014665
24771293 8 18408326567027704861
249057 3 15123502636061934968
3004659 81 12679460881230506742
4073 2 18409173195382087243
4325135 7 18040434391003817957
4340502 62 16877662353339935810
444769 64 9439394749545613701
445580 37 17274829021846608961
5104073 3 16733818667194593689
5758199 1 18413670201722442051
59682541 35 17749393697612646609
636775 72 18114742621938367405
636775 8 16773505673692992983
6438161 24 11959731539071474854
68570916 9 16154570820276206987
9953998 17 17313105276192878747

> <PUBCHEM_SHAPE_MULTIPOLES>
470.57
28.54
1.4
1.09
1.45
0.22
0.06
-14.46
-5.34
0.39
0.16
-0.28
-0.11
-0.93

> <PUBCHEM_SHAPE_SELFOVERLAP>
1018.361

> <PUBCHEM_SHAPE_VOLUME>
262.2

> <PUBCHEM_COORDINATE_TYPE>
2
5
10

$$$$
