56774034
  -OEChem-12032416323D

 53 54  0     1  0  0  0  0  0999 V2000
    4.5503    1.2269    0.1212 O   0  0  0  0  0  0  0  0  0  0  0  0
   -4.3652    0.5842    1.1222 O   0  0  0  0  0  0  0  0  0  0  0  0
   -2.5666   -0.6430    0.3247 N   0  0  0  0  0  0  0  0  0  0  0  0
    3.3932    1.9962    0.1345 N   0  0  0  0  0  0  0  0  0  0  0  0
   -4.7125   -1.3334   -0.1405 N   0  0  0  0  0  0  0  0  0  0  0  0
    5.3251   -2.0172    0.2106 N   0  0  0  0  0  0  0  0  0  0  0  0
   -1.3166    1.5799    0.2054 C   0  0  0  0  0  0  0  0  0  0  0  0
    0.2015    1.3657    0.3796 C   0  0  1  0  0  0  0  0  0  0  0  0
   -1.5108    0.2122    0.8924 C   0  0  2  0  0  0  0  0  0  0  0  0
   -0.0926   -0.1488    0.4034 C   0  0  0  0  0  0  0  0  0  0  0  0
    1.0985    1.8205   -0.7478 C   0  0  0  0  0  0  0  0  0  0  0  0
   -1.8468    2.7839    0.9522 C   0  0  0  0  0  0  0  0  0  0  0  0
   -1.8212    1.5938   -1.2259 C   0  0  0  0  0  0  0  0  0  0  0  0
    2.4972    1.2846   -0.5553 C   0  0  0  0  0  0  0  0  0  0  0  0
   -3.9248   -0.3767    0.4924 C   0  0  0  0  0  0  0  0  0  0  0  0
    3.0267    0.0697   -1.0235 C   0  0  0  0  0  0  0  0  0  0  0  0
    4.3196    0.0823   -0.5713 C   0  0  0  0  0  0  0  0  0  0  0  0
   -6.1556   -1.2915   -0.1209 C   0  0  0  0  0  0  0  0  0  0  0  0
    5.4449   -0.8534   -0.6844 C   0  0  0  0  0  0  0  0  0  0  0  0
   -6.6821   -0.4558   -1.2809 C   0  0  0  0  0  0  0  0  0  0  0  0
   -6.7267   -2.7031   -0.1536 C   0  0  0  0  0  0  0  0  0  0  0  0
    5.7356   -1.6534    1.5623 C   0  0  0  0  0  0  0  0  0  0  0  0
    6.1289   -3.1237   -0.2966 C   0  0  0  0  0  0  0  0  0  0  0  0
    0.5671    1.7243    1.3546 H   0  0  0  0  0  0  0  0  0  0  0  0
   -1.5800    0.2592    1.9872 H   0  0  0  0  0  0  0  0  0  0  0  0
   -0.0538   -0.6510   -0.5709 H   0  0  0  0  0  0  0  0  0  0  0  0
    0.5070   -0.7290    1.1115 H   0  0  0  0  0  0  0  0  0  0  0  0
    1.1285    2.9163   -0.7881 H   0  0  0  0  0  0  0  0  0  0  0  0
    0.7455    1.4787   -1.7273 H   0  0  0  0  0  0  0  0  0  0  0  0
   -2.9405    2.8250    0.9284 H   0  0  0  0  0  0  0  0  0  0  0  0
   -1.4709    3.7156    0.5146 H   0  0  0  0  0  0  0  0  0  0  0  0
   -1.5446    2.7725    2.0054 H   0  0  0  0  0  0  0  0  0  0  0  0
   -2.9162    1.6163   -1.2669 H   0  0  0  0  0  0  0  0  0  0  0  0
   -1.4925    0.7294   -1.8130 H   0  0  0  0  0  0  0  0  0  0  0  0
   -1.4767    2.4916   -1.7531 H   0  0  0  0  0  0  0  0  0  0  0  0
   -2.3184   -1.4718   -0.2092 H   0  0  0  0  0  0  0  0  0  0  0  0
    2.5424   -0.7019   -1.6036 H   0  0  0  0  0  0  0  0  0  0  0  0
   -4.2535   -2.0458   -0.7001 H   0  0  0  0  0  0  0  0  0  0  0  0
   -6.4703   -0.8146    0.8153 H   0  0  0  0  0  0  0  0  0  0  0  0
    6.4042   -0.3381   -0.5418 H   0  0  0  0  0  0  0  0  0  0  0  0
    5.4510   -1.1978   -1.7283 H   0  0  0  0  0  0  0  0  0  0  0  0
   -7.7756   -0.4027   -1.2608 H   0  0  0  0  0  0  0  0  0  0  0  0
   -6.2937    0.5675   -1.2348 H   0  0  0  0  0  0  0  0  0  0  0  0
   -6.3781   -0.8792   -2.2448 H   0  0  0  0  0  0  0  0  0  0  0  0
   -7.8203   -2.6847   -0.1031 H   0  0  0  0  0  0  0  0  0  0  0  0
   -6.3582   -3.2906    0.6945 H   0  0  0  0  0  0  0  0  0  0  0  0
   -6.4362   -3.2295   -1.0697 H   0  0  0  0  0  0  0  0  0  0  0  0
    5.0987   -0.8625    1.9731 H   0  0  0  0  0  0  0  0  0  0  0  0
    6.7777   -1.3159    1.6068 H   0  0  0  0  0  0  0  0  0  0  0  0
    5.6291   -2.5109    2.2366 H   0  0  0  0  0  0  0  0  0  0  0  0
    5.7768   -3.4391   -1.2853 H   0  0  0  0  0  0  0  0  0  0  0  0
    6.0367   -3.9982    0.3574 H   0  0  0  0  0  0  0  0  0  0  0  0
    7.1910   -2.8639   -0.3740 H   0  0  0  0  0  0  0  0  0  0  0  0
  1  4  1  0  0  0  0
  1 17  1  0  0  0  0
  2 15  2  0  0  0  0
  3  9  1  0  0  0  0
  3 15  1  0  0  0  0
  3 36  1  0  0  0  0
  4 14  2  0  0  0  0
  5 15  1  0  0  0  0
  5 18  1  0  0  0  0
  5 38  1  0  0  0  0
  6 19  1  0  0  0  0
  6 22  1  0  0  0  0
  6 23  1  0  0  0  0
  7  8  1  0  0  0  0
  7  9  1  0  0  0  0
  7 12  1  0  0  0  0
  7 13  1  0  0  0  0
  8 10  1  0  0  0  0
  8 11  1  0  0  0  0
  8 24  1  0  0  0  0
  9 10  1  0  0  0  0
  9 25  1  0  0  0  0
 10 26  1  0  0  0  0
 10 27  1  0  0  0  0
 11 14  1  0  0  0  0
 11 28  1  0  0  0  0
 11 29  1  0  0  0  0
 12 30  1  0  0  0  0
 12 31  1  0  0  0  0
 12 32  1  0  0  0  0
 13 33  1  0  0  0  0
 13 34  1  0  0  0  0
 13 35  1  0  0  0  0
 14 16  1  0  0  0  0
 16 17  2  0  0  0  0
 16 37  1  0  0  0  0
 17 19  1  0  0  0  0
 18 20  1  0  0  0  0
 18 21  1  0  0  0  0
 18 39  1  0  0  0  0
 19 40  1  0  0  0  0
 19 41  1  0  0  0  0
 20 42  1  0  0  0  0
 20 43  1  0  0  0  0
 20 44  1  0  0  0  0
 21 45  1  0  0  0  0
 21 46  1  0  0  0  0
 21 47  1  0  0  0  0
 22 48  1  0  0  0  0
 22 49  1  0  0  0  0
 22 50  1  0  0  0  0
 23 51  1  0  0  0  0
 23 52  1  0  0  0  0
 23 53  1  0  0  0  0
M  END
> <PUBCHEM_COMPOUND_CID>
56774034

> <PUBCHEM_CONFORMER_RMSD>
1.2

> <PUBCHEM_CONFORMER_DIVERSEORDER>
1
21
38
32
51
48
70
60
7
15
78
80
47
62
25
17
67
76
66
63
79
40
57
85
49
2
35
59
37
22
45
42
33
11
41
83
54
24
71
4
52
50
30
36
81
46
69
64
26
74
28
34
68
20
73
77
9
58
27
23
53
18
3
65
44
29
72
8
55
6
82
56
5
43
19
12
13
16
31
14
61
10
75
84
39

> <PUBCHEM_MMFF94_PARTIAL_CHARGES>
19
1 -0.02
11 0.18
14 0.11
15 0.69
16 -0.15
17 -0.04
18 0.3
19 0.45
2 -0.57
22 0.27
23 0.27
3 -0.65
36 0.37
37 0.15
38 0.37
4 -0.41
5 -0.73
6 -0.81
9 0.22

> <PUBCHEM_EFFECTIVE_ROTOR_COUNT>
8.8

> <PUBCHEM_PHARMACOPHORE_FEATURES>
9
1 2 acceptor
1 3 donor
1 4 acceptor
1 5 donor
1 6 cation
3 18 20 21 hydrophobe
3 7 12 13 hydrophobe
4 7 8 9 10 rings
5 1 4 14 16 17 rings

> <PUBCHEM_HEAVY_ATOM_COUNT>
23

> <PUBCHEM_ATOM_DEF_STEREO_COUNT>
2

> <PUBCHEM_ATOM_UDEF_STEREO_COUNT>
0

> <PUBCHEM_BOND_DEF_STEREO_COUNT>
0

> <PUBCHEM_BOND_UDEF_STEREO_COUNT>
0

> <PUBCHEM_ISOTOPIC_ATOM_COUNT>
0

> <PUBCHEM_COMPONENT_COUNT>
1

> <PUBCHEM_CACTVS_TAUTO_COUNT>
3

> <PUBCHEM_CONFORMER_ID>
03624D9200000001

> <PUBCHEM_MMFF94_ENERGY>
39.0808

> <PUBCHEM_FEATURE_SELFOVERLAP>
45.72

> <PUBCHEM_SHAPE_FINGERPRINT>
10 15 11672064155733316367
10447042 23 18342457079627041716
10693767 8 18338227275918299659
10753850 27 18410292532082340635
12670543 26 17821725040207862381
12760667 363 18409453570266148339
12839892 36 17846785082936389039
12954195 1 18041835113542764629
13533116 47 18410577314305195056
13540713 5 18267326299182559132
13862211 1 18412830204877101475
13885169 86 9727340355599795382
14020679 6 13254783659904605719
14251751 18 18272087158823432794
14251752 14 18260822679788018109
14347332 77 18334853875010960208
14565420 104 11959737057476950020
14849402 71 8286192869336709359
14931854 50 17458634350777051898
15183329 4 16515678931629430879
15188451 53 18343014463571755514
15475509 8 16805601448003256277
16760501 71 10735869590900104451
17492 89 18199475376824064110
17857418 61 18335987489011401914
200 152 18341615936152358165
20028762 73 18343865498499644294
20621476 66 8214150655354452775
20621476 91 15410608212219222279
21315764 119 16732983111356402383
21585483 132 18196918067329128127
21637258 2 17988639718619283589
21641784 216 15140946349619364351
21682296 61 18409454661098475835
22079108 93 13830132797346218204
2215653 11 17675927607514900866
23081809 10 18341906203000892361
23402539 116 18059583512021843097
23522609 53 18050044105588939428
23559900 14 18187086208102715752
23569943 247 18334859360186163539
23622692 118 18410294671039324936
270888 7 9367336029840859206
2838139 119 9223232905985077554
29717793 49 17530965795728263732
3004659 81 18187080667621199586
3014063 24 18341892982922919238
3472631 163 8358253748485820922
4340502 62 14117529748153168645
465052 167 18129669715448096799
5104073 3 17917435315002227952
531348 171 18410571791515329231
5718773 13 18410291376842048782
59682541 35 10807932717973813639
59755656 215 17458339728145396531
59755656 520 18117276952789538581
76465 3 18410295791978335972
7970288 3 18411136935226971286
8988823 20 17917149519415004480

> <PUBCHEM_SHAPE_MULTIPOLES>
441.67
17.83
2.98
1.14
5.7
0.82
0.04
18.17
-1.63
-1.12
0.16
-0.06
-0.08
-0.96

> <PUBCHEM_SHAPE_SELFOVERLAP>
894.29

> <PUBCHEM_SHAPE_VOLUME>
262.2

> <PUBCHEM_COORDINATE_TYPE>
2
5
10

$$$$
