51137134
  -OEChem-12032416243D

 48 51  0     1  0  0  0  0  0999 V2000
    6.7201    0.8468   -0.5761 S   0  0  0  0  0  0  0  0  0  0  0  0
   -7.4080    2.4566    0.6377 F   0  0  0  0  0  0  0  0  0  0  0  0
   -8.9107    0.1833    0.4129 F   0  0  0  0  0  0  0  0  0  0  0  0
    1.7676   -2.0304    0.5080 O   0  0  0  0  0  0  0  0  0  0  0  0
    7.7517   -0.0697   -1.0392 O   0  0  0  0  0  0  0  0  0  0  0  0
    6.3486    1.9928   -1.3920 O   0  0  0  0  0  0  0  0  0  0  0  0
   -2.6534   -0.5127   -0.1711 N   0  0  1  0  0  0  0  0  0  0  0  0
    1.5463    0.1752    0.0355 N   0  0  0  0  0  0  0  0  0  0  0  0
   -0.5288   -1.2150    0.5305 C   0  0  1  0  0  0  0  0  0  0  0  0
   -1.1925   -0.3893    1.6463 C   0  0  0  0  0  0  0  0  0  0  0  0
   -1.3565   -0.9078   -0.7248 C   0  0  0  0  0  0  0  0  0  0  0  0
   -2.3312    0.3553    0.9615 C   0  0  0  0  0  0  0  0  0  0  0  0
    0.9478   -0.9551    0.3408 C   0  0  0  0  0  0  0  0  0  0  0  0
   -3.4982    0.1496   -1.1541 C   0  0  0  0  0  0  0  0  0  0  0  0
   -4.9444    0.1583   -0.7354 C   0  0  0  0  0  0  0  0  0  0  0  0
    2.8751   -0.1715   -0.0052 C   0  0  0  0  0  0  0  0  0  0  0  0
    3.0145   -1.5210    0.2836 C   0  0  0  0  0  0  0  0  0  0  0  0
    4.0238    0.5856   -0.2762 C   0  0  0  0  0  0  0  0  0  0  0  0
    5.2655   -0.0654   -0.2413 C   0  0  0  0  0  0  0  0  0  0  0  0
   -5.5176    1.3264   -0.2326 C   0  0  0  0  0  0  0  0  0  0  0  0
   -5.7111   -1.0013   -0.8505 C   0  0  0  0  0  0  0  0  0  0  0  0
    4.2257   -2.2003    0.3275 C   0  0  0  0  0  0  0  0  0  0  0  0
    5.3617   -1.4306    0.0549 C   0  0  0  0  0  0  0  0  0  0  0  0
    7.2362    1.4497    1.0147 C   0  0  0  0  0  0  0  0  0  0  0  0
   -6.8576    1.3349    0.1550 C   0  0  0  0  0  0  0  0  0  0  0  0
   -7.0509   -0.9928   -0.4626 C   0  0  0  0  0  0  0  0  0  0  0  0
   -7.6243    0.1753    0.0400 C   0  0  0  0  0  0  0  0  0  0  0  0
    8.5006    2.2732    0.9122 C   0  0  0  0  0  0  0  0  0  0  0  0
   -0.6585   -2.2771    0.7830 H   0  0  0  0  0  0  0  0  0  0  0  0
   -1.5918   -1.0667    2.4116 H   0  0  0  0  0  0  0  0  0  0  0  0
   -0.5044    0.3035    2.1422 H   0  0  0  0  0  0  0  0  0  0  0  0
   -1.4417   -1.7892   -1.3697 H   0  0  0  0  0  0  0  0  0  0  0  0
   -0.9067   -0.0952   -1.3108 H   0  0  0  0  0  0  0  0  0  0  0  0
   -1.9810    1.3431    0.6351 H   0  0  0  0  0  0  0  0  0  0  0  0
   -3.1768    0.4908    1.6431 H   0  0  0  0  0  0  0  0  0  0  0  0
   -3.1488    1.1657   -1.3823 H   0  0  0  0  0  0  0  0  0  0  0  0
   -3.4498   -0.3907   -2.1103 H   0  0  0  0  0  0  0  0  0  0  0  0
    3.9363    1.6439   -0.4975 H   0  0  0  0  0  0  0  0  0  0  0  0
    4.2892   -3.2561    0.5592 H   0  0  0  0  0  0  0  0  0  0  0  0
   -4.9314    2.2363   -0.1363 H   0  0  0  0  0  0  0  0  0  0  0  0
   -5.2761   -1.9177   -1.2407 H   0  0  0  0  0  0  0  0  0  0  0  0
    6.3307   -1.9237    0.0862 H   0  0  0  0  0  0  0  0  0  0  0  0
    7.3985    0.5835    1.6632 H   0  0  0  0  0  0  0  0  0  0  0  0
    6.4206    2.0545    1.4222 H   0  0  0  0  0  0  0  0  0  0  0  0
   -7.6481   -1.8954   -0.5518 H   0  0  0  0  0  0  0  0  0  0  0  0
    8.7990    2.6365    1.9003 H   0  0  0  0  0  0  0  0  0  0  0  0
    8.3564    3.1407    0.2601 H   0  0  0  0  0  0  0  0  0  0  0  0
    9.3266    1.6825    0.5035 H   0  0  0  0  0  0  0  0  0  0  0  0
  1  5  2  0  0  0  0
  1  6  2  0  0  0  0
  1 19  1  0  0  0  0
  1 24  1  0  0  0  0
  2 25  1  0  0  0  0
  3 27  1  0  0  0  0
  4 13  1  0  0  0  0
  4 17  1  0  0  0  0
  7 11  1  0  0  0  0
  7 12  1  0  0  0  0
  7 14  1  0  0  0  0
  8 13  2  0  0  0  0
  8 16  1  0  0  0  0
  9 10  1  0  0  0  0
  9 11  1  0  0  0  0
  9 13  1  0  0  0  0
  9 29  1  0  0  0  0
 10 12  1  0  0  0  0
 10 30  1  0  0  0  0
 10 31  1  0  0  0  0
 11 32  1  0  0  0  0
 11 33  1  0  0  0  0
 12 34  1  0  0  0  0
 12 35  1  0  0  0  0
 14 15  1  0  0  0  0
 14 36  1  0  0  0  0
 14 37  1  0  0  0  0
 15 20  2  0  0  0  0
 15 21  1  0  0  0  0
 16 17  2  0  0  0  0
 16 18  1  0  0  0  0
 17 22  1  0  0  0  0
 18 19  2  0  0  0  0
 18 38  1  0  0  0  0
 19 23  1  0  0  0  0
 20 25  1  0  0  0  0
 20 40  1  0  0  0  0
 21 26  2  0  0  0  0
 21 41  1  0  0  0  0
 22 23  2  0  0  0  0
 22 39  1  0  0  0  0
 23 42  1  0  0  0  0
 24 28  1  0  0  0  0
 24 43  1  0  0  0  0
 24 44  1  0  0  0  0
 25 27  2  0  0  0  0
 26 27  1  0  0  0  0
 26 45  1  0  0  0  0
 28 46  1  0  0  0  0
 28 47  1  0  0  0  0
 28 48  1  0  0  0  0
M  END
> <PUBCHEM_COMPOUND_CID>
51137134

> <PUBCHEM_CONFORMER_RMSD>
0.8

> <PUBCHEM_CONFORMER_DIVERSEORDER>
1
248
158
208
247
9
182
119
199
107
207
308
246
147
184
118
178
26
316
205
186
130
57
188
270
170
71
195
256
44
214
244
206
304
189
278
109
291
171
56
185
260
153
204
280
116
310
234
94
303
28
285
45
255
165
105
225
198
52
117
152
312
226
81
139
257
249
128
20
221
284
93
292
254
317
253
23
10
53
262
218
181
175
25
293
268
294
297
241
176
166
300
83
212
275
273
110
120
242
29
125
36
55
101
250
172
227
272
21
99
48
46
223
233
146
295
168
123
142
5
194
203
307
135
210
196
89
286
70
282
197
276
258
27
313
180
239
169
302
74
67
16
129
167
86
229
161
228
211
230
111
252
62
58
213
231
32
190
277
35
80
202
235
6
97
309
2
179
82
177
287
143
174
87
145
232
64
301
224
216
274
263
267
4
222
315
259
13
209
200
279
219
240
65
215
40
283
68
75
236
96
12
112
305
269
264
187
3
37
121
108
266
8
122
50
220
151
33
61
102
104
201
14
91
288
124
54
24
59
192
39
298
11
144
41
159
265
243
296
281
77
31
155
76
69
15
137
290
66
115
63
261
311
131
237
103
38
114
138
154
183
148
163
84
49
7
156
19
162
141
113
136
319
306
173
79
217
238
34
51
92
60
245
193
126
22
251
100
127
140
149
271
18
318
42
106
160
78
30
17
150
43
73
314
72
133
90
47
157
191
289
132
98
164
134
95
88
320
85
299

> <PUBCHEM_MMFF94_PARTIAL_CHARGES>
32
1 1.2
11 0.27
12 0.27
13 0.3
14 0.41
15 -0.14
16 0.23
17 0.14
18 -0.15
19 -0.01
2 -0.19
20 -0.15
21 -0.15
22 -0.15
23 -0.15
24 0.11
25 0.19
26 -0.15
27 0.19
3 -0.19
38 0.15
39 0.15
4 -0.28
40 0.15
41 0.15
42 0.15
45 0.15
5 -0.65
6 -0.65
7 -0.81
8 -0.57
9 0.18

> <PUBCHEM_EFFECTIVE_ROTOR_COUNT>
6

> <PUBCHEM_PHARMACOPHORE_FEATURES>
7
1 5 acceptor
1 6 acceptor
1 7 cation
5 4 8 13 16 17 rings
5 7 9 10 11 12 rings
6 15 20 21 25 26 27 rings
6 16 17 18 19 22 23 rings

> <PUBCHEM_HEAVY_ATOM_COUNT>
28

> <PUBCHEM_ATOM_DEF_STEREO_COUNT>
1

> <PUBCHEM_ATOM_UDEF_STEREO_COUNT>
0

> <PUBCHEM_BOND_DEF_STEREO_COUNT>
0

> <PUBCHEM_BOND_UDEF_STEREO_COUNT>
0

> <PUBCHEM_ISOTOPIC_ATOM_COUNT>
0

> <PUBCHEM_COMPONENT_COUNT>
1

> <PUBCHEM_CACTVS_TAUTO_COUNT>
1

> <PUBCHEM_CONFORMER_ID>
030C4A6E00000001

> <PUBCHEM_MMFF94_ENERGY>
43.2291

> <PUBCHEM_FEATURE_SELFOVERLAP>
35.658

> <PUBCHEM_SHAPE_FINGERPRINT>
10 15 15791734118040812468
10299344 5 18341892983481860999
10319688 67 15791731931428069313
10369192 42 18272367560453757621
10411042 1 17756419363063660778
10595046 47 18337951195514860787
106641 1 14779553400113245167
10883706 142 18040430001726680634
11135609 187 18342737407789715283
11181472 205 17488756557633577481
11315181 36 18408885123788302933
11638347 137 14779258705480561064
11646440 116 16660368056285415021
12082328 90 18343300375455593551
12089408 11 18273493451992496663
12236239 1 18342736287103781679
12539745 222 12541236863792958526
12539765 74 18202007598925804686
12592606 108 8574714606825075848
13668630 136 11383822767280306269
14251764 18 18113615690046200919
14849402 71 18334018323942906101
14856354 85 17917710215517787495
14933364 13 18412262822759900487
15183329 4 17346599655896738393
15301273 46 11602811398614529264
1577012 14 18343014480630467919
15840311 113 18409732868332789204
16994733 274 18261671481068863553
18335252 98 18334018315547961787
18643901 69 12247688183539923072
195137 175 18131357392956570161
20105231 36 15913328009925403271
20156587 128 15769232596111183480
20157964 124 18260547810392341914
21033648 29 17968656146651337376
21150785 3 18202002135515841579
21298829 104 18410575093712553604
21521721 280 18114184116352333587
21795232 338 18341898554577190259
22224240 67 16805324396668864683
23081809 10 18271794706063645183
23536379 177 18340203004050479323
23559900 14 15697706121222076162
23576562 1 16987697156701223029
2747138 104 16805899403049081909
28498 318 11167944649734441979
3004659 81 16845567629967032099
335352 9 18334300852030317702
3711267 37 18201449068831633177
4073 2 18114186349830747379
4093350 32 18272089371153843502
4098825 35 18337389349040908889
4149490 64 18260548901024509138
4325135 7 18335420162998002479
445580 126 18260540135375149616
445580 37 17346322557845312473
5104073 3 15720221770064506565
5219985 9 12247683772788195978
5265222 85 18201998863394990343
5283156 175 17060340695815314086
5470011 282 15984827069194143508
5758199 1 18259984868664760979
5937810 71 17632585916280151929
59682541 35 17095250224599299697
59682541 52 17561093488793778558

> <PUBCHEM_SHAPE_MULTIPOLES>
537.96
28.08
2
1.08
8.94
0.32
-0.04
15.15
1.32
-2.02
-0.29
-0.44
0.16
-0.54

> <PUBCHEM_SHAPE_SELFOVERLAP>
1157.765

> <PUBCHEM_SHAPE_VOLUME>
300.3

> <PUBCHEM_COORDINATE_TYPE>
2
5
10

$$$$
