56774794
  -OEChem-12032416213D

 51 53  0     1  0  0  0  0  0999 V2000
   -1.1190    2.3752    1.3916 O   0  0  0  0  0  0  0  0  0  0  0  0
   -0.9717    0.2856   -2.2588 O   0  0  0  0  0  0  0  0  0  0  0  0
   -4.3770    2.6018   -0.1497 O   0  0  0  0  0  0  0  0  0  0  0  0
    6.0568    0.9765    0.0229 O   0  0  0  0  0  0  0  0  0  0  0  0
    8.3022   -0.2632    0.4869 O   0  0  0  0  0  0  0  0  0  0  0  0
   -2.8447    0.8511   -0.2083 N   0  0  0  0  0  0  0  0  0  0  0  0
    4.7839   -1.0063   -0.0136 N   0  0  0  0  0  0  0  0  0  0  0  0
   -6.8798   -1.3014    0.2856 N   0  0  0  0  0  0  0  0  0  0  0  0
   -1.4808    0.4000    0.0954 C   0  0  1  0  0  0  0  0  0  0  0  0
   -0.5150    0.8148   -1.0185 C   0  0  1  0  0  0  0  0  0  0  0  0
   -1.0356    0.9559    1.4427 C   0  0  0  0  0  0  0  0  0  0  0  0
   -3.6350    0.0369   -1.1218 C   0  0  0  0  0  0  0  0  0  0  0  0
   -3.3143    2.0937    0.2126 C   0  0  0  0  0  0  0  0  0  0  0  0
    0.8880    0.3323   -0.7518 C   0  0  0  0  0  0  0  0  0  0  0  0
   -2.4576    2.7983    1.2585 C   0  0  0  0  0  0  0  0  0  0  0  0
   -4.6037   -0.8475   -0.3914 C   0  0  0  0  0  0  0  0  0  0  0  0
    1.1401   -1.0310   -0.5992 C   0  0  0  0  0  0  0  0  0  0  0  0
    1.9347    1.2497   -0.6582 C   0  0  0  0  0  0  0  0  0  0  0  0
    2.4386   -1.4771   -0.3531 C   0  0  0  0  0  0  0  0  0  0  0  0
    3.2331    0.8039   -0.4121 C   0  0  0  0  0  0  0  0  0  0  0  0
    3.4850   -0.5596   -0.2597 C   0  0  0  0  0  0  0  0  0  0  0  0
   -4.1711   -1.9919    0.2694 C   0  0  0  0  0  0  0  0  0  0  0  0
   -5.9562   -0.5490   -0.3537 C   0  0  0  0  0  0  0  0  0  0  0  0
   -5.0914   -2.7915    0.9382 C   0  0  0  0  0  0  0  0  0  0  0  0
   -6.4221   -2.4059    0.9166 C   0  0  0  0  0  0  0  0  0  0  0  0
    5.9521   -0.2430    0.1120 C   0  0  0  0  0  0  0  0  0  0  0  0
    7.1700   -1.1008    0.3786 C   0  0  0  0  0  0  0  0  0  0  0  0
    9.4904   -1.0074    0.7390 C   0  0  0  0  0  0  0  0  0  0  0  0
   -1.5210   -0.6908    0.1788 H   0  0  0  0  0  0  0  0  0  0  0  0
   -0.5242    1.9047   -1.1384 H   0  0  0  0  0  0  0  0  0  0  0  0
   -1.6762    0.5846    2.2534 H   0  0  0  0  0  0  0  0  0  0  0  0
   -0.0105    0.6778    1.7025 H   0  0  0  0  0  0  0  0  0  0  0  0
   -3.0068   -0.6024   -1.7457 H   0  0  0  0  0  0  0  0  0  0  0  0
   -4.1772    0.7007   -1.8063 H   0  0  0  0  0  0  0  0  0  0  0  0
   -2.4402    3.8651    1.0126 H   0  0  0  0  0  0  0  0  0  0  0  0
   -2.9598    2.6896    2.2271 H   0  0  0  0  0  0  0  0  0  0  0  0
   -0.8202   -0.6741   -2.2729 H   0  0  0  0  0  0  0  0  0  0  0  0
    0.3433   -1.7658   -0.6723 H   0  0  0  0  0  0  0  0  0  0  0  0
    1.7521    2.3148   -0.7739 H   0  0  0  0  0  0  0  0  0  0  0  0
    2.6207   -2.5425   -0.2372 H   0  0  0  0  0  0  0  0  0  0  0  0
    3.9901    1.5733   -0.3523 H   0  0  0  0  0  0  0  0  0  0  0  0
   -3.1256   -2.2834    0.2638 H   0  0  0  0  0  0  0  0  0  0  0  0
   -6.3562    0.3304   -0.8489 H   0  0  0  0  0  0  0  0  0  0  0  0
   -4.7775   -3.6896    1.4576 H   0  0  0  0  0  0  0  0  0  0  0  0
    4.8854   -2.0142    0.0865 H   0  0  0  0  0  0  0  0  0  0  0  0
   -7.1793   -2.9957    1.4225 H   0  0  0  0  0  0  0  0  0  0  0  0
    7.0157   -1.6523    1.3128 H   0  0  0  0  0  0  0  0  0  0  0  0
    7.2963   -1.8033   -0.4527 H   0  0  0  0  0  0  0  0  0  0  0  0
   10.3259   -0.3062    0.8118 H   0  0  0  0  0  0  0  0  0  0  0  0
    9.6865   -1.7032   -0.0824 H   0  0  0  0  0  0  0  0  0  0  0  0
    9.4061   -1.5523    1.6841 H   0  0  0  0  0  0  0  0  0  0  0  0
  1 11  1  0  0  0  0
  1 15  1  0  0  0  0
  2 10  1  0  0  0  0
  2 37  1  0  0  0  0
  3 13  2  0  0  0  0
  4 26  2  0  0  0  0
  5 27  1  0  0  0  0
  5 28  1  0  0  0  0
  6  9  1  0  0  0  0
  6 12  1  0  0  0  0
  6 13  1  0  0  0  0
  7 21  1  0  0  0  0
  7 26  1  0  0  0  0
  7 45  1  0  0  0  0
  8 23  1  0  0  0  0
  8 25  2  0  0  0  0
  9 10  1  0  0  0  0
  9 11  1  0  0  0  0
  9 29  1  0  0  0  0
 10 14  1  0  0  0  0
 10 30  1  0  0  0  0
 11 31  1  0  0  0  0
 11 32  1  0  0  0  0
 12 16  1  0  0  0  0
 12 33  1  0  0  0  0
 12 34  1  0  0  0  0
 13 15  1  0  0  0  0
 14 17  2  0  0  0  0
 14 18  1  0  0  0  0
 15 35  1  0  0  0  0
 15 36  1  0  0  0  0
 16 22  1  0  0  0  0
 16 23  2  0  0  0  0
 17 19  1  0  0  0  0
 17 38  1  0  0  0  0
 18 20  2  0  0  0  0
 18 39  1  0  0  0  0
 19 21  2  0  0  0  0
 19 40  1  0  0  0  0
 20 21  1  0  0  0  0
 20 41  1  0  0  0  0
 22 24  2  0  0  0  0
 22 42  1  0  0  0  0
 23 43  1  0  0  0  0
 24 25  1  0  0  0  0
 24 44  1  0  0  0  0
 25 46  1  0  0  0  0
 26 27  1  0  0  0  0
 27 47  1  0  0  0  0
 27 48  1  0  0  0  0
 28 49  1  0  0  0  0
 28 50  1  0  0  0  0
 28 51  1  0  0  0  0
M  END
> <PUBCHEM_COMPOUND_CID>
56774794

> <PUBCHEM_CONFORMER_RMSD>
1

> <PUBCHEM_CONFORMER_DIVERSEORDER>
1
69
26
55
66
53
52
28
24
47
42
60
67
62
58
10
61
16
8
45
43
63
59
13
44
20
37
48
21
54
25
56
41
57
19
17
23
38
50
34
68
39
11
22
64
36
49
6
40
30
4
9
51
31
33
18
14
46
35
27
65
15
5
29
7
3
12
32
2

> <PUBCHEM_MMFF94_PARTIAL_CHARGES>
38
1 -0.56
10 0.42
11 0.28
12 0.44
13 0.57
14 -0.14
15 0.34
16 -0.14
17 -0.15
18 -0.15
19 -0.15
2 -0.68
20 -0.15
21 0.12
22 -0.15
23 0.16
24 -0.15
25 0.16
26 0.57
27 0.34
28 0.28
3 -0.57
37 0.4
38 0.15
39 0.15
4 -0.57
40 0.15
41 0.15
42 0.15
43 0.15
44 0.15
45 0.37
46 0.15
5 -0.56
6 -0.66
7 -0.55
8 -0.62
9 0.3

> <PUBCHEM_EFFECTIVE_ROTOR_COUNT>
9

> <PUBCHEM_PHARMACOPHORE_FEATURES>
11
1 1 acceptor
1 2 acceptor
1 2 donor
1 3 acceptor
1 4 acceptor
1 5 acceptor
1 7 donor
1 8 acceptor
6 1 6 9 11 13 15 rings
6 14 17 18 19 20 21 rings
6 8 16 22 23 24 25 rings

> <PUBCHEM_HEAVY_ATOM_COUNT>
28

> <PUBCHEM_ATOM_DEF_STEREO_COUNT>
2

> <PUBCHEM_ATOM_UDEF_STEREO_COUNT>
0

> <PUBCHEM_BOND_DEF_STEREO_COUNT>
0

> <PUBCHEM_BOND_UDEF_STEREO_COUNT>
0

> <PUBCHEM_ISOTOPIC_ATOM_COUNT>
0

> <PUBCHEM_COMPONENT_COUNT>
1

> <PUBCHEM_CACTVS_TAUTO_COUNT>
6

> <PUBCHEM_CONFORMER_ID>
0362508A00000001

> <PUBCHEM_MMFF94_ENERGY>
85.1047

> <PUBCHEM_FEATURE_SELFOVERLAP>
55.836

> <PUBCHEM_SHAPE_FINGERPRINT>
10 15 18060134371583875026
10066227 112 8935001464834755898
106641 1 15769775788734878567
10674148 151 17458061578438438217
11135609 99 18261114140168845526
11315181 36 18260267447263287956
12166972 35 18260268585746626452
12596602 18 18409727349067685584
12760667 363 18341614841573786767
13073987 5 18201439117713589654
13540713 4 17058387880927055053
13631057 29 18408038528966490675
14068700 675 18262241126728151015
14211702 104 18340494370020777502
14251752 14 9367352526788832462
15183329 4 11746929889377921390
15338160 23 16988295174867022697
15461852 350 17603305938980812974
17492 89 18271251495600776215
17686467 74 18410005564391552416
19611394 137 18271809064102054866
20721686 146 11599466667374923851
21033650 10 15285625565827772957
21130935 74 18337105654379042098
21267235 1 18411704296533142950
21315759 40 18114181909487865486
23522609 53 17606145938739723828
23559900 14 18263640830953438669
23569917 315 18334019376616478218
23569943 247 17756142290407186954
3004659 81 17968093174911908019
329604 57 18411143571267331133
3418910 222 18272662268347156472
4015057 19 16298963046643544204
4073 2 18269560451048867590
5104073 3 18059018259380395330
5385378 56 14476971069241947156
57527295 17 15719656694255384469
59682541 35 18059852909102137738
6009941 240 18334853892987434197
6376802 90 18118682111084241453
9862886 166 18261394481310749523
9953998 17 18272373053421614065

> <PUBCHEM_SHAPE_MULTIPOLES>
531.94
21.34
2.64
1.2
40.06
0.49
-0.11
-13.54
5.63
-4.82
1.06
-0.66
0.3
0.12

> <PUBCHEM_SHAPE_SELFOVERLAP>
1127.404

> <PUBCHEM_SHAPE_VOLUME>
292

> <PUBCHEM_COORDINATE_TYPE>
2
5
10

$$$$
