45784365
  -OEChem-12032416353D

 82 84  0     1  0  0  0  0  0999 V2000
    0.8751    1.4082   -0.7844 O   0  0  0  0  0  0  0  0  0  0  0  0
    5.5139   -1.0382   -1.1369 O   0  0  0  0  0  0  0  0  0  0  0  0
   -5.0211   -1.2407    1.5495 O   0  0  0  0  0  0  0  0  0  0  0  0
    5.8944   -1.6555    1.6856 O   0  0  0  0  0  0  0  0  0  0  0  0
    4.6135    4.3799    0.5551 O   0  0  0  0  0  0  0  0  0  0  0  0
   -3.9421   -1.0522   -0.4969 N   0  0  0  0  0  0  0  0  0  0  0  0
    5.4327    0.7837    0.2873 N   0  0  0  0  0  0  0  0  0  0  0  0
    0.1700   -2.3254   -0.4107 C   0  0  1  0  0  0  0  0  0  0  0  0
   -0.0978   -0.7847   -0.3485 C   0  0  2  0  0  0  0  0  0  0  0  0
   -1.5538   -0.4503   -0.8343 C   0  0  1  0  0  0  0  0  0  0  0  0
    1.0399    0.0139   -1.0473 C   0  0  2  0  0  0  0  0  0  0  0  0
    1.5672   -2.6304    0.1792 C   0  0  0  0  0  0  0  0  0  0  0  0
    2.4439   -0.3712   -0.5256 C   0  0  1  0  0  0  0  0  0  0  0  0
   -0.8784   -3.0548    0.4608 C   0  0  0  0  0  0  0  0  0  0  0  0
   -2.5961   -1.2471   -0.0003 C   0  0  2  0  0  0  0  0  0  0  0  0
    2.6877   -1.8803   -0.5284 C   0  0  0  0  0  0  0  0  0  0  0  0
   -2.3123   -2.7479    0.0532 C   0  0  0  0  0  0  0  0  0  0  0  0
    0.1076   -2.8812   -1.8560 C   0  0  0  0  0  0  0  0  0  0  0  0
    3.5565    0.3290   -1.3156 C   0  0  2  0  0  0  0  0  0  0  0  0
   -1.8950    1.0481   -0.7719 C   0  0  0  0  0  0  0  0  0  0  0  0
    3.4696   -0.0777   -2.7877 C   0  0  0  0  0  0  0  0  0  0  0  0
    4.9203   -0.0357   -0.7242 C   0  0  0  0  0  0  0  0  0  0  0  0
   -5.0510   -1.0666    0.3340 C   0  0  0  0  0  0  0  0  0  0  0  0
   -6.3301   -0.8317   -0.4465 C   0  0  0  0  0  0  0  0  0  0  0  0
    6.7203    0.4513    0.8875 C   0  0  0  0  0  0  0  0  0  0  0  0
    4.8140    2.0019    0.8060 C   0  0  0  0  0  0  0  0  0  0  0  0
   -7.0834    0.3941   -0.0025 C   0  0  0  0  0  0  0  0  0  0  0  0
    6.5566   -0.4635    2.0875 C   0  0  0  0  0  0  0  0  0  0  0  0
    5.2678    3.2290    0.0369 C   0  0  0  0  0  0  0  0  0  0  0  0
   -8.0438    0.2960    1.0044 C   0  0  0  0  0  0  0  0  0  0  0  0
   -6.8210    1.6276   -0.5982 C   0  0  0  0  0  0  0  0  0  0  0  0
   -8.7419    1.4317    1.4155 C   0  0  0  0  0  0  0  0  0  0  0  0
   -7.5189    2.7633   -0.1872 C   0  0  0  0  0  0  0  0  0  0  0  0
   -8.4794    2.6652    0.8197 C   0  0  0  0  0  0  0  0  0  0  0  0
    5.7124   -2.5448    2.7790 C   0  0  0  0  0  0  0  0  0  0  0  0
    5.0028    5.5575   -0.1384 C   0  0  0  0  0  0  0  0  0  0  0  0
   -0.0687   -0.4881    0.7123 H   0  0  0  0  0  0  0  0  0  0  0  0
   -1.6517   -0.7419   -1.8877 H   0  0  0  0  0  0  0  0  0  0  0  0
    0.9354   -0.1280   -2.1243 H   0  0  0  0  0  0  0  0  0  0  0  0
    1.5850   -2.3606    1.2440 H   0  0  0  0  0  0  0  0  0  0  0  0
    1.7720   -3.7079    0.1344 H   0  0  0  0  0  0  0  0  0  0  0  0
    2.5145   -0.0366    0.5193 H   0  0  0  0  0  0  0  0  0  0  0  0
   -0.7190   -4.1399    0.4189 H   0  0  0  0  0  0  0  0  0  0  0  0
   -0.7484   -2.7665    1.5127 H   0  0  0  0  0  0  0  0  0  0  0  0
   -2.5646   -0.8662    1.0299 H   0  0  0  0  0  0  0  0  0  0  0  0
    2.7960   -2.2987   -1.5304 H   0  0  0  0  0  0  0  0  0  0  0  0
    3.6095   -2.1255    0.0095 H   0  0  0  0  0  0  0  0  0  0  0  0
   -2.5354   -3.2098   -0.9163 H   0  0  0  0  0  0  0  0  0  0  0  0
   -2.9929   -3.2295    0.7673 H   0  0  0  0  0  0  0  0  0  0  0  0
    0.8153   -2.3853   -2.5261 H   0  0  0  0  0  0  0  0  0  0  0  0
    0.3446   -3.9517   -1.8673 H   0  0  0  0  0  0  0  0  0  0  0  0
   -0.8796   -2.7698   -2.3115 H   0  0  0  0  0  0  0  0  0  0  0  0
    3.4230    1.4135   -1.2887 H   0  0  0  0  0  0  0  0  0  0  0  0
   -1.3513    1.6090   -1.5372 H   0  0  0  0  0  0  0  0  0  0  0  0
   -2.9550    1.2353   -0.9716 H   0  0  0  0  0  0  0  0  0  0  0  0
   -1.6646    1.4675    0.2129 H   0  0  0  0  0  0  0  0  0  0  0  0
   -4.0658   -0.9654   -1.5013 H   0  0  0  0  0  0  0  0  0  0  0  0
    0.9185    1.5414    0.1779 H   0  0  0  0  0  0  0  0  0  0  0  0
    3.5687   -1.1485   -2.9756 H   0  0  0  0  0  0  0  0  0  0  0  0
    4.3040    0.3873   -3.3295 H   0  0  0  0  0  0  0  0  0  0  0  0
    2.5644    0.2872   -3.2787 H   0  0  0  0  0  0  0  0  0  0  0  0
   -6.9569   -1.7238   -0.3193 H   0  0  0  0  0  0  0  0  0  0  0  0
   -6.1382   -0.7673   -1.5245 H   0  0  0  0  0  0  0  0  0  0  0  0
    7.3325   -0.0570    0.1334 H   0  0  0  0  0  0  0  0  0  0  0  0
    7.2478    1.3692    1.1683 H   0  0  0  0  0  0  0  0  0  0  0  0
    3.7239    1.9236    0.7649 H   0  0  0  0  0  0  0  0  0  0  0  0
    5.0524    2.1077    1.8714 H   0  0  0  0  0  0  0  0  0  0  0  0
    7.5427   -0.7105    2.4970 H   0  0  0  0  0  0  0  0  0  0  0  0
    5.9675    0.0335    2.8671 H   0  0  0  0  0  0  0  0  0  0  0  0
    6.3529    3.3556    0.1299 H   0  0  0  0  0  0  0  0  0  0  0  0
    5.0317    3.1230   -1.0284 H   0  0  0  0  0  0  0  0  0  0  0  0
   -8.2562   -0.6590    1.4775 H   0  0  0  0  0  0  0  0  0  0  0  0
   -6.0732    1.7166   -1.3819 H   0  0  0  0  0  0  0  0  0  0  0  0
   -9.4893    1.3555    2.1997 H   0  0  0  0  0  0  0  0  0  0  0  0
   -7.3140    3.7240   -0.6505 H   0  0  0  0  0  0  0  0  0  0  0  0
   -9.0226    3.5495    1.1399 H   0  0  0  0  0  0  0  0  0  0  0  0
    5.2021   -3.4396    2.4124 H   0  0  0  0  0  0  0  0  0  0  0  0
    5.0911   -2.0810    3.5512 H   0  0  0  0  0  0  0  0  0  0  0  0
    6.6788   -2.8405    3.1985 H   0  0  0  0  0  0  0  0  0  0  0  0
    6.0790    5.7265   -0.0341 H   0  0  0  0  0  0  0  0  0  0  0  0
    4.7326    5.4869   -1.1964 H   0  0  0  0  0  0  0  0  0  0  0  0
    4.4724    6.4067    0.3008 H   0  0  0  0  0  0  0  0  0  0  0  0
  1 11  1  0  0  0  0
  1 58  1  0  0  0  0
  2 22  2  0  0  0  0
  3 23  2  0  0  0  0
  4 28  1  0  0  0  0
  4 35  1  0  0  0  0
  5 29  1  0  0  0  0
  5 36  1  0  0  0  0
  6 15  1  0  0  0  0
  6 23  1  0  0  0  0
  6 57  1  0  0  0  0
  7 22  1  0  0  0  0
  7 25  1  0  0  0  0
  7 26  1  0  0  0  0
  8  9  1  0  0  0  0
  8 12  1  0  0  0  0
  8 14  1  0  0  0  0
  8 18  1  0  0  0  0
  9 10  1  0  0  0  0
  9 11  1  0  0  0  0
  9 37  1  0  0  0  0
 10 15  1  0  0  0  0
 10 20  1  0  0  0  0
 10 38  1  0  0  0  0
 11 13  1  0  0  0  0
 11 39  1  0  0  0  0
 12 16  1  0  0  0  0
 12 40  1  0  0  0  0
 12 41  1  0  0  0  0
 13 16  1  0  0  0  0
 13 19  1  0  0  0  0
 13 42  1  0  0  0  0
 14 17  1  0  0  0  0
 14 43  1  0  0  0  0
 14 44  1  0  0  0  0
 15 17  1  0  0  0  0
 15 45  1  0  0  0  0
 16 46  1  0  0  0  0
 16 47  1  0  0  0  0
 17 48  1  0  0  0  0
 17 49  1  0  0  0  0
 18 50  1  0  0  0  0
 18 51  1  0  0  0  0
 18 52  1  0  0  0  0
 19 21  1  0  0  0  0
 19 22  1  0  0  0  0
 19 53  1  0  0  0  0
 20 54  1  0  0  0  0
 20 55  1  0  0  0  0
 20 56  1  0  0  0  0
 21 59  1  0  0  0  0
 21 60  1  0  0  0  0
 21 61  1  0  0  0  0
 23 24  1  0  0  0  0
 24 27  1  0  0  0  0
 24 62  1  0  0  0  0
 24 63  1  0  0  0  0
 25 28  1  0  0  0  0
 25 64  1  0  0  0  0
 25 65  1  0  0  0  0
 26 29  1  0  0  0  0
 26 66  1  0  0  0  0
 26 67  1  0  0  0  0
 27 30  2  0  0  0  0
 27 31  1  0  0  0  0
 28 68  1  0  0  0  0
 28 69  1  0  0  0  0
 29 70  1  0  0  0  0
 29 71  1  0  0  0  0
 30 32  1  0  0  0  0
 30 72  1  0  0  0  0
 31 33  2  0  0  0  0
 31 73  1  0  0  0  0
 32 34  2  0  0  0  0
 32 74  1  0  0  0  0
 33 34  1  0  0  0  0
 33 75  1  0  0  0  0
 34 76  1  0  0  0  0
 35 77  1  0  0  0  0
 35 78  1  0  0  0  0
 35 79  1  0  0  0  0
 36 80  1  0  0  0  0
 36 81  1  0  0  0  0
 36 82  1  0  0  0  0
M  END
> <PUBCHEM_COMPOUND_CID>
45784365

> <PUBCHEM_CONFORMER_RMSD>
1.2

> <PUBCHEM_CONFORMER_DIVERSEORDER>
1
54
71
15
43
63
50
26
72
21
20
70
58
53
79
56
82
51
4
62
37
81
36
13
22
73
78
29
45
11
59
75
33
69
16
41
27
77
46
44
76
32
8
3
67
42
68
40
80
31
19
60
57
47
23
49
28
64
52
34
24
66
30
14
55
9
39
25
38
48
65
17
74
10
5
35
61
12
7
6
18
2

> <PUBCHEM_MMFF94_PARTIAL_CHARGES>
32
1 -0.68
11 0.28
15 0.3
19 0.06
2 -0.57
22 0.57
23 0.57
24 0.2
25 0.3
26 0.3
27 -0.14
28 0.28
29 0.28
3 -0.57
30 -0.15
31 -0.15
32 -0.15
33 -0.15
34 -0.15
35 0.28
36 0.28
4 -0.56
5 -0.56
57 0.37
58 0.4
6 -0.73
7 -0.66
72 0.15
73 0.15
74 0.15
75 0.15
76 0.15

> <PUBCHEM_EFFECTIVE_ROTOR_COUNT>
14.6

> <PUBCHEM_PHARMACOPHORE_FEATURES>
11
1 1 acceptor
1 1 donor
1 2 acceptor
1 21 hydrophobe
1 3 acceptor
1 4 acceptor
1 5 acceptor
1 6 donor
6 27 30 31 32 33 34 rings
6 8 9 10 14 15 17 rings
6 8 9 11 12 13 16 rings

> <PUBCHEM_HEAVY_ATOM_COUNT>
36

> <PUBCHEM_ATOM_DEF_STEREO_COUNT>
6

> <PUBCHEM_ATOM_UDEF_STEREO_COUNT>
1

> <PUBCHEM_BOND_DEF_STEREO_COUNT>
0

> <PUBCHEM_BOND_UDEF_STEREO_COUNT>
0

> <PUBCHEM_ISOTOPIC_ATOM_COUNT>
0

> <PUBCHEM_COMPONENT_COUNT>
1

> <PUBCHEM_CACTVS_TAUTO_COUNT>
2

> <PUBCHEM_CONFORMER_ID>
02BA9D2D00000001

> <PUBCHEM_MMFF94_ENERGY>
104.7838

> <PUBCHEM_FEATURE_SELFOVERLAP>
55.838

> <PUBCHEM_SHAPE_FINGERPRINT>
10190108 129 17240480256861788714
10625338 131 18340205177346551937
10693767 8 9367078739244977684
11456790 92 18408880711717563736
12778500 126 18334287670221506290
1361 4 8862677801477638872
14394314 77 18261390091553336580
15352257 5 7925915881114415113
15392192 104 16371022822393034842
16994733 274 17275094034013174527
19302320 297 18410575084705998160
19303781 99 8933348839030016456
20554085 129 17775276149559544051
21130935 74 18114462352813316771
21362857 166 10087650269072788504
21792934 111 18042120977907102783
23569943 247 8357170729554405333
23576562 1 13110376015348026929
24771293 8 18411135883128412765
3918712 181 18131631213953952304
4093350 32 17916869010848465175
5104073 3 18117278266716773498
563151 248 15068630409293621939

> <PUBCHEM_SHAPE_MULTIPOLES>
701.55
24.87
4.67
1.79
39.47
5.77
-0.27
18.94
-11.85
-5.57
-0.56
-2.8
-0.88
-1.58

> <PUBCHEM_SHAPE_SELFOVERLAP>
1434.8

> <PUBCHEM_SHAPE_VOLUME>
401.7

> <PUBCHEM_COORDINATE_TYPE>
2
5
10

$$$$
