40777895
  -OEChem-12032416183D

 57 59  0     1  0  0  0  0  0999 V2000
   -5.5540    3.1123    2.7637 Cl  0  0  0  0  0  0  0  0  0  0  0  0
   -3.3967   -0.1561   -2.1436 S   0  0  0  0  0  0  0  0  0  0  0  0
    0.5690   -1.7165   -0.4729 O   0  0  0  0  0  0  0  0  0  0  0  0
    0.9991   -3.3533    2.6949 O   0  0  0  0  0  0  0  0  0  0  0  0
    0.1559   -4.6037    0.3940 O   0  0  0  0  0  0  0  0  0  0  0  0
    4.7644    0.7642   -2.2014 O   0  0  0  0  0  0  0  0  0  0  0  0
    3.5247   -1.0731   -0.5016 O   0  0  0  0  0  0  0  0  0  0  0  0
   -4.2723   -1.2953   -2.3417 O   0  0  0  0  0  0  0  0  0  0  0  0
   -3.1774    0.7912   -3.2199 O   0  0  0  0  0  0  0  0  0  0  0  0
    3.7858    0.8614    0.7411 N   0  0  0  0  0  0  0  0  0  0  0  0
   -1.8884   -0.7224   -1.5323 N   0  0  0  0  0  0  0  0  0  0  0  0
    1.3245   -1.9653    0.7256 C   0  0  2  0  0  0  0  0  0  0  0  0
    0.3449   -2.5860    1.7071 C   0  0  1  0  0  0  0  0  0  0  0  0
   -0.5265   -3.4127    0.7843 C   0  0  1  0  0  0  0  0  0  0  0  0
   -0.6397   -2.5097   -0.4389 C   0  0  1  0  0  0  0  0  0  0  0  0
    5.0346    1.2966    0.1118 C   0  0  2  0  0  0  0  0  0  0  0  0
    1.9355   -0.6677    1.2236 C   0  0  0  0  0  0  0  0  0  0  0  0
    5.5704    2.3657    1.0674 C   0  0  0  0  0  0  0  0  0  0  0  0
    3.3812    1.7785    1.8037 C   0  0  0  0  0  0  0  0  0  0  0  0
    4.3050    2.9779    1.6569 C   0  0  0  0  0  0  0  0  0  0  0  0
    3.1531   -0.3239    0.4033 C   0  0  0  0  0  0  0  0  0  0  0  0
   -1.8223   -1.5535   -0.3667 C   0  0  0  0  0  0  0  0  0  0  0  0
    4.7899    1.8479   -1.2916 C   0  0  0  0  0  0  0  0  0  0  0  0
   -4.0041    0.7641   -0.7620 C   0  0  0  0  0  0  0  0  0  0  0  0
    4.5394    1.2017   -3.5370 C   0  0  0  0  0  0  0  0  0  0  0  0
   -3.7000    2.1199   -0.6389 C   0  0  0  0  0  0  0  0  0  0  0  0
   -4.7873    0.1344    0.2054 C   0  0  0  0  0  0  0  0  0  0  0  0
   -4.1794    2.8462    0.4512 C   0  0  0  0  0  0  0  0  0  0  0  0
   -5.2666    0.8606    1.2957 C   0  0  0  0  0  0  0  0  0  0  0  0
   -4.9626    2.2164    1.4187 C   0  0  0  0  0  0  0  0  0  0  0  0
    2.1049   -2.7001    0.4875 H   0  0  0  0  0  0  0  0  0  0  0  0
   -0.2538   -1.8100    2.1993 H   0  0  0  0  0  0  0  0  0  0  0  0
   -1.4811   -3.7037    1.2319 H   0  0  0  0  0  0  0  0  0  0  0  0
   -0.6763   -3.0847   -1.3716 H   0  0  0  0  0  0  0  0  0  0  0  0
    5.7189    0.4410    0.0616 H   0  0  0  0  0  0  0  0  0  0  0  0
    2.2503   -0.7722    2.2677 H   0  0  0  0  0  0  0  0  0  0  0  0
    1.2087    0.1474    1.1406 H   0  0  0  0  0  0  0  0  0  0  0  0
    6.2181    3.1062    0.5895 H   0  0  0  0  0  0  0  0  0  0  0  0
    6.1445    1.8862    1.8704 H   0  0  0  0  0  0  0  0  0  0  0  0
    3.5345    1.2721    2.7628 H   0  0  0  0  0  0  0  0  0  0  0  0
    2.3268    2.0505    1.7070 H   0  0  0  0  0  0  0  0  0  0  0  0
    4.4807    3.4915    2.6061 H   0  0  0  0  0  0  0  0  0  0  0  0
    3.8768    3.6998    0.9513 H   0  0  0  0  0  0  0  0  0  0  0  0
   -1.7273   -0.8995    0.5073 H   0  0  0  0  0  0  0  0  0  0  0  0
   -2.7407   -2.1392   -0.2574 H   0  0  0  0  0  0  0  0  0  0  0  0
    5.6106    2.5153   -1.5799 H   0  0  0  0  0  0  0  0  0  0  0  0
    3.8472    2.4061   -1.3442 H   0  0  0  0  0  0  0  0  0  0  0  0
    0.3129   -3.8099    3.2108 H   0  0  0  0  0  0  0  0  0  0  0  0
   -0.4236   -5.0815   -0.2238 H   0  0  0  0  0  0  0  0  0  0  0  0
   -1.0541   -0.1600   -1.7417 H   0  0  0  0  0  0  0  0  0  0  0  0
    4.5309    0.3239   -4.1887 H   0  0  0  0  0  0  0  0  0  0  0  0
    5.3419    1.8710   -3.8616 H   0  0  0  0  0  0  0  0  0  0  0  0
    3.5713    1.7055   -3.6165 H   0  0  0  0  0  0  0  0  0  0  0  0
   -3.0856    2.6281   -1.3766 H   0  0  0  0  0  0  0  0  0  0  0  0
   -5.0337   -0.9208    0.1316 H   0  0  0  0  0  0  0  0  0  0  0  0
   -3.9332    3.9016    0.5350 H   0  0  0  0  0  0  0  0  0  0  0  0
   -5.8750    0.3567    2.0424 H   0  0  0  0  0  0  0  0  0  0  0  0
  1 30  1  0  0  0  0
  2  8  2  0  0  0  0
  2  9  2  0  0  0  0
  2 11  1  0  0  0  0
  2 24  1  0  0  0  0
  3 12  1  0  0  0  0
  3 15  1  0  0  0  0
  4 13  1  0  0  0  0
  4 48  1  0  0  0  0
  5 14  1  0  0  0  0
  5 49  1  0  0  0  0
  6 23  1  0  0  0  0
  6 25  1  0  0  0  0
  7 21  2  0  0  0  0
 10 16  1  0  0  0  0
 10 19  1  0  0  0  0
 10 21  1  0  0  0  0
 11 22  1  0  0  0  0
 11 50  1  0  0  0  0
 12 13  1  0  0  0  0
 12 17  1  0  0  0  0
 12 31  1  0  0  0  0
 13 14  1  0  0  0  0
 13 32  1  0  0  0  0
 14 15  1  0  0  0  0
 14 33  1  0  0  0  0
 15 22  1  0  0  0  0
 15 34  1  0  0  0  0
 16 18  1  0  0  0  0
 16 23  1  0  0  0  0
 16 35  1  0  0  0  0
 17 21  1  0  0  0  0
 17 36  1  0  0  0  0
 17 37  1  0  0  0  0
 18 20  1  0  0  0  0
 18 38  1  0  0  0  0
 18 39  1  0  0  0  0
 19 20  1  0  0  0  0
 19 40  1  0  0  0  0
 19 41  1  0  0  0  0
 20 42  1  0  0  0  0
 20 43  1  0  0  0  0
 22 44  1  0  0  0  0
 22 45  1  0  0  0  0
 23 46  1  0  0  0  0
 23 47  1  0  0  0  0
 24 26  2  0  0  0  0
 24 27  1  0  0  0  0
 25 51  1  0  0  0  0
 25 52  1  0  0  0  0
 25 53  1  0  0  0  0
 26 28  1  0  0  0  0
 26 54  1  0  0  0  0
 27 29  2  0  0  0  0
 27 55  1  0  0  0  0
 28 30  2  0  0  0  0
 28 56  1  0  0  0  0
 29 30  1  0  0  0  0
 29 57  1  0  0  0  0
M  END
> <PUBCHEM_COMPOUND_CID>
40777895

> <PUBCHEM_CONFORMER_RMSD>
1.2

> <PUBCHEM_CONFORMER_DIVERSEORDER>
1
121
69
71
90
86
13
72
139
82
130
51
64
24
151
102
127
11
81
66
124
112
34
109
95
145
6
99
32
67
28
7
104
152
57
144
40
134
138
140
79
68
150
114
132
44
125
8
18
76
87
41
29
142
116
122
126
22
119
62
15
38
96
35
100
52
43
107
97
17
3
10
137
65
46
146
75
63
49
83
147
89
21
59
85
36
78
37
42
149
128
54
115
23
84
53
73
136
148
105
39
12
27
14
111
25
55
5
70
135
2
92
118
16
123
74
45
9
93
103
94
48
50
56
141
33
88
20
106
77
26
110
113
120
131
108
91
98
30
60
80
117
61
4
101
129
31
133
47
19
143
58

> <PUBCHEM_MMFF94_PARTIAL_CHARGES>
35
1 -0.18
10 -0.66
11 -0.91
12 0.28
13 0.28
14 0.28
15 0.28
16 0.3
17 0.06
19 0.3
2 1.45
21 0.57
22 0.36
23 0.28
24 -0.01
25 0.28
26 -0.15
27 -0.15
28 -0.15
29 -0.15
3 -0.56
30 0.18
4 -0.68
48 0.4
49 0.4
5 -0.68
50 0.42
54 0.15
55 0.15
56 0.15
57 0.15
6 -0.56
7 -0.57
8 -0.65
9 -0.65

> <PUBCHEM_EFFECTIVE_ROTOR_COUNT>
11

> <PUBCHEM_PHARMACOPHORE_FEATURES>
13
1 11 donor
1 3 acceptor
1 4 acceptor
1 4 donor
1 5 acceptor
1 5 donor
1 6 acceptor
1 7 acceptor
1 8 acceptor
1 9 acceptor
5 10 16 18 19 20 rings
5 3 12 13 14 15 rings
6 24 26 27 28 29 30 rings

> <PUBCHEM_HEAVY_ATOM_COUNT>
30

> <PUBCHEM_ATOM_DEF_STEREO_COUNT>
5

> <PUBCHEM_ATOM_UDEF_STEREO_COUNT>
0

> <PUBCHEM_BOND_DEF_STEREO_COUNT>
0

> <PUBCHEM_BOND_UDEF_STEREO_COUNT>
0

> <PUBCHEM_ISOTOPIC_ATOM_COUNT>
0

> <PUBCHEM_COMPONENT_COUNT>
1

> <PUBCHEM_CACTVS_TAUTO_COUNT>
1

> <PUBCHEM_CONFORMER_ID>
026E38A700000001

> <PUBCHEM_MMFF94_ENERGY>
62.6691

> <PUBCHEM_FEATURE_SELFOVERLAP>
66.01

> <PUBCHEM_SHAPE_FINGERPRINT>
11070050 100 17969236563324213250
11720765 8 16414643627738902636
12373685 5 12108082136227198023
12390115 104 18335422416985842810
12788726 201 17317888310698810130
13590594 115 17548692989627482418
13828863 39 18341901753868383145
14187579 7 17702933880947017089
14848178 5 10881406447710920409
14955137 171 17832412112747176682
15163728 17 18410583889552401094
15513586 35 16882180439491146877
15684389 69 17098082660767314315
16067690 210 17775566429229832249
16991981 162 17682985514540386604
21223535 225 18060136531589097264
21401589 2 18263353836410736762
21458453 9 17169856559225542585
21864079 5 18200295625324998083
22122407 14 17977939087007146217
23398203 216 18120378919377077393
23572383 38 8502364504002848873
2838139 119 18272927254489704074
312425 83 17131832114031254556
38570 142 18200607899227247777
46194498 28 14259345926282501307
469060 322 17530958142407953679
5252454 2 18334292063150129683
633830 44 18272363136036575007
6523845 18 17968105183403279686
7288768 16 18335138713295379755

> <PUBCHEM_SHAPE_MULTIPOLES>
572.06
14.23
4.7
3.05
0.26
2.52
2.02
-16.64
0.83
-0.67
-3.46
0.23
-0.47
-2.49

> <PUBCHEM_SHAPE_SELFOVERLAP>
1170.012

> <PUBCHEM_SHAPE_VOLUME>
332.4

> <PUBCHEM_COORDINATE_TYPE>
2
5
10

$$$$
