56775726
  -OEChem-12032416323D

 45 48  0     0  0  0  0  0  0999 V2000
    2.9156    3.5491    1.1081 O   0  0  0  0  0  0  0  0  0  0  0  0
   -2.5120    2.1201   -0.0058 O   0  0  0  0  0  0  0  0  0  0  0  0
   -4.5332   -3.5330   -0.2701 O   0  0  0  0  0  0  0  0  0  0  0  0
    2.1045    0.7274    0.3778 N   0  0  0  0  0  0  0  0  0  0  0  0
   -1.3328    2.7870   -0.3149 N   0  0  0  0  0  0  0  0  0  0  0  0
    1.8431    2.0996   -0.0341 C   0  0  0  0  0  0  0  0  0  0  0  0
    1.6044    2.9486    1.2093 C   0  0  0  0  0  0  0  0  0  0  0  0
    3.1697    2.8448   -0.1289 C   0  0  0  0  0  0  0  0  0  0  0  0
    0.8525    2.1947   -1.2022 C   0  0  0  0  0  0  0  0  0  0  0  0
   -0.5099    1.8398   -0.7736 C   0  0  0  0  0  0  0  0  0  0  0  0
    2.5823   -0.0489   -0.7640 C   0  0  0  0  0  0  0  0  0  0  0  0
    3.4113   -1.2292   -0.3321 C   0  0  0  0  0  0  0  0  0  0  0  0
   -1.1090    0.5683   -0.7770 C   0  0  0  0  0  0  0  0  0  0  0  0
   -2.3664    0.7996   -0.2852 C   0  0  0  0  0  0  0  0  0  0  0  0
    4.7912   -1.0937   -0.1792 C   0  0  0  0  0  0  0  0  0  0  0  0
    2.7994   -2.4581   -0.0849 C   0  0  0  0  0  0  0  0  0  0  0  0
   -3.5170   -0.0276   -0.0163 C   0  0  0  0  0  0  0  0  0  0  0  0
    5.5593   -2.1873    0.2210 C   0  0  0  0  0  0  0  0  0  0  0  0
    3.5675   -3.5517    0.3153 C   0  0  0  0  0  0  0  0  0  0  0  0
    4.9474   -3.4162    0.4684 C   0  0  0  0  0  0  0  0  0  0  0  0
   -3.4677   -1.3975   -0.2750 C   0  0  0  0  0  0  0  0  0  0  0  0
   -4.6802    0.5431    0.5007 C   0  0  0  0  0  0  0  0  0  0  0  0
   -4.5814   -2.1967   -0.0166 C   0  0  0  0  0  0  0  0  0  0  0  0
   -5.7939   -0.2561    0.7589 C   0  0  0  0  0  0  0  0  0  0  0  0
   -5.7445   -1.6260    0.5005 C   0  0  0  0  0  0  0  0  0  0  0  0
    1.4756    2.4251    2.1626 H   0  0  0  0  0  0  0  0  0  0  0  0
    0.8349    3.7228    1.1295 H   0  0  0  0  0  0  0  0  0  0  0  0
    3.2546    3.5503   -0.9625 H   0  0  0  0  0  0  0  0  0  0  0  0
    4.0983    2.2685   -0.0655 H   0  0  0  0  0  0  0  0  0  0  0  0
    1.1570    1.6050   -2.0733 H   0  0  0  0  0  0  0  0  0  0  0  0
    0.8421    3.2316   -1.5682 H   0  0  0  0  0  0  0  0  0  0  0  0
    1.3177    0.2491    0.8148 H   0  0  0  0  0  0  0  0  0  0  0  0
    3.1968    0.5447   -1.4542 H   0  0  0  0  0  0  0  0  0  0  0  0
    1.7405   -0.4195   -1.3614 H   0  0  0  0  0  0  0  0  0  0  0  0
   -0.6860   -0.3733   -1.0942 H   0  0  0  0  0  0  0  0  0  0  0  0
    5.2802   -0.1416   -0.3673 H   0  0  0  0  0  0  0  0  0  0  0  0
    1.7249   -2.5759   -0.1986 H   0  0  0  0  0  0  0  0  0  0  0  0
    6.6336   -2.0819    0.3404 H   0  0  0  0  0  0  0  0  0  0  0  0
    3.0912   -4.5085    0.5083 H   0  0  0  0  0  0  0  0  0  0  0  0
    5.5453   -4.2675    0.7802 H   0  0  0  0  0  0  0  0  0  0  0  0
   -2.5723   -1.8645   -0.6783 H   0  0  0  0  0  0  0  0  0  0  0  0
   -4.7570    1.6060    0.7149 H   0  0  0  0  0  0  0  0  0  0  0  0
   -6.6998    0.1879    1.1613 H   0  0  0  0  0  0  0  0  0  0  0  0
   -6.6190   -2.2375    0.7060 H   0  0  0  0  0  0  0  0  0  0  0  0
   -5.3892   -3.9296   -0.0333 H   0  0  0  0  0  0  0  0  0  0  0  0
  1  7  1  0  0  0  0
  1  8  1  0  0  0  0
  2  5  1  0  0  0  0
  2 14  1  0  0  0  0
  3 23  1  0  0  0  0
  3 45  1  0  0  0  0
  4  6  1  0  0  0  0
  4 11  1  0  0  0  0
  4 32  1  0  0  0  0
  5 10  2  0  0  0  0
  6  7  1  0  0  0  0
  6  8  1  0  0  0  0
  6  9  1  0  0  0  0
  7 26  1  0  0  0  0
  7 27  1  0  0  0  0
  8 28  1  0  0  0  0
  8 29  1  0  0  0  0
  9 10  1  0  0  0  0
  9 30  1  0  0  0  0
  9 31  1  0  0  0  0
 10 13  1  0  0  0  0
 11 12  1  0  0  0  0
 11 33  1  0  0  0  0
 11 34  1  0  0  0  0
 12 15  2  0  0  0  0
 12 16  1  0  0  0  0
 13 14  2  0  0  0  0
 13 35  1  0  0  0  0
 14 17  1  0  0  0  0
 15 18  1  0  0  0  0
 15 36  1  0  0  0  0
 16 19  2  0  0  0  0
 16 37  1  0  0  0  0
 17 21  2  0  0  0  0
 17 22  1  0  0  0  0
 18 20  2  0  0  0  0
 18 38  1  0  0  0  0
 19 20  1  0  0  0  0
 19 39  1  0  0  0  0
 20 40  1  0  0  0  0
 21 23  1  0  0  0  0
 21 41  1  0  0  0  0
 22 24  2  0  0  0  0
 22 42  1  0  0  0  0
 23 25  2  0  0  0  0
 24 25  1  0  0  0  0
 24 43  1  0  0  0  0
 25 44  1  0  0  0  0
M  END
> <PUBCHEM_COMPOUND_CID>
56775726

> <PUBCHEM_CONFORMER_RMSD>
0.8

> <PUBCHEM_CONFORMER_DIVERSEORDER>
1
34
248
202
104
205
210
230
138
81
73
31
99
203
213
232
98
151
183
167
115
228
196
82
97
41
87
178
22
124
226
231
122
91
77
234
209
185
187
154
242
53
166
118
169
72
207
79
235
147
84
177
110
182
11
238
215
24
105
225
157
89
194
60
174
212
193
227
190
198
106
184
75
197
204
70
10
63
90
144
62
123
171
153
214
40
134
26
250
172
253
114
102
249
160
159
47
76
101
121
141
25
240
86
58
179
181
119
18
229
16
241
94
245
148
96
163
236
66
139
254
52
152
133
211
244
247
19
150
67
208
243
217
155
223
239
36
189
44
46
137
164
56
74
201
95
55
188
37
126
109
145
103
175
13
168
186
93
233
59
116
113
108
142
224
143
28
131
51
80
200
251
220
100
15
120
195
180
117
32
218
125
222
71
170
130
191
161
252
83
246
127
221
206
158
173
9
61
219
45
88
85
33
149
146
69
43
14
237
78
6
107
17
20
192
129
136
165
12
7
176
54
48
65
140
156
39
64
162
27
4
29
3
112
216
21
199
38
42
35
23
50
2
132
5
49
92
128
57
135
111
68
30
8

> <PUBCHEM_MMFF94_PARTIAL_CHARGES>
37
1 -0.52
10 0.11
11 0.41
12 -0.14
13 -0.15
14 0.09
15 -0.15
16 -0.15
17 0.05
18 -0.15
19 -0.15
2 -0.02
20 -0.15
21 -0.15
22 -0.15
23 0.08
24 -0.15
25 -0.15
3 -0.53
32 0.36
35 0.15
36 0.15
37 0.15
38 0.15
39 0.15
4 -0.84
40 0.15
41 0.15
42 0.15
43 0.15
44 0.15
45 0.45
5 -0.41
6 0.21
7 0.26
8 0.26
9 0.18

> <PUBCHEM_EFFECTIVE_ROTOR_COUNT>
6.8

> <PUBCHEM_PHARMACOPHORE_FEATURES>
9
1 1 acceptor
1 3 donor
1 4 cation
1 4 donor
1 5 acceptor
4 1 6 7 8 rings
5 2 5 10 13 14 rings
6 12 15 16 18 19 20 rings
6 17 21 22 23 24 25 rings

> <PUBCHEM_HEAVY_ATOM_COUNT>
25

> <PUBCHEM_ATOM_DEF_STEREO_COUNT>
0

> <PUBCHEM_ATOM_UDEF_STEREO_COUNT>
0

> <PUBCHEM_BOND_DEF_STEREO_COUNT>
0

> <PUBCHEM_BOND_UDEF_STEREO_COUNT>
0

> <PUBCHEM_ISOTOPIC_ATOM_COUNT>
0

> <PUBCHEM_COMPONENT_COUNT>
1

> <PUBCHEM_CACTVS_TAUTO_COUNT>
3

> <PUBCHEM_CONFORMER_ID>
0362542E00000001

> <PUBCHEM_MMFF94_ENERGY>
61.2912

> <PUBCHEM_FEATURE_SELFOVERLAP>
45.672

> <PUBCHEM_SHAPE_FINGERPRINT>
10622 236 17172355495842552178
11070050 100 17557409175115347920
114674 6 18261390100291055634
12107183 9 18270131089405316473
12293681 25 18045188674919426269
12633257 1 18129958784042998601
12969540 37 18408317796419428700
12990986 174 18192708947706564350
13103583 49 18129675084020203169
13533116 47 18341053020990795691
13583140 156 18058442291808699085
13631057 29 18191309269953109630
13955234 65 18269555103814883304
14251751 18 18409730625447217587
14347424 109 18343026601503106593
14790565 3 17472424725416472805
14863182 85 18046066222879898596
14866123 147 18050288068658260409
14950920 106 18060144245481626049
14955137 171 17846787282634585340
15320467 1 17472983277434379819
15352361 1 18335984168674952702
15475509 84 18059584542244789345
15927050 60 17982450701063875966
16110190 28 18342175544489445438
17492 89 18337673126442083939
1813 80 17458624579536211909
19246450 95 17766576655274317857
19315092 285 17917146234012904131
20567600 70 18410571756680876034
20681677 274 18412824689901865997
20775530 9 18334288734629655126
21033648 29 15912483468081308352
23559900 14 18335976528334406029
3117164 225 18270971137642493289
316301 35 18409448093971686728
32027 91 18337660937055703727
329604 57 18261679164881237790
3421961 26 18410574002521432260
44880168 125 17345187805827062694
463206 1 18335427807222846066
5104073 3 18200890573127504107
5486654 36 18266183833412107265
613672 6 18055061065481879326
6371380 46 18051121498361838389
6442390 28 17836361923549288456
7970288 3 18335420145011739115

> <PUBCHEM_SHAPE_MULTIPOLES>
486.92
13.49
5.04
0.92
7.6
0.19
0.03
13.8
2.42
-4.58
0.75
-0.12
-0.46
0.11

> <PUBCHEM_SHAPE_SELFOVERLAP>
1062.189

> <PUBCHEM_SHAPE_VOLUME>
266

> <PUBCHEM_COORDINATE_TYPE>
2
5
10

$$$$
