51137080
  -OEChem-12032416313D

 43 47  0     1  0  0  0  0  0999 V2000
    3.6783   -1.8278    0.6440 S   0  0  0  0  0  0  0  0  0  0  0  0
   -0.9337    0.1724    0.0328 N   0  0  1  0  0  0  0  0  0  0  0  0
    3.2245    0.6236   -0.0169 N   0  0  0  0  0  0  0  0  0  0  0  0
   -5.0777    1.8327    0.3300 N   0  0  0  0  0  0  0  0  0  0  0  0
    1.1744   -0.6214    0.6849 C   0  0  2  0  0  0  0  0  0  0  0  0
    0.3031   -0.3527   -0.5495 C   0  0  0  0  0  0  0  0  0  0  0  0
    0.6268    0.3302    1.7628 C   0  0  0  0  0  0  0  0  0  0  0  0
   -0.4953    1.0986    1.0768 C   0  0  0  0  0  0  0  0  0  0  0  0
   -1.7842    0.8160   -0.9576 C   0  0  0  0  0  0  0  0  0  0  0  0
    2.6527   -0.4801    0.4048 C   0  0  0  0  0  0  0  0  0  0  0  0
   -3.2024    0.9570   -0.4720 C   0  0  0  0  0  0  0  0  0  0  0  0
   -4.1793   -0.0749   -0.3985 C   0  0  0  0  0  0  0  0  0  0  0  0
   -3.7844    2.1177   -0.0174 C   0  0  0  0  0  0  0  0  0  0  0  0
   -5.3465    0.5009    0.1078 C   0  0  0  0  0  0  0  0  0  0  0  0
    5.0273   -0.8775    0.1437 C   0  0  0  0  0  0  0  0  0  0  0  0
    4.5867    0.4115   -0.1713 C   0  0  0  0  0  0  0  0  0  0  0  0
   -4.1827   -1.4480   -0.7152 C   0  0  0  0  0  0  0  0  0  0  0  0
   -6.5215   -0.2305    0.3142 C   0  0  0  0  0  0  0  0  0  0  0  0
    6.3781   -1.2461    0.0376 C   0  0  0  0  0  0  0  0  0  0  0  0
    5.5337    1.3633   -0.6077 C   0  0  0  0  0  0  0  0  0  0  0  0
   -5.3510   -2.1922   -0.5139 C   0  0  0  0  0  0  0  0  0  0  0  0
   -6.5012   -1.5907   -0.0070 C   0  0  0  0  0  0  0  0  0  0  0  0
    7.2945   -0.2852   -0.3966 C   0  0  0  0  0  0  0  0  0  0  0  0
    6.8800    1.0032   -0.7157 C   0  0  0  0  0  0  0  0  0  0  0  0
    0.9652   -1.6454    1.0277 H   0  0  0  0  0  0  0  0  0  0  0  0
    0.1255   -1.2721   -1.1182 H   0  0  0  0  0  0  0  0  0  0  0  0
    0.7716    0.3801   -1.2200 H   0  0  0  0  0  0  0  0  0  0  0  0
    1.3836    1.0093    2.1695 H   0  0  0  0  0  0  0  0  0  0  0  0
    0.2254   -0.2575    2.5979 H   0  0  0  0  0  0  0  0  0  0  0  0
   -1.2934    1.3442    1.7844 H   0  0  0  0  0  0  0  0  0  0  0  0
   -0.0985    2.0321    0.6572 H   0  0  0  0  0  0  0  0  0  0  0  0
   -1.3860    1.7899   -1.2721 H   0  0  0  0  0  0  0  0  0  0  0  0
   -1.8213    0.2004   -1.8672 H   0  0  0  0  0  0  0  0  0  0  0  0
   -3.3958    3.1207    0.0914 H   0  0  0  0  0  0  0  0  0  0  0  0
   -5.7397    2.5023    0.6969 H   0  0  0  0  0  0  0  0  0  0  0  0
   -3.2946   -1.9325   -1.1109 H   0  0  0  0  0  0  0  0  0  0  0  0
   -7.4175    0.2368    0.7088 H   0  0  0  0  0  0  0  0  0  0  0  0
    6.7089   -2.2502    0.2850 H   0  0  0  0  0  0  0  0  0  0  0  0
    5.2207    2.3727   -0.8596 H   0  0  0  0  0  0  0  0  0  0  0  0
   -5.3594   -3.2516   -0.7563 H   0  0  0  0  0  0  0  0  0  0  0  0
   -7.3975   -2.1876    0.1414 H   0  0  0  0  0  0  0  0  0  0  0  0
    8.3449   -0.5498   -0.4857 H   0  0  0  0  0  0  0  0  0  0  0  0
    7.6071    1.7373   -1.0519 H   0  0  0  0  0  0  0  0  0  0  0  0
  1 10  1  0  0  0  0
  1 15  1  0  0  0  0
  2  6  1  0  0  0  0
  2  8  1  0  0  0  0
  2  9  1  0  0  0  0
  3 10  2  0  0  0  0
  3 16  1  0  0  0  0
  4 13  1  0  0  0  0
  4 14  1  0  0  0  0
  4 35  1  0  0  0  0
  5  6  1  0  0  0  0
  5  7  1  0  0  0  0
  5 10  1  0  0  0  0
  5 25  1  0  0  0  0
  6 26  1  0  0  0  0
  6 27  1  0  0  0  0
  7  8  1  0  0  0  0
  7 28  1  0  0  0  0
  7 29  1  0  0  0  0
  8 30  1  0  0  0  0
  8 31  1  0  0  0  0
  9 11  1  0  0  0  0
  9 32  1  0  0  0  0
  9 33  1  0  0  0  0
 11 12  1  0  0  0  0
 11 13  2  0  0  0  0
 12 14  1  0  0  0  0
 12 17  2  0  0  0  0
 13 34  1  0  0  0  0
 14 18  2  0  0  0  0
 15 16  1  0  0  0  0
 15 19  2  0  0  0  0
 16 20  2  0  0  0  0
 17 21  1  0  0  0  0
 17 36  1  0  0  0  0
 18 22  1  0  0  0  0
 18 37  1  0  0  0  0
 19 23  1  0  0  0  0
 19 38  1  0  0  0  0
 20 24  1  0  0  0  0
 20 39  1  0  0  0  0
 21 22  2  0  0  0  0
 21 40  1  0  0  0  0
 22 41  1  0  0  0  0
 23 24  2  0  0  0  0
 23 42  1  0  0  0  0
 24 43  1  0  0  0  0
M  END
> <PUBCHEM_COMPOUND_CID>
51137080

> <PUBCHEM_CONFORMER_RMSD>
0.8

> <PUBCHEM_CONFORMER_DIVERSEORDER>
1
28
64
90
52
80
59
32
30
57
14
82
88
2
87
38
60
83
37
58
74
40
48
84
21
36
43
11
68
8
49
73
20
25
91
5
86
70
75
46
76
9
56
41
85
62
6
69
55
19
67
81
65
44
45
72
89
15
10
18
35
4
12
79
34
39
61
13
71
23
27
31
66
3
29
54
63
26
16
7
50
42
53
24
77
78
47
51
22
17
33

> <PUBCHEM_MMFF94_PARTIAL_CHARGES>
32
1 -0.08
10 0.2
11 -0.18
13 -0.3
14 -0.15
15 0.04
16 0.23
17 -0.15
18 -0.15
19 -0.15
2 -0.81
20 -0.15
21 -0.15
22 -0.15
23 -0.15
24 -0.15
3 -0.57
34 0.15
35 0.27
36 0.15
37 0.15
38 0.15
39 0.15
4 0.03
40 0.15
41 0.15
42 0.15
43 0.15
5 0.18
6 0.27
8 0.27
9 0.45

> <PUBCHEM_EFFECTIVE_ROTOR_COUNT>
4

> <PUBCHEM_PHARMACOPHORE_FEATURES>
9
1 2 cation
1 3 acceptor
1 4 cation
1 4 donor
5 1 3 10 15 16 rings
5 2 5 6 7 8 rings
5 4 11 12 13 14 rings
6 12 14 17 18 21 22 rings
6 15 16 19 20 23 24 rings

> <PUBCHEM_HEAVY_ATOM_COUNT>
24

> <PUBCHEM_ATOM_DEF_STEREO_COUNT>
1

> <PUBCHEM_ATOM_UDEF_STEREO_COUNT>
0

> <PUBCHEM_BOND_DEF_STEREO_COUNT>
0

> <PUBCHEM_BOND_UDEF_STEREO_COUNT>
0

> <PUBCHEM_ISOTOPIC_ATOM_COUNT>
0

> <PUBCHEM_COMPONENT_COUNT>
1

> <PUBCHEM_CACTVS_TAUTO_COUNT>
1

> <PUBCHEM_CONFORMER_ID>
030C4A3800000001

> <PUBCHEM_MMFF94_ENERGY>
46.0099

> <PUBCHEM_FEATURE_SELFOVERLAP>
45.836

> <PUBCHEM_SHAPE_FINGERPRINT>
10299344 5 18412265042941669691
10462674 296 17476922827644635119
10595046 47 18334857190936670312
10968037 39 18186237342946305463
11089746 13 9871745793132929759
11315181 36 18407760340124850165
11524674 6 16343703257541940775
117089 54 17901391409752193691
12166972 35 18407762551722336532
12236239 1 18411700967954535356
12730499 353 17822295652678573010
12821665 9 18188496907269512796
13288520 33 18412824699229843623
13533116 47 16370997452885802920
1361 4 18408040710504604170
13631057 29 18411696621685411435
13668630 136 18131075905421933710
13673619 4 18060418058231522609
13690498 29 18341041995857239293
13914758 101 9583526420771709655
14123256 10 17821728346778870139
14251732 16 18335702758243635532
14528608 73 18261111872673279316
14849402 71 18262525913241646804
14856354 85 18059860580097902901
14933364 13 18413390929937204252
15003188 100 17895197740424235772
15142383 8 9583524200980629178
15183329 4 18408319982172829386
15352257 5 18059857268035247679
15461852 350 13262685854526368259
15537594 2 16486969575063904798
15716309 27 18407760330980995095
15799311 1 18340780277081886543
16114785 44 15214133044006237109
16993427 108 16229962976412415298
16993438 75 17896610663699596515
17844677 252 18342460343675865161
18335252 98 18343024406563743302
19377110 9 18040703758383338632
20567600 254 14851602185452934544
21150785 3 18333734637199656884
21236236 1 18410293614572413179
21267235 1 18337673114042387835
21623969 137 17132119030583758438
21792961 116 17632016351427610780
220451 1 18411982429508436554
22849341 161 15195284265465934563
22950370 63 18412822473909439169
2297311 6 18201720665577987793
2303208 19 17275381023390276610
23035841 295 18272089400727789307
23081809 10 18040432162105643536
23198884 109 18187085052903900915
23424782 7 18339360876495093938
23516275 137 18127996142682334891
23522609 53 18196961974304606081
23536379 177 18410292484821746096
23559900 14 18340476881430640001
23569943 247 17097480996010953506
3004659 81 18411417285602284282
3009799 131 14273450388397370063
314173 85 14908178646912667064
335352 9 18413100659964646133
34797466 226 18059583511731641092
4073 2 18113343028495882618
4258327 124 16879089597221793622
4325135 7 18334295374648867519
44317340 157 17703504498018279336
445580 167 18261110824522158460
497634 4 18408319961099062605
5207 217 16877942762779381467
5265222 85 18201719612709841134
53794403 172 17605565555587926852
7226269 152 8935009174369540039
7495541 125 18201996655174586424
8863177 126 17773869977429993379
9996256 80 18334574629480946380
999808 66 18187937213788071339

> <PUBCHEM_SHAPE_MULTIPOLES>
482.82
20.9
1.89
1
8.19
0.18
-0.22
3.05
3.38
-1.63
0.07
0.13
-0.07
-1.13

> <PUBCHEM_SHAPE_SELFOVERLAP>
1064.07

> <PUBCHEM_SHAPE_VOLUME>
262.9

> <PUBCHEM_COORDINATE_TYPE>
2
5
10

$$$$
