56775473
  -OEChem-12032416383D

 51 54  0     0  0  0  0  0  0999 V2000
   -8.0458    1.9781   -0.4172 F   0  0  0  0  0  0  0  0  0  0  0  0
    0.2329   -1.9283   -2.3735 O   0  0  0  0  0  0  0  0  0  0  0  0
   -3.0314   -1.5167    0.9921 O   0  0  0  0  0  0  0  0  0  0  0  0
    6.3108    2.9172   -0.6890 O   0  0  0  0  0  0  0  0  0  0  0  0
    2.5079   -1.9037   -0.3682 N   0  0  0  0  0  0  0  0  0  0  0  0
    5.3633    1.1101    0.4220 N   0  0  0  0  0  0  0  0  0  0  0  0
   -1.7195   -1.9383    1.1713 N   0  0  0  0  0  0  0  0  0  0  0  0
    1.0872   -1.5531   -0.4538 C   0  0  0  0  0  0  0  0  0  0  0  0
    3.2256   -0.8402    0.3302 C   0  0  0  0  0  0  0  0  0  0  0  0
    0.3426   -2.6878   -1.1482 C   0  0  0  0  0  0  0  0  0  0  0  0
    0.8488   -0.7806   -1.7461 C   0  0  0  0  0  0  0  0  0  0  0  0
    0.5425   -1.0072    0.8305 C   0  0  0  0  0  0  0  0  0  0  0  0
    3.1650    0.4587   -0.4839 C   0  0  0  0  0  0  0  0  0  0  0  0
    4.6831   -1.2564    0.5680 C   0  0  0  0  0  0  0  0  0  0  0  0
    3.9901    1.5585    0.1819 C   0  0  0  0  0  0  0  0  0  0  0  0
    5.4790   -0.1216    1.2126 C   0  0  0  0  0  0  0  0  0  0  0  0
   -0.9678   -0.9072    0.7753 C   0  0  0  0  0  0  0  0  0  0  0  0
    6.4336    1.8649   -0.0569 C   0  0  0  0  0  0  0  0  0  0  0  0
   -1.7425    0.1820    0.3403 C   0  0  0  0  0  0  0  0  0  0  0  0
   -3.0322   -0.2526    0.4968 C   0  0  0  0  0  0  0  0  0  0  0  0
    7.8159    1.3348    0.2293 C   0  0  0  0  0  0  0  0  0  0  0  0
   -4.3245    0.3222    0.2602 C   0  0  0  0  0  0  0  0  0  0  0  0
   -4.4296    1.6179   -0.2456 C   0  0  0  0  0  0  0  0  0  0  0  0
   -5.4763   -0.4142    0.5366 C   0  0  0  0  0  0  0  0  0  0  0  0
   -5.6866    2.1774   -0.4745 C   0  0  0  0  0  0  0  0  0  0  0  0
   -6.7334    0.1451    0.3077 C   0  0  0  0  0  0  0  0  0  0  0  0
   -6.8385    1.4409   -0.1978 C   0  0  0  0  0  0  0  0  0  0  0  0
    2.8357   -0.6715    1.3398 H   0  0  0  0  0  0  0  0  0  0  0  0
    2.9583   -2.1088   -1.2597 H   0  0  0  0  0  0  0  0  0  0  0  0
    0.9086   -3.6129   -1.3135 H   0  0  0  0  0  0  0  0  0  0  0  0
   -0.6482   -2.9832   -0.8012 H   0  0  0  0  0  0  0  0  0  0  0  0
    0.1463    0.0566   -1.7082 H   0  0  0  0  0  0  0  0  0  0  0  0
    1.7006   -0.4728   -2.3586 H   0  0  0  0  0  0  0  0  0  0  0  0
    0.8970    0.0028    1.0660 H   0  0  0  0  0  0  0  0  0  0  0  0
    0.8007   -1.6534    1.6809 H   0  0  0  0  0  0  0  0  0  0  0  0
    2.1581    0.8706   -0.5732 H   0  0  0  0  0  0  0  0  0  0  0  0
    3.5694    0.2948   -1.4913 H   0  0  0  0  0  0  0  0  0  0  0  0
    5.1564   -1.5241   -0.3863 H   0  0  0  0  0  0  0  0  0  0  0  0
    4.7268   -2.1447    1.2098 H   0  0  0  0  0  0  0  0  0  0  0  0
    3.5592    1.8280    1.1536 H   0  0  0  0  0  0  0  0  0  0  0  0
    3.9780    2.4582   -0.4417 H   0  0  0  0  0  0  0  0  0  0  0  0
    6.5176   -0.4336    1.3349 H   0  0  0  0  0  0  0  0  0  0  0  0
    5.0886    0.0988    2.2134 H   0  0  0  0  0  0  0  0  0  0  0  0
   -1.4038    1.1397   -0.0271 H   0  0  0  0  0  0  0  0  0  0  0  0
    7.9444    0.3490   -0.2257 H   0  0  0  0  0  0  0  0  0  0  0  0
    7.9865    1.2858    1.3080 H   0  0  0  0  0  0  0  0  0  0  0  0
    8.5611    2.0094   -0.2034 H   0  0  0  0  0  0  0  0  0  0  0  0
   -3.5506    2.2163   -0.4708 H   0  0  0  0  0  0  0  0  0  0  0  0
   -5.4358   -1.4263    0.9311 H   0  0  0  0  0  0  0  0  0  0  0  0
   -5.7693    3.1862   -0.8680 H   0  0  0  0  0  0  0  0  0  0  0  0
   -7.6309   -0.4274    0.5228 H   0  0  0  0  0  0  0  0  0  0  0  0
  1 27  1  0  0  0  0
  2 10  1  0  0  0  0
  2 11  1  0  0  0  0
  3  7  1  0  0  0  0
  3 20  1  0  0  0  0
  4 18  2  0  0  0  0
  5  8  1  0  0  0  0
  5  9  1  0  0  0  0
  5 29  1  0  0  0  0
  6 15  1  0  0  0  0
  6 16  1  0  0  0  0
  6 18  1  0  0  0  0
  7 17  2  0  0  0  0
  8 10  1  0  0  0  0
  8 11  1  0  0  0  0
  8 12  1  0  0  0  0
  9 13  1  0  0  0  0
  9 14  1  0  0  0  0
  9 28  1  0  0  0  0
 10 30  1  0  0  0  0
 10 31  1  0  0  0  0
 11 32  1  0  0  0  0
 11 33  1  0  0  0  0
 12 17  1  0  0  0  0
 12 34  1  0  0  0  0
 12 35  1  0  0  0  0
 13 15  1  0  0  0  0
 13 36  1  0  0  0  0
 13 37  1  0  0  0  0
 14 16  1  0  0  0  0
 14 38  1  0  0  0  0
 14 39  1  0  0  0  0
 15 40  1  0  0  0  0
 15 41  1  0  0  0  0
 16 42  1  0  0  0  0
 16 43  1  0  0  0  0
 17 19  1  0  0  0  0
 18 21  1  0  0  0  0
 19 20  2  0  0  0  0
 19 44  1  0  0  0  0
 20 22  1  0  0  0  0
 21 45  1  0  0  0  0
 21 46  1  0  0  0  0
 21 47  1  0  0  0  0
 22 23  2  0  0  0  0
 22 24  1  0  0  0  0
 23 25  1  0  0  0  0
 23 48  1  0  0  0  0
 24 26  2  0  0  0  0
 24 49  1  0  0  0  0
 25 27  2  0  0  0  0
 25 50  1  0  0  0  0
 26 27  1  0  0  0  0
 26 51  1  0  0  0  0
M  END
> <PUBCHEM_COMPOUND_CID>
56775473

> <PUBCHEM_CONFORMER_RMSD>
1

> <PUBCHEM_CONFORMER_DIVERSEORDER>
1
25
9
2
33
38
21
44
17
30
51
10
49
42
26
5
34
22
19
12
46
48
45
35
4
28
3
36
43
50
27
6
14
31
52
41
47
39
15
29
11
7
40
24
13
20
32
23
37
8
18
16

> <PUBCHEM_MMFF94_PARTIAL_CHARGES>
31
1 -0.19
10 0.26
11 0.26
12 0.18
15 0.3
16 0.3
17 0.11
18 0.57
19 -0.15
2 -0.52
20 0.09
21 0.06
22 0.05
23 -0.15
24 -0.15
25 -0.15
26 -0.15
27 0.19
29 0.36
3 -0.02
4 -0.57
44 0.15
48 0.15
49 0.15
5 -0.84
50 0.15
51 0.15
6 -0.66
7 -0.41
8 0.21
9 0.27

> <PUBCHEM_EFFECTIVE_ROTOR_COUNT>
8

> <PUBCHEM_PHARMACOPHORE_FEATURES>
9
1 2 acceptor
1 4 acceptor
1 5 cation
1 5 donor
1 7 acceptor
4 2 8 10 11 rings
5 3 7 17 19 20 rings
6 22 23 24 25 26 27 rings
6 6 9 13 14 15 16 rings

> <PUBCHEM_HEAVY_ATOM_COUNT>
27

> <PUBCHEM_ATOM_DEF_STEREO_COUNT>
0

> <PUBCHEM_ATOM_UDEF_STEREO_COUNT>
0

> <PUBCHEM_BOND_DEF_STEREO_COUNT>
0

> <PUBCHEM_BOND_UDEF_STEREO_COUNT>
0

> <PUBCHEM_ISOTOPIC_ATOM_COUNT>
0

> <PUBCHEM_COMPONENT_COUNT>
1

> <PUBCHEM_CACTVS_TAUTO_COUNT>
1

> <PUBCHEM_CONFORMER_ID>
0362533100000001

> <PUBCHEM_MMFF94_ENERGY>
64.1788

> <PUBCHEM_FEATURE_SELFOVERLAP>
45.672

> <PUBCHEM_SHAPE_FINGERPRINT>
10 15 18113340816909095177
10835480 77 18411418372313373649
10906281 52 18130520651706807819
11823591 26 17917708015814147110
11991303 11 17560797775035657262
12633257 1 16660926694376364364
12838862 33 18131056161436584488
13150687 139 17418383484577331022
13257819 101 18412823577378392047
13402501 40 18409165493988487737
13533116 47 17313661525818406050
13685833 64 8214145153142500960
13911987 19 17632863031579674011
13968360 50 17418090962591963150
14251764 18 17603586352456633072
14251764 30 9223228542118865701
14347424 109 18041271094263188794
14767858 380 16702020868202245499
14840074 17 17060336302090183029
14951699 99 17967540107641364036
15131766 46 18118121614332936988
15238133 3 17895203250830210396
15961568 22 18408042892505966765
16989713 51 17702093884750893767
17134984 74 12535632665900867764
17492 54 16988562402809665370
17980427 23 18113619036037098535
18335252 114 18131912646529095672
20105231 36 13758068633079330045
20157964 124 18342739572537602170
20642791 268 17241049928702700918
21033648 29 17895204293663400331
21298829 104 18342182141802234169
21344244 181 12535342419830604380
21521239 73 13686303478610429516
21859007 373 17024297536304075311
22122407 14 18115880753162703176
23559900 14 18195813968185266395
24771293 8 18334860494447704933
2838139 119 18340200890457149332
2916195 48 18261393321922397411
3103668 31 16771525533896405215
312425 54 16877660180128292586
3411729 13 18335137571029575754
345986 75 12757418466899091149
3472631 163 18334857203895535795
34797466 226 18130228143407519327
3627633 1 17548974911439619094
4073 2 17967256428861368058
4107672 100 12535363272556163819
4325135 7 18341890823223996479
504843 32 18130787918489663695
5104073 3 14852474136849565249
59682541 52 16702034050200786404
6327066 14 18271525394455077916

> <PUBCHEM_SHAPE_MULTIPOLES>
515.82
20.73
2.65
1.22
4.48
0.29
0.47
19.01
-1.58
-1.25
0.74
-0.3
-0.68
0.6

> <PUBCHEM_SHAPE_SELFOVERLAP>
1108.026

> <PUBCHEM_SHAPE_VOLUME>
286.3

> <PUBCHEM_COORDINATE_TYPE>
2
5
10

$$$$
