45783806
  -OEChem-12032416203D

 50 53  0     1  0  0  0  0  0999 V2000
   -1.4365   -1.0222    2.0250 O   0  0  0  0  0  0  0  0  0  0  0  0
   -2.2725    1.9769   -0.7793 O   0  0  0  0  0  0  0  0  0  0  0  0
    0.6121    2.4460   -1.4772 O   0  0  0  0  0  0  0  0  0  0  0  0
   -3.6225   -0.6287   -0.6981 N   0  0  1  0  0  0  0  0  0  0  0  0
   -0.6016   -1.1960   -0.0461 N   0  0  0  0  0  0  0  0  0  0  0  0
   -0.0628   -0.7728    2.1367 N   0  0  0  0  0  0  0  0  0  0  0  0
    4.0075   -0.2339    1.1595 N   0  0  0  0  0  0  0  0  0  0  0  0
    5.7238   -0.1981   -0.4923 N   0  0  0  0  0  0  0  0  0  0  0  0
   -3.1022   -1.5630    0.3202 C   0  0  1  0  0  0  0  0  0  0  0  0
   -3.2673   -2.9587   -0.3089 C   0  0  0  0  0  0  0  0  0  0  0  0
   -3.9429   -2.7130   -1.6505 C   0  0  0  0  0  0  0  0  0  0  0  0
   -4.6216   -1.3705   -1.4675 C   0  0  0  0  0  0  0  0  0  0  0  0
   -4.1682    0.5964   -0.1281 C   0  0  0  0  0  0  0  0  0  0  0  0
   -1.6696   -1.2624    0.7081 C   0  0  0  0  0  0  0  0  0  0  0  0
   -3.0850    1.5774    0.2340 C   0  0  0  0  0  0  0  0  0  0  0  0
   -2.7204    2.1840    1.4136 C   0  0  0  0  0  0  0  0  0  0  0  0
    0.3591   -0.8932    0.8744 C   0  0  0  0  0  0  0  0  0  0  0  0
   -1.3793    2.8483   -0.2407 C   0  0  0  0  0  0  0  0  0  0  0  0
   -1.6129    3.0094    1.1052 C   0  0  0  0  0  0  0  0  0  0  0  0
    1.7328   -0.7190    0.5000 C   0  0  0  0  0  0  0  0  0  0  0  0
   -0.3885    3.4181   -1.1648 C   0  0  0  0  0  0  0  0  0  0  0  0
    2.1374   -0.8532   -0.8236 C   0  0  0  0  0  0  0  0  0  0  0  0
    2.6980   -0.4113    1.4450 C   0  0  0  0  0  0  0  0  0  0  0  0
    3.4760   -0.6783   -1.1567 C   0  0  0  0  0  0  0  0  0  0  0  0
    4.3634   -0.3724   -0.1374 C   0  0  0  0  0  0  0  0  0  0  0  0
    6.7035    0.1300    0.5195 C   0  0  0  0  0  0  0  0  0  0  0  0
    6.1402   -0.3399   -1.8700 C   0  0  0  0  0  0  0  0  0  0  0  0
   -3.7247   -1.5377    1.2257 H   0  0  0  0  0  0  0  0  0  0  0  0
   -2.3256   -3.5023   -0.4410 H   0  0  0  0  0  0  0  0  0  0  0  0
   -3.9217   -3.5719    0.3229 H   0  0  0  0  0  0  0  0  0  0  0  0
   -4.6481   -3.5079   -1.9105 H   0  0  0  0  0  0  0  0  0  0  0  0
   -3.1868   -2.6547   -2.4433 H   0  0  0  0  0  0  0  0  0  0  0  0
   -5.5586   -1.4907   -0.9089 H   0  0  0  0  0  0  0  0  0  0  0  0
   -4.8383   -0.8952   -2.4292 H   0  0  0  0  0  0  0  0  0  0  0  0
   -4.8140    0.4000    0.7369 H   0  0  0  0  0  0  0  0  0  0  0  0
   -4.7966    1.1023   -0.8739 H   0  0  0  0  0  0  0  0  0  0  0  0
   -3.1915    2.0481    2.3765 H   0  0  0  0  0  0  0  0  0  0  0  0
   -1.0555    3.6410    1.7820 H   0  0  0  0  0  0  0  0  0  0  0  0
    0.1068    4.2865   -0.7191 H   0  0  0  0  0  0  0  0  0  0  0  0
   -0.8662    3.7329   -2.0981 H   0  0  0  0  0  0  0  0  0  0  0  0
    1.4313   -1.0924   -1.6148 H   0  0  0  0  0  0  0  0  0  0  0  0
    2.4650   -0.2889    2.4986 H   0  0  0  0  0  0  0  0  0  0  0  0
    3.7483   -0.7914   -2.1990 H   0  0  0  0  0  0  0  0  0  0  0  0
    1.2396    2.8710   -2.0866 H   0  0  0  0  0  0  0  0  0  0  0  0
    6.4567    1.0813    1.0036 H   0  0  0  0  0  0  0  0  0  0  0  0
    6.7477   -0.6528    1.2848 H   0  0  0  0  0  0  0  0  0  0  0  0
    7.7108    0.2310    0.1016 H   0  0  0  0  0  0  0  0  0  0  0  0
    5.9444   -1.3503   -2.2466 H   0  0  0  0  0  0  0  0  0  0  0  0
    5.6530    0.4004   -2.5146 H   0  0  0  0  0  0  0  0  0  0  0  0
    7.2185   -0.1777   -1.9808 H   0  0  0  0  0  0  0  0  0  0  0  0
  1  6  1  0  0  0  0
  1 14  1  0  0  0  0
  2 15  1  0  0  0  0
  2 18  1  0  0  0  0
  3 21  1  0  0  0  0
  3 44  1  0  0  0  0
  4  9  1  0  0  0  0
  4 12  1  0  0  0  0
  4 13  1  0  0  0  0
  5 14  2  0  0  0  0
  5 17  1  0  0  0  0
  6 17  2  0  0  0  0
  7 23  1  0  0  0  0
  7 25  2  0  0  0  0
  8 25  1  0  0  0  0
  8 26  1  0  0  0  0
  8 27  1  0  0  0  0
  9 10  1  0  0  0  0
  9 14  1  0  0  0  0
  9 28  1  0  0  0  0
 10 11  1  0  0  0  0
 10 29  1  0  0  0  0
 10 30  1  0  0  0  0
 11 12  1  0  0  0  0
 11 31  1  0  0  0  0
 11 32  1  0  0  0  0
 12 33  1  0  0  0  0
 12 34  1  0  0  0  0
 13 15  1  0  0  0  0
 13 35  1  0  0  0  0
 13 36  1  0  0  0  0
 15 16  2  0  0  0  0
 16 19  1  0  0  0  0
 16 37  1  0  0  0  0
 17 20  1  0  0  0  0
 18 19  2  0  0  0  0
 18 21  1  0  0  0  0
 19 38  1  0  0  0  0
 20 22  1  0  0  0  0
 20 23  2  0  0  0  0
 21 39  1  0  0  0  0
 21 40  1  0  0  0  0
 22 24  2  0  0  0  0
 22 41  1  0  0  0  0
 23 42  1  0  0  0  0
 24 25  1  0  0  0  0
 24 43  1  0  0  0  0
 26 45  1  0  0  0  0
 26 46  1  0  0  0  0
 26 47  1  0  0  0  0
 27 48  1  0  0  0  0
 27 49  1  0  0  0  0
 27 50  1  0  0  0  0
M  END
> <PUBCHEM_COMPOUND_CID>
45783806

> <PUBCHEM_CONFORMER_RMSD>
0.8

> <PUBCHEM_CONFORMER_DIVERSEORDER>
1
94
177
135
180
187
173
22
130
118
169
221
55
163
102
43
191
11
205
76
96
134
184
30
216
15
19
129
160
137
165
196
144
189
2
111
204
66
206
174
183
185
136
124
146
210
147
224
164
23
223
53
58
39
123
97
120
175
116
161
41
167
52
202
200
75
7
141
110
90
157
95
42
212
166
25
139
32
148
150
31
195
178
105
81
16
181
47
227
107
50
143
198
83
217
220
125
138
213
34
18
49
109
149
21
225
209
48
168
60
197
38
186
151
170
84
106
172
154
27
9
20
153
92
114
152
85
6
17
194
69
86
179
162
112
26
63
193
61
24
133
99
214
82
28
121
119
201
98
222
171
40
10
72
192
29
128
188
14
45
88
218
13
219
91
145
215
226
101
73
93
140
108
190
51
211
59
158
127
155
36
77
65
57
199
159
68
80
78
71
113
89
33
103
132
100
62
79
203
207
44
46
142
122
4
115
104
208
117
35
87
54
156
182
56
5
74
126
131
3
176
64
67
12
37
8
70

> <PUBCHEM_MMFF94_PARTIAL_CHARGES>
31
1 -0.02
12 0.27
13 0.45
14 0.3
15 -0.04
16 -0.15
17 0.46
18 -0.04
19 -0.15
2 -0.28
20 0.05
21 0.46
22 -0.15
23 0.16
24 -0.15
25 0.41
26 0.37
27 0.37
3 -0.68
37 0.15
38 0.15
4 -0.81
41 0.15
42 0.15
43 0.15
44 0.4
5 -0.57
6 -0.41
7 -0.62
8 -0.84
9 0.45

> <PUBCHEM_EFFECTIVE_ROTOR_COUNT>
7

> <PUBCHEM_PHARMACOPHORE_FEATURES>
10
1 2 acceptor
1 3 acceptor
1 3 donor
1 4 cation
3 5 6 17 cation
3 7 8 25 cation
5 1 5 6 14 17 rings
5 2 15 16 18 19 rings
5 4 9 10 11 12 rings
6 7 20 22 23 24 25 rings

> <PUBCHEM_HEAVY_ATOM_COUNT>
27

> <PUBCHEM_ATOM_DEF_STEREO_COUNT>
1

> <PUBCHEM_ATOM_UDEF_STEREO_COUNT>
0

> <PUBCHEM_BOND_DEF_STEREO_COUNT>
0

> <PUBCHEM_BOND_UDEF_STEREO_COUNT>
0

> <PUBCHEM_ISOTOPIC_ATOM_COUNT>
0

> <PUBCHEM_COMPONENT_COUNT>
1

> <PUBCHEM_CACTVS_TAUTO_COUNT>
1

> <PUBCHEM_CONFORMER_ID>
02BA9AFE00000001

> <PUBCHEM_MMFF94_ENERGY>
53.1239

> <PUBCHEM_FEATURE_SELFOVERLAP>
50.748

> <PUBCHEM_SHAPE_FINGERPRINT>
10087517 78 18334857217171042004
10369192 42 16912534627662369464
107951 10 16628004906891361465
10871710 139 18115025187081955069
10937287 8 17621602705187687625
11477941 20 18341612655140443876
11488393 25 17185034415093199067
11578080 2 17629790897291511652
12156800 1 15942819071370391357
12166972 35 17313387897493425254
12788726 201 18409720743107498819
13782708 43 17917439709682361942
13947920 75 18408880720112403150
13994607 96 17604447218574432393
14910302 57 18059008380881819902
15183329 4 18041567932581204790
15575132 122 18043815277970595877
15849732 13 18201729453508259307
15961568 22 18194952166429300440
17357779 13 18200015344111753853
17492 54 18115852033116918757
17686467 74 18267015249740588792
19438510 23 13841083864930150959
19958102 18 18271808948127810726
20642791 239 17968362525401631573
20775438 99 16972209637496811143
21033650 10 18265916678494372402
21344244 246 17834385005767962677
21623110 236 18335430109531122540
22393880 68 18059583425853738470
23402539 116 18408038528839844558
23557571 272 18273494580772323427
23559900 14 18059846290050898712
4280585 95 18337657719819113997
469060 322 18115613494564042657
484985 159 12391499872326830005
497634 4 17275114941697629082
5104073 3 8357968915546519326
531348 171 18270689641053971254
57527585 103 17244152835993365209
7471813 234 18265894850890273838

> <PUBCHEM_SHAPE_MULTIPOLES>
513.13
11.83
3.45
1.75
19.77
2.42
0.15
-4.37
-3.68
-5.24
-0.93
0.31
-0.06
-0.95

> <PUBCHEM_SHAPE_SELFOVERLAP>
1105.628

> <PUBCHEM_SHAPE_VOLUME>
285.9

> <PUBCHEM_COORDINATE_TYPE>
2
5
10

$$$$
