25388994
  -OEChem-12032416163D

 62 65  0     1  0  0  0  0  0999 V2000
   -0.6355    2.8502    0.5809 O   0  0  0  0  0  0  0  0  0  0  0  0
   -3.1125   -1.4768    1.3976 N   0  0  2  0  0  0  0  0  0  0  0  0
    1.0771   -2.8871   -0.9550 N   0  0  0  0  0  0  0  0  0  0  0  0
   -2.8652    2.2160    0.7403 N   0  0  0  0  0  0  0  0  0  0  0  0
    2.3462   -2.4494   -1.0191 N   0  0  0  0  0  0  0  0  0  0  0  0
   -2.3011    4.1916   -0.3192 N   0  0  0  0  0  0  0  0  0  0  0  0
   -2.2392   -1.8182   -1.0322 C   0  0  2  0  0  0  0  0  0  0  0  0
   -1.2221   -2.3861   -0.0039 C   0  0  2  0  0  0  0  0  0  0  0  0
   -3.1965   -0.1986    0.6430 C   0  0  2  0  0  0  0  0  0  0  0  0
   -2.4952   -0.3274   -0.7263 C   0  0  0  0  0  0  0  0  0  0  0  0
   -1.7118   -1.9677    1.4119 C   0  0  0  0  0  0  0  0  0  0  0  0
   -3.5707   -2.5641   -0.7998 C   0  0  0  0  0  0  0  0  0  0  0  0
   -3.9464   -2.4778    0.6899 C   0  0  0  0  0  0  0  0  0  0  0  0
    0.2555   -2.0884   -0.2151 C   0  0  0  0  0  0  0  0  0  0  0  0
   -2.6634    0.9890    1.4472 C   0  0  0  0  0  0  0  0  0  0  0  0
    1.0417   -1.0567    0.2364 C   0  0  0  0  0  0  0  0  0  0  0  0
    3.5864   -0.5157   -0.1110 C   0  0  0  0  0  0  0  0  0  0  0  0
    2.3184   -1.3309   -0.2895 C   0  0  0  0  0  0  0  0  0  0  0  0
    4.0187   -0.4462    1.3641 C   0  0  0  0  0  0  0  0  0  0  0  0
    3.4510    0.8942   -0.7122 C   0  0  0  0  0  0  0  0  0  0  0  0
    5.3007    0.3676    1.5325 C   0  0  0  0  0  0  0  0  0  0  0  0
    4.7355    1.7023   -0.5354 C   0  0  0  0  0  0  0  0  0  0  0  0
    0.7160   -4.1061   -1.6409 C   0  0  0  0  0  0  0  0  0  0  0  0
    5.1665    1.7618    0.9271 C   0  0  0  0  0  0  0  0  0  0  0  0
   -1.8246    3.0691    0.3533 C   0  0  0  0  0  0  0  0  0  0  0  0
   -1.4322    5.2283   -0.8246 C   0  0  0  0  0  0  0  0  0  0  0  0
   -0.7972    4.8273   -2.1400 C   0  0  0  0  0  0  0  0  0  0  0  0
   -1.8892   -1.9498   -2.0612 H   0  0  0  0  0  0  0  0  0  0  0  0
   -1.3165   -3.4820   -0.0409 H   0  0  0  0  0  0  0  0  0  0  0  0
   -4.2608    0.0115    0.4587 H   0  0  0  0  0  0  0  0  0  0  0  0
   -1.5443    0.2164   -0.7539 H   0  0  0  0  0  0  0  0  0  0  0  0
   -3.1346    0.1044   -1.5063 H   0  0  0  0  0  0  0  0  0  0  0  0
   -1.6539   -2.8413    2.0759 H   0  0  0  0  0  0  0  0  0  0  0  0
   -1.0659   -1.2263    1.8907 H   0  0  0  0  0  0  0  0  0  0  0  0
   -3.4784   -3.6142   -1.1003 H   0  0  0  0  0  0  0  0  0  0  0  0
   -4.3604   -2.1179   -1.4164 H   0  0  0  0  0  0  0  0  0  0  0  0
   -5.0079   -2.2205    0.7920 H   0  0  0  0  0  0  0  0  0  0  0  0
   -3.8352   -3.4595    1.1678 H   0  0  0  0  0  0  0  0  0  0  0  0
   -1.6028    0.8762    1.6904 H   0  0  0  0  0  0  0  0  0  0  0  0
   -3.2095    1.0761    2.3934 H   0  0  0  0  0  0  0  0  0  0  0  0
    0.7408   -0.2192    0.8488 H   0  0  0  0  0  0  0  0  0  0  0  0
    4.3887   -1.0292   -0.6618 H   0  0  0  0  0  0  0  0  0  0  0  0
   -3.8188    2.5071    0.5473 H   0  0  0  0  0  0  0  0  0  0  0  0
    3.2240    0.0060    1.9716 H   0  0  0  0  0  0  0  0  0  0  0  0
    4.1757   -1.4578    1.7584 H   0  0  0  0  0  0  0  0  0  0  0  0
    3.2082    0.8263   -1.7799 H   0  0  0  0  0  0  0  0  0  0  0  0
    2.6201    1.4317   -0.2367 H   0  0  0  0  0  0  0  0  0  0  0  0
    6.1338   -0.1606    1.0527 H   0  0  0  0  0  0  0  0  0  0  0  0
    5.5463    0.4505    2.5973 H   0  0  0  0  0  0  0  0  0  0  0  0
    4.5859    2.7186   -0.9170 H   0  0  0  0  0  0  0  0  0  0  0  0
    5.5360    1.2509   -1.1343 H   0  0  0  0  0  0  0  0  0  0  0  0
   -0.1738   -3.9210   -2.2470 H   0  0  0  0  0  0  0  0  0  0  0  0
    1.5394   -4.4152   -2.2906 H   0  0  0  0  0  0  0  0  0  0  0  0
    0.5249   -4.8778   -0.8914 H   0  0  0  0  0  0  0  0  0  0  0  0
    4.4306    2.3389    1.5006 H   0  0  0  0  0  0  0  0  0  0  0  0
    6.1219    2.2923    1.0083 H   0  0  0  0  0  0  0  0  0  0  0  0
   -3.3008    4.2812   -0.4719 H   0  0  0  0  0  0  0  0  0  0  0  0
   -2.0375    6.1310   -0.9531 H   0  0  0  0  0  0  0  0  0  0  0  0
   -0.6566    5.4346   -0.0796 H   0  0  0  0  0  0  0  0  0  0  0  0
   -0.1774    3.9317   -2.0273 H   0  0  0  0  0  0  0  0  0  0  0  0
   -1.5617    4.6093   -2.8932 H   0  0  0  0  0  0  0  0  0  0  0  0
   -0.1630    5.6345   -2.5192 H   0  0  0  0  0  0  0  0  0  0  0  0
  1 25  2  0  0  0  0
  2  9  1  0  0  0  0
  2 11  1  0  0  0  0
  2 13  1  0  0  0  0
  3  5  1  0  0  0  0
  3 14  1  0  0  0  0
  3 23  1  0  0  0  0
  4 15  1  0  0  0  0
  4 25  1  0  0  0  0
  4 43  1  0  0  0  0
  5 18  2  0  0  0  0
  6 25  1  0  0  0  0
  6 26  1  0  0  0  0
  6 57  1  0  0  0  0
  7  8  1  0  0  0  0
  7 10  1  0  0  0  0
  7 12  1  0  0  0  0
  7 28  1  0  0  0  0
  8 11  1  0  0  0  0
  8 14  1  0  0  0  0
  8 29  1  0  0  0  0
  9 10  1  0  0  0  0
  9 15  1  0  0  0  0
  9 30  1  0  0  0  0
 10 31  1  0  0  0  0
 10 32  1  0  0  0  0
 11 33  1  0  0  0  0
 11 34  1  0  0  0  0
 12 13  1  0  0  0  0
 12 35  1  0  0  0  0
 12 36  1  0  0  0  0
 13 37  1  0  0  0  0
 13 38  1  0  0  0  0
 14 16  2  0  0  0  0
 15 39  1  0  0  0  0
 15 40  1  0  0  0  0
 16 18  1  0  0  0  0
 16 41  1  0  0  0  0
 17 18  1  0  0  0  0
 17 19  1  0  0  0  0
 17 20  1  0  0  0  0
 17 42  1  0  0  0  0
 19 21  1  0  0  0  0
 19 44  1  0  0  0  0
 19 45  1  0  0  0  0
 20 22  1  0  0  0  0
 20 46  1  0  0  0  0
 20 47  1  0  0  0  0
 21 24  1  0  0  0  0
 21 48  1  0  0  0  0
 21 49  1  0  0  0  0
 22 24  1  0  0  0  0
 22 50  1  0  0  0  0
 22 51  1  0  0  0  0
 23 52  1  0  0  0  0
 23 53  1  0  0  0  0
 23 54  1  0  0  0  0
 24 55  1  0  0  0  0
 24 56  1  0  0  0  0
 26 27  1  0  0  0  0
 26 58  1  0  0  0  0
 26 59  1  0  0  0  0
 27 60  1  0  0  0  0
 27 61  1  0  0  0  0
 27 62  1  0  0  0  0
M  END
> <PUBCHEM_COMPOUND_CID>
25388994

> <PUBCHEM_CONFORMER_RMSD>
1

> <PUBCHEM_CONFORMER_DIVERSEORDER>
2
90
14
28
66
75
49
29
46
8
30
33
13
80
56
85
43
77
86
91
32
87
103
53
34
64
16
9
65
59
92
74
15
51
10
11
72
76
5
55
89
39
23
102
6
17
27
106
96
12
78
93
57
94
73
24
104
21
42
3
22
98
20
60
95
52
35
67
100
31
47
37
48
68
7
18
54
69
50
82
81
99
19
61
26
45
41
84
105
97
4
83
71
36
38
58
1
62
63
101
44
25
88
79
70
40

> <PUBCHEM_MMFF94_PARTIAL_CHARGES>
21
1 -0.57
11 0.27
13 0.27
14 -0.33
15 0.3
16 -0.15
17 0.18
18 0.11
2 -0.81
23 0.26
25 0.69
26 0.3
3 0.31
4 -0.73
41 0.15
43 0.37
5 -0.71
57 0.37
6 -0.73
8 0.18
9 0.27

> <PUBCHEM_EFFECTIVE_ROTOR_COUNT>
9.4

> <PUBCHEM_PHARMACOPHORE_FEATURES>
8
1 1 acceptor
1 2 cation
1 4 donor
1 5 acceptor
1 6 donor
5 3 5 14 16 18 rings
6 17 19 20 21 22 24 rings
8 2 7 8 9 10 11 12 13 rings

> <PUBCHEM_HEAVY_ATOM_COUNT>
27

> <PUBCHEM_ATOM_DEF_STEREO_COUNT>
3

> <PUBCHEM_ATOM_UDEF_STEREO_COUNT>
0

> <PUBCHEM_BOND_DEF_STEREO_COUNT>
0

> <PUBCHEM_BOND_UDEF_STEREO_COUNT>
0

> <PUBCHEM_ISOTOPIC_ATOM_COUNT>
0

> <PUBCHEM_COMPONENT_COUNT>
1

> <PUBCHEM_CACTVS_TAUTO_COUNT>
3

> <PUBCHEM_CONFORMER_ID>
018367C200000002

> <PUBCHEM_MMFF94_ENERGY>
38.0337

> <PUBCHEM_FEATURE_SELFOVERLAP>
40.644

> <PUBCHEM_SHAPE_FINGERPRINT>
10256941 240 17828450649730425116
10670039 82 18340218478970602044
10871710 139 18270688674458859031
11595378 159 18336535101805382354
12100795 323 18119250562880673860
12596602 18 17604703516722126482
12769317 202 16315845674331708173
13773456 30 17905593416200570892
13911987 19 18267014153532742983
13944108 23 15885191120238463828
14251764 38 18338791209408013338
15322535 138 18265609875705757092
15961568 22 18266748050723583812
16067690 210 18187077390941046232
17974551 9 16376939049885916891
20642791 178 17909283704083571827
21304303 64 18341041996131558967
22113638 7 17980481483563572564
23419403 2 17321280330214765267
238 59 17043722423459014393
25019877 29 17058664086100427550
3117164 225 17975118861066800954
437795 70 17617981296929460268
469060 322 18267602366805312347
474144 1 17680445625490396580
508706 21 18266459815468310204
6036956 94 18189898788864703365
6608658 132 18266742579040549148

> <PUBCHEM_SHAPE_MULTIPOLES>
524.87
9.06
6.6
1.58
11.38
9.89
-0.1
-0.61
3.33
-4.54
-3.89
0.04
0.15
0.34

> <PUBCHEM_SHAPE_SELFOVERLAP>
1092.433

> <PUBCHEM_SHAPE_VOLUME>
295.5

> <PUBCHEM_COORDINATE_TYPE>
2
5
10

$$$$
