11912556
  -OEChem-12032416413D

 62 63  0     1  0  0  0  0  0999 V2000
    1.2018   -2.2274    0.5666 O   0  0  0  0  0  0  0  0  0  0  0  0
   -5.4778   -1.5312   -0.8940 O   0  0  0  0  0  0  0  0  0  0  0  0
    7.1168    1.6428   -0.3882 O   0  0  0  0  0  0  0  0  0  0  0  0
    7.1627    0.0215    1.2569 O   0  0  0  0  0  0  0  0  0  0  0  0
   -3.7418   -0.8506    0.4843 N   0  0  0  0  0  0  0  0  0  0  0  0
    2.7577   -0.9001   -0.5353 N   0  0  0  0  0  0  0  0  0  0  0  0
   -5.7277    0.4172    0.2893 N   0  0  0  0  0  0  0  0  0  0  0  0
   -0.8624   -0.5542    0.4780 C   0  0  1  0  0  0  0  0  0  0  0  0
   -1.7885    0.6217    0.8867 C   0  0  2  0  0  0  0  0  0  0  0  0
   -1.5789   -1.5487   -0.4537 C   0  0  0  0  0  0  0  0  0  0  0  0
   -3.1107    0.0670    1.4441 C   0  0  0  0  0  0  0  0  0  0  0  0
    0.4571   -0.0922   -0.1395 C   0  0  0  0  0  0  0  0  0  0  0  0
   -2.9131   -2.0052    0.1349 C   0  0  0  0  0  0  0  0  0  0  0  0
   -2.0614    1.6229   -0.2418 C   0  0  0  0  0  0  0  0  0  0  0  0
    1.4991   -1.1733   -0.0011 C   0  0  0  0  0  0  0  0  0  0  0  0
    3.8114   -1.9151   -0.4750 C   0  0  0  0  0  0  0  0  0  0  0  0
    3.1406    0.3433   -1.2157 C   0  0  0  0  0  0  0  0  0  0  0  0
    5.5274   -0.0679   -0.5065 C   0  0  0  0  0  0  0  0  0  0  0  0
    5.0697   -1.3558    0.1836 C   0  0  0  0  0  0  0  0  0  0  0  0
    4.3858    0.9502   -0.5722 C   0  0  0  0  0  0  0  0  0  0  0  0
   -2.8909    2.7900    0.2510 C   0  0  0  0  0  0  0  0  0  0  0  0
   -5.0146   -0.7127   -0.0925 C   0  0  0  0  0  0  0  0  0  0  0  0
    6.6894    0.5107    0.2401 C   0  0  0  0  0  0  0  0  0  0  0  0
   -7.0485    0.7030   -0.2248 C   0  0  0  0  0  0  0  0  0  0  0  0
   -7.8808    1.4381    0.8184 C   0  0  0  0  0  0  0  0  0  0  0  0
   -6.9518    1.5031   -1.5173 C   0  0  0  0  0  0  0  0  0  0  0  0
    8.2296    2.3027    0.2237 C   0  0  0  0  0  0  0  0  0  0  0  0
   -0.6520   -1.0855    1.4180 H   0  0  0  0  0  0  0  0  0  0  0  0
   -1.2878    1.1648    1.7006 H   0  0  0  0  0  0  0  0  0  0  0  0
   -1.7618   -1.0769   -1.4275 H   0  0  0  0  0  0  0  0  0  0  0  0
   -0.9622   -2.4323   -0.6474 H   0  0  0  0  0  0  0  0  0  0  0  0
   -2.8949   -0.5333    2.3385 H   0  0  0  0  0  0  0  0  0  0  0  0
   -3.7692    0.8565    1.7990 H   0  0  0  0  0  0  0  0  0  0  0  0
    0.3255    0.1577   -1.1977 H   0  0  0  0  0  0  0  0  0  0  0  0
    0.8241    0.7899    0.3982 H   0  0  0  0  0  0  0  0  0  0  0  0
   -3.4254   -2.6572   -0.5793 H   0  0  0  0  0  0  0  0  0  0  0  0
   -2.7513   -2.5872    1.0499 H   0  0  0  0  0  0  0  0  0  0  0  0
   -1.1130    2.0223   -0.6183 H   0  0  0  0  0  0  0  0  0  0  0  0
   -2.5642    1.1506   -1.0926 H   0  0  0  0  0  0  0  0  0  0  0  0
    3.4705   -2.8001    0.0716 H   0  0  0  0  0  0  0  0  0  0  0  0
    4.0237   -2.2279   -1.5042 H   0  0  0  0  0  0  0  0  0  0  0  0
    3.3382    0.0901   -2.2642 H   0  0  0  0  0  0  0  0  0  0  0  0
    2.3373    1.0816   -1.2090 H   0  0  0  0  0  0  0  0  0  0  0  0
    5.8691   -0.3169   -1.5195 H   0  0  0  0  0  0  0  0  0  0  0  0
    5.8654   -2.1101    0.1541 H   0  0  0  0  0  0  0  0  0  0  0  0
    4.8557   -1.1610    1.2432 H   0  0  0  0  0  0  0  0  0  0  0  0
    4.1396    1.2975    0.4402 H   0  0  0  0  0  0  0  0  0  0  0  0
    4.6865    1.8364   -1.1435 H   0  0  0  0  0  0  0  0  0  0  0  0
   -3.9396    2.5352    0.3994 H   0  0  0  0  0  0  0  0  0  0  0  0
   -2.8729    3.5911   -0.4966 H   0  0  0  0  0  0  0  0  0  0  0  0
   -2.4936    3.2043    1.1831 H   0  0  0  0  0  0  0  0  0  0  0  0
   -5.3364    1.0999    0.9201 H   0  0  0  0  0  0  0  0  0  0  0  0
   -7.5466   -0.2485   -0.4467 H   0  0  0  0  0  0  0  0  0  0  0  0
   -8.8941    1.6272    0.4492 H   0  0  0  0  0  0  0  0  0  0  0  0
   -7.9594    0.8476    1.7379 H   0  0  0  0  0  0  0  0  0  0  0  0
   -7.4285    2.4006    1.0827 H   0  0  0  0  0  0  0  0  0  0  0  0
   -7.9465    1.7103   -1.9253 H   0  0  0  0  0  0  0  0  0  0  0  0
   -6.3832    0.9554   -2.2768 H   0  0  0  0  0  0  0  0  0  0  0  0
   -6.4433    2.4600   -1.3539 H   0  0  0  0  0  0  0  0  0  0  0  0
    7.9692    2.6229    1.2370 H   0  0  0  0  0  0  0  0  0  0  0  0
    9.1008    1.6410    0.2388 H   0  0  0  0  0  0  0  0  0  0  0  0
    8.4704    3.1867   -0.3727 H   0  0  0  0  0  0  0  0  0  0  0  0
  1 15  2  0  0  0  0
  2 22  2  0  0  0  0
  3 23  1  0  0  0  0
  3 27  1  0  0  0  0
  4 23  2  0  0  0  0
  5 11  1  0  0  0  0
  5 13  1  0  0  0  0
  5 22  1  0  0  0  0
  6 15  1  0  0  0  0
  6 16  1  0  0  0  0
  6 17  1  0  0  0  0
  7 22  1  0  0  0  0
  7 24  1  0  0  0  0
  7 52  1  0  0  0  0
  8  9  1  0  0  0  0
  8 10  1  0  0  0  0
  8 12  1  0  0  0  0
  8 28  1  0  0  0  0
  9 11  1  0  0  0  0
  9 14  1  0  0  0  0
  9 29  1  0  0  0  0
 10 13  1  0  0  0  0
 10 30  1  0  0  0  0
 10 31  1  0  0  0  0
 11 32  1  0  0  0  0
 11 33  1  0  0  0  0
 12 15  1  0  0  0  0
 12 34  1  0  0  0  0
 12 35  1  0  0  0  0
 13 36  1  0  0  0  0
 13 37  1  0  0  0  0
 14 21  1  0  0  0  0
 14 38  1  0  0  0  0
 14 39  1  0  0  0  0
 16 19  1  0  0  0  0
 16 40  1  0  0  0  0
 16 41  1  0  0  0  0
 17 20  1  0  0  0  0
 17 42  1  0  0  0  0
 17 43  1  0  0  0  0
 18 19  1  0  0  0  0
 18 20  1  0  0  0  0
 18 23  1  0  0  0  0
 18 44  1  0  0  0  0
 19 45  1  0  0  0  0
 19 46  1  0  0  0  0
 20 47  1  0  0  0  0
 20 48  1  0  0  0  0
 21 49  1  0  0  0  0
 21 50  1  0  0  0  0
 21 51  1  0  0  0  0
 24 25  1  0  0  0  0
 24 26  1  0  0  0  0
 24 53  1  0  0  0  0
 25 54  1  0  0  0  0
 25 55  1  0  0  0  0
 25 56  1  0  0  0  0
 26 57  1  0  0  0  0
 26 58  1  0  0  0  0
 26 59  1  0  0  0  0
 27 60  1  0  0  0  0
 27 61  1  0  0  0  0
 27 62  1  0  0  0  0
M  END
> <PUBCHEM_COMPOUND_CID>
11912556

> <PUBCHEM_CONFORMER_RMSD>
1.2

> <PUBCHEM_CONFORMER_DIVERSEORDER>
1
100
42
20
18
63
88
65
101
105
78
84
103
71
8
56
76
87
15
24
48
79
97
67
99
85
108
75
94
32
11
111
41
7
23
112
50
81
72
40
29
45
58
69
31
54
44
95
62
57
21
89
70
53
93
64
2
52
22
74
60
83
96
51
73
98
110
61
26
43
92
107
19
4
13
55
91
49
59
16
39
106
68
5
27
80
90
37
104
38
9
10
86
46
30
36
35
6
33
14
82
109
66
47
102
17
12
3
34
25
28
77

> <PUBCHEM_MMFF94_PARTIAL_CHARGES>
19
1 -0.57
11 0.3
12 0.06
13 0.3
15 0.57
16 0.3
17 0.3
18 0.06
2 -0.57
22 0.69
23 0.66
24 0.3
27 0.28
3 -0.43
4 -0.57
5 -0.66
52 0.37
6 -0.66
7 -0.73

> <PUBCHEM_EFFECTIVE_ROTOR_COUNT>
11.4

> <PUBCHEM_PHARMACOPHORE_FEATURES>
8
1 1 acceptor
1 2 acceptor
1 21 hydrophobe
1 4 acceptor
1 7 donor
3 24 25 26 hydrophobe
6 5 8 9 10 11 13 rings
6 6 16 17 18 19 20 rings

> <PUBCHEM_HEAVY_ATOM_COUNT>
27

> <PUBCHEM_ATOM_DEF_STEREO_COUNT>
2

> <PUBCHEM_ATOM_UDEF_STEREO_COUNT>
0

> <PUBCHEM_BOND_DEF_STEREO_COUNT>
0

> <PUBCHEM_BOND_UDEF_STEREO_COUNT>
0

> <PUBCHEM_ISOTOPIC_ATOM_COUNT>
0

> <PUBCHEM_COMPONENT_COUNT>
1

> <PUBCHEM_CACTVS_TAUTO_COUNT>
2

> <PUBCHEM_CONFORMER_ID>
00B5C56C00000001

> <PUBCHEM_MMFF94_ENERGY>
49.0606

> <PUBCHEM_FEATURE_SELFOVERLAP>
40.596

> <PUBCHEM_SHAPE_FINGERPRINT>
10 15 18187086165748888296
10299344 5 9727638310634324952
10835480 77 18411138047506683375
11315181 36 17704078417101487587
12236239 1 18411981360062034414
12592606 108 8718536208364814529
12788726 201 18267862779879380329
12838862 33 18337377301494412213
13668630 136 11167943554259286182
13685833 64 9079117756737805710
13914758 101 17385721361670694181
14420673 8 9223235148005680160
14444916 359 9439409055264343029
15183329 4 18272371958273616057
15537594 2 12247682639027274828
15849732 13 12967123905013368633
20105231 36 11383829394019699213
20157964 124 18410295779288742854
20511986 3 18410284822315727694
21150785 3 15554445197629798569
21298829 104 18409452483333675116
23035841 295 9655584002473205852
23559900 14 18059849593576925745
23576562 1 16414619601301790137
300161 21 18412546513528720902
3009799 131 18334013874282245501
328311 84 8790886289448187896
33532 11 9223236239064451864
3383291 50 8430311325376229509
34797466 226 17846224323975093884
350125 39 18413107264268761824
4073 2 18261680349844312602
4093350 32 17095514055402122322
4325135 7 18202283597939836428
444769 64 10737284662939955033
465052 167 8070032164622852226
5104073 3 18189342281951933178
5385378 56 15791724170638177282
54039377 194 8718836396903975648
59755656 520 16443066123328220315
6371009 1 18334861636386727044

> <PUBCHEM_SHAPE_MULTIPOLES>
517.23
23.43
2.37
1.05
9.66
0.42
-0.02
12.96
-0.2
0.32
-0.05
-0.62
0.14
0.07

> <PUBCHEM_SHAPE_SELFOVERLAP>
1037.737

> <PUBCHEM_SHAPE_VOLUME>
301.9

> <PUBCHEM_COORDINATE_TYPE>
2
5
10

$$$$
