75536065
  -OEChem-12032416293D

 39 41  0     1  0  0  0  0  0999 V2000
    1.0141    3.4864   -0.9384 O   0  0  0  0  0  0  0  0  0  0  0  0
    3.4778    2.2753   -0.8838 O   0  0  0  0  0  0  0  0  0  0  0  0
   -0.8562   -0.7140   -1.3183 O   0  0  0  0  0  0  0  0  0  0  0  0
   -4.6013    0.6198    0.7949 O   0  0  0  0  0  0  0  0  0  0  0  0
   -0.5424    1.0392    0.1675 N   0  0  0  0  0  0  0  0  0  0  0  0
    1.9053   -3.3827    0.8127 N   0  0  0  0  0  0  0  0  0  0  0  0
   -3.2460    0.9184    0.7242 N   0  0  0  0  0  0  0  0  0  0  0  0
    1.7224    0.4043    0.9438 C   0  0  2  0  0  0  0  0  0  0  0  0
    0.8699    1.2079   -0.0640 C   0  0  2  0  0  0  0  0  0  0  0  0
    1.3169    2.6512    0.1631 C   0  0  1  0  0  0  0  0  0  0  0  0
    2.9662    1.2818    1.2391 C   0  0  0  0  0  0  0  0  0  0  0  0
    2.8228    2.5205    0.3570 C   0  0  1  0  0  0  0  0  0  0  0  0
    2.0458   -0.9946    0.4631 C   0  0  0  0  0  0  0  0  0  0  0  0
    2.7518   -1.2015   -0.7168 C   0  0  0  0  0  0  0  0  0  0  0  0
    1.6486   -2.1086    1.1849 C   0  0  0  0  0  0  0  0  0  0  0  0
   -1.2981    0.0774   -0.4895 C   0  0  0  0  0  0  0  0  0  0  0  0
    3.0351   -2.4977   -1.1328 C   0  0  0  0  0  0  0  0  0  0  0  0
   -2.7463    0.0494   -0.1592 C   0  0  0  0  0  0  0  0  0  0  0  0
    2.5937   -3.5444   -0.3395 C   0  0  0  0  0  0  0  0  0  0  0  0
   -3.7293   -0.8134   -0.6737 C   0  0  0  0  0  0  0  0  0  0  0  0
   -4.8769   -0.4131   -0.0420 C   0  0  0  0  0  0  0  0  0  0  0  0
   -6.2739   -0.8617   -0.0924 C   0  0  0  0  0  0  0  0  0  0  0  0
    1.1661    0.3163    1.8888 H   0  0  0  0  0  0  0  0  0  0  0  0
    1.0715    0.9240   -1.1044 H   0  0  0  0  0  0  0  0  0  0  0  0
    0.8473    3.0703    1.0621 H   0  0  0  0  0  0  0  0  0  0  0  0
    2.9323    1.5848    2.2932 H   0  0  0  0  0  0  0  0  0  0  0  0
    3.9126    0.7556    1.0759 H   0  0  0  0  0  0  0  0  0  0  0  0
    3.2645    3.4180    0.8000 H   0  0  0  0  0  0  0  0  0  0  0  0
   -0.9922    1.6253    0.8653 H   0  0  0  0  0  0  0  0  0  0  0  0
    1.4095    4.3570   -0.7620 H   0  0  0  0  0  0  0  0  0  0  0  0
    4.4252    2.1616   -0.6965 H   0  0  0  0  0  0  0  0  0  0  0  0
    3.0930   -0.3695   -1.3246 H   0  0  0  0  0  0  0  0  0  0  0  0
    1.0939   -2.0147    2.1133 H   0  0  0  0  0  0  0  0  0  0  0  0
    3.5846   -2.6829   -2.0486 H   0  0  0  0  0  0  0  0  0  0  0  0
    2.7892   -4.5742   -0.6197 H   0  0  0  0  0  0  0  0  0  0  0  0
   -3.6238   -1.6093   -1.3963 H   0  0  0  0  0  0  0  0  0  0  0  0
   -6.6062   -1.1970    0.8949 H   0  0  0  0  0  0  0  0  0  0  0  0
   -6.9283   -0.0470   -0.4175 H   0  0  0  0  0  0  0  0  0  0  0  0
   -6.3965   -1.6944   -0.7919 H   0  0  0  0  0  0  0  0  0  0  0  0
  1 10  1  0  0  0  0
  1 30  1  0  0  0  0
  2 12  1  0  0  0  0
  2 31  1  0  0  0  0
  3 16  2  0  0  0  0
  4  7  1  0  0  0  0
  4 21  1  0  0  0  0
  5  9  1  0  0  0  0
  5 16  1  0  0  0  0
  5 29  1  0  0  0  0
  6 15  1  0  0  0  0
  6 19  2  0  0  0  0
  7 18  2  0  0  0  0
  8  9  1  0  0  0  0
  8 11  1  0  0  0  0
  8 13  1  0  0  0  0
  8 23  1  0  0  0  0
  9 10  1  0  0  0  0
  9 24  1  0  0  0  0
 10 12  1  0  0  0  0
 10 25  1  0  0  0  0
 11 12  1  0  0  0  0
 11 26  1  0  0  0  0
 11 27  1  0  0  0  0
 12 28  1  0  0  0  0
 13 14  1  0  0  0  0
 13 15  2  0  0  0  0
 14 17  2  0  0  0  0
 14 32  1  0  0  0  0
 15 33  1  0  0  0  0
 16 18  1  0  0  0  0
 17 19  1  0  0  0  0
 17 34  1  0  0  0  0
 18 20  1  0  0  0  0
 19 35  1  0  0  0  0
 20 21  2  0  0  0  0
 20 36  1  0  0  0  0
 21 22  1  0  0  0  0
 22 37  1  0  0  0  0
 22 38  1  0  0  0  0
 22 39  1  0  0  0  0
M  END
> <PUBCHEM_COMPOUND_CID>
75536065

> <PUBCHEM_CONFORMER_RMSD>
0.8

> <PUBCHEM_CONFORMER_DIVERSEORDER>
1
13
30
15
29
3
28
14
6
31
32
20
26
21
24
2
27
4
18
16
7
19
22
12
10
25
11
23
9
5
17
8

> <PUBCHEM_MMFF94_PARTIAL_CHARGES>
29
1 -0.68
10 0.28
12 0.28
13 -0.14
14 -0.15
15 0.16
16 0.72
17 -0.15
18 0.2
19 0.16
2 -0.68
20 -0.15
21 -0.04
22 0.18
29 0.37
3 -0.57
30 0.4
31 0.4
32 0.15
33 0.15
34 0.15
35 0.15
36 0.15
4 -0.02
5 -0.73
6 -0.62
7 -0.41
8 0.14
9 0.3

> <PUBCHEM_EFFECTIVE_ROTOR_COUNT>
5

> <PUBCHEM_PHARMACOPHORE_FEATURES>
11
1 1 acceptor
1 1 donor
1 2 acceptor
1 2 donor
1 3 acceptor
1 5 donor
1 6 acceptor
1 7 acceptor
5 4 7 18 20 21 rings
5 8 9 10 11 12 rings
6 6 13 14 15 17 19 rings

> <PUBCHEM_HEAVY_ATOM_COUNT>
22

> <PUBCHEM_ATOM_DEF_STEREO_COUNT>
4

> <PUBCHEM_ATOM_UDEF_STEREO_COUNT>
0

> <PUBCHEM_BOND_DEF_STEREO_COUNT>
0

> <PUBCHEM_BOND_UDEF_STEREO_COUNT>
0

> <PUBCHEM_ISOTOPIC_ATOM_COUNT>
0

> <PUBCHEM_COMPONENT_COUNT>
1

> <PUBCHEM_CACTVS_TAUTO_COUNT>
2

> <PUBCHEM_CONFORMER_ID>
048096C100000001

> <PUBCHEM_MMFF94_ENERGY>
48.324

> <PUBCHEM_FEATURE_SELFOVERLAP>
55.834

> <PUBCHEM_SHAPE_FINGERPRINT>
10382601 240 18341315748287689898
11140007 195 16629686111124015774
114674 6 18260827085887089035
11578080 2 17823691975899384164
12107183 9 17983303617133913369
12553582 1 18195520394222106590
12788726 201 17470176855681986090
13009979 54 17631180679598747451
13140716 1 18051681432741237800
13533116 47 18343020008870530219
13836976 161 18189615123612192908
13955234 65 18342458179064621643
14178342 30 17984680462619688818
14844126 61 16965184307570945338
14863182 85 18410570725846448848
17492 54 18189357765651738070
17492 89 18341612599490283339
17818456 19 17773322227814252201
1813 80 18127417747883221790
20157964 124 18336817685326675637
20291156 8 18196935474387388419
20645477 70 18409725171271300823
21054139 6 17983843768794278823
21197605 99 17975698612837780147
21421861 104 18411417276231563376
2255824 54 18410575102006608342
23557571 272 15864332628485995125
23559900 14 18341043035128762883
23598291 2 18200044944973896553
239999 70 18410012156369636699
2748010 2 17764843837711907152
3060560 45 18264208178905931116
31174 14 18337101289736986951
312423 11 18201166472962481049
33824 294 18409162246644552331
3421961 26 18340483374471534747
4409770 3 17183063540183301533
474 4 18264485259851321521
5104073 3 18131077017997831347
6025842 7 18337669819063733789
7097593 13 18343294869138441647
7364860 26 18342175583238635220
81228 2 17403714672270554632
8272917 22 18409729603540393725
9709674 26 18335702775914518123

> <PUBCHEM_SHAPE_MULTIPOLES>
414.33
9.28
3.92
1.11
18.87
0.64
0.01
2.13
0.14
-6.07
-0.38
-0.58
0.14
-0.14

> <PUBCHEM_SHAPE_SELFOVERLAP>
888.926

> <PUBCHEM_SHAPE_VOLUME>
229.3

> <PUBCHEM_COORDINATE_TYPE>
2
5
10

$$$$
