11867067
  -OEChem-12032416123D

 67 70  0     1  0  0  0  0  0999 V2000
   -0.7149    3.5125    0.0946 S   0  0  0  0  0  0  0  0  0  0  0  0
   -6.6790   -1.5219   -0.7485 O   0  0  0  0  0  0  0  0  0  0  0  0
   -7.1109    0.3543    0.6791 O   0  0  0  0  0  0  0  0  0  0  0  0
    1.3678   -1.2179   -1.1975 O   0  0  0  0  0  0  0  0  0  0  0  0
    3.6333    1.8292   -0.0201 O   0  0  0  0  0  0  0  0  0  0  0  0
    5.5469    3.6963   -0.0139 O   0  0  0  0  0  0  0  0  0  0  0  0
    0.7025    1.3498    0.0146 N   0  0  0  0  0  0  0  0  0  0  0  0
    2.0650   -2.4571    0.6723 N   0  0  0  0  0  0  0  0  0  0  0  0
    1.9059    3.4379    0.0527 N   0  0  0  0  0  0  0  0  0  0  0  0
   -2.5678   -0.6536    0.4145 C   0  0  2  0  0  0  0  0  0  0  0  0
   -3.4278    0.4468   -0.3504 C   0  0  1  0  0  0  0  0  0  0  0  0
   -4.9881    0.2228   -0.4087 C   0  0  1  0  0  0  0  0  0  0  0  0
   -1.0401   -0.4739   -0.0184 C   0  0  1  0  0  0  0  0  0  0  0  0
   -3.0357   -2.0670   -0.0194 C   0  0  0  0  0  0  0  0  0  0  0  0
   -5.2792   -1.2505   -0.8120 C   0  0  1  0  0  0  0  0  0  0  0  0
   -3.0166    1.8867    0.0748 C   0  0  0  0  0  0  0  0  0  0  0  0
   -4.5428   -2.2672    0.0533 C   0  0  0  0  0  0  0  0  0  0  0  0
   -2.6829   -0.5430    1.9548 C   0  0  0  0  0  0  0  0  0  0  0  0
   -0.6282    0.9749    0.0360 C   0  0  0  0  0  0  0  0  0  0  0  0
   -5.7380    0.5971    0.8888 C   0  0  0  0  0  0  0  0  0  0  0  0
   -5.5899    1.1330   -1.5166 C   0  0  0  0  0  0  0  0  0  0  0  0
   -1.5311    2.0183    0.0588 C   0  0  0  0  0  0  0  0  0  0  0  0
   -0.0520   -1.3678    0.7429 C   0  0  0  0  0  0  0  0  0  0  0  0
    1.1979   -1.6548   -0.0640 C   0  0  0  0  0  0  0  0  0  0  0  0
    0.7768    2.6626    0.0497 C   0  0  0  0  0  0  0  0  0  0  0  0
    3.3332   -2.9455    0.2775 C   0  0  0  0  0  0  0  0  0  0  0  0
    3.2388    2.9898    0.0184 C   0  0  0  0  0  0  0  0  0  0  0  0
    4.0748   -3.7442    1.1481 C   0  0  0  0  0  0  0  0  0  0  0  0
    3.8416   -2.6290   -0.9824 C   0  0  0  0  0  0  0  0  0  0  0  0
    4.2124    4.1545    0.0339 C   0  0  0  0  0  0  0  0  0  0  0  0
    5.3246   -4.2262    0.7592 C   0  0  0  0  0  0  0  0  0  0  0  0
    5.0913   -3.1111   -1.3714 C   0  0  0  0  0  0  0  0  0  0  0  0
    5.8329   -3.9096   -0.5006 C   0  0  0  0  0  0  0  0  0  0  0  0
    6.4792    4.7735   -0.0003 C   0  0  0  0  0  0  0  0  0  0  0  0
   -3.1051    0.3508   -1.4018 H   0  0  0  0  0  0  0  0  0  0  0  0
   -1.0013   -0.7414   -1.0851 H   0  0  0  0  0  0  0  0  0  0  0  0
   -2.7157   -2.2590   -1.0522 H   0  0  0  0  0  0  0  0  0  0  0  0
   -2.5619   -2.8405    0.5955 H   0  0  0  0  0  0  0  0  0  0  0  0
   -4.9770   -1.3999   -1.8571 H   0  0  0  0  0  0  0  0  0  0  0  0
   -3.4502    2.6207   -0.6127 H   0  0  0  0  0  0  0  0  0  0  0  0
   -3.3848    2.1184    1.0797 H   0  0  0  0  0  0  0  0  0  0  0  0
   -4.7873   -3.2801   -0.2918 H   0  0  0  0  0  0  0  0  0  0  0  0
   -4.9007   -2.2278    1.0880 H   0  0  0  0  0  0  0  0  0  0  0  0
   -2.3639    0.4330    2.3310 H   0  0  0  0  0  0  0  0  0  0  0  0
   -3.6912   -0.7251    2.3204 H   0  0  0  0  0  0  0  0  0  0  0  0
   -2.0590   -1.2931    2.4535 H   0  0  0  0  0  0  0  0  0  0  0  0
   -5.4342   -0.0009    1.7442 H   0  0  0  0  0  0  0  0  0  0  0  0
   -5.6118    1.6543    1.1414 H   0  0  0  0  0  0  0  0  0  0  0  0
   -6.6408    0.9011   -1.7227 H   0  0  0  0  0  0  0  0  0  0  0  0
   -5.5429    2.1924   -1.2438 H   0  0  0  0  0  0  0  0  0  0  0  0
   -5.0489    1.0096   -2.4620 H   0  0  0  0  0  0  0  0  0  0  0  0
   -0.4963   -2.3432    0.9662 H   0  0  0  0  0  0  0  0  0  0  0  0
    0.2423   -0.9101    1.6959 H   0  0  0  0  0  0  0  0  0  0  0  0
   -6.8162   -2.4352   -1.0525 H   0  0  0  0  0  0  0  0  0  0  0  0
   -7.5771    0.6014    1.4958 H   0  0  0  0  0  0  0  0  0  0  0  0
    1.7698   -2.7350    1.6061 H   0  0  0  0  0  0  0  0  0  0  0  0
    1.7384    4.4404    0.0827 H   0  0  0  0  0  0  0  0  0  0  0  0
    3.6905   -3.9985    2.1326 H   0  0  0  0  0  0  0  0  0  0  0  0
    3.3280   -2.0170   -1.7103 H   0  0  0  0  0  0  0  0  0  0  0  0
    4.0478    4.7291    0.9529 H   0  0  0  0  0  0  0  0  0  0  0  0
    4.0050    4.7898   -0.8351 H   0  0  0  0  0  0  0  0  0  0  0  0
    5.9020   -4.8479    1.4370 H   0  0  0  0  0  0  0  0  0  0  0  0
    5.4885   -2.8652   -2.3520 H   0  0  0  0  0  0  0  0  0  0  0  0
    6.8060   -4.2848   -0.8035 H   0  0  0  0  0  0  0  0  0  0  0  0
    6.3326    5.4165   -0.8736 H   0  0  0  0  0  0  0  0  0  0  0  0
    6.3761    5.3563    0.9201 H   0  0  0  0  0  0  0  0  0  0  0  0
    7.4883    4.3547   -0.0388 H   0  0  0  0  0  0  0  0  0  0  0  0
  1 22  1  0  0  0  0
  1 25  1  0  0  0  0
  2 15  1  0  0  0  0
  2 54  1  0  0  0  0
  3 20  1  0  0  0  0
  3 55  1  0  0  0  0
  4 24  2  0  0  0  0
  5 27  2  0  0  0  0
  6 30  1  0  0  0  0
  6 34  1  0  0  0  0
  7 19  1  0  0  0  0
  7 25  2  0  0  0  0
  8 24  1  0  0  0  0
  8 26  1  0  0  0  0
  8 56  1  0  0  0  0
  9 25  1  0  0  0  0
  9 27  1  0  0  0  0
  9 57  1  0  0  0  0
 10 11  1  0  0  0  0
 10 13  1  0  0  0  0
 10 14  1  0  0  0  0
 10 18  1  0  0  0  0
 11 12  1  0  0  0  0
 11 16  1  0  0  0  0
 11 35  1  0  0  0  0
 12 15  1  0  0  0  0
 12 20  1  0  0  0  0
 12 21  1  0  0  0  0
 13 19  1  0  0  0  0
 13 23  1  0  0  0  0
 13 36  1  0  0  0  0
 14 17  1  0  0  0  0
 14 37  1  0  0  0  0
 14 38  1  0  0  0  0
 15 17  1  0  0  0  0
 15 39  1  0  0  0  0
 16 22  1  0  0  0  0
 16 40  1  0  0  0  0
 16 41  1  0  0  0  0
 17 42  1  0  0  0  0
 17 43  1  0  0  0  0
 18 44  1  0  0  0  0
 18 45  1  0  0  0  0
 18 46  1  0  0  0  0
 19 22  2  0  0  0  0
 20 47  1  0  0  0  0
 20 48  1  0  0  0  0
 21 49  1  0  0  0  0
 21 50  1  0  0  0  0
 21 51  1  0  0  0  0
 23 24  1  0  0  0  0
 23 52  1  0  0  0  0
 23 53  1  0  0  0  0
 26 28  2  0  0  0  0
 26 29  1  0  0  0  0
 27 30  1  0  0  0  0
 28 31  1  0  0  0  0
 28 58  1  0  0  0  0
 29 32  2  0  0  0  0
 29 59  1  0  0  0  0
 30 60  1  0  0  0  0
 30 61  1  0  0  0  0
 31 33  2  0  0  0  0
 31 62  1  0  0  0  0
 32 33  1  0  0  0  0
 32 63  1  0  0  0  0
 33 64  1  0  0  0  0
 34 65  1  0  0  0  0
 34 66  1  0  0  0  0
 34 67  1  0  0  0  0
M  END
> <PUBCHEM_COMPOUND_CID>
11867067

> <PUBCHEM_CONFORMER_RMSD>
1

> <PUBCHEM_CONFORMER_DIVERSEORDER>
1
13
24
31
11
22
28
21
30
15
19
18
23
3
25
12
8
20
2
14
26
17
16
6
29
5
7
9
27
4
10

> <PUBCHEM_MMFF94_PARTIAL_CHARGES>
36
1 -0.08
13 0.18
15 0.28
16 0.18
19 0.05
2 -0.68
20 0.28
22 -0.14
23 0.06
24 0.57
25 0.44
26 0.12
27 0.57
28 -0.15
29 -0.15
3 -0.68
30 0.34
31 -0.15
32 -0.15
33 -0.15
34 0.28
4 -0.57
5 -0.57
54 0.4
55 0.4
56 0.37
57 0.37
58 0.15
59 0.15
6 -0.56
62 0.15
63 0.15
64 0.15
7 -0.57
8 -0.55
9 -0.49

> <PUBCHEM_EFFECTIVE_ROTOR_COUNT>
10.2

> <PUBCHEM_PHARMACOPHORE_FEATURES>
13
1 2 acceptor
1 2 donor
1 3 acceptor
1 3 donor
1 4 acceptor
1 5 acceptor
1 6 acceptor
1 8 donor
1 9 donor
5 1 7 19 22 25 rings
6 10 11 12 14 15 17 rings
6 10 11 13 16 19 22 rings
6 26 28 29 31 32 33 rings

> <PUBCHEM_HEAVY_ATOM_COUNT>
34

> <PUBCHEM_ATOM_DEF_STEREO_COUNT>
5

> <PUBCHEM_ATOM_UDEF_STEREO_COUNT>
0

> <PUBCHEM_BOND_DEF_STEREO_COUNT>
0

> <PUBCHEM_BOND_UDEF_STEREO_COUNT>
0

> <PUBCHEM_ISOTOPIC_ATOM_COUNT>
0

> <PUBCHEM_COMPONENT_COUNT>
1

> <PUBCHEM_CACTVS_TAUTO_COUNT>
6

> <PUBCHEM_CONFORMER_ID>
00B513BB00000001

> <PUBCHEM_MMFF94_ENERGY>
110.8817

> <PUBCHEM_FEATURE_SELFOVERLAP>
66.127

> <PUBCHEM_SHAPE_FINGERPRINT>
10050765 1 18411136905737102765
10622 236 17915720154932457911
1100329 8 18050569543350407233
11135926 11 18338229487551975469
11136131 41 18335410323328063490
11578080 2 17242701309331370549
11963148 33 17981033434729280687
12166972 35 17823146631053799510
12516196 113 18338234838875738010
12788726 201 17900538973942455643
12977781 61 17896335768453813074
13540713 4 18186804703804766291
13540713 5 18202008707522992017
14068700 675 18267020565960820823
14394314 77 17905609899920257435
14784336 7 17970903363176509306
14790565 3 18049162468972334589
15320294 125 17899108772468416264
15351339 4 18335717005910926414
15400415 2 17905888428972564936
15439362 3 18409166648944008017
15927050 60 18196934594367765254
16067689 302 18265897037831240351
16087824 20 17905889177056269885
16719943 64 17977947110169247776
17627616 140 18339078319360912382
17686467 74 18197488538376406962
20028762 73 17405714060671842406
20721686 56 18408888400247366130
21133665 82 18122064480479172564
21344244 246 18338792437784594799
21360443 120 18337112396955411604
21781055 127 16557926537342374915
21927370 108 18050864224997703458
22311459 1 18266739276253805417
23559900 14 18410566258774629499
24180151 40 18131361812293932032
244849 19 17895774992165007755
249999 5 18411979191725554960
3411729 13 18336824294643150992
4017518 198 18053671549842528076
4280585 95 18266170622008275922
504579 68 17824563880658692190
5171179 24 18337948978874269464
5385378 56 18338523039934504969
59755656 215 18338518676157886061
6669772 16 18339363093025311868
6700243 42 17483979085913460358

> <PUBCHEM_SHAPE_MULTIPOLES>
659.26
16.09
6.83
1.09
3.46
4.35
-0.05
-4.76
1.93
-18.35
-0.21
0.36
-0.63
0.09

> <PUBCHEM_SHAPE_SELFOVERLAP>
1387.293

> <PUBCHEM_SHAPE_VOLUME>
372.4

> <PUBCHEM_COORDINATE_TYPE>
2
5
10

$$$$
