38028119
  -OEChem-12032416253D

 65 67  0     1  0  0  0  0  0999 V2000
    3.8478   -1.5020    0.3242 O   0  0  0  0  0  0  0  0  0  0  0  0
    0.5953   -5.2217    0.5367 O   0  0  0  0  0  0  0  0  0  0  0  0
   -2.3670    2.4120    1.0008 O   0  0  0  0  0  0  0  0  0  0  0  0
   -1.0004    2.5517   -0.8548 N   0  0  0  0  0  0  0  0  0  0  0  0
    2.1184   -2.9641   -0.1874 N   0  0  0  0  0  0  0  0  0  0  0  0
   -2.6566    0.9993   -0.8514 N   0  0  0  0  0  0  0  0  0  0  0  0
    1.4609    2.0514    0.7796 C   0  0  1  0  0  0  0  0  0  0  0  0
    1.2925    3.1770   -0.2715 C   0  0  1  0  0  0  0  0  0  0  0  0
    2.7840    1.3033    0.5567 C   0  0  0  0  0  0  0  0  0  0  0  0
    2.8695    0.6764   -0.8477 C   0  0  2  0  0  0  0  0  0  0  0  0
    1.4080    2.5968    2.2102 C   0  0  0  0  0  0  0  0  0  0  0  0
    2.4555    1.6554   -1.9276 C   0  0  0  0  0  0  0  0  0  0  0  0
    1.7630    2.7742   -1.6495 C   0  0  0  0  0  0  0  0  0  0  0  0
   -0.1636    3.6500   -0.3470 C   0  0  0  0  0  0  0  0  0  0  0  0
    2.0427   -0.6118   -0.9287 C   0  0  0  0  0  0  0  0  0  0  0  0
    0.9765    1.5023    3.1811 C   0  0  0  0  0  0  0  0  0  0  0  0
    2.7627    3.1719    2.6107 C   0  0  0  0  0  0  0  0  0  0  0  0
    2.8958    1.3421   -3.3304 C   0  0  0  0  0  0  0  0  0  0  0  0
    2.7577   -1.7264   -0.2075 C   0  0  0  0  0  0  0  0  0  0  0  0
    0.8885   -3.2987   -0.9134 C   0  0  0  0  0  0  0  0  0  0  0  0
    2.7405   -4.0986    0.4949 C   0  0  0  0  0  0  0  0  0  0  0  0
   -2.0471    2.0223   -0.1196 C   0  0  0  0  0  0  0  0  0  0  0  0
   -0.0618   -4.0756   -0.0109 C   0  0  0  0  0  0  0  0  0  0  0  0
    1.7132   -4.8369    1.3413 C   0  0  0  0  0  0  0  0  0  0  0  0
   -3.7589    0.1984   -0.4717 C   0  0  0  0  0  0  0  0  0  0  0  0
   -4.2366   -0.7852   -1.3377 C   0  0  0  0  0  0  0  0  0  0  0  0
   -4.3684    0.3919    0.7679 C   0  0  0  0  0  0  0  0  0  0  0  0
   -5.3237   -1.5754   -0.9641 C   0  0  0  0  0  0  0  0  0  0  0  0
   -5.4554   -0.3984    1.1417 C   0  0  0  0  0  0  0  0  0  0  0  0
   -5.9331   -1.3819    0.2755 C   0  0  0  0  0  0  0  0  0  0  0  0
    0.6437    1.3312    0.6612 H   0  0  0  0  0  0  0  0  0  0  0  0
    1.9007    4.0432    0.0177 H   0  0  0  0  0  0  0  0  0  0  0  0
    2.9368    0.5450    1.3302 H   0  0  0  0  0  0  0  0  0  0  0  0
    3.6346    1.9942    0.6235 H   0  0  0  0  0  0  0  0  0  0  0  0
    3.9295    0.4483   -1.0287 H   0  0  0  0  0  0  0  0  0  0  0  0
    0.6643    3.3969    2.2861 H   0  0  0  0  0  0  0  0  0  0  0  0
    1.5336    3.4650   -2.4586 H   0  0  0  0  0  0  0  0  0  0  0  0
   -0.2687    4.4740   -1.0625 H   0  0  0  0  0  0  0  0  0  0  0  0
   -0.5410    4.0045    0.6153 H   0  0  0  0  0  0  0  0  0  0  0  0
    1.9260   -0.9278   -1.9712 H   0  0  0  0  0  0  0  0  0  0  0  0
    1.0455   -0.4776   -0.4991 H   0  0  0  0  0  0  0  0  0  0  0  0
    1.6815    0.6657    3.2063 H   0  0  0  0  0  0  0  0  0  0  0  0
   -0.0093    1.1072    2.9127 H   0  0  0  0  0  0  0  0  0  0  0  0
    0.9038    1.9015    4.1988 H   0  0  0  0  0  0  0  0  0  0  0  0
    3.5188    2.4023    2.7986 H   0  0  0  0  0  0  0  0  0  0  0  0
    2.6554    3.7199    3.5551 H   0  0  0  0  0  0  0  0  0  0  0  0
    3.1503    3.8888    1.8808 H   0  0  0  0  0  0  0  0  0  0  0  0
    3.9813    1.2032   -3.3664 H   0  0  0  0  0  0  0  0  0  0  0  0
    2.6465    2.1484   -4.0288 H   0  0  0  0  0  0  0  0  0  0  0  0
    2.4156    0.4313   -3.6990 H   0  0  0  0  0  0  0  0  0  0  0  0
   -0.8483    2.2236   -1.8034 H   0  0  0  0  0  0  0  0  0  0  0  0
    1.1941   -3.9219   -1.7622 H   0  0  0  0  0  0  0  0  0  0  0  0
    0.3840   -2.4170   -1.3109 H   0  0  0  0  0  0  0  0  0  0  0  0
    3.5825   -3.7737    1.1134 H   0  0  0  0  0  0  0  0  0  0  0  0
    3.1292   -4.7583   -0.2899 H   0  0  0  0  0  0  0  0  0  0  0  0
   -0.4364   -3.4487    0.8071 H   0  0  0  0  0  0  0  0  0  0  0  0
   -0.9243   -4.4258   -0.5865 H   0  0  0  0  0  0  0  0  0  0  0  0
    2.1546   -5.7460    1.7611 H   0  0  0  0  0  0  0  0  0  0  0  0
    1.3622   -4.2175    2.1752 H   0  0  0  0  0  0  0  0  0  0  0  0
   -2.2658    0.7970   -1.7681 H   0  0  0  0  0  0  0  0  0  0  0  0
   -3.7706   -0.9466   -2.3065 H   0  0  0  0  0  0  0  0  0  0  0  0
   -4.0564    1.1317    1.4914 H   0  0  0  0  0  0  0  0  0  0  0  0
   -5.6956   -2.3413   -1.6383 H   0  0  0  0  0  0  0  0  0  0  0  0
   -5.9308   -0.2490    2.1068 H   0  0  0  0  0  0  0  0  0  0  0  0
   -6.7794   -1.9973    0.5665 H   0  0  0  0  0  0  0  0  0  0  0  0
  1 19  2  0  0  0  0
  2 23  1  0  0  0  0
  2 24  1  0  0  0  0
  3 22  2  0  0  0  0
  4 14  1  0  0  0  0
  4 22  1  0  0  0  0
  4 51  1  0  0  0  0
  5 19  1  0  0  0  0
  5 20  1  0  0  0  0
  5 21  1  0  0  0  0
  6 22  1  0  0  0  0
  6 25  1  0  0  0  0
  6 60  1  0  0  0  0
  7  8  1  0  0  0  0
  7  9  1  0  0  0  0
  7 11  1  0  0  0  0
  7 31  1  0  0  0  0
  8 13  1  0  0  0  0
  8 14  1  0  0  0  0
  8 32  1  0  0  0  0
  9 10  1  0  0  0  0
  9 33  1  0  0  0  0
  9 34  1  0  0  0  0
 10 12  1  0  0  0  0
 10 15  1  0  0  0  0
 10 35  1  0  0  0  0
 11 16  1  0  0  0  0
 11 17  1  0  0  0  0
 11 36  1  0  0  0  0
 12 13  2  0  0  0  0
 12 18  1  0  0  0  0
 13 37  1  0  0  0  0
 14 38  1  0  0  0  0
 14 39  1  0  0  0  0
 15 19  1  0  0  0  0
 15 40  1  0  0  0  0
 15 41  1  0  0  0  0
 16 42  1  0  0  0  0
 16 43  1  0  0  0  0
 16 44  1  0  0  0  0
 17 45  1  0  0  0  0
 17 46  1  0  0  0  0
 17 47  1  0  0  0  0
 18 48  1  0  0  0  0
 18 49  1  0  0  0  0
 18 50  1  0  0  0  0
 20 23  1  0  0  0  0
 20 52  1  0  0  0  0
 20 53  1  0  0  0  0
 21 24  1  0  0  0  0
 21 54  1  0  0  0  0
 21 55  1  0  0  0  0
 23 56  1  0  0  0  0
 23 57  1  0  0  0  0
 24 58  1  0  0  0  0
 24 59  1  0  0  0  0
 25 26  2  0  0  0  0
 25 27  1  0  0  0  0
 26 28  1  0  0  0  0
 26 61  1  0  0  0  0
 27 29  2  0  0  0  0
 27 62  1  0  0  0  0
 28 30  2  0  0  0  0
 28 63  1  0  0  0  0
 29 30  1  0  0  0  0
 29 64  1  0  0  0  0
 30 65  1  0  0  0  0
M  END
> <PUBCHEM_COMPOUND_CID>
38028119

> <PUBCHEM_CONFORMER_RMSD>
1.2

> <PUBCHEM_CONFORMER_DIVERSEORDER>
1
22
100
23
28
119
108
78
44
36
30
82
125
84
25
20
81
113
59
97
96
21
57
70
17
99
54
61
73
83
9
33
55
74
15
31
116
7
51
71
105
42
124
118
112
43
123
102
37
13
95
98
85
8
14
24
11
18
40
64
2
79
63
117
122
94
69
104
76
39
68
65
27
106
103
110
41
109
56
60
89
92
10
12
58
49
62
3
90
6
88
107
121
77
38
93
91
101
26
67
87
66
50
46
48
32
120
35
53
114
111
16
29
72
4
86
115
34
19
5
47
52
75
45
80

> <PUBCHEM_MMFF94_PARTIAL_CHARGES>
33
1 -0.57
10 0.14
12 -0.28
13 -0.29
14 0.3
15 0.06
18 0.14
19 0.57
2 -0.56
20 0.3
21 0.3
22 0.69
23 0.28
24 0.28
25 0.12
26 -0.15
27 -0.15
28 -0.15
29 -0.15
3 -0.57
30 -0.15
37 0.15
4 -0.73
5 -0.66
51 0.37
6 -0.55
60 0.37
61 0.15
62 0.15
63 0.15
64 0.15
65 0.15
8 0.14

> <PUBCHEM_EFFECTIVE_ROTOR_COUNT>
11

> <PUBCHEM_PHARMACOPHORE_FEATURES>
9
1 1 acceptor
1 2 acceptor
1 3 acceptor
1 4 donor
1 6 donor
3 11 16 17 hydrophobe
6 2 5 20 21 23 24 rings
6 25 26 27 28 29 30 rings
6 7 8 9 10 12 13 rings

> <PUBCHEM_HEAVY_ATOM_COUNT>
30

> <PUBCHEM_ATOM_DEF_STEREO_COUNT>
3

> <PUBCHEM_ATOM_UDEF_STEREO_COUNT>
0

> <PUBCHEM_BOND_DEF_STEREO_COUNT>
0

> <PUBCHEM_BOND_UDEF_STEREO_COUNT>
0

> <PUBCHEM_ISOTOPIC_ATOM_COUNT>
0

> <PUBCHEM_COMPONENT_COUNT>
1

> <PUBCHEM_CACTVS_TAUTO_COUNT>
3

> <PUBCHEM_CONFORMER_ID>
0244435700000001

> <PUBCHEM_MMFF94_ENERGY>
71.7014

> <PUBCHEM_FEATURE_SELFOVERLAP>
45.73

> <PUBCHEM_SHAPE_FINGERPRINT>
10074138 170 17118558972685007680
10316853 100 18050010188574542047
10928967 22 18341623620202071055
11014199 57 17903923253658479527
114674 6 18342172331853544113
13561361 72 17614849938888579907
1361 2 18265614476000560899
14863182 85 18335695109018255180
16114785 44 15903443657942437944
19315092 285 17774419669267355779
19930381 70 18408045096156108939
20764821 26 18121497114302111411
20775530 9 18194684765595564727
23559900 14 18261383400600749805
238 59 18262253203764613777
4435113 14 17243045542549844659
463206 1 17835236749211564603
5309563 4 18410294671055227343
66674814 147 18262246525460169546
86090 222 18052824938373317027

> <PUBCHEM_SHAPE_MULTIPOLES>
584.83
9.21
6.88
2.43
19.51
10.12
0.39
0.15
-0.65
-5.39
2.15
-2.53
-2.02
-0.24

> <PUBCHEM_SHAPE_SELFOVERLAP>
1209.348

> <PUBCHEM_SHAPE_VOLUME>
331.3

> <PUBCHEM_COORDINATE_TYPE>
2
5
10

$$$$
