51137236
  -OEChem-12032416223D

 39 42  0     1  0  0  0  0  0999 V2000
   -6.2420    2.5963   -0.1656 Cl  0  0  0  0  0  0  0  0  0  0  0  0
   -0.4561   -0.6895   -0.1491 O   0  0  0  0  0  0  0  0  0  0  0  0
    3.5493   -0.0382   -0.2835 N   0  0  1  0  0  0  0  0  0  0  0  0
   -0.3109   -2.8299    0.4851 N   0  0  0  0  0  0  0  0  0  0  0  0
   -1.6332   -2.4411    0.5931 N   0  0  0  0  0  0  0  0  0  0  0  0
    4.0416    1.2692    0.1660 C   0  0  0  0  0  0  0  0  0  0  0  0
    4.8154    1.1030    1.4904 C   0  0  0  0  0  0  0  0  0  0  0  0
    5.4001    1.5678   -0.5016 C   0  0  0  0  0  0  0  0  0  0  0  0
    5.8947    2.0256    0.8864 C   0  0  0  0  0  0  0  0  0  0  0  0
    2.4778   -0.5201    0.5926 C   0  0  0  0  0  0  0  0  0  0  0  0
    1.8100   -1.6108   -0.2555 C   0  0  2  0  0  0  0  0  0  0  0  0
    2.9327    0.0668   -1.6071 C   0  0  0  0  0  0  0  0  0  0  0  0
    2.1297   -1.2235   -1.7100 C   0  0  0  0  0  0  0  0  0  0  0  0
    0.3389   -1.7764    0.0485 C   0  0  0  0  0  0  0  0  0  0  0  0
   -1.6709   -1.1854    0.2130 C   0  0  0  0  0  0  0  0  0  0  0  0
   -2.7736   -0.2730    0.1216 C   0  0  0  0  0  0  0  0  0  0  0  0
   -4.0570   -0.6929    0.4714 C   0  0  0  0  0  0  0  0  0  0  0  0
   -2.5628    1.0344   -0.3168 C   0  0  0  0  0  0  0  0  0  0  0  0
   -5.1295    0.1943    0.3827 C   0  0  0  0  0  0  0  0  0  0  0  0
   -3.6354    1.9217   -0.4056 C   0  0  0  0  0  0  0  0  0  0  0  0
   -4.9187    1.5017   -0.0559 C   0  0  0  0  0  0  0  0  0  0  0  0
    3.3285    2.1027    0.1576 H   0  0  0  0  0  0  0  0  0  0  0  0
    4.3164    1.4906    2.3830 H   0  0  0  0  0  0  0  0  0  0  0  0
    5.1948    0.0964    1.7076 H   0  0  0  0  0  0  0  0  0  0  0  0
    5.9492    0.6986   -0.8851 H   0  0  0  0  0  0  0  0  0  0  0  0
    5.3883    2.3434   -1.2724 H   0  0  0  0  0  0  0  0  0  0  0  0
    6.9294    1.7735    1.1310 H   0  0  0  0  0  0  0  0  0  0  0  0
    5.7273    3.0903    1.0857 H   0  0  0  0  0  0  0  0  0  0  0  0
    2.8662   -0.9376    1.5279 H   0  0  0  0  0  0  0  0  0  0  0  0
    1.7718    0.2820    0.8463 H   0  0  0  0  0  0  0  0  0  0  0  0
    2.2988   -2.5728   -0.0475 H   0  0  0  0  0  0  0  0  0  0  0  0
    3.6751    0.1408   -2.4081 H   0  0  0  0  0  0  0  0  0  0  0  0
    2.2568    0.9290   -1.6772 H   0  0  0  0  0  0  0  0  0  0  0  0
    1.2388   -1.0906   -2.3327 H   0  0  0  0  0  0  0  0  0  0  0  0
    2.7413   -2.0106   -2.1687 H   0  0  0  0  0  0  0  0  0  0  0  0
   -4.2445   -1.7072    0.8157 H   0  0  0  0  0  0  0  0  0  0  0  0
   -1.5778    1.3983   -0.5979 H   0  0  0  0  0  0  0  0  0  0  0  0
   -6.1242   -0.1466    0.6584 H   0  0  0  0  0  0  0  0  0  0  0  0
   -3.4568    2.9375   -0.7489 H   0  0  0  0  0  0  0  0  0  0  0  0
  1 21  1  0  0  0  0
  2 14  1  0  0  0  0
  2 15  1  0  0  0  0
  3  6  1  0  0  0  0
  3 10  1  0  0  0  0
  3 12  1  0  0  0  0
  4  5  1  0  0  0  0
  4 14  2  0  0  0  0
  5 15  2  0  0  0  0
  6  7  1  0  0  0  0
  6  8  1  0  0  0  0
  6 22  1  0  0  0  0
  7  9  1  0  0  0  0
  7 23  1  0  0  0  0
  7 24  1  0  0  0  0
  8  9  1  0  0  0  0
  8 25  1  0  0  0  0
  8 26  1  0  0  0  0
  9 27  1  0  0  0  0
  9 28  1  0  0  0  0
 10 11  1  0  0  0  0
 10 29  1  0  0  0  0
 10 30  1  0  0  0  0
 11 13  1  0  0  0  0
 11 14  1  0  0  0  0
 11 31  1  0  0  0  0
 12 13  1  0  0  0  0
 12 32  1  0  0  0  0
 12 33  1  0  0  0  0
 13 34  1  0  0  0  0
 13 35  1  0  0  0  0
 15 16  1  0  0  0  0
 16 17  2  0  0  0  0
 16 18  1  0  0  0  0
 17 19  1  0  0  0  0
 17 36  1  0  0  0  0
 18 20  2  0  0  0  0
 18 37  1  0  0  0  0
 19 21  2  0  0  0  0
 19 38  1  0  0  0  0
 20 21  1  0  0  0  0
 20 39  1  0  0  0  0
M  END
> <PUBCHEM_COMPOUND_CID>
51137236

> <PUBCHEM_CONFORMER_RMSD>
0.8

> <PUBCHEM_CONFORMER_DIVERSEORDER>
1
2
5
4
3
6
7
8

> <PUBCHEM_MMFF94_PARTIAL_CHARGES>
21
1 -0.18
10 0.27
11 0.18
12 0.27
14 0.3
15 0.43
16 0.05
17 -0.15
18 -0.15
19 -0.15
2 -0.28
20 -0.15
21 0.18
3 -0.75
36 0.15
37 0.15
38 0.15
39 0.15
4 -0.34
5 -0.34
6 0.21

> <PUBCHEM_EFFECTIVE_ROTOR_COUNT>
4.8

> <PUBCHEM_PHARMACOPHORE_FEATURES>
5
1 3 cation
4 6 7 8 9 rings
5 2 4 5 14 15 rings
5 3 10 11 12 13 rings
6 16 17 18 19 20 21 rings

> <PUBCHEM_HEAVY_ATOM_COUNT>
21

> <PUBCHEM_ATOM_DEF_STEREO_COUNT>
1

> <PUBCHEM_ATOM_UDEF_STEREO_COUNT>
0

> <PUBCHEM_BOND_DEF_STEREO_COUNT>
0

> <PUBCHEM_BOND_UDEF_STEREO_COUNT>
0

> <PUBCHEM_ISOTOPIC_ATOM_COUNT>
0

> <PUBCHEM_COMPONENT_COUNT>
1

> <PUBCHEM_CACTVS_TAUTO_COUNT>
1

> <PUBCHEM_CONFORMER_ID>
030C4AD400000001

> <PUBCHEM_MMFF94_ENERGY>
45.7929

> <PUBCHEM_FEATURE_SELFOVERLAP>
25.374

> <PUBCHEM_SHAPE_FINGERPRINT>
10042902 136 9511452334085920881
10319926 262 18260830414898089538
10498660 4 18339648845525750361
10692045 39 18188761748429237106
10968037 57 8862940593794407349
10981352 41 11386663930949058097
11069576 57 14404359247849570188
11128504 68 14333410073164185088
12107183 9 18261659391141867114
12390115 104 18341062860470766089
12403259 118 17749117720394378741
12403259 327 15141261926309440925
12403259 415 18339373997367215735
12596602 18 16805602628903237816
12633257 1 15285366123463473922
12730499 353 18059868271825797382
12760667 363 7997978968119491955
12769317 202 18060413621203316736
12788726 201 16883039141051196850
12969540 114 17203609328419524854
13103583 49 13695863675688407221
13402501 40 18342736342759404936
13540713 4 18338818756817469294
13914758 101 14707194527685185551
13955234 65 17974293123465683091
13965767 371 17822565023841357334
14123256 34 8214144087864504968
1420 369 9079110059924445637
14216079 64 8790880783859842321
14251740 57 8646470917460233213
14251751 18 8935008070520584184
14251764 30 11599713039261930245
14341114 328 16732993036851275897
14429114 114 18196650688514002641
14739800 52 18337097995349326272
14790565 3 17764876789150291721
15061688 2 18341893004508369390
15209294 21 18187359969729443802
15238133 3 18040442109461229148
15537594 2 11887686082189184485
193927 3 7925915893545103658
19784866 34 18410572851755027187
20388580 30 10952043477110543090
20567600 254 18409158905186428253
20645477 56 18342464793298848562
20715895 44 18410291389283852072
21033648 29 18334586736561139528
21307412 95 9295297123258384321
21401589 2 18409175423978724435
21452121 103 18409728426798651298
21475661 188 18271238439174288376
22950370 63 9655575235959943851
23016692 55 9943810001420311809
23227448 37 18270118040782467727
23557571 272 18198355141646918302
23559900 14 18263660484307190886
270888 7 18411696590945465568
2748736 6 18409158896860835293
2838139 119 18200866379213098464
2916195 48 18413670227317938649
3014063 24 11819287684735301401
312425 83 17130713773256342541
3246875 12 18409450298065317825
341906 21 18334581278032200892
3459 39 18264187214890965008
3472631 163 18342736308494112045
34797466 226 17846502483527403813
3680242 22 18260830367300040800
4371632 12 14690015920836352378
465052 167 10665234730516891848
495365 180 17988924449245118910
5104073 3 18115031797289390187
56633871 153 11242263952287299297
57307002 19 18335123298463471677
59682541 52 16988572247417917044
5969126 39 17983289615330265575
633830 44 18270398266171927031
67856867 119 18190454957591661115
7064713 232 18187087251800816085
7808743 9 18337106873273424080
7970288 3 9727632804123157573
8863177 126 10737293449957823600
960060 61 14333124152653671333
9981440 41 18259988184495870587

> <PUBCHEM_SHAPE_MULTIPOLES>
413.23
14.43
2.8
1.12
1.33
0.3
-0.24
-14.34
1.65
0.91
0.28
-1.36
0.02
1.51

> <PUBCHEM_SHAPE_SELFOVERLAP>
886.424

> <PUBCHEM_SHAPE_VOLUME>
232.5

> <PUBCHEM_COORDINATE_TYPE>
2
5
10

$$$$
