25390434
  -OEChem-12032416413D

 43 45  0     1  0  0  0  0  0999 V2000
    1.4187    0.5344    0.5733 O   0  0  0  0  0  0  0  0  0  0  0  0
    4.7852    0.2444   -0.6440 O   0  0  0  0  0  0  0  0  0  0  0  0
    3.9530    2.0896    1.2191 O   0  0  0  0  0  0  0  0  0  0  0  0
    1.1890   -2.3698    1.5648 O   0  0  0  0  0  0  0  0  0  0  0  0
   -0.9459    0.2274   -1.1853 O   0  0  0  0  0  0  0  0  0  0  0  0
   -3.1824    2.4726    0.4044 O   0  0  0  0  0  0  0  0  0  0  0  0
    0.2973   -3.0899   -0.4539 N   0  0  0  0  0  0  0  0  0  0  0  0
   -0.5587    2.3647   -0.3695 N   0  0  0  0  0  0  0  0  0  0  0  0
   -0.6962   -3.9641    0.1007 C   0  0  0  0  0  0  0  0  0  0  0  0
    2.5656   -0.2554    0.2128 C   0  0  2  0  0  0  0  0  0  0  0  0
   -2.0300   -3.4400    0.5456 C   0  0  0  0  0  0  0  0  0  0  0  0
   -1.9357   -4.3186   -0.6674 C   0  0  0  0  0  0  0  0  0  0  0  0
    3.4327    0.6483   -0.6471 C   0  0  1  0  0  0  0  0  0  0  0  0
    3.2073    1.9962    0.0060 C   0  0  1  0  0  0  0  0  0  0  0  0
    1.7267    1.9317    0.3643 C   0  0  1  0  0  0  0  0  0  0  0  0
    2.1140   -1.5159   -0.5030 C   0  0  0  0  0  0  0  0  0  0  0  0
    0.8216    2.4471   -0.7462 C   0  0  0  0  0  0  0  0  0  0  0  0
    1.1696   -2.3551    0.3368 C   0  0  0  0  0  0  0  0  0  0  0  0
   -1.3449    1.2438   -0.6230 C   0  0  0  0  0  0  0  0  0  0  0  0
   -2.7645    1.3258   -0.1932 C   0  0  0  0  0  0  0  0  0  0  0  0
   -3.7992    0.4241   -0.2851 C   0  0  0  0  0  0  0  0  0  0  0  0
   -4.9252    1.0575    0.2927 C   0  0  0  0  0  0  0  0  0  0  0  0
   -4.4982    2.3012    0.6971 C   0  0  0  0  0  0  0  0  0  0  0  0
   -0.2578   -4.7612    0.6935 H   0  0  0  0  0  0  0  0  0  0  0  0
    3.0858   -0.5282    1.1402 H   0  0  0  0  0  0  0  0  0  0  0  0
    3.0713    0.6659   -1.6823 H   0  0  0  0  0  0  0  0  0  0  0  0
   -2.2471   -2.3904    0.3931 H   0  0  0  0  0  0  0  0  0  0  0  0
   -2.4640   -3.8626    1.4433 H   0  0  0  0  0  0  0  0  0  0  0  0
   -2.3078   -5.3324   -0.5862 H   0  0  0  0  0  0  0  0  0  0  0  0
   -2.0952   -3.8577   -1.6345 H   0  0  0  0  0  0  0  0  0  0  0  0
    3.4903    2.8407   -0.6287 H   0  0  0  0  0  0  0  0  0  0  0  0
    1.5082    2.4550    1.3026 H   0  0  0  0  0  0  0  0  0  0  0  0
    1.5999   -1.2391   -1.4320 H   0  0  0  0  0  0  0  0  0  0  0  0
    2.9750   -2.1394   -0.7683 H   0  0  0  0  0  0  0  0  0  0  0  0
    0.3597   -3.0340   -1.4669 H   0  0  0  0  0  0  0  0  0  0  0  0
    0.9610    1.8721   -1.6682 H   0  0  0  0  0  0  0  0  0  0  0  0
    1.0390    3.4986   -0.9602 H   0  0  0  0  0  0  0  0  0  0  0  0
    5.2946    0.9281   -1.1116 H   0  0  0  0  0  0  0  0  0  0  0  0
    3.7490    2.9519    1.6199 H   0  0  0  0  0  0  0  0  0  0  0  0
   -0.9749    3.1624    0.1029 H   0  0  0  0  0  0  0  0  0  0  0  0
   -3.7539   -0.5659   -0.7161 H   0  0  0  0  0  0  0  0  0  0  0  0
   -5.9231    0.6580    0.4007 H   0  0  0  0  0  0  0  0  0  0  0  0
   -4.9817    3.1366    1.1819 H   0  0  0  0  0  0  0  0  0  0  0  0
  1 10  1  0  0  0  0
  1 15  1  0  0  0  0
  2 13  1  0  0  0  0
  2 38  1  0  0  0  0
  3 14  1  0  0  0  0
  3 39  1  0  0  0  0
  4 18  2  0  0  0  0
  5 19  2  0  0  0  0
  6 20  1  0  0  0  0
  6 23  1  0  0  0  0
  7  9  1  0  0  0  0
  7 18  1  0  0  0  0
  7 35  1  0  0  0  0
  8 17  1  0  0  0  0
  8 19  1  0  0  0  0
  8 40  1  0  0  0  0
  9 11  1  0  0  0  0
  9 12  1  0  0  0  0
  9 24  1  0  0  0  0
 10 13  1  0  0  0  0
 10 16  1  0  0  0  0
 10 25  1  0  0  0  0
 11 12  1  0  0  0  0
 11 27  1  0  0  0  0
 11 28  1  0  0  0  0
 12 29  1  0  0  0  0
 12 30  1  0  0  0  0
 13 14  1  0  0  0  0
 13 26  1  0  0  0  0
 14 15  1  0  0  0  0
 14 31  1  0  0  0  0
 15 17  1  0  0  0  0
 15 32  1  0  0  0  0
 16 18  1  0  0  0  0
 16 33  1  0  0  0  0
 16 34  1  0  0  0  0
 17 36  1  0  0  0  0
 17 37  1  0  0  0  0
 19 20  1  0  0  0  0
 20 21  2  0  0  0  0
 21 22  1  0  0  0  0
 21 41  1  0  0  0  0
 22 23  2  0  0  0  0
 22 42  1  0  0  0  0
 23 43  1  0  0  0  0
M  END
> <PUBCHEM_COMPOUND_CID>
25390434

> <PUBCHEM_CONFORMER_RMSD>
1

> <PUBCHEM_CONFORMER_DIVERSEORDER>
1
53
63
54
56
149
160
83
119
135
145
52
90
137
45
131
50
80
153
159
23
89
157
133
87
144
115
74
150
113
105
60
152
98
126
124
123
40
12
10
75
70
134
139
42
77
61
151
97
22
104
143
47
103
109
155
147
41
132
93
26
39
65
84
141
112
91
138
38
79
24
142
66
59
129
95
28
156
136
37
128
73
125
94
76
36
162
96
34
72
110
16
163
102
14
127
100
82
11
17
18
88
64
78
140
121
69
31
5
146
3
116
55
62
117
158
99
108
35
107
114
51
101
27
7
67
44
85
86
25
161
49
19
58
92
71
13
43
154
46
122
68
106
111
33
32
48
21
81
29
20
2
118
30
4
15
148
57
9
130
120
8
6

> <PUBCHEM_MMFF94_PARTIAL_CHARGES>
35
1 -0.56
10 0.28
11 -0.2
12 -0.2
13 0.28
14 0.28
15 0.28
16 0.06
17 0.3
18 0.57
19 0.71
2 -0.68
20 0.05
21 -0.15
22 -0.15
23 -0.01
24 0.1
27 0.1
28 0.1
29 0.1
3 -0.68
30 0.1
35 0.37
38 0.4
39 0.4
4 -0.57
40 0.37
41 0.15
42 0.15
43 0.15
5 -0.57
6 -0.28
7 -0.58
8 -0.73
9 0.05

> <PUBCHEM_EFFECTIVE_ROTOR_COUNT>
9.6

> <PUBCHEM_PHARMACOPHORE_FEATURES>
12
1 1 acceptor
1 2 acceptor
1 2 donor
1 3 acceptor
1 3 donor
1 4 acceptor
1 5 acceptor
1 6 acceptor
1 7 donor
1 8 donor
5 1 10 13 14 15 rings
5 6 20 21 22 23 rings

> <PUBCHEM_HEAVY_ATOM_COUNT>
23

> <PUBCHEM_ATOM_DEF_STEREO_COUNT>
4

> <PUBCHEM_ATOM_UDEF_STEREO_COUNT>
0

> <PUBCHEM_BOND_DEF_STEREO_COUNT>
0

> <PUBCHEM_BOND_UDEF_STEREO_COUNT>
0

> <PUBCHEM_ISOTOPIC_ATOM_COUNT>
0

> <PUBCHEM_COMPONENT_COUNT>
1

> <PUBCHEM_CACTVS_TAUTO_COUNT>
4

> <PUBCHEM_CONFORMER_ID>
01836D6200000001

> <PUBCHEM_MMFF94_ENERGY>
40.4922

> <PUBCHEM_FEATURE_SELFOVERLAP>
60.913

> <PUBCHEM_SHAPE_FINGERPRINT>
10064457 181 18411421725970824836
104564 63 17904486551392884254
10493431 412 18411698811385483301
116883 192 17833836345408131198
12553582 1 17617654354768693031
12788726 201 17615127019891596216
13140716 1 18338785819403372512
13533116 47 18125999361611038433
13785724 45 16759174299312072565
138480 1 17618223901739237287
14178342 30 18266445697631493216
14251705 54 17472696923563971379
14790565 3 18338245864399606980
14866123 147 18410292557615287146
15422964 175 17113245647104751079
17138139 8 17769900745355065975
19591789 44 18337955588728308534
19930381 70 18049162160139961883
20645477 70 18117549627203601589
21197605 99 18336841891778908011
21421861 104 17833280722294838441
23558518 356 18118685662995547958
23559900 14 17761485899104415525
3014063 31 17834110132383313295
3052486 1 18116149064011234726
338550 245 18117566339021304367
5309563 4 17546443376368563559
653340 110 18053377979177238193
7097593 13 17476363799211418321
81228 2 17755575289486214560
8272917 22 18196378013771481841
9777508 108 18269270334275801473

> <PUBCHEM_SHAPE_MULTIPOLES>
428.15
7.93
5.46
0.97
2.36
6.94
0.1
-6.29
0.77
3.06
0.18
-0.23
0.08
-0.28

> <PUBCHEM_SHAPE_SELFOVERLAP>
896.158

> <PUBCHEM_SHAPE_VOLUME>
242.9

> <PUBCHEM_COORDINATE_TYPE>
2
5
10

$$$$
