75366956
  -OEChem-12032416393D

 48 49  0     1  0  0  0  0  0999 V2000
    1.8032   -0.5589    0.5888 O   0  0  0  0  0  0  0  0  0  0  0  0
    4.4895   -0.6036    1.8013 O   0  0  0  0  0  0  0  0  0  0  0  0
   -2.2278   -1.2508   -1.4518 O   0  0  0  0  0  0  0  0  0  0  0  0
   -0.1366    2.1790   -1.3492 O   0  0  0  0  0  0  0  0  0  0  0  0
   -3.4233   -1.0849    1.7198 O   0  0  0  0  0  0  0  0  0  0  0  0
    0.4662    1.9171    0.8795 N   0  0  0  0  0  0  0  0  0  0  0  0
   -0.9424   -1.2660   -1.9793 N   0  0  0  0  0  0  0  0  0  0  0  0
   -1.7655    2.0693    0.2996 N   0  0  0  0  0  0  0  0  0  0  0  0
    2.0872   -0.7657   -0.7970 C   0  0  1  0  0  0  0  0  0  0  0  0
    2.4695    0.5605    1.1873 C   0  0  1  0  0  0  0  0  0  0  0  0
    3.9896    0.4707    1.0005 C   0  0  2  0  0  0  0  0  0  0  0  0
    3.5844   -0.9783   -1.0145 C   0  0  0  0  0  0  0  0  0  0  0  0
    4.3818    0.1930   -0.4482 C   0  0  0  0  0  0  0  0  0  0  0  0
    1.2945   -1.9858   -1.2501 C   0  0  0  0  0  0  0  0  0  0  0  0
    1.8843    1.8801    0.6888 C   0  0  0  0  0  0  0  0  0  0  0  0
   -0.1825   -1.8071   -1.0227 C   0  0  0  0  0  0  0  0  0  0  0  0
   -0.9264   -2.1494    0.1198 C   0  0  0  0  0  0  0  0  0  0  0  0
   -0.4529    2.0659   -0.1656 C   0  0  0  0  0  0  0  0  0  0  0  0
   -2.2055   -1.7792   -0.2015 C   0  0  0  0  0  0  0  0  0  0  0  0
   -3.4895   -1.8403    0.5071 C   0  0  0  0  0  0  0  0  0  0  0  0
   -2.9054    2.2090   -0.5757 C   0  0  0  0  0  0  0  0  0  0  0  0
   -3.1375    3.6563   -0.9574 C   0  0  0  0  0  0  0  0  0  0  0  0
   -4.6551   -1.1310    2.4205 C   0  0  0  0  0  0  0  0  0  0  0  0
    1.7494    0.1050   -1.3704 H   0  0  0  0  0  0  0  0  0  0  0  0
    2.2504    0.4754    2.2596 H   0  0  0  0  0  0  0  0  0  0  0  0
    4.4719    1.3871    1.3584 H   0  0  0  0  0  0  0  0  0  0  0  0
    3.8048   -1.0980   -2.0813 H   0  0  0  0  0  0  0  0  0  0  0  0
    3.9065   -1.8983   -0.5103 H   0  0  0  0  0  0  0  0  0  0  0  0
    5.4513   -0.0368   -0.5205 H   0  0  0  0  0  0  0  0  0  0  0  0
    4.1990    1.0844   -1.0595 H   0  0  0  0  0  0  0  0  0  0  0  0
    1.6165   -2.8728   -0.6887 H   0  0  0  0  0  0  0  0  0  0  0  0
    1.4833   -2.1916   -2.3110 H   0  0  0  0  0  0  0  0  0  0  0  0
    2.1176    2.0575   -0.3648 H   0  0  0  0  0  0  0  0  0  0  0  0
    2.3072    2.7143    1.2594 H   0  0  0  0  0  0  0  0  0  0  0  0
    5.4573   -0.6145    1.7073 H   0  0  0  0  0  0  0  0  0  0  0  0
    0.1089    1.8769    1.8291 H   0  0  0  0  0  0  0  0  0  0  0  0
   -0.5854   -2.5983    1.0410 H   0  0  0  0  0  0  0  0  0  0  0  0
   -4.2940   -1.4398   -0.1212 H   0  0  0  0  0  0  0  0  0  0  0  0
   -3.7259   -2.8844    0.7438 H   0  0  0  0  0  0  0  0  0  0  0  0
   -1.9302    1.9748    1.2970 H   0  0  0  0  0  0  0  0  0  0  0  0
   -2.7377    1.6070   -1.4747 H   0  0  0  0  0  0  0  0  0  0  0  0
   -3.7763    1.8077   -0.0481 H   0  0  0  0  0  0  0  0  0  0  0  0
   -3.2984    4.2745   -0.0679 H   0  0  0  0  0  0  0  0  0  0  0  0
   -2.2795    4.0691   -1.4979 H   0  0  0  0  0  0  0  0  0  0  0  0
   -4.0190    3.7444   -1.5999 H   0  0  0  0  0  0  0  0  0  0  0  0
   -5.4577   -0.6952    1.8175 H   0  0  0  0  0  0  0  0  0  0  0  0
   -4.9054   -2.1608    2.6933 H   0  0  0  0  0  0  0  0  0  0  0  0
   -4.5523   -0.5440    3.3372 H   0  0  0  0  0  0  0  0  0  0  0  0
  1  9  1  0  0  0  0
  1 10  1  0  0  0  0
  2 11  1  0  0  0  0
  2 35  1  0  0  0  0
  3  7  1  0  0  0  0
  3 19  1  0  0  0  0
  4 18  2  0  0  0  0
  5 20  1  0  0  0  0
  5 23  1  0  0  0  0
  6 15  1  0  0  0  0
  6 18  1  0  0  0  0
  6 36  1  0  0  0  0
  7 16  2  0  0  0  0
  8 18  1  0  0  0  0
  8 21  1  0  0  0  0
  8 40  1  0  0  0  0
  9 12  1  0  0  0  0
  9 14  1  0  0  0  0
  9 24  1  0  0  0  0
 10 11  1  0  0  0  0
 10 15  1  0  0  0  0
 10 25  1  0  0  0  0
 11 13  1  0  0  0  0
 11 26  1  0  0  0  0
 12 13  1  0  0  0  0
 12 27  1  0  0  0  0
 12 28  1  0  0  0  0
 13 29  1  0  0  0  0
 13 30  1  0  0  0  0
 14 16  1  0  0  0  0
 14 31  1  0  0  0  0
 14 32  1  0  0  0  0
 15 33  1  0  0  0  0
 15 34  1  0  0  0  0
 16 17  1  0  0  0  0
 17 19  2  0  0  0  0
 17 37  1  0  0  0  0
 19 20  1  0  0  0  0
 20 38  1  0  0  0  0
 20 39  1  0  0  0  0
 21 22  1  0  0  0  0
 21 41  1  0  0  0  0
 21 42  1  0  0  0  0
 22 43  1  0  0  0  0
 22 44  1  0  0  0  0
 22 45  1  0  0  0  0
 23 46  1  0  0  0  0
 23 47  1  0  0  0  0
 23 48  1  0  0  0  0
M  END
> <PUBCHEM_COMPOUND_CID>
75366956

> <PUBCHEM_CONFORMER_RMSD>
1

> <PUBCHEM_CONFORMER_DIVERSEORDER>
1
55
39
43
97
20
73
47
80
74
40
92
98
103
79
75
67
76
95
2
30
52
24
35
63
18
29
77
106
49
15
58
64
96
72
109
90
99
3
21
61
16
94
36
102
50
93
65
25
78
83
31
84
10
13
107
17
26
12
69
82
54
48
60
23
32
11
86
70
57
100
56
68
34
44
105
101
45
62
14
91
85
46
33
28
104
7
37
108
41
6
71
66
87
27
59
4
42
88
22
51
53
38
89
9
8
81
19
5

> <PUBCHEM_MMFF94_PARTIAL_CHARGES>
24
1 -0.56
10 0.28
11 0.28
14 0.18
15 0.3
16 0.11
17 -0.15
18 0.69
19 -0.04
2 -0.68
20 0.46
21 0.3
23 0.28
3 -0.02
35 0.4
36 0.37
37 0.15
4 -0.57
40 0.37
5 -0.56
6 -0.73
7 -0.41
8 -0.73
9 0.28

> <PUBCHEM_EFFECTIVE_ROTOR_COUNT>
10.2

> <PUBCHEM_PHARMACOPHORE_FEATURES>
10
1 1 acceptor
1 2 acceptor
1 2 donor
1 4 acceptor
1 5 acceptor
1 6 donor
1 7 acceptor
1 8 donor
5 3 7 16 17 19 rings
6 1 9 10 11 12 13 rings

> <PUBCHEM_HEAVY_ATOM_COUNT>
23

> <PUBCHEM_ATOM_DEF_STEREO_COUNT>
3

> <PUBCHEM_ATOM_UDEF_STEREO_COUNT>
0

> <PUBCHEM_BOND_DEF_STEREO_COUNT>
0

> <PUBCHEM_BOND_UDEF_STEREO_COUNT>
0

> <PUBCHEM_ISOTOPIC_ATOM_COUNT>
0

> <PUBCHEM_COMPONENT_COUNT>
1

> <PUBCHEM_CACTVS_TAUTO_COUNT>
3

> <PUBCHEM_CONFORMER_ID>
047E022C00000001

> <PUBCHEM_MMFF94_ENERGY>
26.8543

> <PUBCHEM_FEATURE_SELFOVERLAP>
50.798

> <PUBCHEM_SHAPE_FINGERPRINT>
10382601 240 17978235185824870864
104564 63 18340479058261374532
10688039 33 18260837037642168229
10759866 29 18261675879336439502
11086676 242 18339637966494675168
11387372 6 17396954900970355618
12422481 6 18270421429077903371
12633257 1 17845936341648260736
12716301 132 18197191738169497616
13140716 1 17908125926681538074
13402501 40 18340208488739605513
13726171 33 18337411382482490208
14840074 17 17904485447692407808
17357779 13 18270944847756712823
20261772 1 18272658977551881122
22182313 1 18201164239088961158
23419403 2 17557171439816079719
23559900 14 18129658570714955782
238 59 17625531298893178805
2748010 2 18131068187038577214
3052486 1 18187657876802473852
3187 122 18259987085057815821
5283268 108 18263944261823585099
6992083 37 17771053093032453510
7064713 232 17703804651295797891

> <PUBCHEM_SHAPE_MULTIPOLES>
429.04
7.95
3.51
1.82
1.5
2.57
0.47
-0.87
3.85
-3.84
-1.07
-0.79
-0.53
1.92

> <PUBCHEM_SHAPE_SELFOVERLAP>
867.265

> <PUBCHEM_SHAPE_VOLUME>
251.4

> <PUBCHEM_COORDINATE_TYPE>
2
5
10

$$$$
