56775661
  -OEChem-12032416323D

 51 55  0     0  0  0  0  0  0999 V2000
   -2.2414   -4.1919    1.7578 O   0  0  0  0  0  0  0  0  0  0  0  0
    2.7931   -2.6205   -0.4643 O   0  0  0  0  0  0  0  0  0  0  0  0
   -3.5322    3.8670   -0.6639 O   0  0  0  0  0  0  0  0  0  0  0  0
   -5.6223    3.5453    0.4918 O   0  0  0  0  0  0  0  0  0  0  0  0
    3.9250    0.0583    0.3012 O   0  0  0  0  0  0  0  0  0  0  0  0
   -1.8268   -1.4906    0.4449 N   0  0  0  0  0  0  0  0  0  0  0  0
    1.6461   -3.4049   -0.4527 N   0  0  0  0  0  0  0  0  0  0  0  0
   -1.5085   -2.9029    0.2223 C   0  0  0  0  0  0  0  0  0  0  0  0
   -2.7581   -3.7353    0.4871 C   0  0  0  0  0  0  0  0  0  0  0  0
   -0.9924   -3.5016    1.5258 C   0  0  0  0  0  0  0  0  0  0  0  0
   -0.7364   -3.1353   -1.0402 C   0  0  0  0  0  0  0  0  0  0  0  0
   -2.5467   -0.9713   -0.7186 C   0  0  0  0  0  0  0  0  0  0  0  0
    0.6774   -2.6074   -0.9115 C   0  0  0  0  0  0  0  0  0  0  0  0
   -3.3923    0.2113   -0.3811 C   0  0  0  0  0  0  0  0  0  0  0  0
    1.1490   -1.3211   -1.2255 C   0  0  0  0  0  0  0  0  0  0  0  0
    2.4844   -1.3819   -0.9264 C   0  0  0  0  0  0  0  0  0  0  0  0
   -2.9662    1.4933   -0.7365 C   0  0  0  0  0  0  0  0  0  0  0  0
   -4.6117    0.0238    0.2934 C   0  0  0  0  0  0  0  0  0  0  0  0
   -3.7817    2.5549   -0.4020 C   0  0  0  0  0  0  0  0  0  0  0  0
   -5.4190    1.1161    0.6200 C   0  0  0  0  0  0  0  0  0  0  0  0
   -4.9751    2.3713    0.2579 C   0  0  0  0  0  0  0  0  0  0  0  0
    3.5883   -0.4178   -1.0048 C   0  0  0  0  0  0  0  0  0  0  0  0
   -4.7028    4.4885   -0.0952 C   0  0  0  0  0  0  0  0  0  0  0  0
    4.8984    1.0153    0.3682 C   0  0  0  0  0  0  0  0  0  0  0  0
    5.5057    1.4756   -0.8000 C   0  0  0  0  0  0  0  0  0  0  0  0
    5.2844    1.5318    1.6050 C   0  0  0  0  0  0  0  0  0  0  0  0
    6.4991    2.4524   -0.7315 C   0  0  0  0  0  0  0  0  0  0  0  0
    6.2776    2.5086    1.6736 C   0  0  0  0  0  0  0  0  0  0  0  0
    6.8852    2.9689    0.5053 C   0  0  0  0  0  0  0  0  0  0  0  0
   -2.9134   -4.5817   -0.1909 H   0  0  0  0  0  0  0  0  0  0  0  0
   -3.7131   -3.2170    0.6186 H   0  0  0  0  0  0  0  0  0  0  0  0
   -0.7592   -2.8098    2.3423 H   0  0  0  0  0  0  0  0  0  0  0  0
   -0.1785   -4.2286    1.4415 H   0  0  0  0  0  0  0  0  0  0  0  0
   -1.2075   -2.7329   -1.9430 H   0  0  0  0  0  0  0  0  0  0  0  0
   -0.6642   -4.2157   -1.2326 H   0  0  0  0  0  0  0  0  0  0  0  0
   -1.0266   -0.8934    0.6493 H   0  0  0  0  0  0  0  0  0  0  0  0
   -3.2135   -1.7174   -1.1721 H   0  0  0  0  0  0  0  0  0  0  0  0
   -1.8401   -0.6867   -1.5074 H   0  0  0  0  0  0  0  0  0  0  0  0
    0.6056   -0.4728   -1.6141 H   0  0  0  0  0  0  0  0  0  0  0  0
   -2.0274    1.6577   -1.2547 H   0  0  0  0  0  0  0  0  0  0  0  0
   -4.9406   -0.9754    0.5675 H   0  0  0  0  0  0  0  0  0  0  0  0
   -6.3598    0.9758    1.1398 H   0  0  0  0  0  0  0  0  0  0  0  0
    4.4529   -0.9166   -1.4610 H   0  0  0  0  0  0  0  0  0  0  0  0
    3.2549    0.4141   -1.6386 H   0  0  0  0  0  0  0  0  0  0  0  0
   -5.2243    5.0425   -0.8842 H   0  0  0  0  0  0  0  0  0  0  0  0
   -4.3835    5.1956    0.6790 H   0  0  0  0  0  0  0  0  0  0  0  0
    5.2640    1.1181   -1.7948 H   0  0  0  0  0  0  0  0  0  0  0  0
    4.8147    1.1770    2.5184 H   0  0  0  0  0  0  0  0  0  0  0  0
    6.9739    2.8106   -1.6404 H   0  0  0  0  0  0  0  0  0  0  0  0
    6.5782    2.9107    2.6367 H   0  0  0  0  0  0  0  0  0  0  0  0
    7.6589    3.7292    0.5588 H   0  0  0  0  0  0  0  0  0  0  0  0
  1  9  1  0  0  0  0
  1 10  1  0  0  0  0
  2  7  1  0  0  0  0
  2 16  1  0  0  0  0
  3 19  1  0  0  0  0
  3 23  1  0  0  0  0
  4 21  1  0  0  0  0
  4 23  1  0  0  0  0
  5 22  1  0  0  0  0
  5 24  1  0  0  0  0
  6  8  1  0  0  0  0
  6 12  1  0  0  0  0
  6 36  1  0  0  0  0
  7 13  2  0  0  0  0
  8  9  1  0  0  0  0
  8 10  1  0  0  0  0
  8 11  1  0  0  0  0
  9 30  1  0  0  0  0
  9 31  1  0  0  0  0
 10 32  1  0  0  0  0
 10 33  1  0  0  0  0
 11 13  1  0  0  0  0
 11 34  1  0  0  0  0
 11 35  1  0  0  0  0
 12 14  1  0  0  0  0
 12 37  1  0  0  0  0
 12 38  1  0  0  0  0
 13 15  1  0  0  0  0
 14 17  2  0  0  0  0
 14 18  1  0  0  0  0
 15 16  2  0  0  0  0
 15 39  1  0  0  0  0
 16 22  1  0  0  0  0
 17 19  1  0  0  0  0
 17 40  1  0  0  0  0
 18 20  2  0  0  0  0
 18 41  1  0  0  0  0
 19 21  2  0  0  0  0
 20 21  1  0  0  0  0
 20 42  1  0  0  0  0
 22 43  1  0  0  0  0
 22 44  1  0  0  0  0
 23 45  1  0  0  0  0
 23 46  1  0  0  0  0
 24 25  2  0  0  0  0
 24 26  1  0  0  0  0
 25 27  1  0  0  0  0
 25 47  1  0  0  0  0
 26 28  2  0  0  0  0
 26 48  1  0  0  0  0
 27 29  2  0  0  0  0
 27 49  1  0  0  0  0
 28 29  1  0  0  0  0
 28 50  1  0  0  0  0
 29 51  1  0  0  0  0
M  END
> <PUBCHEM_COMPOUND_CID>
56775661

> <PUBCHEM_CONFORMER_RMSD>
1.4

> <PUBCHEM_CONFORMER_DIVERSEORDER>
1
51
28
8
29
31
39
72
56
70
25
48
71
4
53
14
62
7
5
59
26
61
36
22
17
65
58
44
10
60
20
57
66
18
64
67
24
42
50
43
47
11
69
15
16
68
30
33
45
46
41
12
63
35
3
54
40
49
38
55
23
21
13
2
37
19
34
27
6
52
9
32

> <PUBCHEM_MMFF94_PARTIAL_CHARGES>
39
1 -0.52
10 0.26
11 0.18
12 0.41
13 0.11
14 -0.14
15 -0.15
16 -0.04
17 -0.15
18 -0.15
19 0.08
2 -0.02
20 -0.15
21 0.08
22 0.46
23 0.56
24 0.08
25 -0.15
26 -0.15
27 -0.15
28 -0.15
29 -0.15
3 -0.36
36 0.36
39 0.15
4 -0.36
40 0.15
41 0.15
42 0.15
47 0.15
48 0.15
49 0.15
5 -0.36
50 0.15
51 0.15
6 -0.84
7 -0.41
8 0.21
9 0.26

> <PUBCHEM_EFFECTIVE_ROTOR_COUNT>
9.4

> <PUBCHEM_PHARMACOPHORE_FEATURES>
12
1 1 acceptor
1 3 acceptor
1 4 acceptor
1 5 acceptor
1 6 cation
1 6 donor
1 7 acceptor
4 1 8 9 10 rings
5 2 7 13 15 16 rings
5 3 4 19 21 23 rings
6 14 17 18 19 20 21 rings
6 24 25 26 27 28 29 rings

> <PUBCHEM_HEAVY_ATOM_COUNT>
29

> <PUBCHEM_ATOM_DEF_STEREO_COUNT>
0

> <PUBCHEM_ATOM_UDEF_STEREO_COUNT>
0

> <PUBCHEM_BOND_DEF_STEREO_COUNT>
0

> <PUBCHEM_BOND_UDEF_STEREO_COUNT>
0

> <PUBCHEM_ISOTOPIC_ATOM_COUNT>
0

> <PUBCHEM_COMPONENT_COUNT>
1

> <PUBCHEM_CACTVS_TAUTO_COUNT>
1

> <PUBCHEM_CONFORMER_ID>
036253ED00000001

> <PUBCHEM_MMFF94_ENERGY>
77.8088

> <PUBCHEM_FEATURE_SELFOVERLAP>
61.055

> <PUBCHEM_SHAPE_FINGERPRINT>
10675989 125 17981608160781108624
10838868 160 18272645728343274881
11059845 2 18195776693149840938
11386260 185 17190655681548912053
11479125 193 18127986208744148769
11621639 148 18266189516788210883
11720765 8 17554336817531434550
12107183 9 18188757359262804266
12988421 55 18041547092370970487
14028597 1 17532080769334011499
14251764 75 18199755743520143585
14347329 18 18342450495980175720
14395042 24 17970640791088800267
14429114 114 18268430144505981941
14739800 52 17973724671721724747
14849402 71 18048036268385918434
15142526 21 18192154798378444491
15198563 99 17770769423459636255
15338160 23 18264488571487293908
15968369 153 17910952774959957276
16067689 391 16555972675041414180
16067690 210 18044640139071234080
1768 210 18341034256089282797
18393751 57 18260834774431949371
19053607 189 18341601591099084328
19246450 95 17393566266167392464
19304671 126 17489034747203783004
19438510 23 18409166610589924658
20609170 109 17098907358606883649
21302155 148 18409730703257990316
21401589 2 18409732863462886603
22956985 138 16024237172804850722
23569914 2 16770662361887628720
24771293 8 18198638795016379035
2748736 6 18341320128822489940
2838139 119 18343578517205515966
3246875 12 18410577271729866969
376196 1 18268712710293512431
437795 171 18120089481441803452
44249763 50 17559383859485986668
508180 173 17833289527368327938
508706 21 17914041256215037778
5219985 13 18343863333835256766
58902169 19 13110145148087198072
6371009 1 18336539538143070061
7288768 16 18334292063414010335
7808743 9 18410571816367182994
9849439 229 18336827481393126037
9896288 288 18190181372675952594
9980921 52 12325969061306695641
9981440 41 18410572920153452306

> <PUBCHEM_SHAPE_MULTIPOLES>
557.5
16.79
6.71
1.33
22
0.24
-0.37
-24.46
-3.46
-7.38
-1.01
1.05
0.51
2.41

> <PUBCHEM_SHAPE_SELFOVERLAP>
1222.977

> <PUBCHEM_SHAPE_VOLUME>
303.4

> <PUBCHEM_COORDINATE_TYPE>
2
5
10

$$$$
