26743266
  -OEChem-12032416193D

 72 75  0     1  0  0  0  0  0999 V2000
    4.6204    2.0631   -1.3803 O   0  0  0  0  0  0  0  0  0  0  0  0
   -3.0231    0.2978   -1.9089 O   0  0  0  0  0  0  0  0  0  0  0  0
    8.0795   -3.5609    1.3570 O   0  0  0  0  0  0  0  0  0  0  0  0
    0.5857    3.3400    1.8300 N   0  0  0  0  0  0  0  0  0  0  0  0
    5.5001    0.3685   -0.0577 N   0  0  0  0  0  0  0  0  0  0  0  0
    7.1796   -1.9126   -0.0091 N   0  0  0  0  0  0  0  0  0  0  0  0
   -1.6548    0.5102   -2.0257 N   0  0  0  0  0  0  0  0  0  0  0  0
    2.1707    2.1301   -0.3451 C   0  0  1  0  0  0  0  0  0  0  0  0
    0.6840    1.7789   -0.0986 C   0  0  2  0  0  0  0  0  0  0  0  0
    2.4583    3.5272    0.2298 C   0  0  0  0  0  0  0  0  0  0  0  0
    0.2890    1.9816    1.3739 C   0  0  0  0  0  0  0  0  0  0  0  0
    3.1566    1.0969    0.2133 C   0  0  0  0  0  0  0  0  0  0  0  0
    2.0026    3.6656    1.6818 C   0  0  0  0  0  0  0  0  0  0  0  0
    0.3160    0.3696   -0.5644 C   0  0  0  0  0  0  0  0  0  0  0  0
    4.4874    1.2264   -0.4835 C   0  0  0  0  0  0  0  0  0  0  0  0
   -1.1589    0.2436   -0.8140 C   0  0  0  0  0  0  0  0  0  0  0  0
    6.8221    0.4290   -0.6864 C   0  0  0  0  0  0  0  0  0  0  0  0
    5.3967   -0.5848    1.0550 C   0  0  0  0  0  0  0  0  0  0  0  0
    7.2832   -0.9593   -1.1220 C   0  0  0  0  0  0  0  0  0  0  0  0
    5.8575   -1.9731    0.6191 C   0  0  0  0  0  0  0  0  0  0  0  0
   -2.1573   -0.1381    0.0990 C   0  0  0  0  0  0  0  0  0  0  0  0
   -3.3100   -0.0879   -0.6393 C   0  0  0  0  0  0  0  0  0  0  0  0
    8.1929   -2.7688    0.4183 C   0  0  0  0  0  0  0  0  0  0  0  0
   -4.6941   -0.3452   -0.3660 C   0  0  0  0  0  0  0  0  0  0  0  0
   -8.8260   -1.1116    0.4510 C   0  0  0  0  0  0  0  0  0  0  0  0
   -7.3866   -0.8442    0.1663 C   0  0  0  0  0  0  0  0  0  0  0  0
    9.4987   -2.6958   -0.3320 C   0  0  0  0  0  0  0  0  0  0  0  0
   -5.0901   -0.7469    0.9098 C   0  0  0  0  0  0  0  0  0  0  0  0
   -5.6446   -0.1928   -1.3755 C   0  0  0  0  0  0  0  0  0  0  0  0
   -6.4363   -0.9965    1.1760 C   0  0  0  0  0  0  0  0  0  0  0  0
   -6.9908   -0.4424   -1.1095 C   0  0  0  0  0  0  0  0  0  0  0  0
   -9.0465   -2.5838    0.9185 C   0  0  0  0  0  0  0  0  0  0  0  0
   -9.3632   -0.1751    1.5773 C   0  0  0  0  0  0  0  0  0  0  0  0
   -9.7985   -0.9088   -0.7580 C   0  0  0  0  0  0  0  0  0  0  0  0
    2.2870    2.1863   -1.4363 H   0  0  0  0  0  0  0  0  0  0  0  0
    0.0983    2.4993   -0.6913 H   0  0  0  0  0  0  0  0  0  0  0  0
    1.9283    4.2726   -0.3787 H   0  0  0  0  0  0  0  0  0  0  0  0
    3.5216    3.7808    0.1603 H   0  0  0  0  0  0  0  0  0  0  0  0
   -0.7858    1.8279    1.5063 H   0  0  0  0  0  0  0  0  0  0  0  0
    0.7961    1.2527    2.0183 H   0  0  0  0  0  0  0  0  0  0  0  0
    2.8073    0.0789    0.0181 H   0  0  0  0  0  0  0  0  0  0  0  0
    3.2897    1.2153    1.2918 H   0  0  0  0  0  0  0  0  0  0  0  0
    2.6081    3.0436    2.3501 H   0  0  0  0  0  0  0  0  0  0  0  0
    2.1549    4.7029    2.0007 H   0  0  0  0  0  0  0  0  0  0  0  0
    0.6175   -0.3851    0.1724 H   0  0  0  0  0  0  0  0  0  0  0  0
    0.8441    0.1304   -1.4969 H   0  0  0  0  0  0  0  0  0  0  0  0
    0.3190    3.4328    2.8097 H   0  0  0  0  0  0  0  0  0  0  0  0
    7.5115    0.8427    0.0593 H   0  0  0  0  0  0  0  0  0  0  0  0
    6.8168    1.1069   -1.5455 H   0  0  0  0  0  0  0  0  0  0  0  0
    4.3835   -0.6503    1.4540 H   0  0  0  0  0  0  0  0  0  0  0  0
    6.0419   -0.2051    1.8564 H   0  0  0  0  0  0  0  0  0  0  0  0
    6.6391   -1.3392   -1.9242 H   0  0  0  0  0  0  0  0  0  0  0  0
    8.2985   -0.8978   -1.5170 H   0  0  0  0  0  0  0  0  0  0  0  0
    5.8616   -2.6521    1.4773 H   0  0  0  0  0  0  0  0  0  0  0  0
    5.1680   -2.3858   -0.1274 H   0  0  0  0  0  0  0  0  0  0  0  0
   -2.0446   -0.4108    1.1381 H   0  0  0  0  0  0  0  0  0  0  0  0
    9.9502   -1.7081   -0.2066 H   0  0  0  0  0  0  0  0  0  0  0  0
    9.3407   -2.9143   -1.3915 H   0  0  0  0  0  0  0  0  0  0  0  0
   10.1912   -3.4422    0.0693 H   0  0  0  0  0  0  0  0  0  0  0  0
   -4.3728   -0.8740    1.7165 H   0  0  0  0  0  0  0  0  0  0  0  0
   -5.3749    0.1186   -2.3815 H   0  0  0  0  0  0  0  0  0  0  0  0
   -6.7170   -1.3081    2.1779 H   0  0  0  0  0  0  0  0  0  0  0  0
   -7.6873   -0.3088   -1.9298 H   0  0  0  0  0  0  0  0  0  0  0  0
  -10.1077   -2.7898    1.1003 H   0  0  0  0  0  0  0  0  0  0  0  0
   -8.6917   -3.2905    0.1589 H   0  0  0  0  0  0  0  0  0  0  0  0
   -8.5111   -2.8023    1.8489 H   0  0  0  0  0  0  0  0  0  0  0  0
  -10.4283   -0.3507    1.7678 H   0  0  0  0  0  0  0  0  0  0  0  0
   -8.8357   -0.3304    2.5249 H   0  0  0  0  0  0  0  0  0  0  0  0
   -9.2402    0.8784    1.2993 H   0  0  0  0  0  0  0  0  0  0  0  0
  -10.8352   -1.1239   -0.4713 H   0  0  0  0  0  0  0  0  0  0  0  0
   -9.7754    0.1246   -1.1233 H   0  0  0  0  0  0  0  0  0  0  0  0
   -9.5509   -1.5789   -1.5896 H   0  0  0  0  0  0  0  0  0  0  0  0
  1 15  2  0  0  0  0
  2  7  1  0  0  0  0
  2 22  1  0  0  0  0
  3 23  2  0  0  0  0
  4 11  1  0  0  0  0
  4 13  1  0  0  0  0
  4 47  1  0  0  0  0
  5 15  1  0  0  0  0
  5 17  1  0  0  0  0
  5 18  1  0  0  0  0
  6 19  1  0  0  0  0
  6 20  1  0  0  0  0
  6 23  1  0  0  0  0
  7 16  2  0  0  0  0
  8  9  1  0  0  0  0
  8 10  1  0  0  0  0
  8 12  1  0  0  0  0
  8 35  1  0  0  0  0
  9 11  1  0  0  0  0
  9 14  1  0  0  0  0
  9 36  1  0  0  0  0
 10 13  1  0  0  0  0
 10 37  1  0  0  0  0
 10 38  1  0  0  0  0
 11 39  1  0  0  0  0
 11 40  1  0  0  0  0
 12 15  1  0  0  0  0
 12 41  1  0  0  0  0
 12 42  1  0  0  0  0
 13 43  1  0  0  0  0
 13 44  1  0  0  0  0
 14 16  1  0  0  0  0
 14 45  1  0  0  0  0
 14 46  1  0  0  0  0
 16 21  1  0  0  0  0
 17 19  1  0  0  0  0
 17 48  1  0  0  0  0
 17 49  1  0  0  0  0
 18 20  1  0  0  0  0
 18 50  1  0  0  0  0
 18 51  1  0  0  0  0
 19 52  1  0  0  0  0
 19 53  1  0  0  0  0
 20 54  1  0  0  0  0
 20 55  1  0  0  0  0
 21 22  2  0  0  0  0
 21 56  1  0  0  0  0
 22 24  1  0  0  0  0
 23 27  1  0  0  0  0
 24 28  2  0  0  0  0
 24 29  1  0  0  0  0
 25 26  1  0  0  0  0
 25 32  1  0  0  0  0
 25 33  1  0  0  0  0
 25 34  1  0  0  0  0
 26 30  2  0  0  0  0
 26 31  1  0  0  0  0
 27 57  1  0  0  0  0
 27 58  1  0  0  0  0
 27 59  1  0  0  0  0
 28 30  1  0  0  0  0
 28 60  1  0  0  0  0
 29 31  2  0  0  0  0
 29 61  1  0  0  0  0
 30 62  1  0  0  0  0
 31 63  1  0  0  0  0
 32 64  1  0  0  0  0
 32 65  1  0  0  0  0
 32 66  1  0  0  0  0
 33 67  1  0  0  0  0
 33 68  1  0  0  0  0
 33 69  1  0  0  0  0
 34 70  1  0  0  0  0
 34 71  1  0  0  0  0
 34 72  1  0  0  0  0
M  END
> <PUBCHEM_COMPOUND_CID>
26743266

> <PUBCHEM_CONFORMER_RMSD>
1.2

> <PUBCHEM_CONFORMER_DIVERSEORDER>
1
43
82
22
81
121
38
62
79
39
108
9
54
46
56
52
109
47
99
2
66
85
20
90
32
55
74
16
15
87
94
70
119
111
126
45
124
59
11
4
44
36
98
17
120
33
25
116
63
86
28
76
93
122
80
50
57
77
23
34
42
83
113
92
60
48
68
123
91
51
69
14
84
64
114
58
65
6
10
40
103
24
18
53
71
97
125
118
105
73
117
13
75
104
106
21
29
61
41
78
5
3
8
101
115
27
31
100
95
88
30
67
102
96
112
72
26
107
12
110
89
37
49
19
35
7

> <PUBCHEM_MMFF94_PARTIAL_CHARGES>
34
1 -0.57
11 0.27
12 0.06
13 0.27
14 0.18
15 0.57
16 0.11
17 0.3
18 0.3
19 0.3
2 -0.02
20 0.3
21 -0.15
22 0.09
23 0.57
24 0.05
25 0.14
26 -0.14
27 0.06
28 -0.15
29 -0.15
3 -0.57
30 -0.15
31 -0.15
4 -0.9
47 0.36
5 -0.66
56 0.15
6 -0.66
60 0.15
61 0.15
62 0.15
63 0.15
7 -0.41

> <PUBCHEM_EFFECTIVE_ROTOR_COUNT>
10.4

> <PUBCHEM_PHARMACOPHORE_FEATURES>
10
1 1 acceptor
1 3 acceptor
1 4 cation
1 4 donor
1 7 acceptor
4 25 32 33 34 hydrophobe
5 2 7 16 21 22 rings
6 24 26 28 29 30 31 rings
6 4 8 9 10 11 13 rings
6 5 6 17 18 19 20 rings

> <PUBCHEM_HEAVY_ATOM_COUNT>
34

> <PUBCHEM_ATOM_DEF_STEREO_COUNT>
2

> <PUBCHEM_ATOM_UDEF_STEREO_COUNT>
0

> <PUBCHEM_BOND_DEF_STEREO_COUNT>
0

> <PUBCHEM_BOND_UDEF_STEREO_COUNT>
0

> <PUBCHEM_ISOTOPIC_ATOM_COUNT>
0

> <PUBCHEM_COMPONENT_COUNT>
1

> <PUBCHEM_CACTVS_TAUTO_COUNT>
1

> <PUBCHEM_CONFORMER_ID>
019811E200000001

> <PUBCHEM_MMFF94_ENERGY>
77.8989

> <PUBCHEM_FEATURE_SELFOVERLAP>
50.747

> <PUBCHEM_SHAPE_FINGERPRINT>
10258705 36 17968667111244863939
10533779 47 18335430110221427435
11146346 77 18040719203409106786
11297750 10 18342447132969152648
11409948 35 18334010575985050699
11456790 92 17917717920193108009
11476731 38 18411704301693273700
12013929 2 18261388937388451263
12133447 93 16081356459245103373
12144603 126 17917433185342188956
12592606 108 18409450280010014987
13673619 4 18260544519772199292
13782708 43 18334852865809729463
14118638 360 12901808520872422509
14347424 109 17774722068745081776
14359421 15 17676765358736489938
14395042 70 17345179203413452160
150020 25 17167582687216109539
15131766 46 17553477386223433489
15198563 99 16732974298420849829
15301273 46 17676764371062120821
15320294 125 17775282768235360620
15419008 145 17917437489094573249
15604295 49 11167677456363690219
1577012 14 16988002851072375421
17134984 74 17603580808466523586
19301679 30 17987808401939908286
19841028 212 18409166619654690826
20105231 36 16226050016217600793
2026 5 18187641354454559770
20766409 102 7925639929977987335
20771845 140 17418095408399832390
20771845 65 18342174471634260472
21130935 74 18194683894418778155
21344244 181 17676488367208906330
21360443 126 11097856302471025521
21365058 113 17748828535514464828
22899556 105 17459463361016558210
23569917 315 17969231213146390691
23569943 247 18413099559651756007
25242607 90 18130494272345307426
25269216 80 16370725898845695711
3178227 256 18342176695455830039
3918712 181 8430300335172117398
406291 66 18340485574275622442
4258327 124 8070022272717206737
437795 160 14979950411641950623
439807 62 18186804673640119054
45377200 153 16878797135887811787
5372103 7 10015863184753881406
54039377 194 18410856526124414646
54583773 228 7997676585880625881
57527295 17 16589423082938921680
58260988 647 18259987063519740896
6057620 51 11314301755394748429
6058803 2 16841330271294883341
6201320 215 18200599091405521353
9962374 69 18059567036120873967

> <PUBCHEM_SHAPE_MULTIPOLES>
662.17
34.25
3.57
1.55
21.21
1.34
0.01
-36.69
-3.8
-9.2
-1.88
1.02
0.4
-0.26

> <PUBCHEM_SHAPE_SELFOVERLAP>
1392.337

> <PUBCHEM_SHAPE_VOLUME>
371.4

> <PUBCHEM_COORDINATE_TYPE>
2
5
10

$$$$
