75536911
  -OEChem-12032416343D

 39 41  0     1  0  0  0  0  0999 V2000
    0.9849    2.8019    0.1600 O   0  0  0  0  0  0  0  0  0  0  0  0
   -1.3200    0.8134    0.7198 O   0  0  0  0  0  0  0  0  0  0  0  0
    2.2503    0.0981    0.0240 N   0  0  1  0  0  0  0  0  0  0  0  0
    3.0691   -1.0576    0.4462 C   0  0  0  0  0  0  0  0  0  0  0  0
    4.2452   -1.2352   -0.5384 C   0  0  0  0  0  0  0  0  0  0  0  0
    2.4710   -2.3504   -0.1500 C   0  0  0  0  0  0  0  0  0  0  0  0
    3.9188   -2.7459   -0.5194 C   0  0  0  0  0  0  0  0  0  0  0  0
    0.9200   -0.0229    0.6379 C   0  0  0  0  0  0  0  0  0  0  0  0
    2.9258    1.3252    0.4839 C   0  0  0  0  0  0  0  0  0  0  0  0
   -0.1916    0.6757   -0.1518 C   0  0  2  0  0  0  0  0  0  0  0  0
    2.3645    2.6025   -0.1348 C   0  0  0  0  0  0  0  0  0  0  0  0
    0.1293    2.0603   -0.7056 C   0  0  0  0  0  0  0  0  0  0  0  0
   -2.4618    0.1665    0.3412 C   0  0  0  0  0  0  0  0  0  0  0  0
   -3.0697    0.4783   -0.8749 C   0  0  0  0  0  0  0  0  0  0  0  0
   -3.0200   -0.8060    1.1708 C   0  0  0  0  0  0  0  0  0  0  0  0
   -4.2359   -0.1823   -1.2614 C   0  0  0  0  0  0  0  0  0  0  0  0
   -4.1860   -1.4667    0.7844 C   0  0  0  0  0  0  0  0  0  0  0  0
   -4.7940   -1.1548   -0.4317 C   0  0  0  0  0  0  0  0  0  0  0  0
    3.3308   -1.1224    1.5094 H   0  0  0  0  0  0  0  0  0  0  0  0
    5.2330   -0.9682   -0.1529 H   0  0  0  0  0  0  0  0  0  0  0  0
    4.1173   -0.7828   -1.5299 H   0  0  0  0  0  0  0  0  0  0  0  0
    1.9785   -3.0230    0.5580 H   0  0  0  0  0  0  0  0  0  0  0  0
    1.8311   -2.2318   -1.0338 H   0  0  0  0  0  0  0  0  0  0  0  0
    4.0418   -3.2721   -1.4692 H   0  0  0  0  0  0  0  0  0  0  0  0
    4.4404   -3.3009    0.2690 H   0  0  0  0  0  0  0  0  0  0  0  0
    0.9309    0.3353    1.6777 H   0  0  0  0  0  0  0  0  0  0  0  0
    0.5948   -1.0663    0.7373 H   0  0  0  0  0  0  0  0  0  0  0  0
    3.9894    1.2945    0.2162 H   0  0  0  0  0  0  0  0  0  0  0  0
    2.8846    1.3988    1.5790 H   0  0  0  0  0  0  0  0  0  0  0  0
   -0.4446    0.0345   -1.0087 H   0  0  0  0  0  0  0  0  0  0  0  0
    2.9015    3.4553    0.2958 H   0  0  0  0  0  0  0  0  0  0  0  0
    2.5454    2.6390   -1.2162 H   0  0  0  0  0  0  0  0  0  0  0  0
   -0.7876    2.6495   -0.8141 H   0  0  0  0  0  0  0  0  0  0  0  0
    0.5711    1.9817   -1.7066 H   0  0  0  0  0  0  0  0  0  0  0  0
   -2.6553    1.2390   -1.5301 H   0  0  0  0  0  0  0  0  0  0  0  0
   -2.5502   -1.0534    2.1188 H   0  0  0  0  0  0  0  0  0  0  0  0
   -4.7105    0.0618   -2.2072 H   0  0  0  0  0  0  0  0  0  0  0  0
   -4.6206   -2.2240    1.4303 H   0  0  0  0  0  0  0  0  0  0  0  0
   -5.7022   -1.6690   -0.7324 H   0  0  0  0  0  0  0  0  0  0  0  0
  1 11  1  0  0  0  0
  1 12  1  0  0  0  0
  2 10  1  0  0  0  0
  2 13  1  0  0  0  0
  3  4  1  0  0  0  0
  3  8  1  0  0  0  0
  3  9  1  0  0  0  0
  4  5  1  0  0  0  0
  4  6  1  0  0  0  0
  4 19  1  0  0  0  0
  5  7  1  0  0  0  0
  5 20  1  0  0  0  0
  5 21  1  0  0  0  0
  6  7  1  0  0  0  0
  6 22  1  0  0  0  0
  6 23  1  0  0  0  0
  7 24  1  0  0  0  0
  7 25  1  0  0  0  0
  8 10  1  0  0  0  0
  8 26  1  0  0  0  0
  8 27  1  0  0  0  0
  9 11  1  0  0  0  0
  9 28  1  0  0  0  0
  9 29  1  0  0  0  0
 10 12  1  0  0  0  0
 10 30  1  0  0  0  0
 11 31  1  0  0  0  0
 11 32  1  0  0  0  0
 12 33  1  0  0  0  0
 12 34  1  0  0  0  0
 13 14  2  0  0  0  0
 13 15  1  0  0  0  0
 14 16  1  0  0  0  0
 14 35  1  0  0  0  0
 15 17  2  0  0  0  0
 15 36  1  0  0  0  0
 16 18  2  0  0  0  0
 16 37  1  0  0  0  0
 17 18  1  0  0  0  0
 17 38  1  0  0  0  0
 18 39  1  0  0  0  0
M  END
> <PUBCHEM_COMPOUND_CID>
75536911

> <PUBCHEM_CONFORMER_RMSD>
0.8

> <PUBCHEM_CONFORMER_DIVERSEORDER>
1
8
10
25
3
19
11
6
23
14
13
5
18
7
17
24
9
2
4
12
22
21
20
15
16

> <PUBCHEM_MMFF94_PARTIAL_CHARGES>
20
1 -0.56
10 0.28
11 0.28
12 0.28
13 0.08
14 -0.15
15 -0.15
16 -0.15
17 -0.15
18 -0.15
2 -0.36
3 -0.75
35 0.15
36 0.15
37 0.15
38 0.15
39 0.15
4 0.21
8 0.27
9 0.27

> <PUBCHEM_EFFECTIVE_ROTOR_COUNT>
5.2

> <PUBCHEM_PHARMACOPHORE_FEATURES>
6
1 1 acceptor
1 2 acceptor
1 3 cation
4 4 5 6 7 rings
6 13 14 15 16 17 18 rings
7 1 3 8 9 10 11 12 rings

> <PUBCHEM_HEAVY_ATOM_COUNT>
18

> <PUBCHEM_ATOM_DEF_STEREO_COUNT>
1

> <PUBCHEM_ATOM_UDEF_STEREO_COUNT>
0

> <PUBCHEM_BOND_DEF_STEREO_COUNT>
0

> <PUBCHEM_BOND_UDEF_STEREO_COUNT>
0

> <PUBCHEM_ISOTOPIC_ATOM_COUNT>
0

> <PUBCHEM_COMPONENT_COUNT>
1

> <PUBCHEM_CACTVS_TAUTO_COUNT>
1

> <PUBCHEM_CONFORMER_ID>
04809A0F00000001

> <PUBCHEM_MMFF94_ENERGY>
68.2975

> <PUBCHEM_FEATURE_SELFOVERLAP>
30.448

> <PUBCHEM_SHAPE_FINGERPRINT>
11137873 295 18334860498356887403
116883 192 18263636286361256965
12363563 72 18337678503340276866
12553582 1 18190747422962187218
12596602 18 16558742459830475666
12616999 72 18115311201765062836
12670546 177 17531254962790993606
12707595 3 18333730204144795018
13296908 3 18260828206904603657
13464513 79 18201722843089633206
13533116 47 18271528706149195843
13544592 145 18114177532531114543
13544653 18 18272931596279608008
13955234 65 18198623417909248680
14178000 29 18341614780784738398
14251764 30 17416701150494152710
14252887 29 18412258450282720400
14767858 380 18264509364046421142
14790565 3 17185032765699286316
14848160 33 18410572877071384159
14863182 85 18337957904380488220
14866123 147 17763465011212291561
15352361 1 18338798905726020814
15477762 27 18412262826944058962
15502722 9 18335986487988869604
15635459 17 18260829331985737707
15848702 151 18410290320115991929
17357779 13 18261665978782727428
17818456 19 17773327746715371769
1813 80 18130802109239944118
18186145 218 17749104496148051817
18222031 100 18272364240054069198
193927 3 18272942591433296199
200 152 18202278104856097299
20281475 54 18338524023634405120
20645477 70 18335695096085334875
20671657 53 18410578361860321297
20693207 138 18113617898007687423
20871999 31 18041565732423338454
221490 88 18335426819337754003
2215653 11 18334849507762554047
22224240 67 17986095526307417064
23557571 272 17531237400933665709
23559900 14 18408877451800708993
23596394 208 18187079563782761182
23598288 3 17632022957609935009
2871803 45 18261673671196202906
312423 11 18272665549078898545
33824 294 18338231682527761144
3421961 26 18412543215098806530
4463277 69 18201718418734962398
46194498 28 17676773179359381583
5207 123 18340763733152069229
5281201 14 18113897191209635365
59682541 52 18337653275340340383
6669772 16 18053677038689653596
7364860 26 18339645654317602720
9709674 26 18188491410175909499

> <PUBCHEM_SHAPE_MULTIPOLES>
353.71
9.49
2.89
1.01
5.26
0.61
0.03
-6.32
1.31
-3.54
0.27
0.75
-0.11
0.85

> <PUBCHEM_SHAPE_SELFOVERLAP>
737.844

> <PUBCHEM_SHAPE_VOLUME>
200.6

> <PUBCHEM_COORDINATE_TYPE>
2
5
10

$$$$
