71693200
  -OEChem-12032416303D

 73 75  0     1  0  0  0  0  0999 V2000
   -4.3570    1.4749    1.0714 O   0  0  0  0  0  0  0  0  0  0  0  0
   -8.3755    1.5920   -1.6940 O   0  0  0  0  0  0  0  0  0  0  0  0
    8.4652    1.9407   -0.4008 O   0  0  0  0  0  0  0  0  0  0  0  0
   -6.8673    2.5657   -0.3060 O   0  0  0  0  0  0  0  0  0  0  0  0
   -3.6636   -0.6755    1.6102 N   0  0  0  0  0  0  0  0  0  0  0  0
    4.1191    0.0166    0.7765 N   0  0  0  0  0  0  0  0  0  0  0  0
    4.4610   -1.8490   -0.3822 N   0  0  0  0  0  0  0  0  0  0  0  0
   -0.2094    0.3889    0.5886 C   0  0  1  0  0  0  0  0  0  0  0  0
   -1.4733   -0.5060    0.5505 C   0  0  1  0  0  0  0  0  0  0  0  0
    0.7967   -0.0582   -0.4828 C   0  0  0  0  0  0  0  0  0  0  0  0
    1.2311   -1.5245   -0.2984 C   0  0  2  0  0  0  0  0  0  0  0  0
   -0.5539    1.8684    0.3914 C   0  0  0  0  0  0  0  0  0  0  0  0
    0.0453   -2.4375   -0.0606 C   0  0  0  0  0  0  0  0  0  0  0  0
   -1.1588   -1.9631    0.3051 C   0  0  0  0  0  0  0  0  0  0  0  0
   -2.2868   -0.3698    1.8426 C   0  0  0  0  0  0  0  0  0  0  0  0
    2.2610   -1.6578    0.8289 C   0  0  0  0  0  0  0  0  0  0  0  0
    0.5259    2.7529    1.0068 C   0  0  0  0  0  0  0  0  0  0  0  0
   -0.7290    2.1808   -1.0913 C   0  0  0  0  0  0  0  0  0  0  0  0
    0.2633   -3.9060   -0.2975 C   0  0  0  0  0  0  0  0  0  0  0  0
    3.6202   -1.1955    0.3879 C   0  0  0  0  0  0  0  0  0  0  0  0
   -4.6040    0.2822    1.2379 C   0  0  0  0  0  0  0  0  0  0  0  0
   -6.3405   -0.6929   -0.4132 C   0  0  0  0  0  0  0  0  0  0  0  0
   -6.0027   -0.2810    1.0424 C   0  0  0  0  0  0  0  0  0  0  0  0
    5.3650    0.1543    0.2203 C   0  0  0  0  0  0  0  0  0  0  0  0
    5.5552   -1.0228   -0.4982 C   0  0  0  0  0  0  0  0  0  0  0  0
   -6.2704    0.4925   -1.4052 C   0  0  0  0  0  0  0  0  0  0  0  0
   -7.7573   -1.3056   -0.4169 C   0  0  0  0  0  0  0  0  0  0  0  0
   -5.3649   -1.7832   -0.9044 C   0  0  0  0  0  0  0  0  0  0  0  0
    6.3127    1.1763    0.2820 C   0  0  0  0  0  0  0  0  0  0  0  0
    6.7565   -1.2083   -1.2029 C   0  0  0  0  0  0  0  0  0  0  0  0
   -7.1742    1.6579   -1.0677 C   0  0  0  0  0  0  0  0  0  0  0  0
    7.5026    0.9749   -0.4254 C   0  0  0  0  0  0  0  0  0  0  0  0
    7.7225   -0.1955   -1.1553 C   0  0  0  0  0  0  0  0  0  0  0  0
    8.1851    3.1131    0.3606 C   0  0  0  0  0  0  0  0  0  0  0  0
    0.2487    0.2694    1.5794 H   0  0  0  0  0  0  0  0  0  0  0  0
   -2.0983   -0.1903   -0.2953 H   0  0  0  0  0  0  0  0  0  0  0  0
    1.6727    0.5970   -0.5099 H   0  0  0  0  0  0  0  0  0  0  0  0
    0.3422   -0.0101   -1.4811 H   0  0  0  0  0  0  0  0  0  0  0  0
    1.6964   -1.8343   -1.2455 H   0  0  0  0  0  0  0  0  0  0  0  0
   -1.4929    2.1145    0.8980 H   0  0  0  0  0  0  0  0  0  0  0  0
   -1.9848   -2.6630    0.4151 H   0  0  0  0  0  0  0  0  0  0  0  0
   -2.2322    0.6402    2.2595 H   0  0  0  0  0  0  0  0  0  0  0  0
   -1.9226   -1.0527    2.6195 H   0  0  0  0  0  0  0  0  0  0  0  0
    2.3765   -2.7056    1.1318 H   0  0  0  0  0  0  0  0  0  0  0  0
    1.9512   -1.1218    1.7330 H   0  0  0  0  0  0  0  0  0  0  0  0
    0.2625    3.8106    0.8963 H   0  0  0  0  0  0  0  0  0  0  0  0
    0.6333    2.5514    2.0780 H   0  0  0  0  0  0  0  0  0  0  0  0
    1.5025    2.6066    0.5350 H   0  0  0  0  0  0  0  0  0  0  0  0
    0.2170    2.1966   -1.6428 H   0  0  0  0  0  0  0  0  0  0  0  0
   -1.1523    3.1873   -1.1988 H   0  0  0  0  0  0  0  0  0  0  0  0
   -1.4259    1.4995   -1.5884 H   0  0  0  0  0  0  0  0  0  0  0  0
    0.6519   -4.0742   -1.3072 H   0  0  0  0  0  0  0  0  0  0  0  0
   -0.6655   -4.4792   -0.2054 H   0  0  0  0  0  0  0  0  0  0  0  0
    0.9749   -4.3194    0.4227 H   0  0  0  0  0  0  0  0  0  0  0  0
   -3.9586   -1.6415    1.7176 H   0  0  0  0  0  0  0  0  0  0  0  0
   -6.1226   -1.1464    1.7081 H   0  0  0  0  0  0  0  0  0  0  0  0
   -6.7123    0.4694    1.4119 H   0  0  0  0  0  0  0  0  0  0  0  0
    3.6535    0.6940    1.3660 H   0  0  0  0  0  0  0  0  0  0  0  0
   -6.5182    0.1575   -2.4214 H   0  0  0  0  0  0  0  0  0  0  0  0
   -5.2489    0.8866   -1.4777 H   0  0  0  0  0  0  0  0  0  0  0  0
   -8.4990   -0.6081   -0.0133 H   0  0  0  0  0  0  0  0  0  0  0  0
   -7.7963   -2.2133    0.1966 H   0  0  0  0  0  0  0  0  0  0  0  0
   -8.0694   -1.5781   -1.4314 H   0  0  0  0  0  0  0  0  0  0  0  0
   -4.3470   -1.3961   -1.0165 H   0  0  0  0  0  0  0  0  0  0  0  0
   -5.3316   -2.6299   -0.2097 H   0  0  0  0  0  0  0  0  0  0  0  0
   -5.6704   -2.1714   -1.8831 H   0  0  0  0  0  0  0  0  0  0  0  0
    6.0808    2.0579    0.8651 H   0  0  0  0  0  0  0  0  0  0  0  0
    6.9369   -2.1141   -1.7729 H   0  0  0  0  0  0  0  0  0  0  0  0
    8.6557   -0.3294   -1.6974 H   0  0  0  0  0  0  0  0  0  0  0  0
   -8.9518    2.3509   -1.4612 H   0  0  0  0  0  0  0  0  0  0  0  0
    9.0548    3.7723    0.2699 H   0  0  0  0  0  0  0  0  0  0  0  0
    7.3272    3.6614   -0.0434 H   0  0  0  0  0  0  0  0  0  0  0  0
    8.0690    2.8847    1.4255 H   0  0  0  0  0  0  0  0  0  0  0  0
  1 21  2  0  0  0  0
  2 31  1  0  0  0  0
  2 70  1  0  0  0  0
  3 32  1  0  0  0  0
  3 34  1  0  0  0  0
  4 31  2  0  0  0  0
  5 15  1  0  0  0  0
  5 21  1  0  0  0  0
  5 55  1  0  0  0  0
  6 20  1  0  0  0  0
  6 24  1  0  0  0  0
  6 58  1  0  0  0  0
  7 20  2  0  0  0  0
  7 25  1  0  0  0  0
  8  9  1  0  0  0  0
  8 10  1  0  0  0  0
  8 12  1  0  0  0  0
  8 35  1  0  0  0  0
  9 14  1  0  0  0  0
  9 15  1  0  0  0  0
  9 36  1  0  0  0  0
 10 11  1  0  0  0  0
 10 37  1  0  0  0  0
 10 38  1  0  0  0  0
 11 13  1  0  0  0  0
 11 16  1  0  0  0  0
 11 39  1  0  0  0  0
 12 17  1  0  0  0  0
 12 18  1  0  0  0  0
 12 40  1  0  0  0  0
 13 14  2  0  0  0  0
 13 19  1  0  0  0  0
 14 41  1  0  0  0  0
 15 42  1  0  0  0  0
 15 43  1  0  0  0  0
 16 20  1  0  0  0  0
 16 44  1  0  0  0  0
 16 45  1  0  0  0  0
 17 46  1  0  0  0  0
 17 47  1  0  0  0  0
 17 48  1  0  0  0  0
 18 49  1  0  0  0  0
 18 50  1  0  0  0  0
 18 51  1  0  0  0  0
 19 52  1  0  0  0  0
 19 53  1  0  0  0  0
 19 54  1  0  0  0  0
 21 23  1  0  0  0  0
 22 23  1  0  0  0  0
 22 26  1  0  0  0  0
 22 27  1  0  0  0  0
 22 28  1  0  0  0  0
 23 56  1  0  0  0  0
 23 57  1  0  0  0  0
 24 25  2  0  0  0  0
 24 29  1  0  0  0  0
 25 30  1  0  0  0  0
 26 31  1  0  0  0  0
 26 59  1  0  0  0  0
 26 60  1  0  0  0  0
 27 61  1  0  0  0  0
 27 62  1  0  0  0  0
 27 63  1  0  0  0  0
 28 64  1  0  0  0  0
 28 65  1  0  0  0  0
 28 66  1  0  0  0  0
 29 32  2  0  0  0  0
 29 67  1  0  0  0  0
 30 33  2  0  0  0  0
 30 68  1  0  0  0  0
 32 33  1  0  0  0  0
 33 69  1  0  0  0  0
 34 71  1  0  0  0  0
 34 72  1  0  0  0  0
 34 73  1  0  0  0  0
M  END
> <PUBCHEM_COMPOUND_CID>
71693200

> <PUBCHEM_CONFORMER_RMSD>
1.2

> <PUBCHEM_CONFORMER_DIVERSEORDER>
1
81
66
29
61
53
56
84
76
36
52
43
77
39
89
88
64
28
70
62
85
14
3
4
83
23
58
17
74
10
59
80
73
60
9
6
46
68
87
79
63
44
42
48
50
11
35
45
37
40
55
75
8
41
26
32
31
21
7
51
78
47
25
16
15
30
72
65
2
82
5
49
27
67
54
19
18
34
33
13
22
71
38
86
24
57
20
69
12

> <PUBCHEM_MMFF94_PARTIAL_CHARGES>
33
1 -0.57
11 0.14
13 -0.28
14 -0.29
15 0.3
16 0.18
19 0.14
2 -0.65
20 0.01
21 0.57
23 0.06
24 -0.15
25 0.23
26 0.06
29 -0.15
3 -0.36
30 -0.15
31 0.66
32 0.08
33 -0.15
34 0.28
4 -0.57
41 0.15
5 -0.73
55 0.37
58 0.27
6 0.03
67 0.15
68 0.15
69 0.15
7 -0.57
70 0.5
9 0.14

> <PUBCHEM_EFFECTIVE_ROTOR_COUNT>
11.8

> <PUBCHEM_PHARMACOPHORE_FEATURES>
13
1 1 acceptor
1 2 acceptor
1 3 acceptor
1 4 acceptor
1 5 donor
1 6 donor
3 12 17 18 hydrophobe
3 2 4 31 anion
3 22 27 28 hydrophobe
3 6 7 20 cation
5 6 7 20 24 25 rings
6 24 25 29 30 32 33 rings
6 8 9 10 11 13 14 rings

> <PUBCHEM_HEAVY_ATOM_COUNT>
34

> <PUBCHEM_ATOM_DEF_STEREO_COUNT>
3

> <PUBCHEM_ATOM_UDEF_STEREO_COUNT>
0

> <PUBCHEM_BOND_DEF_STEREO_COUNT>
0

> <PUBCHEM_BOND_UDEF_STEREO_COUNT>
0

> <PUBCHEM_ISOTOPIC_ATOM_COUNT>
0

> <PUBCHEM_COMPONENT_COUNT>
1

> <PUBCHEM_CACTVS_TAUTO_COUNT>
6

> <PUBCHEM_CONFORMER_ID>
0445F39000000001

> <PUBCHEM_MMFF94_ENERGY>
78.1153

> <PUBCHEM_FEATURE_SELFOVERLAP>
66.136

> <PUBCHEM_SHAPE_FINGERPRINT>
10006869 2 18115298982820632058
11135609 187 18411415128848524954
11135926 11 18201160962762585227
11456790 92 12468631747234283940
11621639 179 18045203953284149581
12838862 33 18340476847002297600
12857493 111 17967533471411510101
13782708 43 12247666172080405007
14344974 204 10374996685337206357
1454969 45 18413108338052530363
14856354 85 15482665797788937653
15183329 4 16773792580379305279
15849732 13 18410578413395050655
16994733 274 18113332007561814827
20982279 24 10735606850813819852
23559900 14 18272358786099426185
23569943 247 11309851997667818484
23576562 1 18265047106404070453
24771293 8 18271815622353981544
3009799 131 18186522090255390667
3633792 109 18413392025074938528
445580 167 17988926691011773208
4516262 110 18261111890444252070
54039377 194 17846216718153210343
550186 72 18337394829209227892
563151 97 18198066885380623067
5937810 71 18341334384578737113
6009941 240 17022910063913901675
999808 66 10807926068831753553

> <PUBCHEM_SHAPE_MULTIPOLES>
661.28
26.19
3.23
1.34
7.01
0.02
-0.06
-12.85
9.28
1.11
0.24
-1.58
-0.21
1.39

> <PUBCHEM_SHAPE_SELFOVERLAP>
1379.375

> <PUBCHEM_SHAPE_VOLUME>
375.3

> <PUBCHEM_COORDINATE_TYPE>
2
5
10

$$$$
