38031254
  -OEChem-12032416133D

 67 70  0     1  0  0  0  0  0999 V2000
    3.1053   -5.3026    2.2931 F   0  0  0  0  0  0  0  0  0  0  0  0
   -1.4110    0.7434    1.1684 O   0  0  0  0  0  0  0  0  0  0  0  0
    2.4374   -1.4387   -2.6461 O   0  0  0  0  0  0  0  0  0  0  0  0
   -6.5522   -2.0347   -1.1866 O   0  0  0  0  0  0  0  0  0  0  0  0
    3.5043    0.0092   -1.1792 N   0  0  0  0  0  0  0  0  0  0  0  0
   -1.5566    2.2938    2.7744 N   0  0  0  0  0  0  0  0  0  0  0  0
   -2.8378    1.8750    2.4676 N   0  0  0  0  0  0  0  0  0  0  0  0
    1.2465    1.9934   -1.2718 C   0  0  1  0  0  0  0  0  0  0  0  0
    2.7551    2.3191   -1.4058 C   0  0  1  0  0  0  0  0  0  0  0  0
    0.5768    2.9540   -0.2773 C   0  0  0  0  0  0  0  0  0  0  0  0
    1.2174    2.8840    1.1218 C   0  0  2  0  0  0  0  0  0  0  0  0
    0.5276    2.0615   -2.6228 C   0  0  0  0  0  0  0  0  0  0  0  0
    2.7303    2.9295    1.0513 C   0  0  0  0  0  0  0  0  0  0  0  0
    3.3995    2.6875   -0.0900 C   0  0  0  0  0  0  0  0  0  0  0  0
    3.5191    1.1508   -2.0392 C   0  0  0  0  0  0  0  0  0  0  0  0
    0.7408    1.6438    1.8860 C   0  0  0  0  0  0  0  0  0  0  0  0
    0.1838    3.5064   -2.9702 C   0  0  0  0  0  0  0  0  0  0  0  0
   -0.7285    1.1965   -2.6015 C   0  0  0  0  0  0  0  0  0  0  0  0
    3.4560    3.3048    2.3134 C   0  0  0  0  0  0  0  0  0  0  0  0
   -0.7569    1.6069    1.9925 C   0  0  0  0  0  0  0  0  0  0  0  0
    2.9560   -1.2167   -1.5551 C   0  0  0  0  0  0  0  0  0  0  0  0
   -2.7045    0.9706    1.5258 C   0  0  0  0  0  0  0  0  0  0  0  0
    2.9955   -2.2977   -0.5369 C   0  0  0  0  0  0  0  0  0  0  0  0
   -3.6927    0.1992    0.8291 C   0  0  0  0  0  0  0  0  0  0  0  0
    2.0386   -3.3123   -0.5595 C   0  0  0  0  0  0  0  0  0  0  0  0
    3.9896   -2.2982    0.4417 C   0  0  0  0  0  0  0  0  0  0  0  0
   -5.0450    0.3638    1.1288 C   0  0  0  0  0  0  0  0  0  0  0  0
   -3.3014   -0.7160   -0.1481 C   0  0  0  0  0  0  0  0  0  0  0  0
    2.0759   -4.3276    0.3963 C   0  0  0  0  0  0  0  0  0  0  0  0
    4.0267   -3.3134    1.3977 C   0  0  0  0  0  0  0  0  0  0  0  0
    3.0700   -4.3281    1.3750 C   0  0  0  0  0  0  0  0  0  0  0  0
   -6.0059   -0.3866    0.4514 C   0  0  0  0  0  0  0  0  0  0  0  0
   -4.2624   -1.4668   -0.8254 C   0  0  0  0  0  0  0  0  0  0  0  0
   -5.6147   -1.3020   -0.5257 C   0  0  0  0  0  0  0  0  0  0  0  0
   -6.0823   -2.9520   -2.1732 C   0  0  0  0  0  0  0  0  0  0  0  0
    1.1374    0.9763   -0.8761 H   0  0  0  0  0  0  0  0  0  0  0  0
    2.8857    3.1878   -2.0633 H   0  0  0  0  0  0  0  0  0  0  0  0
   -0.5055    2.8060   -0.2328 H   0  0  0  0  0  0  0  0  0  0  0  0
    0.7192    3.9929   -0.6054 H   0  0  0  0  0  0  0  0  0  0  0  0
    0.8753    3.7768    1.6650 H   0  0  0  0  0  0  0  0  0  0  0  0
    1.1691    1.6654   -3.4167 H   0  0  0  0  0  0  0  0  0  0  0  0
    4.4838    2.7806   -0.0930 H   0  0  0  0  0  0  0  0  0  0  0  0
    4.5725    1.4221   -2.1797 H   0  0  0  0  0  0  0  0  0  0  0  0
    3.1292    0.8956   -3.0281 H   0  0  0  0  0  0  0  0  0  0  0  0
    1.1429    1.6457    2.9064 H   0  0  0  0  0  0  0  0  0  0  0  0
    1.0994    0.7206    1.4149 H   0  0  0  0  0  0  0  0  0  0  0  0
   -0.6373    3.9108   -2.3689 H   0  0  0  0  0  0  0  0  0  0  0  0
   -0.1590    3.5538   -4.0113 H   0  0  0  0  0  0  0  0  0  0  0  0
    1.0467    4.1751   -2.8992 H   0  0  0  0  0  0  0  0  0  0  0  0
   -1.4590    1.5432   -1.8642 H   0  0  0  0  0  0  0  0  0  0  0  0
   -0.4830    0.1539   -2.3725 H   0  0  0  0  0  0  0  0  0  0  0  0
   -1.2192    1.2106   -3.5809 H   0  0  0  0  0  0  0  0  0  0  0  0
    3.0932    4.2672    2.6885 H   0  0  0  0  0  0  0  0  0  0  0  0
    4.5356    3.3995    2.1554 H   0  0  0  0  0  0  0  0  0  0  0  0
    3.3028    2.5478    3.0883 H   0  0  0  0  0  0  0  0  0  0  0  0
    3.9095    0.1222   -0.2568 H   0  0  0  0  0  0  0  0  0  0  0  0
    1.2532   -3.3267   -1.3105 H   0  0  0  0  0  0  0  0  0  0  0  0
    4.7724   -1.5467    0.4771 H   0  0  0  0  0  0  0  0  0  0  0  0
   -5.3729    1.0714    1.8867 H   0  0  0  0  0  0  0  0  0  0  0  0
   -2.2574   -0.8721   -0.4082 H   0  0  0  0  0  0  0  0  0  0  0  0
    1.3304   -5.1171    0.3799 H   0  0  0  0  0  0  0  0  0  0  0  0
    4.8043   -3.3183    2.1558 H   0  0  0  0  0  0  0  0  0  0  0  0
   -7.0578   -0.2541    0.6891 H   0  0  0  0  0  0  0  0  0  0  0  0
   -3.8894   -2.1594   -1.5722 H   0  0  0  0  0  0  0  0  0  0  0  0
   -6.9611   -3.4485   -2.5976 H   0  0  0  0  0  0  0  0  0  0  0  0
   -5.4563   -3.7340   -1.7300 H   0  0  0  0  0  0  0  0  0  0  0  0
   -5.5789   -2.4343   -2.9968 H   0  0  0  0  0  0  0  0  0  0  0  0
  1 31  1  0  0  0  0
  2 20  1  0  0  0  0
  2 22  1  0  0  0  0
  3 21  2  0  0  0  0
  4 34  1  0  0  0  0
  4 35  1  0  0  0  0
  5 15  1  0  0  0  0
  5 21  1  0  0  0  0
  5 56  1  0  0  0  0
  6  7  1  0  0  0  0
  6 20  2  0  0  0  0
  7 22  2  0  0  0  0
  8  9  1  0  0  0  0
  8 10  1  0  0  0  0
  8 12  1  0  0  0  0
  8 36  1  0  0  0  0
  9 14  1  0  0  0  0
  9 15  1  0  0  0  0
  9 37  1  0  0  0  0
 10 11  1  0  0  0  0
 10 38  1  0  0  0  0
 10 39  1  0  0  0  0
 11 13  1  0  0  0  0
 11 16  1  0  0  0  0
 11 40  1  0  0  0  0
 12 17  1  0  0  0  0
 12 18  1  0  0  0  0
 12 41  1  0  0  0  0
 13 14  2  0  0  0  0
 13 19  1  0  0  0  0
 14 42  1  0  0  0  0
 15 43  1  0  0  0  0
 15 44  1  0  0  0  0
 16 20  1  0  0  0  0
 16 45  1  0  0  0  0
 16 46  1  0  0  0  0
 17 47  1  0  0  0  0
 17 48  1  0  0  0  0
 17 49  1  0  0  0  0
 18 50  1  0  0  0  0
 18 51  1  0  0  0  0
 18 52  1  0  0  0  0
 19 53  1  0  0  0  0
 19 54  1  0  0  0  0
 19 55  1  0  0  0  0
 21 23  1  0  0  0  0
 22 24  1  0  0  0  0
 23 25  2  0  0  0  0
 23 26  1  0  0  0  0
 24 27  2  0  0  0  0
 24 28  1  0  0  0  0
 25 29  1  0  0  0  0
 25 57  1  0  0  0  0
 26 30  2  0  0  0  0
 26 58  1  0  0  0  0
 27 32  1  0  0  0  0
 27 59  1  0  0  0  0
 28 33  2  0  0  0  0
 28 60  1  0  0  0  0
 29 31  2  0  0  0  0
 29 61  1  0  0  0  0
 30 31  1  0  0  0  0
 30 62  1  0  0  0  0
 32 34  2  0  0  0  0
 32 63  1  0  0  0  0
 33 34  1  0  0  0  0
 33 64  1  0  0  0  0
 35 65  1  0  0  0  0
 35 66  1  0  0  0  0
 35 67  1  0  0  0  0
M  END
> <PUBCHEM_COMPOUND_CID>
38031254

> <PUBCHEM_CONFORMER_RMSD>
1.2

> <PUBCHEM_CONFORMER_DIVERSEORDER>
1
12
137
103
170
42
63
141
15
142
48
26
74
151
102
174
160
88
81
138
50
40
38
106
171
67
80
134
85
155
79
13
94
173
194
197
147
69
7
136
172
20
190
196
175
18
99
153
135
158
76
8
176
17
96
71
162
139
68
36
185
180
41
152
164
75
33
178
90
117
107
182
86
95
157
167
169
91
131
193
11
168
111
143
148
127
60
59
166
10
125
73
55
144
4
30
129
51
92
116
49
14
5
98
195
191
186
72
110
181
66
130
70
64
115
165
45
188
108
119
87
146
122
121
93
156
6
62
140
19
118
2
159
149
132
25
109
54
44
39
35
78
124
27
128
29
23
77
161
154
163
56
120
53
187
28
123
104
189
57
43
184
37
112
114
83
101
105
179
9
192
177
61
47
82
16
21
52
84
126
183
34
150
97
65
113
133
22
32
89
31
3
24
46
145
58
100

> <PUBCHEM_MMFF94_PARTIAL_CHARGES>
40
1 -0.19
11 0.14
13 -0.28
14 -0.29
15 0.3
16 0.18
19 0.14
2 -0.28
20 0.3
21 0.54
22 0.43
23 0.09
24 0.05
25 -0.15
26 -0.15
27 -0.15
28 -0.15
29 -0.15
3 -0.57
30 -0.15
31 0.19
32 -0.15
33 -0.15
34 0.08
35 0.28
4 -0.36
42 0.15
5 -0.73
56 0.37
57 0.15
58 0.15
59 0.15
6 -0.34
60 0.15
61 0.15
62 0.15
63 0.15
64 0.15
7 -0.34
9 0.14

> <PUBCHEM_EFFECTIVE_ROTOR_COUNT>
9.8

> <PUBCHEM_PHARMACOPHORE_FEATURES>
8
1 3 acceptor
1 4 acceptor
1 5 donor
3 12 17 18 hydrophobe
5 2 6 7 20 22 rings
6 23 25 26 29 30 31 rings
6 24 27 28 32 33 34 rings
6 8 9 10 11 13 14 rings

> <PUBCHEM_HEAVY_ATOM_COUNT>
35

> <PUBCHEM_ATOM_DEF_STEREO_COUNT>
3

> <PUBCHEM_ATOM_UDEF_STEREO_COUNT>
0

> <PUBCHEM_BOND_DEF_STEREO_COUNT>
0

> <PUBCHEM_BOND_UDEF_STEREO_COUNT>
0

> <PUBCHEM_ISOTOPIC_ATOM_COUNT>
0

> <PUBCHEM_COMPONENT_COUNT>
1

> <PUBCHEM_CACTVS_TAUTO_COUNT>
2

> <PUBCHEM_CONFORMER_ID>
02444F9600000001

> <PUBCHEM_MMFF94_ENERGY>
83.6393

> <PUBCHEM_FEATURE_SELFOVERLAP>
40.597

> <PUBCHEM_SHAPE_FINGERPRINT>
10622 236 18339925888223215027
10842051 180 17896048659725143322
11135609 149 18114446882556848631
11227150 75 18045195203365207187
11552529 35 17402053301980582122
12156800 1 16518189018018171764
12977781 61 17901631965931117108
131258 38 18272652325001279542
13383668 262 17977083980551644523
14674994 50 17179120713298257692
14705955 166 15189385089678592032
17138139 8 17987255484629358788
19315092 285 18342449361649815015
19319366 153 18125715940417953207
20775530 9 17610648335633280162
21458453 9 16198994289852608635
25222932 49 17273130430931945997
4394409 98 17838052599255722349
444735 86 17702377549943990927
4573279 79 17170645841408126466
474144 1 18413395319272786399
59025328 239 18186802439528852261
66674814 147 18334307482367650066

> <PUBCHEM_SHAPE_MULTIPOLES>
680.46
11.61
6.43
3.16
22.62
6.72
-0.65
9.1
-1.23
-8.84
2.01
-0.46
-1.9
-3.4

> <PUBCHEM_SHAPE_SELFOVERLAP>
1455.992

> <PUBCHEM_SHAPE_VOLUME>
380

> <PUBCHEM_COORDINATE_TYPE>
2
5
10

$$$$
