75536897
  -OEChem-12032416303D

 42 44  0     1  0  0  0  0  0999 V2000
    3.6760    0.1238   -2.5386 F   0  0  0  0  0  0  0  0  0  0  0  0
    5.3322   -0.2679   -1.1943 F   0  0  0  0  0  0  0  0  0  0  0  0
    3.5909   -1.5699   -1.1777 F   0  0  0  0  0  0  0  0  0  0  0  0
   -1.6786   -2.8543   -0.4436 O   0  0  0  0  0  0  0  0  0  0  0  0
   -2.4259    0.6918   -0.4013 O   0  0  0  0  0  0  0  0  0  0  0  0
    3.6527    1.9076   -0.2393 O   0  0  0  0  0  0  0  0  0  0  0  0
    2.6687   -1.8735    1.4127 O   0  0  0  0  0  0  0  0  0  0  0  0
    0.4695   -1.1418    1.0652 N   0  0  0  0  0  0  0  0  0  0  0  0
   -4.4350   -0.2757    0.2565 N   0  0  0  0  0  0  0  0  0  0  0  0
   -5.8027    1.9659   -0.7286 N   0  0  0  0  0  0  0  0  0  0  0  0
   -0.4440   -0.0630    0.6702 C   0  0  0  0  0  0  0  0  0  0  0  0
   -1.8114   -0.4852    0.1251 C   0  0  2  0  0  0  0  0  0  0  0  0
   -0.0990   -2.4527    1.3832 C   0  0  0  0  0  0  0  0  0  0  0  0
   -1.7199   -1.5355   -0.9799 C   0  0  0  0  0  0  0  0  0  0  0  0
   -0.4243   -3.2309    0.1148 C   0  0  0  0  0  0  0  0  0  0  0  0
    1.8649   -0.9895    1.1181 C   0  0  0  0  0  0  0  0  0  0  0  0
    2.4359    0.3286    0.7993 C   0  0  0  0  0  0  0  0  0  0  0  0
    3.3235    0.5892   -0.2187 C   0  0  0  0  0  0  0  0  0  0  0  0
    2.2046    1.5662    1.4456 C   0  0  0  0  0  0  0  0  0  0  0  0
    2.9676    2.4950    0.7766 C   0  0  0  0  0  0  0  0  0  0  0  0
   -3.7889    0.7608   -0.3135 C   0  0  0  0  0  0  0  0  0  0  0  0
    3.9593   -0.2492   -1.2468 C   0  0  0  0  0  0  0  0  0  0  0  0
    3.1702    3.9407    0.9459 C   0  0  0  0  0  0  0  0  0  0  0  0
   -4.4607    1.8618   -0.7973 C   0  0  0  0  0  0  0  0  0  0  0  0
   -5.7770   -0.1717    0.3251 C   0  0  0  0  0  0  0  0  0  0  0  0
   -6.4487    0.9293   -0.1587 C   0  0  0  0  0  0  0  0  0  0  0  0
    0.0487    0.5679   -0.0786 H   0  0  0  0  0  0  0  0  0  0  0  0
   -0.5925    0.5734    1.5516 H   0  0  0  0  0  0  0  0  0  0  0  0
   -2.3682   -0.8844    0.9825 H   0  0  0  0  0  0  0  0  0  0  0  0
   -0.9762   -2.3132    2.0234 H   0  0  0  0  0  0  0  0  0  0  0  0
    0.6361   -3.0233    1.9613 H   0  0  0  0  0  0  0  0  0  0  0  0
   -2.6099   -1.4927   -1.6173 H   0  0  0  0  0  0  0  0  0  0  0  0
   -0.8656   -1.3608   -1.6456 H   0  0  0  0  0  0  0  0  0  0  0  0
    0.3642   -3.1435   -0.6420 H   0  0  0  0  0  0  0  0  0  0  0  0
   -0.5146   -4.2922    0.3698 H   0  0  0  0  0  0  0  0  0  0  0  0
    1.5663    1.7600    2.2961 H   0  0  0  0  0  0  0  0  0  0  0  0
    4.2242    4.1610    1.1412 H   0  0  0  0  0  0  0  0  0  0  0  0
    2.8671    4.4797    0.0430 H   0  0  0  0  0  0  0  0  0  0  0  0
    2.5822    4.3266    1.7845 H   0  0  0  0  0  0  0  0  0  0  0  0
   -3.9453    2.6972   -1.2562 H   0  0  0  0  0  0  0  0  0  0  0  0
   -6.2966   -1.0043    0.7828 H   0  0  0  0  0  0  0  0  0  0  0  0
   -7.5271    1.0121   -0.1032 H   0  0  0  0  0  0  0  0  0  0  0  0
  1 22  1  0  0  0  0
  2 22  1  0  0  0  0
  3 22  1  0  0  0  0
  4 14  1  0  0  0  0
  4 15  1  0  0  0  0
  5 12  1  0  0  0  0
  5 21  1  0  0  0  0
  6 18  1  0  0  0  0
  6 20  1  0  0  0  0
  7 16  2  0  0  0  0
  8 11  1  0  0  0  0
  8 13  1  0  0  0  0
  8 16  1  0  0  0  0
  9 21  2  0  0  0  0
  9 25  1  0  0  0  0
 10 24  2  0  0  0  0
 10 26  1  0  0  0  0
 11 12  1  0  0  0  0
 11 27  1  0  0  0  0
 11 28  1  0  0  0  0
 12 14  1  0  0  0  0
 12 29  1  0  0  0  0
 13 15  1  0  0  0  0
 13 30  1  0  0  0  0
 13 31  1  0  0  0  0
 14 32  1  0  0  0  0
 14 33  1  0  0  0  0
 15 34  1  0  0  0  0
 15 35  1  0  0  0  0
 16 17  1  0  0  0  0
 17 18  2  0  0  0  0
 17 19  1  0  0  0  0
 18 22  1  0  0  0  0
 19 20  2  0  0  0  0
 19 36  1  0  0  0  0
 20 23  1  0  0  0  0
 21 24  1  0  0  0  0
 23 37  1  0  0  0  0
 23 38  1  0  0  0  0
 23 39  1  0  0  0  0
 24 40  1  0  0  0  0
 25 26  2  0  0  0  0
 25 41  1  0  0  0  0
 26 42  1  0  0  0  0
M  END
> <PUBCHEM_COMPOUND_CID>
75536897

> <PUBCHEM_CONFORMER_RMSD>
1

> <PUBCHEM_CONFORMER_DIVERSEORDER>
1
34
55
35
157
13
77
104
9
43
130
166
58
18
86
134
3
165
17
93
42
150
103
110
5
59
57
32
137
2
139
12
168
114
128
20
109
50
48
90
4
148
174
74
123
78
144
146
15
107
82
152
62
72
172
8
40
79
173
71
161
149
38
85
30
60
115
105
88
22
163
89
126
37
29
138
52
65
116
83
124
171
24
135
125
61
6
154
132
7
28
155
153
170
140
121
113
162
102
63
92
117
111
94
51
27
158
147
67
44
68
87
131
23
14
119
91
98
84
106
39
159
127
45
75
95
122
49
80
151
160
142
129
143
101
118
46
66
97
76
25
167
81
145
56
100
11
53
133
31
33
73
112
21
96
141
19
69
10
70
99
16
136
156
41
169
120
47
54
164
64
36
26
108

> <PUBCHEM_MMFF94_PARTIAL_CHARGES>
30
1 -0.34
10 -0.62
11 0.3
12 0.28
13 0.3
14 0.28
15 0.28
16 0.72
17 -0.09
18 -0.04
19 -0.15
2 -0.34
20 -0.04
21 0.39
22 1.2
23 0.18
24 0.16
25 0.16
26 0.16
3 -0.34
36 0.15
4 -0.56
40 0.15
41 0.15
42 0.15
5 -0.36
6 -0.28
7 -0.57
8 -0.66
9 -0.62

> <PUBCHEM_EFFECTIVE_ROTOR_COUNT>
6.4

> <PUBCHEM_PHARMACOPHORE_FEATURES>
7
1 10 acceptor
1 4 acceptor
1 6 acceptor
1 7 acceptor
5 6 17 18 19 20 rings
6 9 10 21 24 25 26 rings
7 4 8 11 12 13 14 15 rings

> <PUBCHEM_HEAVY_ATOM_COUNT>
26

> <PUBCHEM_ATOM_DEF_STEREO_COUNT>
1

> <PUBCHEM_ATOM_UDEF_STEREO_COUNT>
0

> <PUBCHEM_BOND_DEF_STEREO_COUNT>
0

> <PUBCHEM_BOND_UDEF_STEREO_COUNT>
0

> <PUBCHEM_ISOTOPIC_ATOM_COUNT>
0

> <PUBCHEM_COMPONENT_COUNT>
1

> <PUBCHEM_CACTVS_TAUTO_COUNT>
1

> <PUBCHEM_CONFORMER_ID>
04809A0100000001

> <PUBCHEM_MMFF94_ENERGY>
63.3492

> <PUBCHEM_FEATURE_SELFOVERLAP>
35.524

> <PUBCHEM_SHAPE_FINGERPRINT>
10165383 225 17967257481518303406
10670039 82 18113901507293422853
11069576 57 15266797532972209588
11488393 25 18055649317325693287
11720765 8 17988082193389320896
11796584 16 12391507586346153565
12596602 18 14562822045024481017
12730499 353 18334863813829112171
13944108 23 17976819779363569277
13965767 371 17751052865044001304
14251751 18 13038903296644343241
14341114 328 15864072083138417297
14528608 73 18409160009689186509
1454969 45 18339635751093923439
146900 427 18336830806304241065
14790565 3 18412259554479939241
14955137 171 18046047277731891530
15210252 30 17821737151974355604
15849732 13 18265601092793192402
15961568 22 17095529444259433317
17980427 23 17840827994031378378
1813 80 12031790279523065243
20465049 17 18410300172581448118
20567600 9 18269557126918344841
21250096 35 9151170978636163465
21315759 227 11455591206961571477
21864079 5 18338220657225230649
221357 26 18343303630397575949
22224240 67 11170208591795167604
23227448 37 18267579298657102197
23558518 356 17902504123111060256
23559900 14 17846215579121056946
2637199 183 18410856534107596739
3009799 131 18272092691437479662
3060560 45 18271523109337427446
339767 52 9871745780601332437
340366 18 17704067408636006662
34797466 226 18201719587652044253
3729539 64 18127145077526450662
376196 1 17840012280958211384
4098825 35 18129664239327838518
46194498 28 17914910957001469766
5252454 2 18113609101666595934
53794403 172 18117844523563371965
57527585 21 17548684640073630012
613672 6 9943805586679520373
633830 44 18272359880873020117
6442390 28 18186521029377928563
7399639 24 16835707454628925554
7808743 9 18044653341753410424
9658208 31 18188216510282452299

> <PUBCHEM_SHAPE_MULTIPOLES>
474.83
12.39
3.46
1.45
15.09
0.49
0.4
7.62
3.58
-1.75
-0.84
-1.81
-0.23
1.31

> <PUBCHEM_SHAPE_SELFOVERLAP>
1016.082

> <PUBCHEM_SHAPE_VOLUME>
262.8

> <PUBCHEM_COORDINATE_TYPE>
2
5
10

$$$$
