7672465
  -OEChem-12032416213D

 59 64  0     1  0  0  0  0  0999 V2000
   -2.8797   -1.0060   -0.2647 S   0  0  0  0  0  0  0  0  0  0  0  0
   -1.3346    2.0889   -1.6318 O   0  0  0  0  0  0  0  0  0  0  0  0
    2.9436   -0.0862   -2.2294 O   0  0  0  0  0  0  0  0  0  0  0  0
    1.6281   -2.6070    1.9157 O   0  0  0  0  0  0  0  0  0  0  0  0
    0.4713    2.4631   -0.2020 N   0  0  0  0  0  0  0  0  0  0  0  0
    3.3594    1.3307   -0.4523 N   0  0  0  0  0  0  0  0  0  0  0  0
    2.6304   -0.8791   -0.0697 N   0  0  0  0  0  0  0  0  0  0  0  0
    2.6159    3.6351   -0.9749 C   0  0  2  0  0  0  0  0  0  0  0  0
    2.4449    2.7771    1.3324 C   0  0  2  0  0  0  0  0  0  0  0  0
    2.7663    4.0174    0.4958 C   0  0  0  0  0  0  0  0  0  0  0  0
    1.1468    3.2705   -1.2306 C   0  0  0  0  0  0  0  0  0  0  0  0
    3.5727    2.4788   -1.3360 C   0  0  0  0  0  0  0  0  0  0  0  0
    3.4498    1.6607    0.9804 C   0  0  0  0  0  0  0  0  0  0  0  0
    1.0322    2.2917    1.0680 C   0  0  0  0  0  0  0  0  0  0  0  0
    0.3504    1.6456    2.0276 C   0  0  0  0  0  0  0  0  0  0  0  0
   -0.7997    1.9509   -0.5304 C   0  0  0  0  0  0  0  0  0  0  0  0
    2.9882    0.0877   -1.0091 C   0  0  0  0  0  0  0  0  0  0  0  0
   -1.5146    1.1943    0.5540 C   0  0  0  0  0  0  0  0  0  0  0  0
   -0.9446    1.0864    1.7626 C   0  0  0  0  0  0  0  0  0  0  0  0
   -2.7898    0.6012    0.3074 C   0  0  0  0  0  0  0  0  0  0  0  0
    2.6678   -2.2866   -0.2233 C   0  0  0  0  0  0  0  0  0  0  0  0
   -4.0440    1.1530    0.4675 C   0  0  0  0  0  0  0  0  0  0  0  0
   -5.1057    0.2523    0.1184 C   0  0  0  0  0  0  0  0  0  0  0  0
   -4.6034   -0.9821   -0.3049 C   0  0  0  0  0  0  0  0  0  0  0  0
    2.1657   -3.1205    0.7732 C   0  0  0  0  0  0  0  0  0  0  0  0
    3.2134   -2.8293   -1.3843 C   0  0  0  0  0  0  0  0  0  0  0  0
   -6.5101    0.4309    0.1421 C   0  0  0  0  0  0  0  0  0  0  0  0
   -5.4590   -2.0292   -0.7000 C   0  0  0  0  0  0  0  0  0  0  0  0
    2.2096   -4.5049    0.6074 C   0  0  0  0  0  0  0  0  0  0  0  0
    3.2573   -4.2137   -1.5499 C   0  0  0  0  0  0  0  0  0  0  0  0
   -7.3616   -0.6056   -0.2493 C   0  0  0  0  0  0  0  0  0  0  0  0
   -6.8393   -1.8219   -0.6656 C   0  0  0  0  0  0  0  0  0  0  0  0
    2.7555   -5.0514   -0.5541 C   0  0  0  0  0  0  0  0  0  0  0  0
    2.5169   -2.3927    3.0098 C   0  0  0  0  0  0  0  0  0  0  0  0
    2.8764    4.4929   -1.6068 H   0  0  0  0  0  0  0  0  0  0  0  0
    2.5632    3.0359    2.3923 H   0  0  0  0  0  0  0  0  0  0  0  0
    2.0923    4.8445    0.7516 H   0  0  0  0  0  0  0  0  0  0  0  0
    3.7880    4.3614    0.6978 H   0  0  0  0  0  0  0  0  0  0  0  0
    0.5617    4.1971   -1.3085 H   0  0  0  0  0  0  0  0  0  0  0  0
    1.0427    2.7653   -2.1990 H   0  0  0  0  0  0  0  0  0  0  0  0
    3.4447    2.2007   -2.3869 H   0  0  0  0  0  0  0  0  0  0  0  0
    4.6141    2.7978   -1.2085 H   0  0  0  0  0  0  0  0  0  0  0  0
    4.4746    2.0092    1.1619 H   0  0  0  0  0  0  0  0  0  0  0  0
    3.3102    0.7888    1.6220 H   0  0  0  0  0  0  0  0  0  0  0  0
    0.7738    1.4813    3.0130 H   0  0  0  0  0  0  0  0  0  0  0  0
   -1.4247    0.5532    2.5781 H   0  0  0  0  0  0  0  0  0  0  0  0
    2.2596   -0.5640    0.8201 H   0  0  0  0  0  0  0  0  0  0  0  0
   -4.2047    2.1649    0.8212 H   0  0  0  0  0  0  0  0  0  0  0  0
    3.6512   -2.2341   -2.1761 H   0  0  0  0  0  0  0  0  0  0  0  0
   -6.9342    1.3783    0.4658 H   0  0  0  0  0  0  0  0  0  0  0  0
   -5.0591   -2.9847   -1.0272 H   0  0  0  0  0  0  0  0  0  0  0  0
    1.8202   -5.1640    1.3787 H   0  0  0  0  0  0  0  0  0  0  0  0
    3.6895   -4.6405   -2.4503 H   0  0  0  0  0  0  0  0  0  0  0  0
   -8.4374   -0.4562   -0.2267 H   0  0  0  0  0  0  0  0  0  0  0  0
   -7.5093   -2.6222   -0.9680 H   0  0  0  0  0  0  0  0  0  0  0  0
    2.7913   -6.1293   -0.6822 H   0  0  0  0  0  0  0  0  0  0  0  0
    3.3430   -1.7353    2.7211 H   0  0  0  0  0  0  0  0  0  0  0  0
    2.9082   -3.3478    3.3740 H   0  0  0  0  0  0  0  0  0  0  0  0
    1.9562   -1.9138    3.8171 H   0  0  0  0  0  0  0  0  0  0  0  0
  1 20  1  0  0  0  0
  1 24  1  0  0  0  0
  2 16  2  0  0  0  0
  3 17  2  0  0  0  0
  4 25  1  0  0  0  0
  4 34  1  0  0  0  0
  5 11  1  0  0  0  0
  5 14  1  0  0  0  0
  5 16  1  0  0  0  0
  6 12  1  0  0  0  0
  6 13  1  0  0  0  0
  6 17  1  0  0  0  0
  7 17  1  0  0  0  0
  7 21  1  0  0  0  0
  7 47  1  0  0  0  0
  8 10  1  0  0  0  0
  8 11  1  0  0  0  0
  8 12  1  0  0  0  0
  8 35  1  0  0  0  0
  9 10  1  0  0  0  0
  9 13  1  0  0  0  0
  9 14  1  0  0  0  0
  9 36  1  0  0  0  0
 10 37  1  0  0  0  0
 10 38  1  0  0  0  0
 11 39  1  0  0  0  0
 11 40  1  0  0  0  0
 12 41  1  0  0  0  0
 12 42  1  0  0  0  0
 13 43  1  0  0  0  0
 13 44  1  0  0  0  0
 14 15  2  0  0  0  0
 15 19  1  0  0  0  0
 15 45  1  0  0  0  0
 16 18  1  0  0  0  0
 18 19  2  0  0  0  0
 18 20  1  0  0  0  0
 19 46  1  0  0  0  0
 20 22  2  0  0  0  0
 21 25  1  0  0  0  0
 21 26  2  0  0  0  0
 22 23  1  0  0  0  0
 22 48  1  0  0  0  0
 23 24  1  0  0  0  0
 23 27  2  0  0  0  0
 24 28  2  0  0  0  0
 25 29  2  0  0  0  0
 26 30  1  0  0  0  0
 26 49  1  0  0  0  0
 27 31  1  0  0  0  0
 27 50  1  0  0  0  0
 28 32  1  0  0  0  0
 28 51  1  0  0  0  0
 29 33  1  0  0  0  0
 29 52  1  0  0  0  0
 30 33  2  0  0  0  0
 30 53  1  0  0  0  0
 31 32  2  0  0  0  0
 31 54  1  0  0  0  0
 32 55  1  0  0  0  0
 33 56  1  0  0  0  0
 34 57  1  0  0  0  0
 34 58  1  0  0  0  0
 34 59  1  0  0  0  0
M  END
> <PUBCHEM_COMPOUND_CID>
7672465

> <PUBCHEM_CONFORMER_RMSD>
0.8

> <PUBCHEM_CONFORMER_DIVERSEORDER>
1
106
26
55
71
44
114
38
27
108
70
113
65
98
75
62
118
96
46
11
94
37
58
73
54
93
83
91
84
112
102
57
109
63
104
53
49
90
77
60
64
100
16
105
95
107
80
31
67
43
10
61
76
23
68
5
89
101
81
32
69
117
79
111
17
97
20
88
42
41
99
78
87
40
66
19
35
72
29
82
3
36
30
8
22
51
45
103
25
12
14
85
24
7
28
74
115
47
116
4
33
56
92
21
34
86
59
39
52
6
48
2
50
13
18
110
15
9

> <PUBCHEM_MMFF94_PARTIAL_CHARGES>
43
1 -0.08
11 0.3
12 0.3
13 0.3
14 -0.03
15 -0.15
16 0.62
17 0.69
18 0.06
19 -0.15
2 -0.57
20 -0.01
21 0.12
22 -0.15
24 0.04
25 0.08
26 -0.15
27 -0.15
28 -0.15
29 -0.15
3 -0.57
30 -0.15
31 -0.15
32 -0.15
33 -0.15
34 0.28
4 -0.36
45 0.15
46 0.15
47 0.37
48 0.15
49 0.15
5 -0.47
50 0.15
51 0.15
52 0.15
53 0.15
54 0.15
55 0.15
56 0.15
6 -0.66
7 -0.55
9 0.14

> <PUBCHEM_EFFECTIVE_ROTOR_COUNT>
6

> <PUBCHEM_PHARMACOPHORE_FEATURES>
10
1 2 acceptor
1 3 acceptor
1 4 acceptor
1 7 donor
5 1 20 22 23 24 rings
6 21 25 26 29 30 33 rings
6 23 24 27 28 31 32 rings
6 5 14 15 16 18 19 rings
6 5 8 9 10 11 14 rings
6 6 8 9 10 12 13 rings

> <PUBCHEM_HEAVY_ATOM_COUNT>
34

> <PUBCHEM_ATOM_DEF_STEREO_COUNT>
2

> <PUBCHEM_ATOM_UDEF_STEREO_COUNT>
0

> <PUBCHEM_BOND_DEF_STEREO_COUNT>
0

> <PUBCHEM_BOND_UDEF_STEREO_COUNT>
0

> <PUBCHEM_ISOTOPIC_ATOM_COUNT>
0

> <PUBCHEM_COMPONENT_COUNT>
1

> <PUBCHEM_CACTVS_TAUTO_COUNT>
2

> <PUBCHEM_CONFORMER_ID>
0075129100000001

> <PUBCHEM_MMFF94_ENERGY>
108.5482

> <PUBCHEM_FEATURE_SELFOVERLAP>
52.43

> <PUBCHEM_SHAPE_FINGERPRINT>
10675989 125 18340774857044370369
10721379 63 18408604751473794057
11014199 57 17908710527333217502
11181472 205 18411135841328946861
11607047 403 18340198597900019170
11991303 11 17830170565394719716
12107183 9 17984436135596278825
12539745 222 13324367284947193516
13150687 139 17898025753167014780
13533116 47 18343304782255491017
1361 2 18264491852652507741
13692114 37 17982724483479819976
14068700 675 18195248806729609658
14675020 138 18128243678837080520
15419008 42 18044067173765437381
15484559 13 18115025337262924312
15664445 248 18113900506629475973
15803439 3 17540012702135193852
16993438 75 17400084565827689682
17974551 9 14255461012293592342
18365409 1 17473827702263473749
19026451 147 18340210683109444434
19319366 153 18128532854531494255
20028762 73 18342457088739157126
20567600 347 18337667650115799112
20775438 99 18336818784417395203
20775530 9 18196371412037522126
21703447 108 18201434779100710953
23559900 14 18271803472175778931
3044373 193 11239997863586404971
345986 75 17632580401314679529
444735 86 18055903536597907143
463206 1 18190757331467556634
613672 6 17906427962346777894
70251023 43 18193004724549889562
7970288 3 17838340683443693143

> <PUBCHEM_SHAPE_MULTIPOLES>
671
12.55
6.42
1.88
31.69
5.07
0.77
5.47
-2.8
-10.92
-0.69
-2.13
0.35
-0.64

> <PUBCHEM_SHAPE_SELFOVERLAP>
1478.998

> <PUBCHEM_SHAPE_VOLUME>
361.2

> <PUBCHEM_COORDINATE_TYPE>
2
5
10

$$$$
