7165018
  -OEChem-12032416343D

 65 69  0     1  0  0  0  0  0999 V2000
   -4.3502   -3.3232    1.0781 S   0  0  0  0  0  0  0  0  0  0  0  0
    5.1927   -0.4408   -3.5036 F   0  0  0  0  0  0  0  0  0  0  0  0
   -0.9928   -0.2685    1.8719 O   0  0  0  0  0  0  0  0  0  0  0  0
   -2.9614   -1.0040   -0.6362 O   0  0  0  0  0  0  0  0  0  0  0  0
    3.8270   -2.6348    1.5584 O   0  0  0  0  0  0  0  0  0  0  0  0
    2.6677    2.4641    1.4063 O   0  0  0  0  0  0  0  0  0  0  0  0
   -0.9701   -2.0355   -0.0477 N   0  0  0  0  0  0  0  0  0  0  0  0
    1.9194   -1.9703    0.3856 N   0  0  0  0  0  0  0  0  0  0  0  0
    0.2789    1.2968    0.7092 N   0  0  0  0  0  0  0  0  0  0  0  0
   -3.9680    3.4312    0.6251 N   0  0  0  0  0  0  0  0  0  0  0  0
    1.7913    2.9385    3.4758 N   0  0  0  0  0  0  0  0  0  0  0  0
   -0.1953   -0.8197   -0.3130 C   0  0  2  0  0  0  0  0  0  0  0  0
    1.2773   -1.0994   -0.6110 C   0  0  0  0  0  0  0  0  0  0  0  0
   -0.2181   -3.2267    0.3737 C   0  0  0  0  0  0  0  0  0  0  0  0
    1.0509   -2.8751    1.1358 C   0  0  0  0  0  0  0  0  0  0  0  0
   -0.3519    0.0767    0.8827 C   0  0  0  0  0  0  0  0  0  0  0  0
    0.2587    2.3455    1.7032 C   0  0  2  0  0  0  0  0  0  0  0  0
   -2.3630   -2.0223   -0.2833 C   0  0  0  0  0  0  0  0  0  0  0  0
    3.2844   -1.9470    0.6942 C   0  0  0  0  0  0  0  0  0  0  0  0
   -0.3376    3.6499    1.1595 C   0  0  0  0  0  0  0  0  0  0  0  0
   -1.7496    3.4937    0.6715 C   0  0  0  0  0  0  0  0  0  0  0  0
   -3.0908   -3.2713   -0.0810 C   0  0  0  0  0  0  0  0  0  0  0  0
    4.1554   -1.0379   -0.0681 C   0  0  0  0  0  0  0  0  0  0  0  0
   -2.1575    3.1480   -0.6473 C   0  0  0  0  0  0  0  0  0  0  0  0
    1.6963    2.5642    2.1520 C   0  0  0  0  0  0  0  0  0  0  0  0
   -2.8850    3.6614    1.4304 C   0  0  0  0  0  0  0  0  0  0  0  0
   -3.5536    3.1156   -0.6493 C   0  0  0  0  0  0  0  0  0  0  0  0
   -2.9165   -4.4846   -0.7097 C   0  0  0  0  0  0  0  0  0  0  0  0
    4.2636   -1.1730   -1.4522 C   0  0  0  0  0  0  0  0  0  0  0  0
    4.8726   -0.0413    0.5935 C   0  0  0  0  0  0  0  0  0  0  0  0
   -1.4707    2.8585   -1.8431 C   0  0  0  0  0  0  0  0  0  0  0  0
   -4.3002    2.8070   -1.7919 C   0  0  0  0  0  0  0  0  0  0  0  0
   -3.8292   -5.4697   -0.2337 C   0  0  0  0  0  0  0  0  0  0  0  0
   -2.2044    2.5482   -2.9939 C   0  0  0  0  0  0  0  0  0  0  0  0
   -3.5974    2.5234   -2.9664 C   0  0  0  0  0  0  0  0  0  0  0  0
   -4.6660   -4.9720    0.7407 C   0  0  0  0  0  0  0  0  0  0  0  0
    5.0889   -0.3114   -2.1746 C   0  0  0  0  0  0  0  0  0  0  0  0
    5.6981    0.8204   -0.1288 C   0  0  0  0  0  0  0  0  0  0  0  0
    5.8062    0.6853   -1.5129 C   0  0  0  0  0  0  0  0  0  0  0  0
   -0.6433   -0.3015   -1.1703 H   0  0  0  0  0  0  0  0  0  0  0  0
    1.3402   -1.6422   -1.5628 H   0  0  0  0  0  0  0  0  0  0  0  0
    1.8469   -0.1757   -0.7317 H   0  0  0  0  0  0  0  0  0  0  0  0
   -0.8423   -3.8659    1.0039 H   0  0  0  0  0  0  0  0  0  0  0  0
    0.0320   -3.7825   -0.5377 H   0  0  0  0  0  0  0  0  0  0  0  0
    1.6040   -3.7867    1.3879 H   0  0  0  0  0  0  0  0  0  0  0  0
    0.8085   -2.3744    2.0805 H   0  0  0  0  0  0  0  0  0  0  0  0
   -0.3343    2.0045    2.5609 H   0  0  0  0  0  0  0  0  0  0  0  0
    0.7704    1.4908   -0.1576 H   0  0  0  0  0  0  0  0  0  0  0  0
    0.2856    4.0353    0.3414 H   0  0  0  0  0  0  0  0  0  0  0  0
   -0.3095    4.4210    1.9408 H   0  0  0  0  0  0  0  0  0  0  0  0
   -3.0207    3.9226    2.4706 H   0  0  0  0  0  0  0  0  0  0  0  0
   -4.9325    3.4847    0.9224 H   0  0  0  0  0  0  0  0  0  0  0  0
   -2.1782   -4.6634   -1.4810 H   0  0  0  0  0  0  0  0  0  0  0  0
   -0.3854    2.8751   -1.8846 H   0  0  0  0  0  0  0  0  0  0  0  0
    3.7274   -1.9552   -1.9827 H   0  0  0  0  0  0  0  0  0  0  0  0
    4.7942    0.0760    1.6713 H   0  0  0  0  0  0  0  0  0  0  0  0
   -5.3847    2.7871   -1.7714 H   0  0  0  0  0  0  0  0  0  0  0  0
    2.6935    3.1291    3.8991 H   0  0  0  0  0  0  0  0  0  0  0  0
    0.9778    3.0396    4.0743 H   0  0  0  0  0  0  0  0  0  0  0  0
   -1.6799    2.3239   -3.9189 H   0  0  0  0  0  0  0  0  0  0  0  0
   -3.8711   -6.4910   -0.5892 H   0  0  0  0  0  0  0  0  0  0  0  0
   -4.1473    2.2795   -3.8718 H   0  0  0  0  0  0  0  0  0  0  0  0
   -5.4481   -5.4976    1.2703 H   0  0  0  0  0  0  0  0  0  0  0  0
    6.2553    1.5973    0.3862 H   0  0  0  0  0  0  0  0  0  0  0  0
    6.4483    1.3564   -2.0757 H   0  0  0  0  0  0  0  0  0  0  0  0
  1 22  1  0  0  0  0
  1 36  1  0  0  0  0
  2 37  1  0  0  0  0
  3 16  2  0  0  0  0
  4 18  2  0  0  0  0
  5 19  2  0  0  0  0
  6 25  2  0  0  0  0
  7 12  1  0  0  0  0
  7 14  1  0  0  0  0
  7 18  1  0  0  0  0
  8 13  1  0  0  0  0
  8 15  1  0  0  0  0
  8 19  1  0  0  0  0
  9 16  1  0  0  0  0
  9 17  1  0  0  0  0
  9 48  1  0  0  0  0
 10 26  1  0  0  0  0
 10 27  1  0  0  0  0
 10 52  1  0  0  0  0
 11 25  1  0  0  0  0
 11 58  1  0  0  0  0
 11 59  1  0  0  0  0
 12 13  1  0  0  0  0
 12 16  1  0  0  0  0
 12 40  1  0  0  0  0
 13 41  1  0  0  0  0
 13 42  1  0  0  0  0
 14 15  1  0  0  0  0
 14 43  1  0  0  0  0
 14 44  1  0  0  0  0
 15 45  1  0  0  0  0
 15 46  1  0  0  0  0
 17 20  1  0  0  0  0
 17 25  1  0  0  0  0
 17 47  1  0  0  0  0
 18 22  1  0  0  0  0
 19 23  1  0  0  0  0
 20 21  1  0  0  0  0
 20 49  1  0  0  0  0
 20 50  1  0  0  0  0
 21 24  1  0  0  0  0
 21 26  2  0  0  0  0
 22 28  2  0  0  0  0
 23 29  2  0  0  0  0
 23 30  1  0  0  0  0
 24 27  1  0  0  0  0
 24 31  2  0  0  0  0
 26 51  1  0  0  0  0
 27 32  2  0  0  0  0
 28 33  1  0  0  0  0
 28 53  1  0  0  0  0
 29 37  1  0  0  0  0
 29 55  1  0  0  0  0
 30 38  2  0  0  0  0
 30 56  1  0  0  0  0
 31 34  1  0  0  0  0
 31 54  1  0  0  0  0
 32 35  1  0  0  0  0
 32 57  1  0  0  0  0
 33 36  2  0  0  0  0
 33 61  1  0  0  0  0
 34 35  2  0  0  0  0
 34 60  1  0  0  0  0
 35 62  1  0  0  0  0
 36 63  1  0  0  0  0
 37 39  2  0  0  0  0
 38 39  1  0  0  0  0
 38 64  1  0  0  0  0
 39 65  1  0  0  0  0
M  END
> <PUBCHEM_COMPOUND_CID>
7165018

> <PUBCHEM_CONFORMER_RMSD>
1.2

> <PUBCHEM_CONFORMER_DIVERSEORDER>
3
112
59
195
204
91
85
176
110
36
118
183
174
197
48
74
136
181
26
88
152
126
108
56
47
138
103
170
186
53
4
191
137
107
42
130
10
125
69
58
105
84
150
37
124
54
9
145
169
192
79
119
109
166
128
44
219
50
41
29
184
200
102
147
131
182
154
127
185
43
52
171
30
210
122
5
115
211
61
23
72
99
207
35
196
123
93
175
95
156
117
214
179
57
161
134
83
19
66
77
208
104
116
135
106
51
209
203
217
6
111
18
143
11
73
146
63
132
92
165
168
39
100
86
32
49
75
201
62
199
189
133
120
188
34
98
194
82
153
164
206
177
38
163
167
155
55
96
144
8
45
158
65
16
21
40
198
178
13
76
162
148
22
149
28
129
121
142
2
139
157
97
67
20
90
46
70
1
89
151
94
187
101
31
113
80
218
71
190
205
193
87
140
202
15
141
81
215
173
33
212
159
14
160
27
114
60
64
213
216
25
17
68
180
172
12
78
7
24

> <PUBCHEM_MMFF94_PARTIAL_CHARGES>
54
1 -0.08
10 0.03
11 -0.8
12 0.36
13 0.3
14 0.3
15 0.3
16 0.57
17 0.36
18 0.71
19 0.54
2 -0.19
20 0.18
21 -0.18
22 -0.05
23 0.09
25 0.57
26 -0.3
27 -0.15
28 -0.15
29 -0.15
3 -0.57
30 -0.15
31 -0.15
32 -0.15
33 -0.15
34 -0.15
35 -0.15
36 -0.11
37 0.19
38 -0.15
39 -0.15
4 -0.57
48 0.37
5 -0.57
51 0.15
52 0.27
53 0.15
54 0.15
55 0.15
56 0.15
57 0.15
58 0.37
59 0.37
6 -0.57
60 0.15
61 0.15
62 0.15
63 0.15
64 0.15
65 0.15
7 -0.66
8 -0.66
9 -0.73

> <PUBCHEM_EFFECTIVE_ROTOR_COUNT>
11.2

> <PUBCHEM_PHARMACOPHORE_FEATURES>
13
1 10 cation
1 10 donor
1 11 donor
1 3 acceptor
1 4 acceptor
1 5 acceptor
1 6 acceptor
1 9 donor
5 1 22 28 33 36 rings
5 10 21 24 26 27 rings
6 23 29 30 37 38 39 rings
6 24 27 31 32 34 35 rings
6 7 8 12 13 14 15 rings

> <PUBCHEM_HEAVY_ATOM_COUNT>
39

> <PUBCHEM_ATOM_DEF_STEREO_COUNT>
2

> <PUBCHEM_ATOM_UDEF_STEREO_COUNT>
0

> <PUBCHEM_BOND_DEF_STEREO_COUNT>
0

> <PUBCHEM_BOND_UDEF_STEREO_COUNT>
0

> <PUBCHEM_ISOTOPIC_ATOM_COUNT>
0

> <PUBCHEM_COMPONENT_COUNT>
1

> <PUBCHEM_CACTVS_TAUTO_COUNT>
4

> <PUBCHEM_CONFORMER_ID>
006D545A00000003

> <PUBCHEM_MMFF94_ENERGY>
94.7137

> <PUBCHEM_FEATURE_SELFOVERLAP>
66.065

> <PUBCHEM_SHAPE_FINGERPRINT>
11421498 54 18041560346814561170
11991303 11 18115596937359906439
12788726 201 18335709359630293610
13911987 19 18122917421094868057
14932702 115 18411412891476271920
15200665 1 18042959879113867603
15775530 1 18197755869033385401
15815584 197 17398346156150088235
19319366 153 17693083077501544789
20764821 26 18268128886614046113
20775438 99 17914307148997593038
21049683 271 17904489854132927718
469060 322 17896058622840896749
6677587 24 16160414479938398879

> <PUBCHEM_SHAPE_MULTIPOLES>
750.8
10.89
7.81
2.67
11.62
2.5
0.91
5.78
4.88
-13.81
-1.15
1.38
-2.87
2.69

> <PUBCHEM_SHAPE_SELFOVERLAP>
1629.075

> <PUBCHEM_SHAPE_VOLUME>
413.3

> <PUBCHEM_COORDINATE_TYPE>
2
5
10

$$$$
