71694354
  -OEChem-12032416393D

 74 77  0     1  0  0  0  0  0999 V2000
   -0.0371   -4.1493   -0.5547 O   0  0  0  0  0  0  0  0  0  0  0  0
   -5.0692    0.3985   -2.1180 O   0  0  0  0  0  0  0  0  0  0  0  0
    0.8392    0.8796    0.8932 O   0  0  0  0  0  0  0  0  0  0  0  0
   -8.4831    2.1785    0.1656 O   0  0  0  0  0  0  0  0  0  0  0  0
   -1.5446   -2.7452    0.5006 N   0  0  0  0  0  0  0  0  0  0  0  0
   -6.7130    0.0246   -0.5183 N   0  0  0  0  0  0  0  0  0  0  0  0
    1.3801   -1.9261    1.4390 N   0  0  0  0  0  0  0  0  0  0  0  0
    6.2518    0.8179   -0.4360 N   0  0  0  0  0  0  0  0  0  0  0  0
    8.9728    0.9214   -1.2932 N   0  0  0  0  0  0  0  0  0  0  0  0
   -2.9872   -0.3866   -0.4217 C   0  0  1  0  0  0  0  0  0  0  0  0
   -1.9120   -0.3473    0.7047 C   0  0  2  0  0  0  0  0  0  0  0  0
   -2.7196   -1.6060   -1.3354 C   0  0  0  0  0  0  0  0  0  0  0  0
   -1.8668   -1.6868    1.4642 C   0  0  0  0  0  0  0  0  0  0  0  0
   -2.5545   -2.9087   -0.5483 C   0  0  0  0  0  0  0  0  0  0  0  0
   -4.4373   -0.3960    0.0782 C   0  0  0  0  0  0  0  0  0  0  0  0
   -2.0548    0.8139    1.6523 C   0  0  0  0  0  0  0  0  0  0  0  0
   -0.3189   -3.4010    0.3888 C   0  0  0  0  0  0  0  0  0  0  0  0
   -5.4085    0.0541   -0.9891 C   0  0  0  0  0  0  0  0  0  0  0  0
   -1.1753    1.7938    1.9220 C   0  0  0  0  0  0  0  0  0  0  0  0
    0.7072   -3.2209    1.4922 C   0  0  0  0  0  0  0  0  0  0  0  0
    0.2299    2.0447    1.4371 C   0  0  0  0  0  0  0  0  0  0  0  0
    1.9879   -1.5962    0.1517 C   0  0  0  0  0  0  0  0  0  0  0  0
    2.7749   -0.2981    0.2150 C   0  0  0  0  0  0  0  0  0  0  0  0
    7.1793    1.7741    0.1780 C   0  0  0  0  0  0  0  0  0  0  0  0
    6.6194    0.3459   -1.7779 C   0  0  0  0  0  0  0  0  0  0  0  0
   -7.8512    0.4055   -1.3229 C   0  0  0  0  0  0  0  0  0  0  0  0
    4.8939    0.8541   -0.0995 C   0  0  0  0  0  0  0  0  0  0  0  0
    2.1737    0.9298    0.5763 C   0  0  0  0  0  0  0  0  0  0  0  0
    8.6167    1.2628    0.0829 C   0  0  0  0  0  0  0  0  0  0  0  0
    8.0762   -0.1154   -1.8022 C   0  0  0  0  0  0  0  0  0  0  0  0
    4.1384   -0.3167   -0.1215 C   0  0  0  0  0  0  0  0  0  0  0  0
    4.2958    2.0595    0.2533 C   0  0  0  0  0  0  0  0  0  0  0  0
    2.9415    2.1003    0.5884 C   0  0  0  0  0  0  0  0  0  0  0  0
   -8.1596    1.8855   -1.1875 C   0  0  0  0  0  0  0  0  0  0  0  0
   -8.7859    3.5556    0.3427 C   0  0  0  0  0  0  0  0  0  0  0  0
   -2.8386    0.5172   -1.0297 H   0  0  0  0  0  0  0  0  0  0  0  0
   -0.9641   -0.2527    0.1683 H   0  0  0  0  0  0  0  0  0  0  0  0
   -1.7921   -1.4181   -1.8929 H   0  0  0  0  0  0  0  0  0  0  0  0
   -3.5106   -1.7275   -2.0830 H   0  0  0  0  0  0  0  0  0  0  0  0
   -1.1312   -1.6453    2.2696 H   0  0  0  0  0  0  0  0  0  0  0  0
   -2.8326   -1.9269    1.9244 H   0  0  0  0  0  0  0  0  0  0  0  0
   -3.4922   -3.2059   -0.0668 H   0  0  0  0  0  0  0  0  0  0  0  0
   -2.2757   -3.7162   -1.2328 H   0  0  0  0  0  0  0  0  0  0  0  0
   -4.5726    0.3017    0.9102 H   0  0  0  0  0  0  0  0  0  0  0  0
   -4.7388   -1.3855    0.4369 H   0  0  0  0  0  0  0  0  0  0  0  0
   -2.9917    0.8649    2.2040 H   0  0  0  0  0  0  0  0  0  0  0  0
   -1.5185    2.5483    2.6312 H   0  0  0  0  0  0  0  0  0  0  0  0
    0.2209   -3.3552    2.4640 H   0  0  0  0  0  0  0  0  0  0  0  0
    1.4478   -4.0258    1.4073 H   0  0  0  0  0  0  0  0  0  0  0  0
   -6.8894   -0.2667    0.4389 H   0  0  0  0  0  0  0  0  0  0  0  0
    0.1972    2.8413    0.6847 H   0  0  0  0  0  0  0  0  0  0  0  0
    0.8105    2.3852    2.3037 H   0  0  0  0  0  0  0  0  0  0  0  0
    2.0940   -1.9033    2.1675 H   0  0  0  0  0  0  0  0  0  0  0  0
    1.2257   -1.4790   -0.6279 H   0  0  0  0  0  0  0  0  0  0  0  0
    2.6477   -2.4146   -0.1613 H   0  0  0  0  0  0  0  0  0  0  0  0
    6.9398    1.9213    1.2385 H   0  0  0  0  0  0  0  0  0  0  0  0
    7.1015    2.7457   -0.3266 H   0  0  0  0  0  0  0  0  0  0  0  0
    6.4691    1.1603   -2.4985 H   0  0  0  0  0  0  0  0  0  0  0  0
    5.9909   -0.4914   -2.1019 H   0  0  0  0  0  0  0  0  0  0  0  0
   -8.6963   -0.1936   -0.9683 H   0  0  0  0  0  0  0  0  0  0  0  0
   -7.6546    0.1530   -2.3699 H   0  0  0  0  0  0  0  0  0  0  0  0
    8.7500    0.3872    0.7307 H   0  0  0  0  0  0  0  0  0  0  0  0
    9.2994    2.0379    0.4479 H   0  0  0  0  0  0  0  0  0  0  0  0
    8.3594   -0.3587   -2.8320 H   0  0  0  0  0  0  0  0  0  0  0  0
    8.1923   -1.0329   -1.2116 H   0  0  0  0  0  0  0  0  0  0  0  0
    4.6085   -1.2610   -0.3888 H   0  0  0  0  0  0  0  0  0  0  0  0
    9.9323    0.5774   -1.3169 H   0  0  0  0  0  0  0  0  0  0  0  0
    4.8496    2.9942    0.2635 H   0  0  0  0  0  0  0  0  0  0  0  0
    2.5135    3.0639    0.8474 H   0  0  0  0  0  0  0  0  0  0  0  0
   -7.2937    2.4844   -1.4939 H   0  0  0  0  0  0  0  0  0  0  0  0
   -9.0103    2.1405   -1.8298 H   0  0  0  0  0  0  0  0  0  0  0  0
   -9.0271    3.7222    1.3959 H   0  0  0  0  0  0  0  0  0  0  0  0
   -9.6522    3.8391   -0.2629 H   0  0  0  0  0  0  0  0  0  0  0  0
   -7.9228    4.1750    0.0801 H   0  0  0  0  0  0  0  0  0  0  0  0
  1 17  2  0  0  0  0
  2 18  2  0  0  0  0
  3 21  1  0  0  0  0
  3 28  1  0  0  0  0
  4 34  1  0  0  0  0
  4 35  1  0  0  0  0
  5 13  1  0  0  0  0
  5 14  1  0  0  0  0
  5 17  1  0  0  0  0
  6 18  1  0  0  0  0
  6 26  1  0  0  0  0
  6 50  1  0  0  0  0
  7 20  1  0  0  0  0
  7 22  1  0  0  0  0
  7 53  1  0  0  0  0
  8 24  1  0  0  0  0
  8 25  1  0  0  0  0
  8 27  1  0  0  0  0
  9 29  1  0  0  0  0
  9 30  1  0  0  0  0
  9 67  1  0  0  0  0
 10 11  1  0  0  0  0
 10 12  1  0  0  0  0
 10 15  1  0  0  0  0
 10 36  1  0  0  0  0
 11 13  1  0  0  0  0
 11 16  1  0  0  0  0
 11 37  1  0  0  0  0
 12 14  1  0  0  0  0
 12 38  1  0  0  0  0
 12 39  1  0  0  0  0
 13 40  1  0  0  0  0
 13 41  1  0  0  0  0
 14 42  1  0  0  0  0
 14 43  1  0  0  0  0
 15 18  1  0  0  0  0
 15 44  1  0  0  0  0
 15 45  1  0  0  0  0
 16 19  2  0  0  0  0
 16 46  1  0  0  0  0
 17 20  1  0  0  0  0
 19 21  1  0  0  0  0
 19 47  1  0  0  0  0
 20 48  1  0  0  0  0
 20 49  1  0  0  0  0
 21 51  1  0  0  0  0
 21 52  1  0  0  0  0
 22 23  1  0  0  0  0
 22 54  1  0  0  0  0
 22 55  1  0  0  0  0
 23 28  2  0  0  0  0
 23 31  1  0  0  0  0
 24 29  1  0  0  0  0
 24 56  1  0  0  0  0
 24 57  1  0  0  0  0
 25 30  1  0  0  0  0
 25 58  1  0  0  0  0
 25 59  1  0  0  0  0
 26 34  1  0  0  0  0
 26 60  1  0  0  0  0
 26 61  1  0  0  0  0
 27 31  2  0  0  0  0
 27 32  1  0  0  0  0
 28 33  1  0  0  0  0
 29 62  1  0  0  0  0
 29 63  1  0  0  0  0
 30 64  1  0  0  0  0
 30 65  1  0  0  0  0
 31 66  1  0  0  0  0
 32 33  2  0  0  0  0
 32 68  1  0  0  0  0
 33 69  1  0  0  0  0
 34 70  1  0  0  0  0
 34 71  1  0  0  0  0
 35 72  1  0  0  0  0
 35 73  1  0  0  0  0
 35 74  1  0  0  0  0
M  END
> <PUBCHEM_COMPOUND_CID>
71694354

> <PUBCHEM_CONFORMER_RMSD>
1

> <PUBCHEM_CONFORMER_DIVERSEORDER>
1
87
73
40
52
85
44
78
75
72
43
28
86
60
3
56
35
67
88
61
79
69
84
49
62
42
74
71
7
51
66
55
10
24
57
15
82
29
5
32
37
70
68
21
80
53
6
63
81
11
83
45
65
22
59
64
47
76
33
34
77
41
19
48
26
54
38
36
16
18
8
25
12
9
31
2
39
27
14
30
50
58
13
20
4
46
17
23

> <PUBCHEM_MMFF94_PARTIAL_CHARGES>
41
1 -0.57
11 0.14
13 0.3
14 0.3
15 0.06
16 -0.29
17 0.57
18 0.57
19 -0.29
2 -0.57
20 0.33
21 0.42
22 0.41
23 -0.14
24 0.37
25 0.37
26 0.3
27 0.1
28 0.08
29 0.27
3 -0.36
30 0.27
31 -0.15
32 -0.15
33 -0.15
34 0.28
35 0.28
4 -0.56
46 0.15
47 0.15
5 -0.66
50 0.37
53 0.36
6 -0.73
66 0.15
67 0.36
68 0.15
69 0.15
7 -0.9
8 -0.84
9 -0.9

> <PUBCHEM_EFFECTIVE_ROTOR_COUNT>
10

> <PUBCHEM_PHARMACOPHORE_FEATURES>
13
1 1 acceptor
1 2 acceptor
1 3 acceptor
1 4 acceptor
1 6 donor
1 7 cation
1 7 donor
1 8 cation
1 9 cation
1 9 donor
6 23 27 28 31 32 33 rings
6 5 10 11 12 13 14 rings
6 8 9 24 25 29 30 rings

> <PUBCHEM_HEAVY_ATOM_COUNT>
35

> <PUBCHEM_ATOM_DEF_STEREO_COUNT>
2

> <PUBCHEM_ATOM_UDEF_STEREO_COUNT>
0

> <PUBCHEM_BOND_DEF_STEREO_COUNT>
1

> <PUBCHEM_BOND_UDEF_STEREO_COUNT>
0

> <PUBCHEM_ISOTOPIC_ATOM_COUNT>
0

> <PUBCHEM_COMPONENT_COUNT>
1

> <PUBCHEM_CACTVS_TAUTO_COUNT>
4

> <PUBCHEM_CONFORMER_ID>
0445F81200000001

> <PUBCHEM_MMFF94_ENERGY>
99.6701

> <PUBCHEM_FEATURE_SELFOVERLAP>
65.975

> <PUBCHEM_SHAPE_FINGERPRINT>
10165383 225 18259980487956205895
10190206 1 18130228164756664977
10391435 84 18058727044108648504
10483366 6 18413105052677252193
10674148 151 18059850666622891224
10675989 125 18412254022346057401
11135609 187 18411979140217557313
11135926 11 18412554210009746074
1200032 147 18040713649645665491
12660671 118 18190735328968128730
12788726 201 17846778473635569041
12838862 33 18341039783638112080
13947947 74 18343581845520223257
14068700 675 14189577463671305275
14117953 113 18407759252886604404
14931854 50 18272932713097854785
15064981 194 18262813993745228197
15183329 4 17917703579799011761
18393751 57 11169911697348411400
19958102 18 18339935853111480558
21057603 307 17273985636029745847
21585482 111 18189611654075677501
21792965 184 11025808582926381824
23559900 14 18057322997534957032
24771293 8 17894630340942419719
249057 3 18334576892987214508
3633792 109 18342178847319211520
4058900 60 18260267413315253563
4169191 19 18336538315148145581
444735 79 8646778798206856134
45266715 3 18272941501129158950
57303763 176 18200033907303603920
57527295 17 18338783628490958547
57676310 115 18200319793539334017
6081469 158 14549016581130877001

> <PUBCHEM_SHAPE_MULTIPOLES>
671.9
25.35
3.8
1.66
0.49
2.63
-0.13
-24.73
-14.92
4.06
1.02
0.18
-0.03
-0.06

> <PUBCHEM_SHAPE_SELFOVERLAP>
1389.127

> <PUBCHEM_SHAPE_VOLUME>
378.6

> <PUBCHEM_COORDINATE_TYPE>
2
5
10

$$$$
