11911867
  -OEChem-12032416373D

 72 76  0     1  0  0  0  0  0999 V2000
    0.5306    1.1071   -1.7088 O   0  0  0  0  0  0  0  0  0  0  0  0
    1.2174    4.1093   -1.2073 O   0  0  0  0  0  0  0  0  0  0  0  0
    5.2893    1.0806   -1.1469 O   0  0  0  0  0  0  0  0  0  0  0  0
    1.8487   -1.5358    0.1608 O   0  0  0  0  0  0  0  0  0  0  0  0
    2.8196   -2.8215    1.7686 O   0  0  0  0  0  0  0  0  0  0  0  0
    3.2048    1.2332   -0.1298 N   0  0  0  0  0  0  0  0  0  0  0  0
   -1.4941    3.5048    0.1568 N   0  0  0  0  0  0  0  0  0  0  0  0
   -2.9448    1.6700    0.3443 N   0  0  0  0  0  0  0  0  0  0  0  0
   -3.0290    3.4811    1.9316 N   0  0  0  0  0  0  0  0  0  0  0  0
   -5.6467   -3.8904   -1.0562 N   0  0  0  0  0  0  0  0  0  0  0  0
    5.2708   -1.5395    0.4459 C   0  0  0  0  0  0  0  0  0  0  0  0
    1.4615    2.9056   -0.4607 C   0  0  1  0  0  0  0  0  0  0  0  0
    0.2462    2.0149   -0.6310 C   0  0  1  0  0  0  0  0  0  0  0  0
    6.4803   -1.4839   -0.5180 C   0  0  0  0  0  0  0  0  0  0  0  0
    5.7434   -2.4005    1.6395 C   0  0  0  0  0  0  0  0  0  0  0  0
    2.5871    2.1163   -1.0892 C   0  0  2  0  0  0  0  0  0  0  0  0
   -0.8576    2.9673   -1.0258 C   0  0  2  0  0  0  0  0  0  0  0  0
    4.8942   -0.1262    0.9116 C   0  0  0  0  0  0  0  0  0  0  0  0
    7.4853   -2.4925    0.0242 C   0  0  0  0  0  0  0  0  0  0  0  0
    7.2604   -2.4435    1.5238 C   0  0  0  0  0  0  0  0  0  0  0  0
    1.8690    1.3341   -2.1745 C   0  0  0  0  0  0  0  0  0  0  0  0
    4.0561   -2.1837   -0.2334 C   0  0  0  0  0  0  0  0  0  0  0  0
   -0.1059    4.0618   -1.7610 C   0  0  0  0  0  0  0  0  0  0  0  0
    4.5150    0.7860   -0.2404 C   0  0  0  0  0  0  0  0  0  0  0  0
    2.8784   -2.2416    0.6948 C   0  0  0  0  0  0  0  0  0  0  0  0
   -2.5197    2.8663    0.8311 C   0  0  0  0  0  0  0  0  0  0  0  0
   -3.9459    1.0754    1.0257 C   0  0  0  0  0  0  0  0  0  0  0  0
   -4.0276    2.8310    2.5645 C   0  0  0  0  0  0  0  0  0  0  0  0
   -4.5315    1.6140    2.1534 C   0  0  0  0  0  0  0  0  0  0  0  0
   -4.3810   -0.1934    0.4930 C   0  0  0  0  0  0  0  0  0  0  0  0
   -5.7061   -0.6034    0.6534 C   0  0  0  0  0  0  0  0  0  0  0  0
   -3.4778   -1.0157   -0.1839 C   0  0  0  0  0  0  0  0  0  0  0  0
   -6.1262   -1.8301    0.1396 C   0  0  0  0  0  0  0  0  0  0  0  0
   -3.8978   -2.2425   -0.6980 C   0  0  0  0  0  0  0  0  0  0  0  0
   -5.2222   -2.6497   -0.5363 C   0  0  0  0  0  0  0  0  0  0  0  0
   -6.7146   -4.6290   -0.4124 C   0  0  0  0  0  0  0  0  0  0  0  0
   -5.0299   -4.4359   -2.2489 C   0  0  0  0  0  0  0  0  0  0  0  0
    1.6396    3.1952    0.5799 H   0  0  0  0  0  0  0  0  0  0  0  0
    0.0369    1.4086    0.2562 H   0  0  0  0  0  0  0  0  0  0  0  0
    3.3626    2.7528   -1.5289 H   0  0  0  0  0  0  0  0  0  0  0  0
    6.2198   -1.7029   -1.5588 H   0  0  0  0  0  0  0  0  0  0  0  0
    6.9743   -0.5058   -0.4987 H   0  0  0  0  0  0  0  0  0  0  0  0
    5.3692   -3.4292    1.5639 H   0  0  0  0  0  0  0  0  0  0  0  0
    5.4302   -2.0065    2.6121 H   0  0  0  0  0  0  0  0  0  0  0  0
   -1.6008    2.5266   -1.7002 H   0  0  0  0  0  0  0  0  0  0  0  0
    5.7521    0.3477    1.4082 H   0  0  0  0  0  0  0  0  0  0  0  0
    4.1047   -0.1515    1.6716 H   0  0  0  0  0  0  0  0  0  0  0  0
    7.2597   -3.4937   -0.3617 H   0  0  0  0  0  0  0  0  0  0  0  0
    8.5141   -2.2441   -0.2518 H   0  0  0  0  0  0  0  0  0  0  0  0
    7.7013   -1.5338    1.9481 H   0  0  0  0  0  0  0  0  0  0  0  0
    7.6915   -3.3069    2.0383 H   0  0  0  0  0  0  0  0  0  0  0  0
    2.3363    0.3741   -2.4136 H   0  0  0  0  0  0  0  0  0  0  0  0
    1.7963    1.9209   -3.0968 H   0  0  0  0  0  0  0  0  0  0  0  0
    3.7845   -1.6460   -1.1501 H   0  0  0  0  0  0  0  0  0  0  0  0
    4.2745   -3.2113   -0.5499 H   0  0  0  0  0  0  0  0  0  0  0  0
   -0.0027    3.8182   -2.8242 H   0  0  0  0  0  0  0  0  0  0  0  0
   -0.5678    5.0507   -1.6799 H   0  0  0  0  0  0  0  0  0  0  0  0
    2.6242    0.8810    0.6258 H   0  0  0  0  0  0  0  0  0  0  0  0
   -1.1501    4.3697    0.5582 H   0  0  0  0  0  0  0  0  0  0  0  0
    1.0580   -1.5447    0.7412 H   0  0  0  0  0  0  0  0  0  0  0  0
   -4.4204    3.3297    3.4441 H   0  0  0  0  0  0  0  0  0  0  0  0
   -5.3185    1.1363    2.7226 H   0  0  0  0  0  0  0  0  0  0  0  0
   -6.4498    0.0156    1.1483 H   0  0  0  0  0  0  0  0  0  0  0  0
   -2.4355   -0.7343   -0.3155 H   0  0  0  0  0  0  0  0  0  0  0  0
   -7.1681   -2.1101    0.2671 H   0  0  0  0  0  0  0  0  0  0  0  0
   -3.1657   -2.8635   -1.2065 H   0  0  0  0  0  0  0  0  0  0  0  0
   -7.6918   -4.2228   -0.6937 H   0  0  0  0  0  0  0  0  0  0  0  0
   -6.6988   -5.6841   -0.7082 H   0  0  0  0  0  0  0  0  0  0  0  0
   -6.6169   -4.6070    0.6789 H   0  0  0  0  0  0  0  0  0  0  0  0
   -5.6667   -5.1995   -2.7094 H   0  0  0  0  0  0  0  0  0  0  0  0
   -4.8684   -3.6613   -3.0072 H   0  0  0  0  0  0  0  0  0  0  0  0
   -4.0715   -4.9081   -2.0087 H   0  0  0  0  0  0  0  0  0  0  0  0
  1 13  1  0  0  0  0
  1 21  1  0  0  0  0
  2 12  1  0  0  0  0
  2 23  1  0  0  0  0
  3 24  2  0  0  0  0
  4 25  1  0  0  0  0
  4 60  1  0  0  0  0
  5 25  2  0  0  0  0
  6 16  1  0  0  0  0
  6 24  1  0  0  0  0
  6 58  1  0  0  0  0
  7 17  1  0  0  0  0
  7 26  1  0  0  0  0
  7 59  1  0  0  0  0
  8 26  1  0  0  0  0
  8 27  2  0  0  0  0
  9 26  2  0  0  0  0
  9 28  1  0  0  0  0
 10 35  1  0  0  0  0
 10 36  1  0  0  0  0
 10 37  1  0  0  0  0
 11 14  1  0  0  0  0
 11 15  1  0  0  0  0
 11 18  1  0  0  0  0
 11 22  1  0  0  0  0
 12 13  1  0  0  0  0
 12 16  1  0  0  0  0
 12 38  1  0  0  0  0
 13 17  1  0  0  0  0
 13 39  1  0  0  0  0
 14 19  1  0  0  0  0
 14 41  1  0  0  0  0
 14 42  1  0  0  0  0
 15 20  1  0  0  0  0
 15 43  1  0  0  0  0
 15 44  1  0  0  0  0
 16 21  1  0  0  0  0
 16 40  1  0  0  0  0
 17 23  1  0  0  0  0
 17 45  1  0  0  0  0
 18 24  1  0  0  0  0
 18 46  1  0  0  0  0
 18 47  1  0  0  0  0
 19 20  1  0  0  0  0
 19 48  1  0  0  0  0
 19 49  1  0  0  0  0
 20 50  1  0  0  0  0
 20 51  1  0  0  0  0
 21 52  1  0  0  0  0
 21 53  1  0  0  0  0
 22 25  1  0  0  0  0
 22 54  1  0  0  0  0
 22 55  1  0  0  0  0
 23 56  1  0  0  0  0
 23 57  1  0  0  0  0
 27 29  1  0  0  0  0
 27 30  1  0  0  0  0
 28 29  2  0  0  0  0
 28 61  1  0  0  0  0
 29 62  1  0  0  0  0
 30 31  2  0  0  0  0
 30 32  1  0  0  0  0
 31 33  1  0  0  0  0
 31 63  1  0  0  0  0
 32 34  2  0  0  0  0
 32 64  1  0  0  0  0
 33 35  2  0  0  0  0
 33 65  1  0  0  0  0
 34 35  1  0  0  0  0
 34 66  1  0  0  0  0
 36 67  1  0  0  0  0
 36 68  1  0  0  0  0
 36 69  1  0  0  0  0
 37 70  1  0  0  0  0
 37 71  1  0  0  0  0
 37 72  1  0  0  0  0
M  END
> <PUBCHEM_COMPOUND_CID>
11911867

> <PUBCHEM_CONFORMER_RMSD>
1.2

> <PUBCHEM_CONFORMER_DIVERSEORDER>
1
25
109
79
64
134
161
143
155
182
191
110
49
100
93
30
172
160
94
113
128
102
122
157
81
149
32
78
65
39
180
53
16
146
75
159
118
132
173
133
186
178
170
105
168
97
13
101
71
24
115
156
117
179
86
50
142
59
40
163
130
123
76
111
164
74
152
135
15
177
153
189
145
150
119
60
62
20
136
63
11
171
140
23
174
19
166
73
116
45
70
141
125
121
138
114
89
85
131
176
92
27
44
21
187
5
90
14
98
103
29
137
181
48
57
67
66
87
104
4
69
192
108
12
165
35
124
158
2
9
52
162
184
10
175
34
68
112
47
96
139
120
106
151
190
22
99
83
33
95
43
82
126
167
54
84
26
46
183
77
37
148
129
17
88
31
91
80
107
51
42
185
127
154
38
36
58
41
147
6
28
8
188
55
3
7
72
61
56
18
169
144

> <PUBCHEM_MMFF94_PARTIAL_CHARGES>
40
1 -0.56
10 -0.84
12 0.28
13 0.28
16 0.3
17 0.37
18 0.06
2 -0.56
21 0.28
22 0.06
23 0.28
24 0.57
25 0.66
26 0.72
27 0.31
28 0.16
29 -0.15
3 -0.57
31 -0.15
32 -0.15
33 -0.15
34 -0.15
35 0.1
36 0.37
37 0.37
4 -0.65
5 -0.57
58 0.37
59 0.4
6 -0.73
60 0.5
61 0.15
62 0.15
63 0.15
64 0.15
65 0.15
66 0.15
7 -0.87
8 -0.62
9 -0.62

> <PUBCHEM_EFFECTIVE_ROTOR_COUNT>
12.2

> <PUBCHEM_PHARMACOPHORE_FEATURES>
16
1 1 acceptor
1 10 cation
1 2 acceptor
1 3 acceptor
1 4 acceptor
1 5 acceptor
1 6 donor
1 7 donor
1 8 acceptor
3 4 5 25 anion
4 7 8 9 26 cation
5 1 12 13 16 21 rings
5 11 14 15 19 20 rings
5 2 12 13 17 23 rings
6 30 31 32 33 34 35 rings
6 8 9 26 27 28 29 rings

> <PUBCHEM_HEAVY_ATOM_COUNT>
37

> <PUBCHEM_ATOM_DEF_STEREO_COUNT>
4

> <PUBCHEM_ATOM_UDEF_STEREO_COUNT>
0

> <PUBCHEM_BOND_DEF_STEREO_COUNT>
0

> <PUBCHEM_BOND_UDEF_STEREO_COUNT>
0

> <PUBCHEM_ISOTOPIC_ATOM_COUNT>
0

> <PUBCHEM_COMPONENT_COUNT>
1

> <PUBCHEM_CACTVS_TAUTO_COUNT>
6

> <PUBCHEM_CONFORMER_ID>
00B5C2BB00000001

> <PUBCHEM_MMFF94_ENERGY>
124.0212

> <PUBCHEM_FEATURE_SELFOVERLAP>
81.962

> <PUBCHEM_SHAPE_FINGERPRINT>
10462674 296 18408602573724738884
10622 236 18339078315150009773
10815517 723 18336548227152091874
10908659 184 17698745906257022239
10985338 1 17029932850792412573
11227150 75 17270288197674836119
11409948 35 18048033267454550875
11478447 58 17619061072217288650
11497681 19 18408887356728614300
11607047 403 17838885281428984104
11963148 33 17899693467466886290
12218070 45 18343301435832714063
12422481 6 18127701439231524412
131258 38 17550937531220101343
14040221 299 17632303324025958959
14068700 675 18412823616281225139
14395042 24 18341905074373787131
14784336 7 18125723641457409849
14950920 106 18131068178349247728
15320294 125 18340498785747719957
15361156 5 17532105903413957900
16728300 4 18198905993352635703
16989713 51 18189334568396287206
16993427 108 18057598962242888183
18608769 82 18266177228770270466
19303781 99 17676775284157087488
19315092 285 17987242312044316225
19319366 153 17475516556956898525
208703 8 18410850001499775999
21033648 29 15841278030189530129
24204213 148 18193556894910935980
3882209 13 18201707493008224239
392239 28 18116436947268970674
397830 11 18201988916566776560
4017518 198 17979918207789177445
4440575 13 18409728474333351051
463206 1 18187662292240162832
484985 159 18263354811959397213
50080093 196 18334296422843337235
6058803 2 18194708027529856165
6201460 15 18196370540407665591
66674814 147 17967818249354071210
6691757 9 17986961756823687601
9555976 147 17989215819493709451

> <PUBCHEM_SHAPE_MULTIPOLES>
707.19
19.31
6.68
1.97
10.54
0.52
-0.26
25.66
-4.2
-7.67
1.73
-0.92
-0.8
-7.06

> <PUBCHEM_SHAPE_SELFOVERLAP>
1523.494

> <PUBCHEM_SHAPE_VOLUME>
390

> <PUBCHEM_COORDINATE_TYPE>
2
5
10

$$$$
