7674051
  -OEChem-12032416133D

 60 62  0     1  0  0  0  0  0999 V2000
    0.0014   -2.4914   -1.1897 S   0  0  0  0  0  0  0  0  0  0  0  0
   -4.5949   -2.4954    2.4979 F   0  0  0  0  0  0  0  0  0  0  0  0
    2.4610   -0.1160   -2.2131 O   0  0  0  0  0  0  0  0  0  0  0  0
    1.2000   -2.6966   -0.4113 O   0  0  0  0  0  0  0  0  0  0  0  0
   -0.3221   -3.3376   -2.3139 O   0  0  0  0  0  0  0  0  0  0  0  0
   -1.4242    3.6114    0.2105 O   0  0  0  0  0  0  0  0  0  0  0  0
    4.0910   -1.1735    1.9231 O   0  0  0  0  0  0  0  0  0  0  0  0
   -0.0436   -0.8599   -1.7056 N   0  0  2  0  0  0  0  0  0  0  0  0
   -1.4372    1.5688   -0.8944 N   0  0  0  0  0  0  0  0  0  0  0  0
    2.7967    0.3337    0.0462 N   0  0  0  0  0  0  0  0  0  0  0  0
    5.9334    0.1729    1.8202 N   0  0  0  0  0  0  0  0  0  0  0  0
   -3.4411    2.5650   -0.1543 N   0  0  0  0  0  0  0  0  0  0  0  0
    0.5679    0.1497   -0.7937 C   0  0  2  0  0  0  0  0  0  0  0  0
    0.0180    1.5488   -1.0457 C   0  0  0  0  0  0  0  0  0  0  0  0
   -1.2913   -0.4122   -2.3886 C   0  0  0  0  0  0  0  0  0  0  0  0
   -2.1575    0.4159   -1.4491 C   0  0  0  0  0  0  0  0  0  0  0  0
    2.0307    0.1112   -1.0853 C   0  0  0  0  0  0  0  0  0  0  0  0
    4.2365    0.3256    0.0368 C   0  0  1  0  0  0  0  0  0  0  0  0
    4.7847    1.7152   -0.2568 C   0  0  0  0  0  0  0  0  0  0  0  0
    6.2953    1.7137   -0.0870 C   0  0  0  0  0  0  0  0  0  0  0  0
   -2.0549    2.6537   -0.2471 C   0  0  0  0  0  0  0  0  0  0  0  0
   -1.3741   -2.4925   -0.0861 C   0  0  0  0  0  0  0  0  0  0  0  0
    4.7114   -0.2710    1.3572 C   0  0  0  0  0  0  0  0  0  0  0  0
    6.6327    1.3534    1.3475 C   0  0  0  0  0  0  0  0  0  0  0  0
   -4.2411    3.5859    0.4834 C   0  0  0  0  0  0  0  0  0  0  0  0
   -2.6489   -2.8012   -0.5609 C   0  0  0  0  0  0  0  0  0  0  0  0
   -1.1874   -2.1846    1.2615 C   0  0  0  0  0  0  0  0  0  0  0  0
   -5.6082    3.6869   -0.1815 C   0  0  0  0  0  0  0  0  0  0  0  0
   -4.3720    3.3017    1.9741 C   0  0  0  0  0  0  0  0  0  0  0  0
   -3.7368   -2.8021    0.3119 C   0  0  0  0  0  0  0  0  0  0  0  0
   -2.2753   -2.1855    2.1343 C   0  0  0  0  0  0  0  0  0  0  0  0
   -3.5500   -2.4944    1.6596 C   0  0  0  0  0  0  0  0  0  0  0  0
    0.3677   -0.1192    0.2476 H   0  0  0  0  0  0  0  0  0  0  0  0
    0.4833    2.2694   -0.3638 H   0  0  0  0  0  0  0  0  0  0  0  0
    0.2426    1.8939   -2.0631 H   0  0  0  0  0  0  0  0  0  0  0  0
   -0.9897    0.1893   -3.2558 H   0  0  0  0  0  0  0  0  0  0  0  0
   -1.8542   -1.2528   -2.8027 H   0  0  0  0  0  0  0  0  0  0  0  0
   -3.0215    0.7843   -2.0132 H   0  0  0  0  0  0  0  0  0  0  0  0
   -2.5421   -0.1441   -0.5978 H   0  0  0  0  0  0  0  0  0  0  0  0
    4.5746   -0.3619   -0.7497 H   0  0  0  0  0  0  0  0  0  0  0  0
    4.5238    2.0174   -1.2780 H   0  0  0  0  0  0  0  0  0  0  0  0
    4.3355    2.4574    0.4162 H   0  0  0  0  0  0  0  0  0  0  0  0
    2.3303    0.5417    0.9249 H   0  0  0  0  0  0  0  0  0  0  0  0
    6.7102    2.6966   -0.3345 H   0  0  0  0  0  0  0  0  0  0  0  0
    6.7451    0.9863   -0.7737 H   0  0  0  0  0  0  0  0  0  0  0  0
    6.3577    2.1721    2.0218 H   0  0  0  0  0  0  0  0  0  0  0  0
    7.7062    1.1727    1.4607 H   0  0  0  0  0  0  0  0  0  0  0  0
    6.2868   -0.2594    2.6682 H   0  0  0  0  0  0  0  0  0  0  0  0
   -3.9133    1.7093   -0.4213 H   0  0  0  0  0  0  0  0  0  0  0  0
   -3.7309    4.5489    0.3616 H   0  0  0  0  0  0  0  0  0  0  0  0
   -2.8202   -3.0520   -1.6036 H   0  0  0  0  0  0  0  0  0  0  0  0
   -0.2042   -1.9456    1.6564 H   0  0  0  0  0  0  0  0  0  0  0  0
   -6.2079    4.4818    0.2738 H   0  0  0  0  0  0  0  0  0  0  0  0
   -5.5043    3.9092   -1.2492 H   0  0  0  0  0  0  0  0  0  0  0  0
   -6.1642    2.7467   -0.0936 H   0  0  0  0  0  0  0  0  0  0  0  0
   -4.9608    4.0798    2.4709 H   0  0  0  0  0  0  0  0  0  0  0  0
   -3.3883    3.2649    2.4547 H   0  0  0  0  0  0  0  0  0  0  0  0
   -4.8607    2.3372    2.1526 H   0  0  0  0  0  0  0  0  0  0  0  0
   -4.7292   -3.0436   -0.0568 H   0  0  0  0  0  0  0  0  0  0  0  0
   -2.1303   -1.9466    3.1837 H   0  0  0  0  0  0  0  0  0  0  0  0
  1  4  2  0  0  0  0
  1  5  2  0  0  0  0
  1  8  1  0  0  0  0
  1 22  1  0  0  0  0
  2 32  1  0  0  0  0
  3 17  2  0  0  0  0
  6 21  2  0  0  0  0
  7 23  2  0  0  0  0
  8 13  1  0  0  0  0
  8 15  1  0  0  0  0
  9 14  1  0  0  0  0
  9 16  1  0  0  0  0
  9 21  1  0  0  0  0
 10 17  1  0  0  0  0
 10 18  1  0  0  0  0
 10 43  1  0  0  0  0
 11 23  1  0  0  0  0
 11 24  1  0  0  0  0
 11 48  1  0  0  0  0
 12 21  1  0  0  0  0
 12 25  1  0  0  0  0
 12 49  1  0  0  0  0
 13 14  1  0  0  0  0
 13 17  1  0  0  0  0
 13 33  1  0  0  0  0
 14 34  1  0  0  0  0
 14 35  1  0  0  0  0
 15 16  1  0  0  0  0
 15 36  1  0  0  0  0
 15 37  1  0  0  0  0
 16 38  1  0  0  0  0
 16 39  1  0  0  0  0
 18 19  1  0  0  0  0
 18 23  1  0  0  0  0
 18 40  1  0  0  0  0
 19 20  1  0  0  0  0
 19 41  1  0  0  0  0
 19 42  1  0  0  0  0
 20 24  1  0  0  0  0
 20 44  1  0  0  0  0
 20 45  1  0  0  0  0
 22 26  2  0  0  0  0
 22 27  1  0  0  0  0
 24 46  1  0  0  0  0
 24 47  1  0  0  0  0
 25 28  1  0  0  0  0
 25 29  1  0  0  0  0
 25 50  1  0  0  0  0
 26 30  1  0  0  0  0
 26 51  1  0  0  0  0
 27 31  2  0  0  0  0
 27 52  1  0  0  0  0
 28 53  1  0  0  0  0
 28 54  1  0  0  0  0
 28 55  1  0  0  0  0
 29 56  1  0  0  0  0
 29 57  1  0  0  0  0
 29 58  1  0  0  0  0
 30 32  2  0  0  0  0
 30 59  1  0  0  0  0
 31 32  1  0  0  0  0
 31 60  1  0  0  0  0
M  END
> <PUBCHEM_COMPOUND_CID>
7674051

> <PUBCHEM_CONFORMER_RMSD>
1

> <PUBCHEM_CONFORMER_DIVERSEORDER>
1
95
27
144
35
121
114
86
59
122
66
58
70
127
116
22
112
53
41
99
151
145
12
115
14
79
102
91
138
21
25
153
92
28
38
109
136
149
128
155
73
85
74
146
49
26
111
8
97
62
124
44
126
10
33
143
76
11
141
106
123
72
156
152
154
105
135
87
52
83
60
63
69
45
48
67
18
80
29
110
139
88
40
140
42
54
15
133
75
117
100
24
37
94
20
39
134
108
132
90
137
36
96
130
31
64
23
82
57
61
131
147
119
84
32
46
4
19
118
120
55
77
9
65
101
50
3
142
148
51
113
81
89
129
16
107
98
2
93
68
103
56
71
78
30
34
125
7
47
17
13
150
5
6
43
104

> <PUBCHEM_MMFF94_PARTIAL_CHARGES>
35
1 1.45
10 -0.73
11 -0.73
12 -0.73
13 0.42
14 0.3
15 0.36
16 0.3
17 0.57
18 0.36
2 -0.19
21 0.69
22 -0.01
23 0.57
24 0.3
25 0.3
26 -0.15
27 -0.15
3 -0.57
30 -0.15
31 -0.15
32 0.19
4 -0.65
43 0.37
48 0.37
49 0.37
5 -0.65
51 0.15
52 0.15
59 0.15
6 -0.57
60 0.15
7 -0.57
8 -0.85
9 -0.66

> <PUBCHEM_EFFECTIVE_ROTOR_COUNT>
10.2

> <PUBCHEM_PHARMACOPHORE_FEATURES>
12
1 10 donor
1 11 donor
1 12 donor
1 3 acceptor
1 4 acceptor
1 5 acceptor
1 6 acceptor
1 7 acceptor
3 25 28 29 hydrophobe
6 11 18 19 20 23 24 rings
6 22 26 27 30 31 32 rings
6 8 9 13 14 15 16 rings

> <PUBCHEM_HEAVY_ATOM_COUNT>
32

> <PUBCHEM_ATOM_DEF_STEREO_COUNT>
2

> <PUBCHEM_ATOM_UDEF_STEREO_COUNT>
0

> <PUBCHEM_BOND_DEF_STEREO_COUNT>
0

> <PUBCHEM_BOND_UDEF_STEREO_COUNT>
0

> <PUBCHEM_ISOTOPIC_ATOM_COUNT>
0

> <PUBCHEM_COMPONENT_COUNT>
1

> <PUBCHEM_CACTVS_TAUTO_COUNT>
8

> <PUBCHEM_CONFORMER_ID>
007518C300000001

> <PUBCHEM_MMFF94_ENERGY>
59.7307

> <PUBCHEM_FEATURE_SELFOVERLAP>
60.916

> <PUBCHEM_SHAPE_FINGERPRINT>
10006869 2 18050299351136466029
10074138 170 18334006194717463209
11456790 92 17751657666024127011
11513181 2 10083764634077240240
11578080 2 18059307460655176923
12422481 6 18260840245529473987
12597179 24 18269838623163916921
12788726 201 18118984704167012020
13692114 37 18267866086814605807
14028597 1 17749384897536186307
144659 39 18260834739434102865
14675020 138 17680718012975672017
15338160 23 18337393841677479460
15347590 135 18127137381974120473
16114785 44 18130213951907249606
21033648 29 17415591897290049459
244849 19 17916324761451149982
4340502 62 18192718839264303373
469060 322 17916582179883310695
5104073 3 18115568445285350232
58260988 114 17240477014082151234
9981440 41 18272077267134039518

> <PUBCHEM_SHAPE_MULTIPOLES>
600.87
12.5
5.21
2.27
18.21
1.71
0.25
9.79
7.91
-9.88
0.91
-0.54
-1.28
0.63

> <PUBCHEM_SHAPE_SELFOVERLAP>
1241.069

> <PUBCHEM_SHAPE_VOLUME>
344.9

> <PUBCHEM_COORDINATE_TYPE>
2
5
10

$$$$
