11884270
  -OEChem-12032416133D

 60 64  0     1  0  0  0  0  0999 V2000
    9.9552    1.2862   -0.0720 Cl  0  0  0  0  0  0  0  0  0  0  0  0
   -4.6579   -0.4539   -2.3392 O   0  0  0  0  0  0  0  0  0  0  0  0
   -1.9084   -2.0621   -0.1243 O   0  0  0  0  0  0  0  0  0  0  0  0
    1.2680    1.9539    1.1892 O   0  0  0  0  0  0  0  0  0  0  0  0
   -3.1072    0.5445   -0.9269 N   0  0  0  0  0  0  0  0  0  0  0  0
   -0.3679    0.8509   -0.0186 N   0  0  0  0  0  0  0  0  0  0  0  0
   -5.4088    0.5563   -0.4131 N   0  0  0  0  0  0  0  0  0  0  0  0
    0.3366   -2.0117    0.2425 N   0  0  0  0  0  0  0  0  0  0  0  0
   -6.8040    0.2499   -0.6381 C   0  0  0  0  0  0  0  0  0  0  0  0
   -7.1660   -1.1237   -0.0636 C   0  0  0  0  0  0  0  0  0  0  0  0
   -7.7082    1.3470   -0.0661 C   0  0  0  0  0  0  0  0  0  0  0  0
   -0.7099   -0.1614   -1.0081 C   0  0  2  0  0  0  0  0  0  0  0  0
   -7.2012   -1.1277    1.4646 C   0  0  0  0  0  0  0  0  0  0  0  0
   -7.7425    1.3390    1.4622 C   0  0  0  0  0  0  0  0  0  0  0  0
   -8.1158   -0.0350    2.0097 C   0  0  0  0  0  0  0  0  0  0  0  0
   -1.9804    0.1879   -1.7940 C   0  0  0  0  0  0  0  0  0  0  0  0
   -2.7850    1.2874    0.2967 C   0  0  0  0  0  0  0  0  0  0  0  0
   -1.3780    1.8674    0.2765 C   0  0  0  0  0  0  0  0  0  0  0  0
   -4.4108    0.1717   -1.3038 C   0  0  0  0  0  0  0  0  0  0  0  0
   -0.8345   -1.4681   -0.2401 C   0  0  0  0  0  0  0  0  0  0  0  0
    0.9148    0.9942    0.5019 C   0  0  0  0  0  0  0  0  0  0  0  0
    1.9191   -0.0729    0.2479 C   0  0  0  0  0  0  0  0  0  0  0  0
    1.6288   -1.4467    0.2355 C   0  0  0  0  0  0  0  0  0  0  0  0
    3.2610    0.3479    0.1973 C   0  0  0  0  0  0  0  0  0  0  0  0
    2.6919   -2.3669    0.2444 C   0  0  0  0  0  0  0  0  0  0  0  0
    4.3019   -0.5789    0.1572 C   0  0  0  0  0  0  0  0  0  0  0  0
    4.0176   -1.9376    0.1947 C   0  0  0  0  0  0  0  0  0  0  0  0
    5.6749   -0.1264    0.1012 C   0  0  0  0  0  0  0  0  0  0  0  0
    6.6850   -0.8892    0.6870 C   0  0  0  0  0  0  0  0  0  0  0  0
    5.9885    1.0733   -0.5380 C   0  0  0  0  0  0  0  0  0  0  0  0
    8.0087   -0.4525    0.6339 C   0  0  0  0  0  0  0  0  0  0  0  0
    7.3122    1.5100   -0.5912 C   0  0  0  0  0  0  0  0  0  0  0  0
    8.3224    0.7470   -0.0054 C   0  0  0  0  0  0  0  0  0  0  0  0
   -6.9621    0.2162   -1.7233 H   0  0  0  0  0  0  0  0  0  0  0  0
   -6.4588   -1.8861   -0.4115 H   0  0  0  0  0  0  0  0  0  0  0  0
   -8.1553   -1.4161   -0.4382 H   0  0  0  0  0  0  0  0  0  0  0  0
   -8.7289    1.1999   -0.4420 H   0  0  0  0  0  0  0  0  0  0  0  0
   -7.3792    2.3327   -0.4168 H   0  0  0  0  0  0  0  0  0  0  0  0
    0.1131   -0.2606   -1.7266 H   0  0  0  0  0  0  0  0  0  0  0  0
   -6.1873   -0.9871    1.8586 H   0  0  0  0  0  0  0  0  0  0  0  0
   -7.5457   -2.1054    1.8203 H   0  0  0  0  0  0  0  0  0  0  0  0
   -8.4686    2.0811    1.8135 H   0  0  0  0  0  0  0  0  0  0  0  0
   -6.7678    1.6418    1.8625 H   0  0  0  0  0  0  0  0  0  0  0  0
   -9.1549   -0.2633    1.7421 H   0  0  0  0  0  0  0  0  0  0  0  0
   -8.0642   -0.0226    3.1043 H   0  0  0  0  0  0  0  0  0  0  0  0
   -1.7955    1.0618   -2.4311 H   0  0  0  0  0  0  0  0  0  0  0  0
   -2.2597   -0.6392   -2.4559 H   0  0  0  0  0  0  0  0  0  0  0  0
   -2.9014    0.5897    1.1344 H   0  0  0  0  0  0  0  0  0  0  0  0
   -3.5043    2.1021    0.4292 H   0  0  0  0  0  0  0  0  0  0  0  0
   -1.2904    2.6364   -0.5009 H   0  0  0  0  0  0  0  0  0  0  0  0
   -1.1567    2.3489    1.2351 H   0  0  0  0  0  0  0  0  0  0  0  0
   -5.1561    0.9415    0.4886 H   0  0  0  0  0  0  0  0  0  0  0  0
    0.2742   -2.9786    0.5526 H   0  0  0  0  0  0  0  0  0  0  0  0
    3.4726    1.4146    0.2360 H   0  0  0  0  0  0  0  0  0  0  0  0
    2.4935   -3.4372    0.2537 H   0  0  0  0  0  0  0  0  0  0  0  0
    4.7892   -2.7011    0.1518 H   0  0  0  0  0  0  0  0  0  0  0  0
    6.4851   -1.8137    1.2215 H   0  0  0  0  0  0  0  0  0  0  0  0
    5.2394    1.6842   -1.0344 H   0  0  0  0  0  0  0  0  0  0  0  0
    8.7852   -1.0535    1.1004 H   0  0  0  0  0  0  0  0  0  0  0  0
    7.5431    2.4434   -1.0983 H   0  0  0  0  0  0  0  0  0  0  0  0
  1 33  1  0  0  0  0
  2 19  2  0  0  0  0
  3 20  2  0  0  0  0
  4 21  2  0  0  0  0
  5 16  1  0  0  0  0
  5 17  1  0  0  0  0
  5 19  1  0  0  0  0
  6 12  1  0  0  0  0
  6 18  1  0  0  0  0
  6 21  1  0  0  0  0
  7  9  1  0  0  0  0
  7 19  1  0  0  0  0
  7 52  1  0  0  0  0
  8 20  1  0  0  0  0
  8 23  1  0  0  0  0
  8 53  1  0  0  0  0
  9 10  1  0  0  0  0
  9 11  1  0  0  0  0
  9 34  1  0  0  0  0
 10 13  1  0  0  0  0
 10 35  1  0  0  0  0
 10 36  1  0  0  0  0
 11 14  1  0  0  0  0
 11 37  1  0  0  0  0
 11 38  1  0  0  0  0
 12 16  1  0  0  0  0
 12 20  1  0  0  0  0
 12 39  1  0  0  0  0
 13 15  1  0  0  0  0
 13 40  1  0  0  0  0
 13 41  1  0  0  0  0
 14 15  1  0  0  0  0
 14 42  1  0  0  0  0
 14 43  1  0  0  0  0
 15 44  1  0  0  0  0
 15 45  1  0  0  0  0
 16 46  1  0  0  0  0
 16 47  1  0  0  0  0
 17 18  1  0  0  0  0
 17 48  1  0  0  0  0
 17 49  1  0  0  0  0
 18 50  1  0  0  0  0
 18 51  1  0  0  0  0
 21 22  1  0  0  0  0
 22 23  2  0  0  0  0
 22 24  1  0  0  0  0
 23 25  1  0  0  0  0
 24 26  2  0  0  0  0
 24 54  1  0  0  0  0
 25 27  2  0  0  0  0
 25 55  1  0  0  0  0
 26 27  1  0  0  0  0
 26 28  1  0  0  0  0
 27 56  1  0  0  0  0
 28 29  2  0  0  0  0
 28 30  1  0  0  0  0
 29 31  1  0  0  0  0
 29 57  1  0  0  0  0
 30 32  2  0  0  0  0
 30 58  1  0  0  0  0
 31 33  2  0  0  0  0
 31 59  1  0  0  0  0
 32 33  1  0  0  0  0
 32 60  1  0  0  0  0
M  END
> <PUBCHEM_COMPOUND_CID>
11884270

> <PUBCHEM_CONFORMER_RMSD>
0.8

> <PUBCHEM_CONFORMER_DIVERSEORDER>
1
20
21
13
7
5
18
8
17
9
11
12
23
14
19
15
10
2
6
24
16
3
22
4

> <PUBCHEM_MMFF94_PARTIAL_CHARGES>
35
1 -0.18
12 0.36
16 0.3
17 0.3
18 0.3
19 0.69
2 -0.57
20 0.57
21 0.54
22 0.09
23 0.12
24 -0.15
25 -0.15
27 -0.15
29 -0.15
3 -0.57
30 -0.15
31 -0.15
32 -0.15
33 0.18
4 -0.57
5 -0.66
52 0.37
53 0.37
54 0.15
55 0.15
56 0.15
57 0.15
58 0.15
59 0.15
6 -0.66
60 0.15
7 -0.73
8 -0.55
9 0.3

> <PUBCHEM_EFFECTIVE_ROTOR_COUNT>
6.2

> <PUBCHEM_PHARMACOPHORE_FEATURES>
10
1 2 acceptor
1 3 acceptor
1 4 acceptor
1 7 donor
1 8 donor
6 22 23 24 25 26 27 rings
6 28 29 30 31 32 33 rings
6 5 6 12 16 17 18 rings
6 9 10 11 13 14 15 rings
7 6 8 12 20 21 22 23 rings

> <PUBCHEM_HEAVY_ATOM_COUNT>
33

> <PUBCHEM_ATOM_DEF_STEREO_COUNT>
1

> <PUBCHEM_ATOM_UDEF_STEREO_COUNT>
0

> <PUBCHEM_BOND_DEF_STEREO_COUNT>
0

> <PUBCHEM_BOND_UDEF_STEREO_COUNT>
0

> <PUBCHEM_ISOTOPIC_ATOM_COUNT>
0

> <PUBCHEM_COMPONENT_COUNT>
1

> <PUBCHEM_CACTVS_TAUTO_COUNT>
6

> <PUBCHEM_CONFORMER_ID>
00B556EE00000001

> <PUBCHEM_MMFF94_ENERGY>
98.6648

> <PUBCHEM_FEATURE_SELFOVERLAP>
50.776

> <PUBCHEM_SHAPE_FINGERPRINT>
10 15 17821728338700697026
10050765 1 18049157770113744476
10076449 9 18334859441388874049
10100884 174 17971759028870063563
10299344 5 18272930522527364477
106641 1 17530685419899073247
10674148 151 16415476060983181094
11135926 11 18410562977324988519
11181472 205 15051465881284676058
11456790 92 18334565820914921168
12104220 1 18201725055166193353
13782708 43 17241885376713776043
13914758 101 11167945753409090383
14251764 18 18202844348775115049
14849402 71 18341614845489342409
14856354 85 17060331951578099213
15064986 266 18337116653177817856
15131766 46 11885941191923405114
15142383 8 12535626072930375994
15183329 4 11095884839957639039
15347591 1 18044368323132709693
15439362 3 18054218011164136832
15510794 2 17676486125890163091
16087824 20 18272369720997237649
16992787 43 18413388748336722896
18335252 98 17967534575148577539
18608769 82 18334575771815945355
19611394 137 17313394460593947297
20105231 36 18131357405351232110
21049683 271 18409445912445772852
21521721 280 18408040719151671026
22149856 69 18059014973814550514
22224240 67 13334735730735047968
23559900 14 18269823380778891392
23569917 315 18337391535976867770
23576562 1 13541592363891001017
249057 3 15913322520181562840
3178227 256 18410298016607735345
335352 9 18343013419456833444
3418910 222 17603877675731025701
350125 39 18410290319978971877
3711267 37 17846785108680300041
4093350 32 17489591126036278150
4112364 45 17386296497232059156
4258327 124 17313399967174323662
5028188 123 16702014322951849772
5381727 24 16008742516798121832
5758199 1 18413669101830902203
59682541 35 17821731649592818729
6081469 158 13542468657399042456
6394761 36 12823296792714454540
6691757 9 16343983625081460567
9953998 17 17603588513663868493

> <PUBCHEM_SHAPE_MULTIPOLES>
643.46
28.89
1.98
1.32
7.52
0.54
0.16
-7.66
-6.41
0.77
-0.27
-2.91
-0.08
-0.54

> <PUBCHEM_SHAPE_SELFOVERLAP>
1391.148

> <PUBCHEM_SHAPE_VOLUME>
349.5

> <PUBCHEM_COORDINATE_TYPE>
2
5
10

$$$$
