56774569
  -OEChem-12032416383D

 46 47  0     1  0  0  0  0  0999 V2000
    2.5060   -2.1969    0.3695 O   0  0  0  0  0  0  0  0  0  0  0  0
    2.2545    1.5957   -1.4378 O   0  0  0  0  0  0  0  0  0  0  0  0
    5.8445   -1.1919   -0.5718 O   0  0  0  0  0  0  0  0  0  0  0  0
   -4.6970   -0.9282   -0.9172 O   0  0  0  0  0  0  0  0  0  0  0  0
    4.0694    0.1213    0.1637 N   0  0  0  0  0  0  0  0  0  0  0  0
   -3.7513    0.8194    0.3409 N   0  0  0  0  0  0  0  0  0  0  0  0
   -6.0338    0.4477    0.3727 N   0  0  0  0  0  0  0  0  0  0  0  0
    2.6374    0.1870    0.4814 C   0  0  1  0  0  0  0  0  0  0  0  0
    1.8125    0.4074   -0.7900 C   0  0  1  0  0  0  0  0  0  0  0  0
    2.2046   -1.0838    1.2027 C   0  0  0  0  0  0  0  0  0  0  0  0
    4.7781    1.3818   -0.0120 C   0  0  0  0  0  0  0  0  0  0  0  0
    0.3392    0.5164   -0.4899 C   0  0  0  0  0  0  0  0  0  0  0  0
    4.6976   -1.0865   -0.1333 C   0  0  0  0  0  0  0  0  0  0  0  0
    3.8989   -2.3408    0.2031 C   0  0  0  0  0  0  0  0  0  0  0  0
    5.5199    1.7811    1.2468 C   0  0  0  0  0  0  0  0  0  0  0  0
   -0.5591   -0.3766   -1.0742 C   0  0  0  0  0  0  0  0  0  0  0  0
   -0.1260    1.5101    0.3714 C   0  0  0  0  0  0  0  0  0  0  0  0
   -1.9224   -0.2759   -0.7975 C   0  0  0  0  0  0  0  0  0  0  0  0
   -1.4894    1.6109    0.6483 C   0  0  0  0  0  0  0  0  0  0  0  0
   -2.3875    0.7180    0.0638 C   0  0  0  0  0  0  0  0  0  0  0  0
   -4.8064    0.0208   -0.1444 C   0  0  0  0  0  0  0  0  0  0  0  0
   -7.2901   -0.1870    0.0471 C   0  0  0  0  0  0  0  0  0  0  0  0
   -7.4996   -1.4500    0.8564 C   0  0  0  0  0  0  0  0  0  0  0  0
    2.5187    1.0296    1.1741 H   0  0  0  0  0  0  0  0  0  0  0  0
    1.9947   -0.4057   -1.5028 H   0  0  0  0  0  0  0  0  0  0  0  0
    2.7331   -1.1940    2.1587 H   0  0  0  0  0  0  0  0  0  0  0  0
    1.1359   -1.1019    1.4330 H   0  0  0  0  0  0  0  0  0  0  0  0
    5.4960    1.2759   -0.8329 H   0  0  0  0  0  0  0  0  0  0  0  0
    4.0980    2.1927   -0.2732 H   0  0  0  0  0  0  0  0  0  0  0  0
    4.0586   -3.0647   -0.6028 H   0  0  0  0  0  0  0  0  0  0  0  0
    4.3216   -2.7677    1.1203 H   0  0  0  0  0  0  0  0  0  0  0  0
    6.0543    2.7238    1.0941 H   0  0  0  0  0  0  0  0  0  0  0  0
    6.2506    1.0175    1.5337 H   0  0  0  0  0  0  0  0  0  0  0  0
    4.8288    1.9114    2.0862 H   0  0  0  0  0  0  0  0  0  0  0  0
   -0.2100   -1.1562   -1.7462 H   0  0  0  0  0  0  0  0  0  0  0  0
    0.5526    2.2202    0.8355 H   0  0  0  0  0  0  0  0  0  0  0  0
    1.9505    2.3684   -0.9333 H   0  0  0  0  0  0  0  0  0  0  0  0
   -2.5546   -1.0029   -1.2873 H   0  0  0  0  0  0  0  0  0  0  0  0
   -1.8382    2.3907    1.3207 H   0  0  0  0  0  0  0  0  0  0  0  0
   -4.0162    1.5678    0.9766 H   0  0  0  0  0  0  0  0  0  0  0  0
   -6.0451    1.2337    1.0152 H   0  0  0  0  0  0  0  0  0  0  0  0
   -8.0863    0.5348    0.2539 H   0  0  0  0  0  0  0  0  0  0  0  0
   -7.3023   -0.4189   -1.0230 H   0  0  0  0  0  0  0  0  0  0  0  0
   -6.7176   -2.1888    0.6531 H   0  0  0  0  0  0  0  0  0  0  0  0
   -7.4813   -1.2343    1.9300 H   0  0  0  0  0  0  0  0  0  0  0  0
   -8.4662   -1.9022    0.6143 H   0  0  0  0  0  0  0  0  0  0  0  0
  1 10  1  0  0  0  0
  1 14  1  0  0  0  0
  2  9  1  0  0  0  0
  2 37  1  0  0  0  0
  3 13  2  0  0  0  0
  4 21  2  0  0  0  0
  5  8  1  0  0  0  0
  5 11  1  0  0  0  0
  5 13  1  0  0  0  0
  6 20  1  0  0  0  0
  6 21  1  0  0  0  0
  6 40  1  0  0  0  0
  7 21  1  0  0  0  0
  7 22  1  0  0  0  0
  7 41  1  0  0  0  0
  8  9  1  0  0  0  0
  8 10  1  0  0  0  0
  8 24  1  0  0  0  0
  9 12  1  0  0  0  0
  9 25  1  0  0  0  0
 10 26  1  0  0  0  0
 10 27  1  0  0  0  0
 11 15  1  0  0  0  0
 11 28  1  0  0  0  0
 11 29  1  0  0  0  0
 12 16  2  0  0  0  0
 12 17  1  0  0  0  0
 13 14  1  0  0  0  0
 14 30  1  0  0  0  0
 14 31  1  0  0  0  0
 15 32  1  0  0  0  0
 15 33  1  0  0  0  0
 15 34  1  0  0  0  0
 16 18  1  0  0  0  0
 16 35  1  0  0  0  0
 17 19  2  0  0  0  0
 17 36  1  0  0  0  0
 18 20  2  0  0  0  0
 18 38  1  0  0  0  0
 19 20  1  0  0  0  0
 19 39  1  0  0  0  0
 22 23  1  0  0  0  0
 22 42  1  0  0  0  0
 22 43  1  0  0  0  0
 23 44  1  0  0  0  0
 23 45  1  0  0  0  0
 23 46  1  0  0  0  0
M  END
> <PUBCHEM_COMPOUND_CID>
56774569

> <PUBCHEM_CONFORMER_RMSD>
0.8

> <PUBCHEM_CONFORMER_DIVERSEORDER>
1
48
28
43
11
39
37
45
47
34
21
51
29
31
35
9
23
32
30
25
50
13
44
33
46
10
19
27
49
40
6
7
26
12
20
3
38
15
4
42
5
8
18
36
17
2
41
22
24
16
14

> <PUBCHEM_MMFF94_PARTIAL_CHARGES>
28
1 -0.56
10 0.28
11 0.3
12 -0.14
13 0.57
14 0.34
16 -0.15
17 -0.15
18 -0.15
19 -0.15
2 -0.68
20 0.12
21 0.69
22 0.3
3 -0.57
35 0.15
36 0.15
37 0.4
38 0.15
39 0.15
4 -0.57
40 0.37
41 0.37
5 -0.66
6 -0.55
7 -0.73
8 0.3
9 0.42

> <PUBCHEM_EFFECTIVE_ROTOR_COUNT>
8

> <PUBCHEM_PHARMACOPHORE_FEATURES>
9
1 1 acceptor
1 2 acceptor
1 2 donor
1 3 acceptor
1 4 acceptor
1 6 donor
1 7 donor
6 1 5 8 10 13 14 rings
6 12 16 17 18 19 20 rings

> <PUBCHEM_HEAVY_ATOM_COUNT>
23

> <PUBCHEM_ATOM_DEF_STEREO_COUNT>
2

> <PUBCHEM_ATOM_UDEF_STEREO_COUNT>
0

> <PUBCHEM_BOND_DEF_STEREO_COUNT>
0

> <PUBCHEM_BOND_UDEF_STEREO_COUNT>
0

> <PUBCHEM_ISOTOPIC_ATOM_COUNT>
0

> <PUBCHEM_COMPONENT_COUNT>
1

> <PUBCHEM_CACTVS_TAUTO_COUNT>
6

> <PUBCHEM_CONFORMER_ID>
03624FA900000001

> <PUBCHEM_MMFF94_ENERGY>
57.4731

> <PUBCHEM_FEATURE_SELFOVERLAP>
45.721

> <PUBCHEM_SHAPE_FINGERPRINT>
106641 1 18060136595970863249
11796584 16 17676206888522913987
12107183 9 17549828784911524321
12236239 1 18412827971631231609
12516196 113 18334857225555111945
12596602 18 18273218586569392225
12623949 98 18129107714778101934
13073987 5 18412826859319332137
13533116 47 18413107238741531602
13668630 136 18040437698709176923
13685833 64 18260551130433372555
13899415 154 17203612613890451233
14251757 52 15482665823257730386
14251764 18 17989487459601810687
14341114 176 18272089400511466001
14461889 52 18262234529278629042
15183329 4 16081368540750865801
17492 89 18196091036577791594
17834072 33 18412260614793249966
17844677 252 18341054021001387408
18335252 114 8935005837348795083
200 152 18260266317797710797
20645477 70 17822013116169570221
21150785 3 14923952262642923079
21267235 1 18271249331221562718
22224240 67 18040992990593406968
23559900 14 17895760715667574977
2838139 119 10591756559573084339
3004659 81 18040154024402904777
3411729 13 16844150441479366832
34797466 226 17561369500213742836
42630746 31 18113054948085875216
4340502 62 18260265282446699074
46194498 28 17240483632468291205
465052 167 18342742905600769287
474 4 18336264643800106496
5104073 3 18270957938537748649
57724786 102 13685710854327547410
59682541 35 18337103575102869408

> <PUBCHEM_SHAPE_MULTIPOLES>
434.91
17.12
1.95
1.06
24.77
0.48
-0.03
4.11
3.28
-2.36
0.35
-0.3
-0.08
0.33

> <PUBCHEM_SHAPE_SELFOVERLAP>
898.023

> <PUBCHEM_SHAPE_VOLUME>
245.6

> <PUBCHEM_COORDINATE_TYPE>
2
5
10

$$$$
