26743990
  -OEChem-12032416263D

 49 52  0     1  0  0  0  0  0999 V2000
    6.2195   -0.6367    1.2522 O   0  0  0  0  0  0  0  0  0  0  0  0
    1.5835   -1.4513   -1.9623 O   0  0  0  0  0  0  0  0  0  0  0  0
   -3.8227    1.8522    1.6147 O   0  0  0  0  0  0  0  0  0  0  0  0
    3.0837    0.8790    0.4518 N   0  0  1  0  0  0  0  0  0  0  0  0
    0.8546   -1.0806    0.1228 N   0  0  0  0  0  0  0  0  0  0  0  0
    0.3202   -2.0504   -1.8791 N   0  0  0  0  0  0  0  0  0  0  0  0
   -3.0577    2.2578   -0.5783 N   0  0  0  0  0  0  0  0  0  0  0  0
   -3.3979   -3.3782   -0.3885 N   0  0  0  0  0  0  0  0  0  0  0  0
    3.1434   -0.1854   -0.5705 C   0  0  1  0  0  0  0  0  0  0  0  0
    4.2730   -1.1204   -0.0999 C   0  0  0  0  0  0  0  0  0  0  0  0
    4.8170   -0.4746    1.1683 C   0  0  2  0  0  0  0  0  0  0  0  0
    4.4265    0.9836    1.0194 C   0  0  0  0  0  0  0  0  0  0  0  0
    2.6092    2.1530   -0.0726 C   0  0  0  0  0  0  0  0  0  0  0  0
    1.8216   -0.9040   -0.7417 C   0  0  0  0  0  0  0  0  0  0  0  0
    1.1098    2.1807   -0.2064 C   0  0  0  0  0  0  0  0  0  0  0  0
    0.5249    2.4147   -1.4509 C   0  0  0  0  0  0  0  0  0  0  0  0
    0.3055    1.9724    0.9141 C   0  0  0  0  0  0  0  0  0  0  0  0
   -0.0443   -1.7889   -0.6203 C   0  0  0  0  0  0  0  0  0  0  0  0
   -0.8642    2.4405   -1.5749 C   0  0  0  0  0  0  0  0  0  0  0  0
   -1.0834    1.9981    0.7901 C   0  0  0  0  0  0  0  0  0  0  0  0
   -1.6683    2.2322   -0.4544 C   0  0  0  0  0  0  0  0  0  0  0  0
   -1.2981   -2.2219   -0.0743 C   0  0  0  0  0  0  0  0  0  0  0  0
   -1.6451   -1.9336    1.2410 C   0  0  0  0  0  0  0  0  0  0  0  0
   -2.2012   -2.9406   -0.8407 C   0  0  0  0  0  0  0  0  0  0  0  0
   -4.0194    2.0719    0.4239 C   0  0  0  0  0  0  0  0  0  0  0  0
   -2.8676   -2.3668    1.7424 C   0  0  0  0  0  0  0  0  0  0  0  0
   -3.7007   -3.0790    0.8947 C   0  0  0  0  0  0  0  0  0  0  0  0
   -5.4219    2.1762   -0.1207 C   0  0  0  0  0  0  0  0  0  0  0  0
    3.4418    0.2283   -1.5441 H   0  0  0  0  0  0  0  0  0  0  0  0
    3.9328   -2.1410    0.1098 H   0  0  0  0  0  0  0  0  0  0  0  0
    5.0529   -1.1900   -0.8686 H   0  0  0  0  0  0  0  0  0  0  0  0
    4.3500   -0.9136    2.0585 H   0  0  0  0  0  0  0  0  0  0  0  0
    4.4293    1.4963    1.9870 H   0  0  0  0  0  0  0  0  0  0  0  0
    5.1249    1.5093    0.3547 H   0  0  0  0  0  0  0  0  0  0  0  0
    3.1033    2.4131   -1.0179 H   0  0  0  0  0  0  0  0  0  0  0  0
    2.8661    2.9623    0.6255 H   0  0  0  0  0  0  0  0  0  0  0  0
    6.4027   -1.5916    1.2682 H   0  0  0  0  0  0  0  0  0  0  0  0
    1.1391    2.5765   -2.3327 H   0  0  0  0  0  0  0  0  0  0  0  0
    0.7477    1.7933    1.8908 H   0  0  0  0  0  0  0  0  0  0  0  0
   -1.3064    2.6229   -2.5511 H   0  0  0  0  0  0  0  0  0  0  0  0
   -1.6392    1.8274    1.7014 H   0  0  0  0  0  0  0  0  0  0  0  0
   -3.4067    2.4336   -1.5182 H   0  0  0  0  0  0  0  0  0  0  0  0
   -0.9840   -1.3733    1.8970 H   0  0  0  0  0  0  0  0  0  0  0  0
   -2.0068   -3.2063   -1.8756 H   0  0  0  0  0  0  0  0  0  0  0  0
   -3.1596   -2.1529    2.7641 H   0  0  0  0  0  0  0  0  0  0  0  0
   -4.6653   -3.4388    1.2373 H   0  0  0  0  0  0  0  0  0  0  0  0
   -5.5749    1.4214   -0.8973 H   0  0  0  0  0  0  0  0  0  0  0  0
   -5.5818    3.1725   -0.5421 H   0  0  0  0  0  0  0  0  0  0  0  0
   -6.1448    2.0096    0.6827 H   0  0  0  0  0  0  0  0  0  0  0  0
  1 11  1  0  0  0  0
  1 37  1  0  0  0  0
  2  6  1  0  0  0  0
  2 14  1  0  0  0  0
  3 25  2  0  0  0  0
  4  9  1  0  0  0  0
  4 12  1  0  0  0  0
  4 13  1  0  0  0  0
  5 14  2  0  0  0  0
  5 18  1  0  0  0  0
  6 18  2  0  0  0  0
  7 21  1  0  0  0  0
  7 25  1  0  0  0  0
  7 42  1  0  0  0  0
  8 24  1  0  0  0  0
  8 27  2  0  0  0  0
  9 10  1  0  0  0  0
  9 14  1  0  0  0  0
  9 29  1  0  0  0  0
 10 11  1  0  0  0  0
 10 30  1  0  0  0  0
 10 31  1  0  0  0  0
 11 12  1  0  0  0  0
 11 32  1  0  0  0  0
 12 33  1  0  0  0  0
 12 34  1  0  0  0  0
 13 15  1  0  0  0  0
 13 35  1  0  0  0  0
 13 36  1  0  0  0  0
 15 16  2  0  0  0  0
 15 17  1  0  0  0  0
 16 19  1  0  0  0  0
 16 38  1  0  0  0  0
 17 20  2  0  0  0  0
 17 39  1  0  0  0  0
 18 22  1  0  0  0  0
 19 21  2  0  0  0  0
 19 40  1  0  0  0  0
 20 21  1  0  0  0  0
 20 41  1  0  0  0  0
 22 23  1  0  0  0  0
 22 24  2  0  0  0  0
 23 26  2  0  0  0  0
 23 43  1  0  0  0  0
 24 44  1  0  0  0  0
 25 28  1  0  0  0  0
 26 27  1  0  0  0  0
 26 45  1  0  0  0  0
 27 46  1  0  0  0  0
 28 47  1  0  0  0  0
 28 48  1  0  0  0  0
 28 49  1  0  0  0  0
M  END
> <PUBCHEM_COMPOUND_CID>
26743990

> <PUBCHEM_CONFORMER_RMSD>
0.8

> <PUBCHEM_CONFORMER_DIVERSEORDER>
1
154
147
139
161
106
9
168
178
17
144
159
205
177
131
91
13
123
195
166
60
85
152
202
114
157
7
185
40
126
156
179
151
78
2
36
182
200
158
105
204
181
5
104
81
66
113
163
180
35
31
79
99
142
6
18
187
150
72
12
80
137
30
143
38
3
73
74
184
84
140
193
207
117
122
149
146
194
132
148
125
206
86
43
59
37
53
175
102
33
111
62
134
136
138
176
68
42
201
52
119
141
75
155
172
101
25
23
108
160
116
54
103
198
112
189
171
87
107
191
56
51
121
188
76
67
190
19
115
34
27
8
186
98
77
197
55
4
109
96
174
164
130
199
39
88
129
93
57
47
118
167
92
208
124
22
192
48
120
196
97
64
133
11
41
21
69
32
95
110
94
183
28
82
10
15
71
127
44
165
128
24
90
20
14
61
135
46
203
26
49
29
153
58
89
162
63
145
50
170
45
100
65
16
169
173
70
83

> <PUBCHEM_MMFF94_PARTIAL_CHARGES>
37
1 -0.68
11 0.28
12 0.27
13 0.41
14 0.3
15 -0.14
16 -0.15
17 -0.15
18 0.46
19 -0.15
2 -0.02
20 -0.15
21 0.12
22 0.05
23 -0.15
24 0.16
25 0.57
26 -0.15
27 0.16
28 0.06
3 -0.57
37 0.4
38 0.15
39 0.15
4 -0.81
40 0.15
41 0.15
42 0.37
43 0.15
44 0.15
45 0.15
46 0.15
5 -0.57
6 -0.41
7 -0.55
8 -0.62
9 0.45

> <PUBCHEM_EFFECTIVE_ROTOR_COUNT>
7

> <PUBCHEM_PHARMACOPHORE_FEATURES>
11
1 1 acceptor
1 1 donor
1 3 acceptor
1 4 cation
1 7 donor
1 8 acceptor
3 5 6 18 cation
5 2 5 6 14 18 rings
5 4 9 10 11 12 rings
6 15 16 17 19 20 21 rings
6 8 22 23 24 26 27 rings

> <PUBCHEM_HEAVY_ATOM_COUNT>
28

> <PUBCHEM_ATOM_DEF_STEREO_COUNT>
2

> <PUBCHEM_ATOM_UDEF_STEREO_COUNT>
0

> <PUBCHEM_BOND_DEF_STEREO_COUNT>
0

> <PUBCHEM_BOND_UDEF_STEREO_COUNT>
0

> <PUBCHEM_ISOTOPIC_ATOM_COUNT>
0

> <PUBCHEM_COMPONENT_COUNT>
1

> <PUBCHEM_CACTVS_TAUTO_COUNT>
2

> <PUBCHEM_CONFORMER_ID>
019814B600000001

> <PUBCHEM_MMFF94_ENERGY>
65.5864

> <PUBCHEM_FEATURE_SELFOVERLAP>
55.822

> <PUBCHEM_SHAPE_FINGERPRINT>
104564 63 18123201352692385661
10688039 33 18043804501364179127
108634 29 18340495473731978935
1100329 8 18410290298362022328
12035758 1 18337119973150829417
12156800 1 18194433127719600669
12422481 6 18196681620941399651
12633257 1 18335420140827099944
13140716 1 18410852187859454736
13402501 40 18341332206475858305
13692114 37 18201141223081752383
13726171 33 18050322355229671444
13965767 371 17626411242933583243
14787075 74 17916574341821696497
14790565 3 16894831536403210116
14866123 147 18261662684648806746
17357779 13 18269541913611016991
20905425 154 18052840301170076247
21033648 29 17702926120468348234
21041028 32 18193833983929198943
21133410 90 17345472760185380857
21197605 99 18342178903891933495
21304304 249 18263079907818035524
22182313 1 17988376896691158966
24893992 56 17968647338154130319
3052486 1 18262255394419500732
4340502 62 18200876167354259153
5104073 3 18266999779447821640
5283268 108 18193006030161736627

> <PUBCHEM_SHAPE_MULTIPOLES>
533.71
9.37
4.58
1.56
5.06
0.89
0.15
0.15
-4.08
-5.85
0.45
0.03
0.31
0.34

> <PUBCHEM_SHAPE_SELFOVERLAP>
1157.292

> <PUBCHEM_SHAPE_VOLUME>
292.1

> <PUBCHEM_COORDINATE_TYPE>
2
5
10

$$$$
