26744030
  -OEChem-12032416293D

 51 54  0     1  0  0  0  0  0999 V2000
    1.9846   -0.0903    0.1061 S   0  0  0  0  0  0  0  0  0  0  0  0
   -5.5760    3.3872    0.8726 O   0  0  0  0  0  0  0  0  0  0  0  0
   -1.8557    0.0351   -2.2662 O   0  0  0  0  0  0  0  0  0  0  0  0
    1.8118   -1.4652   -0.3241 O   0  0  0  0  0  0  0  0  0  0  0  0
    1.3990    0.3711    1.3506 O   0  0  0  0  0  0  0  0  0  0  0  0
   -3.7343    0.3302    0.6891 N   0  0  1  0  0  0  0  0  0  0  0  0
   -0.9662    1.1603   -0.5459 N   0  0  0  0  0  0  0  0  0  0  0  0
   -0.4699    0.0268   -2.4701 N   0  0  0  0  0  0  0  0  0  0  0  0
   -0.5918   -2.5211    1.4339 N   0  0  0  0  0  0  0  0  0  0  0  0
   -3.5005    0.8736   -0.6643 C   0  0  1  0  0  0  0  0  0  0  0  0
   -3.9470    2.3451   -0.5803 C   0  0  0  0  0  0  0  0  0  0  0  0
   -4.4579    2.5216    0.8442 C   0  0  2  0  0  0  0  0  0  0  0  0
   -4.8262    1.1119    1.2662 C   0  0  0  0  0  0  0  0  0  0  0  0
   -4.0210   -1.0984    0.6929 C   0  0  0  0  0  0  0  0  0  0  0  0
   -2.0621    0.7227   -1.1126 C   0  0  0  0  0  0  0  0  0  0  0  0
   -2.7671   -1.9222    0.5655 C   0  0  0  0  0  0  0  0  0  0  0  0
   -0.0157    0.7092   -1.4148 C   0  0  0  0  0  0  0  0  0  0  0  0
    1.4154    0.9552   -1.2055 C   0  0  0  0  0  0  0  0  0  0  0  0
   -2.6018   -2.8170   -0.4858 C   0  0  0  0  0  0  0  0  0  0  0  0
   -1.7416   -1.8125    1.4909 C   0  0  0  0  0  0  0  0  0  0  0  0
   -1.4328   -3.5640   -0.5784 C   0  0  0  0  0  0  0  0  0  0  0  0
    3.7172    0.2439    0.1917 C   0  0  0  0  0  0  0  0  0  0  0  0
   -0.4668   -3.3807    0.3979 C   0  0  0  0  0  0  0  0  0  0  0  0
    4.1908    1.2602    1.0215 C   0  0  0  0  0  0  0  0  0  0  0  0
    4.6112   -0.5062   -0.5724 C   0  0  0  0  0  0  0  0  0  0  0  0
    6.4525    0.7762    0.3232 C   0  0  0  0  0  0  0  0  0  0  0  0
    5.5584    1.5263    1.0873 C   0  0  0  0  0  0  0  0  0  0  0  0
    5.9788   -0.2399   -0.5067 C   0  0  0  0  0  0  0  0  0  0  0  0
    7.9148    1.0607    0.3937 C   0  0  0  0  0  0  0  0  0  0  0  0
   -4.1519    0.3788   -1.3985 H   0  0  0  0  0  0  0  0  0  0  0  0
   -3.1416    3.0593   -0.7863 H   0  0  0  0  0  0  0  0  0  0  0  0
   -4.7451    2.5407   -1.3075 H   0  0  0  0  0  0  0  0  0  0  0  0
   -3.6710    2.9285    1.4910 H   0  0  0  0  0  0  0  0  0  0  0  0
   -4.8695    1.0223    2.3567 H   0  0  0  0  0  0  0  0  0  0  0  0
   -5.8070    0.8268    0.8630 H   0  0  0  0  0  0  0  0  0  0  0  0
   -4.7574   -1.3684   -0.0752 H   0  0  0  0  0  0  0  0  0  0  0  0
   -4.4755   -1.3852    1.6516 H   0  0  0  0  0  0  0  0  0  0  0  0
   -5.2889    4.2469    0.5204 H   0  0  0  0  0  0  0  0  0  0  0  0
    1.5959    1.9945   -0.9161 H   0  0  0  0  0  0  0  0  0  0  0  0
    2.0011    0.7253   -2.1008 H   0  0  0  0  0  0  0  0  0  0  0  0
   -3.3744   -2.9398   -1.2396 H   0  0  0  0  0  0  0  0  0  0  0  0
   -1.8107   -1.1346    2.3361 H   0  0  0  0  0  0  0  0  0  0  0  0
   -1.2822   -4.2674   -1.3892 H   0  0  0  0  0  0  0  0  0  0  0  0
    0.4605   -3.9433    0.3733 H   0  0  0  0  0  0  0  0  0  0  0  0
    3.5117    1.8614    1.6194 H   0  0  0  0  0  0  0  0  0  0  0  0
    4.2625   -1.2976   -1.2298 H   0  0  0  0  0  0  0  0  0  0  0  0
    5.9153    2.3206    1.7376 H   0  0  0  0  0  0  0  0  0  0  0  0
    6.6655   -0.8313   -1.1066 H   0  0  0  0  0  0  0  0  0  0  0  0
    8.3768    0.4593    1.1829 H   0  0  0  0  0  0  0  0  0  0  0  0
    8.4083    0.8313   -0.5569 H   0  0  0  0  0  0  0  0  0  0  0  0
    8.1017    2.1193    0.6040 H   0  0  0  0  0  0  0  0  0  0  0  0
  1  4  2  0  0  0  0
  1  5  2  0  0  0  0
  1 18  1  0  0  0  0
  1 22  1  0  0  0  0
  2 12  1  0  0  0  0
  2 38  1  0  0  0  0
  3  8  1  0  0  0  0
  3 15  1  0  0  0  0
  6 10  1  0  0  0  0
  6 13  1  0  0  0  0
  6 14  1  0  0  0  0
  7 15  2  0  0  0  0
  7 17  1  0  0  0  0
  8 17  2  0  0  0  0
  9 20  1  0  0  0  0
  9 23  2  0  0  0  0
 10 11  1  0  0  0  0
 10 15  1  0  0  0  0
 10 30  1  0  0  0  0
 11 12  1  0  0  0  0
 11 31  1  0  0  0  0
 11 32  1  0  0  0  0
 12 13  1  0  0  0  0
 12 33  1  0  0  0  0
 13 34  1  0  0  0  0
 13 35  1  0  0  0  0
 14 16  1  0  0  0  0
 14 36  1  0  0  0  0
 14 37  1  0  0  0  0
 16 19  1  0  0  0  0
 16 20  2  0  0  0  0
 17 18  1  0  0  0  0
 18 39  1  0  0  0  0
 18 40  1  0  0  0  0
 19 21  2  0  0  0  0
 19 41  1  0  0  0  0
 20 42  1  0  0  0  0
 21 23  1  0  0  0  0
 21 43  1  0  0  0  0
 22 24  2  0  0  0  0
 22 25  1  0  0  0  0
 23 44  1  0  0  0  0
 24 27  1  0  0  0  0
 24 45  1  0  0  0  0
 25 28  2  0  0  0  0
 25 46  1  0  0  0  0
 26 27  2  0  0  0  0
 26 28  1  0  0  0  0
 26 29  1  0  0  0  0
 27 47  1  0  0  0  0
 28 48  1  0  0  0  0
 29 49  1  0  0  0  0
 29 50  1  0  0  0  0
 29 51  1  0  0  0  0
M  END
> <PUBCHEM_COMPOUND_CID>
26744030

> <PUBCHEM_CONFORMER_RMSD>
1.4

> <PUBCHEM_CONFORMER_DIVERSEORDER>
1
5
73
28
68
42
17
81
67
11
56
26
48
76
78
63
9
65
18
36
74
3
77
52
51
70
49
39
20
50
72
37
33
19
45
23
2
61
4
30
27
71
46
7
69
60
75
53
86
47
80
79
64
14
84
12
31
38
8
82
62
58
13
32
54
85
34
44
21
10
43
15
25
57
35
59
6
87
29
40
24
16
83
41
55
66
22

> <PUBCHEM_MMFF94_PARTIAL_CHARGES>
37
1 1.2
10 0.45
12 0.28
13 0.27
14 0.41
15 0.3
16 -0.14
17 0.34
18 0.29
19 -0.15
2 -0.68
20 0.16
21 -0.15
22 -0.01
23 0.16
24 -0.15
25 -0.15
26 -0.14
27 -0.15
28 -0.15
29 0.14
3 -0.02
38 0.4
4 -0.65
41 0.15
42 0.15
43 0.15
44 0.15
45 0.15
46 0.15
47 0.15
48 0.15
5 -0.65
6 -0.81
7 -0.57
8 -0.41
9 -0.62

> <PUBCHEM_EFFECTIVE_ROTOR_COUNT>
7

> <PUBCHEM_PHARMACOPHORE_FEATURES>
11
1 2 acceptor
1 2 donor
1 4 acceptor
1 5 acceptor
1 6 cation
1 9 acceptor
3 7 8 17 cation
5 3 7 8 15 17 rings
5 6 10 11 12 13 rings
6 22 24 25 26 27 28 rings
6 9 16 19 20 21 23 rings

> <PUBCHEM_HEAVY_ATOM_COUNT>
29

> <PUBCHEM_ATOM_DEF_STEREO_COUNT>
2

> <PUBCHEM_ATOM_UDEF_STEREO_COUNT>
0

> <PUBCHEM_BOND_DEF_STEREO_COUNT>
0

> <PUBCHEM_BOND_UDEF_STEREO_COUNT>
0

> <PUBCHEM_ISOTOPIC_ATOM_COUNT>
0

> <PUBCHEM_COMPONENT_COUNT>
1

> <PUBCHEM_CACTVS_TAUTO_COUNT>
1

> <PUBCHEM_CONFORMER_ID>
019814DE00000001

> <PUBCHEM_MMFF94_ENERGY>
51.4111

> <PUBCHEM_FEATURE_SELFOVERLAP>
55.84

> <PUBCHEM_SHAPE_FINGERPRINT>
10493431 412 18335704901590565261
10675989 125 15873592504888492197
11014199 57 17541103494895598330
11112241 14 18200880578063691191
11370993 144 18413108355702092990
11445158 3 14490487408205128070
11552529 35 18196363938931628790
12422481 6 17531810138711255346
12616971 3 16660365900834240020
12633257 1 18114186358014051652
13009979 54 17755305904668959923
13583140 156 17417251073426434698
14068700 675 18121774191496003527
14840074 17 16805611386251545694
14856354 85 18334861657887372428
15021287 119 16950281832485253308
15537594 2 17240478100946156208
18927931 339 15502370106514263556
19438510 23 17774171076492120881
20554085 129 18267031570347755765
21236236 1 18261950855869564086
21756936 100 18343012290044113940
23522609 53 17895494612906578508
3383291 50 18187931754494631363
3411729 13 17972886856815086465
3633792 109 18188756336980979549
4073 2 18412823617077478550
469060 322 16660359311626835943
5265222 85 18265915699183904534
5283173 99 18342739654489653848
5364581 5 18123181575048989456
59755656 520 18336261267622859456
7064713 232 18260836994217819821
9862522 239 17968086479073471333

> <PUBCHEM_SHAPE_MULTIPOLES>
557.25
14.68
3.46
1.59
25.54
1.99
0.51
-10.16
-4.34
-5.78
-0.69
-0.76
-0.14
0.23

> <PUBCHEM_SHAPE_SELFOVERLAP>
1188.949

> <PUBCHEM_SHAPE_VOLUME>
312.1

> <PUBCHEM_COORDINATE_TYPE>
2
5
10

$$$$
