45360398
  -OEChem-12032416173D

 68 71  0     1  0  0  0  0  0999 V2000
    2.1710    1.5940   -0.4883 F   0  0  0  0  0  0  0  0  0  0  0  0
    2.4671    3.7481   -0.4969 F   0  0  0  0  0  0  0  0  0  0  0  0
    1.6196    2.7546   -2.2355 F   0  0  0  0  0  0  0  0  0  0  0  0
   -4.5982   -3.6690    1.3444 O   0  0  0  0  0  0  0  0  0  0  0  0
   -4.8909    2.2387    0.8273 O   0  0  0  0  0  0  0  0  0  0  0  0
   -2.0161   -2.7273   -2.0812 O   0  0  0  0  0  0  0  0  0  0  0  0
    3.5346   -1.2116    0.5510 O   0  0  0  0  0  0  0  0  0  0  0  0
    7.9408   -1.1209    0.8143 O   0  0  0  0  0  0  0  0  0  0  0  0
   -5.2217    0.2873   -0.3670 N   0  0  0  0  0  0  0  0  0  0  0  0
   -2.7633   -1.7978   -0.0935 N   0  0  0  0  0  0  0  0  0  0  0  0
   -3.1012    1.3313   -0.3431 N   0  0  0  0  0  0  0  0  0  0  0  0
    7.5992    0.1742    1.1845 N   0  0  0  0  0  0  0  0  0  0  0  0
   -4.1780   -2.0049   -0.3367 C   0  0  1  0  0  0  0  0  0  0  0  0
   -4.8770   -2.3045    1.0021 C   0  0  1  0  0  0  0  0  0  0  0  0
   -6.4003   -2.1429    1.0084 C   0  0  0  0  0  0  0  0  0  0  0  0
   -4.7570   -0.8532   -1.1681 C   0  0  0  0  0  0  0  0  0  0  0  0
   -6.8551   -0.6985    1.2295 C   0  0  0  0  0  0  0  0  0  0  0  0
   -6.6271    0.2248    0.0390 C   0  0  0  0  0  0  0  0  0  0  0  0
   -4.4249    1.3623    0.0952 C   0  0  0  0  0  0  0  0  0  0  0  0
   -1.7957   -2.1838   -1.0021 C   0  0  0  0  0  0  0  0  0  0  0  0
   -0.3911   -1.9261   -0.5927 C   0  0  0  0  0  0  0  0  0  0  0  0
   -2.0662    2.2567   -0.0553 C   0  0  0  0  0  0  0  0  0  0  0  0
    0.5937   -1.7345   -1.5618 C   0  0  0  0  0  0  0  0  0  0  0  0
   -0.0567   -1.8774    0.7607 C   0  0  0  0  0  0  0  0  0  0  0  0
   -0.7908    2.0646   -0.5863 C   0  0  0  0  0  0  0  0  0  0  0  0
   -2.3240    3.3600    0.7584 C   0  0  0  0  0  0  0  0  0  0  0  0
    1.9129   -1.4946   -1.1777 C   0  0  0  0  0  0  0  0  0  0  0  0
    1.2626   -1.6376    1.1448 C   0  0  0  0  0  0  0  0  0  0  0  0
    2.2473   -1.4462    0.1757 C   0  0  0  0  0  0  0  0  0  0  0  0
    0.2268    2.9756   -0.3035 C   0  0  0  0  0  0  0  0  0  0  0  0
   -1.3062    4.2709    1.0413 C   0  0  0  0  0  0  0  0  0  0  0  0
   -0.0308    4.0787    0.5104 C   0  0  0  0  0  0  0  0  0  0  0  0
    4.4906   -1.0243   -0.4914 C   0  0  0  0  0  0  0  0  0  0  0  0
    1.5911    2.7703   -0.8700 C   0  0  0  0  0  0  0  0  0  0  0  0
    5.8452   -0.8124    0.1182 C   0  0  0  0  0  0  0  0  0  0  0  0
    6.8884   -1.6981    0.1802 C   0  0  0  0  0  0  0  0  0  0  0  0
    6.3433    0.3356    0.7583 C   0  0  0  0  0  0  0  0  0  0  0  0
    7.0824   -3.0791   -0.2809 C   0  0  0  0  0  0  0  0  0  0  0  0
    5.6557    1.6172    0.9885 C   0  0  0  0  0  0  0  0  0  0  0  0
   -4.2454   -2.9048   -0.9636 H   0  0  0  0  0  0  0  0  0  0  0  0
   -4.4437   -1.6914    1.8026 H   0  0  0  0  0  0  0  0  0  0  0  0
   -6.8361   -2.5539    0.0896 H   0  0  0  0  0  0  0  0  0  0  0  0
   -6.8202   -2.7468    1.8238 H   0  0  0  0  0  0  0  0  0  0  0  0
   -4.0476   -0.5088   -1.9276 H   0  0  0  0  0  0  0  0  0  0  0  0
   -5.6169   -1.2272   -1.7383 H   0  0  0  0  0  0  0  0  0  0  0  0
   -6.3536   -0.2901    2.1157 H   0  0  0  0  0  0  0  0  0  0  0  0
   -7.9286   -0.7035    1.4548 H   0  0  0  0  0  0  0  0  0  0  0  0
   -7.2287   -0.0942   -0.8202 H   0  0  0  0  0  0  0  0  0  0  0  0
   -6.9785    1.2288    0.3023 H   0  0  0  0  0  0  0  0  0  0  0  0
   -2.5086   -1.2527    0.7238 H   0  0  0  0  0  0  0  0  0  0  0  0
   -4.9275   -3.8197    2.2470 H   0  0  0  0  0  0  0  0  0  0  0  0
   -2.8046    0.5556   -0.9237 H   0  0  0  0  0  0  0  0  0  0  0  0
    0.3500   -1.7625   -2.6206 H   0  0  0  0  0  0  0  0  0  0  0  0
   -0.7870   -2.0503    1.5457 H   0  0  0  0  0  0  0  0  0  0  0  0
   -0.5872    1.2097   -1.2260 H   0  0  0  0  0  0  0  0  0  0  0  0
   -3.2793    3.5843    1.2093 H   0  0  0  0  0  0  0  0  0  0  0  0
    2.6233   -1.3492   -1.9840 H   0  0  0  0  0  0  0  0  0  0  0  0
    1.5189   -1.6066    2.2003 H   0  0  0  0  0  0  0  0  0  0  0  0
   -1.5055    5.1303    1.6750 H   0  0  0  0  0  0  0  0  0  0  0  0
    0.7479    4.7997    0.7432 H   0  0  0  0  0  0  0  0  0  0  0  0
    4.5377   -1.9108   -1.1364 H   0  0  0  0  0  0  0  0  0  0  0  0
    4.2439   -0.1364   -1.0876 H   0  0  0  0  0  0  0  0  0  0  0  0
    6.2276   -3.7037   -0.0032 H   0  0  0  0  0  0  0  0  0  0  0  0
    7.9798   -3.5262    0.1584 H   0  0  0  0  0  0  0  0  0  0  0  0
    7.1877   -3.1067   -1.3698 H   0  0  0  0  0  0  0  0  0  0  0  0
    4.7361    1.4628    1.5625 H   0  0  0  0  0  0  0  0  0  0  0  0
    6.2813    2.3233    1.5447 H   0  0  0  0  0  0  0  0  0  0  0  0
    5.3882    2.0858    0.0358 H   0  0  0  0  0  0  0  0  0  0  0  0
  1 34  1  0  0  0  0
  2 34  1  0  0  0  0
  3 34  1  0  0  0  0
  4 14  1  0  0  0  0
  4 51  1  0  0  0  0
  5 19  2  0  0  0  0
  6 20  2  0  0  0  0
  7 29  1  0  0  0  0
  7 33  1  0  0  0  0
  8 12  1  0  0  0  0
  8 36  1  0  0  0  0
  9 16  1  0  0  0  0
  9 18  1  0  0  0  0
  9 19  1  0  0  0  0
 10 13  1  0  0  0  0
 10 20  1  0  0  0  0
 10 50  1  0  0  0  0
 11 19  1  0  0  0  0
 11 22  1  0  0  0  0
 11 52  1  0  0  0  0
 12 37  2  0  0  0  0
 13 14  1  0  0  0  0
 13 16  1  0  0  0  0
 13 40  1  0  0  0  0
 14 15  1  0  0  0  0
 14 41  1  0  0  0  0
 15 17  1  0  0  0  0
 15 42  1  0  0  0  0
 15 43  1  0  0  0  0
 16 44  1  0  0  0  0
 16 45  1  0  0  0  0
 17 18  1  0  0  0  0
 17 46  1  0  0  0  0
 17 47  1  0  0  0  0
 18 48  1  0  0  0  0
 18 49  1  0  0  0  0
 20 21  1  0  0  0  0
 21 23  2  0  0  0  0
 21 24  1  0  0  0  0
 22 25  1  0  0  0  0
 22 26  2  0  0  0  0
 23 27  1  0  0  0  0
 23 53  1  0  0  0  0
 24 28  2  0  0  0  0
 24 54  1  0  0  0  0
 25 30  2  0  0  0  0
 25 55  1  0  0  0  0
 26 31  1  0  0  0  0
 26 56  1  0  0  0  0
 27 29  2  0  0  0  0
 27 57  1  0  0  0  0
 28 29  1  0  0  0  0
 28 58  1  0  0  0  0
 30 32  1  0  0  0  0
 30 34  1  0  0  0  0
 31 32  2  0  0  0  0
 31 59  1  0  0  0  0
 32 60  1  0  0  0  0
 33 35  1  0  0  0  0
 33 61  1  0  0  0  0
 33 62  1  0  0  0  0
 35 36  2  0  0  0  0
 35 37  1  0  0  0  0
 36 38  1  0  0  0  0
 37 39  1  0  0  0  0
 38 63  1  0  0  0  0
 38 64  1  0  0  0  0
 38 65  1  0  0  0  0
 39 66  1  0  0  0  0
 39 67  1  0  0  0  0
 39 68  1  0  0  0  0
M  END
> <PUBCHEM_COMPOUND_CID>
45360398

> <PUBCHEM_CONFORMER_RMSD>
1.4

> <PUBCHEM_CONFORMER_DIVERSEORDER>
1
92
126
62
69
17
14
20
66
73
39
65
119
86
38
42
43
72
10
99
9
123
35
33
100
79
106
2
31
13
83
46
124
108
116
50
89
21
59
64
102
56
93
58
75
120
103
111
104
77
109
80
82
60
61
47
45
32
67
24
70
78
6
54
114
8
122
85
37
44
98
19
11
84
22
25
91
121
107
74
87
96
49
88
113
18
53
51
5
12
30
27
105
57
63
34
48
7
29
81
95
16
36
94
26
97
40
125
115
101
28
90
4
117
15
71
112
68
52
23
76
118
41
110
55
3

> <PUBCHEM_MMFF94_PARTIAL_CHARGES>
48
1 -0.34
10 -0.73
11 -0.55
12 -0.41
13 0.3
14 0.28
16 0.3
18 0.3
19 0.69
2 -0.34
20 0.54
21 0.09
22 0.12
23 -0.15
24 -0.15
25 -0.15
26 -0.15
27 -0.15
28 -0.15
29 0.08
3 -0.34
30 -0.14
31 -0.15
32 -0.15
33 0.46
34 1.16
35 -0.18
36 -0.04
37 0.11
38 0.18
39 0.18
4 -0.68
5 -0.57
50 0.37
51 0.4
52 0.37
53 0.15
54 0.15
55 0.15
56 0.15
57 0.15
58 0.15
59 0.15
6 -0.57
60 0.15
7 -0.36
8 -0.02
9 -0.66

> <PUBCHEM_EFFECTIVE_ROTOR_COUNT>
11.4

> <PUBCHEM_PHARMACOPHORE_FEATURES>
12
1 10 donor
1 11 donor
1 12 acceptor
1 4 acceptor
1 4 donor
1 5 acceptor
1 6 acceptor
1 7 acceptor
5 8 12 35 36 37 rings
6 21 23 24 27 28 29 rings
6 22 25 26 30 31 32 rings
7 9 13 14 15 16 17 18 rings

> <PUBCHEM_HEAVY_ATOM_COUNT>
39

> <PUBCHEM_ATOM_DEF_STEREO_COUNT>
2

> <PUBCHEM_ATOM_UDEF_STEREO_COUNT>
0

> <PUBCHEM_BOND_DEF_STEREO_COUNT>
0

> <PUBCHEM_BOND_UDEF_STEREO_COUNT>
0

> <PUBCHEM_ISOTOPIC_ATOM_COUNT>
0

> <PUBCHEM_COMPONENT_COUNT>
1

> <PUBCHEM_CACTVS_TAUTO_COUNT>
4

> <PUBCHEM_CONFORMER_ID>
02B4250E00000001

> <PUBCHEM_MMFF94_ENERGY>
91.938

> <PUBCHEM_FEATURE_SELFOVERLAP>
60.901

> <PUBCHEM_SHAPE_FINGERPRINT>
10864689 126 17692257335626662828
10939801 23 18268994361970381132
1100329 8 18410012156290301141
11146851 88 18410005521451707909
11456790 92 18262534658522172147
12107698 1 18336267928911894507
12166972 35 17530969107174552846
12422481 6 18271239538136861040
13111901 25 18337116756283770636
13383665 225 18336841844997984820
13811026 1 18410571773264503182
14028597 1 17822280246456893850
14394314 77 18269275669180013145
14849402 71 18042131032019289756
14955137 171 18411418453057675338
15001296 14 18334292110870017296
15183329 4 15985104128491189570
15264996 142 18117301205841527682
15276724 80 18272644654563935982
15297060 5 17845653630111268113
15968369 153 18201720686784006876
16628084 112 18261394485516422972
18336668 15 18259985959575996029
19611394 137 18263089949869020171
20721686 56 18337106882427951931
20771845 165 11094796336300232859
21796203 349 18195838308302458097
25019877 29 17561080285225807462
2747138 104 18411702063155657704
3383291 50 18334577953480315515
373842 8 18338238266485948040
392239 28 18340209592182307840
4144715 1 18116438235390693818
463206 1 18410583881426748345
469060 322 17168140088561882166
57676310 188 18118694442294817180
9896288 288 17985269577641212160

> <PUBCHEM_SHAPE_MULTIPOLES>
731.51
18.69
5.31
1.36
18.75
4.69
-0.3
-11.49
6.89
-1.9
0.2
-0.31
-0.3
0.33

> <PUBCHEM_SHAPE_SELFOVERLAP>
1563.581

> <PUBCHEM_SHAPE_VOLUME>
404.7

> <PUBCHEM_COORDINATE_TYPE>
2
5
10

$$$$
