40777976
  -OEChem-12032416173D

 52 54  0     1  0  0  0  0  0999 V2000
    2.0770    0.2186   -0.5629 O   0  0  0  0  0  0  0  0  0  0  0  0
    4.9131    1.0327   -1.3060 O   0  0  0  0  0  0  0  0  0  0  0  0
    4.2258    2.8188    0.6704 O   0  0  0  0  0  0  0  0  0  0  0  0
    0.2796   -1.4029    1.2001 O   0  0  0  0  0  0  0  0  0  0  0  0
   -0.2263    2.1331   -1.3609 O   0  0  0  0  0  0  0  0  0  0  0  0
    2.0996   -2.5143    0.2619 N   0  0  0  0  0  0  0  0  0  0  0  0
   -1.2636    1.7702    0.7151 N   0  0  0  0  0  0  0  0  0  0  0  0
    3.3144   -0.5200   -0.4429 C   0  0  1  0  0  0  0  0  0  0  0  0
    4.3910    0.5000   -0.0893 C   0  0  2  0  0  0  0  0  0  0  0  0
    3.5944    1.5565    0.6479 C   0  0  2  0  0  0  0  0  0  0  0  0
    2.3036    1.5787   -0.1530 C   0  0  2  0  0  0  0  0  0  0  0  0
   -0.1024   -3.4583    0.0492 C   0  0  0  0  0  0  0  0  0  0  0  0
   -0.6142   -3.1130   -1.3538 C   0  0  0  0  0  0  0  0  0  0  0  0
   -1.3435   -3.6442    0.9235 C   0  0  0  0  0  0  0  0  0  0  0  0
    3.1214   -1.5803    0.6327 C   0  0  0  0  0  0  0  0  0  0  0  0
   -2.1343   -3.2077   -1.2777 C   0  0  0  0  0  0  0  0  0  0  0  0
   -2.4520   -2.9152    0.1777 C   0  0  0  0  0  0  0  0  0  0  0  0
    1.1104    2.0790    0.6413 C   0  0  0  0  0  0  0  0  0  0  0  0
    0.7549   -2.3489    0.5773 C   0  0  0  0  0  0  0  0  0  0  0  0
   -0.1915    2.0015   -0.1419 C   0  0  0  0  0  0  0  0  0  0  0  0
   -2.6297    1.6356    0.3710 C   0  0  0  0  0  0  0  0  0  0  0  0
   -3.5800    1.4046    1.3656 C   0  0  0  0  0  0  0  0  0  0  0  0
   -3.0259    1.7336   -0.9628 C   0  0  0  0  0  0  0  0  0  0  0  0
   -4.9265    1.2716    1.0266 C   0  0  0  0  0  0  0  0  0  0  0  0
   -4.3724    1.6007   -1.3019 C   0  0  0  0  0  0  0  0  0  0  0  0
   -5.3227    1.3696   -0.3073 C   0  0  0  0  0  0  0  0  0  0  0  0
    3.5021   -0.9961   -1.4125 H   0  0  0  0  0  0  0  0  0  0  0  0
    5.2285    0.1022    0.4906 H   0  0  0  0  0  0  0  0  0  0  0  0
    3.4080    1.2359    1.6799 H   0  0  0  0  0  0  0  0  0  0  0  0
    2.4185    2.1845   -1.0612 H   0  0  0  0  0  0  0  0  0  0  0  0
    0.4754   -4.3902    0.0375 H   0  0  0  0  0  0  0  0  0  0  0  0
   -0.2204   -3.8056   -2.1054 H   0  0  0  0  0  0  0  0  0  0  0  0
   -0.3172   -2.1021   -1.6591 H   0  0  0  0  0  0  0  0  0  0  0  0
   -1.2354   -3.2847    1.9516 H   0  0  0  0  0  0  0  0  0  0  0  0
   -1.5906   -4.7122    0.9769 H   0  0  0  0  0  0  0  0  0  0  0  0
    2.8360   -1.1253    1.5876 H   0  0  0  0  0  0  0  0  0  0  0  0
    4.0453   -2.1482    0.7824 H   0  0  0  0  0  0  0  0  0  0  0  0
   -2.4585   -4.2226   -1.5370 H   0  0  0  0  0  0  0  0  0  0  0  0
   -2.6278   -2.5102   -1.9608 H   0  0  0  0  0  0  0  0  0  0  0  0
   -2.4009   -1.8375    0.3703 H   0  0  0  0  0  0  0  0  0  0  0  0
   -3.4468   -3.2678    0.4647 H   0  0  0  0  0  0  0  0  0  0  0  0
    1.2582    3.1215    0.9448 H   0  0  0  0  0  0  0  0  0  0  0  0
    1.0124    1.4756    1.5525 H   0  0  0  0  0  0  0  0  0  0  0  0
    2.3826   -3.3262   -0.2790 H   0  0  0  0  0  0  0  0  0  0  0  0
    5.3824    0.3125   -1.7607 H   0  0  0  0  0  0  0  0  0  0  0  0
    5.0935    2.7030    1.0937 H   0  0  0  0  0  0  0  0  0  0  0  0
   -1.0672    1.6922    1.7106 H   0  0  0  0  0  0  0  0  0  0  0  0
   -3.2847    1.3253    2.4087 H   0  0  0  0  0  0  0  0  0  0  0  0
   -2.3503    1.9100   -1.7877 H   0  0  0  0  0  0  0  0  0  0  0  0
   -5.6664    1.0913    1.8009 H   0  0  0  0  0  0  0  0  0  0  0  0
   -4.6822    1.6763   -2.3403 H   0  0  0  0  0  0  0  0  0  0  0  0
   -6.3710    1.2658   -0.5714 H   0  0  0  0  0  0  0  0  0  0  0  0
  1  8  1  0  0  0  0
  1 11  1  0  0  0  0
  2  9  1  0  0  0  0
  2 45  1  0  0  0  0
  3 10  1  0  0  0  0
  3 46  1  0  0  0  0
  4 19  2  0  0  0  0
  5 20  2  0  0  0  0
  6 15  1  0  0  0  0
  6 19  1  0  0  0  0
  6 44  1  0  0  0  0
  7 20  1  0  0  0  0
  7 21  1  0  0  0  0
  7 47  1  0  0  0  0
  8  9  1  0  0  0  0
  8 15  1  0  0  0  0
  8 27  1  0  0  0  0
  9 10  1  0  0  0  0
  9 28  1  0  0  0  0
 10 11  1  0  0  0  0
 10 29  1  0  0  0  0
 11 18  1  0  0  0  0
 11 30  1  0  0  0  0
 12 13  1  0  0  0  0
 12 14  1  0  0  0  0
 12 19  1  0  0  0  0
 12 31  1  0  0  0  0
 13 16  1  0  0  0  0
 13 32  1  0  0  0  0
 13 33  1  0  0  0  0
 14 17  1  0  0  0  0
 14 34  1  0  0  0  0
 14 35  1  0  0  0  0
 15 36  1  0  0  0  0
 15 37  1  0  0  0  0
 16 17  1  0  0  0  0
 16 38  1  0  0  0  0
 16 39  1  0  0  0  0
 17 40  1  0  0  0  0
 17 41  1  0  0  0  0
 18 20  1  0  0  0  0
 18 42  1  0  0  0  0
 18 43  1  0  0  0  0
 21 22  2  0  0  0  0
 21 23  1  0  0  0  0
 22 24  1  0  0  0  0
 22 48  1  0  0  0  0
 23 25  2  0  0  0  0
 23 49  1  0  0  0  0
 24 26  2  0  0  0  0
 24 50  1  0  0  0  0
 25 26  1  0  0  0  0
 25 51  1  0  0  0  0
 26 52  1  0  0  0  0
M  END
> <PUBCHEM_COMPOUND_CID>
40777976

> <PUBCHEM_CONFORMER_RMSD>
1.2

> <PUBCHEM_CONFORMER_DIVERSEORDER>
1
35
8
49
72
55
54
62
31
67
10
77
82
43
18
75
56
9
23
83
17
76
11
52
79
25
53
64
26
58
66
84
19
2
68
85
6
88
14
50
63
71
81
46
30
69
39
15
20
13
47
3
65
33
57
86
40
78
74
7
34
5
44
29
37
87
32
12
70
36
41
61
51
28
21
24
48
4
22
60
38
16
27
42
80
73
45
59

> <PUBCHEM_MMFF94_PARTIAL_CHARGES>
31
1 -0.56
10 0.28
11 0.28
12 0.06
15 0.3
18 0.06
19 0.57
2 -0.68
20 0.57
21 0.12
22 -0.15
23 -0.15
24 -0.15
25 -0.15
26 -0.15
3 -0.68
4 -0.57
44 0.37
45 0.4
46 0.4
47 0.37
48 0.15
49 0.15
5 -0.57
50 0.15
51 0.15
52 0.15
6 -0.73
7 -0.55
8 0.28
9 0.28

> <PUBCHEM_EFFECTIVE_ROTOR_COUNT>
10

> <PUBCHEM_PHARMACOPHORE_FEATURES>
12
1 1 acceptor
1 2 acceptor
1 2 donor
1 3 acceptor
1 3 donor
1 4 acceptor
1 5 acceptor
1 6 donor
1 7 donor
5 1 8 9 10 11 rings
5 12 13 14 16 17 rings
6 21 22 23 24 25 26 rings

> <PUBCHEM_HEAVY_ATOM_COUNT>
26

> <PUBCHEM_ATOM_DEF_STEREO_COUNT>
4

> <PUBCHEM_ATOM_UDEF_STEREO_COUNT>
0

> <PUBCHEM_BOND_DEF_STEREO_COUNT>
0

> <PUBCHEM_BOND_UDEF_STEREO_COUNT>
0

> <PUBCHEM_ISOTOPIC_ATOM_COUNT>
0

> <PUBCHEM_COMPONENT_COUNT>
1

> <PUBCHEM_CACTVS_TAUTO_COUNT>
4

> <PUBCHEM_CONFORMER_ID>
026E38F800000001

> <PUBCHEM_MMFF94_ENERGY>
63.1674

> <PUBCHEM_FEATURE_SELFOVERLAP>
60.911

> <PUBCHEM_SHAPE_FINGERPRINT>
104564 63 18194404613658730598
1100329 8 18337664205695056418
11014199 57 17473551729150801306
11112662 9 18131350761120734151
11135609 187 18339911668003300613
11513181 2 18131634469750224415
11578080 2 17488166270698913218
12156800 1 17838579539654494339
12553582 1 16465866334701254531
12788726 201 17834107928827297848
13122387 1 18339079264142908431
13140716 1 18408881824077624386
1361 2 18335979784288614993
14117953 113 17547558289590593543
14931854 50 18339906217277976143
17138139 8 17770746239684380391
17357779 13 17979913040742553486
20028762 73 18129091221692221814
20645477 70 18190175681342663673
21197605 99 18339089271960410715
21236236 1 18267302230675741232
21344244 181 17988658353929091383
21421861 104 17768266608756514305
23558518 356 17827919847305878072
238 59 18193561060232257811
3052486 1 18262796405928010400
3298306 158 18264201418700967829
338550 245 18262243351515942253
469060 322 17168416185923429735
5171179 24 17626665256470191168
6287921 2 17483678901837511799
6438718 38 18201437025289232078
653340 110 18053373594126697664

> <PUBCHEM_SHAPE_MULTIPOLES>
495.76
9.34
5.05
1.28
1.68
5.11
-0.16
-7.56
-0.4
1.04
-0.06
0.65
0.05
-0.22

> <PUBCHEM_SHAPE_SELFOVERLAP>
1041.572

> <PUBCHEM_SHAPE_VOLUME>
278.8

> <PUBCHEM_COORDINATE_TYPE>
2
5
10

$$$$
