7134352
  -OEChem-12032416123D

 55 56  0     1  0  0  0  0  0999 V2000
    3.8750    0.6174   -1.4845 S   0  0  0  0  0  0  0  0  0  0  0  0
    4.5775    3.1253   -0.0928 S   0  0  0  0  0  0  0  0  0  0  0  0
   -0.8902   -1.0302    1.7314 O   0  0  0  0  0  0  0  0  0  0  0  0
   -3.3185    2.1160    0.9161 O   0  0  0  0  0  0  0  0  0  0  0  0
    4.7597    1.1451   -2.5051 O   0  0  0  0  0  0  0  0  0  0  0  0
    3.8811   -0.7897   -1.1355 O   0  0  0  0  0  0  0  0  0  0  0  0
   -5.1767    0.6706    0.0032 O   0  0  0  0  0  0  0  0  0  0  0  0
    2.1289   -3.7930   -1.0304 O   0  0  0  0  0  0  0  0  0  0  0  0
   -8.5512   -0.3544   -0.6532 O   0  0  0  0  0  0  0  0  0  0  0  0
   -7.7422    1.3685    0.5977 O   0  0  0  0  0  0  0  0  0  0  0  0
   -1.5485    0.8621    0.0703 N   0  0  0  0  0  0  0  0  0  0  0  0
    2.2679    1.0949   -1.8225 N   0  0  0  0  0  0  0  0  0  0  0  0
   -0.2815   -2.5508    0.0771 N   0  0  0  0  0  0  0  0  0  0  0  0
    3.8338   -3.6271    0.5027 N   0  0  0  0  0  0  0  0  0  0  0  0
    1.2249    0.7715   -0.8183 C   0  0  2  0  0  0  0  0  0  0  0  0
    0.1708   -0.1321   -1.4592 C   0  0  0  0  0  0  0  0  0  0  0  0
   -1.0442   -0.3699   -0.5592 C   0  0  1  0  0  0  0  0  0  0  0  0
    0.5885    2.0623   -0.3131 C   0  0  0  0  0  0  0  0  0  0  0  0
   -0.5451    1.7587    0.6580 C   0  0  0  0  0  0  0  0  0  0  0  0
   -0.7448   -1.3352    0.5505 C   0  0  0  0  0  0  0  0  0  0  0  0
   -2.9037    1.1492    0.2711 C   0  0  0  0  0  0  0  0  0  0  0  0
   -3.8991    0.2072   -0.3601 C   0  0  0  0  0  0  0  0  0  0  0  0
    4.3611    1.4316    0.0368 C   0  0  0  0  0  0  0  0  0  0  0  0
    0.0992   -3.6431    0.9432 C   0  0  0  0  0  0  0  0  0  0  0  0
    1.5721   -3.5893    1.3246 C   0  0  0  0  0  0  0  0  0  0  0  0
    4.6032    0.9758    1.3141 C   0  0  0  0  0  0  0  0  0  0  0  0
    4.9708    2.0311    2.1980 C   0  0  0  0  0  0  0  0  0  0  0  0
    4.9959    3.2530    1.5626 C   0  0  0  0  0  0  0  0  0  0  0  0
   -6.2161   -0.1437   -0.5371 C   0  0  0  0  0  0  0  0  0  0  0  0
    2.5068   -3.6780    0.1318 C   0  0  0  0  0  0  0  0  0  0  0  0
   -7.5554    0.3963   -0.1184 C   0  0  0  0  0  0  0  0  0  0  0  0
    1.6687    0.2358    0.0292 H   0  0  0  0  0  0  0  0  0  0  0  0
   -0.1874    0.3572   -2.3767 H   0  0  0  0  0  0  0  0  0  0  0  0
    0.6407   -1.0629   -1.7950 H   0  0  0  0  0  0  0  0  0  0  0  0
   -1.8264   -0.8273   -1.1721 H   0  0  0  0  0  0  0  0  0  0  0  0
    1.3364    2.6915    0.1818 H   0  0  0  0  0  0  0  0  0  0  0  0
    0.1970    2.6442   -1.1580 H   0  0  0  0  0  0  0  0  0  0  0  0
   -1.0128    2.7003    0.9645 H   0  0  0  0  0  0  0  0  0  0  0  0
   -0.1518    1.2956    1.5688 H   0  0  0  0  0  0  0  0  0  0  0  0
    2.1188    1.9594   -2.3580 H   0  0  0  0  0  0  0  0  0  0  0  0
   -0.2504   -2.7236   -0.9226 H   0  0  0  0  0  0  0  0  0  0  0  0
   -3.7476   -0.8048    0.0286 H   0  0  0  0  0  0  0  0  0  0  0  0
   -3.7847    0.2336   -1.4486 H   0  0  0  0  0  0  0  0  0  0  0  0
   -0.1260   -4.5708    0.4062 H   0  0  0  0  0  0  0  0  0  0  0  0
   -0.5193   -3.6141    1.8467 H   0  0  0  0  0  0  0  0  0  0  0  0
    1.7885   -2.6532    1.8540 H   0  0  0  0  0  0  0  0  0  0  0  0
    1.8025   -4.4200    2.0018 H   0  0  0  0  0  0  0  0  0  0  0  0
    4.5199   -0.0636    1.6045 H   0  0  0  0  0  0  0  0  0  0  0  0
    5.2044    1.9006    3.2466 H   0  0  0  0  0  0  0  0  0  0  0  0
    5.2398    4.2147    1.9915 H   0  0  0  0  0  0  0  0  0  0  0  0
   -6.1152   -1.1652   -0.1557 H   0  0  0  0  0  0  0  0  0  0  0  0
   -6.1577   -0.1288   -1.6306 H   0  0  0  0  0  0  0  0  0  0  0  0
    4.5719   -3.6782   -0.1916 H   0  0  0  0  0  0  0  0  0  0  0  0
    4.1236   -3.5335    1.4709 H   0  0  0  0  0  0  0  0  0  0  0  0
   -9.4379   -0.0232   -0.3958 H   0  0  0  0  0  0  0  0  0  0  0  0
  1  5  2  0  0  0  0
  1  6  2  0  0  0  0
  1 12  1  0  0  0  0
  1 23  1  0  0  0  0
  2 23  1  0  0  0  0
  2 28  1  0  0  0  0
  3 20  2  0  0  0  0
  4 21  2  0  0  0  0
  7 22  1  0  0  0  0
  7 29  1  0  0  0  0
  8 30  2  0  0  0  0
  9 31  1  0  0  0  0
  9 55  1  0  0  0  0
 10 31  2  0  0  0  0
 11 17  1  0  0  0  0
 11 19  1  0  0  0  0
 11 21  1  0  0  0  0
 12 15  1  0  0  0  0
 12 40  1  0  0  0  0
 13 20  1  0  0  0  0
 13 24  1  0  0  0  0
 13 41  1  0  0  0  0
 14 30  1  0  0  0  0
 14 53  1  0  0  0  0
 14 54  1  0  0  0  0
 15 16  1  0  0  0  0
 15 18  1  0  0  0  0
 15 32  1  0  0  0  0
 16 17  1  0  0  0  0
 16 33  1  0  0  0  0
 16 34  1  0  0  0  0
 17 20  1  0  0  0  0
 17 35  1  0  0  0  0
 18 19  1  0  0  0  0
 18 36  1  0  0  0  0
 18 37  1  0  0  0  0
 19 38  1  0  0  0  0
 19 39  1  0  0  0  0
 21 22  1  0  0  0  0
 22 42  1  0  0  0  0
 22 43  1  0  0  0  0
 23 26  2  0  0  0  0
 24 25  1  0  0  0  0
 24 44  1  0  0  0  0
 24 45  1  0  0  0  0
 25 30  1  0  0  0  0
 25 46  1  0  0  0  0
 25 47  1  0  0  0  0
 26 27  1  0  0  0  0
 26 48  1  0  0  0  0
 27 28  2  0  0  0  0
 27 49  1  0  0  0  0
 28 50  1  0  0  0  0
 29 31  1  0  0  0  0
 29 51  1  0  0  0  0
 29 52  1  0  0  0  0
M  END
> <PUBCHEM_COMPOUND_CID>
7134352

> <PUBCHEM_CONFORMER_RMSD>
1.2

> <PUBCHEM_CONFORMER_DIVERSEORDER>
1
14
50
17
34
28
47
32
24
36
22
51
43
15
46
45
26
37
7
25
54
48
19
29
12
16
27
23
9
38
44
20
39
53
2
35
21
42
18
55
10
6
41
40
31
49
11
4
30
33
52
3
8
13
5

> <PUBCHEM_MMFF94_PARTIAL_CHARGES>
37
1 1.5
10 -0.57
11 -0.66
12 -0.91
13 -0.73
14 -0.8
15 0.36
17 0.36
19 0.3
2 -0.08
20 0.57
21 0.57
22 0.34
23 -0.02
24 0.3
25 0.06
26 -0.15
27 -0.15
28 -0.11
29 0.34
3 -0.57
30 0.57
31 0.66
4 -0.57
40 0.42
41 0.37
48 0.15
49 0.15
5 -0.65
50 0.15
53 0.37
54 0.37
55 0.5
6 -0.65
7 -0.56
8 -0.57
9 -0.65

> <PUBCHEM_EFFECTIVE_ROTOR_COUNT>
14.2

> <PUBCHEM_PHARMACOPHORE_FEATURES>
14
1 10 acceptor
1 12 donor
1 13 donor
1 14 donor
1 3 acceptor
1 4 acceptor
1 5 acceptor
1 6 acceptor
1 7 acceptor
1 8 acceptor
1 9 acceptor
3 9 10 31 anion
5 2 23 26 27 28 rings
6 11 15 16 17 18 19 rings

> <PUBCHEM_HEAVY_ATOM_COUNT>
31

> <PUBCHEM_ATOM_DEF_STEREO_COUNT>
2

> <PUBCHEM_ATOM_UDEF_STEREO_COUNT>
0

> <PUBCHEM_BOND_DEF_STEREO_COUNT>
0

> <PUBCHEM_BOND_UDEF_STEREO_COUNT>
0

> <PUBCHEM_ISOTOPIC_ATOM_COUNT>
0

> <PUBCHEM_COMPONENT_COUNT>
1

> <PUBCHEM_CACTVS_TAUTO_COUNT>
4

> <PUBCHEM_CONFORMER_ID>
006CDC9000000001

> <PUBCHEM_MMFF94_ENERGY>
46.3911

> <PUBCHEM_FEATURE_SELFOVERLAP>
71.149

> <PUBCHEM_SHAPE_FINGERPRINT>
11719270 70 18259983795207461675
12422481 6 17385990789316822110
12788726 201 17469330687490899750
13165053 371 18411697661178994489
13533116 47 18410577240742020903
13617811 41 18334575763458574269
13692114 37 18411976996649847590
14675020 138 18410003351897170128
14725015 67 17969494923372772114
15775530 1 17244409808018518045
15927050 60 18339639061532877423
20554085 129 18411136974313712900
20771845 171 17676780811294837262
21521721 280 16773522165650016437
23559900 14 18340220682246828404
25147074 1 18197509420301119513
3178227 256 18337680832040811361
4340502 62 18408880758746022965
57634706 280 18129373964063566841
59755656 215 18409732868048069069
6669772 16 18341886441497517896
70251023 43 17131008472811702532

> <PUBCHEM_SHAPE_MULTIPOLES>
578.79
16.02
4.64
1.68
36.86
6.03
-0.19
-11.46
0.57
-6.63
1.64
-2.71
-0.39
0.53

> <PUBCHEM_SHAPE_SELFOVERLAP>
1160.741

> <PUBCHEM_SHAPE_VOLUME>
337.9

> <PUBCHEM_COORDINATE_TYPE>
2
5
10

$$$$
