40777875
  -OEChem-12032416193D

 57 58  0     1  0  0  0  0  0999 V2000
    5.6016    0.9865    0.3085 F   0  0  0  0  0  0  0  0  0  0  0  0
   -2.2880   -0.2499   -0.5359 O   0  0  0  0  0  0  0  0  0  0  0  0
   -5.2832   -0.5551   -0.9763 O   0  0  0  0  0  0  0  0  0  0  0  0
   -4.7326   -2.3832    1.0044 O   0  0  0  0  0  0  0  0  0  0  0  0
   -0.3324   -2.0508   -1.4265 O   0  0  0  0  0  0  0  0  0  0  0  0
   -0.1016    1.0498    1.0011 O   0  0  0  0  0  0  0  0  0  0  0  0
   -1.7324    2.4721    0.1688 N   0  0  0  0  0  0  0  0  0  0  0  0
    0.7068   -3.0019    0.4218 N   0  0  0  0  0  0  0  0  0  0  0  0
   -3.3559    0.7040   -0.3343 C   0  0  1  0  0  0  0  0  0  0  0  0
   -4.5566   -0.0940    0.1621 C   0  0  2  0  0  0  0  0  0  0  0  0
   -3.8918   -1.2575    0.8681 C   0  0  2  0  0  0  0  0  0  0  0  0
   -2.7115   -1.5349   -0.0473 C   0  0  2  0  0  0  0  0  0  0  0  0
   -2.8715    1.7397    0.6711 C   0  0  0  0  0  0  0  0  0  0  0  0
   -1.5537   -2.2223    0.6541 C   0  0  0  0  0  0  0  0  0  0  0  0
   -0.3479   -2.4010   -0.2496 C   0  0  0  0  0  0  0  0  0  0  0  0
    0.5988    3.0168   -0.2401 C   0  0  0  0  0  0  0  0  0  0  0  0
   -0.4246    2.0596    0.3791 C   0  0  0  0  0  0  0  0  0  0  0  0
    0.5080    4.4315    0.3583 C   0  0  0  0  0  0  0  0  0  0  0  0
    0.4534    3.0292   -1.7756 C   0  0  0  0  0  0  0  0  0  0  0  0
    1.9771   -3.2918   -0.2027 C   0  0  0  0  0  0  0  0  0  0  0  0
    0.7088    4.4375    1.8692 C   0  0  0  0  0  0  0  0  0  0  0  0
    0.5798    1.6633   -2.4388 C   0  0  0  0  0  0  0  0  0  0  0  0
    2.9437   -2.1511   -0.0663 C   0  0  0  0  0  0  0  0  0  0  0  0
    2.9883   -1.1547   -1.0415 C   0  0  0  0  0  0  0  0  0  0  0  0
    3.7969   -2.0875    1.0354 C   0  0  0  0  0  0  0  0  0  0  0  0
    3.8863   -0.0949   -0.9152 C   0  0  0  0  0  0  0  0  0  0  0  0
    4.6949   -1.0277    1.1617 C   0  0  0  0  0  0  0  0  0  0  0  0
    4.7396   -0.0315    0.1864 C   0  0  0  0  0  0  0  0  0  0  0  0
   -3.5502    1.1808   -1.3021 H   0  0  0  0  0  0  0  0  0  0  0  0
   -5.2482    0.4646    0.7991 H   0  0  0  0  0  0  0  0  0  0  0  0
   -3.5490   -0.9492    1.8630 H   0  0  0  0  0  0  0  0  0  0  0  0
   -3.0195   -2.1348   -0.9137 H   0  0  0  0  0  0  0  0  0  0  0  0
   -2.5816    1.2678    1.6164 H   0  0  0  0  0  0  0  0  0  0  0  0
   -3.6595    2.4711    0.8781 H   0  0  0  0  0  0  0  0  0  0  0  0
   -1.8632   -3.2059    1.0256 H   0  0  0  0  0  0  0  0  0  0  0  0
   -1.2250   -1.6203    1.5107 H   0  0  0  0  0  0  0  0  0  0  0  0
   -1.9194    3.3153   -0.3639 H   0  0  0  0  0  0  0  0  0  0  0  0
   -5.6591    0.2261   -1.4171 H   0  0  0  0  0  0  0  0  0  0  0  0
   -5.5193   -2.1008    1.5012 H   0  0  0  0  0  0  0  0  0  0  0  0
    1.5906    2.6086   -0.0009 H   0  0  0  0  0  0  0  0  0  0  0  0
   -0.4551    4.8992    0.1243 H   0  0  0  0  0  0  0  0  0  0  0  0
    1.2809    5.0621   -0.0980 H   0  0  0  0  0  0  0  0  0  0  0  0
    1.2282    3.6838   -2.1942 H   0  0  0  0  0  0  0  0  0  0  0  0
   -0.5073    3.4701   -2.0674 H   0  0  0  0  0  0  0  0  0  0  0  0
    0.5984   -3.2388    1.4039 H   0  0  0  0  0  0  0  0  0  0  0  0
    1.8169   -3.5316   -1.2606 H   0  0  0  0  0  0  0  0  0  0  0  0
    2.3785   -4.1950    0.2707 H   0  0  0  0  0  0  0  0  0  0  0  0
   -0.0950    3.9038    2.3852 H   0  0  0  0  0  0  0  0  0  0  0  0
    1.6624    3.9735    2.1402 H   0  0  0  0  0  0  0  0  0  0  0  0
    0.7162    5.4670    2.2416 H   0  0  0  0  0  0  0  0  0  0  0  0
   -0.2087    0.9787   -2.1148 H   0  0  0  0  0  0  0  0  0  0  0  0
    0.5051    1.7664   -3.5260 H   0  0  0  0  0  0  0  0  0  0  0  0
    1.5476    1.2140   -2.2111 H   0  0  0  0  0  0  0  0  0  0  0  0
    2.3338   -1.1958   -1.9077 H   0  0  0  0  0  0  0  0  0  0  0  0
    3.7703   -2.8565    1.8029 H   0  0  0  0  0  0  0  0  0  0  0  0
    3.9260    0.6795   -1.6753 H   0  0  0  0  0  0  0  0  0  0  0  0
    5.3590   -0.9773    2.0194 H   0  0  0  0  0  0  0  0  0  0  0  0
  1 28  1  0  0  0  0
  2  9  1  0  0  0  0
  2 12  1  0  0  0  0
  3 10  1  0  0  0  0
  3 38  1  0  0  0  0
  4 11  1  0  0  0  0
  4 39  1  0  0  0  0
  5 15  2  0  0  0  0
  6 17  2  0  0  0  0
  7 13  1  0  0  0  0
  7 17  1  0  0  0  0
  7 37  1  0  0  0  0
  8 15  1  0  0  0  0
  8 20  1  0  0  0  0
  8 45  1  0  0  0  0
  9 10  1  0  0  0  0
  9 13  1  0  0  0  0
  9 29  1  0  0  0  0
 10 11  1  0  0  0  0
 10 30  1  0  0  0  0
 11 12  1  0  0  0  0
 11 31  1  0  0  0  0
 12 14  1  0  0  0  0
 12 32  1  0  0  0  0
 13 33  1  0  0  0  0
 13 34  1  0  0  0  0
 14 15  1  0  0  0  0
 14 35  1  0  0  0  0
 14 36  1  0  0  0  0
 16 17  1  0  0  0  0
 16 18  1  0  0  0  0
 16 19  1  0  0  0  0
 16 40  1  0  0  0  0
 18 21  1  0  0  0  0
 18 41  1  0  0  0  0
 18 42  1  0  0  0  0
 19 22  1  0  0  0  0
 19 43  1  0  0  0  0
 19 44  1  0  0  0  0
 20 23  1  0  0  0  0
 20 46  1  0  0  0  0
 20 47  1  0  0  0  0
 21 48  1  0  0  0  0
 21 49  1  0  0  0  0
 21 50  1  0  0  0  0
 22 51  1  0  0  0  0
 22 52  1  0  0  0  0
 22 53  1  0  0  0  0
 23 24  2  0  0  0  0
 23 25  1  0  0  0  0
 24 26  1  0  0  0  0
 24 54  1  0  0  0  0
 25 27  2  0  0  0  0
 25 55  1  0  0  0  0
 26 28  2  0  0  0  0
 26 56  1  0  0  0  0
 27 28  1  0  0  0  0
 27 57  1  0  0  0  0
M  END
> <PUBCHEM_COMPOUND_CID>
40777875

> <PUBCHEM_CONFORMER_RMSD>
1.2

> <PUBCHEM_CONFORMER_DIVERSEORDER>
1
68
46
94
45
16
104
14
51
12
76
65
111
105
8
59
41
95
35
25
101
92
88
44
52
54
80
30
31
61
21
33
109
43
90
71
77
72
50
96
82
74
39
69
4
110
28
64
102
83
37
13
17
100
103
98
42
49
32
40
2
63
78
87
91
93
67
108
97
10
27
66
89
24
75
106
5
81
29
60
55
38
84
26
9
56
34
79
11
70
7
62
57
36
58
20
85
19
86
47
6
15
22
48
107
99
73
3
53
23
18

> <PUBCHEM_MMFF94_PARTIAL_CHARGES>
32
1 -0.19
10 0.28
11 0.28
12 0.28
13 0.3
14 0.06
15 0.57
16 0.06
17 0.57
2 -0.56
20 0.44
23 -0.14
24 -0.15
25 -0.15
26 -0.15
27 -0.15
28 0.19
3 -0.68
37 0.37
38 0.4
39 0.4
4 -0.68
45 0.37
5 -0.57
54 0.15
55 0.15
56 0.15
57 0.15
6 -0.57
7 -0.73
8 -0.73
9 0.28

> <PUBCHEM_EFFECTIVE_ROTOR_COUNT>
12

> <PUBCHEM_PHARMACOPHORE_FEATURES>
13
1 2 acceptor
1 21 hydrophobe
1 22 hydrophobe
1 3 acceptor
1 3 donor
1 4 acceptor
1 4 donor
1 5 acceptor
1 6 acceptor
1 7 donor
1 8 donor
5 2 9 10 11 12 rings
6 23 24 25 26 27 28 rings

> <PUBCHEM_HEAVY_ATOM_COUNT>
28

> <PUBCHEM_ATOM_DEF_STEREO_COUNT>
4

> <PUBCHEM_ATOM_UDEF_STEREO_COUNT>
0

> <PUBCHEM_BOND_DEF_STEREO_COUNT>
0

> <PUBCHEM_BOND_UDEF_STEREO_COUNT>
0

> <PUBCHEM_ISOTOPIC_ATOM_COUNT>
0

> <PUBCHEM_COMPONENT_COUNT>
1

> <PUBCHEM_CACTVS_TAUTO_COUNT>
4

> <PUBCHEM_CONFORMER_ID>
026E389300000001

> <PUBCHEM_MMFF94_ENERGY>
51.0307

> <PUBCHEM_FEATURE_SELFOVERLAP>
65.988

> <PUBCHEM_SHAPE_FINGERPRINT>
10498660 4 18338801096111726058
10670039 82 18265064557115085622
10675989 125 17181080034893977797
1100329 8 18267306628068040262
11513181 2 17987521398845176263
12422481 6 18051719675657315569
12788726 201 18338527352466337020
13122387 1 18338239267323909212
13140716 1 18050576441051845939
13402501 40 18412822516980353626
14081887 123 18124032325906044732
14363568 33 18194691581687389641
14394314 77 18340492166565606145
15927050 60 17620760917108336702
18336668 15 18187086199734178116
18785283 64 18118982518456030051
20642791 178 18187943801819263301
20715895 44 17608922097787357813
21623110 236 18340489950382703425
22113638 7 18339359781109842870
23558518 356 17690842259270382211
23559900 14 18187920746877585519
392239 28 18342459201578178232
474144 1 17823435940409164668
5265222 85 17181667697641275700
6004065 56 18270102630666701879
6669772 16 17837770389253983149

> <PUBCHEM_SHAPE_MULTIPOLES>
529.64
9.35
5.44
1.49
1.46
4.92
-0.48
-5.47
1.55
0.47
1.24
0.38
0.99
0.04

> <PUBCHEM_SHAPE_SELFOVERLAP>
1085.454

> <PUBCHEM_SHAPE_VOLUME>
306.9

> <PUBCHEM_COORDINATE_TYPE>
2
5
10

$$$$
