44716291
  -OEChem-12032416233D

 64 69  0     1  0  0  0  0  0999 V2000
   -5.4867    1.2941   -1.4686 O   0  0  0  0  0  0  0  0  0  0  0  0
   -3.0380   -2.1660   -0.4885 N   0  0  1  0  0  0  0  0  0  0  0  0
    0.7210   -1.9065    0.1945 N   0  0  0  0  0  0  0  0  0  0  0  0
   -6.2985    0.4604    0.5765 N   0  0  0  0  0  0  0  0  0  0  0  0
    0.8369   -1.7933    1.5276 N   0  0  0  0  0  0  0  0  0  0  0  0
    2.0503   -1.3144    1.7788 N   0  0  0  0  0  0  0  0  0  0  0  0
   -2.9557    0.3591   -1.1131 C   0  0  1  0  0  0  0  0  0  0  0  0
   -1.7526   -1.5662   -0.0363 C   0  0  2  0  0  0  0  0  0  0  0  0
   -4.0278    0.0809   -0.0408 C   0  0  2  0  0  0  0  0  0  0  0  0
   -1.6054   -0.1118   -0.5411 C   0  0  0  0  0  0  0  0  0  0  0  0
   -3.2321   -0.5126   -2.3515 C   0  0  0  0  0  0  0  0  0  0  0  0
   -4.1511   -1.4393    0.1752 C   0  0  0  0  0  0  0  0  0  0  0  0
   -3.2056   -1.9954   -1.9498 C   0  0  0  0  0  0  0  0  0  0  0  0
   -0.5468   -2.4252   -0.4236 C   0  0  0  0  0  0  0  0  0  0  0  0
   -5.3486    0.6876   -0.4113 C   0  0  0  0  0  0  0  0  0  0  0  0
    1.8538   -1.5045   -0.4436 C   0  0  0  0  0  0  0  0  0  0  0  0
   -7.6507    0.8773    0.5832 C   0  0  0  0  0  0  0  0  0  0  0  0
    2.6861   -1.1321    0.5821 C   0  0  0  0  0  0  0  0  0  0  0  0
   -8.4723    0.5619    1.6654 C   0  0  0  0  0  0  0  0  0  0  0  0
   -8.1619    1.6036   -0.4922 C   0  0  0  0  0  0  0  0  0  0  0  0
    4.0143   -0.6297    0.4347 C   0  0  0  0  0  0  0  0  0  0  0  0
   -9.8054    0.9726    1.6720 C   0  0  0  0  0  0  0  0  0  0  0  0
   -9.4949    2.0143   -0.4857 C   0  0  0  0  0  0  0  0  0  0  0  0
    4.3644    0.0935   -0.7055 C   0  0  0  0  0  0  0  0  0  0  0  0
    4.9620   -0.8623    1.4315 C   0  0  0  0  0  0  0  0  0  0  0  0
  -10.3167    1.6989    0.5965 C   0  0  0  0  0  0  0  0  0  0  0  0
    5.6622    0.5842   -0.8488 C   0  0  0  0  0  0  0  0  0  0  0  0
    6.2597   -0.3717    1.2882 C   0  0  0  0  0  0  0  0  0  0  0  0
    6.6099    0.3516    0.1481 C   0  0  0  0  0  0  0  0  0  0  0  0
    7.9566    0.8592    0.0003 C   0  0  0  0  0  0  0  0  0  0  0  0
    8.9319    0.0787   -0.6203 C   0  0  0  0  0  0  0  0  0  0  0  0
    8.2797    2.1291    0.4783 C   0  0  0  0  0  0  0  0  0  0  0  0
   10.2304    0.5679   -0.7629 C   0  0  0  0  0  0  0  0  0  0  0  0
    9.5781    2.6184    0.3356 C   0  0  0  0  0  0  0  0  0  0  0  0
   10.5534    1.8378   -0.2849 C   0  0  0  0  0  0  0  0  0  0  0  0
   -2.9063    1.4185   -1.3872 H   0  0  0  0  0  0  0  0  0  0  0  0
   -1.7822   -1.5382    1.0624 H   0  0  0  0  0  0  0  0  0  0  0  0
   -3.7091    0.5562    0.8980 H   0  0  0  0  0  0  0  0  0  0  0  0
   -0.8349   -0.0236   -1.3167 H   0  0  0  0  0  0  0  0  0  0  0  0
   -1.3044    0.5386    0.2894 H   0  0  0  0  0  0  0  0  0  0  0  0
   -2.4644   -0.3270   -3.1129 H   0  0  0  0  0  0  0  0  0  0  0  0
   -4.1936   -0.2705   -2.8143 H   0  0  0  0  0  0  0  0  0  0  0  0
   -4.1319   -1.6613    1.2502 H   0  0  0  0  0  0  0  0  0  0  0  0
   -5.1071   -1.8398   -0.1866 H   0  0  0  0  0  0  0  0  0  0  0  0
   -4.1360   -2.4811   -2.2709 H   0  0  0  0  0  0  0  0  0  0  0  0
   -2.4114   -2.5209   -2.4921 H   0  0  0  0  0  0  0  0  0  0  0  0
   -0.3658   -2.4496   -1.5033 H   0  0  0  0  0  0  0  0  0  0  0  0
   -0.6400   -3.4528   -0.0536 H   0  0  0  0  0  0  0  0  0  0  0  0
   -6.0072   -0.0542    1.4048 H   0  0  0  0  0  0  0  0  0  0  0  0
    1.9549   -1.5263   -1.5199 H   0  0  0  0  0  0  0  0  0  0  0  0
   -8.0866   -0.0036    2.5098 H   0  0  0  0  0  0  0  0  0  0  0  0
   -7.5880    1.8844   -1.3642 H   0  0  0  0  0  0  0  0  0  0  0  0
  -10.4453    0.7270    2.5145 H   0  0  0  0  0  0  0  0  0  0  0  0
   -9.8944    2.5798   -1.3227 H   0  0  0  0  0  0  0  0  0  0  0  0
    3.6472    0.3019   -1.4955 H   0  0  0  0  0  0  0  0  0  0  0  0
    4.7124   -1.4266    2.3269 H   0  0  0  0  0  0  0  0  0  0  0  0
  -11.3546    2.0187    0.6015 H   0  0  0  0  0  0  0  0  0  0  0  0
    5.9184    1.1481   -1.7427 H   0  0  0  0  0  0  0  0  0  0  0  0
    6.9865   -0.5627    2.0743 H   0  0  0  0  0  0  0  0  0  0  0  0
    8.6969   -0.9135   -0.9986 H   0  0  0  0  0  0  0  0  0  0  0  0
    7.5316    2.7508    0.9646 H   0  0  0  0  0  0  0  0  0  0  0  0
   10.9898   -0.0398   -1.2461 H   0  0  0  0  0  0  0  0  0  0  0  0
    9.8298    3.6072    0.7077 H   0  0  0  0  0  0  0  0  0  0  0  0
   11.5644    2.2189   -0.3959 H   0  0  0  0  0  0  0  0  0  0  0  0
  1 15  2  0  0  0  0
  2  8  1  0  0  0  0
  2 12  1  0  0  0  0
  2 13  1  0  0  0  0
  3  5  1  0  0  0  0
  3 14  1  0  0  0  0
  3 16  1  0  0  0  0
  4 15  1  0  0  0  0
  4 17  1  0  0  0  0
  4 49  1  0  0  0  0
  5  6  2  0  0  0  0
  6 18  1  0  0  0  0
  7  9  1  0  0  0  0
  7 10  1  0  0  0  0
  7 11  1  0  0  0  0
  7 36  1  0  0  0  0
  8 10  1  0  0  0  0
  8 14  1  0  0  0  0
  8 37  1  0  0  0  0
  9 12  1  0  0  0  0
  9 15  1  0  0  0  0
  9 38  1  0  0  0  0
 10 39  1  0  0  0  0
 10 40  1  0  0  0  0
 11 13  1  0  0  0  0
 11 41  1  0  0  0  0
 11 42  1  0  0  0  0
 12 43  1  0  0  0  0
 12 44  1  0  0  0  0
 13 45  1  0  0  0  0
 13 46  1  0  0  0  0
 14 47  1  0  0  0  0
 14 48  1  0  0  0  0
 16 18  2  0  0  0  0
 16 50  1  0  0  0  0
 17 19  2  0  0  0  0
 17 20  1  0  0  0  0
 18 21  1  0  0  0  0
 19 22  1  0  0  0  0
 19 51  1  0  0  0  0
 20 23  2  0  0  0  0
 20 52  1  0  0  0  0
 21 24  2  0  0  0  0
 21 25  1  0  0  0  0
 22 26  2  0  0  0  0
 22 53  1  0  0  0  0
 23 26  1  0  0  0  0
 23 54  1  0  0  0  0
 24 27  1  0  0  0  0
 24 55  1  0  0  0  0
 25 28  2  0  0  0  0
 25 56  1  0  0  0  0
 26 57  1  0  0  0  0
 27 29  2  0  0  0  0
 27 58  1  0  0  0  0
 28 29  1  0  0  0  0
 28 59  1  0  0  0  0
 29 30  1  0  0  0  0
 30 31  2  0  0  0  0
 30 32  1  0  0  0  0
 31 33  1  0  0  0  0
 31 60  1  0  0  0  0
 32 34  2  0  0  0  0
 32 61  1  0  0  0  0
 33 35  2  0  0  0  0
 33 62  1  0  0  0  0
 34 35  1  0  0  0  0
 34 63  1  0  0  0  0
 35 64  1  0  0  0  0
M  END
> <PUBCHEM_COMPOUND_CID>
44716291

> <PUBCHEM_CONFORMER_RMSD>
1

> <PUBCHEM_CONFORMER_DIVERSEORDER>
1
63
72
39
3
56
47
26
65
23
51
55
61
52
40
35
11
43
42
44
66
28
59
34
76
75
53
27
68
19
69
30
64
12
37
36
15
67
73
17
57
25
29
70
16
71
60
48
74
5
21
10
32
58
33
8
9
22
38
2
4
50
45
49
46
14
24
18
13
41
7
54
62
6
31
20

> <PUBCHEM_MMFF94_PARTIAL_CHARGES>
46
1 -0.57
12 0.27
13 0.27
14 0.26
15 0.57
16 -0.3
17 0.12
18 0.17
19 -0.15
2 -0.81
20 -0.15
21 0.05
22 -0.15
23 -0.15
24 -0.15
25 -0.15
26 -0.15
27 -0.15
28 -0.15
3 0.31
31 -0.15
32 -0.15
33 -0.15
34 -0.15
35 -0.15
4 -0.55
49 0.37
5 -0.42
50 0.15
51 0.15
52 0.15
53 0.15
54 0.15
55 0.15
56 0.15
57 0.15
58 0.15
59 0.15
6 -0.23
60 0.15
61 0.15
62 0.15
63 0.15
64 0.15
8 0.27
9 0.06

> <PUBCHEM_EFFECTIVE_ROTOR_COUNT>
8.2

> <PUBCHEM_PHARMACOPHORE_FEATURES>
8
1 1 acceptor
1 2 cation
1 4 donor
5 3 5 6 16 18 rings
6 17 19 20 22 23 26 rings
6 21 24 25 27 28 29 rings
6 30 31 32 33 34 35 rings
8 2 7 8 9 10 11 12 13 rings

> <PUBCHEM_HEAVY_ATOM_COUNT>
35

> <PUBCHEM_ATOM_DEF_STEREO_COUNT>
2

> <PUBCHEM_ATOM_UDEF_STEREO_COUNT>
1

> <PUBCHEM_BOND_DEF_STEREO_COUNT>
0

> <PUBCHEM_BOND_UDEF_STEREO_COUNT>
0

> <PUBCHEM_ISOTOPIC_ATOM_COUNT>
0

> <PUBCHEM_COMPONENT_COUNT>
1

> <PUBCHEM_CACTVS_TAUTO_COUNT>
2

> <PUBCHEM_CONFORMER_ID>
02AA510300000001

> <PUBCHEM_MMFF94_ENERGY>
105.0543

> <PUBCHEM_FEATURE_SELFOVERLAP>
40.599

> <PUBCHEM_SHAPE_FINGERPRINT>
10 15 17967814925392268243
10055352 69 18410006663586220937
10190206 1 15913058573130054835
106641 1 16443068296101409115
10930396 42 16153426160658889405
10952577 141 17917994954427140717
11135609 201 18334010575610394299
11181472 205 18201726124892793394
11273773 46 10807926082012340757
11411753 29 16987425615936440755
11607047 141 18261106315756518354
11607047 74 10015278254129238434
12013929 112 16558753407865604220
12089408 11 18410287021497212786
12098696 120 18335988596801702156
12838863 1 8430313537331385521
13008946 119 18041274457254529410
13740195 50 18040437702903579889
14040221 8 16487263149301273824
14117953 113 13830135005719108752
14617042 71 18409168809397213672
14664723 55 17989213650509071752
15183329 4 14261351336849962307
15198563 99 15267073527369859730
15247644 1 8286198353266478993
15320295 40 9871747996720093931
15347590 135 15574709179634179889
15350500 16 7925910374665187039
15399244 38 10953461829947115801
155225 1 18411982455362837585
15690457 1 8862943875212627448
15706992 2 18113907065592441730
1577012 14 18334284388835154818
15890870 6 18341894078518842067
16992610 120 17275105025156037309
1768 4 18408885131724402037
19302320 297 17967253122438143876
19315958 150 18341898459106468206
20105231 36 11891599202341766800
20156587 128 15769507430329423916
2026 5 9078847281104548072
20505436 4 18411411804618204127
20721686 146 18200878354236190829
20771845 65 8141790695609324567
21095123 293 18411699872195166640
21102433 48 12324246083588486865
212700 22 11602824588444135721
21792961 116 11815892371870239949
21792965 96 16988564667476171583
21895431 317 10737275853630351872
23524908 199 17774730780098723126
23528940 14 7853583392369703024
23576562 1 15840683306795488337
24771293 8 18334857213070994287
25269216 80 17703216434134651279
2851757 41 9223229675901327560
3711267 37 18411992351163212185
3986486 107 15195568983538520603
3991529 128 18335147496160828953
4339292 15 9727639393161366474
44280117 145 18126565849747340614
4516262 110 18338792326073500559
4760202 170 16702014332106456600
54039377 194 9079115553324611665
5758199 1 17676200295848464482
59682541 35 17022904553328396593
6081469 158 11959728270068580322
6673363 416 17703789224596541105
9663363 56 13470685933269012838
9937071 3 9151172060699552660
9953998 17 17022624187075935723
9962374 69 12540990615241405250

> <PUBCHEM_SHAPE_MULTIPOLES>
689.51
41.03
2.37
1.53
10.77
0.12
0.06
-38.46
-4.09
-0.02
0.09
-1.63
0.33
-1.36

> <PUBCHEM_SHAPE_SELFOVERLAP>
1523.781

> <PUBCHEM_SHAPE_VOLUME>
365.2

> <PUBCHEM_COORDINATE_TYPE>
2
5
10

$$$$
