26762283
  -OEChem-12032416173D

 64 66  0     1  0  0  0  0  0999 V2000
    0.9649    1.9350    3.7205 O   0  0  0  0  0  0  0  0  0  0  0  0
    4.4430   -1.9016    0.2625 O   0  0  0  0  0  0  0  0  0  0  0  0
   -4.3013    2.3952   -0.5775 O   0  0  0  0  0  0  0  0  0  0  0  0
   -2.7839   -3.9418    1.6482 O   0  0  0  0  0  0  0  0  0  0  0  0
    0.5006    1.4297    0.2512 N   0  0  2  0  0  0  0  0  0  0  0  0
   -0.4305    3.0304    2.2632 N   0  0  0  0  0  0  0  0  0  0  0  0
    3.2994    0.0338   -0.3194 N   0  0  0  0  0  0  0  0  0  0  0  0
    5.5428   -0.1538   -0.7957 N   0  0  0  0  0  0  0  0  0  0  0  0
   -3.3664    1.0436   -2.2170 N   0  0  0  0  0  0  0  0  0  0  0  0
    0.5126    0.8794    1.6095 C   0  0  1  0  0  0  0  0  0  0  0  0
   -0.7930    2.0565   -0.0259 C   0  0  1  0  0  0  0  0  0  0  0  0
    2.0053   -0.3595    0.1805 C   0  0  1  0  0  0  0  0  0  0  0  0
    1.8128    0.0904    1.6336 C   0  0  0  0  0  0  0  0  0  0  0  0
    0.8666    0.3005   -0.6032 C   0  0  0  0  0  0  0  0  0  0  0  0
   -0.9079    3.2687    0.9092 C   0  0  0  0  0  0  0  0  0  0  0  0
    0.4162    1.9981    2.6211 C   0  0  0  0  0  0  0  0  0  0  0  0
   -0.9386    2.5149   -1.4786 C   0  0  0  0  0  0  0  0  0  0  0  0
   -2.3034    3.1430   -1.7224 C   0  0  0  0  0  0  0  0  0  0  0  0
    4.4297   -0.7776   -0.2378 C   0  0  0  0  0  0  0  0  0  0  0  0
   -3.4373    2.1791   -1.4232 C   0  0  0  0  0  0  0  0  0  0  0  0
    6.8458   -0.7742   -0.8430 C   0  0  0  0  0  0  0  0  0  0  0  0
   -4.3320   -0.0254   -2.1213 C   0  0  0  0  0  0  0  0  0  0  0  0
    7.9389    0.2820   -0.7463 C   0  0  0  0  0  0  0  0  0  0  0  0
    6.9949   -1.6089   -2.1089 C   0  0  0  0  0  0  0  0  0  0  0  0
   -3.9208   -1.0661   -1.1204 C   0  0  0  0  0  0  0  0  0  0  0  0
   -2.9127   -1.9775   -1.4352 C   0  0  0  0  0  0  0  0  0  0  0  0
   -4.5468   -1.1213    0.1249 C   0  0  0  0  0  0  0  0  0  0  0  0
   -2.5309   -2.9440   -0.5050 C   0  0  0  0  0  0  0  0  0  0  0  0
   -4.1650   -2.0879    1.0552 C   0  0  0  0  0  0  0  0  0  0  0  0
   -3.1571   -2.9992    0.7403 C   0  0  0  0  0  0  0  0  0  0  0  0
   -1.7461   -4.8413    1.2609 C   0  0  0  0  0  0  0  0  0  0  0  0
   -0.3335    0.1974    1.7776 H   0  0  0  0  0  0  0  0  0  0  0  0
   -1.5890    1.3394    0.2151 H   0  0  0  0  0  0  0  0  0  0  0  0
    1.9235   -1.4506    0.1090 H   0  0  0  0  0  0  0  0  0  0  0  0
    2.6544    0.6993    1.9873 H   0  0  0  0  0  0  0  0  0  0  0  0
    1.7307   -0.7736    2.3028 H   0  0  0  0  0  0  0  0  0  0  0  0
    1.1804    0.6162   -1.6033 H   0  0  0  0  0  0  0  0  0  0  0  0
    0.0294   -0.4025   -0.7013 H   0  0  0  0  0  0  0  0  0  0  0  0
   -0.3216    4.1158    0.5333 H   0  0  0  0  0  0  0  0  0  0  0  0
   -1.9473    3.5967    1.0097 H   0  0  0  0  0  0  0  0  0  0  0  0
   -0.1606    3.2485   -1.7266 H   0  0  0  0  0  0  0  0  0  0  0  0
   -0.7910    1.6740   -2.1643 H   0  0  0  0  0  0  0  0  0  0  0  0
   -0.5824    3.7671    2.9454 H   0  0  0  0  0  0  0  0  0  0  0  0
    3.4108    0.9757   -0.6827 H   0  0  0  0  0  0  0  0  0  0  0  0
   -2.3839    3.4377   -2.7762 H   0  0  0  0  0  0  0  0  0  0  0  0
   -2.4485    4.0569   -1.1379 H   0  0  0  0  0  0  0  0  0  0  0  0
    5.4141    0.7434   -1.2538 H   0  0  0  0  0  0  0  0  0  0  0  0
   -2.6358    0.9559   -2.9163 H   0  0  0  0  0  0  0  0  0  0  0  0
    6.9362   -1.4434    0.0212 H   0  0  0  0  0  0  0  0  0  0  0  0
   -4.4244   -0.4790   -3.1148 H   0  0  0  0  0  0  0  0  0  0  0  0
   -5.3135    0.3935   -1.8703 H   0  0  0  0  0  0  0  0  0  0  0  0
    8.9315   -0.1802   -0.7452 H   0  0  0  0  0  0  0  0  0  0  0  0
    7.8353    0.8644    0.1759 H   0  0  0  0  0  0  0  0  0  0  0  0
    7.8903    0.9840   -1.5863 H   0  0  0  0  0  0  0  0  0  0  0  0
    7.9738   -2.0985   -2.1421 H   0  0  0  0  0  0  0  0  0  0  0  0
    6.2263   -2.3880   -2.1576 H   0  0  0  0  0  0  0  0  0  0  0  0
    6.8920   -0.9894   -3.0068 H   0  0  0  0  0  0  0  0  0  0  0  0
   -2.4173   -1.9420   -2.4020 H   0  0  0  0  0  0  0  0  0  0  0  0
   -5.3321   -0.4165    0.3843 H   0  0  0  0  0  0  0  0  0  0  0  0
   -1.7406   -3.6194   -0.8144 H   0  0  0  0  0  0  0  0  0  0  0  0
   -4.6558   -2.1255    2.0239 H   0  0  0  0  0  0  0  0  0  0  0  0
   -1.5775   -5.5218    2.1020 H   0  0  0  0  0  0  0  0  0  0  0  0
   -0.8027   -4.3140    1.0823 H   0  0  0  0  0  0  0  0  0  0  0  0
   -2.0457   -5.4574    0.4063 H   0  0  0  0  0  0  0  0  0  0  0  0
  1 16  2  0  0  0  0
  2 19  2  0  0  0  0
  3 20  2  0  0  0  0
  4 30  1  0  0  0  0
  4 31  1  0  0  0  0
  5 10  1  0  0  0  0
  5 11  1  0  0  0  0
  5 14  1  0  0  0  0
  6 15  1  0  0  0  0
  6 16  1  0  0  0  0
  6 43  1  0  0  0  0
  7 12  1  0  0  0  0
  7 19  1  0  0  0  0
  7 44  1  0  0  0  0
  8 19  1  0  0  0  0
  8 21  1  0  0  0  0
  8 47  1  0  0  0  0
  9 20  1  0  0  0  0
  9 22  1  0  0  0  0
  9 48  1  0  0  0  0
 10 13  1  0  0  0  0
 10 16  1  0  0  0  0
 10 32  1  0  0  0  0
 11 15  1  0  0  0  0
 11 17  1  0  0  0  0
 11 33  1  0  0  0  0
 12 13  1  0  0  0  0
 12 14  1  0  0  0  0
 12 34  1  0  0  0  0
 13 35  1  0  0  0  0
 13 36  1  0  0  0  0
 14 37  1  0  0  0  0
 14 38  1  0  0  0  0
 15 39  1  0  0  0  0
 15 40  1  0  0  0  0
 17 18  1  0  0  0  0
 17 41  1  0  0  0  0
 17 42  1  0  0  0  0
 18 20  1  0  0  0  0
 18 45  1  0  0  0  0
 18 46  1  0  0  0  0
 21 23  1  0  0  0  0
 21 24  1  0  0  0  0
 21 49  1  0  0  0  0
 22 25  1  0  0  0  0
 22 50  1  0  0  0  0
 22 51  1  0  0  0  0
 23 52  1  0  0  0  0
 23 53  1  0  0  0  0
 23 54  1  0  0  0  0
 24 55  1  0  0  0  0
 24 56  1  0  0  0  0
 24 57  1  0  0  0  0
 25 26  2  0  0  0  0
 25 27  1  0  0  0  0
 26 28  1  0  0  0  0
 26 58  1  0  0  0  0
 27 29  2  0  0  0  0
 27 59  1  0  0  0  0
 28 30  2  0  0  0  0
 28 60  1  0  0  0  0
 29 30  1  0  0  0  0
 29 61  1  0  0  0  0
 31 62  1  0  0  0  0
 31 63  1  0  0  0  0
 31 64  1  0  0  0  0
M  END
> <PUBCHEM_COMPOUND_CID>
26762283

> <PUBCHEM_CONFORMER_RMSD>
1.2

> <PUBCHEM_CONFORMER_DIVERSEORDER>
1
38
79
151
93
105
138
161
57
133
53
72
3
89
119
21
55
163
146
139
102
164
11
61
36
92
82
152
144
103
101
50
166
13
153
54
18
5
96
140
128
167
76
109
68
58
157
108
44
156
46
98
59
28
155
162
121
83
42
33
129
60
62
97
7
100
75
47
165
65
150
81
20
114
104
29
39
110
56
73
132
141
99
149
115
51
24
30
27
87
78
124
12
90
35
31
88
107
122
111
15
80
70
49
112
148
45
160
10
8
95
154
66
25
127
118
48
43
123
63
147
143
6
159
117
4
84
120
130
32
134
22
91
158
37
19
126
113
85
77
142
16
69
125
136
135
137
41
34
23
106
71
26
131
74
40
67
86
17
145
94
14
116
52
64
9
2

> <PUBCHEM_MMFF94_PARTIAL_CHARGES>
35
1 -0.57
10 0.33
11 0.27
12 0.3
14 0.27
15 0.3
16 0.57
18 0.06
19 0.69
2 -0.57
20 0.57
21 0.3
22 0.44
25 -0.14
26 -0.15
27 -0.15
28 -0.15
29 -0.15
3 -0.57
30 0.08
31 0.28
4 -0.36
43 0.37
44 0.37
47 0.37
48 0.37
5 -0.81
58 0.15
59 0.15
6 -0.73
60 0.15
61 0.15
7 -0.73
8 -0.73
9 -0.73

> <PUBCHEM_EFFECTIVE_ROTOR_COUNT>
12.2

> <PUBCHEM_PHARMACOPHORE_FEATURES>
13
1 1 acceptor
1 2 acceptor
1 3 acceptor
1 4 acceptor
1 5 cation
1 6 donor
1 7 donor
1 8 donor
1 9 donor
3 21 23 24 hydrophobe
5 5 10 12 13 14 rings
6 25 26 27 28 29 30 rings
6 5 6 10 11 15 16 rings

> <PUBCHEM_HEAVY_ATOM_COUNT>
31

> <PUBCHEM_ATOM_DEF_STEREO_COUNT>
3

> <PUBCHEM_ATOM_UDEF_STEREO_COUNT>
0

> <PUBCHEM_BOND_DEF_STEREO_COUNT>
0

> <PUBCHEM_BOND_UDEF_STEREO_COUNT>
0

> <PUBCHEM_ISOTOPIC_ATOM_COUNT>
0

> <PUBCHEM_COMPONENT_COUNT>
1

> <PUBCHEM_CACTVS_TAUTO_COUNT>
18

> <PUBCHEM_CONFORMER_ID>
01985C2B00000001

> <PUBCHEM_MMFF94_ENERGY>
68.3359

> <PUBCHEM_FEATURE_SELFOVERLAP>
66.114

> <PUBCHEM_SHAPE_FINGERPRINT>
10462674 369 18193568984948832558
10577160 103 18188772889964909308
10764073 3 11741077154545092052
11049842 53 16892263622590646033
12422481 6 14404921175790697636
12717326 150 15838199299475355782
12788726 201 18271523096637570810
14114207 22 16055217678818229167
14114211 68 17973141960829665733
14251740 79 18197494017635772775
14251757 5 18260829319101173423
17909252 39 17828777474897042740
19958102 18 18189894223857189262
20771845 35 17766273563569177087
25019877 29 13985530001880129945
3504750 166 8790303514369690940
4371632 12 10990297144076195042
437815 12 18272370905996208983
44426699 300 17900568931587733242
484985 159 17203324486309787071
50150288 127 17057255336726989178
5265222 85 18262796246898663581
57307002 85 18131077000248425446
59755656 520 18125454007563297784
6287921 2 17253999066111166723
70634741 139 18408611379246349222
77296 10 18261117400481261316

> <PUBCHEM_SHAPE_MULTIPOLES>
589.58
13.87
5
2.61
33.92
2.64
-1.5
8.06
9.37
-6.81
-1.84
-0.44
-1.51
3.14

> <PUBCHEM_SHAPE_SELFOVERLAP>
1221.617

> <PUBCHEM_SHAPE_VOLUME>
336

> <PUBCHEM_COORDINATE_TYPE>
2
5
10

$$$$
