45783692
  -OEChem-12032416263D

 45 48  0     1  0  0  0  0  0999 V2000
   -2.1106    1.1027   -2.3380 F   0  0  0  0  0  0  0  0  0  0  0  0
   -0.8836   -0.5888    2.0986 O   0  0  0  0  0  0  0  0  0  0  0  0
    6.0307   -0.2092   -0.9953 O   0  0  0  0  0  0  0  0  0  0  0  0
   -3.2579   -0.8270   -0.4810 N   0  0  1  0  0  0  0  0  0  0  0  0
   -0.1845   -1.1950    0.0589 N   0  0  0  0  0  0  0  0  0  0  0  0
    0.4865   -0.3009    2.0550 N   0  0  0  0  0  0  0  0  0  0  0  0
    4.4642    0.0745    0.6929 N   0  0  0  0  0  0  0  0  0  0  0  0
   -2.6427   -1.5106    0.6743 C   0  0  1  0  0  0  0  0  0  0  0  0
   -2.8078   -3.0118    0.3738 C   0  0  0  0  0  0  0  0  0  0  0  0
   -3.5789   -3.0726   -0.9371 C   0  0  0  0  0  0  0  0  0  0  0  0
   -4.2836   -1.7325   -0.9990 C   0  0  0  0  0  0  0  0  0  0  0  0
   -3.8006    0.4844   -0.1502 C   0  0  0  0  0  0  0  0  0  0  0  0
   -1.1970   -1.1120    0.8844 C   0  0  0  0  0  0  0  0  0  0  0  0
   -2.7253    1.5363   -0.0865 C   0  0  0  0  0  0  0  0  0  0  0  0
   -1.9277    1.7903   -1.2022 C   0  0  0  0  0  0  0  0  0  0  0  0
   -2.5276    2.2576    1.0909 C   0  0  0  0  0  0  0  0  0  0  0  0
    0.8263   -0.6858    0.8211 C   0  0  0  0  0  0  0  0  0  0  0  0
   -0.9324    2.7656   -1.1406 C   0  0  0  0  0  0  0  0  0  0  0  0
   -1.5322    3.2328    1.1526 C   0  0  0  0  0  0  0  0  0  0  0  0
    2.1660   -0.5766    0.3203 C   0  0  0  0  0  0  0  0  0  0  0  0
   -0.7346    3.4869    0.0369 C   0  0  0  0  0  0  0  0  0  0  0  0
    2.4840   -0.9888   -0.9692 C   0  0  0  0  0  0  0  0  0  0  0  0
    3.1831   -0.0565    1.1043 C   0  0  0  0  0  0  0  0  0  0  0  0
    3.7911   -0.8700   -1.4284 C   0  0  0  0  0  0  0  0  0  0  0  0
    4.7356   -0.3367   -0.5661 C   0  0  0  0  0  0  0  0  0  0  0  0
    6.9597    0.3439   -0.0706 C   0  0  0  0  0  0  0  0  0  0  0  0
   -3.2037   -1.2989    1.5956 H   0  0  0  0  0  0  0  0  0  0  0  0
   -1.8613   -3.5572    0.2943 H   0  0  0  0  0  0  0  0  0  0  0  0
   -3.3998   -3.4830    1.1680 H   0  0  0  0  0  0  0  0  0  0  0  0
   -4.2758   -3.9153   -0.9687 H   0  0  0  0  0  0  0  0  0  0  0  0
   -2.8797   -3.1763   -1.7762 H   0  0  0  0  0  0  0  0  0  0  0  0
   -4.5781   -1.4799   -2.0222 H   0  0  0  0  0  0  0  0  0  0  0  0
   -5.1772   -1.7427   -0.3619 H   0  0  0  0  0  0  0  0  0  0  0  0
   -4.4963    0.8093   -0.9368 H   0  0  0  0  0  0  0  0  0  0  0  0
   -4.3939    0.4575    0.7732 H   0  0  0  0  0  0  0  0  0  0  0  0
   -3.1398    2.0690    1.9687 H   0  0  0  0  0  0  0  0  0  0  0  0
   -0.3109    2.9623   -2.0091 H   0  0  0  0  0  0  0  0  0  0  0  0
   -1.3772    3.7934    2.0698 H   0  0  0  0  0  0  0  0  0  0  0  0
    0.0412    4.2454    0.0851 H   0  0  0  0  0  0  0  0  0  0  0  0
    1.7347   -1.4051   -1.6374 H   0  0  0  0  0  0  0  0  0  0  0  0
    3.0181    0.2881    2.1208 H   0  0  0  0  0  0  0  0  0  0  0  0
    4.0557   -1.1866   -2.4314 H   0  0  0  0  0  0  0  0  0  0  0  0
    6.6812    1.3676    0.2013 H   0  0  0  0  0  0  0  0  0  0  0  0
    7.0493   -0.2861    0.8208 H   0  0  0  0  0  0  0  0  0  0  0  0
    7.9387    0.3793   -0.5577 H   0  0  0  0  0  0  0  0  0  0  0  0
  1 15  1  0  0  0  0
  2  6  1  0  0  0  0
  2 13  1  0  0  0  0
  3 25  1  0  0  0  0
  3 26  1  0  0  0  0
  4  8  1  0  0  0  0
  4 11  1  0  0  0  0
  4 12  1  0  0  0  0
  5 13  2  0  0  0  0
  5 17  1  0  0  0  0
  6 17  2  0  0  0  0
  7 23  1  0  0  0  0
  7 25  2  0  0  0  0
  8  9  1  0  0  0  0
  8 13  1  0  0  0  0
  8 27  1  0  0  0  0
  9 10  1  0  0  0  0
  9 28  1  0  0  0  0
  9 29  1  0  0  0  0
 10 11  1  0  0  0  0
 10 30  1  0  0  0  0
 10 31  1  0  0  0  0
 11 32  1  0  0  0  0
 11 33  1  0  0  0  0
 12 14  1  0  0  0  0
 12 34  1  0  0  0  0
 12 35  1  0  0  0  0
 14 15  1  0  0  0  0
 14 16  2  0  0  0  0
 15 18  2  0  0  0  0
 16 19  1  0  0  0  0
 16 36  1  0  0  0  0
 17 20  1  0  0  0  0
 18 21  1  0  0  0  0
 18 37  1  0  0  0  0
 19 21  2  0  0  0  0
 19 38  1  0  0  0  0
 20 22  1  0  0  0  0
 20 23  2  0  0  0  0
 21 39  1  0  0  0  0
 22 24  2  0  0  0  0
 22 40  1  0  0  0  0
 23 41  1  0  0  0  0
 24 25  1  0  0  0  0
 24 42  1  0  0  0  0
 26 43  1  0  0  0  0
 26 44  1  0  0  0  0
 26 45  1  0  0  0  0
M  END
> <PUBCHEM_COMPOUND_CID>
45783692

> <PUBCHEM_CONFORMER_RMSD>
0.8

> <PUBCHEM_CONFORMER_DIVERSEORDER>
1
21
106
27
105
109
45
136
102
90
36
121
30
78
137
4
101
18
98
69
92
134
17
38
86
39
35
107
100
57
61
50
23
127
84
3
12
64
112
59
87
58
104
129
119
16
37
122
56
115
128
135
15
95
24
34
130
125
53
103
75
60
126
8
120
88
133
110
124
63
31
96
10
116
2
51
73
81
49
20
114
89
67
138
108
85
111
66
74
44
47
29
93
9
68
91
72
62
52
76
94
80
55
14
131
32
118
6
82
97
19
46
33
43
79
123
7
5
71
41
40
13
48
83
25
11
113
65
70
22
28
132
54
42
26
117
77
99

> <PUBCHEM_MMFF94_PARTIAL_CHARGES>
31
1 -0.19
11 0.27
12 0.41
13 0.3
14 -0.14
15 0.19
16 -0.15
17 0.46
18 -0.15
19 -0.15
2 -0.02
20 0.05
21 -0.15
22 -0.15
23 0.16
24 -0.15
25 0.39
26 0.28
3 -0.36
36 0.15
37 0.15
38 0.15
39 0.15
4 -0.81
40 0.15
41 0.15
42 0.15
5 -0.57
6 -0.41
7 -0.62
8 0.45

> <PUBCHEM_EFFECTIVE_ROTOR_COUNT>
6

> <PUBCHEM_PHARMACOPHORE_FEATURES>
6
1 4 cation
3 5 6 17 cation
5 2 5 6 13 17 rings
5 4 8 9 10 11 rings
6 14 15 16 18 19 21 rings
6 7 20 22 23 24 25 rings

> <PUBCHEM_HEAVY_ATOM_COUNT>
26

> <PUBCHEM_ATOM_DEF_STEREO_COUNT>
1

> <PUBCHEM_ATOM_UDEF_STEREO_COUNT>
0

> <PUBCHEM_BOND_DEF_STEREO_COUNT>
0

> <PUBCHEM_BOND_UDEF_STEREO_COUNT>
0

> <PUBCHEM_ISOTOPIC_ATOM_COUNT>
0

> <PUBCHEM_COMPONENT_COUNT>
1

> <PUBCHEM_CACTVS_TAUTO_COUNT>
1

> <PUBCHEM_CONFORMER_ID>
02BA9A8C00000001

> <PUBCHEM_MMFF94_ENERGY>
55.6836

> <PUBCHEM_FEATURE_SELFOVERLAP>
30.449

> <PUBCHEM_SHAPE_FINGERPRINT>
10291535 26 18412831253002109432
10498660 4 18263072245554369861
107951 10 17628925534559731317
10871710 139 17894908473917953253
10937287 8 17691124829480162232
11101153 10 18265343991956170972
11477941 20 18339078293839327812
11488393 25 17039236978395180331
121448 382 17968378957403200168
12166972 35 16878510166756482646
12173636 292 18052816940875043089
12788726 201 18334568032237450979
13761468 95 17608381134040550404
13994607 96 17168726157865425321
14142880 1 17969792869480679053
14713325 29 18342463599324262022
14910302 57 18201719501188442894
14955137 171 18339096972947061691
15183329 4 17894917275044654478
15463212 79 18261675848538725146
15849732 13 18271257071237920715
15961568 22 18192986244028775480
17349148 13 17458341940491267290
17357779 13 18270947055480756695
17492 54 17969482863399659733
17818456 19 17974831888331328994
20642791 239 17968082145573172093
20775438 99 16899029454908619599
20905425 154 17831292075712428093
21033650 10 18117581564880815630
21623110 236 18188504582661751980
22393880 68 18199761249984832382
23402539 116 18333732446481889070
23557571 272 18413671322408018030
3268164 11 18335137596319039142
469060 322 17169012044011225073
497634 4 17703803530398789778
531348 171 18268437841414320206
57527585 103 17171250816946307537
7399639 24 17988065812209701578

> <PUBCHEM_SHAPE_MULTIPOLES>
496.13
10.67
3.57
1.63
21.14
1.91
0.03
-3.48
-2.87
-5.42
-0.21
-0.24
0.17
-0.03

> <PUBCHEM_SHAPE_SELFOVERLAP>
1081.039

> <PUBCHEM_SHAPE_VOLUME>
272.9

> <PUBCHEM_COORDINATE_TYPE>
2
5
10

$$$$
