51136967
  -OEChem-12032416223D

 47 51  0     1  0  0  0  0  0999 V2000
   -2.3826    0.4560   -2.0000 O   0  0  0  0  0  0  0  0  0  0  0  0
   -4.4407    0.5163    0.8477 N   0  0  1  0  0  0  0  0  0  0  0  0
   -1.4605    0.9877   -0.0292 N   0  0  0  0  0  0  0  0  0  0  0  0
   -2.9863   -2.1089    1.2446 N   0  0  0  0  0  0  0  0  0  0  0  0
   -3.7154   -2.5125   -0.8138 N   0  0  0  0  0  0  0  0  0  0  0  0
   -1.0113    0.2020   -2.1303 N   0  0  0  0  0  0  0  0  0  0  0  0
    3.1061   -0.1296   -1.2625 N   0  0  0  0  0  0  0  0  0  0  0  0
    7.6793   -0.1619    0.6666 N   0  0  0  0  0  0  0  0  0  0  0  0
   -3.9801    1.2669   -0.3374 C   0  0  1  0  0  0  0  0  0  0  0  0
   -4.1393    2.7483    0.0516 C   0  0  0  0  0  0  0  0  0  0  0  0
   -4.7516    2.7300    1.4449 C   0  0  0  0  0  0  0  0  0  0  0  0
   -5.4166    1.3707    1.5246 C   0  0  0  0  0  0  0  0  0  0  0  0
   -4.9917   -0.7925    0.5204 C   0  0  0  0  0  0  0  0  0  0  0  0
   -2.5614    0.9157   -0.7338 C   0  0  0  0  0  0  0  0  0  0  0  0
   -3.9101   -1.8123    0.2814 C   0  0  0  0  0  0  0  0  0  0  0  0
   -0.5365    0.5398   -0.9277 C   0  0  0  0  0  0  0  0  0  0  0  0
   -2.1493   -3.0590    0.7307 C   0  0  0  0  0  0  0  0  0  0  0  0
    0.8548    0.4429   -0.5925 C   0  0  0  0  0  0  0  0  0  0  0  0
   -2.6192   -3.2917   -0.5404 C   0  0  0  0  0  0  0  0  0  0  0  0
    1.3145    0.8046    0.6691 C   0  0  0  0  0  0  0  0  0  0  0  0
    1.7828   -0.0141   -1.5143 C   0  0  0  0  0  0  0  0  0  0  0  0
    2.6689    0.6998    0.9658 C   0  0  0  0  0  0  0  0  0  0  0  0
    3.5157    0.2314   -0.0257 C   0  0  0  0  0  0  0  0  0  0  0  0
    4.9335    0.0971    0.2106 C   0  0  0  0  0  0  0  0  0  0  0  0
    5.3977   -0.7392    1.2199 C   0  0  0  0  0  0  0  0  0  0  0  0
    5.8407    0.8040   -0.5710 C   0  0  0  0  0  0  0  0  0  0  0  0
    6.7675   -0.8330    1.4057 C   0  0  0  0  0  0  0  0  0  0  0  0
    7.1908    0.6413   -0.3051 C   0  0  0  0  0  0  0  0  0  0  0  0
   -4.6413    1.0825   -1.1961 H   0  0  0  0  0  0  0  0  0  0  0  0
   -4.8303    3.2394   -0.6447 H   0  0  0  0  0  0  0  0  0  0  0  0
   -3.2013    3.3139    0.0459 H   0  0  0  0  0  0  0  0  0  0  0  0
   -5.4570    3.5521    1.5978 H   0  0  0  0  0  0  0  0  0  0  0  0
   -3.9606    2.8140    2.2006 H   0  0  0  0  0  0  0  0  0  0  0  0
   -5.5833    1.0650    2.5621 H   0  0  0  0  0  0  0  0  0  0  0  0
   -6.3789    1.3864    0.9973 H   0  0  0  0  0  0  0  0  0  0  0  0
   -5.5861   -1.1670    1.3652 H   0  0  0  0  0  0  0  0  0  0  0  0
   -5.6718   -0.7527   -0.3396 H   0  0  0  0  0  0  0  0  0  0  0  0
   -2.9298   -1.6992    2.1676 H   0  0  0  0  0  0  0  0  0  0  0  0
   -1.3243   -3.4659    1.2971 H   0  0  0  0  0  0  0  0  0  0  0  0
   -2.2232   -3.9797   -1.2730 H   0  0  0  0  0  0  0  0  0  0  0  0
    0.6409    1.1716    1.4392 H   0  0  0  0  0  0  0  0  0  0  0  0
    1.5061   -0.3164   -2.5199 H   0  0  0  0  0  0  0  0  0  0  0  0
    3.0317    0.9861    1.9479 H   0  0  0  0  0  0  0  0  0  0  0  0
    4.7250   -1.3129    1.8495 H   0  0  0  0  0  0  0  0  0  0  0  0
    5.5199    1.4694   -1.3661 H   0  0  0  0  0  0  0  0  0  0  0  0
    7.1807   -1.4725    2.1787 H   0  0  0  0  0  0  0  0  0  0  0  0
    7.9391    1.1709   -0.8856 H   0  0  0  0  0  0  0  0  0  0  0  0
  1  6  1  0  0  0  0
  1 14  1  0  0  0  0
  2  9  1  0  0  0  0
  2 12  1  0  0  0  0
  2 13  1  0  0  0  0
  3 14  2  0  0  0  0
  3 16  1  0  0  0  0
  4 15  1  0  0  0  0
  4 17  1  0  0  0  0
  4 38  1  0  0  0  0
  5 15  2  0  0  0  0
  5 19  1  0  0  0  0
  6 16  2  0  0  0  0
  7 21  1  0  0  0  0
  7 23  2  0  0  0  0
  8 27  2  0  0  0  0
  8 28  1  0  0  0  0
  9 10  1  0  0  0  0
  9 14  1  0  0  0  0
  9 29  1  0  0  0  0
 10 11  1  0  0  0  0
 10 30  1  0  0  0  0
 10 31  1  0  0  0  0
 11 12  1  0  0  0  0
 11 32  1  0  0  0  0
 11 33  1  0  0  0  0
 12 34  1  0  0  0  0
 12 35  1  0  0  0  0
 13 15  1  0  0  0  0
 13 36  1  0  0  0  0
 13 37  1  0  0  0  0
 16 18  1  0  0  0  0
 17 19  2  0  0  0  0
 17 39  1  0  0  0  0
 18 20  1  0  0  0  0
 18 21  2  0  0  0  0
 19 40  1  0  0  0  0
 20 22  2  0  0  0  0
 20 41  1  0  0  0  0
 21 42  1  0  0  0  0
 22 23  1  0  0  0  0
 22 43  1  0  0  0  0
 23 24  1  0  0  0  0
 24 25  2  0  0  0  0
 24 26  1  0  0  0  0
 25 27  1  0  0  0  0
 25 44  1  0  0  0  0
 26 28  2  0  0  0  0
 26 45  1  0  0  0  0
 27 46  1  0  0  0  0
 28 47  1  0  0  0  0
M  END
> <PUBCHEM_COMPOUND_CID>
51136967

> <PUBCHEM_CONFORMER_RMSD>
0.8

> <PUBCHEM_CONFORMER_DIVERSEORDER>
1
7
39
54
6
53
31
52
51
50
41
13
8
48
33
60
44
61
14
55
30
58
23
47
36
35
29
34
11
10
22
28
21
32
26
17
46
15
24
16
42
2
57
4
38
9
59
12
56
45
40
62
27
20
25
43
49
37
18
19
3
5

> <PUBCHEM_MMFF94_PARTIAL_CHARGES>
35
1 -0.02
12 0.27
13 0.45
14 0.3
15 0.01
16 0.46
17 -0.3
18 0.05
19 0.08
2 -0.81
20 -0.15
21 0.16
22 -0.15
23 0.31
25 -0.15
26 -0.15
27 0.16
28 0.16
3 -0.57
38 0.27
39 0.15
4 0.03
40 0.15
41 0.15
42 0.15
43 0.15
44 0.15
45 0.15
46 0.15
47 0.15
5 -0.57
6 -0.41
7 -0.62
8 -0.62
9 0.45

> <PUBCHEM_EFFECTIVE_ROTOR_COUNT>
6

> <PUBCHEM_PHARMACOPHORE_FEATURES>
11
1 2 cation
1 4 donor
1 7 acceptor
1 8 acceptor
3 3 6 16 cation
3 4 5 15 cation
5 1 3 6 14 16 rings
5 2 9 10 11 12 rings
5 4 5 15 17 19 rings
6 7 18 20 21 22 23 rings
6 8 24 25 26 27 28 rings

> <PUBCHEM_HEAVY_ATOM_COUNT>
28

> <PUBCHEM_ATOM_DEF_STEREO_COUNT>
1

> <PUBCHEM_ATOM_UDEF_STEREO_COUNT>
0

> <PUBCHEM_BOND_DEF_STEREO_COUNT>
0

> <PUBCHEM_BOND_UDEF_STEREO_COUNT>
0

> <PUBCHEM_ISOTOPIC_ATOM_COUNT>
0

> <PUBCHEM_COMPONENT_COUNT>
1

> <PUBCHEM_CACTVS_TAUTO_COUNT>
1

> <PUBCHEM_CONFORMER_ID>
030C49C700000001

> <PUBCHEM_MMFF94_ENERGY>
54.5225

> <PUBCHEM_FEATURE_SELFOVERLAP>
55.825

> <PUBCHEM_SHAPE_FINGERPRINT>
10 15 17632853144865665240
10319926 262 18272080630457266968
11089746 13 12175619577785895090
11315181 36 18409165545379947621
11524674 6 18131628993313298782
12166972 35 11242265047466640046
12293681 4 18202006507819371601
12422481 6 17968375624319044842
12522641 33 17388515157452966213
12616971 3 17167588198017457012
12633257 1 18410583898542943649
12988421 55 18196658385216417465
14068700 675 18268145551899440431
14844126 61 18338802329300441195
14856354 85 18410014355360776436
15021287 119 17240769479753714532
15183329 4 17385717015881397922
15326921 28 18046893888642523461
15348495 7 18201151139934652208
15352257 5 18408887309542405182
15537594 2 17458339719818998506
15799311 1 18261118465480117130
16110190 28 18187367618881555654
16993438 75 15338018359668967810
17093844 174 17560792239049125752
17780758 139 18408040727952426617
17844677 252 18271245036117467440
17913733 40 17060627698335995846
19438510 23 16987452906226627601
20554085 129 18127396866617333697
21033648 29 17418104186880331693
21236236 1 18261390074552958434
21315763 191 18408321095043891636
21756936 100 18201152170547526097
220451 1 18113901546775692284
23516275 137 18044675108948504154
23522609 53 17970092048423471268
23559900 14 18118112791493982861
2838139 119 12247683781557446002
3663271 9 18407757050116591720
397830 11 18129651045758186688
4073 2 18342178865179387326
484985 159 18336815503167616447
5104073 3 18338786914815471920
5364581 5 18128530664367867952
58260988 114 16588885589087359715
59755656 520 18409728426365829464
602551 16 18409454712468973079
68570916 9 18261393408201993092
7226269 152 18131350765426627609
7495541 125 18337950199362204780
9953998 17 18335416885584618656

> <PUBCHEM_SHAPE_MULTIPOLES>
535.49
17.66
2.77
1.56
29.1
1.82
0.27
-2.46
-6.41
-6.36
-0.57
-0.29
-0.12
-1.31

> <PUBCHEM_SHAPE_SELFOVERLAP>
1186.378

> <PUBCHEM_SHAPE_VOLUME>
285

> <PUBCHEM_COORDINATE_TYPE>
2
5
10

$$$$
