26743716
  -OEChem-12032416223D

 55 58  0     1  0  0  0  0  0999 V2000
    6.8270    0.5312    1.3497 F   0  0  0  0  0  0  0  0  0  0  0  0
    5.3189   -0.4001    0.0714 F   0  0  0  0  0  0  0  0  0  0  0  0
    6.5237    1.2959   -0.6749 F   0  0  0  0  0  0  0  0  0  0  0  0
   -6.5343    2.5421    1.1462 O   0  0  0  0  0  0  0  0  0  0  0  0
   -2.0564    1.2831   -2.1481 O   0  0  0  0  0  0  0  0  0  0  0  0
    4.9358    1.6873    0.9242 O   0  0  0  0  0  0  0  0  0  0  0  0
   -4.0806   -0.0055    0.6360 N   0  0  1  0  0  0  0  0  0  0  0  0
   -1.3700    1.0570   -0.0281 N   0  0  0  0  0  0  0  0  0  0  0  0
   -0.6663    1.4537   -2.1685 N   0  0  0  0  0  0  0  0  0  0  0  0
    1.2671   -3.4268   -0.1169 N   0  0  0  0  0  0  0  0  0  0  0  0
   -3.8578    0.8339   -0.5587 C   0  0  1  0  0  0  0  0  0  0  0  0
   -4.6098    2.1452   -0.2644 C   0  0  0  0  0  0  0  0  0  0  0  0
   -5.2602    1.9300    1.0965 C   0  0  2  0  0  0  0  0  0  0  0  0
   -5.3559    0.4204    1.2092 C   0  0  0  0  0  0  0  0  0  0  0  0
   -4.0589   -1.4334    0.3469 C   0  0  0  0  0  0  0  0  0  0  0  0
   -2.3884    1.0544   -0.8505 C   0  0  0  0  0  0  0  0  0  0  0  0
   -2.6535   -1.9594    0.2245 C   0  0  0  0  0  0  0  0  0  0  0  0
   -2.2392   -2.5740   -0.9572 C   0  0  0  0  0  0  0  0  0  0  0  0
   -1.7656   -1.8321    1.2928 C   0  0  0  0  0  0  0  0  0  0  0  0
   -0.3354    1.3060   -0.8822 C   0  0  0  0  0  0  0  0  0  0  0  0
   -0.9372   -3.0614   -1.0706 C   0  0  0  0  0  0  0  0  0  0  0  0
   -0.4636   -2.3194    1.1794 C   0  0  0  0  0  0  0  0  0  0  0  0
   -0.0495   -2.9341   -0.0022 C   0  0  0  0  0  0  0  0  0  0  0  0
    1.0183    1.4027   -0.4178 C   0  0  0  0  0  0  0  0  0  0  0  0
    1.3045    1.2411    0.9379 C   0  0  0  0  0  0  0  0  0  0  0  0
    2.0486    1.6598   -1.3222 C   0  0  0  0  0  0  0  0  0  0  0  0
    1.7072   -4.0672   -1.3404 C   0  0  0  0  0  0  0  0  0  0  0  0
    2.1996   -3.2927    0.9846 C   0  0  0  0  0  0  0  0  0  0  0  0
    2.6207    1.3368    1.3892 C   0  0  0  0  0  0  0  0  0  0  0  0
    3.3650    1.7556   -0.8710 C   0  0  0  0  0  0  0  0  0  0  0  0
    3.6510    1.5941    0.4846 C   0  0  0  0  0  0  0  0  0  0  0  0
    5.8951    0.7756    0.4006 C   0  0  0  0  0  0  0  0  0  0  0  0
   -4.3227    0.3788   -1.4446 H   0  0  0  0  0  0  0  0  0  0  0  0
   -3.9557    3.0243   -0.2378 H   0  0  0  0  0  0  0  0  0  0  0  0
   -5.3685    2.3289   -1.0356 H   0  0  0  0  0  0  0  0  0  0  0  0
   -4.6319    2.3411    1.8962 H   0  0  0  0  0  0  0  0  0  0  0  0
   -6.2186    0.0403    0.6460 H   0  0  0  0  0  0  0  0  0  0  0  0
   -5.4675    0.1063    2.2523 H   0  0  0  0  0  0  0  0  0  0  0  0
   -4.5190   -1.9888    1.1764 H   0  0  0  0  0  0  0  0  0  0  0  0
   -4.6596   -1.6782   -0.5390 H   0  0  0  0  0  0  0  0  0  0  0  0
   -6.4073    3.4939    0.9924 H   0  0  0  0  0  0  0  0  0  0  0  0
   -2.9200   -2.6778   -1.7978 H   0  0  0  0  0  0  0  0  0  0  0  0
   -2.0754   -1.3594    2.2212 H   0  0  0  0  0  0  0  0  0  0  0  0
   -0.6631   -3.5301   -2.0105 H   0  0  0  0  0  0  0  0  0  0  0  0
    0.1889   -2.1956    2.0379 H   0  0  0  0  0  0  0  0  0  0  0  0
    0.5238    1.0393    1.6671 H   0  0  0  0  0  0  0  0  0  0  0  0
    1.8641    1.7926   -2.3852 H   0  0  0  0  0  0  0  0  0  0  0  0
    1.1117   -4.9614   -1.5560 H   0  0  0  0  0  0  0  0  0  0  0  0
    1.6541   -3.3764   -2.1895 H   0  0  0  0  0  0  0  0  0  0  0  0
    2.7499   -4.3970   -1.2723 H   0  0  0  0  0  0  0  0  0  0  0  0
    2.3744   -2.2388    1.2287 H   0  0  0  0  0  0  0  0  0  0  0  0
    1.8405   -3.8216    1.8745 H   0  0  0  0  0  0  0  0  0  0  0  0
    3.1781   -3.7216    0.7414 H   0  0  0  0  0  0  0  0  0  0  0  0
    2.8380    1.2090    2.4461 H   0  0  0  0  0  0  0  0  0  0  0  0
    4.1573    1.9631   -1.5851 H   0  0  0  0  0  0  0  0  0  0  0  0
  1 32  1  0  0  0  0
  2 32  1  0  0  0  0
  3 32  1  0  0  0  0
  4 13  1  0  0  0  0
  4 41  1  0  0  0  0
  5  9  1  0  0  0  0
  5 16  1  0  0  0  0
  6 31  1  0  0  0  0
  6 32  1  0  0  0  0
  7 11  1  0  0  0  0
  7 14  1  0  0  0  0
  7 15  1  0  0  0  0
  8 16  2  0  0  0  0
  8 20  1  0  0  0  0
  9 20  2  0  0  0  0
 10 23  1  0  0  0  0
 10 27  1  0  0  0  0
 10 28  1  0  0  0  0
 11 12  1  0  0  0  0
 11 16  1  0  0  0  0
 11 33  1  0  0  0  0
 12 13  1  0  0  0  0
 12 34  1  0  0  0  0
 12 35  1  0  0  0  0
 13 14  1  0  0  0  0
 13 36  1  0  0  0  0
 14 37  1  0  0  0  0
 14 38  1  0  0  0  0
 15 17  1  0  0  0  0
 15 39  1  0  0  0  0
 15 40  1  0  0  0  0
 17 18  2  0  0  0  0
 17 19  1  0  0  0  0
 18 21  1  0  0  0  0
 18 42  1  0  0  0  0
 19 22  2  0  0  0  0
 19 43  1  0  0  0  0
 20 24  1  0  0  0  0
 21 23  2  0  0  0  0
 21 44  1  0  0  0  0
 22 23  1  0  0  0  0
 22 45  1  0  0  0  0
 24 25  2  0  0  0  0
 24 26  1  0  0  0  0
 25 29  1  0  0  0  0
 25 46  1  0  0  0  0
 26 30  2  0  0  0  0
 26 47  1  0  0  0  0
 27 48  1  0  0  0  0
 27 49  1  0  0  0  0
 27 50  1  0  0  0  0
 28 51  1  0  0  0  0
 28 52  1  0  0  0  0
 28 53  1  0  0  0  0
 29 31  2  0  0  0  0
 29 54  1  0  0  0  0
 30 31  1  0  0  0  0
 30 55  1  0  0  0  0
M  END
> <PUBCHEM_COMPOUND_CID>
26743716

> <PUBCHEM_CONFORMER_RMSD>
1

> <PUBCHEM_CONFORMER_DIVERSEORDER>
1
20
27
6
4
12
40
29
23
32
2
35
43
10
31
42
5
9
41
19
26
15
39
8
7
36
11
14
22
34
24
44
33
30
38
37
28
25
3
17
21
18
13
16

> <PUBCHEM_MMFF94_PARTIAL_CHARGES>
40
1 -0.34
10 -0.84
11 0.45
13 0.28
14 0.27
15 0.41
16 0.3
17 -0.14
18 -0.15
19 -0.15
2 -0.34
20 0.46
21 -0.15
22 -0.15
23 0.1
24 0.05
25 -0.15
26 -0.15
27 0.37
28 0.37
29 -0.15
3 -0.34
30 -0.15
31 0.08
32 1.3
4 -0.68
41 0.4
42 0.15
43 0.15
44 0.15
45 0.15
46 0.15
47 0.15
5 -0.02
54 0.15
55 0.15
6 -0.36
7 -0.81
8 -0.57
9 -0.41

> <PUBCHEM_EFFECTIVE_ROTOR_COUNT>
8

> <PUBCHEM_PHARMACOPHORE_FEATURES>
10
1 10 cation
1 4 acceptor
1 4 donor
1 6 acceptor
1 7 cation
3 8 9 20 cation
5 5 8 9 16 20 rings
5 7 11 12 13 14 rings
6 17 18 19 21 22 23 rings
6 24 25 26 29 30 31 rings

> <PUBCHEM_HEAVY_ATOM_COUNT>
32

> <PUBCHEM_ATOM_DEF_STEREO_COUNT>
2

> <PUBCHEM_ATOM_UDEF_STEREO_COUNT>
0

> <PUBCHEM_BOND_DEF_STEREO_COUNT>
0

> <PUBCHEM_BOND_UDEF_STEREO_COUNT>
0

> <PUBCHEM_ISOTOPIC_ATOM_COUNT>
0

> <PUBCHEM_COMPONENT_COUNT>
1

> <PUBCHEM_CACTVS_TAUTO_COUNT>
1

> <PUBCHEM_CONFORMER_ID>
019813A400000001

> <PUBCHEM_MMFF94_ENERGY>
92.0156

> <PUBCHEM_FEATURE_SELFOVERLAP>
50.747

> <PUBCHEM_SHAPE_FINGERPRINT>
11014199 57 17182496729845929138
11112241 14 17632003239282722906
11513181 2 18201720618064985583
11524674 6 18272647974273099166
12156800 1 15721969031031694971
12422481 6 18187642483771690386
12522641 33 17896578624266259765
12788726 201 17762067931634274727
13402501 40 18408324363461600766
14840074 17 17676767664510726644
15064986 96 18337397033085750059
15274700 242 17241865749604264112
15420108 30 18342172267746104599
15927050 60 18343581833020709655
16110190 28 18041562550354037460
20642791 35 18195818374937340871
20691752 17 17603591794760861519
21403212 168 18335417938157788389
22182313 1 17677609749343137117
23516275 137 18191045442859856370
3298306 158 18410011018297924086
338550 245 18260832639695916774
3411729 13 18337959974459558529
4093350 32 17345760676732216286
4112364 45 17411085867518234017
508706 21 18339929341392797582
5265222 85 18194133021750038492
5385378 56 18341061705319820449
59755656 520 18343297076794200285
7226269 152 18060705000095524465

> <PUBCHEM_SHAPE_MULTIPOLES>
599.19
12.74
4.48
1.57
8.02
5.15
0.33
-10.48
-4.86
-0.02
0.6
-0.14
-0.2
-0.19

> <PUBCHEM_SHAPE_SELFOVERLAP>
1296.873

> <PUBCHEM_SHAPE_VOLUME>
333

> <PUBCHEM_COORDINATE_TYPE>
2
5
10

$$$$
