45361536
  -OEChem-12032416333D

 75 78  0     1  0  0  0  0  0999 V2000
    1.3849   -2.4751   -1.4277 O   0  0  0  0  0  0  0  0  0  0  0  0
    6.2153   -2.0244    0.8163 O   0  0  0  0  0  0  0  0  0  0  0  0
   -4.2866    1.4301   -1.2856 O   0  0  0  0  0  0  0  0  0  0  0  0
   -6.7927    0.4804   -1.0314 O   0  0  0  0  0  0  0  0  0  0  0  0
   -3.3943   -0.3278   -0.0528 N   0  0  0  0  0  0  0  0  0  0  0  0
    5.6503   -1.0130   -1.1931 N   0  0  0  0  0  0  0  0  0  0  0  0
    7.6923    1.1068    0.3623 N   0  0  0  0  0  0  0  0  0  0  0  0
    0.6981    0.2545    1.1517 C   0  0  1  0  0  0  0  0  0  0  0  0
    0.4472   -0.6658   -0.0890 C   0  0  2  0  0  0  0  0  0  0  0  0
   -1.0480   -1.1454   -0.1360 C   0  0  1  0  0  0  0  0  0  0  0  0
    1.5143   -1.7945   -0.1786 C   0  0  2  0  0  0  0  0  0  0  0  0
    2.1453    0.7991    1.1059 C   0  0  0  0  0  0  0  0  0  0  0  0
   -0.2622    1.4644    1.0845 C   0  0  0  0  0  0  0  0  0  0  0  0
    2.9610   -1.2512   -0.1191 C   0  0  1  0  0  0  0  0  0  0  0  0
   -2.0066    0.0785   -0.1273 C   0  0  2  0  0  0  0  0  0  0  0  0
    3.1943   -0.3041    1.0578 C   0  0  0  0  0  0  0  0  0  0  0  0
   -1.7278    1.0606    1.0103 C   0  0  0  0  0  0  0  0  0  0  0  0
    0.4885   -0.4893    2.4951 C   0  0  0  0  0  0  0  0  0  0  0  0
    3.9932   -2.3847   -0.0768 C   0  0  2  0  0  0  0  0  0  0  0  0
   -1.3722   -2.0331   -1.3494 C   0  0  0  0  0  0  0  0  0  0  0  0
    3.7572   -3.2643    1.1460 C   0  0  0  0  0  0  0  0  0  0  0  0
    5.4038   -1.8038   -0.0802 C   0  0  0  0  0  0  0  0  0  0  0  0
   -4.4188    0.3913   -0.6441 C   0  0  0  0  0  0  0  0  0  0  0  0
   -5.7647   -0.2608   -0.4095 C   0  0  0  0  0  0  0  0  0  0  0  0
    6.9152   -0.3526   -1.4176 C   0  0  0  0  0  0  0  0  0  0  0  0
    6.9641    1.0020   -0.7719 C   0  0  0  0  0  0  0  0  0  0  0  0
   -8.0369    0.4399   -0.4474 C   0  0  0  0  0  0  0  0  0  0  0  0
    6.2788    2.0563   -1.3539 C   0  0  0  0  0  0  0  0  0  0  0  0
   -8.4398   -0.6942    0.2577 C   0  0  0  0  0  0  0  0  0  0  0  0
   -8.8959    1.5330   -0.5599 C   0  0  0  0  0  0  0  0  0  0  0  0
    6.3454    3.2981   -0.7319 C   0  0  0  0  0  0  0  0  0  0  0  0
    7.7337    2.3290    0.9386 C   0  0  0  0  0  0  0  0  0  0  0  0
    7.0847    3.4454    0.4366 C   0  0  0  0  0  0  0  0  0  0  0  0
   -9.7020   -0.7353    0.8502 C   0  0  0  0  0  0  0  0  0  0  0  0
  -10.1580    1.4921    0.0326 C   0  0  0  0  0  0  0  0  0  0  0  0
  -10.5611    0.3579    0.7376 C   0  0  0  0  0  0  0  0  0  0  0  0
    0.5836   -0.0472   -0.9906 H   0  0  0  0  0  0  0  0  0  0  0  0
   -1.2523   -1.7564    0.7524 H   0  0  0  0  0  0  0  0  0  0  0  0
    1.3010   -2.5182    0.6098 H   0  0  0  0  0  0  0  0  0  0  0  0
    2.3381    1.4396    1.9762 H   0  0  0  0  0  0  0  0  0  0  0  0
    2.2719    1.4390    0.2221 H   0  0  0  0  0  0  0  0  0  0  0  0
   -0.1143    2.1159    1.9551 H   0  0  0  0  0  0  0  0  0  0  0  0
   -0.0261    2.0740    0.2019 H   0  0  0  0  0  0  0  0  0  0  0  0
    3.1098   -0.6682   -1.0378 H   0  0  0  0  0  0  0  0  0  0  0  0
   -1.8713    0.6199   -1.0740 H   0  0  0  0  0  0  0  0  0  0  0  0
    4.1736    0.1820    0.9791 H   0  0  0  0  0  0  0  0  0  0  0  0
    3.1921   -0.8189    2.0208 H   0  0  0  0  0  0  0  0  0  0  0  0
   -2.0495    0.6320    1.9673 H   0  0  0  0  0  0  0  0  0  0  0  0
   -2.3368    1.9644    0.8781 H   0  0  0  0  0  0  0  0  0  0  0  0
   -0.5390   -0.8355    2.6327 H   0  0  0  0  0  0  0  0  0  0  0  0
    0.7181    0.1704    3.3402 H   0  0  0  0  0  0  0  0  0  0  0  0
    1.1272   -1.3718    2.5895 H   0  0  0  0  0  0  0  0  0  0  0  0
    3.9053   -3.0089   -0.9754 H   0  0  0  0  0  0  0  0  0  0  0  0
   -2.4457   -2.2288   -1.4382 H   0  0  0  0  0  0  0  0  0  0  0  0
   -1.0425   -1.5659   -2.2831 H   0  0  0  0  0  0  0  0  0  0  0  0
   -0.9040   -3.0169   -1.2552 H   0  0  0  0  0  0  0  0  0  0  0  0
   -3.6234   -1.1418    0.5108 H   0  0  0  0  0  0  0  0  0  0  0  0
    1.5171   -1.8270   -2.1405 H   0  0  0  0  0  0  0  0  0  0  0  0
    2.7997   -3.7891    1.1199 H   0  0  0  0  0  0  0  0  0  0  0  0
    4.5193   -4.0543    1.1710 H   0  0  0  0  0  0  0  0  0  0  0  0
    3.8516   -2.7410    2.1003 H   0  0  0  0  0  0  0  0  0  0  0  0
    4.9448   -0.9231   -1.9171 H   0  0  0  0  0  0  0  0  0  0  0  0
   -5.8945   -0.3094    0.6800 H   0  0  0  0  0  0  0  0  0  0  0  0
   -5.7390   -1.2732   -0.8288 H   0  0  0  0  0  0  0  0  0  0  0  0
    7.0613   -0.2634   -2.4997 H   0  0  0  0  0  0  0  0  0  0  0  0
    7.7222   -0.9844   -1.0290 H   0  0  0  0  0  0  0  0  0  0  0  0
    5.7044    1.9305   -2.2654 H   0  0  0  0  0  0  0  0  0  0  0  0
   -7.8112   -1.5754    0.3456 H   0  0  0  0  0  0  0  0  0  0  0  0
   -8.5870    2.4190   -1.1077 H   0  0  0  0  0  0  0  0  0  0  0  0
    5.8218    4.1493   -1.1566 H   0  0  0  0  0  0  0  0  0  0  0  0
    8.3231    2.3910    1.8474 H   0  0  0  0  0  0  0  0  0  0  0  0
    7.1504    4.4039    0.9385 H   0  0  0  0  0  0  0  0  0  0  0  0
  -10.0187   -1.6205    1.3941 H   0  0  0  0  0  0  0  0  0  0  0  0
  -10.8270    2.3431   -0.0552 H   0  0  0  0  0  0  0  0  0  0  0  0
  -11.5444    0.3255    1.1976 H   0  0  0  0  0  0  0  0  0  0  0  0
  1 11  1  0  0  0  0
  1 58  1  0  0  0  0
  2 22  2  0  0  0  0
  3 23  2  0  0  0  0
  4 24  1  0  0  0  0
  4 27  1  0  0  0  0
  5 15  1  0  0  0  0
  5 23  1  0  0  0  0
  5 57  1  0  0  0  0
  6 22  1  0  0  0  0
  6 25  1  0  0  0  0
  6 62  1  0  0  0  0
  7 26  1  0  0  0  0
  7 32  2  0  0  0  0
  8  9  1  0  0  0  0
  8 12  1  0  0  0  0
  8 13  1  0  0  0  0
  8 18  1  0  0  0  0
  9 10  1  0  0  0  0
  9 11  1  0  0  0  0
  9 37  1  0  0  0  0
 10 15  1  0  0  0  0
 10 20  1  0  0  0  0
 10 38  1  0  0  0  0
 11 14  1  0  0  0  0
 11 39  1  0  0  0  0
 12 16  1  0  0  0  0
 12 40  1  0  0  0  0
 12 41  1  0  0  0  0
 13 17  1  0  0  0  0
 13 42  1  0  0  0  0
 13 43  1  0  0  0  0
 14 16  1  0  0  0  0
 14 19  1  0  0  0  0
 14 44  1  0  0  0  0
 15 17  1  0  0  0  0
 15 45  1  0  0  0  0
 16 46  1  0  0  0  0
 16 47  1  0  0  0  0
 17 48  1  0  0  0  0
 17 49  1  0  0  0  0
 18 50  1  0  0  0  0
 18 51  1  0  0  0  0
 18 52  1  0  0  0  0
 19 21  1  0  0  0  0
 19 22  1  0  0  0  0
 19 53  1  0  0  0  0
 20 54  1  0  0  0  0
 20 55  1  0  0  0  0
 20 56  1  0  0  0  0
 21 59  1  0  0  0  0
 21 60  1  0  0  0  0
 21 61  1  0  0  0  0
 23 24  1  0  0  0  0
 24 63  1  0  0  0  0
 24 64  1  0  0  0  0
 25 26  1  0  0  0  0
 25 65  1  0  0  0  0
 25 66  1  0  0  0  0
 26 28  2  0  0  0  0
 27 29  2  0  0  0  0
 27 30  1  0  0  0  0
 28 31  1  0  0  0  0
 28 67  1  0  0  0  0
 29 34  1  0  0  0  0
 29 68  1  0  0  0  0
 30 35  2  0  0  0  0
 30 69  1  0  0  0  0
 31 33  2  0  0  0  0
 31 70  1  0  0  0  0
 32 33  1  0  0  0  0
 32 71  1  0  0  0  0
 33 72  1  0  0  0  0
 34 36  2  0  0  0  0
 34 73  1  0  0  0  0
 35 36  1  0  0  0  0
 35 74  1  0  0  0  0
 36 75  1  0  0  0  0
M  END
> <PUBCHEM_COMPOUND_CID>
45361536

> <PUBCHEM_CONFORMER_RMSD>
1.2

> <PUBCHEM_CONFORMER_DIVERSEORDER>
1
141
14
114
41
97
195
72
45
121
203
175
11
127
201
172
135
68
44
132
184
190
139
85
189
93
204
46
185
196
74
153
24
13
167
88
103
98
55
194
87
163
118
137
33
124
102
192
179
28
202
170
101
25
106
152
200
149
151
123
73
182
104
136
159
32
138
69
21
48
100
76
147
165
143
161
133
10
146
12
188
81
199
113
90
126
176
34
130
174
66
150
3
140
36
61
125
119
75
63
2
129
173
198
144
83
37
178
120
197
67
15
42
158
71
157
16
82
177
39
58
29
128
112
171
5
95
92
131
166
145
117
187
186
53
77
191
80
57
50
8
111
40
30
22
52
109
96
160
64
148
59
31
142
193
180
168
6
27
56
94
99
70
65
115
154
105
107
86
19
4
183
164
23
155
116
35
91
84
78
7
79
49
156
122
47
181
62
60
108
134
43
51
17
162
18
89
110
54
169
9
38
26
20

> <PUBCHEM_MMFF94_PARTIAL_CHARGES>
37
1 -0.68
11 0.28
15 0.3
19 0.06
2 -0.57
22 0.57
23 0.57
24 0.34
25 0.44
26 0.17
27 0.08
28 -0.15
29 -0.15
3 -0.57
30 -0.15
31 -0.15
32 0.16
33 -0.15
34 -0.15
35 -0.15
36 -0.15
4 -0.36
5 -0.73
57 0.37
58 0.4
6 -0.73
62 0.37
67 0.15
68 0.15
69 0.15
7 -0.62
70 0.15
71 0.15
72 0.15
73 0.15
74 0.15
75 0.15

> <PUBCHEM_EFFECTIVE_ROTOR_COUNT>
11.6

> <PUBCHEM_PHARMACOPHORE_FEATURES>
13
1 1 acceptor
1 1 donor
1 2 acceptor
1 21 hydrophobe
1 3 acceptor
1 4 acceptor
1 5 donor
1 6 donor
1 7 acceptor
6 27 29 30 34 35 36 rings
6 7 26 28 31 32 33 rings
6 8 9 10 13 15 17 rings
6 8 9 11 12 14 16 rings

> <PUBCHEM_HEAVY_ATOM_COUNT>
36

> <PUBCHEM_ATOM_DEF_STEREO_COUNT>
6

> <PUBCHEM_ATOM_UDEF_STEREO_COUNT>
1

> <PUBCHEM_BOND_DEF_STEREO_COUNT>
0

> <PUBCHEM_BOND_UDEF_STEREO_COUNT>
0

> <PUBCHEM_ISOTOPIC_ATOM_COUNT>
0

> <PUBCHEM_COMPONENT_COUNT>
1

> <PUBCHEM_CACTVS_TAUTO_COUNT>
4

> <PUBCHEM_CONFORMER_ID>
02B4298000000001

> <PUBCHEM_MMFF94_ENERGY>
106.5129

> <PUBCHEM_FEATURE_SELFOVERLAP>
65.994

> <PUBCHEM_SHAPE_FINGERPRINT>
10666366 153 12823303385790058033
10673678 19 18412266151544385974
11211813 74 18412261748485872092
11409948 35 11167954536554498581
11476731 38 18272938236489309017
11966995 178 18410016533610860980
12098696 120 18342172297737022513
12592606 108 9151179748722284597
13165053 371 18412542132689264736
13617811 41 16343990204502080008
13947947 19 17703785947135138879
13947947 74 18410577279533902939
14400156 260 18131061632802893850
15361156 5 18341608244620149495
15840311 113 18408889529686400870
16728433 110 18334576846464981317
16992787 43 18272933842790629521
17686467 74 17967817150850290885
18365409 1 16226345789046241675
19302320 297 17968655034376855028
20554085 129 16443061708064916584
20771845 171 17560810896719649318
21362267 313 12107776381715785687
21591340 7 12396301478486418833
21781055 127 15697735761344923091
23522609 53 17702968962281900888
3178227 256 18130501947509978579
3552219 110 18131357388931174089
3711267 37 18202569458342420321
4149490 64 17967248672467241410
45270241 37 18408890603048858350
474113 269 8430324536578885789
5470011 282 18410012109409475887
6081469 158 11167942459475395987
6201320 215 12468898890401747455

> <PUBCHEM_SHAPE_MULTIPOLES>
702.44
33.16
3.09
1.44
71.13
0.39
-0.28
18.17
2.34
-8.16
0.09
-0.97
-0.09
0.14

> <PUBCHEM_SHAPE_SELFOVERLAP>
1479.102

> <PUBCHEM_SHAPE_VOLUME>
390.1

> <PUBCHEM_COORDINATE_TYPE>
2
5
10

$$$$
