75368653
  -OEChem-12032416393D

 46 48  0     1  0  0  0  0  0999 V2000
    1.2642    1.9914    0.1834 O   0  0  0  0  0  0  0  0  0  0  0  0
    1.2270   -0.3135   -0.3167 N   0  0  0  0  0  0  0  0  0  0  0  0
   -0.7100    0.8232   -0.3240 N   0  0  0  0  0  0  0  0  0  0  0  0
   -3.3869   -0.0171   -0.1273 N   0  0  2  0  0  0  0  0  0  0  0  0
   -1.0653   -0.5027   -0.7847 C   0  0  1  0  0  0  0  0  0  0  0  0
    2.6188   -0.6602   -0.1589 C   0  0  0  0  0  0  0  0  0  0  0  0
    0.2054   -1.3187   -0.5557 C   0  0  0  0  0  0  0  0  0  0  0  0
   -2.2987   -1.0119   -0.0395 C   0  0  0  0  0  0  0  0  0  0  0  0
   -1.7372    1.8394   -0.2286 C   0  0  0  0  0  0  0  0  0  0  0  0
    3.0677   -0.4324    1.2866 C   0  0  0  0  0  0  0  0  0  0  0  0
    3.4883    0.1269   -1.1429 C   0  0  0  0  0  0  0  0  0  0  0  0
    0.6689    0.9654   -0.1185 C   0  0  0  0  0  0  0  0  0  0  0  0
   -2.9741    1.2691    0.4699 C   0  0  0  0  0  0  0  0  0  0  0  0
    4.5514   -0.7414    1.4703 C   0  0  0  0  0  0  0  0  0  0  0  0
    4.9710   -0.1845   -0.9563 C   0  0  0  0  0  0  0  0  0  0  0  0
    5.4159    0.0414    0.4859 C   0  0  0  0  0  0  0  0  0  0  0  0
   -4.5918   -0.5212    0.5312 C   0  0  0  0  0  0  0  0  0  0  0  0
   -5.0040   -1.8606   -0.0731 C   0  0  0  0  0  0  0  0  0  0  0  0
   -5.7106    0.5073    0.3989 C   0  0  0  0  0  0  0  0  0  0  0  0
   -1.2717   -0.4230   -1.8602 H   0  0  0  0  0  0  0  0  0  0  0  0
    2.7208   -1.7285   -0.3918 H   0  0  0  0  0  0  0  0  0  0  0  0
    0.1451   -1.9618    0.3284 H   0  0  0  0  0  0  0  0  0  0  0  0
    0.4686   -1.9205   -1.4308 H   0  0  0  0  0  0  0  0  0  0  0  0
   -2.5621   -1.9606   -0.5165 H   0  0  0  0  0  0  0  0  0  0  0  0
   -2.0561   -1.2183    1.0117 H   0  0  0  0  0  0  0  0  0  0  0  0
   -1.9805    2.1521   -1.2507 H   0  0  0  0  0  0  0  0  0  0  0  0
   -1.3436    2.7088    0.3075 H   0  0  0  0  0  0  0  0  0  0  0  0
    2.4773   -1.0608    1.9648 H   0  0  0  0  0  0  0  0  0  0  0  0
    2.8885    0.6046    1.5947 H   0  0  0  0  0  0  0  0  0  0  0  0
    3.3435    1.2066   -1.0204 H   0  0  0  0  0  0  0  0  0  0  0  0
    3.1922   -0.1079   -2.1728 H   0  0  0  0  0  0  0  0  0  0  0  0
   -2.7617    1.1417    1.5398 H   0  0  0  0  0  0  0  0  0  0  0  0
   -3.7446    2.0389    0.3705 H   0  0  0  0  0  0  0  0  0  0  0  0
    4.7197   -1.8161    1.3287 H   0  0  0  0  0  0  0  0  0  0  0  0
    4.8536   -0.5038    2.4965 H   0  0  0  0  0  0  0  0  0  0  0  0
    5.5673    0.4424   -1.6288 H   0  0  0  0  0  0  0  0  0  0  0  0
    5.1626   -1.2271   -1.2382 H   0  0  0  0  0  0  0  0  0  0  0  0
    6.4646   -0.2554    0.5992 H   0  0  0  0  0  0  0  0  0  0  0  0
    5.3588    1.1112    0.7216 H   0  0  0  0  0  0  0  0  0  0  0  0
   -4.4112   -0.6832    1.6029 H   0  0  0  0  0  0  0  0  0  0  0  0
   -6.0146   -2.1326    0.2543 H   0  0  0  0  0  0  0  0  0  0  0  0
   -5.0196   -1.8272   -1.1685 H   0  0  0  0  0  0  0  0  0  0  0  0
   -4.3574   -2.6832    0.2482 H   0  0  0  0  0  0  0  0  0  0  0  0
   -6.6728    0.0631    0.6807 H   0  0  0  0  0  0  0  0  0  0  0  0
   -5.5759    1.3651    1.0653 H   0  0  0  0  0  0  0  0  0  0  0  0
   -5.8146    0.8696   -0.6304 H   0  0  0  0  0  0  0  0  0  0  0  0
  1 12  2  0  0  0  0
  2  6  1  0  0  0  0
  2  7  1  0  0  0  0
  2 12  1  0  0  0  0
  3  5  1  0  0  0  0
  3  9  1  0  0  0  0
  3 12  1  0  0  0  0
  4  8  1  0  0  0  0
  4 13  1  0  0  0  0
  4 17  1  0  0  0  0
  5  7  1  0  0  0  0
  5  8  1  0  0  0  0
  5 20  1  0  0  0  0
  6 10  1  0  0  0  0
  6 11  1  0  0  0  0
  6 21  1  0  0  0  0
  7 22  1  0  0  0  0
  7 23  1  0  0  0  0
  8 24  1  0  0  0  0
  8 25  1  0  0  0  0
  9 13  1  0  0  0  0
  9 26  1  0  0  0  0
  9 27  1  0  0  0  0
 10 14  1  0  0  0  0
 10 28  1  0  0  0  0
 10 29  1  0  0  0  0
 11 15  1  0  0  0  0
 11 30  1  0  0  0  0
 11 31  1  0  0  0  0
 13 32  1  0  0  0  0
 13 33  1  0  0  0  0
 14 16  1  0  0  0  0
 14 34  1  0  0  0  0
 14 35  1  0  0  0  0
 15 16  1  0  0  0  0
 15 36  1  0  0  0  0
 15 37  1  0  0  0  0
 16 38  1  0  0  0  0
 16 39  1  0  0  0  0
 17 18  1  0  0  0  0
 17 19  1  0  0  0  0
 17 40  1  0  0  0  0
 18 41  1  0  0  0  0
 18 42  1  0  0  0  0
 18 43  1  0  0  0  0
 19 44  1  0  0  0  0
 19 45  1  0  0  0  0
 19 46  1  0  0  0  0
M  END
> <PUBCHEM_COMPOUND_CID>
75368653

> <PUBCHEM_CONFORMER_RMSD>
0.6

> <PUBCHEM_CONFORMER_DIVERSEORDER>
2
26
37
32
40
22
43
30
19
29
23
45
17
24
8
10
31
39
33
15
25
38
36
35
34
41
14
44
46
12
42
21
1
5
18
9
27
16
6
13
28
11
20
7
3
4

> <PUBCHEM_MMFF94_PARTIAL_CHARGES>
12
1 -0.57
12 0.69
13 0.27
17 0.27
2 -0.66
3 -0.66
4 -0.81
5 0.3
6 0.3
7 0.3
8 0.27
9 0.3

> <PUBCHEM_EFFECTIVE_ROTOR_COUNT>
4.4

> <PUBCHEM_PHARMACOPHORE_FEATURES>
6
1 1 acceptor
1 4 cation
3 17 18 19 hydrophobe
5 2 3 5 7 12 rings
6 3 4 5 8 9 13 rings
6 6 10 11 14 15 16 rings

> <PUBCHEM_HEAVY_ATOM_COUNT>
19

> <PUBCHEM_ATOM_DEF_STEREO_COUNT>
1

> <PUBCHEM_ATOM_UDEF_STEREO_COUNT>
0

> <PUBCHEM_BOND_DEF_STEREO_COUNT>
0

> <PUBCHEM_BOND_UDEF_STEREO_COUNT>
0

> <PUBCHEM_ISOTOPIC_ATOM_COUNT>
0

> <PUBCHEM_COMPONENT_COUNT>
1

> <PUBCHEM_CACTVS_TAUTO_COUNT>
1

> <PUBCHEM_CONFORMER_ID>
047E08CD00000002

> <PUBCHEM_MMFF94_ENERGY>
31.7938

> <PUBCHEM_FEATURE_SELFOVERLAP>
30.542

> <PUBCHEM_SHAPE_FINGERPRINT>
106641 1 18272083958824916610
10912923 1 17967818227947818728
11045977 3 17418370324750231651
11132069 177 18131633387565410911
11796584 16 17022618672179769755
12107183 9 17175446183892729528
12236239 1 18040155106919331726
12251169 10 18342174479490049447
12596602 18 18408882958064541696
13140716 1 18197211653711614531
13288520 33 18410859849832710317
13533116 47 17603581903292768010
13675066 3 17418094325629722879
13760787 5 17675923213821418287
13862211 1 18410571812188585111
14251752 14 17240755152206694333
14251764 18 18187088352219408489
14341114 176 16487259884740870074
14341114 328 18259988145387087491
14787075 74 18113901567617584882
15048467 5 16773793723573478146
15196674 1 18341054124634055253
15375462 189 18114172026177339010
17804303 29 18342176691393055537
17834072 33 17894351089909415580
1813 80 17676776387594599486
18222031 100 18412542136956520301
18785283 64 17630312263298194808
19141452 34 17561080332185519575
200 152 16370723716580296325
20028762 73 17987234611442689871
20374829 77 18334857234245013329
20645477 56 17131825478179785006
20645477 70 15357690860721008666
21033648 29 16773221908148292267
21065198 48 17894910677357137856
21267235 1 18411147938863962414
21637258 2 16732972146135779219
22079108 93 16056872559333658335
22182313 1 18058736775581310701
22854114 59 17704070689890955723
2297311 6 18200886105929213604
23402539 116 18410007750197102967
23536379 177 16153423926895931493
23557571 272 18129957671256494868
23559900 14 18339637945067811689
26918003 58 17458348545955627467
2838139 119 14045189494218050347
3411729 13 18126560352822145936
350125 39 18411984680177359621
4340502 62 16588027935272664594
4463277 17 18410578400446689188
465052 167 18261962932864114747
474 4 13470403392074795922
5104073 3 18340775961303815041
5283173 99 12757417354619054295
5374978 207 18335136497165899576
59755656 520 14117511022639466797
633830 44 12967122826929253588
7495541 125 18041283265351373792
8863177 126 17752499921542054515

> <PUBCHEM_SHAPE_MULTIPOLES>
370.2
12.39
1.57
1.05
1.43
0.32
-0.14
-2.54
-2.2
1.39
0.01
-1.21
-0.14
-0.42

> <PUBCHEM_SHAPE_SELFOVERLAP>
759.504

> <PUBCHEM_SHAPE_VOLUME>
214

> <PUBCHEM_COORDINATE_TYPE>
2
5
10

$$$$
