11882559
  -OEChem-12032416153D

 71 74  0     1  0  0  0  0  0999 V2000
    7.2985   -3.0036    0.5546 S   0  0  0  0  0  0  0  0  0  0  0  0
   -1.2075    3.5405   -1.0904 O   0  0  0  0  0  0  0  0  0  0  0  0
    2.6956    4.4577    1.0149 O   0  0  0  0  0  0  0  0  0  0  0  0
    0.4299    5.5675    2.3351 O   0  0  0  0  0  0  0  0  0  0  0  0
   -3.2381    2.4214    1.2439 O   0  0  0  0  0  0  0  0  0  0  0  0
    2.6140    1.1281   -1.9354 O   0  0  0  0  0  0  0  0  0  0  0  0
   -4.6389    1.9880   -2.4577 O   0  0  0  0  0  0  0  0  0  0  0  0
    3.4040   -1.3477   -2.3501 O   0  0  0  0  0  0  0  0  0  0  0  0
    2.4303    1.6441    0.3176 N   0  0  0  0  0  0  0  0  0  0  0  0
   -2.6612    1.2638   -0.6917 N   0  0  0  0  0  0  0  0  0  0  0  0
   -1.3299   -3.0420    0.4703 N   0  0  0  0  0  0  0  0  0  0  0  0
   -6.1748    0.9331   -1.1144 N   0  0  0  0  0  0  0  0  0  0  0  0
   -1.1540    2.9085    0.1832 C   0  0  1  0  0  0  0  0  0  0  0  0
    1.3707    2.6192    0.1793 C   0  0  1  0  0  0  0  0  0  0  0  0
    0.0099    1.9171    0.2405 C   0  0  0  0  0  0  0  0  0  0  0  0
    1.4984    3.7110    1.2498 C   0  0  2  0  0  0  0  0  0  0  0  0
   -1.0254    3.9775    1.2663 C   0  0  0  0  0  0  0  0  0  0  0  0
    0.3251    4.6933    1.2110 C   0  0  1  0  0  0  0  0  0  0  0  0
   -2.4658    2.1919    0.3168 C   0  0  0  0  0  0  0  0  0  0  0  0
   -3.8353    0.4259   -0.7783 C   0  0  2  0  0  0  0  0  0  0  0  0
    2.9669    0.9740   -0.7691 C   0  0  0  0  0  0  0  0  0  0  0  0
   -3.5506   -0.9040   -1.4867 C   0  0  0  0  0  0  0  0  0  0  0  0
    4.0303   -0.0154   -0.4573 C   0  0  0  0  0  0  0  0  0  0  0  0
   -2.8782   -1.9060   -0.5780 C   0  0  0  0  0  0  0  0  0  0  0  0
   -4.8927    1.2153   -1.5367 C   0  0  0  0  0  0  0  0  0  0  0  0
   -3.5391   -2.8386    0.2361 C   0  0  0  0  0  0  0  0  0  0  0  0
    4.1937   -1.1245   -1.2621 C   0  0  0  0  0  0  0  0  0  0  0  0
   -1.5356   -2.0334   -0.4323 C   0  0  0  0  0  0  0  0  0  0  0  0
    4.8282    0.2147    0.6459 C   0  0  0  0  0  0  0  0  0  0  0  0
   -2.5359   -3.5522    0.8953 C   0  0  0  0  0  0  0  0  0  0  0  0
   -4.8852   -3.1653    0.4944 C   0  0  0  0  0  0  0  0  0  0  0  0
    5.1970   -2.0424   -0.9515 C   0  0  0  0  0  0  0  0  0  0  0  0
    5.8315   -0.7032    0.9566 C   0  0  0  0  0  0  0  0  0  0  0  0
   -2.8125   -4.5801    1.8037 C   0  0  0  0  0  0  0  0  0  0  0  0
    6.0159   -1.8317    0.1578 C   0  0  0  0  0  0  0  0  0  0  0  0
   -5.1770   -4.1913    1.4006 C   0  0  0  0  0  0  0  0  0  0  0  0
   -4.1550   -4.8865    2.0441 C   0  0  0  0  0  0  0  0  0  0  0  0
    2.2114   -2.1011   -2.1410 C   0  0  0  0  0  0  0  0  0  0  0  0
    6.3417   -4.5239    0.8153 C   0  0  0  0  0  0  0  0  0  0  0  0
    1.4871    3.0846   -0.8087 H   0  0  0  0  0  0  0  0  0  0  0  0
   -0.0379    1.2054   -0.5935 H   0  0  0  0  0  0  0  0  0  0  0  0
   -0.0571    1.3168    1.1586 H   0  0  0  0  0  0  0  0  0  0  0  0
    1.5904    3.2631    2.2476 H   0  0  0  0  0  0  0  0  0  0  0  0
   -1.1510    3.5355    2.2647 H   0  0  0  0  0  0  0  0  0  0  0  0
   -1.8194    4.7312    1.1756 H   0  0  0  0  0  0  0  0  0  0  0  0
    0.3792    5.3199    0.3122 H   0  0  0  0  0  0  0  0  0  0  0  0
    2.6904    1.3798    1.2621 H   0  0  0  0  0  0  0  0  0  0  0  0
   -1.8926    4.2302   -1.0629 H   0  0  0  0  0  0  0  0  0  0  0  0
    2.8479    5.0225    1.7911 H   0  0  0  0  0  0  0  0  0  0  0  0
    1.2106    6.1304    2.1997 H   0  0  0  0  0  0  0  0  0  0  0  0
   -2.0083    1.2380   -1.4695 H   0  0  0  0  0  0  0  0  0  0  0  0
   -4.2005    0.2483    0.2417 H   0  0  0  0  0  0  0  0  0  0  0  0
   -4.4859   -1.3433   -1.8575 H   0  0  0  0  0  0  0  0  0  0  0  0
   -2.9267   -0.7406   -2.3759 H   0  0  0  0  0  0  0  0  0  0  0  0
   -0.7023   -1.5075   -0.8747 H   0  0  0  0  0  0  0  0  0  0  0  0
    4.7381    1.0970    1.2716 H   0  0  0  0  0  0  0  0  0  0  0  0
   -0.4240   -3.3652    0.7806 H   0  0  0  0  0  0  0  0  0  0  0  0
   -6.9757    1.3817   -1.5465 H   0  0  0  0  0  0  0  0  0  0  0  0
   -6.3707    0.2735   -0.3682 H   0  0  0  0  0  0  0  0  0  0  0  0
   -5.6941   -2.6322    0.0031 H   0  0  0  0  0  0  0  0  0  0  0  0
    5.3334   -2.9134   -1.5886 H   0  0  0  0  0  0  0  0  0  0  0  0
    6.4649   -0.5188    1.8210 H   0  0  0  0  0  0  0  0  0  0  0  0
   -2.0176   -5.1218    2.3051 H   0  0  0  0  0  0  0  0  0  0  0  0
   -6.2135   -4.4472    1.6041 H   0  0  0  0  0  0  0  0  0  0  0  0
   -4.4043   -5.6796    2.7443 H   0  0  0  0  0  0  0  0  0  0  0  0
    1.5992   -2.0347   -3.0443 H   0  0  0  0  0  0  0  0  0  0  0  0
    1.6394   -1.7028   -1.2980 H   0  0  0  0  0  0  0  0  0  0  0  0
    2.4590   -3.1515   -1.9597 H   0  0  0  0  0  0  0  0  0  0  0  0
    7.0132   -5.3143    1.1611 H   0  0  0  0  0  0  0  0  0  0  0  0
    5.5713   -4.3629    1.5741 H   0  0  0  0  0  0  0  0  0  0  0  0
    5.8725   -4.8511   -0.1160 H   0  0  0  0  0  0  0  0  0  0  0  0
  1 35  1  0  0  0  0
  1 39  1  0  0  0  0
  2 13  1  0  0  0  0
  2 48  1  0  0  0  0
  3 16  1  0  0  0  0
  3 49  1  0  0  0  0
  4 18  1  0  0  0  0
  4 50  1  0  0  0  0
  5 19  2  0  0  0  0
  6 21  2  0  0  0  0
  7 25  2  0  0  0  0
  8 27  1  0  0  0  0
  8 38  1  0  0  0  0
  9 14  1  0  0  0  0
  9 21  1  0  0  0  0
  9 47  1  0  0  0  0
 10 19  1  0  0  0  0
 10 20  1  0  0  0  0
 10 51  1  0  0  0  0
 11 28  1  0  0  0  0
 11 30  1  0  0  0  0
 11 57  1  0  0  0  0
 12 25  1  0  0  0  0
 12 58  1  0  0  0  0
 12 59  1  0  0  0  0
 13 15  1  0  0  0  0
 13 17  1  0  0  0  0
 13 19  1  0  0  0  0
 14 15  1  0  0  0  0
 14 16  1  0  0  0  0
 14 40  1  0  0  0  0
 15 41  1  0  0  0  0
 15 42  1  0  0  0  0
 16 18  1  0  0  0  0
 16 43  1  0  0  0  0
 17 18  1  0  0  0  0
 17 44  1  0  0  0  0
 17 45  1  0  0  0  0
 18 46  1  0  0  0  0
 20 22  1  0  0  0  0
 20 25  1  0  0  0  0
 20 52  1  0  0  0  0
 21 23  1  0  0  0  0
 22 24  1  0  0  0  0
 22 53  1  0  0  0  0
 22 54  1  0  0  0  0
 23 27  2  0  0  0  0
 23 29  1  0  0  0  0
 24 26  1  0  0  0  0
 24 28  2  0  0  0  0
 26 30  1  0  0  0  0
 26 31  2  0  0  0  0
 27 32  1  0  0  0  0
 28 55  1  0  0  0  0
 29 33  2  0  0  0  0
 29 56  1  0  0  0  0
 30 34  2  0  0  0  0
 31 36  1  0  0  0  0
 31 60  1  0  0  0  0
 32 35  2  0  0  0  0
 32 61  1  0  0  0  0
 33 35  1  0  0  0  0
 33 62  1  0  0  0  0
 34 37  1  0  0  0  0
 34 63  1  0  0  0  0
 36 37  2  0  0  0  0
 36 64  1  0  0  0  0
 37 65  1  0  0  0  0
 38 66  1  0  0  0  0
 38 67  1  0  0  0  0
 38 68  1  0  0  0  0
 39 69  1  0  0  0  0
 39 70  1  0  0  0  0
 39 71  1  0  0  0  0
M  END
> <PUBCHEM_COMPOUND_CID>
11882559

> <PUBCHEM_CONFORMER_RMSD>
1.2

> <PUBCHEM_CONFORMER_DIVERSEORDER>
1
103
41
49
70
84
78
13
34
133
141
65
73
122
89
72
40
142
24
136
47
10
75
80
107
26
29
11
28
92
88
3
50
64
55
32
97
102
81
138
86
4
14
33
125
115
27
145
91
110
77
83
113
67
99
129
23
7
93
74
135
95
144
48
66
127
37
8
63
45
90
9
43
82
15
134
51
22
85
38
12
35
118
52
130
123
104
69
139
143
76
96
101
124
112
114
36
87
6
100
5
54
21
59
71
46
19
56
132
128
39
58
94
105
60
111
16
30
42
117
44
18
108
121
106
31
17
57
53
25
119
20
116
2
120
61
62
137
109
68
126
98
79
131
140

> <PUBCHEM_MMFF94_PARTIAL_CHARGES>
52
1 -0.33
10 -0.73
11 0.03
12 -0.8
13 0.34
14 0.3
16 0.28
18 0.28
19 0.57
2 -0.68
20 0.36
21 0.54
22 0.18
23 0.09
24 -0.18
25 0.57
27 0.08
28 -0.3
29 -0.15
3 -0.68
30 -0.15
31 -0.15
32 -0.15
33 -0.15
34 -0.15
35 0.1
36 -0.15
37 -0.15
38 0.28
39 0.23
4 -0.68
47 0.37
48 0.4
49 0.4
5 -0.57
50 0.4
51 0.37
55 0.15
56 0.15
57 0.27
58 0.37
59 0.37
6 -0.57
60 0.15
61 0.15
62 0.15
63 0.15
64 0.15
65 0.15
7 -0.57
8 -0.36
9 -0.73

> <PUBCHEM_EFFECTIVE_ROTOR_COUNT>
12.2

> <PUBCHEM_PHARMACOPHORE_FEATURES>
20
1 10 donor
1 11 cation
1 11 donor
1 12 donor
1 2 acceptor
1 2 donor
1 3 acceptor
1 3 donor
1 39 hydrophobe
1 4 acceptor
1 4 donor
1 5 acceptor
1 6 acceptor
1 7 acceptor
1 8 acceptor
1 9 donor
5 11 24 26 28 30 rings
6 13 14 15 16 17 18 rings
6 23 27 29 32 33 35 rings
6 26 30 31 34 36 37 rings

> <PUBCHEM_HEAVY_ATOM_COUNT>
39

> <PUBCHEM_ATOM_DEF_STEREO_COUNT>
5

> <PUBCHEM_ATOM_UDEF_STEREO_COUNT>
0

> <PUBCHEM_BOND_DEF_STEREO_COUNT>
0

> <PUBCHEM_BOND_UDEF_STEREO_COUNT>
0

> <PUBCHEM_ISOTOPIC_ATOM_COUNT>
0

> <PUBCHEM_COMPONENT_COUNT>
1

> <PUBCHEM_CACTVS_TAUTO_COUNT>
8

> <PUBCHEM_CONFORMER_ID>
00B5503F00000001

> <PUBCHEM_MMFF94_ENERGY>
106.6175

> <PUBCHEM_FEATURE_SELFOVERLAP>
101.621

> <PUBCHEM_SHAPE_FINGERPRINT>
10100884 174 18191860133895512698
10169797 241 18127983103772137750
10290309 65 17621028098613903489
10653451 467 18409453592506155119
11828532 37 18336825390092368511
12202916 173 18128804266426405983
14394314 77 18126564509691111673
14725015 67 18340195289972782805
15001296 14 18187354412252792330
150020 26 18053384580832213157
15351339 4 18048583834177286077
15392192 29 18271259222220301372
15728490 83 18335145275715861762
15968369 26 18049417516962382552
17627616 140 17831012429901662203
17909252 39 18048603908437846088
19301676 85 18340194203203885551
19311894 1 18410296865350999427
19611394 137 18200302235981274256
1979834 28 17257382267668469643
20764821 26 18194712360612664070
20775530 9 18196380435652885461
23572383 38 18342450435597464702
3044373 233 18046921646825630666
3383291 50 18410293575944354387
4394409 98 17971181530832527845
463206 1 18411986819091743392
49967989 163 18267040362393834870
508706 21 18270131088914472062
513202 73 17822866406730191019
613672 6 18201438064913573092
6695519 79 16977858924071620001
6700243 42 16879893391440169223

> <PUBCHEM_SHAPE_MULTIPOLES>
745.44
15.03
8.58
1.98
14.93
1.88
-0.42
-18.49
-0.62
-3.99
6.68
-0.85
0.17
3.62

> <PUBCHEM_SHAPE_SELFOVERLAP>
1591.254

> <PUBCHEM_SHAPE_VOLUME>
417.9

> <PUBCHEM_COORDINATE_TYPE>
2
5
10

$$$$
