45360866
  -OEChem-12032416353D

 64 67  0     1  0  0  0  0  0999 V2000
   -5.7790    0.3585   -2.0944 F   0  0  0  0  0  0  0  0  0  0  0  0
   -7.9576    0.3722   -1.9226 F   0  0  0  0  0  0  0  0  0  0  0  0
   -6.8312   -1.3042   -1.0878 F   0  0  0  0  0  0  0  0  0  0  0  0
    0.6161    0.9269    1.4846 O   0  0  0  0  0  0  0  0  0  0  0  0
    6.7196   -0.8710   -0.2309 O   0  0  0  0  0  0  0  0  0  0  0  0
   -6.7433    0.7347   -0.0549 O   0  0  0  0  0  0  0  0  0  0  0  0
    1.9634   -2.0374   -0.6101 N   0  0  1  0  0  0  0  0  0  0  0  0
   -1.2733   -0.7112    0.4653 N   0  0  1  0  0  0  0  0  0  0  0  0
    2.0969   -0.7493    1.9680 N   0  0  0  0  0  0  0  0  0  0  0  0
    5.9235    1.2758   -0.5389 N   0  0  0  0  0  0  0  0  0  0  0  0
    0.5257   -2.1595   -0.2817 C   0  0  1  0  0  0  0  0  0  0  0  0
   -0.0292   -1.3535    0.9293 C   0  0  1  0  0  0  0  0  0  0  0  0
   -0.4147   -1.7178   -1.4187 C   0  0  0  0  0  0  0  0  0  0  0  0
   -1.7248   -1.4502   -0.7085 C   0  0  0  0  0  0  0  0  0  0  0  0
    2.8822   -2.5411    0.4488 C   0  0  2  0  0  0  0  0  0  0  0  0
    0.9025   -0.2693    1.4651 C   0  0  0  0  0  0  0  0  0  0  0  0
    2.4976   -2.1399    1.8863 C   0  0  0  0  0  0  0  0  0  0  0  0
    4.3206   -2.0423    0.1970 C   0  0  0  0  0  0  0  0  0  0  0  0
   -2.3023   -0.6349    1.4944 C   0  0  0  0  0  0  0  0  0  0  0  0
    2.2636   -2.6870   -1.8972 C   0  0  0  0  0  0  0  0  0  0  0  0
    4.3650   -0.5503   -0.0698 C   0  0  0  0  0  0  0  0  0  0  0  0
   -3.3175    0.4356    1.1938 C   0  0  0  0  0  0  0  0  0  0  0  0
    5.7797   -0.0765   -0.2873 C   0  0  0  0  0  0  0  0  0  0  0  0
    4.8548    2.2663   -0.6225 C   0  0  0  0  0  0  0  0  0  0  0  0
    7.2238    1.8904   -0.7634 C   0  0  0  0  0  0  0  0  0  0  0  0
    5.5786    3.6053   -0.6352 C   0  0  0  0  0  0  0  0  0  0  0  0
    6.9020    3.2718   -1.3123 C   0  0  0  0  0  0  0  0  0  0  0  0
   -4.5756    0.0853    0.7035 C   0  0  0  0  0  0  0  0  0  0  0  0
   -2.9999    1.7774    1.4048 C   0  0  0  0  0  0  0  0  0  0  0  0
   -5.5163    1.0769    0.4244 C   0  0  0  0  0  0  0  0  0  0  0  0
   -3.9404    2.7689    1.1254 C   0  0  0  0  0  0  0  0  0  0  0  0
   -5.1986    2.4187    0.6354 C   0  0  0  0  0  0  0  0  0  0  0  0
   -6.8122    0.0305   -1.2898 C   0  0  0  0  0  0  0  0  0  0  0  0
    0.3058   -3.2214   -0.0905 H   0  0  0  0  0  0  0  0  0  0  0  0
   -0.2516   -2.0540    1.7453 H   0  0  0  0  0  0  0  0  0  0  0  0
   -0.0511   -0.7982   -1.8967 H   0  0  0  0  0  0  0  0  0  0  0  0
   -0.5312   -2.4872   -2.1889 H   0  0  0  0  0  0  0  0  0  0  0  0
   -2.2111   -2.3980   -0.4451 H   0  0  0  0  0  0  0  0  0  0  0  0
   -2.4022   -0.8643   -1.3372 H   0  0  0  0  0  0  0  0  0  0  0  0
    2.9008   -3.6396    0.4282 H   0  0  0  0  0  0  0  0  0  0  0  0
    3.3331   -2.2782    2.5817 H   0  0  0  0  0  0  0  0  0  0  0  0
    1.6851   -2.7722    2.2579 H   0  0  0  0  0  0  0  0  0  0  0  0
    4.9589   -2.2939    1.0546 H   0  0  0  0  0  0  0  0  0  0  0  0
    4.7647   -2.5843   -0.6471 H   0  0  0  0  0  0  0  0  0  0  0  0
   -2.7886   -1.6053    1.6626 H   0  0  0  0  0  0  0  0  0  0  0  0
   -1.8517   -0.3731    2.4623 H   0  0  0  0  0  0  0  0  0  0  0  0
    2.7274   -0.0881    2.4109 H   0  0  0  0  0  0  0  0  0  0  0  0
    3.3124   -2.5727   -2.1848 H   0  0  0  0  0  0  0  0  0  0  0  0
    1.7069   -2.2268   -2.7196 H   0  0  0  0  0  0  0  0  0  0  0  0
    2.0303   -3.7575   -1.8741 H   0  0  0  0  0  0  0  0  0  0  0  0
    3.9954    0.0198    0.7798 H   0  0  0  0  0  0  0  0  0  0  0  0
    3.7861   -0.2814   -0.9591 H   0  0  0  0  0  0  0  0  0  0  0  0
    4.1599    2.1778    0.2165 H   0  0  0  0  0  0  0  0  0  0  0  0
    4.3119    2.0950   -1.5582 H   0  0  0  0  0  0  0  0  0  0  0  0
    7.8288    1.2861   -1.4458 H   0  0  0  0  0  0  0  0  0  0  0  0
    7.7348    1.9505    0.2038 H   0  0  0  0  0  0  0  0  0  0  0  0
    5.7635    3.9421    0.3920 H   0  0  0  0  0  0  0  0  0  0  0  0
    5.0150    4.3841   -1.1558 H   0  0  0  0  0  0  0  0  0  0  0  0
    6.7595    3.2211   -2.3985 H   0  0  0  0  0  0  0  0  0  0  0  0
    7.6873    4.0028   -1.1021 H   0  0  0  0  0  0  0  0  0  0  0  0
   -4.8243   -0.9609    0.5443 H   0  0  0  0  0  0  0  0  0  0  0  0
   -2.0244    2.0642    1.7878 H   0  0  0  0  0  0  0  0  0  0  0  0
   -3.6932    3.8137    1.2897 H   0  0  0  0  0  0  0  0  0  0  0  0
   -5.9269    3.1956    0.4193 H   0  0  0  0  0  0  0  0  0  0  0  0
  1 33  1  0  0  0  0
  2 33  1  0  0  0  0
  3 33  1  0  0  0  0
  4 16  2  0  0  0  0
  5 23  2  0  0  0  0
  6 30  1  0  0  0  0
  6 33  1  0  0  0  0
  7 11  1  0  0  0  0
  7 15  1  0  0  0  0
  7 20  1  0  0  0  0
  8 12  1  0  0  0  0
  8 14  1  0  0  0  0
  8 19  1  0  0  0  0
  9 16  1  0  0  0  0
  9 17  1  0  0  0  0
  9 47  1  0  0  0  0
 10 23  1  0  0  0  0
 10 24  1  0  0  0  0
 10 25  1  0  0  0  0
 11 12  1  0  0  0  0
 11 13  1  0  0  0  0
 11 34  1  0  0  0  0
 12 16  1  0  0  0  0
 12 35  1  0  0  0  0
 13 14  1  0  0  0  0
 13 36  1  0  0  0  0
 13 37  1  0  0  0  0
 14 38  1  0  0  0  0
 14 39  1  0  0  0  0
 15 17  1  0  0  0  0
 15 18  1  0  0  0  0
 15 40  1  0  0  0  0
 17 41  1  0  0  0  0
 17 42  1  0  0  0  0
 18 21  1  0  0  0  0
 18 43  1  0  0  0  0
 18 44  1  0  0  0  0
 19 22  1  0  0  0  0
 19 45  1  0  0  0  0
 19 46  1  0  0  0  0
 20 48  1  0  0  0  0
 20 49  1  0  0  0  0
 20 50  1  0  0  0  0
 21 23  1  0  0  0  0
 21 51  1  0  0  0  0
 21 52  1  0  0  0  0
 22 28  2  0  0  0  0
 22 29  1  0  0  0  0
 24 26  1  0  0  0  0
 24 53  1  0  0  0  0
 24 54  1  0  0  0  0
 25 27  1  0  0  0  0
 25 55  1  0  0  0  0
 25 56  1  0  0  0  0
 26 27  1  0  0  0  0
 26 57  1  0  0  0  0
 26 58  1  0  0  0  0
 27 59  1  0  0  0  0
 27 60  1  0  0  0  0
 28 30  1  0  0  0  0
 28 61  1  0  0  0  0
 29 31  2  0  0  0  0
 29 62  1  0  0  0  0
 30 32  2  0  0  0  0
 31 32  1  0  0  0  0
 31 63  1  0  0  0  0
 32 64  1  0  0  0  0
M  END
> <PUBCHEM_COMPOUND_CID>
45360866

> <PUBCHEM_CONFORMER_RMSD>
1.2

> <PUBCHEM_CONFORMER_DIVERSEORDER>
1
213
77
206
185
161
89
114
126
46
8
83
34
103
169
181
135
186
196
211
87
156
73
111
59
216
45
20
184
152
153
116
218
50
57
151
39
217
144
78
100
139
174
146
115
43
106
120
195
190
202
148
24
223
199
222
21
72
68
220
107
33
189
178
92
208
90
164
13
155
53
179
200
219
209
119
16
25
131
9
65
91
203
76
133
95
82
38
108
94
198
75
183
35
154
98
197
54
143
212
10
128
125
67
162
140
165
207
80
37
137
113
163
71
142
22
19
168
224
121
66
117
205
99
204
79
127
17
171
187
134
210
149
110
49
32
93
7
23
129
166
214
81
30
62
60
141
158
130
61
58
215
69
11
136
64
138
105
56
84
18
188
74
48
145
12
159
31
221
160
96
150
118
29
3
123
88
42
175
97
15
85
14
170
70
173
122
104
52
36
112
109
4
180
27
40
102
44
55
192
132
6
176
177
47
41
147
51
167
191
101
193
201
182
194
157
28
124
63
172
86
5
26
2

> <PUBCHEM_MMFF94_PARTIAL_CHARGES>
34
1 -0.34
10 -0.66
11 0.27
12 0.33
14 0.27
15 0.27
16 0.57
17 0.3
19 0.41
2 -0.34
20 0.27
21 0.06
22 -0.14
23 0.57
24 0.3
25 0.3
28 -0.15
29 -0.15
3 -0.34
30 0.08
31 -0.15
32 -0.15
33 1.3
4 -0.57
47 0.37
5 -0.57
6 -0.36
61 0.15
62 0.15
63 0.15
64 0.15
7 -0.81
8 -0.81
9 -0.73

> <PUBCHEM_EFFECTIVE_ROTOR_COUNT>
10.4

> <PUBCHEM_PHARMACOPHORE_FEATURES>
10
1 4 acceptor
1 5 acceptor
1 6 acceptor
1 7 cation
1 8 cation
1 9 donor
5 10 24 25 26 27 rings
5 8 11 12 13 14 rings
6 22 28 29 30 31 32 rings
7 7 9 11 12 15 16 17 rings

> <PUBCHEM_HEAVY_ATOM_COUNT>
33

> <PUBCHEM_ATOM_DEF_STEREO_COUNT>
3

> <PUBCHEM_ATOM_UDEF_STEREO_COUNT>
0

> <PUBCHEM_BOND_DEF_STEREO_COUNT>
0

> <PUBCHEM_BOND_UDEF_STEREO_COUNT>
0

> <PUBCHEM_ISOTOPIC_ATOM_COUNT>
0

> <PUBCHEM_COMPONENT_COUNT>
1

> <PUBCHEM_CACTVS_TAUTO_COUNT>
3

> <PUBCHEM_CONFORMER_ID>
02B426E200000001

> <PUBCHEM_MMFF94_ENERGY>
92.2244

> <PUBCHEM_FEATURE_SELFOVERLAP>
50.783

> <PUBCHEM_SHAPE_FINGERPRINT>
10533779 1 18117272765481560732
10673678 19 18341903991372010890
11101153 10 18410858729163354705
12522641 24 16950830424520980754
12821665 9 18413110585011496639
13782708 43 12319462048017414740
14117953 113 18411708691044640964
14190465 44 18271234032811786002
14429380 56 18334006194564099100
14767858 380 18060700589284780553
15082195 135 18273493472807930930
15183329 4 18202569501049402424
15361156 5 18202003188959222729
15475509 35 8574424284890897406
15510800 12 12463578374708244588
15840311 113 18334022665901043508
15961568 22 18336552620413187693
18335252 114 18409168797408519622
20511986 3 17022901238194452139
20715895 44 18412553102778134224
21033648 29 16226048864813066689
21150785 3 18343298159073068315
21344244 181 13686294694816682508
22122407 14 18262814994778641824
23522609 53 17845112691855157505
27425 322 18334297595907446134
2838139 119 18336272245042732136
3472631 163 18412834594687151662
34797466 226 18271257006101423219
4169191 19 18334020496747756657
4258327 124 18411986896543605519
70634741 139 18187365485021801443
7970288 3 9438587639344155052
999808 66 12031794673417111661

> <PUBCHEM_SHAPE_MULTIPOLES>
619.77
20.72
3.68
1.81
7.49
1.86
0.14
15.82
9.94
-5.79
0.6
1.57
-0.4
-2.83

> <PUBCHEM_SHAPE_SELFOVERLAP>
1309.475

> <PUBCHEM_SHAPE_VOLUME>
348.9

> <PUBCHEM_COORDINATE_TYPE>
2
5
10

$$$$
