38027325
  -OEChem-12032416253D

 69 71  0     1  0  0  0  0  0999 V2000
   -3.8671   -0.3013   -1.5327 O   0  0  0  0  0  0  0  0  0  0  0  0
    2.0449   -0.1916    2.6844 O   0  0  0  0  0  0  0  0  0  0  0  0
    3.8776   -0.2870   -0.8770 O   0  0  0  0  0  0  0  0  0  0  0  0
   -2.4753    1.5055   -1.0867 N   0  0  0  0  0  0  0  0  0  0  0  0
    2.0798   -1.3739    0.6877 N   0  0  0  0  0  0  0  0  0  0  0  0
   -0.8303   -2.1011    0.9031 C   0  0  1  0  0  0  0  0  0  0  0  0
    0.3291   -3.0666    0.5511 C   0  0  1  0  0  0  0  0  0  0  0  0
   -1.9992   -2.2875   -0.0764 C   0  0  0  0  0  0  0  0  0  0  0  0
   -1.5809   -2.0360   -1.5373 C   0  0  2  0  0  0  0  0  0  0  0  0
   -1.3209   -2.3016    2.3403 C   0  0  0  0  0  0  0  0  0  0  0  0
   -0.2883   -2.7468   -1.8833 C   0  0  0  0  0  0  0  0  0  0  0  0
    0.5460   -3.2123   -0.9369 C   0  0  0  0  0  0  0  0  0  0  0  0
   -1.4776   -0.5352   -1.8317 C   0  0  0  0  0  0  0  0  0  0  0  0
    1.6374   -2.6258    1.2172 C   0  0  0  0  0  0  0  0  0  0  0  0
   -3.4997    2.4414   -0.6935 C   0  0  0  0  0  0  0  0  0  0  0  0
   -1.9846   -1.0296    2.8583 C   0  0  0  0  0  0  0  0  0  0  0  0
   -2.2834   -3.4826    2.4141 C   0  0  0  0  0  0  0  0  0  0  0  0
   -3.0779    3.8810   -0.9585 C   0  0  0  0  0  0  0  0  0  0  0  0
   -3.7327    2.4296    0.8126 C   0  0  0  0  0  0  0  0  0  0  0  0
    0.0019   -2.9512   -3.3443 C   0  0  0  0  0  0  0  0  0  0  0  0
   -2.7486    0.2026   -1.4762 C   0  0  0  0  0  0  0  0  0  0  0  0
   -2.2053    4.2514    0.2376 C   0  0  0  0  0  0  0  0  0  0  0  0
   -2.6553    3.3483    1.3863 C   0  0  0  0  0  0  0  0  0  0  0  0
    2.2520   -0.2356    1.4745 C   0  0  0  0  0  0  0  0  0  0  0  0
    2.6923    0.9949    0.7682 C   0  0  0  0  0  0  0  0  0  0  0  0
    3.4857    0.9186   -0.3765 C   0  0  0  0  0  0  0  0  0  0  0  0
    2.3018    2.2388    1.2645 C   0  0  0  0  0  0  0  0  0  0  0  0
    3.8887    2.0860   -1.0250 C   0  0  0  0  0  0  0  0  0  0  0  0
    2.7045    3.4062    0.6157 C   0  0  0  0  0  0  0  0  0  0  0  0
    3.4982    3.3298   -0.5288 C   0  0  0  0  0  0  0  0  0  0  0  0
    4.6874   -0.2682   -2.0507 C   0  0  0  0  0  0  0  0  0  0  0  0
   -0.4746   -1.0684    0.8021 H   0  0  0  0  0  0  0  0  0  0  0  0
    0.0960   -4.0714    0.9253 H   0  0  0  0  0  0  0  0  0  0  0  0
   -2.8570   -1.6765    0.2134 H   0  0  0  0  0  0  0  0  0  0  0  0
   -2.3504   -3.3280   -0.0525 H   0  0  0  0  0  0  0  0  0  0  0  0
   -2.3792   -2.4554   -2.1658 H   0  0  0  0  0  0  0  0  0  0  0  0
   -0.4771   -2.5098    3.0059 H   0  0  0  0  0  0  0  0  0  0  0  0
    1.4373   -3.7565   -1.2436 H   0  0  0  0  0  0  0  0  0  0  0  0
   -1.3041   -0.3638   -2.9012 H   0  0  0  0  0  0  0  0  0  0  0  0
   -0.6229   -0.1007   -1.2990 H   0  0  0  0  0  0  0  0  0  0  0  0
    2.4314   -3.3521    1.0050 H   0  0  0  0  0  0  0  0  0  0  0  0
    1.5454   -2.5749    2.3054 H   0  0  0  0  0  0  0  0  0  0  0  0
   -4.4202    2.1940   -1.2330 H   0  0  0  0  0  0  0  0  0  0  0  0
   -2.8765   -0.7631    2.2834 H   0  0  0  0  0  0  0  0  0  0  0  0
   -1.2915   -0.1822    2.8222 H   0  0  0  0  0  0  0  0  0  0  0  0
   -2.2930   -1.1573    3.9018 H   0  0  0  0  0  0  0  0  0  0  0  0
   -3.2635   -3.2684    1.9749 H   0  0  0  0  0  0  0  0  0  0  0  0
   -2.4760   -3.7237    3.4670 H   0  0  0  0  0  0  0  0  0  0  0  0
   -1.8747   -4.3901    1.9599 H   0  0  0  0  0  0  0  0  0  0  0  0
   -3.9629    4.5290   -0.9729 H   0  0  0  0  0  0  0  0  0  0  0  0
   -2.5484    4.0121   -1.9075 H   0  0  0  0  0  0  0  0  0  0  0  0
   -3.6930    1.4285    1.2529 H   0  0  0  0  0  0  0  0  0  0  0  0
   -4.7194    2.8544    1.0352 H   0  0  0  0  0  0  0  0  0  0  0  0
   -0.8253   -3.4831   -3.8253 H   0  0  0  0  0  0  0  0  0  0  0  0
    0.9106   -3.5410   -3.5057 H   0  0  0  0  0  0  0  0  0  0  0  0
    0.1398   -1.9904   -3.8492 H   0  0  0  0  0  0  0  0  0  0  0  0
   -2.3026    5.3121    0.4904 H   0  0  0  0  0  0  0  0  0  0  0  0
   -1.1488    4.0651    0.0117 H   0  0  0  0  0  0  0  0  0  0  0  0
   -1.8054    2.7605    1.7522 H   0  0  0  0  0  0  0  0  0  0  0  0
   -3.0399    3.9281    2.2316 H   0  0  0  0  0  0  0  0  0  0  0  0
   -1.5086    1.8136   -1.0349 H   0  0  0  0  0  0  0  0  0  0  0  0
    2.2883   -1.3300   -0.3047 H   0  0  0  0  0  0  0  0  0  0  0  0
    1.6783    2.3201    2.1510 H   0  0  0  0  0  0  0  0  0  0  0  0
    4.5042    2.1060   -1.9176 H   0  0  0  0  0  0  0  0  0  0  0  0
    2.3984    4.3746    1.0006 H   0  0  0  0  0  0  0  0  0  0  0  0
    3.8107    4.2396   -1.0332 H   0  0  0  0  0  0  0  0  0  0  0  0
    4.9043   -1.3103   -2.3076 H   0  0  0  0  0  0  0  0  0  0  0  0
    5.6507    0.2206   -1.8697 H   0  0  0  0  0  0  0  0  0  0  0  0
    4.1524    0.1631   -2.9038 H   0  0  0  0  0  0  0  0  0  0  0  0
  1 21  2  0  0  0  0
  2 24  2  0  0  0  0
  3 26  1  0  0  0  0
  3 31  1  0  0  0  0
  4 15  1  0  0  0  0
  4 21  1  0  0  0  0
  4 61  1  0  0  0  0
  5 14  1  0  0  0  0
  5 24  1  0  0  0  0
  5 62  1  0  0  0  0
  6  7  1  0  0  0  0
  6  8  1  0  0  0  0
  6 10  1  0  0  0  0
  6 32  1  0  0  0  0
  7 12  1  0  0  0  0
  7 14  1  0  0  0  0
  7 33  1  0  0  0  0
  8  9  1  0  0  0  0
  8 34  1  0  0  0  0
  8 35  1  0  0  0  0
  9 11  1  0  0  0  0
  9 13  1  0  0  0  0
  9 36  1  0  0  0  0
 10 16  1  0  0  0  0
 10 17  1  0  0  0  0
 10 37  1  0  0  0  0
 11 12  2  0  0  0  0
 11 20  1  0  0  0  0
 12 38  1  0  0  0  0
 13 21  1  0  0  0  0
 13 39  1  0  0  0  0
 13 40  1  0  0  0  0
 14 41  1  0  0  0  0
 14 42  1  0  0  0  0
 15 18  1  0  0  0  0
 15 19  1  0  0  0  0
 15 43  1  0  0  0  0
 16 44  1  0  0  0  0
 16 45  1  0  0  0  0
 16 46  1  0  0  0  0
 17 47  1  0  0  0  0
 17 48  1  0  0  0  0
 17 49  1  0  0  0  0
 18 22  1  0  0  0  0
 18 50  1  0  0  0  0
 18 51  1  0  0  0  0
 19 23  1  0  0  0  0
 19 52  1  0  0  0  0
 19 53  1  0  0  0  0
 20 54  1  0  0  0  0
 20 55  1  0  0  0  0
 20 56  1  0  0  0  0
 22 23  1  0  0  0  0
 22 57  1  0  0  0  0
 22 58  1  0  0  0  0
 23 59  1  0  0  0  0
 23 60  1  0  0  0  0
 24 25  1  0  0  0  0
 25 26  1  0  0  0  0
 25 27  2  0  0  0  0
 26 28  2  0  0  0  0
 27 29  1  0  0  0  0
 27 63  1  0  0  0  0
 28 30  1  0  0  0  0
 28 64  1  0  0  0  0
 29 30  2  0  0  0  0
 29 65  1  0  0  0  0
 30 66  1  0  0  0  0
 31 67  1  0  0  0  0
 31 68  1  0  0  0  0
 31 69  1  0  0  0  0
M  END
> <PUBCHEM_COMPOUND_CID>
38027325

> <PUBCHEM_CONFORMER_RMSD>
1

> <PUBCHEM_CONFORMER_DIVERSEORDER>
2
121
78
63
27
162
90
89
77
141
131
43
41
37
95
145
132
159
128
161
148
127
82
155
64
133
113
26
76
69
139
111
51
119
107
33
13
12
52
60
92
100
129
6
65
48
118
46
114
134
158
32
62
109
105
110
115
88
103
53
79
117
31
81
40
125
25
99
112
104
11
157
126
152
94
142
50
66
80
74
17
135
61
138
106
55
140
14
47
101
18
49
116
136
144
93
42
98
58
149
150
3
143
84
1
71
39
147
83
137
96
72
146
102
59
19
5
38
34
45
122
108
156
160
9
23
123
54
67
7
57
151
75
20
130
124
120
28
35
70
44
4
16
154
56
21
10
85
97
73
36
30
86
91
87
8
24
153
68
29
15
22

> <PUBCHEM_MMFF94_PARTIAL_CHARGES>
29
1 -0.57
11 -0.28
12 -0.29
13 0.06
14 0.3
15 0.3
2 -0.57
20 0.14
21 0.57
24 0.54
25 0.09
26 0.08
27 -0.15
28 -0.15
29 -0.15
3 -0.36
30 -0.15
31 0.28
38 0.15
4 -0.73
5 -0.73
61 0.37
62 0.37
63 0.15
64 0.15
65 0.15
66 0.15
7 0.14
9 0.14

> <PUBCHEM_EFFECTIVE_ROTOR_COUNT>
11.8

> <PUBCHEM_PHARMACOPHORE_FEATURES>
9
1 1 acceptor
1 2 acceptor
1 3 acceptor
1 4 donor
1 5 donor
3 10 16 17 hydrophobe
5 15 18 19 22 23 rings
6 25 26 27 28 29 30 rings
6 6 7 8 9 11 12 rings

> <PUBCHEM_HEAVY_ATOM_COUNT>
31

> <PUBCHEM_ATOM_DEF_STEREO_COUNT>
3

> <PUBCHEM_ATOM_UDEF_STEREO_COUNT>
0

> <PUBCHEM_BOND_DEF_STEREO_COUNT>
0

> <PUBCHEM_BOND_UDEF_STEREO_COUNT>
0

> <PUBCHEM_ISOTOPIC_ATOM_COUNT>
0

> <PUBCHEM_COMPONENT_COUNT>
1

> <PUBCHEM_CACTVS_TAUTO_COUNT>
4

> <PUBCHEM_CONFORMER_ID>
0244403D00000002

> <PUBCHEM_MMFF94_ENERGY>
77.0237

> <PUBCHEM_FEATURE_SELFOVERLAP>
45.671

> <PUBCHEM_SHAPE_FINGERPRINT>
11513181 2 15762143803168764885
11578080 2 17393935753118612334
12156800 1 16957378054085589645
12788726 201 18122607603739500733
13122387 1 18339062839982616957
13583140 156 17321547077853833117
13642711 20 17473583189822745699
13965767 371 16830887809975555883
14251757 17 16343120460117265305
151778 21 18267023843121575213
15664445 248 16903799097320211926
20465049 17 18270129989213050476
21860390 5 17762332518382832765
238 59 18196094335175745169
35225 105 18338505439205855661
469060 322 17476352181082497474
5895379 119 18270663356054079440

> <PUBCHEM_SHAPE_MULTIPOLES>
610.4
7.26
6.3
2.91
5.14
3.51
0.09
6.34
-1.53
-3.73
0.11
-0.93
-2.63
0.98

> <PUBCHEM_SHAPE_SELFOVERLAP>
1267.56

> <PUBCHEM_SHAPE_VOLUME>
346.5

> <PUBCHEM_COORDINATE_TYPE>
2
5
10

$$$$
