11865930
  -OEChem-12032416153D

 63 67  0     1  0  0  0  0  0999 V2000
    0.0127    0.8317    2.1766 O   0  0  0  0  0  0  0  0  0  0  0  0
    3.1626    3.5092   -1.7826 O   0  0  0  0  0  0  0  0  0  0  0  0
    6.0991   -1.4188    0.4906 O   0  0  0  0  0  0  0  0  0  0  0  0
   -1.9053   -0.5908    0.3337 O   0  0  0  0  0  0  0  0  0  0  0  0
   -4.6185   -0.9516   -1.9992 O   0  0  0  0  0  0  0  0  0  0  0  0
    1.8692    1.4107    0.9097 N   0  0  0  0  0  0  0  0  0  0  0  0
   -1.7775    1.7185    0.2601 N   0  0  0  0  0  0  0  0  0  0  0  0
    1.0437    3.6211   -1.0044 N   0  0  0  0  0  0  0  0  0  0  0  0
    3.8523   -0.8929    0.6705 N   0  0  0  0  0  0  0  0  0  0  0  0
   -0.3426    1.7978   -0.0065 C   0  0  1  0  0  0  0  0  0  0  0  0
    2.4953    1.6622   -0.3927 C   0  0  2  0  0  0  0  0  0  0  0  0
   -0.0498    3.2971   -0.1139 C   0  0  2  0  0  0  0  0  0  0  0  0
    4.0268    0.4833    1.0701 C   0  0  1  0  0  0  0  0  0  0  0  0
    3.9959    1.4229   -0.1318 C   0  0  0  0  0  0  0  0  0  0  0  0
    2.8498    0.9781    1.8981 C   0  0  0  0  0  0  0  0  0  0  0  0
   -1.3865    3.8826   -0.5607 C   0  0  0  0  0  0  0  0  0  0  0  0
    0.5040    1.2776    1.1410 C   0  0  0  0  0  0  0  0  0  0  0  0
   -2.3885    3.0440    0.2184 C   0  0  0  0  0  0  0  0  0  0  0  0
    2.2859    3.0312   -1.0527 C   0  0  0  0  0  0  0  0  0  0  0  0
    4.4654   -3.1460   -0.0036 C   0  0  0  0  0  0  0  0  0  0  0  0
    5.5586   -4.0932   -0.5406 C   0  0  0  0  0  0  0  0  0  0  0  0
    3.7836   -3.2758   -1.3816 C   0  0  0  0  0  0  0  0  0  0  0  0
    4.9121   -1.7508    0.4077 C   0  0  0  0  0  0  0  0  0  0  0  0
    4.4985   -4.6360   -1.5215 C   0  0  0  0  0  0  0  0  0  0  0  0
   -2.4574    0.5106    0.2990 C   0  0  0  0  0  0  0  0  0  0  0  0
   -3.9621    0.6049    0.3052 C   0  0  0  0  0  0  0  0  0  0  0  0
   -4.5752   -0.7580    0.3898 C   0  0  0  0  0  0  0  0  0  0  0  0
   -4.8752   -1.4737   -0.7671 C   0  0  0  0  0  0  0  0  0  0  0  0
   -4.8437   -1.3044    1.6428 C   0  0  0  0  0  0  0  0  0  0  0  0
   -5.4464   -2.7426   -0.6703 C   0  0  0  0  0  0  0  0  0  0  0  0
   -5.4149   -2.5732    1.7394 C   0  0  0  0  0  0  0  0  0  0  0  0
   -5.7164   -3.2923    0.5830 C   0  0  0  0  0  0  0  0  0  0  0  0
   -5.6554   -0.1834   -2.6062 C   0  0  0  0  0  0  0  0  0  0  0  0
   -0.1427    1.2329   -0.9236 H   0  0  0  0  0  0  0  0  0  0  0  0
    2.1156    0.9030   -1.0881 H   0  0  0  0  0  0  0  0  0  0  0  0
    0.2108    3.7252    0.8643 H   0  0  0  0  0  0  0  0  0  0  0  0
    4.9681    0.5685    1.6228 H   0  0  0  0  0  0  0  0  0  0  0  0
    4.4944    2.3632    0.1382 H   0  0  0  0  0  0  0  0  0  0  0  0
    4.5030    1.0194   -1.0148 H   0  0  0  0  0  0  0  0  0  0  0  0
    2.4372    0.2238    2.5751 H   0  0  0  0  0  0  0  0  0  0  0  0
    3.1246    1.8656    2.4794 H   0  0  0  0  0  0  0  0  0  0  0  0
   -1.5282    3.7386   -1.6395 H   0  0  0  0  0  0  0  0  0  0  0  0
   -1.4767    4.9519   -0.3481 H   0  0  0  0  0  0  0  0  0  0  0  0
   -3.3732    3.0498   -0.2517 H   0  0  0  0  0  0  0  0  0  0  0  0
   -2.4827    3.3940    1.2522 H   0  0  0  0  0  0  0  0  0  0  0  0
    0.9594    4.4974   -1.5110 H   0  0  0  0  0  0  0  0  0  0  0  0
    3.8780   -3.6232    0.7953 H   0  0  0  0  0  0  0  0  0  0  0  0
    2.9047   -1.2353    0.5370 H   0  0  0  0  0  0  0  0  0  0  0  0
    5.9504   -4.8209    0.1750 H   0  0  0  0  0  0  0  0  0  0  0  0
    6.3993   -3.5976   -1.0401 H   0  0  0  0  0  0  0  0  0  0  0  0
    4.1026   -2.5309   -2.1203 H   0  0  0  0  0  0  0  0  0  0  0  0
    2.6913   -3.3195   -1.3698 H   0  0  0  0  0  0  0  0  0  0  0  0
    4.8584   -4.8843   -2.5228 H   0  0  0  0  0  0  0  0  0  0  0  0
    3.9224   -5.4809   -1.1269 H   0  0  0  0  0  0  0  0  0  0  0  0
   -4.2800    1.2097    1.1634 H   0  0  0  0  0  0  0  0  0  0  0  0
   -4.2984    1.1295   -0.5930 H   0  0  0  0  0  0  0  0  0  0  0  0
   -4.6117   -0.7559    2.5518 H   0  0  0  0  0  0  0  0  0  0  0  0
   -5.6832   -3.3089   -1.5669 H   0  0  0  0  0  0  0  0  0  0  0  0
   -5.6245   -3.0016    2.7152 H   0  0  0  0  0  0  0  0  0  0  0  0
   -6.1609   -4.2803    0.6583 H   0  0  0  0  0  0  0  0  0  0  0  0
   -5.2181    0.4001   -3.4209 H   0  0  0  0  0  0  0  0  0  0  0  0
   -6.1250    0.5034   -1.8947 H   0  0  0  0  0  0  0  0  0  0  0  0
   -6.4131   -0.8540   -3.0234 H   0  0  0  0  0  0  0  0  0  0  0  0
  1 17  2  0  0  0  0
  2 19  2  0  0  0  0
  3 23  2  0  0  0  0
  4 25  2  0  0  0  0
  5 28  1  0  0  0  0
  5 33  1  0  0  0  0
  6 11  1  0  0  0  0
  6 15  1  0  0  0  0
  6 17  1  0  0  0  0
  7 10  1  0  0  0  0
  7 18  1  0  0  0  0
  7 25  1  0  0  0  0
  8 12  1  0  0  0  0
  8 19  1  0  0  0  0
  8 46  1  0  0  0  0
  9 13  1  0  0  0  0
  9 23  1  0  0  0  0
  9 48  1  0  0  0  0
 10 12  1  0  0  0  0
 10 17  1  0  0  0  0
 10 34  1  0  0  0  0
 11 14  1  0  0  0  0
 11 19  1  0  0  0  0
 11 35  1  0  0  0  0
 12 16  1  0  0  0  0
 12 36  1  0  0  0  0
 13 14  1  0  0  0  0
 13 15  1  0  0  0  0
 13 37  1  0  0  0  0
 14 38  1  0  0  0  0
 14 39  1  0  0  0  0
 15 40  1  0  0  0  0
 15 41  1  0  0  0  0
 16 18  1  0  0  0  0
 16 42  1  0  0  0  0
 16 43  1  0  0  0  0
 18 44  1  0  0  0  0
 18 45  1  0  0  0  0
 20 21  1  0  0  0  0
 20 22  1  0  0  0  0
 20 23  1  0  0  0  0
 20 47  1  0  0  0  0
 21 24  1  0  0  0  0
 21 49  1  0  0  0  0
 21 50  1  0  0  0  0
 22 24  1  0  0  0  0
 22 51  1  0  0  0  0
 22 52  1  0  0  0  0
 24 53  1  0  0  0  0
 24 54  1  0  0  0  0
 25 26  1  0  0  0  0
 26 27  1  0  0  0  0
 26 55  1  0  0  0  0
 26 56  1  0  0  0  0
 27 28  1  0  0  0  0
 27 29  2  0  0  0  0
 28 30  2  0  0  0  0
 29 31  1  0  0  0  0
 29 57  1  0  0  0  0
 30 32  1  0  0  0  0
 30 58  1  0  0  0  0
 31 32  2  0  0  0  0
 31 59  1  0  0  0  0
 32 60  1  0  0  0  0
 33 61  1  0  0  0  0
 33 62  1  0  0  0  0
 33 63  1  0  0  0  0
M  END
> <PUBCHEM_COMPOUND_CID>
11865930

> <PUBCHEM_CONFORMER_RMSD>
1

> <PUBCHEM_CONFORMER_DIVERSEORDER>
1
45
16
105
56
69
89
71
58
93
102
30
60
92
55
34
43
121
68
15
24
49
14
48
96
27
87
53
83
65
26
51
70
78
17
40
74
80
31
52
104
98
118
41
119
18
108
61
37
54
97
84
8
13
44
72
66
90
64
39
10
101
116
11
46
117
25
67
6
112
110
59
88
35
42
94
86
109
50
47
62
103
5
113
81
9
29
107
32
57
12
2
76
77
122
22
38
33
100
28
99
91
63
106
75
4
95
19
73
82
21
7
85
123
3
23
120
115
111
20
114
79
36

> <PUBCHEM_MMFF94_PARTIAL_CHARGES>
34
1 -0.57
10 0.36
11 0.36
12 0.3
13 0.3
15 0.3
17 0.57
18 0.3
19 0.57
2 -0.57
20 0.05
23 0.58
25 0.57
26 0.2
27 -0.14
28 0.08
29 -0.15
3 -0.57
30 -0.15
31 -0.15
32 -0.15
33 0.28
4 -0.57
46 0.37
48 0.37
5 -0.36
57 0.15
58 0.15
59 0.15
6 -0.66
60 0.15
7 -0.66
8 -0.73
9 -0.73

> <PUBCHEM_EFFECTIVE_ROTOR_COUNT>
9.2

> <PUBCHEM_PHARMACOPHORE_FEATURES>
12
1 1 acceptor
1 2 acceptor
1 3 acceptor
1 4 acceptor
1 5 acceptor
1 8 donor
1 9 donor
4 20 21 22 24 rings
5 6 11 13 14 15 rings
5 7 10 12 16 18 rings
6 27 28 29 30 31 32 rings
7 6 8 10 11 12 17 19 rings

> <PUBCHEM_HEAVY_ATOM_COUNT>
33

> <PUBCHEM_ATOM_DEF_STEREO_COUNT>
4

> <PUBCHEM_ATOM_UDEF_STEREO_COUNT>
0

> <PUBCHEM_BOND_DEF_STEREO_COUNT>
0

> <PUBCHEM_BOND_UDEF_STEREO_COUNT>
0

> <PUBCHEM_ISOTOPIC_ATOM_COUNT>
0

> <PUBCHEM_COMPONENT_COUNT>
1

> <PUBCHEM_CACTVS_TAUTO_COUNT>
4

> <PUBCHEM_CONFORMER_ID>
00B50F4A00000001

> <PUBCHEM_MMFF94_ENERGY>
111.2565

> <PUBCHEM_FEATURE_SELFOVERLAP>
60.982

> <PUBCHEM_SHAPE_FINGERPRINT>
10928967 22 17915742174896539199
11069576 57 18263085568754257060
11135926 11 18192435388175453388
11285246 1 18189624855839450170
117089 54 18337683004645968675
12422481 6 17560804286274408695
12623949 98 18201727253947017630
13690498 29 18046922489076576062
13782708 43 18131627872938205024
15361156 5 18189074026425610232
15510800 12 18339634556043501994
15803439 3 17103442857373287796
16067690 210 13479407206853935375
16989378 47 18269854081104669774
17492 89 18409170991572630152
17909252 39 18337111275599728112
19301676 85 17261031026664788727
19301679 30 18340217366521259899
19303781 99 18334286570214791978
19315092 285 17130972313260555939
20775530 9 18130520647158717342
21307412 95 17907574727494635324
21792965 11 16751294090322165014
23379529 103 18409452444699782736
23559900 14 18409161082956477865
24771750 20 17103417615355174925
314194 84 18194124242599372185
34797466 226 15865751158185631717
4394409 98 15596108609991075238
44062 13 18123190095883464690
4435113 14 17825401923061466851
46194498 28 17532363352142700212
50009960 94 18045197381588684194
56633871 153 18339373950560536313
5951187 136 10881942966245516826
613672 6 18263906843667627627
7970288 3 18267865176170859883

> <PUBCHEM_SHAPE_MULTIPOLES>
629.85
15.34
6.25
1.8
4.74
1.68
-0.3
20.55
-1.53
-5.53
-2.49
1.31
0.28
1.73

> <PUBCHEM_SHAPE_SELFOVERLAP>
1355.264

> <PUBCHEM_SHAPE_VOLUME>
343.5

> <PUBCHEM_COORDINATE_TYPE>
2
5
10

$$$$
