45361461
  -OEChem-12032416143D

 75 77  0     1  0  0  0  0  0999 V2000
   -1.4509   -1.1760   -0.8331 O   0  0  0  0  0  0  0  0  0  0  0  0
   -5.6475    1.9351   -0.2521 O   0  0  0  0  0  0  0  0  0  0  0  0
    4.9503   -0.0007    1.4544 O   0  0  0  0  0  0  0  0  0  0  0  0
    3.7082    0.4337   -0.4654 N   0  0  0  0  0  0  0  0  0  0  0  0
   -5.7822   -0.1482    0.7458 N   0  0  0  0  0  0  0  0  0  0  0  0
   -5.1811   -4.9674    0.3278 N   0  0  0  0  0  0  0  0  0  0  0  0
   -0.1341    2.2399    0.2501 C   0  0  1  0  0  0  0  0  0  0  0  0
   -0.1149    0.7014   -0.0357 C   0  0  2  0  0  0  0  0  0  0  0  0
    1.2391    0.2746   -0.7082 C   0  0  1  0  0  0  0  0  0  0  0  0
   -1.4033    0.2507   -0.7825 C   0  0  2  0  0  0  0  0  0  0  0  0
   -1.4292    2.6070    1.0125 C   0  0  0  0  0  0  0  0  0  0  0  0
    1.0645    2.5989    1.1585 C   0  0  0  0  0  0  0  0  0  0  0  0
   -2.6960    0.7110   -0.0692 C   0  0  1  0  0  0  0  0  0  0  0  0
    2.4406    0.7075    0.1784 C   0  0  2  0  0  0  0  0  0  0  0  0
   -2.6934    2.2024    0.2658 C   0  0  0  0  0  0  0  0  0  0  0  0
    2.4055    2.1846    0.5700 C   0  0  0  0  0  0  0  0  0  0  0  0
   -0.0630    3.0859   -1.0464 C   0  0  0  0  0  0  0  0  0  0  0  0
   -3.9485    0.3716   -0.8864 C   0  0  2  0  0  0  0  0  0  0  0  0
    1.3374   -1.2340   -0.9914 C   0  0  0  0  0  0  0  0  0  0  0  0
   -3.8788    1.0761   -2.2424 C   0  0  0  0  0  0  0  0  0  0  0  0
   -5.2012    0.7908   -0.1130 C   0  0  0  0  0  0  0  0  0  0  0  0
    4.8541    0.1028    0.2344 C   0  0  0  0  0  0  0  0  0  0  0  0
    6.0192   -0.1544   -0.6767 C   0  0  0  0  0  0  0  0  0  0  0  0
    7.3376    0.2395   -0.0077 C   0  0  0  0  0  0  0  0  0  0  0  0
    6.0070   -1.6095   -1.1496 C   0  0  0  0  0  0  0  0  0  0  0  0
    7.8127   -0.7674    1.0394 C   0  0  0  0  0  0  0  0  0  0  0  0
    6.4821   -2.5906   -0.0792 C   0  0  0  0  0  0  0  0  0  0  0  0
    7.8378   -2.1890    0.4904 C   0  0  0  0  0  0  0  0  0  0  0  0
   -5.3400   -1.5275    0.9409 C   0  0  0  0  0  0  0  0  0  0  0  0
   -6.9644    0.2267    1.5143 C   0  0  0  0  0  0  0  0  0  0  0  0
   -6.0179   -2.4976   -0.0192 C   0  0  0  0  0  0  0  0  0  0  0  0
   -5.5496   -3.8777    0.1755 C   0  0  0  0  0  0  0  0  0  0  0  0
   -0.1328    0.1854    0.9378 H   0  0  0  0  0  0  0  0  0  0  0  0
    1.3243    0.7740   -1.6816 H   0  0  0  0  0  0  0  0  0  0  0  0
   -1.3369    0.6100   -1.8109 H   0  0  0  0  0  0  0  0  0  0  0  0
   -1.4311    2.1144    1.9944 H   0  0  0  0  0  0  0  0  0  0  0  0
   -1.4598    3.6858    1.2126 H   0  0  0  0  0  0  0  0  0  0  0  0
    1.0798    3.6778    1.3590 H   0  0  0  0  0  0  0  0  0  0  0  0
    0.9481    2.1076    2.1340 H   0  0  0  0  0  0  0  0  0  0  0  0
   -2.7611    0.1680    0.8845 H   0  0  0  0  0  0  0  0  0  0  0  0
    2.4076    0.1173    1.1047 H   0  0  0  0  0  0  0  0  0  0  0  0
   -3.5329    2.4528    0.9237 H   0  0  0  0  0  0  0  0  0  0  0  0
   -2.7886    2.8432   -0.6123 H   0  0  0  0  0  0  0  0  0  0  0  0
    2.6463    2.8116   -0.2972 H   0  0  0  0  0  0  0  0  0  0  0  0
    3.1935    2.3922    1.3057 H   0  0  0  0  0  0  0  0  0  0  0  0
   -0.8773    2.8584   -1.7399 H   0  0  0  0  0  0  0  0  0  0  0  0
   -0.1246    4.1552   -0.8121 H   0  0  0  0  0  0  0  0  0  0  0  0
    0.8667    2.9355   -1.6011 H   0  0  0  0  0  0  0  0  0  0  0  0
   -3.9905   -0.6997   -1.0995 H   0  0  0  0  0  0  0  0  0  0  0  0
    1.0981   -1.8223   -0.0996 H   0  0  0  0  0  0  0  0  0  0  0  0
    2.3403   -1.5243   -1.3202 H   0  0  0  0  0  0  0  0  0  0  0  0
    0.6685   -1.5273   -1.8053 H   0  0  0  0  0  0  0  0  0  0  0  0
    3.7556    0.5418   -1.4745 H   0  0  0  0  0  0  0  0  0  0  0  0
   -1.4623   -1.5105    0.0798 H   0  0  0  0  0  0  0  0  0  0  0  0
   -4.8059    0.8686   -2.7932 H   0  0  0  0  0  0  0  0  0  0  0  0
   -3.8142    2.1647   -2.1924 H   0  0  0  0  0  0  0  0  0  0  0  0
   -3.0729    0.7008   -2.8774 H   0  0  0  0  0  0  0  0  0  0  0  0
    5.9024    0.4919   -1.5576 H   0  0  0  0  0  0  0  0  0  0  0  0
    8.1106    0.3201   -0.7832 H   0  0  0  0  0  0  0  0  0  0  0  0
    7.2555    1.2310    0.4542 H   0  0  0  0  0  0  0  0  0  0  0  0
    5.0060   -1.9032   -1.4873 H   0  0  0  0  0  0  0  0  0  0  0  0
    6.6687   -1.6994   -2.0209 H   0  0  0  0  0  0  0  0  0  0  0  0
    8.8222   -0.4912    1.3671 H   0  0  0  0  0  0  0  0  0  0  0  0
    7.1855   -0.7304    1.9356 H   0  0  0  0  0  0  0  0  0  0  0  0
    5.7441   -2.6438    0.7301 H   0  0  0  0  0  0  0  0  0  0  0  0
    6.5494   -3.5961   -0.5103 H   0  0  0  0  0  0  0  0  0  0  0  0
    8.6014   -2.2657   -0.2934 H   0  0  0  0  0  0  0  0  0  0  0  0
    8.1258   -2.8863    1.2852 H   0  0  0  0  0  0  0  0  0  0  0  0
   -4.2538   -1.5869    0.8248 H   0  0  0  0  0  0  0  0  0  0  0  0
   -5.5411   -1.8130    1.9816 H   0  0  0  0  0  0  0  0  0  0  0  0
   -7.7933   -0.4326    1.2421 H   0  0  0  0  0  0  0  0  0  0  0  0
   -6.7425    0.1166    2.5800 H   0  0  0  0  0  0  0  0  0  0  0  0
   -7.2646    1.2607    1.3267 H   0  0  0  0  0  0  0  0  0  0  0  0
   -5.8343   -2.1939   -1.0562 H   0  0  0  0  0  0  0  0  0  0  0  0
   -7.1046   -2.4640    0.1211 H   0  0  0  0  0  0  0  0  0  0  0  0
  1 10  1  0  0  0  0
  1 54  1  0  0  0  0
  2 21  2  0  0  0  0
  3 22  2  0  0  0  0
  4 14  1  0  0  0  0
  4 22  1  0  0  0  0
  4 53  1  0  0  0  0
  5 21  1  0  0  0  0
  5 29  1  0  0  0  0
  5 30  1  0  0  0  0
  6 32  3  0  0  0  0
  7  8  1  0  0  0  0
  7 11  1  0  0  0  0
  7 12  1  0  0  0  0
  7 17  1  0  0  0  0
  8  9  1  0  0  0  0
  8 10  1  0  0  0  0
  8 33  1  0  0  0  0
  9 14  1  0  0  0  0
  9 19  1  0  0  0  0
  9 34  1  0  0  0  0
 10 13  1  0  0  0  0
 10 35  1  0  0  0  0
 11 15  1  0  0  0  0
 11 36  1  0  0  0  0
 11 37  1  0  0  0  0
 12 16  1  0  0  0  0
 12 38  1  0  0  0  0
 12 39  1  0  0  0  0
 13 15  1  0  0  0  0
 13 18  1  0  0  0  0
 13 40  1  0  0  0  0
 14 16  1  0  0  0  0
 14 41  1  0  0  0  0
 15 42  1  0  0  0  0
 15 43  1  0  0  0  0
 16 44  1  0  0  0  0
 16 45  1  0  0  0  0
 17 46  1  0  0  0  0
 17 47  1  0  0  0  0
 17 48  1  0  0  0  0
 18 20  1  0  0  0  0
 18 21  1  0  0  0  0
 18 49  1  0  0  0  0
 19 50  1  0  0  0  0
 19 51  1  0  0  0  0
 19 52  1  0  0  0  0
 20 55  1  0  0  0  0
 20 56  1  0  0  0  0
 20 57  1  0  0  0  0
 22 23  1  0  0  0  0
 23 24  1  0  0  0  0
 23 25  1  0  0  0  0
 23 58  1  0  0  0  0
 24 26  1  0  0  0  0
 24 59  1  0  0  0  0
 24 60  1  0  0  0  0
 25 27  1  0  0  0  0
 25 61  1  0  0  0  0
 25 62  1  0  0  0  0
 26 28  1  0  0  0  0
 26 63  1  0  0  0  0
 26 64  1  0  0  0  0
 27 28  1  0  0  0  0
 27 65  1  0  0  0  0
 27 66  1  0  0  0  0
 28 67  1  0  0  0  0
 28 68  1  0  0  0  0
 29 31  1  0  0  0  0
 29 69  1  0  0  0  0
 29 70  1  0  0  0  0
 30 71  1  0  0  0  0
 30 72  1  0  0  0  0
 30 73  1  0  0  0  0
 31 32  1  0  0  0  0
 31 74  1  0  0  0  0
 31 75  1  0  0  0  0
M  END
> <PUBCHEM_COMPOUND_CID>
45361461

> <PUBCHEM_CONFORMER_RMSD>
1.2

> <PUBCHEM_CONFORMER_DIVERSEORDER>
1
75
65
44
47
116
98
68
69
114
61
22
97
64
32
71
83
52
103
108
107
38
55
45
76
26
82
99
72
84
43
110
78
27
112
117
79
115
48
91
46
67
14
109
49
35
85
57
17
30
86
16
77
54
28
36
51
42
96
11
59
41
6
102
13
39
20
53
29
95
73
70
66
8
5
63
31
80
58
21
100
111
3
50
74
92
56
113
105
34
7
62
19
25
101
106
60
9
2
88
90
89
10
40
37
104
87
33
15
93
18
12
81
94
24
23
4

> <PUBCHEM_MMFF94_PARTIAL_CHARGES>
18
1 -0.68
10 0.28
14 0.3
18 0.06
2 -0.57
21 0.57
22 0.57
23 0.06
29 0.3
3 -0.57
30 0.3
31 0.2
32 0.36
4 -0.73
5 -0.66
53 0.37
54 0.4
6 -0.56

> <PUBCHEM_EFFECTIVE_ROTOR_COUNT>
10.8

> <PUBCHEM_PHARMACOPHORE_FEATURES>
10
1 1 acceptor
1 1 donor
1 2 acceptor
1 20 hydrophobe
1 3 acceptor
1 4 donor
1 6 acceptor
6 23 24 25 26 27 28 rings
6 7 8 10 11 13 15 rings
6 7 8 9 12 14 16 rings

> <PUBCHEM_HEAVY_ATOM_COUNT>
32

> <PUBCHEM_ATOM_DEF_STEREO_COUNT>
6

> <PUBCHEM_ATOM_UDEF_STEREO_COUNT>
1

> <PUBCHEM_BOND_DEF_STEREO_COUNT>
0

> <PUBCHEM_BOND_UDEF_STEREO_COUNT>
0

> <PUBCHEM_ISOTOPIC_ATOM_COUNT>
0

> <PUBCHEM_COMPONENT_COUNT>
1

> <PUBCHEM_CACTVS_TAUTO_COUNT>
2

> <PUBCHEM_CONFORMER_ID>
02B4293500000001

> <PUBCHEM_MMFF94_ENERGY>
80.3915

> <PUBCHEM_FEATURE_SELFOVERLAP>
50.761

> <PUBCHEM_SHAPE_FINGERPRINT>
11135926 11 18335133138401598231
11477941 20 16153703232893046773
117089 54 18264775544017537763
11963148 33 18334570222908804890
12120059 9 18264744654575308170
12166972 35 17895201008340707308
12236239 1 18260831450275253892
13383668 362 18197485428761685928
1361 4 18265053711562767006
13685833 64 18342176644554642736
13690498 29 17822004325015178213
13782708 43 18260265291105341719
14178184 131 18201155559187773423
14251764 30 18410575097796063106
14344974 204 18268994365770249463
14420673 8 18411703192874266715
14955137 171 18272089439403938313
15183329 4 12685098060166297100
15352257 5 18410014338197380674
18335252 98 18411704267027573312
18608769 82 18410292519144892634
21267235 1 18342743979669822628
21424621 283 10592044656914306268
21792961 116 18188765042363035157
22122407 14 12535336961254393410
23522609 53 18120689982541933877
23559900 14 18342164596865935680
24771750 20 17974011953764486116
2747138 104 18131355202786921696
3178227 256 18272657839591392744
3383291 50 18411417302313149114
4169191 19 10447933853847176179
4616759 239 17846501396652875659
5104073 3 18130506465461854441
5718773 13 18339078306376017323
636775 8 18340779148581433750
6691757 9 15410890791018352879
8863177 126 18339362001834495699
9896288 288 17987524719134021985
999808 66 18410857646271796715

> <PUBCHEM_SHAPE_MULTIPOLES>
625.99
21.92
4.01
1.29
20.73
3.71
0.21
18.45
-4.47
-5.64
-0.52
-0.56
-0.31
0.97

> <PUBCHEM_SHAPE_SELFOVERLAP>
1277.693

> <PUBCHEM_SHAPE_VOLUME>
354.9

> <PUBCHEM_COORDINATE_TYPE>
2
5
10

$$$$
