44716859
  -OEChem-12032416313D

 70 74  0     1  0  0  0  0  0999 V2000
   -0.5176    3.0183    0.1391 S   0  0  0  0  0  0  0  0  0  0  0  0
    7.8669    1.7444   -1.0636 F   0  0  0  0  0  0  0  0  0  0  0  0
   -7.6836   -0.0451   -0.8043 O   0  0  0  0  0  0  0  0  0  0  0  0
   -7.5609    1.8530    0.6541 O   0  0  0  0  0  0  0  0  0  0  0  0
   -0.2032   -2.5175   -1.3264 O   0  0  0  0  0  0  0  0  0  0  0  0
    3.1988    0.1757    0.0031 O   0  0  0  0  0  0  0  0  0  0  0  0
    0.2087    0.5381    0.0236 N   0  0  0  0  0  0  0  0  0  0  0  0
    0.7914   -2.9723    0.7524 N   0  0  0  0  0  0  0  0  0  0  0  0
    1.9679    2.1838    0.1001 N   0  0  0  0  0  0  0  0  0  0  0  0
   -3.5063   -0.4315    0.3826 C   0  0  2  0  0  0  0  0  0  0  0  0
   -4.0026    0.8840   -0.3648 C   0  0  1  0  0  0  0  0  0  0  0  0
   -5.5600    1.1254   -0.4309 C   0  0  1  0  0  0  0  0  0  0  0  0
   -1.9893   -0.6981   -0.0426 C   0  0  1  0  0  0  0  0  0  0  0  0
   -4.3624   -1.6399   -0.0778 C   0  0  0  0  0  0  0  0  0  0  0  0
   -6.2650   -0.1924   -0.8605 C   0  0  1  0  0  0  0  0  0  0  0  0
   -3.1930    2.1341    0.0871 C   0  0  0  0  0  0  0  0  0  0  0  0
   -5.8628   -1.3935   -0.0117 C   0  0  0  0  0  0  0  0  0  0  0  0
   -3.5966   -0.3175    1.9242 C   0  0  0  0  0  0  0  0  0  0  0  0
   -1.1736    0.5669    0.0368 C   0  0  0  0  0  0  0  0  0  0  0  0
   -6.1780    1.6816    0.8709 C   0  0  0  0  0  0  0  0  0  0  0  0
   -5.8621    2.1887   -1.5245 C   0  0  0  0  0  0  0  0  0  0  0  0
   -1.7335    1.8275    0.0760 C   0  0  0  0  0  0  0  0  0  0  0  0
   -1.3100   -1.8521    0.7070 C   0  0  0  0  0  0  0  0  0  0  0  0
   -0.1917   -2.4787   -0.1005 C   0  0  0  0  0  0  0  0  0  0  0  0
    0.6620    1.7715    0.0819 C   0  0  0  0  0  0  0  0  0  0  0  0
    1.9940   -3.6273    0.3951 C   0  0  0  0  0  0  0  0  0  0  0  0
    3.1477    1.3996    0.0615 C   0  0  0  0  0  0  0  0  0  0  0  0
    2.8729   -4.0605    1.3878 C   0  0  0  0  0  0  0  0  0  0  0  0
    2.3006   -3.8399   -0.9490 C   0  0  0  0  0  0  0  0  0  0  0  0
    4.4327    2.1468    0.0677 C   0  0  0  0  0  0  0  0  0  0  0  0
    4.0584   -4.7064    1.0366 C   0  0  0  0  0  0  0  0  0  0  0  0
    3.4859   -4.4859   -1.3003 C   0  0  0  0  0  0  0  0  0  0  0  0
    5.5695    1.5838   -0.5125 C   0  0  0  0  0  0  0  0  0  0  0  0
    4.5019    3.4105    0.6542 C   0  0  0  0  0  0  0  0  0  0  0  0
    4.3649   -4.9189   -0.3074 C   0  0  0  0  0  0  0  0  0  0  0  0
    6.7755    2.2846   -0.5061 C   0  0  0  0  0  0  0  0  0  0  0  0
    5.7079    4.1111    0.6606 C   0  0  0  0  0  0  0  0  0  0  0  0
    6.8448    3.5482    0.0805 C   0  0  0  0  0  0  0  0  0  0  0  0
   -3.7139    0.7152   -1.4169 H   0  0  0  0  0  0  0  0  0  0  0  0
   -2.0192   -0.9445   -1.1141 H   0  0  0  0  0  0  0  0  0  0  0  0
   -4.1045   -1.8992   -1.1132 H   0  0  0  0  0  0  0  0  0  0  0  0
   -4.1380   -2.5279    0.5239 H   0  0  0  0  0  0  0  0  0  0  0  0
   -6.0122   -0.4066   -1.9074 H   0  0  0  0  0  0  0  0  0  0  0  0
   -3.4846    2.4460    1.0956 H   0  0  0  0  0  0  0  0  0  0  0  0
   -3.3893    2.9742   -0.5875 H   0  0  0  0  0  0  0  0  0  0  0  0
   -6.3893   -2.2855   -0.3750 H   0  0  0  0  0  0  0  0  0  0  0  0
   -6.2010   -1.2683    1.0228 H   0  0  0  0  0  0  0  0  0  0  0  0
   -4.6166   -0.1991    2.2835 H   0  0  0  0  0  0  0  0  0  0  0  0
   -3.2272   -1.2269    2.4109 H   0  0  0  0  0  0  0  0  0  0  0  0
   -3.0063    0.5140    2.3192 H   0  0  0  0  0  0  0  0  0  0  0  0
   -6.0683    1.0077    1.7166 H   0  0  0  0  0  0  0  0  0  0  0  0
   -5.7512    2.6519    1.1420 H   0  0  0  0  0  0  0  0  0  0  0  0
   -5.5104    3.1841   -1.2335 H   0  0  0  0  0  0  0  0  0  0  0  0
   -5.3737    1.9280   -2.4705 H   0  0  0  0  0  0  0  0  0  0  0  0
   -6.9334    2.2766   -1.7371 H   0  0  0  0  0  0  0  0  0  0  0  0
   -0.9368   -1.5044    1.6783 H   0  0  0  0  0  0  0  0  0  0  0  0
   -2.0103   -2.6703    0.9031 H   0  0  0  0  0  0  0  0  0  0  0  0
   -8.0789   -0.8738   -1.1245 H   0  0  0  0  0  0  0  0  0  0  0  0
   -7.9404    2.2124    1.4740 H   0  0  0  0  0  0  0  0  0  0  0  0
    0.6478   -2.8680    1.7544 H   0  0  0  0  0  0  0  0  0  0  0  0
    2.0608    3.1951    0.1080 H   0  0  0  0  0  0  0  0  0  0  0  0
    2.6465   -3.9011    2.4389 H   0  0  0  0  0  0  0  0  0  0  0  0
    1.6718   -3.5334   -1.7729 H   0  0  0  0  0  0  0  0  0  0  0  0
    4.7429   -5.0435    1.8095 H   0  0  0  0  0  0  0  0  0  0  0  0
    3.7260   -4.6519   -2.3466 H   0  0  0  0  0  0  0  0  0  0  0  0
    5.5363    0.6029   -0.9790 H   0  0  0  0  0  0  0  0  0  0  0  0
    3.6512    3.8715    1.1467 H   0  0  0  0  0  0  0  0  0  0  0  0
    5.2879   -5.4216   -0.5810 H   0  0  0  0  0  0  0  0  0  0  0  0
    5.7645    5.0917    1.1241 H   0  0  0  0  0  0  0  0  0  0  0  0
    7.7843    4.0928    0.0869 H   0  0  0  0  0  0  0  0  0  0  0  0
  1 22  1  0  0  0  0
  1 25  1  0  0  0  0
  2 36  1  0  0  0  0
  3 15  1  0  0  0  0
  3 58  1  0  0  0  0
  4 20  1  0  0  0  0
  4 59  1  0  0  0  0
  5 24  2  0  0  0  0
  6 27  2  0  0  0  0
  7 19  1  0  0  0  0
  7 25  2  0  0  0  0
  8 24  1  0  0  0  0
  8 26  1  0  0  0  0
  8 60  1  0  0  0  0
  9 25  1  0  0  0  0
  9 27  1  0  0  0  0
  9 61  1  0  0  0  0
 10 11  1  0  0  0  0
 10 13  1  0  0  0  0
 10 14  1  0  0  0  0
 10 18  1  0  0  0  0
 11 12  1  0  0  0  0
 11 16  1  0  0  0  0
 11 39  1  0  0  0  0
 12 15  1  0  0  0  0
 12 20  1  0  0  0  0
 12 21  1  0  0  0  0
 13 19  1  0  0  0  0
 13 23  1  0  0  0  0
 13 40  1  0  0  0  0
 14 17  1  0  0  0  0
 14 41  1  0  0  0  0
 14 42  1  0  0  0  0
 15 17  1  0  0  0  0
 15 43  1  0  0  0  0
 16 22  1  0  0  0  0
 16 44  1  0  0  0  0
 16 45  1  0  0  0  0
 17 46  1  0  0  0  0
 17 47  1  0  0  0  0
 18 48  1  0  0  0  0
 18 49  1  0  0  0  0
 18 50  1  0  0  0  0
 19 22  2  0  0  0  0
 20 51  1  0  0  0  0
 20 52  1  0  0  0  0
 21 53  1  0  0  0  0
 21 54  1  0  0  0  0
 21 55  1  0  0  0  0
 23 24  1  0  0  0  0
 23 56  1  0  0  0  0
 23 57  1  0  0  0  0
 26 28  2  0  0  0  0
 26 29  1  0  0  0  0
 27 30  1  0  0  0  0
 28 31  1  0  0  0  0
 28 62  1  0  0  0  0
 29 32  2  0  0  0  0
 29 63  1  0  0  0  0
 30 33  2  0  0  0  0
 30 34  1  0  0  0  0
 31 35  2  0  0  0  0
 31 64  1  0  0  0  0
 32 35  1  0  0  0  0
 32 65  1  0  0  0  0
 33 36  1  0  0  0  0
 33 66  1  0  0  0  0
 34 37  2  0  0  0  0
 34 67  1  0  0  0  0
 35 68  1  0  0  0  0
 36 38  2  0  0  0  0
 37 38  1  0  0  0  0
 37 69  1  0  0  0  0
 38 70  1  0  0  0  0
M  END
> <PUBCHEM_COMPOUND_CID>
44716859

> <PUBCHEM_CONFORMER_RMSD>
1

> <PUBCHEM_CONFORMER_DIVERSEORDER>
1
18
37
13
43
42
24
12
33
11
32
26
14
8
19
44
30
41
15
3
9
16
38
25
35
22
20
40
28
27
4
17
23
36
39
34
7
31
2
5
21
6
10
29

> <PUBCHEM_MMFF94_PARTIAL_CHARGES>
44
1 -0.08
13 0.18
15 0.28
16 0.18
19 0.05
2 -0.19
20 0.28
22 -0.14
23 0.06
24 0.57
25 0.44
26 0.12
27 0.54
28 -0.15
29 -0.15
3 -0.68
30 0.09
31 -0.15
32 -0.15
33 -0.15
34 -0.15
35 -0.15
36 0.19
37 -0.15
38 -0.15
4 -0.68
5 -0.57
58 0.4
59 0.4
6 -0.57
60 0.37
61 0.37
62 0.15
63 0.15
64 0.15
65 0.15
66 0.15
67 0.15
68 0.15
69 0.15
7 -0.57
70 0.15
8 -0.55
9 -0.49

> <PUBCHEM_EFFECTIVE_ROTOR_COUNT>
9.2

> <PUBCHEM_PHARMACOPHORE_FEATURES>
13
1 3 acceptor
1 3 donor
1 4 acceptor
1 4 donor
1 5 acceptor
1 6 acceptor
1 8 donor
1 9 donor
5 1 7 19 22 25 rings
6 10 11 12 14 15 17 rings
6 10 11 13 16 19 22 rings
6 26 28 29 31 32 35 rings
6 30 33 34 36 37 38 rings

> <PUBCHEM_HEAVY_ATOM_COUNT>
38

> <PUBCHEM_ATOM_DEF_STEREO_COUNT>
5

> <PUBCHEM_ATOM_UDEF_STEREO_COUNT>
0

> <PUBCHEM_BOND_DEF_STEREO_COUNT>
0

> <PUBCHEM_BOND_UDEF_STEREO_COUNT>
0

> <PUBCHEM_ISOTOPIC_ATOM_COUNT>
0

> <PUBCHEM_COMPONENT_COUNT>
1

> <PUBCHEM_CACTVS_TAUTO_COUNT>
6

> <PUBCHEM_CONFORMER_ID>
02AA533B00000001

> <PUBCHEM_MMFF94_ENERGY>
126.6503

> <PUBCHEM_FEATURE_SELFOVERLAP>
66.119

> <PUBCHEM_SHAPE_FINGERPRINT>
10050765 1 18266457603740085309
10290309 65 18409721881506336796
10940486 97 17686058701317719388
11007060 377 18127130998781396449
11135926 11 18409721876604312133
11136131 41 18334004008996230882
11578080 2 17242147095552198533
11719270 70 18410849984873339984
12440605 4 18127146181702298313
12857493 111 17979346465389179500
12977781 61 17895494582182281971
13540713 4 18187370896548166915
14150023 79 18408885140219508054
14659021 117 17333636676257174378
15001296 14 18337668625147838515
15264996 44 18201154348354739870
15347591 1 18338796716231248453
15400415 2 18266457805566832824
15439362 3 18409448064244538875
15927050 60 18341046436226500878
16067689 302 18410858781288622103
16719943 64 18193275415733846066
17627616 140 18410852179058549470
20609170 92 18114451281447476429
20721686 56 18264210222841047626
20771845 165 18042116566823287749
21133410 230 17755049680021637866
21133665 82 18266180720778992900
21344244 246 18410287017734774807
21360443 120 18335704966131249276
22311459 1 18410011065669931213
23559900 14 18266449902800088963
244849 19 17896058610504647843
249999 5 18410571760796378314
3383291 50 18121217846553235659
3411729 13 18408321077416025914
4017518 198 18269844271631324654
5265222 85 18120098539943808316
5385378 56 18410017624094996337
5776283 40 18338250336372613718
6371380 46 18270116967521321784
6669772 16 18411702105883758670

> <PUBCHEM_SHAPE_MULTIPOLES>
740.18
19.05
7.07
1.13
5.52
7.5
0.07
-15.07
-2.69
-16.37
0.31
0.33
0.52
0.24

> <PUBCHEM_SHAPE_SELFOVERLAP>
1591.116

> <PUBCHEM_SHAPE_VOLUME>
411.7

> <PUBCHEM_COORDINATE_TYPE>
2
5
10

$$$$
