28962095
  -OEChem-12032416143D

 50 52  0     1  0  0  0  0  0999 V2000
   -0.3865   -1.8620   -0.6042 O   0  0  0  0  0  0  0  0  0  0  0  0
   -2.6441   -1.7964    1.3623 O   0  0  0  0  0  0  0  0  0  0  0  0
   -0.2826   -4.6707   -0.5353 O   0  0  0  0  0  0  0  0  0  0  0  0
    1.6878    2.0711   -0.3958 O   0  0  0  0  0  0  0  0  0  0  0  0
   -2.9421    0.7169    0.0029 N   0  0  0  0  0  0  0  0  0  0  0  0
    1.3094    0.0300    0.6409 N   0  0  0  0  0  0  0  0  0  0  0  0
   -2.2908   -0.4340   -0.6221 C   0  0  1  0  0  0  0  0  0  0  0  0
   -0.7587   -0.4667   -0.5524 C   0  0  1  0  0  0  0  0  0  0  0  0
   -2.6887   -1.7896   -0.0587 C   0  0  1  0  0  0  0  0  0  0  0  0
   -1.5808   -2.6671   -0.6290 C   0  0  2  0  0  0  0  0  0  0  0  0
   -2.4935    1.9664   -0.6277 C   0  0  0  0  0  0  0  0  0  0  0  0
   -4.4038    0.5813   -0.0673 C   0  0  0  0  0  0  0  0  0  0  0  0
   -3.1281    3.1834    0.0469 C   0  0  0  0  0  0  0  0  0  0  0  0
   -5.1007    1.7532    0.6259 C   0  0  0  0  0  0  0  0  0  0  0  0
   -0.1185    0.1257    0.6981 C   0  0  0  0  0  0  0  0  0  0  0  0
   -4.6496    3.0884    0.0450 C   0  0  0  0  0  0  0  0  0  0  0  0
   -1.3257   -3.9642    0.1166 C   0  0  0  0  0  0  0  0  0  0  0  0
    2.1122    1.0258    0.0898 C   0  0  0  0  0  0  0  0  0  0  0  0
    3.5744    0.7635    0.0827 C   0  0  0  0  0  0  0  0  0  0  0  0
    4.3852    1.3571   -0.8847 C   0  0  0  0  0  0  0  0  0  0  0  0
    4.1367   -0.0754    1.0447 C   0  0  0  0  0  0  0  0  0  0  0  0
    5.7583    1.1117   -0.8902 C   0  0  0  0  0  0  0  0  0  0  0  0
    5.5097   -0.3209    1.0394 C   0  0  0  0  0  0  0  0  0  0  0  0
    6.3206    0.2726    0.0719 C   0  0  0  0  0  0  0  0  0  0  0  0
   -2.5555   -0.4537   -1.6919 H   0  0  0  0  0  0  0  0  0  0  0  0
   -0.3346    0.0173   -1.4409 H   0  0  0  0  0  0  0  0  0  0  0  0
   -3.6784   -2.1282   -0.3818 H   0  0  0  0  0  0  0  0  0  0  0  0
   -1.7736   -2.8801   -1.6885 H   0  0  0  0  0  0  0  0  0  0  0  0
   -2.7676    1.9700   -1.6921 H   0  0  0  0  0  0  0  0  0  0  0  0
   -1.4109    2.1038   -0.5982 H   0  0  0  0  0  0  0  0  0  0  0  0
   -4.7438   -0.3251    0.4442 H   0  0  0  0  0  0  0  0  0  0  0  0
   -4.7426    0.5163   -1.1097 H   0  0  0  0  0  0  0  0  0  0  0  0
   -0.4140   -0.4443    1.5856 H   0  0  0  0  0  0  0  0  0  0  0  0
   -0.3799    1.1687    0.8792 H   0  0  0  0  0  0  0  0  0  0  0  0
   -2.8171    4.0978   -0.4712 H   0  0  0  0  0  0  0  0  0  0  0  0
   -2.7658    3.2613    1.0798 H   0  0  0  0  0  0  0  0  0  0  0  0
   -4.8797    1.7289    1.7006 H   0  0  0  0  0  0  0  0  0  0  0  0
   -6.1870    1.6533    0.5207 H   0  0  0  0  0  0  0  0  0  0  0  0
   -5.0790    3.9144    0.6225 H   0  0  0  0  0  0  0  0  0  0  0  0
   -5.0214    3.1851   -0.9824 H   0  0  0  0  0  0  0  0  0  0  0  0
   -2.2221   -4.5914    0.1327 H   0  0  0  0  0  0  0  0  0  0  0  0
   -0.9918   -3.7760    1.1420 H   0  0  0  0  0  0  0  0  0  0  0  0
   -3.0081   -2.6459    1.6639 H   0  0  0  0  0  0  0  0  0  0  0  0
    1.7199   -0.8404    0.9617 H   0  0  0  0  0  0  0  0  0  0  0  0
   -0.1430   -5.4963   -0.0407 H   0  0  0  0  0  0  0  0  0  0  0  0
    3.9656    2.0104   -1.6451 H   0  0  0  0  0  0  0  0  0  0  0  0
    3.5465   -0.5325    1.8334 H   0  0  0  0  0  0  0  0  0  0  0  0
    6.3898    1.5732   -1.6437 H   0  0  0  0  0  0  0  0  0  0  0  0
    5.9492   -0.9685    1.7925 H   0  0  0  0  0  0  0  0  0  0  0  0
    7.3899    0.0826    0.0686 H   0  0  0  0  0  0  0  0  0  0  0  0
  1  8  1  0  0  0  0
  1 10  1  0  0  0  0
  2  9  1  0  0  0  0
  2 43  1  0  0  0  0
  3 17  1  0  0  0  0
  3 45  1  0  0  0  0
  4 18  2  0  0  0  0
  5  7  1  0  0  0  0
  5 11  1  0  0  0  0
  5 12  1  0  0  0  0
  6 15  1  0  0  0  0
  6 18  1  0  0  0  0
  6 44  1  0  0  0  0
  7  8  1  0  0  0  0
  7  9  1  0  0  0  0
  7 25  1  0  0  0  0
  8 15  1  0  0  0  0
  8 26  1  0  0  0  0
  9 10  1  0  0  0  0
  9 27  1  0  0  0  0
 10 17  1  0  0  0  0
 10 28  1  0  0  0  0
 11 13  1  0  0  0  0
 11 29  1  0  0  0  0
 11 30  1  0  0  0  0
 12 14  1  0  0  0  0
 12 31  1  0  0  0  0
 12 32  1  0  0  0  0
 13 16  1  0  0  0  0
 13 35  1  0  0  0  0
 13 36  1  0  0  0  0
 14 16  1  0  0  0  0
 14 37  1  0  0  0  0
 14 38  1  0  0  0  0
 15 33  1  0  0  0  0
 15 34  1  0  0  0  0
 16 39  1  0  0  0  0
 16 40  1  0  0  0  0
 17 41  1  0  0  0  0
 17 42  1  0  0  0  0
 18 19  1  0  0  0  0
 19 20  2  0  0  0  0
 19 21  1  0  0  0  0
 20 22  1  0  0  0  0
 20 46  1  0  0  0  0
 21 23  2  0  0  0  0
 21 47  1  0  0  0  0
 22 24  2  0  0  0  0
 22 48  1  0  0  0  0
 23 24  1  0  0  0  0
 23 49  1  0  0  0  0
 24 50  1  0  0  0  0
M  END
> <PUBCHEM_COMPOUND_CID>
28962095

> <PUBCHEM_CONFORMER_RMSD>
0.8

> <PUBCHEM_CONFORMER_DIVERSEORDER>
1
10
6
21
18
29
27
13
30
28
8
5
16
25
12
20
24
3
4
26
31
22
7
23
14
15
19
11
9
2
17

> <PUBCHEM_MMFF94_PARTIAL_CHARGES>
29
1 -0.56
10 0.28
11 0.27
12 0.27
15 0.3
17 0.28
18 0.54
19 0.09
2 -0.68
20 -0.15
21 -0.15
22 -0.15
23 -0.15
24 -0.15
3 -0.68
4 -0.57
43 0.4
44 0.37
45 0.4
46 0.15
47 0.15
48 0.15
49 0.15
5 -0.81
50 0.15
6 -0.73
7 0.27
8 0.28
9 0.28

> <PUBCHEM_EFFECTIVE_ROTOR_COUNT>
8.2

> <PUBCHEM_PHARMACOPHORE_FEATURES>
11
1 1 acceptor
1 2 acceptor
1 2 donor
1 3 acceptor
1 3 donor
1 4 acceptor
1 5 cation
1 6 donor
5 1 7 8 9 10 rings
6 19 20 21 22 23 24 rings
6 5 11 12 13 14 16 rings

> <PUBCHEM_HEAVY_ATOM_COUNT>
24

> <PUBCHEM_ATOM_DEF_STEREO_COUNT>
4

> <PUBCHEM_ATOM_UDEF_STEREO_COUNT>
0

> <PUBCHEM_BOND_DEF_STEREO_COUNT>
0

> <PUBCHEM_BOND_UDEF_STEREO_COUNT>
0

> <PUBCHEM_ISOTOPIC_ATOM_COUNT>
0

> <PUBCHEM_COMPONENT_COUNT>
1

> <PUBCHEM_CACTVS_TAUTO_COUNT>
2

> <PUBCHEM_CONFORMER_ID>
01B9ED2F00000001

> <PUBCHEM_MMFF94_ENERGY>
51.6125

> <PUBCHEM_FEATURE_SELFOVERLAP>
55.826

> <PUBCHEM_SHAPE_FINGERPRINT>
10165383 225 18272375231345099225
10411042 1 17907015437196936127
107951 10 18342744004759307471
11014199 57 17833269001524071214
11405975 8 18338512049466511904
11796584 16 18343023294721036686
12107183 9 18263072216206997890
12166972 35 12247383610213186024
12236239 1 18113618976092327896
12293681 160 17632013040113633289
12390115 104 18272098154066531889
12616971 3 17458615727856300304
12788726 201 17828787348900177687
13167823 11 18188206611194932002
13726171 33 17909583814633820684
14251757 5 18340773731841494680
14713325 29 18335988652984813435
14790565 3 18338798897162511960
14866123 147 18339922714263391083
15042514 8 18265615579675358435
15230672 131 18337395934060029382
15250474 111 18262223534969933346
15927050 60 18341894048296874567
16719943 64 18411980234838053472
167882 2 18123750851103764635
17349148 13 12319736990391365020
17818456 19 18408326596739366284
17844677 252 18338802346480147640
18785283 64 17975975367244050755
20101258 96 17904774623344383747
20681677 155 18410852179395685632
21033648 29 18201706362873020024
21421861 104 17896308114040043522
23559900 14 18131347553624624264
23598288 3 18117571840447311367
3298306 158 18130507457462273070
3411729 13 18119529834860213305
3610482 184 17969238866070216892
4015057 19 16200141140656829328
4214541 1 18410009970579247708
44062 13 18342459296241694374
497634 4 16661210385150485442
508706 21 18271534190379717958
5104073 3 18187639254552707944
532947 4 18199191676606317070
5385378 56 18126574418586163489
559249 180 18410006629242352114
59755656 520 18410005525271954109
7226269 152 17917427601473163640
9981440 41 18337676321966116587

> <PUBCHEM_SHAPE_MULTIPOLES>
460.47
12.77
4.26
0.97
15.75
4.6
-0.1
-9.1
-0.98
-5.67
0.57
0.47
0.08
-0.75

> <PUBCHEM_SHAPE_SELFOVERLAP>
962.685

> <PUBCHEM_SHAPE_VOLUME>
259.1

> <PUBCHEM_COORDINATE_TYPE>
2
5
10

$$$$
