25312555
  -OEChem-12032416193D

 55 56  0     1  0  0  0  0  0999 V2000
    1.7971    3.0404   -1.5911 O   0  0  0  0  0  0  0  0  0  0  0  0
   -5.6405   -0.3336   -0.1281 O   0  0  0  0  0  0  0  0  0  0  0  0
   -4.8772    1.7230    0.4793 O   0  0  0  0  0  0  0  0  0  0  0  0
    0.4141    2.0636    0.0071 N   0  0  0  0  0  0  0  0  0  0  0  0
    0.9206   -2.9687   -0.3578 N   0  0  0  0  0  0  0  0  0  0  0  0
   -0.8889    0.1365    0.8765 C   0  0  2  0  0  0  0  0  0  0  0  0
   -2.1844    0.8562    0.4215 C   0  0  1  0  0  0  0  0  0  0  0  0
    0.2136    1.1735    1.1568 C   0  0  0  0  0  0  0  0  0  0  0  0
   -1.9171    1.8144   -0.7519 C   0  0  0  0  0  0  0  0  0  0  0  0
    2.8167    1.5084   -0.1506 C   0  0  0  0  0  0  0  0  0  0  0  0
   -0.7813    2.7824   -0.4308 C   0  0  0  0  0  0  0  0  0  0  0  0
   -0.3847   -0.9229   -0.1115 C   0  0  0  0  0  0  0  0  0  0  0  0
    4.1979    1.8915   -0.7219 C   0  0  0  0  0  0  0  0  0  0  0  0
    3.3738    1.8798    1.2393 C   0  0  0  0  0  0  0  0  0  0  0  0
    1.6324    2.2747   -0.6449 C   0  0  0  0  0  0  0  0  0  0  0  0
    4.7767    1.5766    0.6733 C   0  0  0  0  0  0  0  0  0  0  0  0
   -3.3195   -0.1091    0.0807 C   0  0  0  0  0  0  0  0  0  0  0  0
    0.4391   -1.9842    0.6037 C   0  0  0  0  0  0  0  0  0  0  0  0
   -4.6633    0.5587    0.1767 C   0  0  0  0  0  0  0  0  0  0  0  0
   -0.1327   -3.9333   -0.6794 C   0  0  0  0  0  0  0  0  0  0  0  0
    2.1017   -3.6611    0.1608 C   0  0  0  0  0  0  0  0  0  0  0  0
    0.3344   -4.9262   -1.7302 C   0  0  0  0  0  0  0  0  0  0  0  0
    1.7714   -4.4406    1.4224 C   0  0  0  0  0  0  0  0  0  0  0  0
   -1.1238   -0.3630    1.8267 H   0  0  0  0  0  0  0  0  0  0  0  0
   -2.5007    1.4741    1.2750 H   0  0  0  0  0  0  0  0  0  0  0  0
   -0.0793    1.8103    2.0008 H   0  0  0  0  0  0  0  0  0  0  0  0
    1.1276    0.6665    1.4520 H   0  0  0  0  0  0  0  0  0  0  0  0
   -2.8143    2.3909   -1.0019 H   0  0  0  0  0  0  0  0  0  0  0  0
   -1.6517    1.2367   -1.6466 H   0  0  0  0  0  0  0  0  0  0  0  0
    2.6510    0.4252   -0.2592 H   0  0  0  0  0  0  0  0  0  0  0  0
   -0.5642    3.4005   -1.3077 H   0  0  0  0  0  0  0  0  0  0  0  0
   -1.0727    3.4585    0.3817 H   0  0  0  0  0  0  0  0  0  0  0  0
    0.2004   -0.4644   -0.9180 H   0  0  0  0  0  0  0  0  0  0  0  0
   -1.2363   -1.4039   -0.5964 H   0  0  0  0  0  0  0  0  0  0  0  0
    4.3135    2.9437   -1.0078 H   0  0  0  0  0  0  0  0  0  0  0  0
    4.5680    1.2612   -1.5350 H   0  0  0  0  0  0  0  0  0  0  0  0
    3.0921    1.2463    2.0837 H   0  0  0  0  0  0  0  0  0  0  0  0
    3.2293    2.9297    1.5209 H   0  0  0  0  0  0  0  0  0  0  0  0
    5.0876    0.5328    0.7973 H   0  0  0  0  0  0  0  0  0  0  0  0
    5.5806    2.2328    1.0156 H   0  0  0  0  0  0  0  0  0  0  0  0
   -3.2122   -0.5062   -0.9346 H   0  0  0  0  0  0  0  0  0  0  0  0
   -3.3244   -0.9423    0.7935 H   0  0  0  0  0  0  0  0  0  0  0  0
   -0.1567   -2.4423    1.4036 H   0  0  0  0  0  0  0  0  0  0  0  0
    1.2896   -1.4874    1.0849 H   0  0  0  0  0  0  0  0  0  0  0  0
   -0.5403   -4.4583    0.1919 H   0  0  0  0  0  0  0  0  0  0  0  0
   -0.9832   -3.4083   -1.1281 H   0  0  0  0  0  0  0  0  0  0  0  0
    2.5587   -4.3149   -0.5896 H   0  0  0  0  0  0  0  0  0  0  0  0
    2.8831   -2.9241    0.3881 H   0  0  0  0  0  0  0  0  0  0  0  0
    0.8101   -4.4236   -2.5795 H   0  0  0  0  0  0  0  0  0  0  0  0
    1.0262   -5.6719   -1.3272 H   0  0  0  0  0  0  0  0  0  0  0  0
   -0.5278   -5.4782   -2.1214 H   0  0  0  0  0  0  0  0  0  0  0  0
    1.3558   -3.8231    2.2236 H   0  0  0  0  0  0  0  0  0  0  0  0
    1.1067   -5.2906    1.2453 H   0  0  0  0  0  0  0  0  0  0  0  0
    2.7005   -4.8660    1.8210 H   0  0  0  0  0  0  0  0  0  0  0  0
   -6.5331    0.0698   -0.0757 H   0  0  0  0  0  0  0  0  0  0  0  0
  1 15  2  0  0  0  0
  2 19  1  0  0  0  0
  2 55  1  0  0  0  0
  3 19  2  0  0  0  0
  4  8  1  0  0  0  0
  4 11  1  0  0  0  0
  4 15  1  0  0  0  0
  5 18  1  0  0  0  0
  5 20  1  0  0  0  0
  5 21  1  0  0  0  0
  6  7  1  0  0  0  0
  6  8  1  0  0  0  0
  6 12  1  0  0  0  0
  6 24  1  0  0  0  0
  7  9  1  0  0  0  0
  7 17  1  0  0  0  0
  7 25  1  0  0  0  0
  8 26  1  0  0  0  0
  8 27  1  0  0  0  0
  9 11  1  0  0  0  0
  9 28  1  0  0  0  0
  9 29  1  0  0  0  0
 10 13  1  0  0  0  0
 10 14  1  0  0  0  0
 10 15  1  0  0  0  0
 10 30  1  0  0  0  0
 11 31  1  0  0  0  0
 11 32  1  0  0  0  0
 12 18  1  0  0  0  0
 12 33  1  0  0  0  0
 12 34  1  0  0  0  0
 13 16  1  0  0  0  0
 13 35  1  0  0  0  0
 13 36  1  0  0  0  0
 14 16  1  0  0  0  0
 14 37  1  0  0  0  0
 14 38  1  0  0  0  0
 16 39  1  0  0  0  0
 16 40  1  0  0  0  0
 17 19  1  0  0  0  0
 17 41  1  0  0  0  0
 17 42  1  0  0  0  0
 18 43  1  0  0  0  0
 18 44  1  0  0  0  0
 20 22  1  0  0  0  0
 20 45  1  0  0  0  0
 20 46  1  0  0  0  0
 21 23  1  0  0  0  0
 21 47  1  0  0  0  0
 21 48  1  0  0  0  0
 22 49  1  0  0  0  0
 22 50  1  0  0  0  0
 22 51  1  0  0  0  0
 23 52  1  0  0  0  0
 23 53  1  0  0  0  0
 23 54  1  0  0  0  0
M  END
> <PUBCHEM_COMPOUND_CID>
25312555

> <PUBCHEM_CONFORMER_RMSD>
1

> <PUBCHEM_CONFORMER_DIVERSEORDER>
1
106
95
122
21
57
123
27
83
90
107
96
60
77
25
11
33
66
99
31
101
28
16
64
105
61
62
47
108
120
111
130
49
56
36
124
41
84
109
34
22
70
92
134
59
100
65
63
39
116
126
15
46
6
71
50
87
132
131
102
5
35
89
114
104
98
37
42
80
55
113
12
2
20
76
112
118
88
94
48
52
115
13
68
24
54
103
128
67
19
125
69
81
72
4
7
17
58
3
133
119
43
26
29
127
53
121
51
85
10
14
44
79
9
8
82
74
86
23
117
30
40
73
78
18
93
38
91
97
75
135
45
129
32
110

> <PUBCHEM_MMFF94_PARTIAL_CHARGES>
15
1 -0.57
10 0.05
11 0.3
15 0.58
17 0.06
18 0.27
19 0.66
2 -0.65
20 0.27
21 0.27
3 -0.57
4 -0.66
5 -0.81
55 0.5
8 0.3

> <PUBCHEM_EFFECTIVE_ROTOR_COUNT>
11

> <PUBCHEM_PHARMACOPHORE_FEATURES>
7
1 1 acceptor
1 2 acceptor
1 3 acceptor
1 5 cation
3 2 3 19 anion
4 10 13 14 16 rings
6 4 6 7 8 9 11 rings

> <PUBCHEM_HEAVY_ATOM_COUNT>
23

> <PUBCHEM_ATOM_DEF_STEREO_COUNT>
2

> <PUBCHEM_ATOM_UDEF_STEREO_COUNT>
0

> <PUBCHEM_BOND_DEF_STEREO_COUNT>
0

> <PUBCHEM_BOND_UDEF_STEREO_COUNT>
0

> <PUBCHEM_ISOTOPIC_ATOM_COUNT>
0

> <PUBCHEM_COMPONENT_COUNT>
1

> <PUBCHEM_CACTVS_TAUTO_COUNT>
1

> <PUBCHEM_CONFORMER_ID>
01823D2B00000001

> <PUBCHEM_MMFF94_ENERGY>
44.6003

> <PUBCHEM_FEATURE_SELFOVERLAP>
35.578

> <PUBCHEM_SHAPE_FINGERPRINT>
11488393 25 18190169101563081265
11578080 2 16445582741802548799
12160290 23 17549291536100735954
12293681 25 17678483929463603459
12592029 89 18408888442511269353
12715332 25 18265331896447173673
12788726 201 17545887486776933062
12839892 36 18336816585066065729
133893 2 18194703474251527960
14178342 30 17329700437061899640
14508225 48 17475226904272395415
14790565 3 18337957908153839537
14863182 85 18335149695262985133
14866123 147 18123465240105456442
16728300 4 17606651692512612362
16752209 62 17979352285132558522
1813 80 17834406618375991171
19591789 44 18194122047665374827
20028762 73 18054231205107860943
20101258 96 17687477766753313035
20567600 347 18408045129998681363
20600515 1 16905530312768972785
20775438 99 17468717877151578461
22033318 11 16465342503606723379
22956985 138 18188766120152270586
23366157 5 18116159861205634601
23419403 2 17679566862053691654
23559900 14 17979062800221052467
23598288 3 17609508476918948434
38695281 34 18412260662175066231
4017518 198 18343309197661434510
43471831 8 18410012113377648840
465052 167 17531249508304275633
5385378 56 18339933627838483897
59755656 215 18335138657350268493
81228 2 17329979712692815403

> <PUBCHEM_SHAPE_MULTIPOLES>
445.76
7.79
6.45
1.24
6.07
11.31
-0.11
-6.7
0.97
-4.13
-1.69
-0.65
0.52
-0.75

> <PUBCHEM_SHAPE_SELFOVERLAP>
890.779

> <PUBCHEM_SHAPE_VOLUME>
263.4

> <PUBCHEM_COORDINATE_TYPE>
2
5
10

$$$$
