28960258
  -OEChem-12032416293D

 69 74  0     1  0  0  0  0  0999 V2000
   -1.2855   -0.6891    1.7807 O   0  0  0  0  0  0  0  0  0  0  0  0
   -1.3674   -2.9723    1.3336 O   0  0  0  0  0  0  0  0  0  0  0  0
   -2.0666   -0.7413   -2.1625 O   0  0  0  0  0  0  0  0  0  0  0  0
    4.5937    0.8739    1.7303 O   0  0  0  0  0  0  0  0  0  0  0  0
   -3.8536    0.4313    0.0036 N   0  0  0  0  0  0  0  0  0  0  0  0
    0.6680   -0.9077   -0.8145 N   0  0  0  0  0  0  0  0  0  0  0  0
    3.4344   -0.2388   -0.5721 N   0  0  0  0  0  0  0  0  0  0  0  0
   -3.0142   -0.7726    0.0805 C   0  0  1  0  0  0  0  0  0  0  0  0
   -3.8636    2.8056    0.5660 C   0  0  0  0  0  0  0  0  0  0  0  0
   -5.9140   -0.4939   -0.9196 C   0  0  0  0  0  0  0  0  0  0  0  0
   -1.7546   -0.5422   -0.7845 C   0  0  1  0  0  0  0  0  0  0  0  0
   -2.6591   -1.0435    1.5617 C   0  0  1  0  0  0  0  0  0  0  0  0
   -0.6080   -1.4997   -0.3981 C   0  0  2  0  0  0  0  0  0  0  0  0
   -3.3717    1.4446    0.9387 C   0  0  0  0  0  0  0  0  0  0  0  0
   -5.2475    0.0948    0.2814 C   0  0  0  0  0  0  0  0  0  0  0  0
   -3.1339    4.0142    1.0742 C   0  0  0  0  0  0  0  0  0  0  0  0
   -3.0528    3.6444   -0.3779 C   0  0  0  0  0  0  0  0  0  0  0  0
   -6.3864    0.4152   -2.0160 C   0  0  0  0  0  0  0  0  0  0  0  0
   -7.3831   -0.2682   -1.1263 C   0  0  0  0  0  0  0  0  0  0  0  0
   -0.6079   -1.7681    1.1160 C   0  0  1  0  0  0  0  0  0  0  0  0
   -2.6092   -2.5257    1.8852 C   0  0  0  0  0  0  0  0  0  0  0  0
    1.6980   -1.9450   -0.9478 C   0  0  0  0  0  0  0  0  0  0  0  0
    1.1042    0.1079    0.1519 C   0  0  0  0  0  0  0  0  0  0  0  0
    3.0202   -1.3483   -1.4363 C   0  0  0  0  0  0  0  0  0  0  0  0
    2.4059    0.7733   -0.3007 C   0  0  0  0  0  0  0  0  0  0  0  0
    4.7744    0.1644   -0.5544 C   0  0  0  0  0  0  0  0  0  0  0  0
    5.3353    0.7146    0.5980 C   0  0  0  0  0  0  0  0  0  0  0  0
    5.5508    0.0101   -1.7028 C   0  0  0  0  0  0  0  0  0  0  0  0
    6.6728    1.1107    0.6019 C   0  0  0  0  0  0  0  0  0  0  0  0
    6.8883    0.4062   -1.6989 C   0  0  0  0  0  0  0  0  0  0  0  0
    7.4493    0.9565   -0.5466 C   0  0  0  0  0  0  0  0  0  0  0  0
    4.5838   -0.2113    2.6556 C   0  0  0  0  0  0  0  0  0  0  0  0
   -3.5562   -1.6287   -0.3370 H   0  0  0  0  0  0  0  0  0  0  0  0
   -4.9416    2.8952    0.5244 H   0  0  0  0  0  0  0  0  0  0  0  0
   -5.5373   -1.4709   -1.1949 H   0  0  0  0  0  0  0  0  0  0  0  0
   -1.4314    0.4998   -0.7167 H   0  0  0  0  0  0  0  0  0  0  0  0
   -3.3131   -0.5932    2.3104 H   0  0  0  0  0  0  0  0  0  0  0  0
   -0.7535   -2.4410   -0.9462 H   0  0  0  0  0  0  0  0  0  0  0  0
   -2.2778    1.4952    0.9755 H   0  0  0  0  0  0  0  0  0  0  0  0
   -3.7194    1.2833    1.9661 H   0  0  0  0  0  0  0  0  0  0  0  0
   -5.8189    0.9808    0.5806 H   0  0  0  0  0  0  0  0  0  0  0  0
   -5.3458   -0.6013    1.1245 H   0  0  0  0  0  0  0  0  0  0  0  0
   -2.2479    3.8722    1.6807 H   0  0  0  0  0  0  0  0  0  0  0  0
   -3.7219    4.8843    1.3401 H   0  0  0  0  0  0  0  0  0  0  0  0
   -3.5887    4.2630   -1.0875 H   0  0  0  0  0  0  0  0  0  0  0  0
   -2.1117    3.2555   -0.7470 H   0  0  0  0  0  0  0  0  0  0  0  0
   -6.2944    0.0628   -3.0360 H   0  0  0  0  0  0  0  0  0  0  0  0
   -6.2578    1.4843   -1.8994 H   0  0  0  0  0  0  0  0  0  0  0  0
   -7.9253    0.3424   -0.4149 H   0  0  0  0  0  0  0  0  0  0  0  0
   -7.9631   -1.0790   -1.5502 H   0  0  0  0  0  0  0  0  0  0  0  0
    0.3630   -1.9603    1.5769 H   0  0  0  0  0  0  0  0  0  0  0  0
   -2.5589   -2.6918    2.9672 H   0  0  0  0  0  0  0  0  0  0  0  0
   -3.4430   -3.1036    1.4775 H   0  0  0  0  0  0  0  0  0  0  0  0
    1.3808   -2.6994   -1.6784 H   0  0  0  0  0  0  0  0  0  0  0  0
    1.8725   -2.4670    0.0015 H   0  0  0  0  0  0  0  0  0  0  0  0
    1.3196   -0.2883    1.1495 H   0  0  0  0  0  0  0  0  0  0  0  0
    0.3635    0.9056    0.2691 H   0  0  0  0  0  0  0  0  0  0  0  0
   -2.3964   -1.6498   -2.2695 H   0  0  0  0  0  0  0  0  0  0  0  0
    3.7737   -2.1459   -1.4334 H   0  0  0  0  0  0  0  0  0  0  0  0
    2.9024   -0.9945   -2.4687 H   0  0  0  0  0  0  0  0  0  0  0  0
    2.2260    1.3468   -1.2201 H   0  0  0  0  0  0  0  0  0  0  0  0
    2.7043    1.5011    0.4598 H   0  0  0  0  0  0  0  0  0  0  0  0
    5.1459   -0.4001   -2.6234 H   0  0  0  0  0  0  0  0  0  0  0  0
    7.1165    1.5411    1.4956 H   0  0  0  0  0  0  0  0  0  0  0  0
    7.4923    0.2895   -2.5940 H   0  0  0  0  0  0  0  0  0  0  0  0
    8.4904    1.2658   -0.5438 H   0  0  0  0  0  0  0  0  0  0  0  0
    3.9391    0.0615    3.4956 H   0  0  0  0  0  0  0  0  0  0  0  0
    5.5929   -0.4001    3.0354 H   0  0  0  0  0  0  0  0  0  0  0  0
    4.1829   -1.1159    2.1876 H   0  0  0  0  0  0  0  0  0  0  0  0
  1 12  1  0  0  0  0
  1 20  1  0  0  0  0
  2 20  1  0  0  0  0
  2 21  1  0  0  0  0
  3 11  1  0  0  0  0
  3 58  1  0  0  0  0
  4 27  1  0  0  0  0
  4 32  1  0  0  0  0
  5  8  1  0  0  0  0
  5 14  1  0  0  0  0
  5 15  1  0  0  0  0
  6 13  1  0  0  0  0
  6 22  1  0  0  0  0
  6 23  1  0  0  0  0
  7 24  1  0  0  0  0
  7 25  1  0  0  0  0
  7 26  1  0  0  0  0
  8 11  1  0  0  0  0
  8 12  1  0  0  0  0
  8 33  1  0  0  0  0
  9 14  1  0  0  0  0
  9 16  1  0  0  0  0
  9 17  1  0  0  0  0
  9 34  1  0  0  0  0
 10 15  1  0  0  0  0
 10 18  1  0  0  0  0
 10 19  1  0  0  0  0
 10 35  1  0  0  0  0
 11 13  1  0  0  0  0
 11 36  1  0  0  0  0
 12 21  1  0  0  0  0
 12 37  1  0  0  0  0
 13 20  1  0  0  0  0
 13 38  1  0  0  0  0
 14 39  1  0  0  0  0
 14 40  1  0  0  0  0
 15 41  1  0  0  0  0
 15 42  1  0  0  0  0
 16 17  1  0  0  0  0
 16 43  1  0  0  0  0
 16 44  1  0  0  0  0
 17 45  1  0  0  0  0
 17 46  1  0  0  0  0
 18 19  1  0  0  0  0
 18 47  1  0  0  0  0
 18 48  1  0  0  0  0
 19 49  1  0  0  0  0
 19 50  1  0  0  0  0
 20 51  1  0  0  0  0
 21 52  1  0  0  0  0
 21 53  1  0  0  0  0
 22 24  1  0  0  0  0
 22 54  1  0  0  0  0
 22 55  1  0  0  0  0
 23 25  1  0  0  0  0
 23 56  1  0  0  0  0
 23 57  1  0  0  0  0
 24 59  1  0  0  0  0
 24 60  1  0  0  0  0
 25 61  1  0  0  0  0
 25 62  1  0  0  0  0
 26 27  1  0  0  0  0
 26 28  2  0  0  0  0
 27 29  2  0  0  0  0
 28 30  1  0  0  0  0
 28 63  1  0  0  0  0
 29 31  1  0  0  0  0
 29 64  1  0  0  0  0
 30 31  2  0  0  0  0
 30 65  1  0  0  0  0
 31 66  1  0  0  0  0
 32 67  1  0  0  0  0
 32 68  1  0  0  0  0
 32 69  1  0  0  0  0
M  END
> <PUBCHEM_COMPOUND_CID>
28960258

> <PUBCHEM_CONFORMER_RMSD>
1

> <PUBCHEM_CONFORMER_DIVERSEORDER>
1
29
17
32
19
24
16
9
8
18
20
21
27
3
12
15
25
14
22
23
4
13
10
28
31
6
26
30
2
11
7
5

> <PUBCHEM_MMFF94_PARTIAL_CHARGES>
47
1 -0.56
10 -0.19
11 0.28
12 0.28
13 0.27
14 0.37
15 0.37
16 -0.2
17 -0.2
18 -0.2
19 -0.2
2 -0.56
20 0.56
21 0.28
22 0.27
23 0.27
24 0.37
25 0.37
26 0.1
27 0.08
28 -0.15
29 -0.15
3 -0.68
30 -0.15
31 -0.15
32 0.28
34 0.1
35 0.1
4 -0.36
43 0.1
44 0.1
45 0.1
46 0.1
47 0.1
48 0.1
49 0.1
5 -0.81
50 0.1
58 0.4
6 -0.81
63 0.15
64 0.15
65 0.15
66 0.15
7 -0.84
8 0.27
9 -0.19

> <PUBCHEM_EFFECTIVE_ROTOR_COUNT>
11.6

> <PUBCHEM_PHARMACOPHORE_FEATURES>
11
1 1 acceptor
1 2 acceptor
1 3 acceptor
1 3 donor
1 4 acceptor
1 5 cation
1 6 cation
1 7 cation
6 26 27 28 29 30 31 rings
6 6 7 22 23 24 25 rings
8 1 2 8 11 12 13 20 21 rings

> <PUBCHEM_HEAVY_ATOM_COUNT>
32

> <PUBCHEM_ATOM_DEF_STEREO_COUNT>
5

> <PUBCHEM_ATOM_UDEF_STEREO_COUNT>
0

> <PUBCHEM_BOND_DEF_STEREO_COUNT>
0

> <PUBCHEM_BOND_UDEF_STEREO_COUNT>
0

> <PUBCHEM_ISOTOPIC_ATOM_COUNT>
0

> <PUBCHEM_COMPONENT_COUNT>
1

> <PUBCHEM_CACTVS_TAUTO_COUNT>
1

> <PUBCHEM_CONFORMER_ID>
01B9E60200000001

> <PUBCHEM_MMFF94_ENERGY>
140.1013

> <PUBCHEM_FEATURE_SELFOVERLAP>
55.869

> <PUBCHEM_SHAPE_FINGERPRINT>
10291535 26 18336837450207067667
10670039 82 18412266103841121220
11297750 10 17609787753548130795
11477941 20 17988633100080806605
12166972 35 16128656379244552280
12236239 1 15841561764160431982
12633257 1 17530969115811752134
12788726 201 18409445865295474473
13673619 4 10375871870384768423
13726171 33 18057044598240516385
13941219 33 12685085999249043120
14347329 18 18341056237995595496
15003188 100 17489585701682136256
15064986 96 14273734010837286361
15419008 47 17917711326764876329
15799311 1 15719401642239018402
16067690 210 18334566963160334168
20554085 129 18261661632323653971
21150785 3 16487258781229687286
21403212 168 10737278044838093085
21639891 77 17897178029627347299
23516275 100 18057027211448778384
23569914 152 16549203896434236348
23569943 247 15048678542732148302
3383291 50 18337394937020429091
3633792 109 17531795849998581255
3918712 181 18410567362560852948
4093350 32 15574705877168320000
4098825 35 16486982756482085385
508706 21 18412271631263415440
5171179 24 16810650237794610403
6009941 240 12829488147107008077
6371009 1 18333450941224409293
7226269 152 18259984894671590739
9849439 229 17972603178130418929
9961470 85 18121216738515846917
9981440 41 18261119530521198515

> <PUBCHEM_SHAPE_MULTIPOLES>
620.12
18.54
2.95
2.05
13.98
2.58
0.41
6.69
-6.28
-4.3
1.18
0.51
-0.61
0.36

> <PUBCHEM_SHAPE_SELFOVERLAP>
1320.516

> <PUBCHEM_SHAPE_VOLUME>
344

> <PUBCHEM_COORDINATE_TYPE>
2
5
10

$$$$
