75536470
  -OEChem-12032416343D

 50 53  0     1  0  0  0  0  0999 V2000
    2.6854   -0.8843    1.6311 O   0  0  0  0  0  0  0  0  0  0  0  0
    0.9771   -3.0012   -0.7153 O   0  0  0  0  0  0  0  0  0  0  0  0
    5.0377    0.7970    0.6959 O   0  0  0  0  0  0  0  0  0  0  0  0
   -0.8138   -0.8037    0.6411 N   0  0  0  0  0  0  0  0  0  0  0  0
    3.8314   -0.3658   -0.9232 N   0  0  0  0  0  0  0  0  0  0  0  0
   -2.2688    1.9709    1.1751 N   0  0  0  0  0  0  0  0  0  0  0  0
   -2.2910   -0.0859   -1.9079 N   0  0  0  0  0  0  0  0  0  0  0  0
   -3.9125    0.4832    1.3032 N   0  0  0  0  0  0  0  0  0  0  0  0
   -3.9433   -1.2218   -0.9531 N   0  0  0  0  0  0  0  0  0  0  0  0
    0.4414   -1.4088    1.0560 C   0  0  1  0  0  0  0  0  0  0  0  0
    1.3491   -1.7826   -0.1012 C   0  0  1  0  0  0  0  0  0  0  0  0
    4.2483    2.0079   -1.1602 C   0  0  0  0  0  0  0  0  0  0  0  0
    2.6944   -1.8897    0.6041 C   0  0  1  0  0  0  0  0  0  0  0  0
    3.6424    3.2000   -0.4975 C   0  0  0  0  0  0  0  0  0  0  0  0
    2.8668    2.4359   -1.5285 C   0  0  0  0  0  0  0  0  0  0  0  0
    1.3286   -0.4539    1.8378 C   0  0  0  0  0  0  0  0  0  0  0  0
    3.8770   -1.6673   -0.3217 C   0  0  0  0  0  0  0  0  0  0  0  0
    4.4180    0.7589   -0.3606 C   0  0  0  0  0  0  0  0  0  0  0  0
   -1.5861   -0.3567    1.8040 C   0  0  0  0  0  0  0  0  0  0  0  0
   -1.6059   -1.7435   -0.1580 C   0  0  0  0  0  0  0  0  0  0  0  0
   -2.6179    0.6738    1.4292 C   0  0  0  0  0  0  0  0  0  0  0  0
   -2.6424   -1.0366   -0.9903 C   0  0  0  0  0  0  0  0  0  0  0  0
   -3.4135    2.6506    0.8675 C   0  0  0  0  0  0  0  0  0  0  0  0
   -3.4412    0.3638   -2.4930 C   0  0  0  0  0  0  0  0  0  0  0  0
   -4.4143    1.7117    0.9532 C   0  0  0  0  0  0  0  0  0  0  0  0
   -4.4471   -0.3518   -1.8875 C   0  0  0  0  0  0  0  0  0  0  0  0
    0.2447   -2.3030    1.6663 H   0  0  0  0  0  0  0  0  0  0  0  0
    1.3398   -0.9945   -0.8630 H   0  0  0  0  0  0  0  0  0  0  0  0
    5.0406    2.2008   -1.8758 H   0  0  0  0  0  0  0  0  0  0  0  0
    2.8051   -2.8664    1.0916 H   0  0  0  0  0  0  0  0  0  0  0  0
    4.0185    4.1779   -0.7726 H   0  0  0  0  0  0  0  0  0  0  0  0
    3.3187    3.1206    0.5332 H   0  0  0  0  0  0  0  0  0  0  0  0
    2.0189    1.8566   -1.1832 H   0  0  0  0  0  0  0  0  0  0  0  0
    2.7231    2.8990   -2.4972 H   0  0  0  0  0  0  0  0  0  0  0  0
    1.2626    0.5777    1.4727 H   0  0  0  0  0  0  0  0  0  0  0  0
    1.1257   -0.4599    2.9129 H   0  0  0  0  0  0  0  0  0  0  0  0
    3.8892   -2.4089   -1.1267 H   0  0  0  0  0  0  0  0  0  0  0  0
    4.8120   -1.7522    0.2432 H   0  0  0  0  0  0  0  0  0  0  0  0
    3.3550   -0.2746   -1.8158 H   0  0  0  0  0  0  0  0  0  0  0  0
   -0.9588    0.1296    2.5595 H   0  0  0  0  0  0  0  0  0  0  0  0
   -2.0695   -1.1968    2.3201 H   0  0  0  0  0  0  0  0  0  0  0  0
   -2.0772   -2.5173    0.4615 H   0  0  0  0  0  0  0  0  0  0  0  0
   -1.0276   -2.2709   -0.9145 H   0  0  0  0  0  0  0  0  0  0  0  0
    0.9684   -3.6956   -0.0348 H   0  0  0  0  0  0  0  0  0  0  0  0
   -1.3346    2.3575    1.2059 H   0  0  0  0  0  0  0  0  0  0  0  0
   -1.3526    0.2300   -2.1142 H   0  0  0  0  0  0  0  0  0  0  0  0
   -3.4098    3.7029    0.6233 H   0  0  0  0  0  0  0  0  0  0  0  0
   -3.4372    1.1262   -3.2582 H   0  0  0  0  0  0  0  0  0  0  0  0
   -5.4704    1.8574    0.7796 H   0  0  0  0  0  0  0  0  0  0  0  0
   -5.5085   -0.2839   -2.0757 H   0  0  0  0  0  0  0  0  0  0  0  0
  1 13  1  0  0  0  0
  1 16  1  0  0  0  0
  2 11  1  0  0  0  0
  2 44  1  0  0  0  0
  3 18  2  0  0  0  0
  4 10  1  0  0  0  0
  4 19  1  0  0  0  0
  4 20  1  0  0  0  0
  5 17  1  0  0  0  0
  5 18  1  0  0  0  0
  5 39  1  0  0  0  0
  6 21  1  0  0  0  0
  6 23  1  0  0  0  0
  6 45  1  0  0  0  0
  7 22  1  0  0  0  0
  7 24  1  0  0  0  0
  7 46  1  0  0  0  0
  8 21  2  0  0  0  0
  8 25  1  0  0  0  0
  9 22  2  0  0  0  0
  9 26  1  0  0  0  0
 10 11  1  0  0  0  0
 10 16  1  0  0  0  0
 10 27  1  0  0  0  0
 11 13  1  0  0  0  0
 11 28  1  0  0  0  0
 12 14  1  0  0  0  0
 12 15  1  0  0  0  0
 12 18  1  0  0  0  0
 12 29  1  0  0  0  0
 13 17  1  0  0  0  0
 13 30  1  0  0  0  0
 14 15  1  0  0  0  0
 14 31  1  0  0  0  0
 14 32  1  0  0  0  0
 15 33  1  0  0  0  0
 15 34  1  0  0  0  0
 16 35  1  0  0  0  0
 16 36  1  0  0  0  0
 17 37  1  0  0  0  0
 17 38  1  0  0  0  0
 19 21  1  0  0  0  0
 19 40  1  0  0  0  0
 19 41  1  0  0  0  0
 20 22  1  0  0  0  0
 20 42  1  0  0  0  0
 20 43  1  0  0  0  0
 23 25  2  0  0  0  0
 23 47  1  0  0  0  0
 24 26  2  0  0  0  0
 24 48  1  0  0  0  0
 25 49  1  0  0  0  0
 26 50  1  0  0  0  0
M  END
> <PUBCHEM_COMPOUND_CID>
75536470

> <PUBCHEM_CONFORMER_RMSD>
1

> <PUBCHEM_CONFORMER_DIVERSEORDER>
1
17
31
74
64
46
65
14
2
75
22
77
27
35
63
70
76
59
33
3
23
42
73
40
49
26
11
16
48
60
47
44
58
30
20
66
13
61
72
53
54
71
29
52
32
7
67
68
39
19
5
15
51
38
43
21
37
34
57
69
41
18
55
25
10
12
45
6
28
4
56
24
36
9
62
50
8

> <PUBCHEM_MMFF94_PARTIAL_CHARGES>
39
1 -0.56
10 0.27
11 0.28
12 -0.1
13 0.28
14 -0.2
15 -0.2
16 0.28
17 0.3
18 0.63
19 0.45
2 -0.68
20 0.45
21 0.01
22 0.01
23 -0.3
24 -0.3
25 0.08
26 0.08
29 0.1
3 -0.57
31 0.1
32 0.1
33 0.1
34 0.1
39 0.37
4 -0.81
44 0.4
45 0.27
46 0.27
47 0.15
48 0.15
49 0.15
5 -0.73
50 0.15
6 0.03
7 0.03
8 -0.57
9 -0.57

> <PUBCHEM_EFFECTIVE_ROTOR_COUNT>
10.6

> <PUBCHEM_PHARMACOPHORE_FEATURES>
13
1 1 acceptor
1 2 acceptor
1 2 donor
1 3 acceptor
1 4 cation
1 5 donor
1 6 donor
1 7 donor
3 6 8 21 cation
3 7 9 22 cation
5 1 10 11 13 16 rings
5 6 8 21 23 25 rings
5 7 9 22 24 26 rings

> <PUBCHEM_HEAVY_ATOM_COUNT>
26

> <PUBCHEM_ATOM_DEF_STEREO_COUNT>
3

> <PUBCHEM_ATOM_UDEF_STEREO_COUNT>
0

> <PUBCHEM_BOND_DEF_STEREO_COUNT>
0

> <PUBCHEM_BOND_UDEF_STEREO_COUNT>
0

> <PUBCHEM_ISOTOPIC_ATOM_COUNT>
0

> <PUBCHEM_COMPONENT_COUNT>
1

> <PUBCHEM_CACTVS_TAUTO_COUNT>
2

> <PUBCHEM_CONFORMER_ID>
0480985600000001

> <PUBCHEM_MMFF94_ENERGY>
46.3531

> <PUBCHEM_FEATURE_SELFOVERLAP>
65.977

> <PUBCHEM_SHAPE_FINGERPRINT>
10928967 22 10447667780940343052
11578080 2 16805602547625860877
12035759 4 18341325703657936861
12173636 292 18342184370557463995
13103583 49 11458413640224002436
13135754 10 15912503427602006483
13583140 156 16805604707630232635
14178342 30 13334734579203868923
14251764 3 16732983154147715784
15021287 119 18194690254727617842
15295992 7 16516795958286853211
17980427 23 18269822156596849378
21033648 144 18113621218080691094
21033648 29 16298386846715520326
21095088 737 18335135448888203661
21591340 35 14425949176187964454
21864079 5 18339371776953208032
22907989 373 18059017301491950747
23227448 37 18338812159978843497
23559900 14 16342281464247952442
25265897 201 17627833817959975349
2838139 119 18340494452131291704
474 4 18333455348029010290
5081480 168 18191039902125106470
5104073 3 12829499116500824750
574716 61 18412542115413488941
633830 44 18336271123982538602

> <PUBCHEM_SHAPE_MULTIPOLES>
487.57
10.45
3.11
2.11
2.77
1.37
-0.41
5.13
-2.28
2.38
-0.24
-2.11
0.25
-2.13

> <PUBCHEM_SHAPE_SELFOVERLAP>
1039.064

> <PUBCHEM_SHAPE_VOLUME>
269.9

> <PUBCHEM_COORDINATE_TYPE>
2
5
10

$$$$
