75536616
  -OEChem-12032416393D

 48 50  0     1  0  0  0  0  0999 V2000
   -0.0920    0.5356   -0.9015 O   0  0  0  0  0  0  0  0  0  0  0  0
   -1.3262   -2.4116    0.7405 O   0  0  0  0  0  0  0  0  0  0  0  0
    3.2221   -1.6094    1.2013 O   0  0  0  0  0  0  0  0  0  0  0  0
   -3.5211   -0.6543   -0.6632 N   0  0  0  0  0  0  0  0  0  0  0  0
   -7.1586    0.9752    0.8253 N   0  0  0  0  0  0  0  0  0  0  0  0
    2.4952   -0.7176   -0.8135 N   0  0  0  0  0  0  0  0  0  0  0  0
   -2.1878   -0.3241   -0.1869 C   0  0  1  0  0  0  0  0  0  0  0  0
   -1.1980   -1.4682   -0.3055 C   0  0  1  0  0  0  0  0  0  0  0  0
   -4.4930    0.3397   -0.2139 C   0  0  0  0  0  0  0  0  0  0  0  0
    0.1259   -0.7192   -0.2354 C   0  0  1  0  0  0  0  0  0  0  0  0
   -1.5094    0.7483   -1.0235 C   0  0  0  0  0  0  0  0  0  0  0  0
   -5.7451    0.2938   -1.0959 C   0  0  0  0  0  0  0  0  0  0  0  0
   -4.8728    0.1124    1.2538 C   0  0  0  0  0  0  0  0  0  0  0  0
   -6.8157    1.2522   -0.5720 C   0  0  0  0  0  0  0  0  0  0  0  0
   -5.9774    1.0778    1.6859 C   0  0  0  0  0  0  0  0  0  0  0  0
    1.2715   -1.4612   -0.9004 C   0  0  0  0  0  0  0  0  0  0  0  0
    3.3859   -0.8538    0.2470 C   0  0  0  0  0  0  0  0  0  0  0  0
    4.5959    0.0071    0.2022 C   0  0  0  0  0  0  0  0  0  0  0  0
    5.2334    0.3769    1.3865 C   0  0  0  0  0  0  0  0  0  0  0  0
    5.0952    0.4442   -1.0245 C   0  0  0  0  0  0  0  0  0  0  0  0
    6.3703    1.1840    1.3440 C   0  0  0  0  0  0  0  0  0  0  0  0
    6.2321    1.2511   -1.0672 C   0  0  0  0  0  0  0  0  0  0  0  0
    6.8697    1.6211    0.1171 C   0  0  0  0  0  0  0  0  0  0  0  0
   -2.2015   -0.0165    0.8657 H   0  0  0  0  0  0  0  0  0  0  0  0
   -1.3081   -1.9876   -1.2657 H   0  0  0  0  0  0  0  0  0  0  0  0
   -4.0764    1.3508   -0.3168 H   0  0  0  0  0  0  0  0  0  0  0  0
    0.3901   -0.4944    0.8064 H   0  0  0  0  0  0  0  0  0  0  0  0
   -3.7936   -1.5783   -0.3293 H   0  0  0  0  0  0  0  0  0  0  0  0
   -1.7574    0.6651   -2.0880 H   0  0  0  0  0  0  0  0  0  0  0  0
   -1.7507    1.7626   -0.6917 H   0  0  0  0  0  0  0  0  0  0  0  0
   -6.1542   -0.7253   -1.1209 H   0  0  0  0  0  0  0  0  0  0  0  0
   -5.4909    0.5605   -2.1291 H   0  0  0  0  0  0  0  0  0  0  0  0
   -4.0160    0.2531    1.9208 H   0  0  0  0  0  0  0  0  0  0  0  0
   -5.2222   -0.9189    1.3999 H   0  0  0  0  0  0  0  0  0  0  0  0
   -7.7190    1.1463   -1.1828 H   0  0  0  0  0  0  0  0  0  0  0  0
   -6.4790    2.2908   -0.6776 H   0  0  0  0  0  0  0  0  0  0  0  0
   -5.6011    2.1083    1.6869 H   0  0  0  0  0  0  0  0  0  0  0  0
   -6.2725    0.8452    2.7151 H   0  0  0  0  0  0  0  0  0  0  0  0
    1.0720   -1.5994   -1.9688 H   0  0  0  0  0  0  0  0  0  0  0  0
    1.4112   -2.4465   -0.4428 H   0  0  0  0  0  0  0  0  0  0  0  0
   -7.8615    1.6444    1.1379 H   0  0  0  0  0  0  0  0  0  0  0  0
   -1.2298   -1.9444    1.5875 H   0  0  0  0  0  0  0  0  0  0  0  0
    2.6568   -0.0230   -1.5347 H   0  0  0  0  0  0  0  0  0  0  0  0
    4.8573    0.0501    2.3523 H   0  0  0  0  0  0  0  0  0  0  0  0
    4.6481    0.1541   -1.9707 H   0  0  0  0  0  0  0  0  0  0  0  0
    6.8665    1.4727    2.2660 H   0  0  0  0  0  0  0  0  0  0  0  0
    6.6256    1.5859   -2.0225 H   0  0  0  0  0  0  0  0  0  0  0  0
    7.7557    2.2483    0.0837 H   0  0  0  0  0  0  0  0  0  0  0  0
  1 10  1  0  0  0  0
  1 11  1  0  0  0  0
  2  8  1  0  0  0  0
  2 42  1  0  0  0  0
  3 17  2  0  0  0  0
  4  7  1  0  0  0  0
  4  9  1  0  0  0  0
  4 28  1  0  0  0  0
  5 14  1  0  0  0  0
  5 15  1  0  0  0  0
  5 41  1  0  0  0  0
  6 16  1  0  0  0  0
  6 17  1  0  0  0  0
  6 43  1  0  0  0  0
  7  8  1  0  0  0  0
  7 11  1  0  0  0  0
  7 24  1  0  0  0  0
  8 10  1  0  0  0  0
  8 25  1  0  0  0  0
  9 12  1  0  0  0  0
  9 13  1  0  0  0  0
  9 26  1  0  0  0  0
 10 16  1  0  0  0  0
 10 27  1  0  0  0  0
 11 29  1  0  0  0  0
 11 30  1  0  0  0  0
 12 14  1  0  0  0  0
 12 31  1  0  0  0  0
 12 32  1  0  0  0  0
 13 15  1  0  0  0  0
 13 33  1  0  0  0  0
 13 34  1  0  0  0  0
 14 35  1  0  0  0  0
 14 36  1  0  0  0  0
 15 37  1  0  0  0  0
 15 38  1  0  0  0  0
 16 39  1  0  0  0  0
 16 40  1  0  0  0  0
 17 18  1  0  0  0  0
 18 19  2  0  0  0  0
 18 20  1  0  0  0  0
 19 21  1  0  0  0  0
 19 44  1  0  0  0  0
 20 22  2  0  0  0  0
 20 45  1  0  0  0  0
 21 23  2  0  0  0  0
 21 46  1  0  0  0  0
 22 23  1  0  0  0  0
 22 47  1  0  0  0  0
 23 48  1  0  0  0  0
M  END
> <PUBCHEM_COMPOUND_CID>
75536616

> <PUBCHEM_CONFORMER_RMSD>
0.8

> <PUBCHEM_CONFORMER_DIVERSEORDER>
1
108
13
63
126
138
104
127
147
107
19
117
144
121
135
60
146
21
119
85
143
49
148
6
72
130
45
58
103
88
111
125
46
129
98
101
139
25
37
95
73
115
31
71
113
48
2
55
123
124
91
50
114
52
26
70
41
28
62
23
128
90
109
112
97
137
43
131
89
142
105
94
12
78
77
84
110
47
116
122
93
136
40
120
69
133
75
36
141
92
57
9
87
74
44
32
132
100
35
102
54
27
118
29
86
51
140
42
10
61
53
59
79
82
4
24
80
67
3
106
134
56
33
66
65
96
11
64
18
39
22
5
145
20
99
17
8
7
83
76
30
38
34
81
16
68
15
14

> <PUBCHEM_MMFF94_PARTIAL_CHARGES>
30
1 -0.56
10 0.28
11 0.28
14 0.27
15 0.27
16 0.3
17 0.54
18 0.09
19 -0.15
2 -0.68
20 -0.15
21 -0.15
22 -0.15
23 -0.15
28 0.36
3 -0.57
4 -0.9
41 0.36
42 0.4
43 0.37
44 0.15
45 0.15
46 0.15
47 0.15
48 0.15
5 -0.9
6 -0.73
7 0.27
8 0.28
9 0.27

> <PUBCHEM_EFFECTIVE_ROTOR_COUNT>
8.2

> <PUBCHEM_PHARMACOPHORE_FEATURES>
12
1 1 acceptor
1 2 acceptor
1 2 donor
1 3 acceptor
1 4 cation
1 4 donor
1 5 cation
1 5 donor
1 6 donor
5 1 7 8 10 11 rings
6 18 19 20 21 22 23 rings
6 5 9 12 13 14 15 rings

> <PUBCHEM_HEAVY_ATOM_COUNT>
23

> <PUBCHEM_ATOM_DEF_STEREO_COUNT>
3

> <PUBCHEM_ATOM_UDEF_STEREO_COUNT>
0

> <PUBCHEM_BOND_DEF_STEREO_COUNT>
0

> <PUBCHEM_BOND_UDEF_STEREO_COUNT>
0

> <PUBCHEM_ISOTOPIC_ATOM_COUNT>
0

> <PUBCHEM_COMPONENT_COUNT>
1

> <PUBCHEM_CACTVS_TAUTO_COUNT>
2

> <PUBCHEM_CONFORMER_ID>
048098E800000001

> <PUBCHEM_MMFF94_ENERGY>
37.3988

> <PUBCHEM_FEATURE_SELFOVERLAP>
60.897

> <PUBCHEM_SHAPE_FINGERPRINT>
10 15 17458347446122239669
10554248 39 17773585019255528775
106641 1 18260272975640403275
10670039 82 14117527514701694011
10753850 27 10665228154905896742
10906281 52 18340499923001411055
117890 112 18342455945729236478
11991303 11 13398335898328246973
12166972 35 13038900062244222483
125118 31 18261672571726903341
12555020 224 10519982664777236541
12596602 18 16008465434613189916
12616971 3 16878220965634766358
12670543 26 13039190286222035379
12760667 363 8358261449261903703
12954195 1 10879728562892010059
13533116 47 18341613647204035566
13668630 136 9727629505999211205
13673619 4 8070029964882535686
13685833 64 11818992980952772276
13690498 29 15194702650275773965
13782708 43 10881403144680324021
13862211 1 8718827582908176949
14251752 14 13470408850825547277
14251764 18 18261393373419897759
14347332 77 10159713377721675494
14528608 73 16630522933967120094
14933364 13 16559033791978397069
15048467 5 18202001027561868361
15183329 4 13901915500644904570
15188451 53 13190339080039745591
15348495 7 16515975855682977177
15706992 2 17988096555617430409
15716309 27 13767929026869709933
16994733 274 18201155464961548761
1768 124 13623524658699082448
17980427 23 18188208818101637662
190975 80 16805329932754933305
2026 5 11530478948251003065
20281389 69 18342455915595939065
21033648 29 17845361297794797642
21150785 3 15626220230233329069
21424621 283 18201165356291998691
21637258 2 11746936503406108479
22061861 79 12175621771765279065
221357 26 14979959168711086290
2215653 11 12319736977453494852
22224240 67 18260268543134225667
23081809 10 17846490405625907639
23198884 109 16558753412408049709
29717793 49 9871748001083736682
300161 21 18410852165920258319
3004659 81 11095882683709937582
312425 54 14779542361857805977
3472631 163 17775001340920079260
4058900 60 15984837999384661647
4340502 62 16587740928314929106
445580 37 16415766314820213217
465052 167 7997679926452279594
5104073 3 17677893625011289688
543368 44 17989487403767274713
559249 180 12829206672931715089
5758199 1 18342741806479414547
59682541 35 17676211311595625041
59682541 52 14476967774838604204
59755656 215 11167947952279943436
6438161 24 11671784841262442396

> <PUBCHEM_SHAPE_MULTIPOLES>
440.78
21.29
1.66
1.4
3.06
0.41
0.24
-13.91
2.24
-0.47
0.3
-0.02
-0.22
-0.43

> <PUBCHEM_SHAPE_SELFOVERLAP>
917.975

> <PUBCHEM_SHAPE_VOLUME>
249.2

> <PUBCHEM_COORDINATE_TYPE>
2
5
10

$$$$
