75367171
  -OEChem-12032416393D

 46 49  0     1  0  0  0  0  0999 V2000
   -2.2606    3.0874   -0.3430 O   0  0  0  0  0  0  0  0  0  0  0  0
   -1.9318    0.3141    0.3690 N   0  0  1  0  0  0  0  0  0  0  0  0
   -4.5403   -3.0322    0.0531 N   0  0  0  0  0  0  0  0  0  0  0  0
    1.2074    0.1147   -0.4268 N   0  0  0  0  0  0  0  0  0  0  0  0
    0.8295    2.2380    0.1026 N   0  0  0  0  0  0  0  0  0  0  0  0
    5.9595   -1.6840    0.1678 N   0  0  0  0  0  0  0  0  0  0  0  0
   -3.0301   -0.5256   -0.1036 C   0  0  0  0  0  0  0  0  0  0  0  0
   -1.1687    0.9119   -0.7496 C   0  0  1  0  0  0  0  0  0  0  0  0
   -4.0305   -0.8071    1.0234 C   0  0  0  0  0  0  0  0  0  0  0  0
   -2.4865   -1.8424   -0.6675 C   0  0  0  0  0  0  0  0  0  0  0  0
   -2.3943    1.3356    1.3181 C   0  0  0  0  0  0  0  0  0  0  0  0
   -5.1132   -1.7822    0.5590 C   0  0  0  0  0  0  0  0  0  0  0  0
   -3.6296   -2.7773   -1.0659 C   0  0  0  0  0  0  0  0  0  0  0  0
   -1.8830    2.1434   -1.3456 C   0  0  0  0  0  0  0  0  0  0  0  0
   -3.1093    2.4961    0.6368 C   0  0  0  0  0  0  0  0  0  0  0  0
    0.2910    1.1261   -0.3467 C   0  0  0  0  0  0  0  0  0  0  0  0
    2.4064    0.6134   -0.0014 C   0  0  0  0  0  0  0  0  0  0  0  0
    2.1480    1.9251    0.3199 C   0  0  0  0  0  0  0  0  0  0  0  0
    3.6139   -0.1676    0.0553 C   0  0  0  0  0  0  0  0  0  0  0  0
    4.8502    0.4451   -0.1174 C   0  0  0  0  0  0  0  0  0  0  0  0
    3.5491   -1.5376    0.2843 C   0  0  0  0  0  0  0  0  0  0  0  0
    5.9829   -0.3504   -0.0527 C   0  0  0  0  0  0  0  0  0  0  0  0
    4.7400   -2.2444    0.3310 C   0  0  0  0  0  0  0  0  0  0  0  0
   -3.5887   -0.0172   -0.9010 H   0  0  0  0  0  0  0  0  0  0  0  0
   -1.0934    0.2040   -1.5840 H   0  0  0  0  0  0  0  0  0  0  0  0
   -4.5690    0.0933    1.3385 H   0  0  0  0  0  0  0  0  0  0  0  0
   -3.5234   -1.2335    1.8996 H   0  0  0  0  0  0  0  0  0  0  0  0
   -1.8579   -2.3418    0.0825 H   0  0  0  0  0  0  0  0  0  0  0  0
   -1.8601   -1.6890   -1.5515 H   0  0  0  0  0  0  0  0  0  0  0  0
   -1.4875    1.7502    1.7819 H   0  0  0  0  0  0  0  0  0  0  0  0
   -2.9445    0.9583    2.1840 H   0  0  0  0  0  0  0  0  0  0  0  0
   -5.7715   -2.0151    1.4034 H   0  0  0  0  0  0  0  0  0  0  0  0
   -5.7380   -1.3167   -0.2134 H   0  0  0  0  0  0  0  0  0  0  0  0
   -3.2097   -3.7325   -1.4000 H   0  0  0  0  0  0  0  0  0  0  0  0
   -4.1842   -2.3579   -1.9144 H   0  0  0  0  0  0  0  0  0  0  0  0
   -1.2213    2.6625   -2.0478 H   0  0  0  0  0  0  0  0  0  0  0  0
   -2.7797    1.8531   -1.9057 H   0  0  0  0  0  0  0  0  0  0  0  0
   -4.0532    2.1918    0.1708 H   0  0  0  0  0  0  0  0  0  0  0  0
   -3.3434    3.2693    1.3756 H   0  0  0  0  0  0  0  0  0  0  0  0
   -5.2931   -3.6449   -0.2591 H   0  0  0  0  0  0  0  0  0  0  0  0
    1.0234   -0.8258   -0.7511 H   0  0  0  0  0  0  0  0  0  0  0  0
    2.8365    2.6665    0.7002 H   0  0  0  0  0  0  0  0  0  0  0  0
    4.9511    1.5094   -0.3035 H   0  0  0  0  0  0  0  0  0  0  0  0
    2.6121   -2.0633    0.4360 H   0  0  0  0  0  0  0  0  0  0  0  0
    6.9711    0.0786   -0.1822 H   0  0  0  0  0  0  0  0  0  0  0  0
    4.7443   -3.3147    0.5094 H   0  0  0  0  0  0  0  0  0  0  0  0
  1 14  1  0  0  0  0
  1 15  1  0  0  0  0
  2  7  1  0  0  0  0
  2  8  1  0  0  0  0
  2 11  1  0  0  0  0
  3 12  1  0  0  0  0
  3 13  1  0  0  0  0
  3 40  1  0  0  0  0
  4 16  1  0  0  0  0
  4 17  1  0  0  0  0
  4 41  1  0  0  0  0
  5 16  2  0  0  0  0
  5 18  1  0  0  0  0
  6 22  2  0  0  0  0
  6 23  1  0  0  0  0
  7  9  1  0  0  0  0
  7 10  1  0  0  0  0
  7 24  1  0  0  0  0
  8 14  1  0  0  0  0
  8 16  1  0  0  0  0
  8 25  1  0  0  0  0
  9 12  1  0  0  0  0
  9 26  1  0  0  0  0
  9 27  1  0  0  0  0
 10 13  1  0  0  0  0
 10 28  1  0  0  0  0
 10 29  1  0  0  0  0
 11 15  1  0  0  0  0
 11 30  1  0  0  0  0
 11 31  1  0  0  0  0
 12 32  1  0  0  0  0
 12 33  1  0  0  0  0
 13 34  1  0  0  0  0
 13 35  1  0  0  0  0
 14 36  1  0  0  0  0
 14 37  1  0  0  0  0
 15 38  1  0  0  0  0
 15 39  1  0  0  0  0
 17 18  2  0  0  0  0
 17 19  1  0  0  0  0
 18 42  1  0  0  0  0
 19 20  2  0  0  0  0
 19 21  1  0  0  0  0
 20 22  1  0  0  0  0
 20 43  1  0  0  0  0
 21 23  2  0  0  0  0
 21 44  1  0  0  0  0
 22 45  1  0  0  0  0
 23 46  1  0  0  0  0
M  END
> <PUBCHEM_COMPOUND_CID>
75367171

> <PUBCHEM_CONFORMER_RMSD>
0.8

> <PUBCHEM_CONFORMER_DIVERSEORDER>
4
17
6
31
16
25
21
11
12
24
13
7
32
14
27
18
15
26
28
23
1
5
29
2
10
9
20
30
22
34
3
8
19
33

> <PUBCHEM_MMFF94_PARTIAL_CHARGES>
28
1 -0.56
11 0.27
12 0.27
13 0.27
14 0.28
15 0.28
16 0.01
17 -0.2
18 0.08
19 0.05
2 -0.81
20 -0.15
21 -0.15
22 0.16
23 0.16
3 -0.9
4 0.03
40 0.36
41 0.27
42 0.15
43 0.15
44 0.15
45 0.15
46 0.15
5 -0.57
6 -0.62
7 0.27
8 0.45

> <PUBCHEM_EFFECTIVE_ROTOR_COUNT>
5.4

> <PUBCHEM_PHARMACOPHORE_FEATURES>
11
1 1 acceptor
1 2 cation
1 3 cation
1 3 donor
1 4 donor
1 6 acceptor
3 4 5 16 cation
5 4 5 16 17 18 rings
6 1 2 8 11 14 15 rings
6 3 7 9 10 12 13 rings
6 6 19 20 21 22 23 rings

> <PUBCHEM_HEAVY_ATOM_COUNT>
23

> <PUBCHEM_ATOM_DEF_STEREO_COUNT>
1

> <PUBCHEM_ATOM_UDEF_STEREO_COUNT>
0

> <PUBCHEM_BOND_DEF_STEREO_COUNT>
0

> <PUBCHEM_BOND_UDEF_STEREO_COUNT>
0

> <PUBCHEM_ISOTOPIC_ATOM_COUNT>
0

> <PUBCHEM_COMPONENT_COUNT>
1

> <PUBCHEM_CACTVS_TAUTO_COUNT>
3

> <PUBCHEM_CONFORMER_ID>
047E030300000004

> <PUBCHEM_MMFF94_ENERGY>
42.0196

> <PUBCHEM_FEATURE_SELFOVERLAP>
55.824

> <PUBCHEM_SHAPE_FINGERPRINT>
10616163 171 18339359661146254870
11036077 4 18201163131272118795
11552529 35 18272929405946520408
11796584 16 18194117413975813610
11809386 21 18041268877485382194
12422481 6 18128282037775582843
12596602 18 17561088037921351114
12633257 1 17631750355934924515
12643181 29 18050566245237523630
12760667 363 18342734139820568015
12916754 54 18335984245926484620
13004483 165 18270114742680094287
13103583 49 17988939867633866747
13167823 11 18408323255386152306
13544653 18 18192151710212361213
13583140 156 17917416606546464616
13631057 29 18411416245961612242
14178342 30 18059025977109247068
14251751 93 18336262336532029386
14347332 77 18408038528549330382
14420673 8 18126011468606822902
14767858 380 18115039614462061252
14866123 147 18410857621309342211
14950920 106 17275107288013374787
15042514 8 18410577254207548093
15196674 1 18337110069214505706
15250474 111 18188761739807796514
15352361 1 18409729599034715626
15537594 2 18337684091166666470
16120349 21 18270411499045183243
17492 89 18338515360469370691
17780758 139 18131068186906624074
17857418 61 18411699906681128610
17959699 21 8790892873670021534
1813 80 17749388221265632837
19141452 34 18337956666691577901
19784866 135 18342738546340637955
20028762 73 18130505356981296030
20281475 54 18408605851302016900
20681677 274 18201434843503757545
21673915 165 18411138039339287666
22950370 63 18411142411905586608
23522609 53 18121535502366784396
23559900 14 18339912809894869809
23622692 118 18411416241133804244
312423 11 18187937204506968444
350125 39 18412829105017307616
351380 3 18408886273553089962
4214541 1 18338517443781723200
44062 13 18335981948313575462
463206 1 18191868044323041859
484985 159 18335411336492355039
5104073 3 18343011161174370224
5486654 36 18410579465587892873
559249 180 18263923241741993889
5924683 9 18411417293527236265
59755656 520 18192987128781411317
6431902 208 18335139825513009114
70251023 43 18262516026015018817
7970288 3 18192713560454584835

> <PUBCHEM_SHAPE_MULTIPOLES>
442.55
12.68
3.46
0.98
12.73
0.14
0.03
9.74
-1.59
-3.56
0.31
-0.9
-0.13
-0.53

> <PUBCHEM_SHAPE_SELFOVERLAP>
949.595

> <PUBCHEM_SHAPE_VOLUME>
239.3

> <PUBCHEM_COORDINATE_TYPE>
2
5
10

$$$$
