11882961
  -OEChem-12032416413D

 77 81  0     1  0  0  0  0  0999 V2000
   -0.1555    3.1108    0.7441 S   0  0  0  0  0  0  0  0  0  0  0  0
   -7.1216   -0.0845   -0.9560 O   0  0  0  0  0  0  0  0  0  0  0  0
   -7.1214    1.4716    0.8670 O   0  0  0  0  0  0  0  0  0  0  0  0
    0.6560   -1.4450   -1.6644 O   0  0  0  0  0  0  0  0  0  0  0  0
    3.2562   -4.9680    0.6351 O   0  0  0  0  0  0  0  0  0  0  0  0
    3.6821    0.5365    0.0893 O   0  0  0  0  0  0  0  0  0  0  0  0
    0.7161    0.7532    0.1323 N   0  0  0  0  0  0  0  0  0  0  0  0
    1.2382   -3.2573   -0.3350 N   0  0  0  0  0  0  0  0  0  0  0  0
    2.3750    2.4426    0.5837 N   0  0  0  0  0  0  0  0  0  0  0  0
   -2.9380   -0.4754    0.2076 C   0  0  2  0  0  0  0  0  0  0  0  0
   -3.5052    0.9368   -0.2606 C   0  0  1  0  0  0  0  0  0  0  0  0
   -5.0735    1.0993   -0.3057 C   0  0  1  0  0  0  0  0  0  0  0  0
   -1.4049   -0.5621   -0.2347 C   0  0  1  0  0  0  0  0  0  0  0  0
   -3.7182   -1.6078   -0.5094 C   0  0  0  0  0  0  0  0  0  0  0  0
   -5.6964   -0.1376   -1.0129 C   0  0  1  0  0  0  0  0  0  0  0  0
   -2.7738    2.1093    0.4558 C   0  0  0  0  0  0  0  0  0  0  0  0
   -5.2312   -1.4645   -0.4235 C   0  0  0  0  0  0  0  0  0  0  0  0
   -3.0455   -0.6894    1.7375 C   0  0  0  0  0  0  0  0  0  0  0  0
   -0.6655    0.7017    0.1224 C   0  0  0  0  0  0  0  0  0  0  0  0
   -5.7328    1.3364    1.0711 C   0  0  0  0  0  0  0  0  0  0  0  0
   -5.4295    2.3486   -1.1602 C   0  0  0  0  0  0  0  0  0  0  0  0
   -1.2988    1.8934    0.4109 C   0  0  0  0  0  0  0  0  0  0  0  0
   -0.6647   -1.8079    0.2706 C   0  0  0  0  0  0  0  0  0  0  0  0
    0.4651   -2.1473   -0.6684 C   0  0  0  0  0  0  0  0  0  0  0  0
    1.0957    1.9709    0.4538 C   0  0  0  0  0  0  0  0  0  0  0  0
    2.3574   -3.6535   -1.1895 C   0  0  0  0  0  0  0  0  0  0  0  0
    0.9633   -4.1860    0.7666 C   0  0  0  0  0  0  0  0  0  0  0  0
    3.5638    1.7173    0.3988 C   0  0  0  0  0  0  0  0  0  0  0  0
    4.7772    2.5718    0.6258 C   0  0  0  0  0  0  0  0  0  0  0  0
    3.5809   -3.9780   -0.3444 C   0  0  0  0  0  0  0  0  0  0  0  0
    2.2459   -4.4937    1.5291 C   0  0  0  0  0  0  0  0  0  0  0  0
    5.9290    1.7480    1.2054 C   0  0  0  0  0  0  0  0  0  0  0  0
    5.1596    3.2973   -0.6658 C   0  0  0  0  0  0  0  0  0  0  0  0
    6.6269    0.8664    0.1702 C   0  0  0  0  0  0  0  0  0  0  0  0
    5.8502    2.3882   -1.6810 C   0  0  0  0  0  0  0  0  0  0  0  0
    7.0383    1.6580   -1.0656 C   0  0  0  0  0  0  0  0  0  0  0  0
   -3.1998    1.0073   -1.3192 H   0  0  0  0  0  0  0  0  0  0  0  0
   -1.4341   -0.5760   -1.3344 H   0  0  0  0  0  0  0  0  0  0  0  0
   -3.4381   -1.6327   -1.5709 H   0  0  0  0  0  0  0  0  0  0  0  0
   -3.4478   -2.5875   -0.0996 H   0  0  0  0  0  0  0  0  0  0  0  0
   -5.4231   -0.1149   -2.0763 H   0  0  0  0  0  0  0  0  0  0  0  0
   -3.0135    3.0586   -0.0349 H   0  0  0  0  0  0  0  0  0  0  0  0
   -3.0915    2.1888    1.5008 H   0  0  0  0  0  0  0  0  0  0  0  0
   -5.5843   -1.5762    0.6075 H   0  0  0  0  0  0  0  0  0  0  0  0
   -5.7016   -2.2895   -0.9741 H   0  0  0  0  0  0  0  0  0  0  0  0
   -4.0736   -0.7131    2.0928 H   0  0  0  0  0  0  0  0  0  0  0  0
   -2.5142    0.0777    2.3075 H   0  0  0  0  0  0  0  0  0  0  0  0
   -2.6189   -1.6543    2.0333 H   0  0  0  0  0  0  0  0  0  0  0  0
   -5.5894    0.5081    1.7603 H   0  0  0  0  0  0  0  0  0  0  0  0
   -5.3658    2.2513    1.5460 H   0  0  0  0  0  0  0  0  0  0  0  0
   -4.9195    2.3186   -2.1301 H   0  0  0  0  0  0  0  0  0  0  0  0
   -5.1393    3.2795   -0.6620 H   0  0  0  0  0  0  0  0  0  0  0  0
   -6.5025    2.4187   -1.3709 H   0  0  0  0  0  0  0  0  0  0  0  0
   -0.2644   -1.6458    1.2780 H   0  0  0  0  0  0  0  0  0  0  0  0
   -1.3298   -2.6755    0.2867 H   0  0  0  0  0  0  0  0  0  0  0  0
   -7.4650   -0.8492   -1.4487 H   0  0  0  0  0  0  0  0  0  0  0  0
   -7.5280    1.6301    1.7358 H   0  0  0  0  0  0  0  0  0  0  0  0
    2.4412    3.4256    0.8349 H   0  0  0  0  0  0  0  0  0  0  0  0
    2.0293   -4.5438   -1.7387 H   0  0  0  0  0  0  0  0  0  0  0  0
    2.5931   -2.8723   -1.9183 H   0  0  0  0  0  0  0  0  0  0  0  0
    0.5715   -5.1004    0.3057 H   0  0  0  0  0  0  0  0  0  0  0  0
    0.2058   -3.8066    1.4538 H   0  0  0  0  0  0  0  0  0  0  0  0
    4.5165    3.3286    1.3784 H   0  0  0  0  0  0  0  0  0  0  0  0
    4.3795   -4.3787   -0.9764 H   0  0  0  0  0  0  0  0  0  0  0  0
    3.9677   -3.0839    0.1593 H   0  0  0  0  0  0  0  0  0  0  0  0
    2.6182   -3.6075    2.0570 H   0  0  0  0  0  0  0  0  0  0  0  0
    2.0623   -5.2747    2.2734 H   0  0  0  0  0  0  0  0  0  0  0  0
    6.6720    2.4378    1.6266 H   0  0  0  0  0  0  0  0  0  0  0  0
    5.5783    1.1234    2.0361 H   0  0  0  0  0  0  0  0  0  0  0  0
    4.2788    3.7539   -1.1331 H   0  0  0  0  0  0  0  0  0  0  0  0
    5.8421    4.1200   -0.4160 H   0  0  0  0  0  0  0  0  0  0  0  0
    5.9943    0.0239   -0.1258 H   0  0  0  0  0  0  0  0  0  0  0  0
    7.5209    0.4235    0.6257 H   0  0  0  0  0  0  0  0  0  0  0  0
    6.1902    2.9865   -2.5340 H   0  0  0  0  0  0  0  0  0  0  0  0
    5.1331    1.6578   -2.0747 H   0  0  0  0  0  0  0  0  0  0  0  0
    7.8137    2.3847   -0.7937 H   0  0  0  0  0  0  0  0  0  0  0  0
    7.4806    0.9821   -1.8061 H   0  0  0  0  0  0  0  0  0  0  0  0
  1 22  1  0  0  0  0
  1 25  1  0  0  0  0
  2 15  1  0  0  0  0
  2 56  1  0  0  0  0
  3 20  1  0  0  0  0
  3 57  1  0  0  0  0
  4 24  2  0  0  0  0
  5 30  1  0  0  0  0
  5 31  1  0  0  0  0
  6 28  2  0  0  0  0
  7 19  1  0  0  0  0
  7 25  2  0  0  0  0
  8 24  1  0  0  0  0
  8 26  1  0  0  0  0
  8 27  1  0  0  0  0
  9 25  1  0  0  0  0
  9 28  1  0  0  0  0
  9 58  1  0  0  0  0
 10 11  1  0  0  0  0
 10 13  1  0  0  0  0
 10 14  1  0  0  0  0
 10 18  1  0  0  0  0
 11 12  1  0  0  0  0
 11 16  1  0  0  0  0
 11 37  1  0  0  0  0
 12 15  1  0  0  0  0
 12 20  1  0  0  0  0
 12 21  1  0  0  0  0
 13 19  1  0  0  0  0
 13 23  1  0  0  0  0
 13 38  1  0  0  0  0
 14 17  1  0  0  0  0
 14 39  1  0  0  0  0
 14 40  1  0  0  0  0
 15 17  1  0  0  0  0
 15 41  1  0  0  0  0
 16 22  1  0  0  0  0
 16 42  1  0  0  0  0
 16 43  1  0  0  0  0
 17 44  1  0  0  0  0
 17 45  1  0  0  0  0
 18 46  1  0  0  0  0
 18 47  1  0  0  0  0
 18 48  1  0  0  0  0
 19 22  2  0  0  0  0
 20 49  1  0  0  0  0
 20 50  1  0  0  0  0
 21 51  1  0  0  0  0
 21 52  1  0  0  0  0
 21 53  1  0  0  0  0
 23 24  1  0  0  0  0
 23 54  1  0  0  0  0
 23 55  1  0  0  0  0
 26 30  1  0  0  0  0
 26 59  1  0  0  0  0
 26 60  1  0  0  0  0
 27 31  1  0  0  0  0
 27 61  1  0  0  0  0
 27 62  1  0  0  0  0
 28 29  1  0  0  0  0
 29 32  1  0  0  0  0
 29 33  1  0  0  0  0
 29 63  1  0  0  0  0
 30 64  1  0  0  0  0
 30 65  1  0  0  0  0
 31 66  1  0  0  0  0
 31 67  1  0  0  0  0
 32 34  1  0  0  0  0
 32 68  1  0  0  0  0
 32 69  1  0  0  0  0
 33 35  1  0  0  0  0
 33 70  1  0  0  0  0
 33 71  1  0  0  0  0
 34 36  1  0  0  0  0
 34 72  1  0  0  0  0
 34 73  1  0  0  0  0
 35 36  1  0  0  0  0
 35 74  1  0  0  0  0
 35 75  1  0  0  0  0
 36 76  1  0  0  0  0
 36 77  1  0  0  0  0
M  END
> <PUBCHEM_COMPOUND_CID>
11882961

> <PUBCHEM_CONFORMER_RMSD>
1

> <PUBCHEM_CONFORMER_DIVERSEORDER>
1
24
25
27
17
5
26
34
29
20
18
19
32
30
14
4
10
9
33
3
31
21
12
28
15
8
23
22
13
11
16
7
6
2

> <PUBCHEM_MMFF94_PARTIAL_CHARGES>
27
1 -0.08
13 0.18
15 0.28
16 0.18
19 0.05
2 -0.68
20 0.28
22 -0.14
23 0.06
24 0.57
25 0.44
26 0.3
27 0.3
28 0.57
29 0.06
3 -0.68
30 0.28
31 0.28
4 -0.57
5 -0.56
56 0.4
57 0.4
58 0.37
6 -0.57
7 -0.57
8 -0.66
9 -0.49

> <PUBCHEM_EFFECTIVE_ROTOR_COUNT>
10.6

> <PUBCHEM_PHARMACOPHORE_FEATURES>
13
1 2 acceptor
1 2 donor
1 3 acceptor
1 3 donor
1 4 acceptor
1 5 acceptor
1 6 acceptor
1 9 donor
5 1 7 19 22 25 rings
6 10 11 12 14 15 17 rings
6 10 11 13 16 19 22 rings
6 29 32 33 34 35 36 rings
6 5 8 26 27 30 31 rings

> <PUBCHEM_HEAVY_ATOM_COUNT>
36

> <PUBCHEM_ATOM_DEF_STEREO_COUNT>
5

> <PUBCHEM_ATOM_UDEF_STEREO_COUNT>
0

> <PUBCHEM_BOND_DEF_STEREO_COUNT>
0

> <PUBCHEM_BOND_UDEF_STEREO_COUNT>
0

> <PUBCHEM_ISOTOPIC_ATOM_COUNT>
0

> <PUBCHEM_COMPONENT_COUNT>
1

> <PUBCHEM_CACTVS_TAUTO_COUNT>
3

> <PUBCHEM_CONFORMER_ID>
00B551D100000001

> <PUBCHEM_MMFF94_ENERGY>
100.9327

> <PUBCHEM_FEATURE_SELFOVERLAP>
66.12

> <PUBCHEM_SHAPE_FINGERPRINT>
10050765 1 18267300920795456225
10190108 129 18051694636336278119
102385 1 17978510832431305428
10906281 52 18336274500216976465
11007060 377 18054229010031224856
11017883 126 18040436608293554932
11135926 11 18412257329391584781
11285246 1 17265227235292594903
11578080 2 17823964650936290221
11719270 70 18411130342968526160
11763715 3 17330577349114173998
11991303 11 18042685185895688182
12058002 1 17532962469873646480
12440605 4 18055367850806666201
12597179 24 18259989296517626251
12977781 61 17895213085693746643
13540713 5 18058171614321560041
1361 2 18409449181231467536
14150023 79 18408601478550698731
14251757 5 17977960300002991516
14725015 67 17764867292191532067
14790565 3 18338514260910646808
15183329 4 18335980955965964972
15320294 125 18043506453306003402
15400415 2 18266455602259107632
15439362 3 18335980879225707141
15775530 1 17754439176031487932
15815584 197 18339099158194105367
15927050 60 18341047522847997399
16090146 7 18194424357777053480
16719943 64 18338515374082064994
17627616 140 18410853265727518794
20642791 35 18270689653432159127
21033648 29 18198334255258258392
21133410 230 17828233169618686946
21133665 82 18340488976390465236
21360443 120 18408888443049053404
22311459 1 18411698812034791161
23559900 14 18196360425906856635
244849 19 17968960612403426435
3004659 81 18335700589992870744
3298306 158 18341893017693652884
3383291 50 18196085771280203106
3411729 13 18411699863652412414
4017518 198 18201163256448961702
4058900 60 18335144219427615402
5265222 85 18192717962774736892
5385378 56 18412268311427697521
59755656 215 18341894112319788132
6138700 20 18343302595515997604
6371380 46 18270678805199389800
6376802 90 17967805026035918215
6669772 16 18408604746994365907
6679774 75 18189315992689756114
6898599 12 17757563223974790932
99344 41 18411413999799243968
9981440 41 18262241130780785523

> <PUBCHEM_SHAPE_MULTIPOLES>
700.42
16.79
5.89
1.3
0.87
8.38
-0.04
-12.78
-3
-8.26
0.79
-0.26
0.13
-0.86

> <PUBCHEM_SHAPE_SELFOVERLAP>
1469.794

> <PUBCHEM_SHAPE_VOLUME>
397.3

> <PUBCHEM_COORDINATE_TYPE>
2
5
10

$$$$
