75536997
  -OEChem-12032416333D

 47 49  0     1  0  0  0  0  0999 V2000
   -6.1007   -2.2192   -1.6725 F   0  0  0  0  0  0  0  0  0  0  0  0
   -1.5682    2.9334    0.0019 O   0  0  0  0  0  0  0  0  0  0  0  0
    4.8196    0.7106   -1.4341 O   0  0  0  0  0  0  0  0  0  0  0  0
    0.3756    1.6173    0.1045 N   0  0  0  0  0  0  0  0  0  0  0  0
   -1.4454    0.9183    1.2206 N   0  0  0  0  0  0  0  0  0  0  0  0
    2.6301    0.2727   -0.8144 N   0  0  0  0  0  0  0  0  0  0  0  0
    4.4206   -1.0530   -0.0240 N   0  0  0  0  0  0  0  0  0  0  0  0
    0.8196    0.4385    0.8301 C   0  0  1  0  0  0  0  0  0  0  0  0
   -0.4715   -0.1446    1.3983 C   0  0  0  0  0  0  0  0  0  0  0  0
    1.5877   -0.4941   -0.1015 C   0  0  0  0  0  0  0  0  0  0  0  0
    1.3158    2.3581   -0.7191 C   0  0  0  0  0  0  0  0  0  0  0  0
    2.1049    1.3965   -1.6071 C   0  0  0  0  0  0  0  0  0  0  0  0
   -0.9550    1.9500    0.3955 C   0  0  0  0  0  0  0  0  0  0  0  0
   -2.7947    0.8133    1.7299 C   0  0  0  0  0  0  0  0  0  0  0  0
    4.0109    0.0225   -0.8021 C   0  0  0  0  0  0  0  0  0  0  0  0
   -3.6763    0.0046    0.8228 C   0  0  0  0  0  0  0  0  0  0  0  0
    5.8111   -1.4318    0.0937 C   0  0  0  0  0  0  0  0  0  0  0  0
   -3.7818   -1.3750    1.0004 C   0  0  0  0  0  0  0  0  0  0  0  0
   -4.3900    0.6329   -0.1978 C   0  0  0  0  0  0  0  0  0  0  0  0
    5.9351   -2.9375    0.2870 C   0  0  0  0  0  0  0  0  0  0  0  0
    6.4775   -0.6720    1.2339 C   0  0  0  0  0  0  0  0  0  0  0  0
   -4.6011   -2.1260    0.1575 C   0  0  0  0  0  0  0  0  0  0  0  0
   -5.2092   -0.1180   -1.0407 C   0  0  0  0  0  0  0  0  0  0  0  0
   -5.3148   -1.4976   -0.8629 C   0  0  0  0  0  0  0  0  0  0  0  0
    1.4703    0.7922    1.6400 H   0  0  0  0  0  0  0  0  0  0  0  0
   -0.8082   -1.0267    0.8449 H   0  0  0  0  0  0  0  0  0  0  0  0
   -0.3765   -0.3928    2.4596 H   0  0  0  0  0  0  0  0  0  0  0  0
    1.9732   -1.3454    0.4574 H   0  0  0  0  0  0  0  0  0  0  0  0
    0.9248   -0.9010   -0.8760 H   0  0  0  0  0  0  0  0  0  0  0  0
    1.9904    2.8853   -0.0351 H   0  0  0  0  0  0  0  0  0  0  0  0
    0.7806    3.1040   -1.3146 H   0  0  0  0  0  0  0  0  0  0  0  0
    1.4521    0.9664   -2.3762 H   0  0  0  0  0  0  0  0  0  0  0  0
    2.9084    1.9348   -2.1186 H   0  0  0  0  0  0  0  0  0  0  0  0
   -3.2068    1.8246    1.8321 H   0  0  0  0  0  0  0  0  0  0  0  0
   -2.7602    0.3831    2.7376 H   0  0  0  0  0  0  0  0  0  0  0  0
    3.7762   -1.5212    0.5973 H   0  0  0  0  0  0  0  0  0  0  0  0
    6.3218   -1.1659   -0.8397 H   0  0  0  0  0  0  0  0  0  0  0  0
   -3.2315   -1.8764    1.7921 H   0  0  0  0  0  0  0  0  0  0  0  0
   -4.3166    1.7067   -0.3477 H   0  0  0  0  0  0  0  0  0  0  0  0
    5.4379   -3.2635    1.2075 H   0  0  0  0  0  0  0  0  0  0  0  0
    5.4701   -3.4752   -0.5465 H   0  0  0  0  0  0  0  0  0  0  0  0
    6.9859   -3.2404    0.3415 H   0  0  0  0  0  0  0  0  0  0  0  0
    5.9929   -0.8901    2.1922 H   0  0  0  0  0  0  0  0  0  0  0  0
    6.4159    0.4099    1.0737 H   0  0  0  0  0  0  0  0  0  0  0  0
    7.5357   -0.9406    1.3176 H   0  0  0  0  0  0  0  0  0  0  0  0
   -4.6835   -3.2000    0.2954 H   0  0  0  0  0  0  0  0  0  0  0  0
   -5.7647    0.3708   -1.8355 H   0  0  0  0  0  0  0  0  0  0  0  0
  1 24  1  0  0  0  0
  2 13  2  0  0  0  0
  3 15  2  0  0  0  0
  4  8  1  0  0  0  0
  4 11  1  0  0  0  0
  4 13  1  0  0  0  0
  5  9  1  0  0  0  0
  5 13  1  0  0  0  0
  5 14  1  0  0  0  0
  6 10  1  0  0  0  0
  6 12  1  0  0  0  0
  6 15  1  0  0  0  0
  7 15  1  0  0  0  0
  7 17  1  0  0  0  0
  7 36  1  0  0  0  0
  8  9  1  0  0  0  0
  8 10  1  0  0  0  0
  8 25  1  0  0  0  0
  9 26  1  0  0  0  0
  9 27  1  0  0  0  0
 10 28  1  0  0  0  0
 10 29  1  0  0  0  0
 11 12  1  0  0  0  0
 11 30  1  0  0  0  0
 11 31  1  0  0  0  0
 12 32  1  0  0  0  0
 12 33  1  0  0  0  0
 14 16  1  0  0  0  0
 14 34  1  0  0  0  0
 14 35  1  0  0  0  0
 16 18  2  0  0  0  0
 16 19  1  0  0  0  0
 17 20  1  0  0  0  0
 17 21  1  0  0  0  0
 17 37  1  0  0  0  0
 18 22  1  0  0  0  0
 18 38  1  0  0  0  0
 19 23  2  0  0  0  0
 19 39  1  0  0  0  0
 20 40  1  0  0  0  0
 20 41  1  0  0  0  0
 20 42  1  0  0  0  0
 21 43  1  0  0  0  0
 21 44  1  0  0  0  0
 21 45  1  0  0  0  0
 22 24  2  0  0  0  0
 22 46  1  0  0  0  0
 23 24  1  0  0  0  0
 23 47  1  0  0  0  0
M  END
> <PUBCHEM_COMPOUND_CID>
75536997

> <PUBCHEM_CONFORMER_RMSD>
0.8

> <PUBCHEM_CONFORMER_DIVERSEORDER>
1
43
5
18
2
41
15
22
48
49
20
13
24
29
6
26
8
46
38
36
40
9
44
12
21
30
4
33
32
14
47
17
19
34
45
10
35
28
16
25
42
23
31
11
7
37
3
27
39

> <PUBCHEM_MMFF94_PARTIAL_CHARGES>
27
1 -0.19
10 0.3
11 0.3
12 0.3
13 0.69
14 0.44
15 0.69
16 -0.14
17 0.3
18 -0.15
19 -0.15
2 -0.57
22 -0.15
23 -0.15
24 0.19
3 -0.57
36 0.37
38 0.15
39 0.15
4 -0.66
46 0.15
47 0.15
5 -0.66
6 -0.66
7 -0.73
8 0.3
9 0.3

> <PUBCHEM_EFFECTIVE_ROTOR_COUNT>
6.2

> <PUBCHEM_PHARMACOPHORE_FEATURES>
7
1 2 acceptor
1 3 acceptor
1 7 donor
3 17 20 21 hydrophobe
5 4 5 8 9 13 rings
6 16 18 19 22 23 24 rings
6 4 6 8 10 11 12 rings

> <PUBCHEM_HEAVY_ATOM_COUNT>
24

> <PUBCHEM_ATOM_DEF_STEREO_COUNT>
1

> <PUBCHEM_ATOM_UDEF_STEREO_COUNT>
0

> <PUBCHEM_BOND_DEF_STEREO_COUNT>
0

> <PUBCHEM_BOND_UDEF_STEREO_COUNT>
0

> <PUBCHEM_ISOTOPIC_ATOM_COUNT>
0

> <PUBCHEM_COMPONENT_COUNT>
1

> <PUBCHEM_CACTVS_TAUTO_COUNT>
2

> <PUBCHEM_CONFORMER_ID>
04809A6500000001

> <PUBCHEM_MMFF94_ENERGY>
49.0602

> <PUBCHEM_FEATURE_SELFOVERLAP>
35.618

> <PUBCHEM_SHAPE_FINGERPRINT>
10447042 23 18334300881356032292
10493431 412 11167933650212531104
10498660 4 15936956566361403109
10571361 74 18341605984777326990
10670039 82 14779535765178202823
10753850 27 18343020025739195483
10794284 68 14975709758144224876
12390115 104 10087629412510801104
12555020 224 17749396957303193306
12596602 18 17632577103101829042
12616971 3 18261974984616077161
12633257 1 13326575211463195013
12839892 36 18130510730222240078
12892183 10 13398368858022241793
13533116 47 18408042901733418666
13583140 156 14764349280494719513
13782708 43 17845379847854215670
13828863 39 9943807794255514447
14211702 104 18272095954927745182
14251751 18 18272367564200201954
1454969 45 18260556624213560990
14848178 5 18202286900569480503
14951699 99 10663562416761330531
15163728 17 12035726492232008201
15183329 4 16298381349257705722
15188451 53 18060697277722706918
15475509 8 8213867033031459018
1601671 61 11314307278279721862
17349148 13 18342190972037865786
17857418 61 18409732829187524730
18222031 100 18114185199274474290
200 152 18333741216615119017
20028762 73 18343021069464351734
20621476 66 10953743283163424894
20621476 91 17489581268795968658
21728266 224 18272091565190814170
22393880 68 17168422783088018523
23402539 116 18261680289545283040
23559900 14 17822020834700879800
23929065 36 18191005842866319264
25122255 55 18270125595857294982
2838139 119 13912594009308762319
3009799 131 17530962484445621760
312425 54 16701475462937481730
339767 52 18342454837596233479
4015057 19 17968391133609500440
4280585 95 18408314497567917297
439807 62 18337674247798359239
5104073 3 17846226574110962521
559249 180 18341614781407061569
5924683 9 18340773624256367864
6126387 218 13623521369550367328
636775 72 8717099134305207750
7495541 125 17847058879170749528
76465 3 18411985754055846488
7808743 9 8790878571254832949

> <PUBCHEM_SHAPE_MULTIPOLES>
454.97
15.66
2.66
1.47
8.38
0.06
0.01
13.32
2.81
0.21
0.37
-0.65
-0.06
-1.93

> <PUBCHEM_SHAPE_SELFOVERLAP>
953.026

> <PUBCHEM_SHAPE_VOLUME>
258.9

> <PUBCHEM_COORDINATE_TYPE>
2
5
10

$$$$
