40779229
  -OEChem-12032416353D

 75 79  0     1  0  0  0  0  0999 V2000
   -2.8569    3.2676    0.9411 S   0  0  0  0  0  0  0  0  0  0  0  0
   -2.3787    3.5395    2.2832 O   0  0  0  0  0  0  0  0  0  0  0  0
   -3.5626    4.2930    0.1966 O   0  0  0  0  0  0  0  0  0  0  0  0
   -2.8163    2.6975   -2.0285 O   0  0  0  0  0  0  0  0  0  0  0  0
    2.0907    2.0754    0.4056 O   0  0  0  0  0  0  0  0  0  0  0  0
   -3.8541   -1.8284    1.6199 N   0  0  2  0  0  0  0  0  0  0  0  0
    0.1821   -3.6643   -0.7065 N   0  0  0  0  0  0  0  0  0  0  0  0
   -3.7935    1.8450    0.9552 N   0  0  0  0  0  0  0  0  0  0  0  0
    1.4766   -3.3204   -0.8176 N   0  0  0  0  0  0  0  0  0  0  0  0
    6.4270    0.6180    0.2887 N   0  0  0  0  0  0  0  0  0  0  0  0
   -3.0551   -2.3758   -0.7977 C   0  0  2  0  0  0  0  0  0  0  0  0
   -2.0582   -2.9488    0.2474 C   0  0  2  0  0  0  0  0  0  0  0  0
   -3.8667   -0.5956    0.7891 C   0  0  2  0  0  0  0  0  0  0  0  0
   -3.2035   -0.8551   -0.5807 C   0  0  0  0  0  0  0  0  0  0  0  0
   -4.4290   -3.0130   -0.4982 C   0  0  0  0  0  0  0  0  0  0  0  0
   -2.4898   -2.4125    1.6422 C   0  0  0  0  0  0  0  0  0  0  0  0
   -4.7679   -2.8108    0.9890 C   0  0  0  0  0  0  0  0  0  0  0  0
   -3.2385    0.5993    1.5095 C   0  0  0  0  0  0  0  0  0  0  0  0
   -0.5684   -2.7666   -0.0054 C   0  0  0  0  0  0  0  0  0  0  0  0
    0.2952   -1.7662    0.3684 C   0  0  0  0  0  0  0  0  0  0  0  0
    1.5396   -2.1601   -0.1591 C   0  0  0  0  0  0  0  0  0  0  0  0
   -0.2752   -4.8953   -1.3086 C   0  0  0  0  0  0  0  0  0  0  0  0
    2.7869   -1.4503   -0.0445 C   0  0  0  0  0  0  0  0  0  0  0  0
   -1.4719    2.7772   -0.0418 C   0  0  0  0  0  0  0  0  0  0  0  0
    3.3280   -1.1889    1.2143 C   0  0  0  0  0  0  0  0  0  0  0  0
    3.4549   -1.0249   -1.1927 C   0  0  0  0  0  0  0  0  0  0  0  0
   -1.6113    2.5486   -1.4107 C   0  0  0  0  0  0  0  0  0  0  0  0
   -0.2279    2.6183    0.5687 C   0  0  0  0  0  0  0  0  0  0  0  0
    4.5367   -0.5018    1.3250 C   0  0  0  0  0  0  0  0  0  0  0  0
    4.6636   -0.3376   -1.0822 C   0  0  0  0  0  0  0  0  0  0  0  0
    0.8769    2.2310   -0.1898 C   0  0  0  0  0  0  0  0  0  0  0  0
   -0.5066    2.1611   -2.1693 C   0  0  0  0  0  0  0  0  0  0  0  0
    5.2046   -0.0762    0.1767 C   0  0  0  0  0  0  0  0  0  0  0  0
    0.7374    2.0023   -1.5587 C   0  0  0  0  0  0  0  0  0  0  0  0
   -2.8614    2.4417   -3.4310 C   0  0  0  0  0  0  0  0  0  0  0  0
    6.9977    0.8939    1.5921 C   0  0  0  0  0  0  0  0  0  0  0  0
    7.1330    1.0579   -0.8985 C   0  0  0  0  0  0  0  0  0  0  0  0
    2.1625    2.3256    1.8086 C   0  0  0  0  0  0  0  0  0  0  0  0
   -2.7355   -2.5930   -1.8221 H   0  0  0  0  0  0  0  0  0  0  0  0
   -2.2274   -4.0357    0.2802 H   0  0  0  0  0  0  0  0  0  0  0  0
   -4.9236   -0.3461    0.6137 H   0  0  0  0  0  0  0  0  0  0  0  0
   -2.2201   -0.3796   -0.6561 H   0  0  0  0  0  0  0  0  0  0  0  0
   -3.8273   -0.4263   -1.3746 H   0  0  0  0  0  0  0  0  0  0  0  0
   -4.4140   -4.0833   -0.7348 H   0  0  0  0  0  0  0  0  0  0  0  0
   -5.1989   -2.5517   -1.1286 H   0  0  0  0  0  0  0  0  0  0  0  0
   -2.4716   -3.2419    2.3623 H   0  0  0  0  0  0  0  0  0  0  0  0
   -1.7917   -1.6777    2.0558 H   0  0  0  0  0  0  0  0  0  0  0  0
   -5.8077   -2.4770    1.0924 H   0  0  0  0  0  0  0  0  0  0  0  0
   -4.7125   -3.7671    1.5249 H   0  0  0  0  0  0  0  0  0  0  0  0
   -2.1472    0.5752    1.4648 H   0  0  0  0  0  0  0  0  0  0  0  0
   -3.5200    0.5809    2.5697 H   0  0  0  0  0  0  0  0  0  0  0  0
    0.0615   -0.8748    0.9329 H   0  0  0  0  0  0  0  0  0  0  0  0
   -4.6842    1.8055    0.4466 H   0  0  0  0  0  0  0  0  0  0  0  0
   -1.1623   -4.6866   -1.9110 H   0  0  0  0  0  0  0  0  0  0  0  0
    0.5120   -5.3001   -1.9505 H   0  0  0  0  0  0  0  0  0  0  0  0
   -0.5033   -5.6042   -0.5091 H   0  0  0  0  0  0  0  0  0  0  0  0
    2.8223   -1.5144    2.1205 H   0  0  0  0  0  0  0  0  0  0  0  0
    3.0461   -1.2156   -2.1823 H   0  0  0  0  0  0  0  0  0  0  0  0
   -0.1595    2.7978    1.6345 H   0  0  0  0  0  0  0  0  0  0  0  0
    4.9156   -0.3227    2.3263 H   0  0  0  0  0  0  0  0  0  0  0  0
    5.1433   -0.0262   -2.0047 H   0  0  0  0  0  0  0  0  0  0  0  0
   -0.5367    1.9646   -3.2352 H   0  0  0  0  0  0  0  0  0  0  0  0
    1.5951    1.6996   -2.1535 H   0  0  0  0  0  0  0  0  0  0  0  0
   -3.8941    2.6086   -3.7545 H   0  0  0  0  0  0  0  0  0  0  0  0
   -2.6239    1.3968   -3.6586 H   0  0  0  0  0  0  0  0  0  0  0  0
   -2.2366    3.1457   -3.9911 H   0  0  0  0  0  0  0  0  0  0  0  0
    7.9437    1.4409    1.5124 H   0  0  0  0  0  0  0  0  0  0  0  0
    7.2188   -0.0337    2.1319 H   0  0  0  0  0  0  0  0  0  0  0  0
    6.3274    1.5183    2.1934 H   0  0  0  0  0  0  0  0  0  0  0  0
    8.0637    1.5784   -0.6466 H   0  0  0  0  0  0  0  0  0  0  0  0
    6.5290    1.7642   -1.4790 H   0  0  0  0  0  0  0  0  0  0  0  0
    7.4130    0.2077   -1.5304 H   0  0  0  0  0  0  0  0  0  0  0  0
    3.2034    2.1756    2.1125 H   0  0  0  0  0  0  0  0  0  0  0  0
    1.5561    1.6108    2.3753 H   0  0  0  0  0  0  0  0  0  0  0  0
    1.9132    3.3652    2.0468 H   0  0  0  0  0  0  0  0  0  0  0  0
  1  2  2  0  0  0  0
  1  3  2  0  0  0  0
  1  8  1  0  0  0  0
  1 24  1  0  0  0  0
  4 27  1  0  0  0  0
  4 35  1  0  0  0  0
  5 31  1  0  0  0  0
  5 38  1  0  0  0  0
  6 13  1  0  0  0  0
  6 16  1  0  0  0  0
  6 17  1  0  0  0  0
  7  9  1  0  0  0  0
  7 19  1  0  0  0  0
  7 22  1  0  0  0  0
  8 18  1  0  0  0  0
  8 53  1  0  0  0  0
  9 21  2  0  0  0  0
 10 33  1  0  0  0  0
 10 36  1  0  0  0  0
 10 37  1  0  0  0  0
 11 12  1  0  0  0  0
 11 14  1  0  0  0  0
 11 15  1  0  0  0  0
 11 39  1  0  0  0  0
 12 16  1  0  0  0  0
 12 19  1  0  0  0  0
 12 40  1  0  0  0  0
 13 14  1  0  0  0  0
 13 18  1  0  0  0  0
 13 41  1  0  0  0  0
 14 42  1  0  0  0  0
 14 43  1  0  0  0  0
 15 17  1  0  0  0  0
 15 44  1  0  0  0  0
 15 45  1  0  0  0  0
 16 46  1  0  0  0  0
 16 47  1  0  0  0  0
 17 48  1  0  0  0  0
 17 49  1  0  0  0  0
 18 50  1  0  0  0  0
 18 51  1  0  0  0  0
 19 20  2  0  0  0  0
 20 21  1  0  0  0  0
 20 52  1  0  0  0  0
 21 23  1  0  0  0  0
 22 54  1  0  0  0  0
 22 55  1  0  0  0  0
 22 56  1  0  0  0  0
 23 25  2  0  0  0  0
 23 26  1  0  0  0  0
 24 27  2  0  0  0  0
 24 28  1  0  0  0  0
 25 29  1  0  0  0  0
 25 57  1  0  0  0  0
 26 30  2  0  0  0  0
 26 58  1  0  0  0  0
 27 32  1  0  0  0  0
 28 31  2  0  0  0  0
 28 59  1  0  0  0  0
 29 33  2  0  0  0  0
 29 60  1  0  0  0  0
 30 33  1  0  0  0  0
 30 61  1  0  0  0  0
 31 34  1  0  0  0  0
 32 34  2  0  0  0  0
 32 62  1  0  0  0  0
 34 63  1  0  0  0  0
 35 64  1  0  0  0  0
 35 65  1  0  0  0  0
 35 66  1  0  0  0  0
 36 67  1  0  0  0  0
 36 68  1  0  0  0  0
 36 69  1  0  0  0  0
 37 70  1  0  0  0  0
 37 71  1  0  0  0  0
 37 72  1  0  0  0  0
 38 73  1  0  0  0  0
 38 74  1  0  0  0  0
 38 75  1  0  0  0  0
M  END
> <PUBCHEM_COMPOUND_CID>
40779229

> <PUBCHEM_CONFORMER_RMSD>
1.2

> <PUBCHEM_CONFORMER_DIVERSEORDER>
2
41
64
92
44
90
16
97
27
24
34
66
106
57
101
33
68
78
94
9
96
104
6
108
14
103
23
52
48
8
59
95
88
4
50
58
7
102
29
30
74
60
89
70
71
38
84
61
22
76
65
81
43
75
36
13
37
56
73
86
69
98
99
11
79
53
32
47
5
85
35
20
67
1
83
63
31
82
100
55
80
87
19
18
93
77
28
54
10
3
39
26
105
42
72
12
49
46
62
15
25
17
40
45
51
107
91
21

> <PUBCHEM_MMFF94_PARTIAL_CHARGES>
44
1 1.45
10 -0.84
12 0.18
13 0.27
16 0.27
17 0.27
18 0.36
19 -0.33
2 -0.65
20 -0.15
21 0.23
22 0.26
23 0.05
24 -0.01
25 -0.15
26 -0.15
27 0.08
28 -0.15
29 -0.15
3 -0.65
30 -0.15
31 0.08
32 -0.15
33 0.1
34 -0.15
35 0.28
36 0.37
37 0.37
38 0.28
4 -0.36
5 -0.36
52 0.15
53 0.42
57 0.15
58 0.15
59 0.15
6 -0.81
60 0.15
61 0.15
62 0.15
63 0.15
7 0.31
8 -0.91
9 -0.71

> <PUBCHEM_EFFECTIVE_ROTOR_COUNT>
10.2

> <PUBCHEM_PHARMACOPHORE_FEATURES>
12
1 10 cation
1 2 acceptor
1 3 acceptor
1 4 acceptor
1 5 acceptor
1 6 cation
1 8 donor
1 9 acceptor
5 7 9 19 20 21 rings
6 23 25 26 29 30 33 rings
6 24 27 28 31 32 34 rings
8 6 11 12 13 14 15 16 17 rings

> <PUBCHEM_HEAVY_ATOM_COUNT>
38

> <PUBCHEM_ATOM_DEF_STEREO_COUNT>
3

> <PUBCHEM_ATOM_UDEF_STEREO_COUNT>
0

> <PUBCHEM_BOND_DEF_STEREO_COUNT>
0

> <PUBCHEM_BOND_UDEF_STEREO_COUNT>
0

> <PUBCHEM_ISOTOPIC_ATOM_COUNT>
0

> <PUBCHEM_COMPONENT_COUNT>
1

> <PUBCHEM_CACTVS_TAUTO_COUNT>
1

> <PUBCHEM_CONFORMER_ID>
026E3DDD00000002

> <PUBCHEM_MMFF94_ENERGY>
117.7722

> <PUBCHEM_FEATURE_SELFOVERLAP>
60.919

> <PUBCHEM_SHAPE_FINGERPRINT>
10010297 198 17823130139054889114
10190206 1 17464290436264290876
10290309 65 18412824664965915094
10670039 82 18336279985259680214
10864689 126 18125448510369331036
11135609 187 18121482576075620541
11421498 54 17821999952607005338
11513181 2 18202010884691921686
12156800 1 17977707205415780119
12422481 6 18115880598559055104
12788726 201 18193292986128556212
13560911 43 18041836337091043651
13726171 33 18335707113879330216
14117953 113 18270679896026403879
144659 39 17460591425106875640
150020 26 17396141708719723475
15276724 80 18263643039109681852
15444296 8 16877952659175276449
15968369 153 18055635268597723304
18336668 15 18264492951921256499
19309040 13 17557990533003167433
20764821 26 18050837832407825370
20766409 102 17977097188061480172
20775530 9 18262795310732325801
21033648 29 17917429860636745010
21133410 38 17985554351990822705
21795232 40 18335976493969607629
238 59 16602928190682742231
25019877 29 17345487053046212615
4403749 210 18410844474409661488
463206 1 17979642560719045067
469060 322 17675928690041643564
50150288 127 15839037139581663288
550186 7 15625406544331361842
653340 110 18413392016690387880

> <PUBCHEM_SHAPE_MULTIPOLES>
737.49
11.95
6.12
2.13
21.01
0.46
0.82
0.17
-2.83
-7.11
0.99
-1.07
-1.62
0.98

> <PUBCHEM_SHAPE_SELFOVERLAP>
1572.331

> <PUBCHEM_SHAPE_VOLUME>
415.8

> <PUBCHEM_COORDINATE_TYPE>
2
5
10

$$$$
