51136833
  -OEChem-12032416223D

 57 61  0     1  0  0  0  0  0999 V2000
   -3.8446    1.7722   -0.2114 O   0  0  0  0  0  0  0  0  0  0  0  0
    6.1206   -2.8700    1.4172 O   0  0  0  0  0  0  0  0  0  0  0  0
   -3.8149   -1.8041    0.6335 N   0  0  1  0  0  0  0  0  0  0  0  0
    3.0038    0.9386    0.2495 N   0  0  0  0  0  0  0  0  0  0  0  0
    5.1049   -1.0471    0.3947 N   0  0  0  0  0  0  0  0  0  0  0  0
   -2.0754    0.6200    0.5364 N   0  0  0  0  0  0  0  0  0  0  0  0
   -2.8367   -1.2416   -2.7101 N   0  0  0  0  0  0  0  0  0  0  0  0
   -2.7311    2.5997   -0.4041 N   0  0  0  0  0  0  0  0  0  0  0  0
   -1.3567   -1.9615   -1.2192 N   0  0  0  0  0  0  0  0  0  0  0  0
    2.2891    3.1824    0.0719 N   0  0  0  0  0  0  0  0  0  0  0  0
   -4.3931   -0.4456    0.6566 C   0  0  1  0  0  0  0  0  0  0  0  0
   -4.9973   -0.3017    2.0656 C   0  0  0  0  0  0  0  0  0  0  0  0
   -4.7646   -1.6474    2.7376 C   0  0  0  0  0  0  0  0  0  0  0  0
   -4.6003   -2.6037    1.5738 C   0  0  0  0  0  0  0  0  0  0  0  0
   -3.7876   -2.3943   -0.6986 C   0  0  0  0  0  0  0  0  0  0  0  0
   -3.3706    0.6275    0.3466 C   0  0  0  0  0  0  0  0  0  0  0  0
    2.8203   -0.3073    0.9993 C   0  0  0  0  0  0  0  0  0  0  0  0
    4.3102    1.1913   -0.3635 C   0  0  0  0  0  0  0  0  0  0  0  0
   -2.6343   -1.8778   -1.5171 C   0  0  0  0  0  0  0  0  0  0  0  0
    4.1627   -0.8433    1.4919 C   0  0  0  0  0  0  0  0  0  0  0  0
    4.9981   -0.1221   -0.7358 C   0  0  0  0  0  0  0  0  0  0  0  0
    1.9730    1.8705    0.1560 C   0  0  0  0  0  0  0  0  0  0  0  0
   -1.7269    1.8506    0.0608 C   0  0  0  0  0  0  0  0  0  0  0  0
   -0.3642    2.3025    0.0657 C   0  0  0  0  0  0  0  0  0  0  0  0
    0.6757    1.3838    0.1569 C   0  0  0  0  0  0  0  0  0  0  0  0
    6.0291   -2.0901    0.4664 C   0  0  0  0  0  0  0  0  0  0  0  0
   -0.0789    3.6605   -0.0223 C   0  0  0  0  0  0  0  0  0  0  0  0
   -1.6101   -0.8977   -3.2045 C   0  0  0  0  0  0  0  0  0  0  0  0
   -0.7127   -1.3524   -2.2671 C   0  0  0  0  0  0  0  0  0  0  0  0
    1.2520    4.0455   -0.0153 C   0  0  0  0  0  0  0  0  0  0  0  0
    6.9607   -2.2374   -0.7116 C   0  0  0  0  0  0  0  0  0  0  0  0
   -5.2153   -0.3607   -0.0678 H   0  0  0  0  0  0  0  0  0  0  0  0
   -4.5565    0.5092    2.6556 H   0  0  0  0  0  0  0  0  0  0  0  0
   -6.0750   -0.1128    1.9869 H   0  0  0  0  0  0  0  0  0  0  0  0
   -5.5900   -1.9281    3.3984 H   0  0  0  0  0  0  0  0  0  0  0  0
   -3.8457   -1.6112    3.3360 H   0  0  0  0  0  0  0  0  0  0  0  0
   -5.5809   -2.8717    1.1603 H   0  0  0  0  0  0  0  0  0  0  0  0
   -4.0787   -3.5174    1.8749 H   0  0  0  0  0  0  0  0  0  0  0  0
   -4.7412   -2.2661   -1.2265 H   0  0  0  0  0  0  0  0  0  0  0  0
   -3.6279   -3.4780   -0.6142 H   0  0  0  0  0  0  0  0  0  0  0  0
    2.1803   -0.1480    1.8758 H   0  0  0  0  0  0  0  0  0  0  0  0
    2.3425   -1.0546    0.3536 H   0  0  0  0  0  0  0  0  0  0  0  0
    4.2018    1.7950   -1.2728 H   0  0  0  0  0  0  0  0  0  0  0  0
    4.9317    1.7574    0.3409 H   0  0  0  0  0  0  0  0  0  0  0  0
    4.0147   -1.7797    2.0403 H   0  0  0  0  0  0  0  0  0  0  0  0
    4.6297   -0.1305    2.1827 H   0  0  0  0  0  0  0  0  0  0  0  0
    5.9911    0.0899   -1.1428 H   0  0  0  0  0  0  0  0  0  0  0  0
    4.4248   -0.6417   -1.5133 H   0  0  0  0  0  0  0  0  0  0  0  0
   -3.7294   -1.0561   -3.1480 H   0  0  0  0  0  0  0  0  0  0  0  0
    0.4612    0.3212    0.2049 H   0  0  0  0  0  0  0  0  0  0  0  0
   -0.8512    4.4199   -0.0897 H   0  0  0  0  0  0  0  0  0  0  0  0
   -1.4936   -0.3779   -4.1443 H   0  0  0  0  0  0  0  0  0  0  0  0
    0.3642   -1.2706   -2.2922 H   0  0  0  0  0  0  0  0  0  0  0  0
    7.5204   -3.1729   -0.6165 H   0  0  0  0  0  0  0  0  0  0  0  0
    6.3977   -2.2745   -1.6478 H   0  0  0  0  0  0  0  0  0  0  0  0
    7.6729   -1.4084   -0.7291 H   0  0  0  0  0  0  0  0  0  0  0  0
    1.5280    5.0928   -0.0804 H   0  0  0  0  0  0  0  0  0  0  0  0
  1  8  1  0  0  0  0
  1 16  1  0  0  0  0
  2 26  2  0  0  0  0
  3 11  1  0  0  0  0
  3 14  1  0  0  0  0
  3 15  1  0  0  0  0
  4 17  1  0  0  0  0
  4 18  1  0  0  0  0
  4 22  1  0  0  0  0
  5 20  1  0  0  0  0
  5 21  1  0  0  0  0
  5 26  1  0  0  0  0
  6 16  2  0  0  0  0
  6 23  1  0  0  0  0
  7 19  1  0  0  0  0
  7 28  1  0  0  0  0
  7 49  1  0  0  0  0
  8 23  2  0  0  0  0
  9 19  2  0  0  0  0
  9 29  1  0  0  0  0
 10 22  2  0  0  0  0
 10 30  1  0  0  0  0
 11 12  1  0  0  0  0
 11 16  1  0  0  0  0
 11 32  1  0  0  0  0
 12 13  1  0  0  0  0
 12 33  1  0  0  0  0
 12 34  1  0  0  0  0
 13 14  1  0  0  0  0
 13 35  1  0  0  0  0
 13 36  1  0  0  0  0
 14 37  1  0  0  0  0
 14 38  1  0  0  0  0
 15 19  1  0  0  0  0
 15 39  1  0  0  0  0
 15 40  1  0  0  0  0
 17 20  1  0  0  0  0
 17 41  1  0  0  0  0
 17 42  1  0  0  0  0
 18 21  1  0  0  0  0
 18 43  1  0  0  0  0
 18 44  1  0  0  0  0
 20 45  1  0  0  0  0
 20 46  1  0  0  0  0
 21 47  1  0  0  0  0
 21 48  1  0  0  0  0
 22 25  1  0  0  0  0
 23 24  1  0  0  0  0
 24 25  2  0  0  0  0
 24 27  1  0  0  0  0
 25 50  1  0  0  0  0
 26 31  1  0  0  0  0
 27 30  2  0  0  0  0
 27 51  1  0  0  0  0
 28 29  2  0  0  0  0
 28 52  1  0  0  0  0
 29 53  1  0  0  0  0
 30 57  1  0  0  0  0
 31 54  1  0  0  0  0
 31 55  1  0  0  0  0
 31 56  1  0  0  0  0
M  END
> <PUBCHEM_COMPOUND_CID>
51136833

> <PUBCHEM_CONFORMER_RMSD>
1

> <PUBCHEM_CONFORMER_DIVERSEORDER>
1
96
37
100
25
45
23
92
64
72
102
21
66
80
98
93
79
78
71
69
50
84
60
51
33
53
39
18
32
90
83
38
57
87
47
59
91
29
74
76
41
61
54
3
97
31
34
11
75
101
56
10
58
17
62
85
19
68
24
22
4
73
15
36
12
86
88
8
95
46
48
94
77
65
99
70
20
55
67
27
89
44
42
40
16
30
63
9
6
26
81
28
52
5
82
49
35
43
2
14
13
7

> <PUBCHEM_MMFF94_PARTIAL_CHARGES>
35
1 -0.02
10 -0.62
11 0.45
14 0.27
15 0.45
16 0.3
17 0.37
18 0.37
19 0.01
2 -0.57
20 0.3
21 0.3
22 0.41
23 0.46
24 0.05
25 -0.15
26 0.57
27 -0.15
28 -0.3
29 0.08
3 -0.81
30 0.16
31 0.06
4 -0.84
49 0.27
5 -0.66
50 0.15
51 0.15
52 0.15
53 0.15
57 0.15
6 -0.57
7 0.03
8 -0.41
9 -0.57

> <PUBCHEM_EFFECTIVE_ROTOR_COUNT>
8.2

> <PUBCHEM_PHARMACOPHORE_FEATURES>
11
1 2 acceptor
1 3 cation
1 7 donor
3 4 10 22 cation
3 6 8 23 cation
3 7 9 19 cation
5 1 6 8 16 23 rings
5 3 11 12 13 14 rings
5 7 9 19 28 29 rings
6 10 22 24 25 27 30 rings
6 4 5 17 18 20 21 rings

> <PUBCHEM_HEAVY_ATOM_COUNT>
31

> <PUBCHEM_ATOM_DEF_STEREO_COUNT>
1

> <PUBCHEM_ATOM_UDEF_STEREO_COUNT>
0

> <PUBCHEM_BOND_DEF_STEREO_COUNT>
0

> <PUBCHEM_BOND_UDEF_STEREO_COUNT>
0

> <PUBCHEM_ISOTOPIC_ATOM_COUNT>
0

> <PUBCHEM_COMPONENT_COUNT>
1

> <PUBCHEM_CACTVS_TAUTO_COUNT>
1

> <PUBCHEM_CONFORMER_ID>
030C494100000001

> <PUBCHEM_MMFF94_ENERGY>
66.1571

> <PUBCHEM_FEATURE_SELFOVERLAP>
55.826

> <PUBCHEM_SHAPE_FINGERPRINT>
10305334 12 18264219006739719379
10622 236 17627496465880996751
10764073 3 18335151873644710957
10928967 22 18411693309991534150
11524674 6 17417239923390647909
11578080 2 16300061291772490359
117089 54 18335997406054829410
12107183 9 18340787982970615345
12422481 6 17846228734342498086
12553582 1 18411128165293499884
12633046 712 18113333128474491397
12633257 1 16988562433095716432
13690498 29 17895199861257293508
14114206 34 17896302645977001796
14279260 333 18043528318600379506
14480069 147 18113339721565950914
15119646 57 14418692468243195006
15160629 124 15590997036094456075
15274700 147 12024392864408907978
15537594 2 18341340001804733212
16110190 28 18273497883913326048
16991981 162 15286460055939497391
19319366 153 17475529738138111537
208703 8 18409444804301648906
21133410 221 16906372539267440678
21796203 349 18197526054187191896
22440779 20 17530969059908943453
22907989 373 12540681614336044805
23559900 14 18334851749287817041
23569914 2 14186239183810331619
44880168 125 17560807572414988014
474113 269 18340203120405694575
497634 4 17313392188318786382
513202 73 18409732833145005091
56633871 153 18273498974350034551
7064713 232 17131284553087689315
7970288 3 18408040736442810466
999808 66 18340776940467089738

> <PUBCHEM_SHAPE_MULTIPOLES>
586.38
14
4.34
2.22
16.7
3.14
-1.02
-13.8
5.91
1.57
0.1
-2.94
-2.03
-0.33

> <PUBCHEM_SHAPE_SELFOVERLAP>
1267.874

> <PUBCHEM_SHAPE_VOLUME>
320.7

> <PUBCHEM_COORDINATE_TYPE>
2
5
10

$$$$
