11885215
  -OEChem-12032416233D

 54 57  0     1  0  0  0  0  0999 V2000
   -1.3485    2.2742   -0.5981 S   0  0  0  0  0  0  0  0  0  0  0  0
    6.9534   -0.3376   -0.3805 S   0  0  0  0  0  0  0  0  0  0  0  0
    0.6514   -2.3642   -1.0828 O   0  0  0  0  0  0  0  0  0  0  0  0
   -3.3479    0.7463   -2.7942 O   0  0  0  0  0  0  0  0  0  0  0  0
    0.2803    5.1069    1.5089 O   0  0  0  0  0  0  0  0  0  0  0  0
    1.1688    3.7149   -0.0525 O   0  0  0  0  0  0  0  0  0  0  0  0
   -3.8075   -0.0915   -0.6763 N   0  0  0  0  0  0  0  0  0  0  0  0
   -1.2191   -1.7581    0.1717 N   0  0  0  0  0  0  0  0  0  0  0  0
   -3.5811   -2.5635   -0.4010 C   0  0  1  0  0  0  0  0  0  0  0  0
   -3.2299   -1.0836    1.5309 C   0  0  2  0  0  0  0  0  0  0  0  0
   -3.8451   -2.4106    1.0920 C   0  0  0  0  0  0  0  0  0  0  0  0
   -4.2185   -1.4020   -1.1835 C   0  0  0  0  0  0  0  0  0  0  0  0
   -2.0676   -2.6506   -0.6300 C   0  0  0  0  0  0  0  0  0  0  0  0
   -3.9142    0.0761    0.7809 C   0  0  0  0  0  0  0  0  0  0  0  0
   -1.7367   -1.0580    1.2640 C   0  0  0  0  0  0  0  0  0  0  0  0
   -0.9197   -0.3440    2.0544 C   0  0  0  0  0  0  0  0  0  0  0  0
    0.1525   -1.7330   -0.1492 C   0  0  0  0  0  0  0  0  0  0  0  0
   -3.4313    0.9077   -1.5740 C   0  0  0  0  0  0  0  0  0  0  0  0
    1.0372   -0.8941    0.7331 C   0  0  0  0  0  0  0  0  0  0  0  0
    0.4862   -0.2592    1.7784 C   0  0  0  0  0  0  0  0  0  0  0  0
   -3.1048    2.2569   -0.9852 C   0  0  0  0  0  0  0  0  0  0  0  0
    2.4788   -0.7589    0.4611 C   0  0  0  0  0  0  0  0  0  0  0  0
    3.3841   -1.6542    1.0318 C   0  0  0  0  0  0  0  0  0  0  0  0
    2.9403    0.2649   -0.3672 C   0  0  0  0  0  0  0  0  0  0  0  0
   -1.2266    3.9511    0.0722 C   0  0  0  0  0  0  0  0  0  0  0  0
    4.7491   -1.5259    0.7748 C   0  0  0  0  0  0  0  0  0  0  0  0
    4.3053    0.3930   -0.6244 C   0  0  0  0  0  0  0  0  0  0  0  0
    5.2096   -0.5023   -0.0533 C   0  0  0  0  0  0  0  0  0  0  0  0
    0.1919    4.2222    0.4836 C   0  0  0  0  0  0  0  0  0  0  0  0
    7.0098   -0.5228   -2.1854 C   0  0  0  0  0  0  0  0  0  0  0  0
   -4.0369   -3.4942   -0.7612 H   0  0  0  0  0  0  0  0  0  0  0  0
   -3.4165   -0.9593    2.6056 H   0  0  0  0  0  0  0  0  0  0  0  0
   -4.9232   -2.4194    1.2936 H   0  0  0  0  0  0  0  0  0  0  0  0
   -3.4065   -3.2472    1.6502 H   0  0  0  0  0  0  0  0  0  0  0  0
   -5.3105   -1.4462   -1.0876 H   0  0  0  0  0  0  0  0  0  0  0  0
   -3.9887   -1.4943   -2.2503 H   0  0  0  0  0  0  0  0  0  0  0  0
   -1.8301   -2.4995   -1.6906 H   0  0  0  0  0  0  0  0  0  0  0  0
   -1.7346   -3.6695   -0.3888 H   0  0  0  0  0  0  0  0  0  0  0  0
   -3.4938    1.0185    1.1318 H   0  0  0  0  0  0  0  0  0  0  0  0
   -4.9851    0.0982    1.0180 H   0  0  0  0  0  0  0  0  0  0  0  0
   -1.2972    0.2174    2.9027 H   0  0  0  0  0  0  0  0  0  0  0  0
    1.0792    0.3605    2.4449 H   0  0  0  0  0  0  0  0  0  0  0  0
   -3.3009    3.0086   -1.7586 H   0  0  0  0  0  0  0  0  0  0  0  0
   -3.7385    2.5196   -0.1369 H   0  0  0  0  0  0  0  0  0  0  0  0
    3.0402   -2.4577    1.6787 H   0  0  0  0  0  0  0  0  0  0  0  0
    2.2476    0.9703   -0.8197 H   0  0  0  0  0  0  0  0  0  0  0  0
   -1.5227    4.6907   -0.6765 H   0  0  0  0  0  0  0  0  0  0  0  0
   -1.8762    4.0232    0.9495 H   0  0  0  0  0  0  0  0  0  0  0  0
    5.4388   -2.2333    1.2286 H   0  0  0  0  0  0  0  0  0  0  0  0
    4.6416    1.2027   -1.2671 H   0  0  0  0  0  0  0  0  0  0  0  0
    6.5402   -1.4634   -2.4860 H   0  0  0  0  0  0  0  0  0  0  0  0
    6.5018    0.3110   -2.6766 H   0  0  0  0  0  0  0  0  0  0  0  0
    8.0532   -0.5333   -2.5114 H   0  0  0  0  0  0  0  0  0  0  0  0
    1.2117    5.2802    1.7633 H   0  0  0  0  0  0  0  0  0  0  0  0
  1 21  1  0  0  0  0
  1 25  1  0  0  0  0
  2 28  1  0  0  0  0
  2 30  1  0  0  0  0
  3 17  2  0  0  0  0
  4 18  2  0  0  0  0
  5 29  1  0  0  0  0
  5 54  1  0  0  0  0
  6 29  2  0  0  0  0
  7 12  1  0  0  0  0
  7 14  1  0  0  0  0
  7 18  1  0  0  0  0
  8 13  1  0  0  0  0
  8 15  1  0  0  0  0
  8 17  1  0  0  0  0
  9 11  1  0  0  0  0
  9 12  1  0  0  0  0
  9 13  1  0  0  0  0
  9 31  1  0  0  0  0
 10 11  1  0  0  0  0
 10 14  1  0  0  0  0
 10 15  1  0  0  0  0
 10 32  1  0  0  0  0
 11 33  1  0  0  0  0
 11 34  1  0  0  0  0
 12 35  1  0  0  0  0
 12 36  1  0  0  0  0
 13 37  1  0  0  0  0
 13 38  1  0  0  0  0
 14 39  1  0  0  0  0
 14 40  1  0  0  0  0
 15 16  2  0  0  0  0
 16 20  1  0  0  0  0
 16 41  1  0  0  0  0
 17 19  1  0  0  0  0
 18 21  1  0  0  0  0
 19 20  2  0  0  0  0
 19 22  1  0  0  0  0
 20 42  1  0  0  0  0
 21 43  1  0  0  0  0
 21 44  1  0  0  0  0
 22 23  2  0  0  0  0
 22 24  1  0  0  0  0
 23 26  1  0  0  0  0
 23 45  1  0  0  0  0
 24 27  2  0  0  0  0
 24 46  1  0  0  0  0
 25 29  1  0  0  0  0
 25 47  1  0  0  0  0
 25 48  1  0  0  0  0
 26 28  2  0  0  0  0
 26 49  1  0  0  0  0
 27 28  1  0  0  0  0
 27 50  1  0  0  0  0
 30 51  1  0  0  0  0
 30 52  1  0  0  0  0
 30 53  1  0  0  0  0
M  END
> <PUBCHEM_COMPOUND_CID>
11885215

> <PUBCHEM_CONFORMER_RMSD>
1

> <PUBCHEM_CONFORMER_DIVERSEORDER>
1
22
15
9
20
5
26
10
14
12
16
13
21
7
4
11
19
27
25
24
8
2
18
3
6
23
17

> <PUBCHEM_MMFF94_PARTIAL_CHARGES>
35
1 -0.46
10 0.14
12 0.3
13 0.3
14 0.3
15 -0.03
16 -0.15
17 0.62
18 0.57
19 -0.01
2 -0.33
20 -0.15
21 0.29
22 0.03
23 -0.15
24 -0.15
25 0.29
26 -0.15
27 -0.15
28 0.1
29 0.66
3 -0.57
30 0.23
4 -0.57
41 0.15
42 0.15
45 0.15
46 0.15
49 0.15
5 -0.65
50 0.15
54 0.5
6 -0.57
7 -0.66
8 -0.47

> <PUBCHEM_EFFECTIVE_ROTOR_COUNT>
8

> <PUBCHEM_PHARMACOPHORE_FEATURES>
10
1 3 acceptor
1 30 hydrophobe
1 4 acceptor
1 5 acceptor
1 6 acceptor
3 5 6 29 anion
6 22 23 24 26 27 28 rings
6 7 9 10 11 12 14 rings
6 8 15 16 17 19 20 rings
6 8 9 10 11 13 15 rings

> <PUBCHEM_HEAVY_ATOM_COUNT>
30

> <PUBCHEM_ATOM_DEF_STEREO_COUNT>
2

> <PUBCHEM_ATOM_UDEF_STEREO_COUNT>
0

> <PUBCHEM_BOND_DEF_STEREO_COUNT>
0

> <PUBCHEM_BOND_UDEF_STEREO_COUNT>
0

> <PUBCHEM_ISOTOPIC_ATOM_COUNT>
0

> <PUBCHEM_COMPONENT_COUNT>
1

> <PUBCHEM_CACTVS_TAUTO_COUNT>
1

> <PUBCHEM_CONFORMER_ID>
00B55A9F00000001

> <PUBCHEM_MMFF94_ENERGY>
77.9124

> <PUBCHEM_FEATURE_SELFOVERLAP>
52.37

> <PUBCHEM_SHAPE_FINGERPRINT>
12166972 35 18059294395406814874
12236239 1 18340775914191705706
12788726 201 18334854975060697706
13761468 95 17826513262849132780
14142880 1 18271817757469127523
14713325 29 18338804398741038970
14931854 50 18188759553278741325
15183329 4 18411140221683918734
17492 54 18042667439370487085
17818456 19 17903050275796027978
19930381 70 17760922244681392669
19958102 18 18059581257053574830
20101258 96 18044386147717065251
20764821 26 18409452509367716808
20775438 99 17332196247105618415
21033650 10 18118710763370313110
22907989 373 18338797784749846592
23402539 116 16774085068164086442
3493558 16 18115307761585689396
4017518 198 17044292537545356392
5080951 261 11527095618038449294
5171179 24 18268981158681834849
531348 171 18337390440158566934
550186 7 18199467658667392620
7237137 82 18187652392725277572

> <PUBCHEM_SHAPE_MULTIPOLES>
591.65
12.01
4.6
1.84
22.46
7.7
-0.37
-5.25
-5.35
-3.13
1.07
-0.64
0.07
0.52

> <PUBCHEM_SHAPE_SELFOVERLAP>
1242.069

> <PUBCHEM_SHAPE_VOLUME>
335.8

> <PUBCHEM_COORDINATE_TYPE>
2
5
10

$$$$
