26744100
  -OEChem-12032416283D

 47 50  0     1  0  0  0  0  0999 V2000
    5.4783   -1.4747    1.3803 O   0  0  0  0  0  0  0  0  0  0  0  0
    0.8677   -0.8099   -2.2570 O   0  0  0  0  0  0  0  0  0  0  0  0
    0.3777    1.5314    2.0382 O   0  0  0  0  0  0  0  0  0  0  0  0
    2.6476    0.5083    0.4714 N   0  0  1  0  0  0  0  0  0  0  0  0
    0.4104   -1.5915   -0.2085 N   0  0  0  0  0  0  0  0  0  0  0  0
   -0.4185   -1.3599   -2.3282 N   0  0  0  0  0  0  0  0  0  0  0  0
    2.6644   -0.4703   -0.6348 C   0  0  1  0  0  0  0  0  0  0  0  0
    3.6179   -1.5832   -0.1616 C   0  0  0  0  0  0  0  0  0  0  0  0
    4.1215   -1.1189    1.1993 C   0  0  2  0  0  0  0  0  0  0  0  0
    3.9353    0.3858    1.1520 C   0  0  0  0  0  0  0  0  0  0  0  0
    2.3893    1.8720    0.0280 C   0  0  0  0  0  0  0  0  0  0  0  0
    1.2830   -0.9884   -0.9757 C   0  0  0  0  0  0  0  0  0  0  0  0
    0.9242    2.1121   -0.2226 C   0  0  0  0  0  0  0  0  0  0  0  0
   -0.6169   -1.7998   -1.0820 C   0  0  0  0  0  0  0  0  0  0  0  0
   -0.0122    1.9303    0.7950 C   0  0  0  0  0  0  0  0  0  0  0  0
    0.5071    2.5202   -1.4895 C   0  0  0  0  0  0  0  0  0  0  0  0
   -1.8625   -2.4633   -0.6810 C   0  0  0  0  0  0  0  0  0  0  0  0
   -1.3658    2.1565    0.5458 C   0  0  0  0  0  0  0  0  0  0  0  0
   -0.8466    2.7463   -1.7388 C   0  0  0  0  0  0  0  0  0  0  0  0
   -1.7831    2.5645   -0.7211 C   0  0  0  0  0  0  0  0  0  0  0  0
   -2.8328   -1.5829    0.1003 C   0  0  0  0  0  0  0  0  0  0  0  0
   -2.6320   -1.3630    1.4631 C   0  0  0  0  0  0  0  0  0  0  0  0
   -3.9205   -0.9978   -0.5476 C   0  0  0  0  0  0  0  0  0  0  0  0
   -3.5191   -0.5581    2.1779 C   0  0  0  0  0  0  0  0  0  0  0  0
   -4.8076   -0.1928    0.1671 C   0  0  0  0  0  0  0  0  0  0  0  0
   -4.6068    0.0271    1.5298 C   0  0  0  0  0  0  0  0  0  0  0  0
    3.1068   -0.0270   -1.5381 H   0  0  0  0  0  0  0  0  0  0  0  0
    3.1365   -2.5640   -0.0742 H   0  0  0  0  0  0  0  0  0  0  0  0
    4.4502   -1.6944   -0.8679 H   0  0  0  0  0  0  0  0  0  0  0  0
    3.5228   -1.5599    2.0058 H   0  0  0  0  0  0  0  0  0  0  0  0
    3.9147    0.8153    2.1591 H   0  0  0  0  0  0  0  0  0  0  0  0
    4.7528    0.8635    0.5958 H   0  0  0  0  0  0  0  0  0  0  0  0
    2.9977    2.1348   -0.8475 H   0  0  0  0  0  0  0  0  0  0  0  0
    2.6855    2.5834    0.8120 H   0  0  0  0  0  0  0  0  0  0  0  0
    5.5361   -2.4438    1.3247 H   0  0  0  0  0  0  0  0  0  0  0  0
    1.2241    2.6639   -2.2934 H   0  0  0  0  0  0  0  0  0  0  0  0
   -1.6249   -3.3410   -0.0651 H   0  0  0  0  0  0  0  0  0  0  0  0
   -2.3783   -2.8699   -1.5611 H   0  0  0  0  0  0  0  0  0  0  0  0
   -2.1039    2.0310    1.3323 H   0  0  0  0  0  0  0  0  0  0  0  0
   -1.1717    3.0631   -2.7254 H   0  0  0  0  0  0  0  0  0  0  0  0
   -2.8370    2.7419   -0.9146 H   0  0  0  0  0  0  0  0  0  0  0  0
   -0.4079    1.4477    2.6055 H   0  0  0  0  0  0  0  0  0  0  0  0
   -1.7878   -1.8126    1.9789 H   0  0  0  0  0  0  0  0  0  0  0  0
   -4.0864   -1.1588   -1.6094 H   0  0  0  0  0  0  0  0  0  0  0  0
   -3.3617   -0.3855    3.2386 H   0  0  0  0  0  0  0  0  0  0  0  0
   -5.6536    0.2642   -0.3377 H   0  0  0  0  0  0  0  0  0  0  0  0
   -5.2966    0.6551    2.0860 H   0  0  0  0  0  0  0  0  0  0  0  0
  1  9  1  0  0  0  0
  1 35  1  0  0  0  0
  2  6  1  0  0  0  0
  2 12  1  0  0  0  0
  3 15  1  0  0  0  0
  3 42  1  0  0  0  0
  4  7  1  0  0  0  0
  4 10  1  0  0  0  0
  4 11  1  0  0  0  0
  5 12  2  0  0  0  0
  5 14  1  0  0  0  0
  6 14  2  0  0  0  0
  7  8  1  0  0  0  0
  7 12  1  0  0  0  0
  7 27  1  0  0  0  0
  8  9  1  0  0  0  0
  8 28  1  0  0  0  0
  8 29  1  0  0  0  0
  9 10  1  0  0  0  0
  9 30  1  0  0  0  0
 10 31  1  0  0  0  0
 10 32  1  0  0  0  0
 11 13  1  0  0  0  0
 11 33  1  0  0  0  0
 11 34  1  0  0  0  0
 13 15  1  0  0  0  0
 13 16  2  0  0  0  0
 14 17  1  0  0  0  0
 15 18  2  0  0  0  0
 16 19  1  0  0  0  0
 16 36  1  0  0  0  0
 17 21  1  0  0  0  0
 17 37  1  0  0  0  0
 17 38  1  0  0  0  0
 18 20  1  0  0  0  0
 18 39  1  0  0  0  0
 19 20  2  0  0  0  0
 19 40  1  0  0  0  0
 20 41  1  0  0  0  0
 21 22  2  0  0  0  0
 21 23  1  0  0  0  0
 22 24  1  0  0  0  0
 22 43  1  0  0  0  0
 23 25  2  0  0  0  0
 23 44  1  0  0  0  0
 24 26  2  0  0  0  0
 24 45  1  0  0  0  0
 25 26  1  0  0  0  0
 25 46  1  0  0  0  0
 26 47  1  0  0  0  0
M  END
> <PUBCHEM_COMPOUND_CID>
26744100

> <PUBCHEM_CONFORMER_RMSD>
1

> <PUBCHEM_CONFORMER_DIVERSEORDER>
1
177
81
151
82
23
155
143
11
175
69
125
111
131
57
137
134
64
106
87
89
149
17
133
174
164
46
91
100
105
90
156
146
118
119
170
160
6
60
128
172
147
141
109
54
115
20
153
21
171
33
65
104
40
2
129
139
166
28
16
75
130
124
73
159
132
14
49
142
145
140
36
148
74
4
167
161
97
38
30
88
63
56
96
39
127
8
135
67
78
114
158
169
70
152
72
12
92
77
144
98
154
80
94
66
120
13
163
99
3
58
19
61
107
113
173
123
162
76
150
138
32
85
29
27
9
157
93
51
59
101
43
71
15
83
55
176
117
37
116
165
26
50
34
112
7
103
102
10
41
35
122
86
52
5
110
53
31
136
126
62
95
84
68
22
18
108
42
79
25
48
47
168
45
24
44
121

> <PUBCHEM_MMFF94_PARTIAL_CHARGES>
36
1 -0.68
10 0.27
11 0.41
12 0.3
13 -0.14
14 0.34
15 0.08
16 -0.15
17 0.32
18 -0.15
19 -0.15
2 -0.02
20 -0.15
21 -0.14
22 -0.15
23 -0.15
24 -0.15
25 -0.15
26 -0.15
3 -0.53
35 0.4
36 0.15
39 0.15
4 -0.81
40 0.15
41 0.15
42 0.45
43 0.15
44 0.15
45 0.15
46 0.15
47 0.15
5 -0.57
6 -0.41
7 0.45
9 0.28

> <PUBCHEM_EFFECTIVE_ROTOR_COUNT>
6

> <PUBCHEM_PHARMACOPHORE_FEATURES>
9
1 1 acceptor
1 1 donor
1 3 donor
1 4 cation
3 5 6 14 cation
5 2 5 6 12 14 rings
5 4 7 8 9 10 rings
6 13 15 16 18 19 20 rings
6 21 22 23 24 25 26 rings

> <PUBCHEM_HEAVY_ATOM_COUNT>
26

> <PUBCHEM_ATOM_DEF_STEREO_COUNT>
2

> <PUBCHEM_ATOM_UDEF_STEREO_COUNT>
0

> <PUBCHEM_BOND_DEF_STEREO_COUNT>
0

> <PUBCHEM_BOND_UDEF_STEREO_COUNT>
0

> <PUBCHEM_ISOTOPIC_ATOM_COUNT>
0

> <PUBCHEM_COMPONENT_COUNT>
1

> <PUBCHEM_CACTVS_TAUTO_COUNT>
3

> <PUBCHEM_CONFORMER_ID>
0198152400000001

> <PUBCHEM_MMFF94_ENERGY>
56.0837

> <PUBCHEM_FEATURE_SELFOVERLAP>
45.672

> <PUBCHEM_SHAPE_FINGERPRINT>
10382601 240 18121508113771255316
10674148 151 13407065956101002206
10675989 125 16537346693730848916
10759866 29 18115599278032758540
11086676 242 18411982507134261264
11244481 83 17171536690270085149
11370993 70 17203612596752786315
12035759 4 18046090364954340860
12422481 6 18268165170977674417
12633257 1 18201725063001883483
12788726 201 18041571247604263198
13140716 1 18268991054006663067
13965767 371 18059027068242495723
14790565 3 17616252924210347252
14840074 17 18266182914716568492
15163728 17 12750699313172609427
16728300 4 17752749243876882403
17349148 13 17988367087033431151
17357779 13 18341317934162228125
20600515 1 18340220638653342787
21304253 335 17630069087061294273
2132832 1 17556555962423782095
22182313 1 17986394386952772886
23227448 37 12175034675695838506
23419403 2 17986364815849966192
3052486 1 18116731628705932733
3472631 163 15194743207673250339
35225 105 17463090645127494445
4340502 62 17840591401315957929
513202 73 18190457152346440146
513532 50 15983449277839427589
5951187 136 14543991619823772369
7064713 232 17846791680327610201
7097593 13 17974855269758793199
8509985 295 18260556657887626675

> <PUBCHEM_SHAPE_MULTIPOLES>
502.52
8.18
3.22
2
0.87
1.88
-0.08
-4.55
4.66
-0.05
-0.97
-0.36
-0.15
-0.17

> <PUBCHEM_SHAPE_SELFOVERLAP>
1090.58

> <PUBCHEM_SHAPE_VOLUME>
276

> <PUBCHEM_COORDINATE_TYPE>
2
5
10

$$$$
