56775665
  -OEChem-12032416323D

 49 52  0     0  0  0  0  0  0999 V2000
   -3.3963   -3.2250    1.7565 O   0  0  0  0  0  0  0  0  0  0  0  0
    1.8378   -2.6677   -0.4899 O   0  0  0  0  0  0  0  0  0  0  0  0
   -1.7915    2.5261   -1.2758 O   0  0  0  0  0  0  0  0  0  0  0  0
    3.4970   -0.2914    0.3124 O   0  0  0  0  0  0  0  0  0  0  0  0
   -2.4486   -0.6388    0.4890 N   0  0  0  0  0  0  0  0  0  0  0  0
    0.5550   -3.2021   -0.4804 N   0  0  0  0  0  0  0  0  0  0  0  0
   -2.4265   -2.0818    0.2372 C   0  0  0  0  0  0  0  0  0  0  0  0
   -3.8176   -2.6473    0.4999 C   0  0  0  0  0  0  0  0  0  0  0  0
   -2.0344   -2.7990    1.5241 C   0  0  0  0  0  0  0  0  0  0  0  0
   -1.7264   -2.4411   -1.0375 C   0  0  0  0  0  0  0  0  0  0  0  0
   -3.0556    0.0395   -0.6565 C   0  0  0  0  0  0  0  0  0  0  0  0
   -0.2338   -2.2148   -0.9141 C   0  0  0  0  0  0  0  0  0  0  0  0
   -3.6400    1.3630   -0.2872 C   0  0  0  0  0  0  0  0  0  0  0  0
    0.4880   -1.0455   -1.2095 C   0  0  0  0  0  0  0  0  0  0  0  0
    1.7849   -1.3831   -0.9259 C   0  0  0  0  0  0  0  0  0  0  0  0
   -2.9821    2.5488   -0.6133 C   0  0  0  0  0  0  0  0  0  0  0  0
   -4.8577    1.4051    0.3917 C   0  0  0  0  0  0  0  0  0  0  0  0
    3.0616   -0.6625   -0.9984 C   0  0  0  0  0  0  0  0  0  0  0  0
   -3.5417    3.7768   -0.2606 C   0  0  0  0  0  0  0  0  0  0  0  0
   -5.4175    2.6331    0.7446 C   0  0  0  0  0  0  0  0  0  0  0  0
   -4.7596    3.8190    0.4185 C   0  0  0  0  0  0  0  0  0  0  0  0
    4.6455    0.4458    0.3867 C   0  0  0  0  0  0  0  0  0  0  0  0
    5.3260    0.7960   -0.7794 C   0  0  0  0  0  0  0  0  0  0  0  0
    5.1369    0.8478    1.6286 C   0  0  0  0  0  0  0  0  0  0  0  0
    6.4981    1.5485   -0.7035 C   0  0  0  0  0  0  0  0  0  0  0  0
    6.3089    1.6002    1.7045 C   0  0  0  0  0  0  0  0  0  0  0  0
    6.9896    1.9505    0.5385 C   0  0  0  0  0  0  0  0  0  0  0  0
   -4.1466   -3.4306   -0.1917 H   0  0  0  0  0  0  0  0  0  0  0  0
   -4.6463   -1.9486    0.6514 H   0  0  0  0  0  0  0  0  0  0  0  0
   -1.6598   -2.1857    2.3505 H   0  0  0  0  0  0  0  0  0  0  0  0
   -1.3864   -3.6747    1.4178 H   0  0  0  0  0  0  0  0  0  0  0  0
   -2.1122   -1.9351   -1.9285 H   0  0  0  0  0  0  0  0  0  0  0  0
   -1.8766   -3.5099   -1.2493 H   0  0  0  0  0  0  0  0  0  0  0  0
   -1.5417   -0.2217    0.6949 H   0  0  0  0  0  0  0  0  0  0  0  0
   -3.8702   -0.5457   -1.1055 H   0  0  0  0  0  0  0  0  0  0  0  0
   -2.3212    0.1689   -1.4587 H   0  0  0  0  0  0  0  0  0  0  0  0
    0.1262   -0.0968   -1.5767 H   0  0  0  0  0  0  0  0  0  0  0  0
   -5.3828    0.4900    0.6518 H   0  0  0  0  0  0  0  0  0  0  0  0
    3.8033   -1.3177   -1.4729 H   0  0  0  0  0  0  0  0  0  0  0  0
    2.9005    0.2324   -1.6132 H   0  0  0  0  0  0  0  0  0  0  0  0
   -3.0401    4.7085   -0.5082 H   0  0  0  0  0  0  0  0  0  0  0  0
   -6.3658    2.6660    1.2730 H   0  0  0  0  0  0  0  0  0  0  0  0
   -5.1955    4.7750    0.6933 H   0  0  0  0  0  0  0  0  0  0  0  0
   -1.4872    3.4395   -1.4136 H   0  0  0  0  0  0  0  0  0  0  0  0
    5.0100    0.5154   -1.7779 H   0  0  0  0  0  0  0  0  0  0  0  0
    4.6109    0.5778    2.5402 H   0  0  0  0  0  0  0  0  0  0  0  0
    7.0299    1.8207   -1.6107 H   0  0  0  0  0  0  0  0  0  0  0  0
    6.6916    1.9132    2.6715 H   0  0  0  0  0  0  0  0  0  0  0  0
    7.9024    2.5360    0.5976 H   0  0  0  0  0  0  0  0  0  0  0  0
  1  8  1  0  0  0  0
  1  9  1  0  0  0  0
  2  6  1  0  0  0  0
  2 15  1  0  0  0  0
  3 16  1  0  0  0  0
  3 44  1  0  0  0  0
  4 18  1  0  0  0  0
  4 22  1  0  0  0  0
  5  7  1  0  0  0  0
  5 11  1  0  0  0  0
  5 34  1  0  0  0  0
  6 12  2  0  0  0  0
  7  8  1  0  0  0  0
  7  9  1  0  0  0  0
  7 10  1  0  0  0  0
  8 28  1  0  0  0  0
  8 29  1  0  0  0  0
  9 30  1  0  0  0  0
  9 31  1  0  0  0  0
 10 12  1  0  0  0  0
 10 32  1  0  0  0  0
 10 33  1  0  0  0  0
 11 13  1  0  0  0  0
 11 35  1  0  0  0  0
 11 36  1  0  0  0  0
 12 14  1  0  0  0  0
 13 16  1  0  0  0  0
 13 17  2  0  0  0  0
 14 15  2  0  0  0  0
 14 37  1  0  0  0  0
 15 18  1  0  0  0  0
 16 19  2  0  0  0  0
 17 20  1  0  0  0  0
 17 38  1  0  0  0  0
 18 39  1  0  0  0  0
 18 40  1  0  0  0  0
 19 21  1  0  0  0  0
 19 41  1  0  0  0  0
 20 21  2  0  0  0  0
 20 42  1  0  0  0  0
 21 43  1  0  0  0  0
 22 23  2  0  0  0  0
 22 24  1  0  0  0  0
 23 25  1  0  0  0  0
 23 45  1  0  0  0  0
 24 26  2  0  0  0  0
 24 46  1  0  0  0  0
 25 27  2  0  0  0  0
 25 47  1  0  0  0  0
 26 27  1  0  0  0  0
 26 48  1  0  0  0  0
 27 49  1  0  0  0  0
M  END
> <PUBCHEM_COMPOUND_CID>
56775665

> <PUBCHEM_CONFORMER_RMSD>
1.4

> <PUBCHEM_CONFORMER_DIVERSEORDER>
1
7
39
35
28
53
10
59
60
55
63
30
15
66
64
24
36
49
61
57
8
34
37
58
38
9
21
29
50
48
19
11
62
12
51
18
43
65
33
16
25
44
13
46
56
40
20
52
45
17
26
32
42
41
4
54
6
31
47
5
27
3
14
2
23
22

> <PUBCHEM_MMFF94_PARTIAL_CHARGES>
39
1 -0.52
10 0.18
11 0.41
12 0.11
13 -0.14
14 -0.15
15 -0.04
16 0.08
17 -0.15
18 0.46
19 -0.15
2 -0.02
20 -0.15
21 -0.15
22 0.08
23 -0.15
24 -0.15
25 -0.15
26 -0.15
27 -0.15
3 -0.53
34 0.36
37 0.15
38 0.15
4 -0.36
41 0.15
42 0.15
43 0.15
44 0.45
45 0.15
46 0.15
47 0.15
48 0.15
49 0.15
5 -0.84
6 -0.41
7 0.21
8 0.26
9 0.26

> <PUBCHEM_EFFECTIVE_ROTOR_COUNT>
8.8

> <PUBCHEM_PHARMACOPHORE_FEATURES>
10
1 1 acceptor
1 3 donor
1 4 acceptor
1 5 cation
1 5 donor
1 6 acceptor
4 1 7 8 9 rings
5 2 6 12 14 15 rings
6 13 16 17 19 20 21 rings
6 22 23 24 25 26 27 rings

> <PUBCHEM_HEAVY_ATOM_COUNT>
27

> <PUBCHEM_ATOM_DEF_STEREO_COUNT>
0

> <PUBCHEM_ATOM_UDEF_STEREO_COUNT>
0

> <PUBCHEM_BOND_DEF_STEREO_COUNT>
0

> <PUBCHEM_BOND_UDEF_STEREO_COUNT>
0

> <PUBCHEM_ISOTOPIC_ATOM_COUNT>
0

> <PUBCHEM_COMPONENT_COUNT>
1

> <PUBCHEM_CACTVS_TAUTO_COUNT>
3

> <PUBCHEM_CONFORMER_ID>
036253F100000001

> <PUBCHEM_MMFF94_ENERGY>
73.1786

> <PUBCHEM_FEATURE_SELFOVERLAP>
50.747

> <PUBCHEM_SHAPE_FINGERPRINT>
10074138 170 18113629992994445387
10675989 125 17621036460852113753
11135609 187 18266162960652251621
11578080 2 18272379637132134035
11796584 16 8934739772825141734
12107183 9 18117547445613663594
12596602 18 17169259537491305082
13540713 4 18269857357463752270
13726171 33 18412830200714504192
14028597 1 17603862343251328715
14251764 75 17985834731129017265
14347329 18 18342730824089939544
14395042 24 18115602560278952217
14429114 114 18054509110677072481
14849402 71 17905612098928279426
14950920 106 17169276038428491936
15338160 23 18336546118138384116
15513586 35 17607529325909019548
16067690 210 18188194503250245200
18393751 57 18189622657670268737
19246450 95 17176269744446796120
19438510 23 18411139091241830699
21033648 29 18130780205402704040
21302155 148 18409731768330881892
21401589 2 18337956693051855449
24771293 8 18270976721674828683
2748736 6 18341884148175353548
2838139 119 18130216078227303782
3117164 225 18044361748229422098
3246875 12 18338802213615632433
3552219 110 16771263884800033151
376196 1 18124314896463627423
44249763 50 17631718495983586500
508706 21 18057872727182953480
5104073 3 18259980466692866306
5219985 13 18343581828698946390
6376802 137 17244437613737344395
7288768 16 18334857169620082879
7808743 9 18411976957904659028
9849439 229 18192712241957361405
9981440 41 18410292497591227371

> <PUBCHEM_SHAPE_MULTIPOLES>
522.21
16.11
5.13
1.41
25.6
0.46
0.38
16.69
4.75
-8.12
0.51
0.73
-0.38
1.94

> <PUBCHEM_SHAPE_SELFOVERLAP>
1128.833

> <PUBCHEM_SHAPE_VOLUME>
287.6

> <PUBCHEM_COORDINATE_TYPE>
2
5
10

$$$$
