26742466
  -OEChem-12032416213D

 64 68  0     1  0  0  0  0  0999 V2000
   -4.1935   -1.2840    1.9056 O   0  0  0  0  0  0  0  0  0  0  0  0
    6.2048    2.0947    0.4249 O   0  0  0  0  0  0  0  0  0  0  0  0
   -0.0695   -2.8531    0.6821 N   0  0  2  0  0  0  0  0  0  0  0  0
   -2.4627    0.0195    1.0712 N   0  0  0  0  0  0  0  0  0  0  0  0
    2.1290    0.4087   -1.6307 N   0  0  0  0  0  0  0  0  0  0  0  0
   -4.6463    0.7540    0.8897 N   0  0  0  0  0  0  0  0  0  0  0  0
    4.0322    1.7080   -0.9256 N   0  0  0  0  0  0  0  0  0  0  0  0
    0.4447   -1.9109   -1.6909 C   0  0  2  0  0  0  0  0  0  0  0  0
    1.7136   -1.8528   -0.7959 C   0  0  2  0  0  0  0  0  0  0  0  0
   -1.0972   -1.8488    0.3003 C   0  0  2  0  0  0  0  0  0  0  0  0
   -0.6979   -1.1309   -1.0069 C   0  0  0  0  0  0  0  0  0  0  0  0
    0.0105   -3.3910   -1.7521 C   0  0  0  0  0  0  0  0  0  0  0  0
    1.2806   -2.2374    0.6477 C   0  0  0  0  0  0  0  0  0  0  0  0
   -0.1062   -3.9443   -0.3210 C   0  0  0  0  0  0  0  0  0  0  0  0
   -1.3907   -0.8575    1.4284 C   0  0  0  0  0  0  0  0  0  0  0  0
    2.5580   -0.5869   -0.8275 C   0  0  0  0  0  0  0  0  0  0  0  0
    3.6983   -0.5108   -0.0542 C   0  0  0  0  0  0  0  0  0  0  0  0
   -6.0841    0.7180    1.0398 C   0  0  0  0  0  0  0  0  0  0  0  0
   -3.8075   -0.2618    1.3403 C   0  0  0  0  0  0  0  0  0  0  0  0
    4.4029    0.6724   -0.1441 C   0  0  0  0  0  0  0  0  0  0  0  0
   -6.6544    2.1288    1.2209 C   0  0  0  0  0  0  0  0  0  0  0  0
   -6.7438   -0.0004   -0.1420 C   0  0  0  0  0  0  0  0  0  0  0  0
    2.9024    1.5112   -1.6315 C   0  0  0  0  0  0  0  0  0  0  0  0
   -6.6054    2.9493   -0.0680 C   0  0  0  0  0  0  0  0  0  0  0  0
   -6.6945    0.8236   -1.4288 C   0  0  0  0  0  0  0  0  0  0  0  0
   -7.2776    2.2188   -1.2265 C   0  0  0  0  0  0  0  0  0  0  0  0
    5.6113    0.8857    0.6070 C   0  0  0  0  0  0  0  0  0  0  0  0
    2.4596    2.6349   -2.5062 C   0  0  0  0  0  0  0  0  0  0  0  0
    6.3309    0.1235    1.4979 C   0  0  0  0  0  0  0  0  0  0  0  0
    7.4374    0.9150    1.8883 C   0  0  0  0  0  0  0  0  0  0  0  0
    7.3151    2.1045    1.2080 C   0  0  0  0  0  0  0  0  0  0  0  0
    0.6343   -1.5263   -2.6985 H   0  0  0  0  0  0  0  0  0  0  0  0
    2.3880   -2.6411   -1.1649 H   0  0  0  0  0  0  0  0  0  0  0  0
   -2.0370   -2.3901    0.1146 H   0  0  0  0  0  0  0  0  0  0  0  0
   -0.3838   -0.0976   -0.8226 H   0  0  0  0  0  0  0  0  0  0  0  0
   -1.5652   -1.0864   -1.6775 H   0  0  0  0  0  0  0  0  0  0  0  0
    0.7389   -3.9806   -2.3207 H   0  0  0  0  0  0  0  0  0  0  0  0
   -0.9522   -3.4759   -2.2708 H   0  0  0  0  0  0  0  0  0  0  0  0
    2.0049   -2.9515    1.0623 H   0  0  0  0  0  0  0  0  0  0  0  0
    1.3143   -1.3776    1.3268 H   0  0  0  0  0  0  0  0  0  0  0  0
   -1.0358   -4.5174   -0.2177 H   0  0  0  0  0  0  0  0  0  0  0  0
    0.7028   -4.6589   -0.1224 H   0  0  0  0  0  0  0  0  0  0  0  0
   -0.5275   -0.2227    1.6519 H   0  0  0  0  0  0  0  0  0  0  0  0
   -1.6578   -1.3944    2.3460 H   0  0  0  0  0  0  0  0  0  0  0  0
   -2.2383    0.8882    0.5957 H   0  0  0  0  0  0  0  0  0  0  0  0
    4.0148   -1.3346    0.5736 H   0  0  0  0  0  0  0  0  0  0  0  0
   -6.3000    0.1438    1.9495 H   0  0  0  0  0  0  0  0  0  0  0  0
   -6.1108    2.6607    2.0110 H   0  0  0  0  0  0  0  0  0  0  0  0
   -7.6986    2.0517    1.5498 H   0  0  0  0  0  0  0  0  0  0  0  0
   -7.7938   -0.2021    0.1058 H   0  0  0  0  0  0  0  0  0  0  0  0
   -6.2679   -0.9729   -0.3162 H   0  0  0  0  0  0  0  0  0  0  0  0
   -4.2280    1.5190    0.3696 H   0  0  0  0  0  0  0  0  0  0  0  0
   -5.5655    3.1760   -0.3309 H   0  0  0  0  0  0  0  0  0  0  0  0
   -7.1037    3.9120    0.0944 H   0  0  0  0  0  0  0  0  0  0  0  0
   -7.2508    0.3045   -2.2176 H   0  0  0  0  0  0  0  0  0  0  0  0
   -5.6573    0.9069   -1.7753 H   0  0  0  0  0  0  0  0  0  0  0  0
   -8.3539    2.1383   -1.0304 H   0  0  0  0  0  0  0  0  0  0  0  0
   -7.1642    2.8031   -2.1466 H   0  0  0  0  0  0  0  0  0  0  0  0
    2.9057    2.5274   -3.4993 H   0  0  0  0  0  0  0  0  0  0  0  0
    1.3700    2.6406   -2.6096 H   0  0  0  0  0  0  0  0  0  0  0  0
    2.7654    3.5982   -2.0863 H   0  0  0  0  0  0  0  0  0  0  0  0
    6.0992   -0.8777    1.8330 H   0  0  0  0  0  0  0  0  0  0  0  0
    8.2254    0.6517    2.5789 H   0  0  0  0  0  0  0  0  0  0  0  0
    7.9033    3.0098    1.1735 H   0  0  0  0  0  0  0  0  0  0  0  0
  1 19  2  0  0  0  0
  2 27  1  0  0  0  0
  2 31  1  0  0  0  0
  3 10  1  0  0  0  0
  3 13  1  0  0  0  0
  3 14  1  0  0  0  0
  4 15  1  0  0  0  0
  4 19  1  0  0  0  0
  4 45  1  0  0  0  0
  5 16  2  0  0  0  0
  5 23  1  0  0  0  0
  6 18  1  0  0  0  0
  6 19  1  0  0  0  0
  6 52  1  0  0  0  0
  7 20  1  0  0  0  0
  7 23  2  0  0  0  0
  8  9  1  0  0  0  0
  8 11  1  0  0  0  0
  8 12  1  0  0  0  0
  8 32  1  0  0  0  0
  9 13  1  0  0  0  0
  9 16  1  0  0  0  0
  9 33  1  0  0  0  0
 10 11  1  0  0  0  0
 10 15  1  0  0  0  0
 10 34  1  0  0  0  0
 11 35  1  0  0  0  0
 11 36  1  0  0  0  0
 12 14  1  0  0  0  0
 12 37  1  0  0  0  0
 12 38  1  0  0  0  0
 13 39  1  0  0  0  0
 13 40  1  0  0  0  0
 14 41  1  0  0  0  0
 14 42  1  0  0  0  0
 15 43  1  0  0  0  0
 15 44  1  0  0  0  0
 16 17  1  0  0  0  0
 17 20  2  0  0  0  0
 17 46  1  0  0  0  0
 18 21  1  0  0  0  0
 18 22  1  0  0  0  0
 18 47  1  0  0  0  0
 20 27  1  0  0  0  0
 21 24  1  0  0  0  0
 21 48  1  0  0  0  0
 21 49  1  0  0  0  0
 22 25  1  0  0  0  0
 22 50  1  0  0  0  0
 22 51  1  0  0  0  0
 23 28  1  0  0  0  0
 24 26  1  0  0  0  0
 24 53  1  0  0  0  0
 24 54  1  0  0  0  0
 25 26  1  0  0  0  0
 25 55  1  0  0  0  0
 25 56  1  0  0  0  0
 26 57  1  0  0  0  0
 26 58  1  0  0  0  0
 27 29  2  0  0  0  0
 28 59  1  0  0  0  0
 28 60  1  0  0  0  0
 28 61  1  0  0  0  0
 29 30  1  0  0  0  0
 29 62  1  0  0  0  0
 30 31  2  0  0  0  0
 30 63  1  0  0  0  0
 31 64  1  0  0  0  0
M  END
> <PUBCHEM_COMPOUND_CID>
26742466

> <PUBCHEM_CONFORMER_RMSD>
1

> <PUBCHEM_CONFORMER_DIVERSEORDER>
1
55
106
142
171
200
141
146
207
155
167
56
162
135
6
158
58
65
81
156
99
21
71
208
173
108
193
94
42
140
51
116
197
10
172
101
114
113
212
194
182
192
85
103
186
203
28
8
204
152
191
77
211
96
87
174
34
170
176
153
44
213
157
132
125
67
196
119
166
11
169
209
24
150
76
13
148
52
161
165
168
138
54
62
91
109
129
198
199
7
104
31
180
201
84
175
95
111
14
110
183
195
75
23
30
97
139
92
82
53
190
107
16
160
39
74
45
66
121
214
17
187
164
105
48
86
123
206
32
57
5
134
27
147
145
144
15
47
128
72
179
127
120
36
181
112
41
88
122
22
25
2
143
184
115
20
64
130
90
38
49
159
3
70
33
50
63
163
43
131
61
149
178
202
100
177
80
151
69
73
126
78
40
26
118
137
46
9
102
117
154
185
35
210
68
189
188
12
29
93
98
19
136
60
133
205
89
83
18
79
4
124
37
59

> <PUBCHEM_MMFF94_PARTIAL_CHARGES>
29
1 -0.57
10 0.27
13 0.27
14 0.27
15 0.3
16 0.17
17 -0.15
18 0.3
19 0.69
2 -0.28
20 0.36
23 0.48
27 0.09
28 0.14
29 -0.15
3 -0.81
30 -0.15
31 -0.01
4 -0.73
45 0.37
46 0.15
5 -0.62
52 0.37
6 -0.73
62 0.15
63 0.15
64 0.15
7 -0.62
9 0.14

> <PUBCHEM_EFFECTIVE_ROTOR_COUNT>
9.4

> <PUBCHEM_PHARMACOPHORE_FEATURES>
11
1 1 acceptor
1 2 acceptor
1 3 cation
1 4 donor
1 5 acceptor
1 6 donor
3 5 7 23 cation
5 2 27 29 30 31 rings
6 18 21 22 24 25 26 rings
6 5 7 16 17 20 23 rings
8 3 8 9 10 11 12 13 14 rings

> <PUBCHEM_HEAVY_ATOM_COUNT>
31

> <PUBCHEM_ATOM_DEF_STEREO_COUNT>
3

> <PUBCHEM_ATOM_UDEF_STEREO_COUNT>
0

> <PUBCHEM_BOND_DEF_STEREO_COUNT>
0

> <PUBCHEM_BOND_UDEF_STEREO_COUNT>
0

> <PUBCHEM_ISOTOPIC_ATOM_COUNT>
0

> <PUBCHEM_COMPONENT_COUNT>
1

> <PUBCHEM_CACTVS_TAUTO_COUNT>
3

> <PUBCHEM_CONFORMER_ID>
01980EC200000001

> <PUBCHEM_MMFF94_ENERGY>
54.9029

> <PUBCHEM_FEATURE_SELFOVERLAP>
55.87

> <PUBCHEM_SHAPE_FINGERPRINT>
10692045 39 15719397209294705353
10764073 3 17022617572262128535
10928967 22 9006494919123832913
11135609 127 18125436415857008945
11374522 165 18043512946221479421
11823591 26 18272645749200718082
11961588 58 16773798108339948318
12107183 9 17676486189713188760
12403259 118 18188782767487298259
131258 43 12175326029524825803
13150687 139 17704080577211841342
13726171 33 17274551945349062355
14040221 126 10087101677475360028
14123256 34 8214144053419948361
14251764 30 8358261436308475361
14347424 109 15430039885316689708
14904525 67 17977673009863161097
15238133 3 17822021938533387350
15320295 40 16370718267332324247
15350500 185 18273204305244353265
15669420 48 15195564632515135737
16120349 189 18341613754408815484
16994733 274 17132109126473628025
19246450 95 18114174255255004874
19304144 158 18412261710722002005
195137 95 18335695022881545776
20554085 129 17989196041190670282
20567600 254 18272371966452132914
20715895 44 18261399914423091481
21033648 29 18261401043741189974
21298829 104 18412826876098430417
21304303 282 17988073521107234766
21344244 181 8358258164240429632
21403212 168 18336257977704693922
21585481 151 13912326763358731096
23559900 14 18044960994851364699
25269216 80 14979954779681777057
2748736 6 18411702088693528145
2838139 119 18335699481563617597
393628 179 17988633121260322448
44880168 125 12973883757766091025
4756326 101 16988545898152161616
54728670 133 17605526926810205260
6058803 2 17537443195290753926
6371009 1 18410858763180474569
999808 66 8142086464030467689

> <PUBCHEM_SHAPE_MULTIPOLES>
601.32
21.22
3.8
2.05
11.61
2.18
-0.44
-23.86
7.58
0.44
-1.18
-0.56
-0.48
0.91

> <PUBCHEM_SHAPE_SELFOVERLAP>
1288.355

> <PUBCHEM_SHAPE_VOLUME>
326.5

> <PUBCHEM_COORDINATE_TYPE>
2
5
10

$$$$
