40587851
  -OEChem-12032416373D

 56 60  0     1  0  0  0  0  0999 V2000
   -1.7215    3.5413    1.1368 O   0  0  0  0  0  0  0  0  0  0  0  0
   -0.7583    0.6662    1.8731 O   0  0  0  0  0  0  0  0  0  0  0  0
   -5.5048    0.2320    1.5909 O   0  0  0  0  0  0  0  0  0  0  0  0
    5.7413   -3.8091    1.3222 O   0  0  0  0  0  0  0  0  0  0  0  0
    0.9662    3.0302   -0.3102 N   0  0  0  0  0  0  0  0  0  0  0  0
   -3.5033    0.4243    0.4353 N   0  0  0  0  0  0  0  0  0  0  0  0
    2.5364    1.3207   -0.3958 N   0  0  0  0  0  0  0  0  0  0  0  0
    2.3942    2.9765   -2.1409 N   0  0  0  0  0  0  0  0  0  0  0  0
   -0.6024    1.4868    0.7030 C   0  0  1  0  0  0  0  0  0  0  0  0
   -1.8958    2.2560    0.5176 C   0  0  1  0  0  0  0  0  0  0  0  0
    0.4330    2.5586    0.9491 C   0  0  2  0  0  0  0  0  0  0  0  0
   -2.9198    1.4421    1.2753 C   0  0  2  0  0  0  0  0  0  0  0  0
   -0.3749    3.6541    1.6203 C   0  0  0  0  0  0  0  0  0  0  0  0
   -2.0884    0.8280    2.3875 C   0  0  0  0  0  0  0  0  0  0  0  0
    2.0119    2.4162   -0.9775 C   0  0  0  0  0  0  0  0  0  0  0  0
   -4.7656   -0.1019    0.6686 C   0  0  0  0  0  0  0  0  0  0  0  0
   -5.2120   -1.1619   -0.2718 C   0  0  0  0  0  0  0  0  0  0  0  0
    3.5508    0.7460   -1.0750 C   0  0  0  0  0  0  0  0  0  0  0  0
   -6.1336   -2.1224    0.1449 C   0  0  0  0  0  0  0  0  0  0  0  0
   -4.7088   -1.1961   -1.5722 C   0  0  0  0  0  0  0  0  0  0  0  0
    3.4128    2.3510   -2.7666 C   0  0  0  0  0  0  0  0  0  0  0  0
    4.0357    1.2214   -2.2764 C   0  0  0  0  0  0  0  0  0  0  0  0
    4.1158   -0.4285   -0.4550 C   0  0  0  0  0  0  0  0  0  0  0  0
   -6.5522   -3.1172   -0.7388 C   0  0  0  0  0  0  0  0  0  0  0  0
   -5.1273   -2.1908   -2.4560 C   0  0  0  0  0  0  0  0  0  0  0  0
   -6.0489   -3.1514   -2.0393 C   0  0  0  0  0  0  0  0  0  0  0  0
    5.4642   -0.4494   -0.0985 C   0  0  0  0  0  0  0  0  0  0  0  0
    3.3133   -1.5437   -0.2136 C   0  0  0  0  0  0  0  0  0  0  0  0
    6.0103   -1.5852    0.4989 C   0  0  0  0  0  0  0  0  0  0  0  0
    3.8594   -2.6797    0.3840 C   0  0  0  0  0  0  0  0  0  0  0  0
    5.2078   -2.7004    0.7402 C   0  0  0  0  0  0  0  0  0  0  0  0
    4.8645   -4.9135    1.5400 C   0  0  0  0  0  0  0  0  0  0  0  0
   -0.3832    0.8176   -0.1351 H   0  0  0  0  0  0  0  0  0  0  0  0
   -2.1459    2.4292   -0.5341 H   0  0  0  0  0  0  0  0  0  0  0  0
    1.2407    2.2469    1.6214 H   0  0  0  0  0  0  0  0  0  0  0  0
   -3.7241    2.0553    1.6962 H   0  0  0  0  0  0  0  0  0  0  0  0
   -0.4079    3.5058    2.7054 H   0  0  0  0  0  0  0  0  0  0  0  0
   -0.0034    4.6647    1.4244 H   0  0  0  0  0  0  0  0  0  0  0  0
   -2.0237    1.5043    3.2469 H   0  0  0  0  0  0  0  0  0  0  0  0
   -2.4605   -0.1395    2.7383 H   0  0  0  0  0  0  0  0  0  0  0  0
    0.5321    3.8229   -0.7695 H   0  0  0  0  0  0  0  0  0  0  0  0
   -2.9083    0.0218   -0.2814 H   0  0  0  0  0  0  0  0  0  0  0  0
   -6.5339   -2.1153    1.1553 H   0  0  0  0  0  0  0  0  0  0  0  0
   -4.0139   -0.4500   -1.9462 H   0  0  0  0  0  0  0  0  0  0  0  0
    3.7242    2.7972   -3.7050 H   0  0  0  0  0  0  0  0  0  0  0  0
    4.8475    0.7507   -2.8169 H   0  0  0  0  0  0  0  0  0  0  0  0
   -7.2693   -3.8656   -0.4144 H   0  0  0  0  0  0  0  0  0  0  0  0
   -4.7412   -2.2138   -3.4709 H   0  0  0  0  0  0  0  0  0  0  0  0
   -6.3757   -3.9250   -2.7279 H   0  0  0  0  0  0  0  0  0  0  0  0
    6.1060    0.4111   -0.2730 H   0  0  0  0  0  0  0  0  0  0  0  0
    2.2608   -1.5463   -0.4877 H   0  0  0  0  0  0  0  0  0  0  0  0
    7.0611   -1.5955    0.7752 H   0  0  0  0  0  0  0  0  0  0  0  0
    3.1802   -3.5105    0.5418 H   0  0  0  0  0  0  0  0  0  0  0  0
    5.4546   -5.7067    2.0107 H   0  0  0  0  0  0  0  0  0  0  0  0
    4.4829   -5.3166    0.5958 H   0  0  0  0  0  0  0  0  0  0  0  0
    4.0598   -4.6571    2.2374 H   0  0  0  0  0  0  0  0  0  0  0  0
  1 10  1  0  0  0  0
  1 13  1  0  0  0  0
  2  9  1  0  0  0  0
  2 14  1  0  0  0  0
  3 16  2  0  0  0  0
  4 31  1  0  0  0  0
  4 32  1  0  0  0  0
  5 11  1  0  0  0  0
  5 15  1  0  0  0  0
  5 41  1  0  0  0  0
  6 12  1  0  0  0  0
  6 16  1  0  0  0  0
  6 42  1  0  0  0  0
  7 15  1  0  0  0  0
  7 18  2  0  0  0  0
  8 15  2  0  0  0  0
  8 21  1  0  0  0  0
  9 10  1  0  0  0  0
  9 11  1  0  0  0  0
  9 33  1  0  0  0  0
 10 12  1  0  0  0  0
 10 34  1  0  0  0  0
 11 13  1  0  0  0  0
 11 35  1  0  0  0  0
 12 14  1  0  0  0  0
 12 36  1  0  0  0  0
 13 37  1  0  0  0  0
 13 38  1  0  0  0  0
 14 39  1  0  0  0  0
 14 40  1  0  0  0  0
 16 17  1  0  0  0  0
 17 19  2  0  0  0  0
 17 20  1  0  0  0  0
 18 22  1  0  0  0  0
 18 23  1  0  0  0  0
 19 24  1  0  0  0  0
 19 43  1  0  0  0  0
 20 25  2  0  0  0  0
 20 44  1  0  0  0  0
 21 22  2  0  0  0  0
 21 45  1  0  0  0  0
 22 46  1  0  0  0  0
 23 27  2  0  0  0  0
 23 28  1  0  0  0  0
 24 26  2  0  0  0  0
 24 47  1  0  0  0  0
 25 26  1  0  0  0  0
 25 48  1  0  0  0  0
 26 49  1  0  0  0  0
 27 29  1  0  0  0  0
 27 50  1  0  0  0  0
 28 30  2  0  0  0  0
 28 51  1  0  0  0  0
 29 31  2  0  0  0  0
 29 52  1  0  0  0  0
 30 31  1  0  0  0  0
 30 53  1  0  0  0  0
 32 54  1  0  0  0  0
 32 55  1  0  0  0  0
 32 56  1  0  0  0  0
M  END
> <PUBCHEM_COMPOUND_CID>
40587851

> <PUBCHEM_CONFORMER_RMSD>
1

> <PUBCHEM_CONFORMER_DIVERSEORDER>
1
58
155
92
28
65
157
128
95
100
75
66
26
151
7
72
51
111
37
139
96
22
153
47
127
81
116
12
67
105
4
149
91
142
61
77
5
110
27
74
36
84
118
87
86
62
25
104
16
107
134
123
52
21
114
152
119
41
15
124
76
44
42
11
70
80
8
140
109
6
10
55
93
31
121
94
82
99
154
103
150
79
144
136
64
130
147
88
13
101
9
120
137
78
60
83
98
49
115
24
106
112
125
117
3
122
59
108
126
89
54
57
143
138
38
141
90
102
46
71
133
53
18
40
97
14
30
148
129
113
68
156
50
73
19
63
69
29
135
145
43
20
146
56
132
48
131
33
85
39
34
23
17
45
32
35
2

> <PUBCHEM_MMFF94_PARTIAL_CHARGES>
44
1 -0.56
10 0.28
11 0.37
12 0.3
13 0.28
14 0.28
15 0.72
16 0.54
17 0.09
18 0.31
19 -0.15
2 -0.56
20 -0.15
21 0.16
22 -0.15
24 -0.15
25 -0.15
26 -0.15
27 -0.15
28 -0.15
29 -0.15
3 -0.57
30 -0.15
31 0.08
32 0.28
4 -0.36
41 0.4
42 0.37
43 0.15
44 0.15
45 0.15
46 0.15
47 0.15
48 0.15
49 0.15
5 -0.87
50 0.15
51 0.15
52 0.15
53 0.15
6 -0.73
7 -0.62
8 -0.62
9 0.28

> <PUBCHEM_EFFECTIVE_ROTOR_COUNT>
8.2

> <PUBCHEM_PHARMACOPHORE_FEATURES>
13
1 1 acceptor
1 2 acceptor
1 3 acceptor
1 4 acceptor
1 5 donor
1 6 donor
1 7 acceptor
4 5 7 8 15 cation
5 1 9 10 11 13 rings
5 2 9 10 12 14 rings
6 17 19 20 24 25 26 rings
6 23 27 28 29 30 31 rings
6 7 8 15 18 21 22 rings

> <PUBCHEM_HEAVY_ATOM_COUNT>
32

> <PUBCHEM_ATOM_DEF_STEREO_COUNT>
4

> <PUBCHEM_ATOM_UDEF_STEREO_COUNT>
0

> <PUBCHEM_BOND_DEF_STEREO_COUNT>
0

> <PUBCHEM_BOND_UDEF_STEREO_COUNT>
0

> <PUBCHEM_ISOTOPIC_ATOM_COUNT>
0

> <PUBCHEM_COMPONENT_COUNT>
1

> <PUBCHEM_CACTVS_TAUTO_COUNT>
6

> <PUBCHEM_CONFORMER_ID>
026B524B00000001

> <PUBCHEM_MMFF94_ENERGY>
108.1312

> <PUBCHEM_FEATURE_SELFOVERLAP>
66.68

> <PUBCHEM_SHAPE_FINGERPRINT>
10074138 170 16198774345225682313
10556698 54 15865166071586198055
10622 236 18335981965462101402
10908659 184 18059585745199823839
10928967 22 18200882902041775551
11069576 57 18261121781136457996
11135609 149 18188194468695133012
11135926 11 17606713389908431108
11227150 75 18263061284977782826
11497681 19 18339080364514775654
11607047 403 18198326550698391624
11796584 16 17632031809632672185
11828042 38 17895195558355133939
12166972 35 18334289877233452454
12977781 61 18053628517558250625
14340393 91 17969200288742465039
15320294 125 18198637536242385529
15419009 47 17898276217915105437
16989713 51 17683525032034124414
17134984 74 18120378914901871949
17324776 126 18263073327961177226
19303781 99 18114747019035079034
19315092 285 18410293639957336172
19319366 153 18122063371422166156
20156587 76 17825916344236464618
20775438 99 18119517993061054267
208703 8 18202008745507642150
21458453 9 14835538358766980910
21585483 132 18128804425937087183
21792938 131 18128809936891914599
25025965 108 17462836577066198794
25222932 49 17988360489715913708
2838139 119 13913429685749507005
3729539 64 18335418028246814475
4015057 19 17968105252006503889
4017518 198 16896239414024134196
4394409 98 18059562569777003151
439807 62 18337954593177097911
463206 1 18341058505152459867
57527295 17 18268166394801448961
59025328 239 17894915109779920276
6058803 2 18194144970086058548
6201460 15 18338515214304229163
6636735 143 14261356856268040391
6677587 24 16955612435996131541
96874 4 18413382142360809303

> <PUBCHEM_SHAPE_MULTIPOLES>
615.14
17.45
5.73
2.4
11.4
2.55
-1
23.19
-3.45
-4.01
1.26
0.35
-0.64
-7.83

> <PUBCHEM_SHAPE_SELFOVERLAP>
1351.849

> <PUBCHEM_SHAPE_VOLUME>
329.8

> <PUBCHEM_COORDINATE_TYPE>
2
5
10

$$$$
