51137862
  -OEChem-12032416243D

 44 47  0     1  0  0  0  0  0999 V2000
   -6.9812    2.3231    1.1103 Cl  0  0  0  0  0  0  0  0  0  0  0  0
    5.2458    3.0789   -0.4110 O   0  0  0  0  0  0  0  0  0  0  0  0
   -1.9630   -0.6670   -0.1988 N   0  0  1  0  0  0  0  0  0  0  0  0
    2.6012   -2.0368    0.3051 N   0  0  0  0  0  0  0  0  0  0  0  0
    2.1758    0.1371    0.1236 N   0  0  0  0  0  0  0  0  0  0  0  0
    2.9980    2.6844   -0.1868 N   0  0  0  0  0  0  0  0  0  0  0  0
    0.1805   -1.3839    0.4264 C   0  0  1  0  0  0  0  0  0  0  0  0
   -0.5131   -0.7239    1.6308 C   0  0  0  0  0  0  0  0  0  0  0  0
   -0.6522   -0.9497   -0.7874 C   0  0  0  0  0  0  0  0  0  0  0  0
   -1.6727    0.0637    1.0348 C   0  0  0  0  0  0  0  0  0  0  0  0
    1.6487   -1.0564    0.2812 C   0  0  0  0  0  0  0  0  0  0  0  0
   -2.8251    0.0851   -1.0985 C   0  0  0  0  0  0  0  0  0  0  0  0
   -4.2723   -0.0034   -0.6927 C   0  0  0  0  0  0  0  0  0  0  0  0
    3.8243   -1.4360    0.1525 C   0  0  0  0  0  0  0  0  0  0  0  0
    3.5321   -0.0795    0.0414 C   0  0  0  0  0  0  0  0  0  0  0  0
    4.5843    0.8361   -0.1288 C   0  0  0  0  0  0  0  0  0  0  0  0
    5.1217   -1.9471    0.1037 C   0  0  0  0  0  0  0  0  0  0  0  0
   -4.8849    1.0749   -0.0542 C   0  0  0  0  0  0  0  0  0  0  0  0
   -5.0007   -1.1635   -0.9561 C   0  0  0  0  0  0  0  0  0  0  0  0
    5.8951    0.3456   -0.1807 C   0  0  0  0  0  0  0  0  0  0  0  0
    6.1568   -1.0217   -0.0664 C   0  0  0  0  0  0  0  0  0  0  0  0
   -6.2260    0.9933    0.3209 C   0  0  0  0  0  0  0  0  0  0  0  0
   -6.3417   -1.2453   -0.5809 C   0  0  0  0  0  0  0  0  0  0  0  0
    4.3233    2.2590   -0.2459 C   0  0  0  0  0  0  0  0  0  0  0  0
   -6.9545   -0.1669    0.0574 C   0  0  0  0  0  0  0  0  0  0  0  0
    0.0767   -2.4723    0.5449 H   0  0  0  0  0  0  0  0  0  0  0  0
    0.1504   -0.0763    2.2137 H   0  0  0  0  0  0  0  0  0  0  0  0
   -0.8930   -1.5029    2.3037 H   0  0  0  0  0  0  0  0  0  0  0  0
   -0.2272   -0.0570   -1.2654 H   0  0  0  0  0  0  0  0  0  0  0  0
   -0.7070   -1.7466   -1.5370 H   0  0  0  0  0  0  0  0  0  0  0  0
   -2.5246    0.0874    1.7216 H   0  0  0  0  0  0  0  0  0  0  0  0
   -1.3530    1.0947    0.8356 H   0  0  0  0  0  0  0  0  0  0  0  0
   -2.7562   -0.3310   -2.1137 H   0  0  0  0  0  0  0  0  0  0  0  0
   -2.5074    1.1320   -1.1971 H   0  0  0  0  0  0  0  0  0  0  0  0
    2.4372   -3.0287    0.4153 H   0  0  0  0  0  0  0  0  0  0  0  0
    5.3223   -3.0087    0.1928 H   0  0  0  0  0  0  0  0  0  0  0  0
   -4.3155    1.9783    0.1522 H   0  0  0  0  0  0  0  0  0  0  0  0
   -4.5349   -2.0104   -1.4530 H   0  0  0  0  0  0  0  0  0  0  0  0
    6.7371    1.0217   -0.3107 H   0  0  0  0  0  0  0  0  0  0  0  0
    7.1842   -1.3747   -0.1100 H   0  0  0  0  0  0  0  0  0  0  0  0
   -6.9088   -2.1486   -0.7859 H   0  0  0  0  0  0  0  0  0  0  0  0
   -8.0001   -0.2449    0.3441 H   0  0  0  0  0  0  0  0  0  0  0  0
    2.7752    3.6709   -0.2714 H   0  0  0  0  0  0  0  0  0  0  0  0
    2.2084    2.0613   -0.0607 H   0  0  0  0  0  0  0  0  0  0  0  0
  1 22  1  0  0  0  0
  2 24  2  0  0  0  0
  3  9  1  0  0  0  0
  3 10  1  0  0  0  0
  3 12  1  0  0  0  0
  4 11  1  0  0  0  0
  4 14  1  0  0  0  0
  4 35  1  0  0  0  0
  5 11  2  0  0  0  0
  5 15  1  0  0  0  0
  6 24  1  0  0  0  0
  6 43  1  0  0  0  0
  6 44  1  0  0  0  0
  7  8  1  0  0  0  0
  7  9  1  0  0  0  0
  7 11  1  0  0  0  0
  7 26  1  0  0  0  0
  8 10  1  0  0  0  0
  8 27  1  0  0  0  0
  8 28  1  0  0  0  0
  9 29  1  0  0  0  0
  9 30  1  0  0  0  0
 10 31  1  0  0  0  0
 10 32  1  0  0  0  0
 12 13  1  0  0  0  0
 12 33  1  0  0  0  0
 12 34  1  0  0  0  0
 13 18  2  0  0  0  0
 13 19  1  0  0  0  0
 14 15  1  0  0  0  0
 14 17  2  0  0  0  0
 15 16  2  0  0  0  0
 16 20  1  0  0  0  0
 16 24  1  0  0  0  0
 17 21  1  0  0  0  0
 17 36  1  0  0  0  0
 18 22  1  0  0  0  0
 18 37  1  0  0  0  0
 19 23  2  0  0  0  0
 19 38  1  0  0  0  0
 20 21  2  0  0  0  0
 20 39  1  0  0  0  0
 21 40  1  0  0  0  0
 22 25  2  0  0  0  0
 23 25  1  0  0  0  0
 23 41  1  0  0  0  0
 25 42  1  0  0  0  0
M  END
> <PUBCHEM_COMPOUND_CID>
51137862

> <PUBCHEM_CONFORMER_RMSD>
0.8

> <PUBCHEM_CONFORMER_DIVERSEORDER>
1
170
235
149
31
158
219
27
176
214
99
174
86
120
57
30
151
45
200
236
165
75
231
205
137
168
43
222
216
22
148
104
16
2
126
84
35
169
191
156
228
116
197
65
87
172
60
143
213
118
210
32
101
147
34
229
163
232
218
47
95
181
85
212
117
233
129
196
204
234
112
173
136
25
203
184
157
63
103
131
56
159
132
211
92
11
215
194
122
52
83
127
195
201
82
12
91
69
230
72
70
185
58
44
3
97
121
124
138
199
189
145
167
62
202
193
107
29
67
134
53
89
28
96
178
180
93
50
162
152
36
88
66
40
110
224
140
190
171
7
150
187
74
123
188
61
186
76
128
21
114
154
192
94
144
182
153
23
24
98
51
90
5
141
33
79
139
217
206
177
17
146
109
221
26
108
198
8
113
6
179
39
59
160
14
223
20
207
208
42
68
183
105
9
73
133
161
4
155
48
10
71
119
78
15
142
19
80
13
175
102
226
38
166
130
220
46
54
49
164
225
227
135
64
18
55
81
111
115
209
41
77
106
37
125
100

> <PUBCHEM_MMFF94_PARTIAL_CHARGES>
34
1 -0.18
10 0.27
11 0.01
12 0.41
13 -0.14
14 -0.15
15 0.23
16 0.09
17 -0.15
18 -0.15
19 -0.15
2 -0.57
20 -0.15
21 -0.15
22 0.18
23 -0.15
24 0.54
25 -0.15
3 -0.81
35 0.27
36 0.15
37 0.15
38 0.15
39 0.15
4 0.03
40 0.15
41 0.15
42 0.15
43 0.37
44 0.37
5 -0.57
6 -0.8
7 0.18
9 0.27

> <PUBCHEM_EFFECTIVE_ROTOR_COUNT>
5

> <PUBCHEM_PHARMACOPHORE_FEATURES>
9
1 2 acceptor
1 3 cation
1 4 donor
1 6 donor
3 4 5 11 cation
5 3 7 8 9 10 rings
5 4 5 11 14 15 rings
6 13 18 19 22 23 25 rings
6 14 15 16 17 20 21 rings

> <PUBCHEM_HEAVY_ATOM_COUNT>
25

> <PUBCHEM_ATOM_DEF_STEREO_COUNT>
1

> <PUBCHEM_ATOM_UDEF_STEREO_COUNT>
0

> <PUBCHEM_BOND_DEF_STEREO_COUNT>
0

> <PUBCHEM_BOND_UDEF_STEREO_COUNT>
0

> <PUBCHEM_ISOTOPIC_ATOM_COUNT>
0

> <PUBCHEM_COMPONENT_COUNT>
1

> <PUBCHEM_CACTVS_TAUTO_COUNT>
12

> <PUBCHEM_CONFORMER_ID>
030C4D4600000001

> <PUBCHEM_MMFF94_ENERGY>
56.2555

> <PUBCHEM_FEATURE_SELFOVERLAP>
45.779

> <PUBCHEM_SHAPE_FINGERPRINT>
10 15 14779555598983662767
10299344 5 18273494585769092743
10411042 1 18048312246822777258
10595046 47 18412822517123018623
10638233 991 18342736347359904877
11315181 36 18410009928341490959
11456790 92 18114742634084096264
11646440 116 16950569861070231181
11796584 16 13901899029345260790
12166972 35 18334014990736781564
12236239 1 18201999915181383815
12403259 415 17603857888863190591
12616971 3 18201991140520942199
12730499 353 17967814929418632786
12788726 201 17418101992241441873
13167372 99 18341896259993262041
13533116 47 17095512947216261122
13782708 43 16806440297681437066
13785724 45 17837774426571390110
13955234 65 17895183347403674290
14170010 4 18408881841900590746
14251752 14 17775283837861492979
14464042 87 18131073718614076392
14528608 73 18410572907172922655
14681490 219 18409727356983081568
14849402 71 18334300910883623237
14856354 85 17703790349751027775
14933364 13 18410293601597593671
15003188 100 18187645838415266542
15183329 4 18341610404271150749
1577012 14 18343302573972459477
15840311 113 18336270059706303533
17844677 252 18410577249753883685
18335252 114 18340477885814703469
19489759 90 10737290130649503087
20157964 124 18410011057327143466
21033648 29 17603872264683239016
21298829 104 18341050813304577568
21315763 28 18411980256809008935
21315764 119 17203616960381179788
21641784 216 16773810177166279193
22122407 14 18341344322547322745
221357 26 18335135376227077188
22956985 138 13552846856937575424
23081809 10 18131061641577158719
23198884 109 18410573985937720715
23424782 7 18114465677597863035
23522609 53 17916323748044791177
23536379 177 18342737395178970259
23569943 247 17387963175728382067
255183 451 17984708810222423526
2747138 104 17240492412051694105
2838139 119 18333446538871900413
29717793 49 17918279736259559470
3004659 81 18131349692122542390
314173 85 14261351362530037291
335352 9 18408044023031294814
34797466 226 18272657856971806791
397830 11 17459202935447347705
4073 2 18041564748881564026
4093350 32 17704074010824011004
4325135 7 18411980265562318103
44555599 121 18342183228518397073
5104073 3 17968373536890878506
513532 50 18342470265809676244
53794403 172 17678184986802762876
54446538 1 18411416194184608461
59755656 520 17676485055726603227
6328613 192 18343019961647203481

> <PUBCHEM_SHAPE_MULTIPOLES>
490.56
20.12
2.44
1
15.16
1.81
-0.16
5.35
0.69
-2.4
0.02
0.91
-0.04
-1.92

> <PUBCHEM_SHAPE_SELFOVERLAP>
1068.758

> <PUBCHEM_SHAPE_VOLUME>
270.1

> <PUBCHEM_COORDINATE_TYPE>
2
5
10

$$$$
