11883053
  -OEChem-12032416123D

 65 68  0     1  0  0  0  0  0999 V2000
    0.1893    2.3620   -0.3614 S   0  0  0  0  0  0  0  0  0  0  0  0
    4.2085    2.9260    0.7465 F   0  0  0  0  0  0  0  0  0  0  0  0
    5.6390   -1.4074   -0.5704 F   0  0  0  0  0  0  0  0  0  0  0  0
   -7.3461    0.2049   -0.7993 O   0  0  0  0  0  0  0  0  0  0  0  0
   -6.9541    2.3997    0.0806 O   0  0  0  0  0  0  0  0  0  0  0  0
    1.0075   -2.5123    1.7825 O   0  0  0  0  0  0  0  0  0  0  0  0
    3.3712   -0.9244    0.5030 O   0  0  0  0  0  0  0  0  0  0  0  0
    0.5338   -0.1266    0.2557 N   0  0  0  0  0  0  0  0  0  0  0  0
   -0.1307   -3.3428   -0.0658 N   0  0  0  0  0  0  0  0  0  0  0  0
    2.5205    1.2073   -0.0331 N   0  0  0  0  0  0  0  0  0  0  0  0
   -3.2887   -0.4188    0.6694 C   0  0  2  0  0  0  0  0  0  0  0  0
   -3.5724    0.6887   -0.4390 C   0  0  1  0  0  0  0  0  0  0  0  0
   -5.0746    1.1199   -0.6520 C   0  0  1  0  0  0  0  0  0  0  0  0
   -1.8248   -1.0070    0.4153 C   0  0  1  0  0  0  0  0  0  0  0  0
   -4.3125   -1.5738    0.5183 C   0  0  0  0  0  0  0  0  0  0  0  0
   -5.9656   -0.1517   -0.7361 C   0  0  1  0  0  0  0  0  0  0  0  0
   -2.5881    1.8876   -0.3100 C   0  0  0  0  0  0  0  0  0  0  0  0
   -5.7592   -1.1084    0.4329 C   0  0  0  0  0  0  0  0  0  0  0  0
   -3.3767    0.1377    2.1119 C   0  0  0  0  0  0  0  0  0  0  0  0
   -0.8283    0.1001    0.1853 C   0  0  0  0  0  0  0  0  0  0  0  0
   -5.6158    2.1024    0.4100 C   0  0  0  0  0  0  0  0  0  0  0  0
   -5.2006    1.8635   -2.0119 C   0  0  0  0  0  0  0  0  0  0  0  0
   -1.1917    1.3867   -0.1570 C   0  0  0  0  0  0  0  0  0  0  0  0
   -1.3363   -1.9882    1.4894 C   0  0  0  0  0  0  0  0  0  0  0  0
   -0.0180   -2.6261    1.1165 C   0  0  0  0  0  0  0  0  0  0  0  0
    1.1675    0.9958   -0.0065 C   0  0  0  0  0  0  0  0  0  0  0  0
    0.9740   -4.0561   -0.6651 C   0  0  0  0  0  0  0  0  0  0  0  0
    3.5245    0.2580    0.2172 C   0  0  0  0  0  0  0  0  0  0  0  0
    4.9192    0.7576    0.0885 C   0  0  0  0  0  0  0  0  0  0  0  0
    1.7132   -3.1999   -1.5924 C   0  0  0  0  0  0  0  0  0  0  0  0
    5.1792    2.0832    0.3659 C   0  0  0  0  0  0  0  0  0  0  0  0
    5.9067   -0.1210   -0.3042 C   0  0  0  0  0  0  0  0  0  0  0  0
    2.3223   -2.5003   -2.3547 C   0  0  0  0  0  0  0  0  0  0  0  0
    6.4874    2.5519    0.2451 C   0  0  0  0  0  0  0  0  0  0  0  0
    7.2150    0.3477   -0.4250 C   0  0  0  0  0  0  0  0  0  0  0  0
    7.5053    1.6840   -0.1503 C   0  0  0  0  0  0  0  0  0  0  0  0
   -3.3012    0.1905   -1.3861 H   0  0  0  0  0  0  0  0  0  0  0  0
   -1.8777   -1.5323   -0.5485 H   0  0  0  0  0  0  0  0  0  0  0  0
   -4.2261   -2.2772    1.3548 H   0  0  0  0  0  0  0  0  0  0  0  0
   -4.0851   -2.1491   -0.3890 H   0  0  0  0  0  0  0  0  0  0  0  0
   -5.7362   -0.6989   -1.6604 H   0  0  0  0  0  0  0  0  0  0  0  0
   -2.6471    2.5223   -1.2003 H   0  0  0  0  0  0  0  0  0  0  0  0
   -2.8403    2.5084    0.5562 H   0  0  0  0  0  0  0  0  0  0  0  0
   -6.0845   -0.6490    1.3729 H   0  0  0  0  0  0  0  0  0  0  0  0
   -6.4135   -1.9800    0.3029 H   0  0  0  0  0  0  0  0  0  0  0  0
   -3.2052   -0.6522    2.8515 H   0  0  0  0  0  0  0  0  0  0  0  0
   -4.3576    0.5391    2.3548 H   0  0  0  0  0  0  0  0  0  0  0  0
   -2.6404    0.9229    2.3048 H   0  0  0  0  0  0  0  0  0  0  0  0
   -5.6353    1.6778    1.4097 H   0  0  0  0  0  0  0  0  0  0  0  0
   -5.0473    3.0367    0.4518 H   0  0  0  0  0  0  0  0  0  0  0  0
   -4.6954    2.8349   -1.9893 H   0  0  0  0  0  0  0  0  0  0  0  0
   -4.7479    1.2763   -2.8196 H   0  0  0  0  0  0  0  0  0  0  0  0
   -6.2362    2.0544   -2.3094 H   0  0  0  0  0  0  0  0  0  0  0  0
   -1.1797   -1.4793    2.4478 H   0  0  0  0  0  0  0  0  0  0  0  0
   -2.0584   -2.7942    1.6562 H   0  0  0  0  0  0  0  0  0  0  0  0
   -7.5325    0.5278   -1.6962 H   0  0  0  0  0  0  0  0  0  0  0  0
   -6.9532    3.1515   -0.5357 H   0  0  0  0  0  0  0  0  0  0  0  0
   -1.0335   -3.4228   -0.5234 H   0  0  0  0  0  0  0  0  0  0  0  0
    2.7874    2.1555   -0.2826 H   0  0  0  0  0  0  0  0  0  0  0  0
    0.5559   -4.9211   -1.1892 H   0  0  0  0  0  0  0  0  0  0  0  0
    1.6349   -4.4247    0.1262 H   0  0  0  0  0  0  0  0  0  0  0  0
    2.8634   -1.8768   -3.0272 H   0  0  0  0  0  0  0  0  0  0  0  0
    6.7132    3.5924    0.4589 H   0  0  0  0  0  0  0  0  0  0  0  0
    8.0074   -0.3281   -0.7328 H   0  0  0  0  0  0  0  0  0  0  0  0
    8.5239    2.0488   -0.2444 H   0  0  0  0  0  0  0  0  0  0  0  0
  1 23  1  0  0  0  0
  1 26  1  0  0  0  0
  2 31  1  0  0  0  0
  3 32  1  0  0  0  0
  4 16  1  0  0  0  0
  4 56  1  0  0  0  0
  5 21  1  0  0  0  0
  5 57  1  0  0  0  0
  6 25  2  0  0  0  0
  7 28  2  0  0  0  0
  8 20  1  0  0  0  0
  8 26  2  0  0  0  0
  9 25  1  0  0  0  0
  9 27  1  0  0  0  0
  9 58  1  0  0  0  0
 10 26  1  0  0  0  0
 10 28  1  0  0  0  0
 10 59  1  0  0  0  0
 11 12  1  0  0  0  0
 11 14  1  0  0  0  0
 11 15  1  0  0  0  0
 11 19  1  0  0  0  0
 12 13  1  0  0  0  0
 12 17  1  0  0  0  0
 12 37  1  0  0  0  0
 13 16  1  0  0  0  0
 13 21  1  0  0  0  0
 13 22  1  0  0  0  0
 14 20  1  0  0  0  0
 14 24  1  0  0  0  0
 14 38  1  0  0  0  0
 15 18  1  0  0  0  0
 15 39  1  0  0  0  0
 15 40  1  0  0  0  0
 16 18  1  0  0  0  0
 16 41  1  0  0  0  0
 17 23  1  0  0  0  0
 17 42  1  0  0  0  0
 17 43  1  0  0  0  0
 18 44  1  0  0  0  0
 18 45  1  0  0  0  0
 19 46  1  0  0  0  0
 19 47  1  0  0  0  0
 19 48  1  0  0  0  0
 20 23  2  0  0  0  0
 21 49  1  0  0  0  0
 21 50  1  0  0  0  0
 22 51  1  0  0  0  0
 22 52  1  0  0  0  0
 22 53  1  0  0  0  0
 24 25  1  0  0  0  0
 24 54  1  0  0  0  0
 24 55  1  0  0  0  0
 27 30  1  0  0  0  0
 27 60  1  0  0  0  0
 27 61  1  0  0  0  0
 28 29  1  0  0  0  0
 29 31  2  0  0  0  0
 29 32  1  0  0  0  0
 30 33  3  0  0  0  0
 31 34  1  0  0  0  0
 32 35  2  0  0  0  0
 33 62  1  0  0  0  0
 34 36  2  0  0  0  0
 34 63  1  0  0  0  0
 35 36  1  0  0  0  0
 35 64  1  0  0  0  0
 36 65  1  0  0  0  0
M  END
> <PUBCHEM_COMPOUND_CID>
11883053

> <PUBCHEM_CONFORMER_RMSD>
1

> <PUBCHEM_CONFORMER_DIVERSEORDER>
1
14
24
22
17
4
19
16
10
21
23
5
2
18
12
11
15
8
13
20
7
9
6
3

> <PUBCHEM_MMFF94_PARTIAL_CHARGES>
37
1 -0.08
10 -0.49
14 0.18
16 0.28
17 0.18
2 -0.19
20 0.05
21 0.28
23 -0.14
24 0.06
25 0.57
26 0.44
27 0.5
28 0.54
29 0.09
3 -0.19
30 -0.2
31 0.19
32 0.19
33 -0.18
34 -0.15
35 -0.15
36 -0.15
4 -0.68
5 -0.68
56 0.4
57 0.4
58 0.37
59 0.37
6 -0.57
62 0.18
63 0.15
64 0.15
65 0.15
7 -0.57
8 -0.57
9 -0.73

> <PUBCHEM_EFFECTIVE_ROTOR_COUNT>
9.2

> <PUBCHEM_PHARMACOPHORE_FEATURES>
13
1 10 donor
1 33 hydrophobe
1 4 acceptor
1 4 donor
1 5 acceptor
1 5 donor
1 6 acceptor
1 7 acceptor
1 9 donor
5 1 8 20 23 26 rings
6 11 12 13 15 16 18 rings
6 11 12 14 17 20 23 rings
6 29 31 32 34 35 36 rings

> <PUBCHEM_HEAVY_ATOM_COUNT>
36

> <PUBCHEM_ATOM_DEF_STEREO_COUNT>
5

> <PUBCHEM_ATOM_UDEF_STEREO_COUNT>
0

> <PUBCHEM_BOND_DEF_STEREO_COUNT>
0

> <PUBCHEM_BOND_UDEF_STEREO_COUNT>
0

> <PUBCHEM_ISOTOPIC_ATOM_COUNT>
0

> <PUBCHEM_COMPONENT_COUNT>
1

> <PUBCHEM_CACTVS_TAUTO_COUNT>
6

> <PUBCHEM_CONFORMER_ID>
00B5522D00000001

> <PUBCHEM_MMFF94_ENERGY>
106.9098

> <PUBCHEM_FEATURE_SELFOVERLAP>
66.117

> <PUBCHEM_SHAPE_FINGERPRINT>
10369192 42 18335135418891829493
10906281 52 18335717034567591612
11007060 377 18336267962938940747
11135609 187 18342737416321536688
11135926 11 18336822010021398909
11315181 36 18334296500558643929
11421498 54 16343430505406482610
11488393 25 17986402087887799902
11524674 6 18131069385450562374
11578080 2 16662310812281392959
13402501 40 18409732871983989286
1361 2 18343017796550630460
13811026 1 18410293631214400655
14394314 77 18336267834913932385
14725015 67 18265893554612497010
14790565 3 18334013921311095057
14856354 85 14996285846667775193
15183329 4 18040428897614500625
15849732 13 18040714805034124452
15927050 60 18261387883882949890
18608769 82 18188494700421636347
18681886 176 18262231239476611185
21033648 29 18270388512364852288
23516275 137 16773258226503290687
23559900 14 18411414055017199369
249057 3 18410857698982834580
27425 322 17458913751352369908
3298306 158 18412545410038442190
3383291 50 17895479253612534699
3411729 13 18335417924518499747
3633792 109 18342740706208502105
38695281 34 18342174479416755359
4017518 198 18201165433860601022
4073 2 18041563654302752360
4093350 32 17559959814621628815
4403749 210 17698435870169175496
5085150 59 18409167753003505502
5265222 85 18194969758488211332
59755656 215 18410012113293116446
6004065 56 18200872988719257241
6669772 16 18413673499914850279
9555976 147 13479427003101656821

> <PUBCHEM_SHAPE_MULTIPOLES>
691.74
18.42
3.91
1.41
8.43
2.84
0.21
-12.91
2.4
1.71
0.62
-0.83
0.79
2.05

> <PUBCHEM_SHAPE_SELFOVERLAP>
1474.682

> <PUBCHEM_SHAPE_VOLUME>
386.5

> <PUBCHEM_COORDINATE_TYPE>
2
5
10

$$$$
