45784324
  -OEChem-12032416203D

 40 43  0     1  0  0  0  0  0999 V2000
   -2.4233   -0.2816   -0.1039 N   0  0  1  0  0  0  0  0  0  0  0  0
    2.2463   -1.2435    0.3748 N   0  0  0  0  0  0  0  0  0  0  0  0
    1.6420    0.8719    0.0589 N   0  0  0  0  0  0  0  0  0  0  0  0
   -5.3876    1.2376   -0.0302 N   0  0  0  0  0  0  0  0  0  0  0  0
    8.2048   -0.6259   -0.2662 N   0  0  0  0  0  0  0  0  0  0  0  0
   -0.2164   -0.7794    0.5137 C   0  0  1  0  0  0  0  0  0  0  0  0
   -0.9377   -0.0954    1.6881 C   0  0  0  0  0  0  0  0  0  0  0  0
   -1.1056   -0.4984   -0.7051 C   0  0  0  0  0  0  0  0  0  0  0  0
   -2.1693    0.5537    1.0700 C   0  0  0  0  0  0  0  0  0  0  0  0
    1.2170   -0.3461    0.3098 C   0  0  0  0  0  0  0  0  0  0  0  0
   -3.3615    0.3350   -1.0301 C   0  0  0  0  0  0  0  0  0  0  0  0
    3.4132   -0.5591    0.1506 C   0  0  0  0  0  0  0  0  0  0  0  0
   -4.7884    0.1591   -0.5828 C   0  0  0  0  0  0  0  0  0  0  0  0
    3.0095    0.7589   -0.0436 C   0  0  0  0  0  0  0  0  0  0  0  0
    4.7465   -0.9673    0.1028 C   0  0  0  0  0  0  0  0  0  0  0  0
    3.9801    1.7413   -0.3022 C   0  0  0  0  0  0  0  0  0  0  0  0
   -5.4068   -1.0689   -0.7547 C   0  0  0  0  0  0  0  0  0  0  0  0
    5.6994    0.0236   -0.1557 C   0  0  0  0  0  0  0  0  0  0  0  0
    5.3251    1.3545   -0.3548 C   0  0  0  0  0  0  0  0  0  0  0  0
   -6.7252   -1.1981   -0.3322 C   0  0  0  0  0  0  0  0  0  0  0  0
   -6.6690    1.0741    0.3685 C   0  0  0  0  0  0  0  0  0  0  0  0
   -7.3755   -0.1110    0.2410 C   0  0  0  0  0  0  0  0  0  0  0  0
    7.0824   -0.3349   -0.2167 C   0  0  0  0  0  0  0  0  0  0  0  0
   -0.2286   -1.8618    0.7079 H   0  0  0  0  0  0  0  0  0  0  0  0
   -1.2396   -0.8539    2.4212 H   0  0  0  0  0  0  0  0  0  0  0  0
   -0.3180    0.6419    2.2094 H   0  0  0  0  0  0  0  0  0  0  0  0
   -0.7647    0.3902   -1.2530 H   0  0  0  0  0  0  0  0  0  0  0  0
   -1.1100   -1.3472   -1.3976 H   0  0  0  0  0  0  0  0  0  0  0  0
   -1.9385    1.5907    0.7938 H   0  0  0  0  0  0  0  0  0  0  0  0
   -3.0082    0.5571    1.7731 H   0  0  0  0  0  0  0  0  0  0  0  0
   -3.1420    1.3993   -1.1891 H   0  0  0  0  0  0  0  0  0  0  0  0
   -3.2755   -0.1336   -2.0205 H   0  0  0  0  0  0  0  0  0  0  0  0
    2.1657   -2.2354    0.5555 H   0  0  0  0  0  0  0  0  0  0  0  0
    5.0211   -2.0054    0.2598 H   0  0  0  0  0  0  0  0  0  0  0  0
    3.6993    2.7780   -0.4584 H   0  0  0  0  0  0  0  0  0  0  0  0
   -4.8913   -1.9114   -1.2033 H   0  0  0  0  0  0  0  0  0  0  0  0
    6.0773    2.1153   -0.5550 H   0  0  0  0  0  0  0  0  0  0  0  0
   -7.2449   -2.1443   -0.4494 H   0  0  0  0  0  0  0  0  0  0  0  0
   -7.1308    1.9514    0.8091 H   0  0  0  0  0  0  0  0  0  0  0  0
   -8.4030   -0.1889    0.5775 H   0  0  0  0  0  0  0  0  0  0  0  0
  1  8  1  0  0  0  0
  1  9  1  0  0  0  0
  1 11  1  0  0  0  0
  2 10  1  0  0  0  0
  2 12  1  0  0  0  0
  2 33  1  0  0  0  0
  3 10  2  0  0  0  0
  3 14  1  0  0  0  0
  4 13  1  0  0  0  0
  4 21  2  0  0  0  0
  5 23  3  0  0  0  0
  6  7  1  0  0  0  0
  6  8  1  0  0  0  0
  6 10  1  0  0  0  0
  6 24  1  0  0  0  0
  7  9  1  0  0  0  0
  7 25  1  0  0  0  0
  7 26  1  0  0  0  0
  8 27  1  0  0  0  0
  8 28  1  0  0  0  0
  9 29  1  0  0  0  0
  9 30  1  0  0  0  0
 11 13  1  0  0  0  0
 11 31  1  0  0  0  0
 11 32  1  0  0  0  0
 12 14  2  0  0  0  0
 12 15  1  0  0  0  0
 13 17  2  0  0  0  0
 14 16  1  0  0  0  0
 15 18  2  0  0  0  0
 15 34  1  0  0  0  0
 16 19  2  0  0  0  0
 16 35  1  0  0  0  0
 17 20  1  0  0  0  0
 17 36  1  0  0  0  0
 18 19  1  0  0  0  0
 18 23  1  0  0  0  0
 19 37  1  0  0  0  0
 20 22  2  0  0  0  0
 20 38  1  0  0  0  0
 21 22  1  0  0  0  0
 21 39  1  0  0  0  0
 22 40  1  0  0  0  0
M  END
> <PUBCHEM_COMPOUND_CID>
45784324

> <PUBCHEM_CONFORMER_RMSD>
0.8

> <PUBCHEM_CONFORMER_DIVERSEORDER>
1
54
29
58
68
33
52
27
41
34
53
55
69
30
63
61
50
17
19
56
11
48
45
35
28
64
15
40
16
51
37
60
14
38
65
39
49
44
9
43
47
23
7
70
57
42
31
66
2
5
67
13
62
20
3
59
6
36
46
10
4
32
24
18
21
12
8
26
22
25

> <PUBCHEM_MMFF94_PARTIAL_CHARGES>
30
1 -0.81
10 0.01
11 0.41
12 -0.15
13 0.17
14 0.23
15 -0.15
16 -0.15
17 -0.15
18 0.07
19 -0.15
2 0.03
20 -0.15
21 0.16
22 -0.15
23 0.48
3 -0.57
33 0.27
34 0.15
35 0.15
36 0.15
37 0.15
38 0.15
39 0.15
4 -0.62
40 0.15
5 -0.56
6 0.18
8 0.27
9 0.27

> <PUBCHEM_EFFECTIVE_ROTOR_COUNT>
4

> <PUBCHEM_PHARMACOPHORE_FEATURES>
9
1 1 cation
1 2 donor
1 4 acceptor
1 5 acceptor
3 2 3 10 cation
5 1 6 7 8 9 rings
5 2 3 10 12 14 rings
6 12 14 15 16 18 19 rings
6 4 13 17 20 21 22 rings

> <PUBCHEM_HEAVY_ATOM_COUNT>
23

> <PUBCHEM_ATOM_DEF_STEREO_COUNT>
1

> <PUBCHEM_ATOM_UDEF_STEREO_COUNT>
0

> <PUBCHEM_BOND_DEF_STEREO_COUNT>
0

> <PUBCHEM_BOND_UDEF_STEREO_COUNT>
0

> <PUBCHEM_ISOTOPIC_ATOM_COUNT>
0

> <PUBCHEM_COMPONENT_COUNT>
1

> <PUBCHEM_CACTVS_TAUTO_COUNT>
2

> <PUBCHEM_CONFORMER_ID>
02BA9D0400000001

> <PUBCHEM_MMFF94_ENERGY>
44.7358

> <PUBCHEM_FEATURE_SELFOVERLAP>
45.779

> <PUBCHEM_SHAPE_FINGERPRINT>
10 15 13334739041669309020
10066227 49 17774448170718461566
10299344 5 18342738529366769655
10595046 47 18410290303236725201
106641 1 12540703625631843549
11315181 36 16487256586554250419
11408170 108 17702669831808245470
11524674 6 15841831179565146415
11646440 116 16950287299604217525
11719270 70 17775003466855473422
12091667 2 18410012135553741443
12166972 35 18408604781412542164
12236239 1 18202001036019921181
12643181 29 14836399242117163645
12730499 353 17821729420663398778
12788726 201 17203332161416695819
12838862 33 12391226055086429644
13533116 47 17023454262340698242
13668630 136 18060423504234288206
14170010 4 18334011714188203572
14251752 14 17775567533304627569
14251764 18 17675922084550740722
14251764 46 17917992776013376271
14294032 229 17273153301358991577
14856354 85 17989209279023356367
14933364 13 18409730660223687421
15183329 4 18408317778938690579
15537594 2 16128654146162232359
15849732 13 17988923375260201780
17093844 174 13470689248699013335
18006028 8 12895352192240593299
18335252 98 18410017641602107931
20238998 120 13110964218997928266
20567600 254 16081363060024443419
21033648 29 17604711213662301056
21095086 128 18410291432850508639
21150785 3 18411420614032912670
21267235 1 18412266129700141084
21315763 28 18412544327358387477
21792961 116 17703509913976781339
221357 26 18334009489057755180
22224240 67 9799688191185516972
23035841 295 17632578266768732455
23198884 109 18409167723381878473
23536379 177 18412825781187101345
23569943 247 17315060065732880635
23622692 88 14345797162214227998
29717793 49 17917999373768951828
3004659 81 18343299271400766480
314173 85 14405187283352824155
335352 9 18333455348888976710
347723 3 17418093221707128643
3545911 37 17822009813223623010
4073 2 17895760715509339474
4325135 7 18408884045144960767
5283156 175 17346602954542527790
542803 24 18413385441163938455
59682541 35 15647062581767107441
59755656 215 17749107773234712914
59755656 520 17821723966055296491
9663363 56 15482667970915444611

> <PUBCHEM_SHAPE_MULTIPOLES>
448.42
22.14
1.3
0.95
1.07
0.23
-0.19
-0.71
3.06
-0.22
0.07
0.62
0
-0.63

> <PUBCHEM_SHAPE_SELFOVERLAP>
985.068

> <PUBCHEM_SHAPE_VOLUME>
240

> <PUBCHEM_COORDINATE_TYPE>
2
5
10

$$$$
