45360649
  -OEChem-12032416333D

 59 62  0     1  0  0  0  0  0999 V2000
   -4.8611   -3.8201    0.3269 F   0  0  0  0  0  0  0  0  0  0  0  0
   -0.1419   -2.0980    2.7879 O   0  0  0  0  0  0  0  0  0  0  0  0
   -4.0059    2.9502   -0.4414 O   0  0  0  0  0  0  0  0  0  0  0  0
   -0.3121    0.8859    0.6924 N   0  0  1  0  0  0  0  0  0  0  0  0
   -0.8763   -0.0055    3.2925 N   0  0  0  0  0  0  0  0  0  0  0  0
    3.2185    0.3397    0.0824 N   0  0  0  0  0  0  0  0  0  0  0  0
   -2.6420    1.6841   -1.8290 N   0  0  0  0  0  0  0  0  0  0  0  0
    5.9278   -1.5587   -0.3689 N   0  0  0  0  0  0  0  0  0  0  0  0
   -0.2437   -0.5583    0.9491 C   0  0  1  0  0  0  0  0  0  0  0  0
    1.7736    0.3186   -0.0795 C   0  0  1  0  0  0  0  0  0  0  0  0
   -1.3174    1.5891    1.4814 C   0  0  1  0  0  0  0  0  0  0  0  0
    1.1337   -0.9797    0.4132 C   0  0  0  0  0  0  0  0  0  0  0  0
    1.0570    1.3950    0.7242 C   0  0  0  0  0  0  0  0  0  0  0  0
   -1.0751    1.3883    2.9691 C   0  0  0  0  0  0  0  0  0  0  0  0
   -0.3920   -0.9472    2.4172 C   0  0  0  0  0  0  0  0  0  0  0  0
   -1.4092    3.0760    1.1359 C   0  0  0  0  0  0  0  0  0  0  0  0
   -1.6091    3.2827   -0.3592 C   0  0  0  0  0  0  0  0  0  0  0  0
    3.8752   -0.4120   -0.9797 C   0  0  0  0  0  0  0  0  0  0  0  0
   -2.8924    2.6433   -0.8586 C   0  0  0  0  0  0  0  0  0  0  0  0
    5.3685   -0.4156   -0.8250 C   0  0  0  0  0  0  0  0  0  0  0  0
    6.0870    0.7239   -1.1495 C   0  0  0  0  0  0  0  0  0  0  0  0
   -3.7001    0.9321   -2.4607 C   0  0  0  0  0  0  0  0  0  0  0  0
    7.4684    0.6877   -0.9962 C   0  0  0  0  0  0  0  0  0  0  0  0
    7.2728   -1.5564   -0.2328 C   0  0  0  0  0  0  0  0  0  0  0  0
   -4.0099   -0.3350   -1.7173 C   0  0  0  0  0  0  0  0  0  0  0  0
    8.0805   -0.4704   -0.5298 C   0  0  0  0  0  0  0  0  0  0  0  0
   -3.3365   -1.5138   -2.0380 C   0  0  0  0  0  0  0  0  0  0  0  0
   -4.9707   -0.3337   -0.7062 C   0  0  0  0  0  0  0  0  0  0  0  0
   -3.6241   -2.6912   -1.3478 C   0  0  0  0  0  0  0  0  0  0  0  0
   -5.2584   -1.5111   -0.0159 C   0  0  0  0  0  0  0  0  0  0  0  0
   -4.5851   -2.6898   -0.3367 C   0  0  0  0  0  0  0  0  0  0  0  0
   -1.0437   -1.0666    0.3985 H   0  0  0  0  0  0  0  0  0  0  0  0
    1.5103    0.4712   -1.1373 H   0  0  0  0  0  0  0  0  0  0  0  0
   -2.2883    1.1299    1.2480 H   0  0  0  0  0  0  0  0  0  0  0  0
    1.0383   -1.6942   -0.4125 H   0  0  0  0  0  0  0  0  0  0  0  0
    1.7485   -1.4502    1.1903 H   0  0  0  0  0  0  0  0  0  0  0  0
    1.1688    2.3742    0.2494 H   0  0  0  0  0  0  0  0  0  0  0  0
    1.4534    1.4542    1.7452 H   0  0  0  0  0  0  0  0  0  0  0  0
   -1.9325    1.7379    3.5544 H   0  0  0  0  0  0  0  0  0  0  0  0
   -0.1912    1.9308    3.3221 H   0  0  0  0  0  0  0  0  0  0  0  0
   -2.2507    3.5197    1.6836 H   0  0  0  0  0  0  0  0  0  0  0  0
   -0.5102    3.6145    1.4594 H   0  0  0  0  0  0  0  0  0  0  0  0
   -0.9908   -0.2828    4.2626 H   0  0  0  0  0  0  0  0  0  0  0  0
    3.5413    1.3072    0.0527 H   0  0  0  0  0  0  0  0  0  0  0  0
   -1.6993    4.3576   -0.5605 H   0  0  0  0  0  0  0  0  0  0  0  0
   -0.7440    2.9470   -0.9388 H   0  0  0  0  0  0  0  0  0  0  0  0
    3.5267   -1.4523   -0.9776 H   0  0  0  0  0  0  0  0  0  0  0  0
    3.6271    0.0019   -1.9658 H   0  0  0  0  0  0  0  0  0  0  0  0
   -1.6861    1.4702   -2.0975 H   0  0  0  0  0  0  0  0  0  0  0  0
    5.6008    1.6223   -1.5145 H   0  0  0  0  0  0  0  0  0  0  0  0
   -4.5979    1.5565   -2.5412 H   0  0  0  0  0  0  0  0  0  0  0  0
   -3.3781    0.7076   -3.4840 H   0  0  0  0  0  0  0  0  0  0  0  0
    8.0671    1.5601   -1.2402 H   0  0  0  0  0  0  0  0  0  0  0  0
    7.7012   -2.4832    0.1343 H   0  0  0  0  0  0  0  0  0  0  0  0
    9.1558   -0.5214   -0.4026 H   0  0  0  0  0  0  0  0  0  0  0  0
   -2.5836   -1.5270   -2.8215 H   0  0  0  0  0  0  0  0  0  0  0  0
   -5.5056    0.5758   -0.4474 H   0  0  0  0  0  0  0  0  0  0  0  0
   -3.0991   -3.6088   -1.5962 H   0  0  0  0  0  0  0  0  0  0  0  0
   -6.0066   -1.5106    0.7712 H   0  0  0  0  0  0  0  0  0  0  0  0
  1 31  1  0  0  0  0
  2 15  2  0  0  0  0
  3 19  2  0  0  0  0
  4  9  1  0  0  0  0
  4 11  1  0  0  0  0
  4 13  1  0  0  0  0
  5 14  1  0  0  0  0
  5 15  1  0  0  0  0
  5 43  1  0  0  0  0
  6 10  1  0  0  0  0
  6 18  1  0  0  0  0
  6 44  1  0  0  0  0
  7 19  1  0  0  0  0
  7 22  1  0  0  0  0
  7 49  1  0  0  0  0
  8 20  1  0  0  0  0
  8 24  2  0  0  0  0
  9 12  1  0  0  0  0
  9 15  1  0  0  0  0
  9 32  1  0  0  0  0
 10 12  1  0  0  0  0
 10 13  1  0  0  0  0
 10 33  1  0  0  0  0
 11 14  1  0  0  0  0
 11 16  1  0  0  0  0
 11 34  1  0  0  0  0
 12 35  1  0  0  0  0
 12 36  1  0  0  0  0
 13 37  1  0  0  0  0
 13 38  1  0  0  0  0
 14 39  1  0  0  0  0
 14 40  1  0  0  0  0
 16 17  1  0  0  0  0
 16 41  1  0  0  0  0
 16 42  1  0  0  0  0
 17 19  1  0  0  0  0
 17 45  1  0  0  0  0
 17 46  1  0  0  0  0
 18 20  1  0  0  0  0
 18 47  1  0  0  0  0
 18 48  1  0  0  0  0
 20 21  2  0  0  0  0
 21 23  1  0  0  0  0
 21 50  1  0  0  0  0
 22 25  1  0  0  0  0
 22 51  1  0  0  0  0
 22 52  1  0  0  0  0
 23 26  2  0  0  0  0
 23 53  1  0  0  0  0
 24 26  1  0  0  0  0
 24 54  1  0  0  0  0
 25 27  2  0  0  0  0
 25 28  1  0  0  0  0
 26 55  1  0  0  0  0
 27 29  1  0  0  0  0
 27 56  1  0  0  0  0
 28 30  2  0  0  0  0
 28 57  1  0  0  0  0
 29 31  2  0  0  0  0
 29 58  1  0  0  0  0
 30 31  1  0  0  0  0
 30 59  1  0  0  0  0
M  END
> <PUBCHEM_COMPOUND_CID>
45360649

> <PUBCHEM_CONFORMER_RMSD>
1

> <PUBCHEM_CONFORMER_DIVERSEORDER>
1
126
261
139
232
71
106
284
11
265
18
246
76
266
23
244
235
287
234
74
107
171
277
94
39
56
202
34
104
251
211
285
113
280
43
245
146
82
273
133
283
276
281
241
230
198
189
162
182
124
16
258
257
112
67
236
29
150
166
197
159
115
52
116
204
3
121
35
120
109
60
254
242
128
279
225
183
125
255
240
27
137
4
135
153
174
259
247
5
203
19
86
248
262
14
132
53
268
148
227
231
46
188
223
130
207
48
270
114
65
168
131
59
191
93
271
239
103
167
117
41
208
110
87
274
216
286
25
24
140
22
217
178
155
105
221
238
79
193
200
214
102
138
269
7
195
186
192
219
260
37
184
70
36
222
229
218
96
33
209
49
40
31
272
226
160
91
64
77
210
163
177
44
169
21
213
278
224
164
38
136
62
90
72
201
152
199
95
127
212
28
50
264
54
134
181
122
173
83
119
267
215
13
206
129
145
176
250
100
158
20
263
75
73
228
237
196
205
89
123
194
47
275
42
17
66
6
57
243
156
175
144
157
81
143
282
78
88
55
108
10
190
249
149
51
220
99
61
12
30
185
45
92
80
111
15
172
253
68
58
9
118
63
165
180
170
187
233
32
8
101
142
252
26
154
97
69
151
141
98
179
161
256
2
147
84
85

> <PUBCHEM_MMFF94_PARTIAL_CHARGES>
40
1 -0.19
10 0.27
11 0.27
13 0.27
14 0.3
15 0.57
17 0.06
18 0.41
19 0.57
2 -0.57
20 0.17
21 -0.15
22 0.44
23 -0.15
24 0.16
25 -0.14
26 -0.15
27 -0.15
28 -0.15
29 -0.15
3 -0.57
30 -0.15
31 0.19
4 -0.81
43 0.37
44 0.36
49 0.37
5 -0.73
50 0.15
53 0.15
54 0.15
55 0.15
56 0.15
57 0.15
58 0.15
59 0.15
6 -0.9
7 -0.73
8 -0.62
9 0.33

> <PUBCHEM_EFFECTIVE_ROTOR_COUNT>
10.2

> <PUBCHEM_PHARMACOPHORE_FEATURES>
12
1 2 acceptor
1 3 acceptor
1 4 cation
1 5 donor
1 6 cation
1 6 donor
1 7 donor
1 8 acceptor
5 4 9 10 12 13 rings
6 25 27 28 29 30 31 rings
6 4 5 9 11 14 15 rings
6 8 20 21 23 24 26 rings

> <PUBCHEM_HEAVY_ATOM_COUNT>
31

> <PUBCHEM_ATOM_DEF_STEREO_COUNT>
3

> <PUBCHEM_ATOM_UDEF_STEREO_COUNT>
0

> <PUBCHEM_BOND_DEF_STEREO_COUNT>
0

> <PUBCHEM_BOND_UDEF_STEREO_COUNT>
0

> <PUBCHEM_ISOTOPIC_ATOM_COUNT>
0

> <PUBCHEM_COMPONENT_COUNT>
1

> <PUBCHEM_CACTVS_TAUTO_COUNT>
6

> <PUBCHEM_CONFORMER_ID>
02B4260900000001

> <PUBCHEM_MMFF94_ENERGY>
63.5719

> <PUBCHEM_FEATURE_SELFOVERLAP>
61.085

> <PUBCHEM_SHAPE_FINGERPRINT>
105312 117 15936695865476903460
10554248 39 17095814218546746590
10577160 103 18263078993650053436
10577160 183 16081358649736557040
10674148 151 18202275884569177361
11488393 25 16985998427835605720
12128747 34 11169906161325366804
12422481 6 10303816510167138840
12988421 55 12396861035083945525
13773456 22 18115028632141533827
13941219 33 14045750300529200756
14114207 22 12040296175022727671
14251764 30 18270679912937026919
14932701 244 18409173198842682325
15183329 4 17095235935064095458
17492 54 14779811820122437311
17686467 74 17703783714369518408
17980427 26 15867154929133143009
20101258 96 14836117724333165978
2838139 119 15863786188745718492
3117164 225 9799400136171404206
4015057 19 18187936109823460460
4366758 6 10663833945073110275
484985 159 15697990813424762565
4938544 92 8790878584319161068
5080951 261 18059576845483266898
6086070 43 15357698639186642228
6287921 2 17475784833836516607
70634741 139 18273212019743659684
77296 10 18341331068631519046

> <PUBCHEM_SHAPE_MULTIPOLES>
594.05
16.91
3.5
2.57
39.73
0.45
1.83
-9.5
-9.62
-6.24
0.03
-2.32
0.28
0.08

> <PUBCHEM_SHAPE_SELFOVERLAP>
1263.126

> <PUBCHEM_SHAPE_VOLUME>
331.2

> <PUBCHEM_COORDINATE_TYPE>
2
5
10

$$$$
