11879647
  -OEChem-12032416123D

 68 74  0     1  0  0  0  0  0999 V2000
    0.2160   -2.6766    1.9928 O   0  0  0  0  0  0  0  0  0  0  0  0
    0.8361   -3.0543   -1.0673 O   0  0  0  0  0  0  0  0  0  0  0  0
    4.8785   -0.8672    0.1977 O   0  0  0  0  0  0  0  0  0  0  0  0
   -3.8743   -2.1223    0.7560 O   0  0  0  0  0  0  0  0  0  0  0  0
   -9.1866    0.9941   -1.3485 O   0  0  0  0  0  0  0  0  0  0  0  0
    2.6700   -0.7142    1.0540 N   0  0  0  0  0  0  0  0  0  0  0  0
   -2.1434   -2.2792   -0.7688 N   0  0  0  0  0  0  0  0  0  0  0  0
    1.9293    0.1995    1.6965 N   0  0  0  0  0  0  0  0  0  0  0  0
    3.9696    1.0047    1.2970 N   0  0  0  0  0  0  0  0  0  0  0  0
    2.7296    1.2485    1.8428 N   0  0  0  0  0  0  0  0  0  0  0  0
   -4.0723   -1.1995   -1.3935 N   0  0  0  0  0  0  0  0  0  0  0  0
    9.8049    1.6399   -0.5427 N   0  0  0  0  0  0  0  0  0  0  0  0
   11.8898    2.2914   -0.1412 N   0  0  0  0  0  0  0  0  0  0  0  0
    0.8878   -1.9305   -0.1695 C   0  0  1  0  0  0  0  0  0  0  0  0
   -0.2787   -2.0689    0.7891 C   0  0  1  0  0  0  0  0  0  0  0  0
    2.1214   -2.0280    0.7079 C   0  0  2  0  0  0  0  0  0  0  0  0
   -1.2334   -3.0055    0.0833 C   0  0  2  0  0  0  0  0  0  0  0  0
    1.6352   -2.8568    1.8918 C   0  0  0  0  0  0  0  0  0  0  0  0
   -0.2923   -3.8736   -0.7310 C   0  0  0  0  0  0  0  0  0  0  0  0
    3.9108   -0.2154    0.8151 C   0  0  0  0  0  0  0  0  0  0  0  0
   -3.4230   -1.8828   -0.3615 C   0  0  0  0  0  0  0  0  0  0  0  0
   -5.3716   -0.6407   -1.3815 C   0  0  0  0  0  0  0  0  0  0  0  0
    6.1190   -0.2356    0.0114 C   0  0  0  0  0  0  0  0  0  0  0  0
    7.1166   -0.3591    0.9784 C   0  0  0  0  0  0  0  0  0  0  0  0
    6.3533    0.5151   -1.1407 C   0  0  0  0  0  0  0  0  0  0  0  0
   -6.1642   -0.7425   -0.2382 C   0  0  0  0  0  0  0  0  0  0  0  0
   -5.8609    0.0111   -2.5135 C   0  0  0  0  0  0  0  0  0  0  0  0
    8.3487    0.2680    0.7932 C   0  0  0  0  0  0  0  0  0  0  0  0
    7.5853    1.1423   -1.3257 C   0  0  0  0  0  0  0  0  0  0  0  0
   -7.4459   -0.1925   -0.2268 C   0  0  0  0  0  0  0  0  0  0  0  0
   -7.1426    0.5611   -2.5023 C   0  0  0  0  0  0  0  0  0  0  0  0
    8.5830    1.0188   -0.3587 C   0  0  0  0  0  0  0  0  0  0  0  0
   -7.9351    0.4594   -1.3588 C   0  0  0  0  0  0  0  0  0  0  0  0
   10.1722    2.4015   -1.6162 C   0  0  0  0  0  0  0  0  0  0  0  0
   10.8679    1.6025    0.3162 C   0  0  0  0  0  0  0  0  0  0  0  0
   -9.5641    1.7276   -0.2362 C   0  0  0  0  0  0  0  0  0  0  0  0
   11.4624    2.7925   -1.3453 C   0  0  0  0  0  0  0  0  0  0  0  0
   -8.6887    2.6661    0.3104 C   0  0  0  0  0  0  0  0  0  0  0  0
  -10.8192    1.5274    0.3383 C   0  0  0  0  0  0  0  0  0  0  0  0
   -9.0685    3.4043    1.4314 C   0  0  0  0  0  0  0  0  0  0  0  0
  -11.1991    2.2655    1.4591 C   0  0  0  0  0  0  0  0  0  0  0  0
  -10.3237    3.2039    2.0057 C   0  0  0  0  0  0  0  0  0  0  0  0
    0.8350   -1.0249   -0.7824 H   0  0  0  0  0  0  0  0  0  0  0  0
   -0.7200   -1.1063    1.0667 H   0  0  0  0  0  0  0  0  0  0  0  0
    2.9343   -2.5651    0.2049 H   0  0  0  0  0  0  0  0  0  0  0  0
   -1.8168   -3.6189    0.7783 H   0  0  0  0  0  0  0  0  0  0  0  0
    1.8128   -3.9234    1.7160 H   0  0  0  0  0  0  0  0  0  0  0  0
    2.1036   -2.5830    2.8420 H   0  0  0  0  0  0  0  0  0  0  0  0
    0.0810   -4.7138   -0.1353 H   0  0  0  0  0  0  0  0  0  0  0  0
   -0.7385   -4.2715   -1.6475 H   0  0  0  0  0  0  0  0  0  0  0  0
   -1.8171   -1.9848   -1.6844 H   0  0  0  0  0  0  0  0  0  0  0  0
   -3.5556   -1.0867   -2.2620 H   0  0  0  0  0  0  0  0  0  0  0  0
    6.9396   -0.9435    1.8772 H   0  0  0  0  0  0  0  0  0  0  0  0
    5.5798    0.6136   -1.8975 H   0  0  0  0  0  0  0  0  0  0  0  0
   -5.8581   -1.2360    0.6732 H   0  0  0  0  0  0  0  0  0  0  0  0
   -5.2538    0.0973   -3.4109 H   0  0  0  0  0  0  0  0  0  0  0  0
    9.0834    0.1346    1.5798 H   0  0  0  0  0  0  0  0  0  0  0  0
    7.7076    1.7112   -2.2410 H   0  0  0  0  0  0  0  0  0  0  0  0
   -8.0507   -0.3069    0.6689 H   0  0  0  0  0  0  0  0  0  0  0  0
   -7.5186    1.0676   -3.3870 H   0  0  0  0  0  0  0  0  0  0  0  0
    9.5468    2.6201   -2.4693 H   0  0  0  0  0  0  0  0  0  0  0  0
   10.8858    1.0760    1.2601 H   0  0  0  0  0  0  0  0  0  0  0  0
   12.1054    3.4090   -1.9563 H   0  0  0  0  0  0  0  0  0  0  0  0
   -7.7139    2.8581   -0.1300 H   0  0  0  0  0  0  0  0  0  0  0  0
  -11.5047    0.7972   -0.0830 H   0  0  0  0  0  0  0  0  0  0  0  0
   -8.3891    4.1386    1.8542 H   0  0  0  0  0  0  0  0  0  0  0  0
  -12.1765    2.1098    1.9063 H   0  0  0  0  0  0  0  0  0  0  0  0
  -10.6200    3.7795    2.8777 H   0  0  0  0  0  0  0  0  0  0  0  0
  1 15  1  0  0  0  0
  1 18  1  0  0  0  0
  2 14  1  0  0  0  0
  2 19  1  0  0  0  0
  3 20  1  0  0  0  0
  3 23  1  0  0  0  0
  4 21  2  0  0  0  0
  5 33  1  0  0  0  0
  5 36  1  0  0  0  0
  6  8  1  0  0  0  0
  6 16  1  0  0  0  0
  6 20  1  0  0  0  0
  7 17  1  0  0  0  0
  7 21  1  0  0  0  0
  7 51  1  0  0  0  0
  8 10  2  0  0  0  0
  9 10  1  0  0  0  0
  9 20  2  0  0  0  0
 11 21  1  0  0  0  0
 11 22  1  0  0  0  0
 11 52  1  0  0  0  0
 12 32  1  0  0  0  0
 12 34  1  0  0  0  0
 12 35  1  0  0  0  0
 13 35  2  0  0  0  0
 13 37  1  0  0  0  0
 14 15  1  0  0  0  0
 14 16  1  0  0  0  0
 14 43  1  0  0  0  0
 15 17  1  0  0  0  0
 15 44  1  0  0  0  0
 16 18  1  0  0  0  0
 16 45  1  0  0  0  0
 17 19  1  0  0  0  0
 17 46  1  0  0  0  0
 18 47  1  0  0  0  0
 18 48  1  0  0  0  0
 19 49  1  0  0  0  0
 19 50  1  0  0  0  0
 22 26  2  0  0  0  0
 22 27  1  0  0  0  0
 23 24  2  0  0  0  0
 23 25  1  0  0  0  0
 24 28  1  0  0  0  0
 24 53  1  0  0  0  0
 25 29  2  0  0  0  0
 25 54  1  0  0  0  0
 26 30  1  0  0  0  0
 26 55  1  0  0  0  0
 27 31  2  0  0  0  0
 27 56  1  0  0  0  0
 28 32  2  0  0  0  0
 28 57  1  0  0  0  0
 29 32  1  0  0  0  0
 29 58  1  0  0  0  0
 30 33  2  0  0  0  0
 30 59  1  0  0  0  0
 31 33  1  0  0  0  0
 31 60  1  0  0  0  0
 34 37  2  0  0  0  0
 34 61  1  0  0  0  0
 35 62  1  0  0  0  0
 36 38  2  0  0  0  0
 36 39  1  0  0  0  0
 37 63  1  0  0  0  0
 38 40  1  0  0  0  0
 38 64  1  0  0  0  0
 39 41  2  0  0  0  0
 39 65  1  0  0  0  0
 40 42  2  0  0  0  0
 40 66  1  0  0  0  0
 41 42  1  0  0  0  0
 41 67  1  0  0  0  0
 42 68  1  0  0  0  0
M  END
> <PUBCHEM_COMPOUND_CID>
11879647

> <PUBCHEM_CONFORMER_RMSD>
1.2

> <PUBCHEM_CONFORMER_DIVERSEORDER>
1
169
53
14
196
44
153
98
69
22
126
94
123
112
84
39
5
136
127
79
46
165
67
17
125
151
131
200
147
80
21
106
170
139
40
37
157
73
57
175
82
49
113
19
155
28
55
197
81
42
189
158
99
77
18
133
141
103
178
114
166
142
138
161
191
51
25
48
186
62
187
36
199
140
192
176
31
96
83
100
137
194
159
58
108
181
54
4
188
104
52
171
87
184
168
120
20
3
129
119
23
32
116
105
132
185
150
9
190
146
64
174
85
92
97
180
145
162
15
144
148
110
12
102
152
109
61
143
16
117
38
95
177
24
76
63
65
7
10
163
160
107
128
101
93
78
35
115
179
156
154
130
45
134
70
183
149
6
172
193
33
89
164
91
43
50
34
182
26
135
71
124
121
66
122
75
27
29
90
74
11
195
118
198
56
59
88
13
41
30
173
111
47
86
167
8
2
60
68
72

> <PUBCHEM_MMFF94_PARTIAL_CHARGES>
59
1 -0.56
11 -0.55
12 0.33
13 -0.57
14 0.28
15 0.28
16 0.26
17 0.3
18 0.28
19 0.28
2 -0.56
20 0.25
21 0.69
22 0.12
23 0.08
24 -0.15
25 -0.15
26 -0.15
27 -0.15
28 -0.15
29 -0.15
3 -0.15
30 -0.15
31 -0.15
32 -0.02
33 0.08
34 -0.3
35 0.04
36 0.08
37 0.08
38 -0.15
39 -0.15
4 -0.57
40 -0.15
41 -0.15
42 -0.15
5 -0.17
51 0.37
52 0.37
53 0.15
54 0.15
55 0.15
56 0.15
57 0.15
58 0.15
59 0.15
6 0.31
60 0.15
61 0.15
62 0.15
63 0.15
64 0.15
65 0.15
66 0.15
67 0.15
68 0.15
7 -0.73
8 -0.42
9 -0.34

> <PUBCHEM_EFFECTIVE_ROTOR_COUNT>
11.2

> <PUBCHEM_PHARMACOPHORE_FEATURES>
15
1 1 acceptor
1 11 donor
1 2 acceptor
1 4 acceptor
1 5 acceptor
1 7 donor
3 12 13 35 cation
3 6 9 20 cation
5 1 14 15 16 18 rings
5 12 13 34 35 37 rings
5 2 14 15 17 19 rings
5 6 8 9 10 20 rings
6 22 26 27 30 31 33 rings
6 23 24 25 28 29 32 rings
6 36 38 39 40 41 42 rings

> <PUBCHEM_HEAVY_ATOM_COUNT>
42

> <PUBCHEM_ATOM_DEF_STEREO_COUNT>
4

> <PUBCHEM_ATOM_UDEF_STEREO_COUNT>
0

> <PUBCHEM_BOND_DEF_STEREO_COUNT>
0

> <PUBCHEM_BOND_UDEF_STEREO_COUNT>
0

> <PUBCHEM_ISOTOPIC_ATOM_COUNT>
0

> <PUBCHEM_COMPONENT_COUNT>
1

> <PUBCHEM_CACTVS_TAUTO_COUNT>
3

> <PUBCHEM_CONFORMER_ID>
00B544DF00000001

> <PUBCHEM_MMFF94_ENERGY>
126.6368

> <PUBCHEM_FEATURE_SELFOVERLAP>
76.87

> <PUBCHEM_SHAPE_FINGERPRINT>
10029044 110 18411983550489496140
10190206 1 18273498970202591816
10533779 47 15647326404464908658
10625338 86 17458622277602169333
10920273 25 18341618105822843125
10952577 141 18413107277496685655
11181472 205 18411697665373013986
11478447 62 9223228534141270297
11973864 220 18273219668923399777
1200032 147 18410851028498197779
12013929 112 17132113520504376727
12125137 17 18335143085609386845
12559415 135 18272928328780622208
131240 88 17675925400239398788
13383665 225 17703794657323488331
13947947 74 18412541041856359240
14201967 126 18410855452288580161
14400156 260 18410282602218128088
14918687 75 8070020078204949562
15145343 15 18129107728402034393
15145343 16 18187655746710042813
15247644 1 8862678893755359088
15350500 16 9151167663137734111
15685185 35 18410858746907031515
19302320 297 17167860885833835470
20156587 128 17917714566008246278
212700 22 12175617382735925860
21781055 127 18261662754386129234
21792965 326 18201443528639819441
21792965 78 11383839255158959429
21867126 195 9223228538124514003
21895431 317 9871480807390925812
22002106 203 8214136357434672029
23528940 14 8862951563415636204
23729398 52 17981326695064986231
24203241 11 11963392963989516985
24771293 8 18335979797521683727
3986486 107 17847060008098236621
4339292 15 11527951153189178603
4353968 344 10159702383401885515
44280117 145 18339359799129326695
4760202 170 17702378641599557256
54039377 194 10952052264186154530
6201320 221 13686027436166319869
636783 76 18059569252736300048
9962374 69 8430303654854386307

> <PUBCHEM_SHAPE_MULTIPOLES>
795.15
49.71
4.14
2
14.39
1.06
0.27
-68.7
5.31
-2.51
-0.9
-2.49
-0.39
-6.37

> <PUBCHEM_SHAPE_SELFOVERLAP>
1764.878

> <PUBCHEM_SHAPE_VOLUME>
424.6

> <PUBCHEM_COORDINATE_TYPE>
2
5
10

$$$$
