56775685
  -OEChem-12032416393D

 45 47  0     0  0  0  0  0  0999 V2000
   -1.1691   -3.6564    1.3650 O   0  0  0  0  0  0  0  0  0  0  0  0
    3.6960   -1.0771   -0.1891 O   0  0  0  0  0  0  0  0  0  0  0  0
   -1.1039   -0.8048    0.3563 N   0  0  0  0  0  0  0  0  0  0  0  0
    2.7037   -2.0333   -0.3691 N   0  0  0  0  0  0  0  0  0  0  0  0
   -3.6124    2.9996   -0.2642 N   0  0  0  0  0  0  0  0  0  0  0  0
   -0.5297   -2.1063    0.0444 C   0  0  0  0  0  0  0  0  0  0  0  0
   -0.0425   -2.7508    1.3372 C   0  0  0  0  0  0  0  0  0  0  0  0
   -1.6353   -3.1548    0.0917 C   0  0  0  0  0  0  0  0  0  0  0  0
    0.4086   -2.0703   -1.1692 C   0  0  0  0  0  0  0  0  0  0  0  0
    1.6576   -1.3585   -0.8542 C   0  0  0  0  0  0  0  0  0  0  0  0
   -1.8009   -0.2785   -0.8149 C   0  0  0  0  0  0  0  0  0  0  0  0
    1.9283    0.0131   -1.0001 C   0  0  0  0  0  0  0  0  0  0  0  0
    3.2223    0.1373   -0.5683 C   0  0  0  0  0  0  0  0  0  0  0  0
   -2.8771    0.7026   -0.4330 C   0  0  0  0  0  0  0  0  0  0  0  0
    4.1738    1.3018   -0.4395 C   0  0  0  0  0  0  0  0  0  0  0  0
    3.6327    2.4558    0.4271 C   0  0  0  0  0  0  0  0  0  0  0  0
    3.3292    2.0053    1.8583 C   0  0  0  0  0  0  0  0  0  0  0  0
    4.6450    3.6036    0.4523 C   0  0  0  0  0  0  0  0  0  0  0  0
   -4.0912    0.2681    0.0871 C   0  0  0  0  0  0  0  0  0  0  0  0
   -2.6889    2.0667   -0.5877 C   0  0  0  0  0  0  0  0  0  0  0  0
   -5.0662    1.1976    0.4316 C   0  0  0  0  0  0  0  0  0  0  0  0
   -4.7801    2.5395    0.2384 C   0  0  0  0  0  0  0  0  0  0  0  0
    0.8898   -3.3207    1.2757 H   0  0  0  0  0  0  0  0  0  0  0  0
   -0.0099   -2.1235    2.2345 H   0  0  0  0  0  0  0  0  0  0  0  0
   -2.6740   -2.8171    0.1626 H   0  0  0  0  0  0  0  0  0  0  0  0
   -1.5758   -3.9358   -0.6741 H   0  0  0  0  0  0  0  0  0  0  0  0
   -0.0645   -1.6571   -2.0664 H   0  0  0  0  0  0  0  0  0  0  0  0
    0.6592   -3.1041   -1.4481 H   0  0  0  0  0  0  0  0  0  0  0  0
   -0.4425   -0.1116    0.7039 H   0  0  0  0  0  0  0  0  0  0  0  0
   -2.2879   -1.0627   -1.4101 H   0  0  0  0  0  0  0  0  0  0  0  0
   -1.0957    0.2192   -1.4908 H   0  0  0  0  0  0  0  0  0  0  0  0
    1.2853    0.7992   -1.3667 H   0  0  0  0  0  0  0  0  0  0  0  0
    5.1259    0.9434   -0.0275 H   0  0  0  0  0  0  0  0  0  0  0  0
    4.3884    1.6718   -1.4501 H   0  0  0  0  0  0  0  0  0  0  0  0
    2.7015    2.8316   -0.0160 H   0  0  0  0  0  0  0  0  0  0  0  0
    2.9888    2.8508    2.4659 H   0  0  0  0  0  0  0  0  0  0  0  0
    2.5383    1.2491    1.8823 H   0  0  0  0  0  0  0  0  0  0  0  0
    4.2186    1.5824    2.3378 H   0  0  0  0  0  0  0  0  0  0  0  0
    4.2611    4.4481    1.0344 H   0  0  0  0  0  0  0  0  0  0  0  0
    4.8492    3.9635   -0.5617 H   0  0  0  0  0  0  0  0  0  0  0  0
    5.5944    3.2882    0.8983 H   0  0  0  0  0  0  0  0  0  0  0  0
   -4.2894   -0.7908    0.2274 H   0  0  0  0  0  0  0  0  0  0  0  0
   -1.7624    2.4687   -0.9859 H   0  0  0  0  0  0  0  0  0  0  0  0
   -6.0200    0.8818    0.8385 H   0  0  0  0  0  0  0  0  0  0  0  0
   -5.5070    3.3043    0.4913 H   0  0  0  0  0  0  0  0  0  0  0  0
  1  7  1  0  0  0  0
  1  8  1  0  0  0  0
  2  4  1  0  0  0  0
  2 13  1  0  0  0  0
  3  6  1  0  0  0  0
  3 11  1  0  0  0  0
  3 29  1  0  0  0  0
  4 10  2  0  0  0  0
  5 20  1  0  0  0  0
  5 22  2  0  0  0  0
  6  7  1  0  0  0  0
  6  8  1  0  0  0  0
  6  9  1  0  0  0  0
  7 23  1  0  0  0  0
  7 24  1  0  0  0  0
  8 25  1  0  0  0  0
  8 26  1  0  0  0  0
  9 10  1  0  0  0  0
  9 27  1  0  0  0  0
  9 28  1  0  0  0  0
 10 12  1  0  0  0  0
 11 14  1  0  0  0  0
 11 30  1  0  0  0  0
 11 31  1  0  0  0  0
 12 13  2  0  0  0  0
 12 32  1  0  0  0  0
 13 15  1  0  0  0  0
 14 19  1  0  0  0  0
 14 20  2  0  0  0  0
 15 16  1  0  0  0  0
 15 33  1  0  0  0  0
 15 34  1  0  0  0  0
 16 17  1  0  0  0  0
 16 18  1  0  0  0  0
 16 35  1  0  0  0  0
 17 36  1  0  0  0  0
 17 37  1  0  0  0  0
 17 38  1  0  0  0  0
 18 39  1  0  0  0  0
 18 40  1  0  0  0  0
 18 41  1  0  0  0  0
 19 21  2  0  0  0  0
 19 42  1  0  0  0  0
 20 43  1  0  0  0  0
 21 22  1  0  0  0  0
 21 44  1  0  0  0  0
 22 45  1  0  0  0  0
M  END
> <PUBCHEM_COMPOUND_CID>
56775685

> <PUBCHEM_CONFORMER_RMSD>
1.2

> <PUBCHEM_CONFORMER_DIVERSEORDER>
1
28
13
65
45
6
27
7
67
43
9
52
41
14
66
18
40
21
24
70
56
64
5
46
17
48
33
32
12
42
72
57
16
53
54
47
68
44
19
31
11
62
23
10
55
29
38
26
4
60
63
61
36
49
71
3
69
20
58
73
37
51
50
15
30
34
39
25
22
59
35
2
8

> <PUBCHEM_MMFF94_PARTIAL_CHARGES>
25
1 -0.52
10 0.11
11 0.41
12 -0.15
13 -0.04
14 -0.14
15 0.18
19 -0.15
2 -0.02
20 0.16
21 -0.15
22 0.16
29 0.36
3 -0.84
32 0.15
4 -0.41
42 0.15
43 0.15
44 0.15
45 0.15
5 -0.62
6 0.21
7 0.26
8 0.26
9 0.18

> <PUBCHEM_EFFECTIVE_ROTOR_COUNT>
7.8

> <PUBCHEM_PHARMACOPHORE_FEATURES>
9
1 1 acceptor
1 3 cation
1 3 donor
1 4 acceptor
1 5 acceptor
3 16 17 18 hydrophobe
4 1 6 7 8 rings
5 2 4 10 12 13 rings
6 5 14 19 20 21 22 rings

> <PUBCHEM_HEAVY_ATOM_COUNT>
22

> <PUBCHEM_ATOM_DEF_STEREO_COUNT>
0

> <PUBCHEM_ATOM_UDEF_STEREO_COUNT>
0

> <PUBCHEM_BOND_DEF_STEREO_COUNT>
0

> <PUBCHEM_BOND_UDEF_STEREO_COUNT>
0

> <PUBCHEM_ISOTOPIC_ATOM_COUNT>
0

> <PUBCHEM_COMPONENT_COUNT>
1

> <PUBCHEM_CACTVS_TAUTO_COUNT>
1

> <PUBCHEM_CONFORMER_ID>
0362540500000001

> <PUBCHEM_MMFF94_ENERGY>
44.0881

> <PUBCHEM_FEATURE_SELFOVERLAP>
45.671

> <PUBCHEM_SHAPE_FINGERPRINT>
10670039 82 17831308559998273932
11221954 11 18343020025422392204
12596602 18 15792311365550595668
12633257 1 18043786819638098824
12769317 202 18269548334661282445
12788726 201 17464552174947935570
13590594 115 16972820419993903650
13965767 371 17895465930312440044
14178342 30 18115588308881177238
14251764 38 18269263724685285504
14466204 15 17976815385758757050
14468879 13 18270397338189725258
146900 427 18267878177273982281
14787075 74 18343301483646579405
14848178 96 18342172245854484577
14955137 171 17757544162271744666
15142526 21 18409451345705249553
15295992 7 18335428923961445242
15342816 4 11887664027257819238
18681886 176 17836074581689650939
21049683 118 18188193365162351203
21401589 2 18339924917286013961
21475661 188 18339919299321214309
21524375 3 18337395924588762871
22182937 141 18340492277970218897
23227448 37 18343301487567013701
23503958 25 18052266390739975924
23558518 356 18262800795063262527
23559900 14 18342740676787516990
3187 122 17758667137278607505
345986 75 17030488757584882034
474 4 18342176609656613261
56616090 13 18201717349456904117
57091435 61 18339636721081610825
59124914 9 18193844734216470844
633830 44 18341609253335785117
7288768 16 18261669371696231433
7364860 26 17685781216407733343
7808743 9 18263649626983326524
84936 182 18195528095113662441
9981440 41 18198892785858604266

> <PUBCHEM_SHAPE_MULTIPOLES>
426.07
9.99
4.76
1.19
0.63
0.48
0.34
-12.08
0.92
0.15
1.35
-0.57
0.31
1.49

> <PUBCHEM_SHAPE_SELFOVERLAP>
892.473

> <PUBCHEM_SHAPE_VOLUME>
242.9

> <PUBCHEM_COORDINATE_TYPE>
2
5
10

$$$$
