11943556
  -OEChem-12032416253D

 41 43  0     1  0  0  0  0  0999 V2000
   -5.2826   -2.5408    0.8475 Cl  0  0  0  0  0  0  0  0  0  0  0  0
    3.0907    1.4151   -0.5496 N   0  0  2  0  0  0  0  0  0  0  0  0
   -0.6250    0.7672   -0.2961 N   0  0  0  0  0  0  0  0  0  0  0  0
    3.3511   -0.4157    1.2816 C   0  0  1  0  0  0  0  0  0  0  0  0
    1.7691    1.1214    0.0669 C   0  0  2  0  0  0  0  0  0  0  0  0
    1.8663   -0.0771    1.0365 C   0  0  0  0  0  0  0  0  0  0  0  0
    3.9905   -0.8697   -0.0489 C   0  0  2  0  0  0  0  0  0  0  0  0
    4.0570    0.8894    1.6946 C   0  0  0  0  0  0  0  0  0  0  0  0
    3.6707    0.1802   -1.1348 C   0  0  0  0  0  0  0  0  0  0  0  0
    3.9990    1.8882    0.5244 C   0  0  0  0  0  0  0  0  0  0  0  0
    0.6703    0.9199   -0.9788 C   0  0  0  0  0  0  0  0  0  0  0  0
    3.5399   -2.2132   -0.4476 C   0  0  0  0  0  0  0  0  0  0  0  0
   -1.6860    0.5642   -1.2651 C   0  0  0  0  0  0  0  0  0  0  0  0
    3.1724   -3.3089   -0.7722 C   0  0  0  0  0  0  0  0  0  0  0  0
   -3.0298    0.4156   -0.6026 C   0  0  0  0  0  0  0  0  0  0  0  0
   -3.4739   -0.8459   -0.2320 C   0  0  0  0  0  0  0  0  0  0  0  0
   -3.8052    1.5433   -0.3708 C   0  0  0  0  0  0  0  0  0  0  0  0
   -4.7185   -0.9828    0.3827 C   0  0  0  0  0  0  0  0  0  0  0  0
   -5.0497    1.4063    0.2438 C   0  0  0  0  0  0  0  0  0  0  0  0
   -5.5064    0.1434    0.6206 C   0  0  0  0  0  0  0  0  0  0  0  0
    3.4502   -1.1767    2.0636 H   0  0  0  0  0  0  0  0  0  0  0  0
    1.4816    2.0094    0.6500 H   0  0  0  0  0  0  0  0  0  0  0  0
    1.3437   -0.9609    0.6527 H   0  0  0  0  0  0  0  0  0  0  0  0
    1.3893    0.1855    1.9893 H   0  0  0  0  0  0  0  0  0  0  0  0
    5.0800   -0.9117    0.0879 H   0  0  0  0  0  0  0  0  0  0  0  0
    5.1012    0.6907    1.9626 H   0  0  0  0  0  0  0  0  0  0  0  0
    3.5688    1.3155    2.5794 H   0  0  0  0  0  0  0  0  0  0  0  0
    4.5981    0.4439   -1.6612 H   0  0  0  0  0  0  0  0  0  0  0  0
    3.0145   -0.2157   -1.9185 H   0  0  0  0  0  0  0  0  0  0  0  0
    3.6696    2.8696    0.8877 H   0  0  0  0  0  0  0  0  0  0  0  0
    5.0043    2.0503    0.1151 H   0  0  0  0  0  0  0  0  0  0  0  0
    0.8655    0.0277   -1.5842 H   0  0  0  0  0  0  0  0  0  0  0  0
    0.6383    1.7860   -1.6516 H   0  0  0  0  0  0  0  0  0  0  0  0
   -0.8132    1.6067    0.2519 H   0  0  0  0  0  0  0  0  0  0  0  0
   -1.4883   -0.3325   -1.8671 H   0  0  0  0  0  0  0  0  0  0  0  0
   -1.7294    1.4016   -1.9744 H   0  0  0  0  0  0  0  0  0  0  0  0
    2.8458   -4.2807   -1.0601 H   0  0  0  0  0  0  0  0  0  0  0  0
   -2.8562   -1.7213   -0.4172 H   0  0  0  0  0  0  0  0  0  0  0  0
   -3.4581    2.5318   -0.6584 H   0  0  0  0  0  0  0  0  0  0  0  0
   -5.6630    2.2833    0.4297 H   0  0  0  0  0  0  0  0  0  0  0  0
   -6.4782    0.0520    1.0988 H   0  0  0  0  0  0  0  0  0  0  0  0
  1 18  1  0  0  0  0
  2  5  1  0  0  0  0
  2  9  1  0  0  0  0
  2 10  1  0  0  0  0
  3 11  1  0  0  0  0
  3 13  1  0  0  0  0
  3 34  1  0  0  0  0
  4  6  1  0  0  0  0
  4  7  1  0  0  0  0
  4  8  1  0  0  0  0
  4 21  1  0  0  0  0
  5  6  1  0  0  0  0
  5 11  1  0  0  0  0
  5 22  1  0  0  0  0
  6 23  1  0  0  0  0
  6 24  1  0  0  0  0
  7  9  1  0  0  0  0
  7 12  1  0  0  0  0
  7 25  1  0  0  0  0
  8 10  1  0  0  0  0
  8 26  1  0  0  0  0
  8 27  1  0  0  0  0
  9 28  1  0  0  0  0
  9 29  1  0  0  0  0
 10 30  1  0  0  0  0
 10 31  1  0  0  0  0
 11 32  1  0  0  0  0
 11 33  1  0  0  0  0
 12 14  3  0  0  0  0
 13 15  1  0  0  0  0
 13 35  1  0  0  0  0
 13 36  1  0  0  0  0
 14 37  1  0  0  0  0
 15 16  2  0  0  0  0
 15 17  1  0  0  0  0
 16 18  1  0  0  0  0
 16 38  1  0  0  0  0
 17 19  2  0  0  0  0
 17 39  1  0  0  0  0
 18 20  2  0  0  0  0
 19 20  1  0  0  0  0
 19 40  1  0  0  0  0
 20 41  1  0  0  0  0
M  END
> <PUBCHEM_COMPOUND_CID>
11943556

> <PUBCHEM_CONFORMER_RMSD>
0.8

> <PUBCHEM_CONFORMER_DIVERSEORDER>
1
3
17
5
10
8
18
16
20
12
11
22
2
15
6
4
21
14
9
19
13
7

> <PUBCHEM_MMFF94_PARTIAL_CHARGES>
23
1 -0.18
10 0.27
11 0.27
12 -0.2
13 0.41
14 -0.18
15 -0.14
16 -0.15
17 -0.15
18 0.18
19 -0.15
2 -0.81
20 -0.15
3 -0.9
34 0.36
37 0.18
38 0.15
39 0.15
40 0.15
41 0.15
5 0.27
7 0.2
9 0.27

> <PUBCHEM_EFFECTIVE_ROTOR_COUNT>
5.2

> <PUBCHEM_PHARMACOPHORE_FEATURES>
6
1 14 hydrophobe
1 2 cation
1 3 cation
1 3 donor
6 15 16 17 18 19 20 rings
8 2 4 5 6 7 8 9 10 rings

> <PUBCHEM_HEAVY_ATOM_COUNT>
20

> <PUBCHEM_ATOM_DEF_STEREO_COUNT>
3

> <PUBCHEM_ATOM_UDEF_STEREO_COUNT>
0

> <PUBCHEM_BOND_DEF_STEREO_COUNT>
0

> <PUBCHEM_BOND_UDEF_STEREO_COUNT>
0

> <PUBCHEM_ISOTOPIC_ATOM_COUNT>
0

> <PUBCHEM_COMPONENT_COUNT>
1

> <PUBCHEM_CACTVS_TAUTO_COUNT>
1

> <PUBCHEM_CONFORMER_ID>
00B63E8400000001

> <PUBCHEM_MMFF94_ENERGY>
44.1308

> <PUBCHEM_FEATURE_SELFOVERLAP>
30.446

> <PUBCHEM_SHAPE_FINGERPRINT>
108634 29 17822300144629166298
11089746 13 10663820750057987564
11135609 201 17412731075572094536
11370993 144 18342456985565087093
11405975 8 18271247114791565081
114674 6 18335983052384837218
11552529 35 17845370123742107255
12107183 9 17695919830053624225
12596602 18 17131834317407525459
12730499 353 18341335586931475536
12778500 126 17845663525441630915
128620 24 14490192704459626573
12892183 10 18272368685255549701
13167823 11 18261111894005768961
13255334 9 18335143068170963463
13533116 47 18201439134407850171
13583140 156 17845923122013353201
13675066 3 18342733005622134605
13911882 115 18336272335268823962
13955234 65 18272083895049019626
14211702 104 17969230096058780307
14251740 57 18409736161612998870
14252887 29 18408038503122651836
14341114 176 18410862049220261513
14420673 8 18194408784003884199
15342816 4 17240197733669938204
15537594 2 17240485776057846163
17349148 13 15646770072286001921
1768 124 18194690482936390987
17844677 252 18342745108924624153
17857418 61 17749100136851100937
17959699 21 10231757777772992727
1813 80 16950288394968168597
20645477 70 18334858299233359518
21065198 57 18412263909244415989
21065199 12 18413105065588306565
21315759 148 18412269458294521115
21521721 280 18272931653327512208
21673915 165 18261954154209450635
21709351 56 7853582309056334120
22646028 1 17313098661848485373
23466295 7 16545256606741412222
23559900 14 18338240353633981607
239999 70 18186521003776344834
2838139 119 8501212220718854230
312425 54 18412833469437167571
316301 35 18189049815996286162
341906 21 13182726048686333927
3421961 26 18270115700379043822
474 4 13973964324502188413
5104073 3 18412544297472893617
5924683 9 18059284492024613919
653340 110 17841137068125755758
6823239 73 18337112267926908130
8863177 126 18410578349039418134
90127 26 17632579344568445689

> <PUBCHEM_SHAPE_MULTIPOLES>
403.5
13.73
2.59
1.26
13.16
2.29
0.18
2.52
3.02
-0.92
-0.21
-0.88
-0.04
1.65

> <PUBCHEM_SHAPE_SELFOVERLAP>
839.79

> <PUBCHEM_SHAPE_VOLUME>
229.1

> <PUBCHEM_COORDINATE_TYPE>
2
5
10

$$$$
