7156507
  -OEChem-12032416133D

 71 75  0     1  0  0  0  0  0999 V2000
   -1.1265    3.4511   -0.2591 S   0  0  0  0  0  0  0  0  0  0  0  0
   -6.2228   -2.5018   -0.7255 O   0  0  0  0  0  0  0  0  0  0  0  0
   -7.0710   -0.4983    0.2804 O   0  0  0  0  0  0  0  0  0  0  0  0
    2.3455   -0.2378    1.5746 O   0  0  0  0  0  0  0  0  0  0  0  0
    0.5638    1.5476    0.2015 N   0  0  0  0  0  0  0  0  0  0  0  0
    1.7752   -1.4799   -0.3051 N   0  0  0  0  0  0  0  0  0  0  0  0
    2.3534    6.0446    0.1600 N   0  0  0  0  0  0  0  0  0  0  0  0
   -2.4365   -0.8329    0.6481 C   0  0  2  0  0  0  0  0  0  0  0  0
   -3.3344   -0.0224   -0.3873 C   0  0  1  0  0  0  0  0  0  0  0  0
   -4.8323   -0.4879   -0.5536 C   0  0  1  0  0  0  0  0  0  0  0  0
   -0.9046   -0.4989    0.3392 C   0  0  1  0  0  0  0  0  0  0  0  0
   -2.6563   -2.3540    0.4411 C   0  0  0  0  0  0  0  0  0  0  0  0
   -4.8742   -2.0352   -0.7026 C   0  0  1  0  0  0  0  0  0  0  0  0
   -3.1727    1.5143   -0.1992 C   0  0  0  0  0  0  0  0  0  0  0  0
   -4.1211   -2.7660    0.4035 C   0  0  0  0  0  0  0  0  0  0  0  0
   -2.7529   -0.4812    2.1227 C   0  0  0  0  0  0  0  0  0  0  0  0
   -0.6980    0.9836    0.1632 C   0  0  0  0  0  0  0  0  0  0  0  0
   -5.7784   -0.0172    0.5731 C   0  0  0  0  0  0  0  0  0  0  0  0
   -5.4091    0.1185   -1.8642 C   0  0  0  0  0  0  0  0  0  0  0  0
   -1.7271    1.8659   -0.0956 C   0  0  0  0  0  0  0  0  0  0  0  0
    0.0925   -1.0896    1.3453 C   0  0  0  0  0  0  0  0  0  0  0  0
    1.5254   -0.8726    0.9169 C   0  0  0  0  0  0  0  0  0  0  0  0
    0.4587    2.8431   -0.0008 C   0  0  0  0  0  0  0  0  0  0  0  0
    1.5659    3.7696   -0.0219 C   0  0  0  0  0  0  0  0  0  0  0  0
    3.0620   -1.4343   -0.9611 C   0  0  2  0  0  0  0  0  0  0  0  0
    2.8641    3.3245   -0.2324 C   0  0  0  0  0  0  0  0  0  0  0  0
    1.3624    5.1250    0.1676 C   0  0  0  0  0  0  0  0  0  0  0  0
    2.8786   -1.4414   -2.4774 C   0  0  0  0  0  0  0  0  0  0  0  0
    3.9684   -2.5468   -0.4801 C   0  0  0  0  0  0  0  0  0  0  0  0
    3.9103    4.2404   -0.2471 C   0  0  0  0  0  0  0  0  0  0  0  0
    3.6048    5.5771   -0.0477 C   0  0  0  0  0  0  0  0  0  0  0  0
    3.4160   -3.7714   -0.1467 C   0  0  0  0  0  0  0  0  0  0  0  0
    5.3296   -2.3156   -0.3844 C   0  0  0  0  0  0  0  0  0  0  0  0
    4.2513   -4.7968    0.2966 C   0  0  0  0  0  0  0  0  0  0  0  0
    6.1647   -3.3412    0.0588 C   0  0  0  0  0  0  0  0  0  0  0  0
    5.6255   -4.5818    0.3992 C   0  0  0  0  0  0  0  0  0  0  0  0
   -2.8751   -0.2455   -1.3661 H   0  0  0  0  0  0  0  0  0  0  0  0
   -0.6994   -0.9243   -0.6533 H   0  0  0  0  0  0  0  0  0  0  0  0
   -2.1897   -2.6670   -0.5024 H   0  0  0  0  0  0  0  0  0  0  0  0
   -2.1579   -2.9266    1.2321 H   0  0  0  0  0  0  0  0  0  0  0  0
   -4.4292   -2.3119   -1.6676 H   0  0  0  0  0  0  0  0  0  0  0  0
   -3.6869    1.8530    0.7065 H   0  0  0  0  0  0  0  0  0  0  0  0
   -3.6142    2.0462   -1.0486 H   0  0  0  0  0  0  0  0  0  0  0  0
   -4.1855   -3.8481    0.2314 H   0  0  0  0  0  0  0  0  0  0  0  0
   -4.6039   -2.6052    1.3739 H   0  0  0  0  0  0  0  0  0  0  0  0
   -2.5657    0.5714    2.3529 H   0  0  0  0  0  0  0  0  0  0  0  0
   -3.7800   -0.7021    2.4026 H   0  0  0  0  0  0  0  0  0  0  0  0
   -2.1403   -1.0743    2.8107 H   0  0  0  0  0  0  0  0  0  0  0  0
   -5.5150   -0.4241    1.5453 H   0  0  0  0  0  0  0  0  0  0  0  0
   -5.8202    1.0726    0.6642 H   0  0  0  0  0  0  0  0  0  0  0  0
   -5.5653    1.1990   -1.7787 H   0  0  0  0  0  0  0  0  0  0  0  0
   -4.7274   -0.0510   -2.7060 H   0  0  0  0  0  0  0  0  0  0  0  0
   -6.3685   -0.3274   -2.1488 H   0  0  0  0  0  0  0  0  0  0  0  0
   -0.0157   -0.6211    2.3305 H   0  0  0  0  0  0  0  0  0  0  0  0
   -0.0550   -2.1671    1.4727 H   0  0  0  0  0  0  0  0  0  0  0  0
   -6.1996   -3.4636   -0.8665 H   0  0  0  0  0  0  0  0  0  0  0  0
   -7.5079    0.1456   -0.3021 H   0  0  0  0  0  0  0  0  0  0  0  0
    1.0593   -2.0684   -0.7210 H   0  0  0  0  0  0  0  0  0  0  0  0
    3.5198   -0.4756   -0.6829 H   0  0  0  0  0  0  0  0  0  0  0  0
    3.0849    2.2718   -0.3898 H   0  0  0  0  0  0  0  0  0  0  0  0
    0.3940    5.5717    0.3642 H   0  0  0  0  0  0  0  0  0  0  0  0
    2.4019   -2.3677   -2.8185 H   0  0  0  0  0  0  0  0  0  0  0  0
    2.2434   -0.6070   -2.7952 H   0  0  0  0  0  0  0  0  0  0  0  0
    3.8411   -1.3519   -2.9927 H   0  0  0  0  0  0  0  0  0  0  0  0
    4.9324    3.9183   -0.4102 H   0  0  0  0  0  0  0  0  0  0  0  0
    4.3848    6.3314   -0.0502 H   0  0  0  0  0  0  0  0  0  0  0  0
    2.3527   -3.9730   -0.2326 H   0  0  0  0  0  0  0  0  0  0  0  0
    5.7590   -1.3538   -0.6491 H   0  0  0  0  0  0  0  0  0  0  0  0
    3.8323   -5.7641    0.5581 H   0  0  0  0  0  0  0  0  0  0  0  0
    7.2350   -3.1742    0.1380 H   0  0  0  0  0  0  0  0  0  0  0  0
    6.2759   -5.3807    0.7431 H   0  0  0  0  0  0  0  0  0  0  0  0
  1 20  1  0  0  0  0
  1 23  1  0  0  0  0
  2 13  1  0  0  0  0
  2 56  1  0  0  0  0
  3 18  1  0  0  0  0
  3 57  1  0  0  0  0
  4 22  2  0  0  0  0
  5 17  1  0  0  0  0
  5 23  2  0  0  0  0
  6 22  1  0  0  0  0
  6 25  1  0  0  0  0
  6 58  1  0  0  0  0
  7 27  1  0  0  0  0
  7 31  2  0  0  0  0
  8  9  1  0  0  0  0
  8 11  1  0  0  0  0
  8 12  1  0  0  0  0
  8 16  1  0  0  0  0
  9 10  1  0  0  0  0
  9 14  1  0  0  0  0
  9 37  1  0  0  0  0
 10 13  1  0  0  0  0
 10 18  1  0  0  0  0
 10 19  1  0  0  0  0
 11 17  1  0  0  0  0
 11 21  1  0  0  0  0
 11 38  1  0  0  0  0
 12 15  1  0  0  0  0
 12 39  1  0  0  0  0
 12 40  1  0  0  0  0
 13 15  1  0  0  0  0
 13 41  1  0  0  0  0
 14 20  1  0  0  0  0
 14 42  1  0  0  0  0
 14 43  1  0  0  0  0
 15 44  1  0  0  0  0
 15 45  1  0  0  0  0
 16 46  1  0  0  0  0
 16 47  1  0  0  0  0
 16 48  1  0  0  0  0
 17 20  2  0  0  0  0
 18 49  1  0  0  0  0
 18 50  1  0  0  0  0
 19 51  1  0  0  0  0
 19 52  1  0  0  0  0
 19 53  1  0  0  0  0
 21 22  1  0  0  0  0
 21 54  1  0  0  0  0
 21 55  1  0  0  0  0
 23 24  1  0  0  0  0
 24 26  1  0  0  0  0
 24 27  2  0  0  0  0
 25 28  1  0  0  0  0
 25 29  1  0  0  0  0
 25 59  1  0  0  0  0
 26 30  2  0  0  0  0
 26 60  1  0  0  0  0
 27 61  1  0  0  0  0
 28 62  1  0  0  0  0
 28 63  1  0  0  0  0
 28 64  1  0  0  0  0
 29 32  2  0  0  0  0
 29 33  1  0  0  0  0
 30 31  1  0  0  0  0
 30 65  1  0  0  0  0
 31 66  1  0  0  0  0
 32 34  1  0  0  0  0
 32 67  1  0  0  0  0
 33 35  2  0  0  0  0
 33 68  1  0  0  0  0
 34 36  2  0  0  0  0
 34 69  1  0  0  0  0
 35 36  1  0  0  0  0
 35 70  1  0  0  0  0
 36 71  1  0  0  0  0
M  END
> <PUBCHEM_COMPOUND_CID>
7156507

> <PUBCHEM_CONFORMER_RMSD>
1

> <PUBCHEM_CONFORMER_DIVERSEORDER>
1
17
11
20
3
15
18
7
19
9
12
13
14
4
5
16
10
8
2
6

> <PUBCHEM_MMFF94_PARTIAL_CHARGES>
40
1 -0.08
11 0.18
13 0.28
14 0.18
17 0.05
18 0.28
2 -0.68
20 -0.14
21 0.06
22 0.57
23 0.33
24 0.05
25 0.44
26 -0.15
27 0.16
29 -0.14
3 -0.68
30 -0.15
31 0.16
32 -0.15
33 -0.15
34 -0.15
35 -0.15
36 -0.15
4 -0.57
5 -0.57
56 0.4
57 0.4
58 0.37
6 -0.73
60 0.15
61 0.15
65 0.15
66 0.15
67 0.15
68 0.15
69 0.15
7 -0.62
70 0.15
71 0.15

> <PUBCHEM_EFFECTIVE_ROTOR_COUNT>
8.2

> <PUBCHEM_PHARMACOPHORE_FEATURES>
13
1 2 acceptor
1 2 donor
1 3 acceptor
1 3 donor
1 4 acceptor
1 5 acceptor
1 6 donor
1 7 acceptor
5 1 5 17 20 23 rings
6 29 32 33 34 35 36 rings
6 7 24 26 27 30 31 rings
6 8 9 10 12 13 15 rings
6 8 9 11 14 17 20 rings

> <PUBCHEM_HEAVY_ATOM_COUNT>
36

> <PUBCHEM_ATOM_DEF_STEREO_COUNT>
6

> <PUBCHEM_ATOM_UDEF_STEREO_COUNT>
0

> <PUBCHEM_BOND_DEF_STEREO_COUNT>
0

> <PUBCHEM_BOND_UDEF_STEREO_COUNT>
0

> <PUBCHEM_ISOTOPIC_ATOM_COUNT>
0

> <PUBCHEM_COMPONENT_COUNT>
1

> <PUBCHEM_CACTVS_TAUTO_COUNT>
2

> <PUBCHEM_CONFORMER_ID>
006D331B00000001

> <PUBCHEM_MMFF94_ENERGY>
121.2186

> <PUBCHEM_FEATURE_SELFOVERLAP>
66.122

> <PUBCHEM_SHAPE_FINGERPRINT>
10050765 1 18339364184400847723
10319688 140 18339076120121346303
10411042 1 18266459815262568762
11135926 11 18194958771930434237
11297010 23 18120069926755781445
11411753 3 17968092071754049023
11488393 25 18337960107244985248
11763715 3 18121802546890937374
12107183 9 18199200494938794177
12788726 201 17684930193958896616
13757389 114 17620482307202314708
14394314 77 18122910832820374891
14508225 48 18266732498246026293
15021287 119 18269007397063645731
15200665 1 17401771818091975840
15400415 2 17762055845186022541
15439362 3 18337953523060230553
15664445 248 18411702101478125218
15684973 49 16750690462627273082
15775530 1 17463716511856803987
15876981 60 17974296426173720972
15890870 6 18191876824454572260
15927050 60 17909551992656291014
15968369 26 18116709810720344612
17686467 74 18199176301662569098
19311894 1 17905889171610672592
20775438 99 18120640594886998999
21033650 10 17543380171534226470
21133665 82 17903920308076285908
21927370 108 18195263121401472426
23559900 14 18410004447013980371
24771750 20 17826526749009895532
255183 313 17479752519538603065
3504750 166 17324353018627613690
376196 1 17829883583526013832
38695281 34 17835520792600180756
4015057 19 18335144176145769739
4017518 198 17832709346333370964
4280585 95 18338508621734209498
4461854 278 17111020785468995491
463206 1 18335147457675591107
504843 32 17257653846793149676
5171179 24 18410007711031168409
59755656 215 18193562396099423357
6669772 16 17981048827717301164
6673363 416 18268723715260209078
6679774 75 17977081777380212584
6700243 42 17627818335056307398
70251023 43 18409167710191119163
9961470 85 17694219273015123792

> <PUBCHEM_SHAPE_MULTIPOLES>
712.16
13.71
8.44
1.27
6.68
12.09
0.21
-17.07
2.23
-15.31
-0.19
0.38
-0.58
-0.04

> <PUBCHEM_SHAPE_SELFOVERLAP>
1529.606

> <PUBCHEM_SHAPE_VOLUME>
396.4

> <PUBCHEM_COORDINATE_TYPE>
2
5
10

$$$$
