7674728
  -OEChem-12032416213D

 56 60  0     1  0  0  0  0  0999 V2000
    0.5624    4.4891   -1.7232 F   0  0  0  0  0  0  0  0  0  0  0  0
   -5.7751    0.9485    1.5323 F   0  0  0  0  0  0  0  0  0  0  0  0
   -7.8407    0.7281    0.8539 F   0  0  0  0  0  0  0  0  0  0  0  0
   -6.4959    2.0630   -0.2347 F   0  0  0  0  0  0  0  0  0  0  0  0
   -0.4490   -1.2781    1.8227 O   0  0  0  0  0  0  0  0  0  0  0  0
    3.5124    0.7758   -1.8715 O   0  0  0  0  0  0  0  0  0  0  0  0
   -6.2072   -0.1999   -0.3976 O   0  0  0  0  0  0  0  0  0  0  0  0
    4.1074   -0.7187   -0.2081 N   0  0  0  0  0  0  0  0  0  0  0  0
    1.3763   -2.1338    0.6503 N   0  0  0  0  0  0  0  0  0  0  0  0
    3.7890    1.5648    0.2920 N   0  0  0  0  0  0  0  0  0  0  0  0
    3.7115   -2.3174    1.6807 C   0  0  2  0  0  0  0  0  0  0  0  0
    3.3401   -3.0483   -0.6350 C   0  0  2  0  0  0  0  0  0  0  0  0
    3.8996   -3.4818    0.7174 C   0  0  0  0  0  0  0  0  0  0  0  0
    2.2091   -2.0645    1.8585 C   0  0  0  0  0  0  0  0  0  0  0  0
    4.4509   -1.0595    1.1819 C   0  0  0  0  0  0  0  0  0  0  0  0
    4.1461   -1.8432   -1.1513 C   0  0  0  0  0  0  0  0  0  0  0  0
    1.8718   -2.6804   -0.5357 C   0  0  0  0  0  0  0  0  0  0  0  0
    1.0591   -2.8467   -1.5913 C   0  0  0  0  0  0  0  0  0  0  0  0
    0.0337   -1.7287    0.7823 C   0  0  0  0  0  0  0  0  0  0  0  0
    3.7733    0.5688   -0.6837 C   0  0  0  0  0  0  0  0  0  0  0  0
   -0.8422   -1.8890   -0.4310 C   0  0  0  0  0  0  0  0  0  0  0  0
   -0.3158   -2.4382   -1.5357 C   0  0  0  0  0  0  0  0  0  0  0  0
   -2.2474   -1.4466   -0.4216 C   0  0  0  0  0  0  0  0  0  0  0  0
    3.0643    2.7821    0.2850 C   0  0  0  0  0  0  0  0  0  0  0  0
   -3.2555   -2.3308   -0.0361 C   0  0  0  0  0  0  0  0  0  0  0  0
   -2.5714   -0.1429   -0.7989 C   0  0  0  0  0  0  0  0  0  0  0  0
   -4.5860   -1.9118   -0.0281 C   0  0  0  0  0  0  0  0  0  0  0  0
   -3.9018    0.2761   -0.7908 C   0  0  0  0  0  0  0  0  0  0  0  0
    2.1535    3.0391   -0.7359 C   0  0  0  0  0  0  0  0  0  0  0  0
    3.2674    3.7140    1.2990 C   0  0  0  0  0  0  0  0  0  0  0  0
   -4.9092   -0.6084   -0.4053 C   0  0  0  0  0  0  0  0  0  0  0  0
    1.4398    4.2375   -0.7428 C   0  0  0  0  0  0  0  0  0  0  0  0
    2.5538    4.9124    1.2922 C   0  0  0  0  0  0  0  0  0  0  0  0
    1.6400    5.1741    0.2714 C   0  0  0  0  0  0  0  0  0  0  0  0
   -6.5644    0.8951    0.4386 C   0  0  0  0  0  0  0  0  0  0  0  0
    4.1317   -2.5802    2.6595 H   0  0  0  0  0  0  0  0  0  0  0  0
    3.4673   -3.8796   -1.3406 H   0  0  0  0  0  0  0  0  0  0  0  0
    4.9621   -3.7393    0.6302 H   0  0  0  0  0  0  0  0  0  0  0  0
    3.3809   -4.3761    1.0849 H   0  0  0  0  0  0  0  0  0  0  0  0
    2.0380   -1.0970    2.3471 H   0  0  0  0  0  0  0  0  0  0  0  0
    1.8029   -2.8232    2.5415 H   0  0  0  0  0  0  0  0  0  0  0  0
    5.5332   -1.2359    1.1984 H   0  0  0  0  0  0  0  0  0  0  0  0
    4.2462   -0.2424    1.8751 H   0  0  0  0  0  0  0  0  0  0  0  0
    3.7845   -1.5373   -2.1390 H   0  0  0  0  0  0  0  0  0  0  0  0
    5.2011   -2.1191   -1.2720 H   0  0  0  0  0  0  0  0  0  0  0  0
    1.4209   -3.2584   -2.5277 H   0  0  0  0  0  0  0  0  0  0  0  0
   -0.9037   -2.5751   -2.4388 H   0  0  0  0  0  0  0  0  0  0  0  0
    4.4050    1.4463    1.0890 H   0  0  0  0  0  0  0  0  0  0  0  0
   -3.0195   -3.3496    0.2616 H   0  0  0  0  0  0  0  0  0  0  0  0
   -1.7973    0.5580   -1.1024 H   0  0  0  0  0  0  0  0  0  0  0  0
   -5.3665   -2.6050    0.2736 H   0  0  0  0  0  0  0  0  0  0  0  0
   -4.1400    1.2920   -1.0935 H   0  0  0  0  0  0  0  0  0  0  0  0
    1.9287    2.3394   -1.5309 H   0  0  0  0  0  0  0  0  0  0  0  0
    3.9763    3.5217    2.1000 H   0  0  0  0  0  0  0  0  0  0  0  0
    2.7095    5.6418    2.0817 H   0  0  0  0  0  0  0  0  0  0  0  0
    1.0842    6.1071    0.2658 H   0  0  0  0  0  0  0  0  0  0  0  0
  1 32  1  0  0  0  0
  2 35  1  0  0  0  0
  3 35  1  0  0  0  0
  4 35  1  0  0  0  0
  5 19  2  0  0  0  0
  6 20  2  0  0  0  0
  7 31  1  0  0  0  0
  7 35  1  0  0  0  0
  8 15  1  0  0  0  0
  8 16  1  0  0  0  0
  8 20  1  0  0  0  0
  9 14  1  0  0  0  0
  9 17  1  0  0  0  0
  9 19  1  0  0  0  0
 10 20  1  0  0  0  0
 10 24  1  0  0  0  0
 10 48  1  0  0  0  0
 11 13  1  0  0  0  0
 11 14  1  0  0  0  0
 11 15  1  0  0  0  0
 11 36  1  0  0  0  0
 12 13  1  0  0  0  0
 12 16  1  0  0  0  0
 12 17  1  0  0  0  0
 12 37  1  0  0  0  0
 13 38  1  0  0  0  0
 13 39  1  0  0  0  0
 14 40  1  0  0  0  0
 14 41  1  0  0  0  0
 15 42  1  0  0  0  0
 15 43  1  0  0  0  0
 16 44  1  0  0  0  0
 16 45  1  0  0  0  0
 17 18  2  0  0  0  0
 18 22  1  0  0  0  0
 18 46  1  0  0  0  0
 19 21  1  0  0  0  0
 21 22  2  0  0  0  0
 21 23  1  0  0  0  0
 22 47  1  0  0  0  0
 23 25  2  0  0  0  0
 23 26  1  0  0  0  0
 24 29  2  0  0  0  0
 24 30  1  0  0  0  0
 25 27  1  0  0  0  0
 25 49  1  0  0  0  0
 26 28  2  0  0  0  0
 26 50  1  0  0  0  0
 27 31  2  0  0  0  0
 27 51  1  0  0  0  0
 28 31  1  0  0  0  0
 28 52  1  0  0  0  0
 29 32  1  0  0  0  0
 29 53  1  0  0  0  0
 30 33  2  0  0  0  0
 30 54  1  0  0  0  0
 32 34  2  0  0  0  0
 33 34  1  0  0  0  0
 33 55  1  0  0  0  0
 34 56  1  0  0  0  0
M  END
> <PUBCHEM_COMPOUND_CID>
7674728

> <PUBCHEM_CONFORMER_RMSD>
1

> <PUBCHEM_CONFORMER_DIVERSEORDER>
1
39
23
35
40
22
9
31
26
8
42
37
30
20
21
15
32
16
7
11
18
4
24
29
13
27
34
43
33
10
14
6
38
28
3
19
45
44
36
17
25
2
5
12
41

> <PUBCHEM_MMFF94_PARTIAL_CHARGES>
44
1 -0.19
10 -0.55
12 0.14
14 0.3
15 0.3
16 0.3
17 -0.03
18 -0.15
19 0.62
2 -0.34
20 0.69
21 -0.01
22 -0.15
23 0.03
24 0.12
25 -0.15
26 -0.15
27 -0.15
28 -0.15
29 -0.15
3 -0.34
30 -0.15
31 0.08
32 0.19
33 -0.15
34 -0.15
35 1.3
4 -0.34
46 0.15
47 0.15
48 0.37
49 0.15
5 -0.57
50 0.15
51 0.15
52 0.15
53 0.15
54 0.15
55 0.15
56 0.15
6 -0.57
7 -0.36
8 -0.66
9 -0.47

> <PUBCHEM_EFFECTIVE_ROTOR_COUNT>
7

> <PUBCHEM_PHARMACOPHORE_FEATURES>
9
1 10 donor
1 5 acceptor
1 6 acceptor
1 7 acceptor
6 23 25 26 27 28 31 rings
6 24 29 30 32 33 34 rings
6 8 11 12 13 15 16 rings
6 9 11 12 13 14 17 rings
6 9 17 18 19 21 22 rings

> <PUBCHEM_HEAVY_ATOM_COUNT>
35

> <PUBCHEM_ATOM_DEF_STEREO_COUNT>
2

> <PUBCHEM_ATOM_UDEF_STEREO_COUNT>
0

> <PUBCHEM_BOND_DEF_STEREO_COUNT>
0

> <PUBCHEM_BOND_UDEF_STEREO_COUNT>
0

> <PUBCHEM_ISOTOPIC_ATOM_COUNT>
0

> <PUBCHEM_COMPONENT_COUNT>
1

> <PUBCHEM_CACTVS_TAUTO_COUNT>
2

> <PUBCHEM_CONFORMER_ID>
00751B6800000001

> <PUBCHEM_MMFF94_ENERGY>
106.3753

> <PUBCHEM_FEATURE_SELFOVERLAP>
47.241

> <PUBCHEM_SHAPE_FINGERPRINT>
10439779 11 18341615867564958053
10581848 197 17770742915274764016
10673678 19 18130230470926742427
10675989 125 18269557298316623592
10937287 8 17907573988839147166
11331351 85 18047736119308448234
11479125 193 18052545653581930073
11578080 2 17387155206432834202
11966995 178 18272103699370328053
12788726 201 18118685414441670466
12925494 130 18337670931913976497
13944108 23 18408611370309054220
15001296 14 18340769329616301529
15082195 135 18198602484908924871
15183329 4 13542458744689051875
15326921 28 16759148499291558848
15475509 84 17972584499433147194
21591340 35 18195530517866205176
21860390 5 18410856586032410726
22122407 14 18411427219713746003
23559900 14 18270404888527123303
24204213 163 18130212806448623152
25019877 29 8539929066291336482
3383291 50 14736194803439955874
3493558 16 18271815596810758345
376196 1 17482550090132597052
463206 1 17906721510746089676
508180 173 18268168602883292732
5109719 28 18340499932461965539
5951187 136 18130517426065309140
60111433 81 17702650189693751576

> <PUBCHEM_SHAPE_MULTIPOLES>
658.64
13.5
6.82
1.59
31.27
9.93
-0.14
2.97
-2.69
-9.07
-0.07
-1.03
-0.22
-0.55

> <PUBCHEM_SHAPE_SELFOVERLAP>
1451.823

> <PUBCHEM_SHAPE_VOLUME>
352

> <PUBCHEM_COORDINATE_TYPE>
2
5
10

$$$$
