45783467
  -OEChem-12032416263D

 58 61  0     1  0  0  0  0  0999 V2000
    1.8975    2.8972    1.1686 S   0  0  0  0  0  0  0  0  0  0  0  0
   -2.8956   -1.2340    1.8643 O   0  0  0  0  0  0  0  0  0  0  0  0
    2.8396    3.0442    0.0676 O   0  0  0  0  0  0  0  0  0  0  0  0
    1.7527    3.9686    2.1437 O   0  0  0  0  0  0  0  0  0  0  0  0
    3.3204   -2.0646   -1.1096 O   0  0  0  0  0  0  0  0  0  0  0  0
    5.0500   -0.0202   -1.9318 O   0  0  0  0  0  0  0  0  0  0  0  0
   -3.7305    0.2594   -1.3881 N   0  0  1  0  0  0  0  0  0  0  0  0
   -1.5588   -1.1810    0.0680 N   0  0  0  0  0  0  0  0  0  0  0  0
   -1.6244   -1.6135    2.3136 N   0  0  0  0  0  0  0  0  0  0  0  0
    1.0444   -2.2330    2.3633 N   0  0  0  0  0  0  0  0  0  0  0  0
   -4.0227   -0.5654   -0.1987 C   0  0  1  0  0  0  0  0  0  0  0  0
   -4.8366   -1.7558   -0.7385 C   0  0  0  0  0  0  0  0  0  0  0  0
   -5.0029   -1.4819   -2.2265 C   0  0  0  0  0  0  0  0  0  0  0  0
   -4.8187    0.0183   -2.3358 C   0  0  0  0  0  0  0  0  0  0  0  0
   -3.5745    1.6753   -1.0811 C   0  0  0  0  0  0  0  0  0  0  0  0
   -2.7690   -0.9978    0.5322 C   0  0  0  0  0  0  0  0  0  0  0  0
   -2.2107    1.9807   -0.5209 C   0  0  0  0  0  0  0  0  0  0  0  0
   -2.0892    2.5610    0.7417 C   0  0  0  0  0  0  0  0  0  0  0  0
   -1.0686    1.6829   -1.2644 C   0  0  0  0  0  0  0  0  0  0  0  0
   -0.8919   -1.5579    1.1972 C   0  0  0  0  0  0  0  0  0  0  0  0
   -0.8259    2.8438    1.2606 C   0  0  0  0  0  0  0  0  0  0  0  0
    0.1948    1.9658   -0.7455 C   0  0  0  0  0  0  0  0  0  0  0  0
    0.3162    2.5462    0.5170 C   0  0  0  0  0  0  0  0  0  0  0  0
    0.5071   -1.8741    1.1758 C   0  0  0  0  0  0  0  0  0  0  0  0
    2.3530    1.4181    2.0453 C   0  0  0  0  0  0  0  0  0  0  0  0
    1.2219   -1.8024   -0.0091 C   0  0  0  0  0  0  0  0  0  0  0  0
    2.5753   -2.1194    0.0272 C   0  0  0  0  0  0  0  0  0  0  0  0
    2.3625   -2.5339    2.3595 C   0  0  0  0  0  0  0  0  0  0  0  0
    3.1642   -2.4931    1.2301 C   0  0  0  0  0  0  0  0  0  0  0  0
    2.9272   -1.1142   -2.0991 C   0  0  0  0  0  0  0  0  0  0  0  0
    4.1582   -0.6424   -2.8488 C   0  0  0  0  0  0  0  0  0  0  0  0
    6.2352    0.4232   -2.5779 C   0  0  0  0  0  0  0  0  0  0  0  0
   -4.6636   -0.0178    0.5067 H   0  0  0  0  0  0  0  0  0  0  0  0
   -4.3611   -2.7286   -0.5728 H   0  0  0  0  0  0  0  0  0  0  0  0
   -5.8221   -1.7769   -0.2574 H   0  0  0  0  0  0  0  0  0  0  0  0
   -5.9752   -1.8139   -2.6022 H   0  0  0  0  0  0  0  0  0  0  0  0
   -4.2217   -2.0056   -2.7914 H   0  0  0  0  0  0  0  0  0  0  0  0
   -5.7392    0.5372   -2.0395 H   0  0  0  0  0  0  0  0  0  0  0  0
   -4.5527    0.3175   -3.3543 H   0  0  0  0  0  0  0  0  0  0  0  0
   -4.3724    2.0385   -0.4201 H   0  0  0  0  0  0  0  0  0  0  0  0
   -3.6634    2.2685   -2.0022 H   0  0  0  0  0  0  0  0  0  0  0  0
   -2.9702    2.7946    1.3335 H   0  0  0  0  0  0  0  0  0  0  0  0
   -1.1470    1.2345   -2.2513 H   0  0  0  0  0  0  0  0  0  0  0  0
   -0.7549    3.2878    2.2495 H   0  0  0  0  0  0  0  0  0  0  0  0
    1.0704    1.7259   -1.3410 H   0  0  0  0  0  0  0  0  0  0  0  0
    2.4580    0.6088    1.3247 H   0  0  0  0  0  0  0  0  0  0  0  0
    1.5863    1.1901    2.7877 H   0  0  0  0  0  0  0  0  0  0  0  0
    3.3096    1.5987    2.5401 H   0  0  0  0  0  0  0  0  0  0  0  0
    0.7259   -1.5352   -0.9360 H   0  0  0  0  0  0  0  0  0  0  0  0
    2.7735   -2.8184    3.3225 H   0  0  0  0  0  0  0  0  0  0  0  0
    4.2174   -2.7448    1.2879 H   0  0  0  0  0  0  0  0  0  0  0  0
    2.4700   -0.2312   -1.6367 H   0  0  0  0  0  0  0  0  0  0  0  0
    2.2201   -1.5829   -2.7919 H   0  0  0  0  0  0  0  0  0  0  0  0
    4.6630   -1.5007   -3.3074 H   0  0  0  0  0  0  0  0  0  0  0  0
    3.8712    0.0697   -3.6303 H   0  0  0  0  0  0  0  0  0  0  0  0
    6.7727   -0.4228   -3.0169 H   0  0  0  0  0  0  0  0  0  0  0  0
    5.9981    1.1614   -3.3501 H   0  0  0  0  0  0  0  0  0  0  0  0
    6.8786    0.8949   -1.8304 H   0  0  0  0  0  0  0  0  0  0  0  0
  1  3  2  0  0  0  0
  1  4  2  0  0  0  0
  1 23  1  0  0  0  0
  1 25  1  0  0  0  0
  2  9  1  0  0  0  0
  2 16  1  0  0  0  0
  5 27  1  0  0  0  0
  5 30  1  0  0  0  0
  6 31  1  0  0  0  0
  6 32  1  0  0  0  0
  7 11  1  0  0  0  0
  7 14  1  0  0  0  0
  7 15  1  0  0  0  0
  8 16  2  0  0  0  0
  8 20  1  0  0  0  0
  9 20  2  0  0  0  0
 10 24  2  0  0  0  0
 10 28  1  0  0  0  0
 11 12  1  0  0  0  0
 11 16  1  0  0  0  0
 11 33  1  0  0  0  0
 12 13  1  0  0  0  0
 12 34  1  0  0  0  0
 12 35  1  0  0  0  0
 13 14  1  0  0  0  0
 13 36  1  0  0  0  0
 13 37  1  0  0  0  0
 14 38  1  0  0  0  0
 14 39  1  0  0  0  0
 15 17  1  0  0  0  0
 15 40  1  0  0  0  0
 15 41  1  0  0  0  0
 17 18  2  0  0  0  0
 17 19  1  0  0  0  0
 18 21  1  0  0  0  0
 18 42  1  0  0  0  0
 19 22  2  0  0  0  0
 19 43  1  0  0  0  0
 20 24  1  0  0  0  0
 21 23  2  0  0  0  0
 21 44  1  0  0  0  0
 22 23  1  0  0  0  0
 22 45  1  0  0  0  0
 24 26  1  0  0  0  0
 25 46  1  0  0  0  0
 25 47  1  0  0  0  0
 25 48  1  0  0  0  0
 26 27  2  0  0  0  0
 26 49  1  0  0  0  0
 27 29  1  0  0  0  0
 28 29  2  0  0  0  0
 28 50  1  0  0  0  0
 29 51  1  0  0  0  0
 30 31  1  0  0  0  0
 30 52  1  0  0  0  0
 30 53  1  0  0  0  0
 31 54  1  0  0  0  0
 31 55  1  0  0  0  0
 32 56  1  0  0  0  0
 32 57  1  0  0  0  0
 32 58  1  0  0  0  0
M  END
> <PUBCHEM_COMPOUND_CID>
45783467

> <PUBCHEM_CONFORMER_RMSD>
1

> <PUBCHEM_CONFORMER_DIVERSEORDER>
1
31
61
105
132
144
139
80
17
71
85
140
117
75
96
36
37
93
35
44
99
158
97
52
92
21
40
60
130
76
59
102
48
6
98
110
29
12
46
68
118
119
66
154
100
73
88
78
166
3
146
63
160
39
128
107
156
142
32
69
90
162
91
134
14
56
150
116
129
89
58
167
155
82
81
24
145
149
122
131
72
86
7
106
18
147
51
136
23
74
95
4
9
120
57
45
109
54
101
113
148
121
135
124
125
126
169
42
22
127
34
65
55
53
157
5
38
108
77
83
27
13
143
161
28
64
103
112
70
111
8
164
138
2
94
104
67
123
79
114
49
25
115
41
62
87
84
137
10
20
159
151
163
16
43
15
26
19
152
47
11
168
133
50
141
33
30
165
153

> <PUBCHEM_MMFF94_PARTIAL_CHARGES>
37
1 1.2
10 -0.62
11 0.45
14 0.27
15 0.41
16 0.3
17 -0.14
18 -0.15
19 -0.15
2 -0.02
20 0.46
21 -0.15
22 -0.15
23 -0.01
24 0.36
25 0.11
26 -0.15
27 0.08
28 0.16
29 -0.15
3 -0.65
30 0.28
31 0.28
32 0.28
4 -0.65
42 0.15
43 0.15
44 0.15
45 0.15
49 0.15
5 -0.36
50 0.15
51 0.15
6 -0.56
7 -0.81
8 -0.57
9 -0.41

> <PUBCHEM_EFFECTIVE_ROTOR_COUNT>
10

> <PUBCHEM_PHARMACOPHORE_FEATURES>
11
1 10 acceptor
1 3 acceptor
1 4 acceptor
1 5 acceptor
1 6 acceptor
1 7 cation
3 8 9 20 cation
5 2 8 9 16 20 rings
5 7 11 12 13 14 rings
6 10 24 26 27 28 29 rings
6 17 18 19 21 22 23 rings

> <PUBCHEM_HEAVY_ATOM_COUNT>
32

> <PUBCHEM_ATOM_DEF_STEREO_COUNT>
1

> <PUBCHEM_ATOM_UDEF_STEREO_COUNT>
0

> <PUBCHEM_BOND_DEF_STEREO_COUNT>
0

> <PUBCHEM_BOND_UDEF_STEREO_COUNT>
0

> <PUBCHEM_ISOTOPIC_ATOM_COUNT>
0

> <PUBCHEM_COMPONENT_COUNT>
1

> <PUBCHEM_CACTVS_TAUTO_COUNT>
1

> <PUBCHEM_CONFORMER_ID>
02BA99AB00000001

> <PUBCHEM_MMFF94_ENERGY>
66.1798

> <PUBCHEM_FEATURE_SELFOVERLAP>
55.845

> <PUBCHEM_SHAPE_FINGERPRINT>
1100329 8 18051389800921453929
11524674 6 17623825213429929024
12156800 1 14495205240710909100
12166972 35 17315900084110832146
12596599 1 17843386411249159817
12788726 201 17981898436288116400
13165053 68 12901832791801327033
13383661 66 17048800517601038839
13617811 41 17530960268564816709
14931854 50 18261401026677216670
19319366 153 17610908885623991201
20028762 73 16972223948628053807
20691752 17 17604972742546982505
20764821 26 18263919943481430832
20905425 154 18265590213492591065
22182313 1 17968648445785596763
23559900 14 17677033664720698667
238918 7 17905315578638335689
3298306 158 18047729762513451401
469060 322 16374714991002205978
513532 50 17987221399557751260
57527295 17 18408600362391731279
59755656 215 17757522503705907159
6823239 73 17988633065329969764
70251023 43 18059861679176994567

> <PUBCHEM_SHAPE_MULTIPOLES>
613.12
9.8
4.29
2.98
0.49
2.96
-0.69
-3.45
-9.68
1.88
2.64
2.53
-0.84
-0.01

> <PUBCHEM_SHAPE_SELFOVERLAP>
1297.52

> <PUBCHEM_SHAPE_VOLUME>
347.3

> <PUBCHEM_COORDINATE_TYPE>
2
5
10

$$$$
