11912401
  -OEChem-12032416113D

 57 58  0     1  0  0  0  0  0999 V2000
    6.9032   -1.5670   -1.8892 F   0  0  0  0  0  0  0  0  0  0  0  0
    4.9395   -1.2029   -2.7349 F   0  0  0  0  0  0  0  0  0  0  0  0
    6.2258    0.4728   -2.2193 F   0  0  0  0  0  0  0  0  0  0  0  0
   -4.7257    2.3967   -0.4380 O   0  0  0  0  0  0  0  0  0  0  0  0
    2.2490    2.2591   -0.5027 O   0  0  0  0  0  0  0  0  0  0  0  0
    0.3565    1.8765    0.7681 N   0  0  0  0  0  0  0  0  0  0  0  0
   -5.8458    0.4570   -1.0408 N   0  0  0  0  0  0  0  0  0  0  0  0
    2.4246    0.9268    1.3881 N   0  0  0  0  0  0  0  0  0  0  0  0
   -6.4836   -4.2769   -0.0720 N   0  0  0  0  0  0  0  0  0  0  0  0
   -2.4392    1.1791    0.4983 C   0  0  1  0  0  0  0  0  0  0  0  0
   -1.5095    0.4016    1.4672 C   0  0  2  0  0  0  0  0  0  0  0  0
   -1.6501    1.8323   -0.6511 C   0  0  0  0  0  0  0  0  0  0  0  0
   -0.3614    1.3175    1.9235 C   0  0  0  0  0  0  0  0  0  0  0  0
   -0.4863    2.6718   -0.1259 C   0  0  0  0  0  0  0  0  0  0  0  0
   -0.9552   -0.9049    0.8875 C   0  0  0  0  0  0  0  0  0  0  0  0
   -3.5829    0.3261   -0.0497 C   0  0  0  0  0  0  0  0  0  0  0  0
   -0.1355   -1.6554    1.9161 C   0  0  0  0  0  0  0  0  0  0  0  0
   -4.7578    1.1660   -0.5206 C   0  0  0  0  0  0  0  0  0  0  0  0
    1.7312    1.7313    0.4847 C   0  0  0  0  0  0  0  0  0  0  0  0
   -5.8608   -1.0013   -1.1284 C   0  0  0  0  0  0  0  0  0  0  0  0
   -7.0464    1.1202   -1.5347 C   0  0  0  0  0  0  0  0  0  0  0  0
    3.5625    0.1240    1.1267 C   0  0  0  0  0  0  0  0  0  0  0  0
   -6.4352   -1.6539    0.1230 C   0  0  0  0  0  0  0  0  0  0  0  0
    4.1080    0.0827   -0.1564 C   0  0  0  0  0  0  0  0  0  0  0  0
    4.1373   -0.6252    2.1534 C   0  0  0  0  0  0  0  0  0  0  0  0
    5.2282   -0.7081   -0.4127 C   0  0  0  0  0  0  0  0  0  0  0  0
    5.2575   -1.4158    1.8971 C   0  0  0  0  0  0  0  0  0  0  0  0
   -6.4619   -3.1199    0.0131 C   0  0  0  0  0  0  0  0  0  0  0  0
    5.8029   -1.4572    0.6139 C   0  0  0  0  0  0  0  0  0  0  0  0
    5.8112   -0.7528   -1.7844 C   0  0  0  0  0  0  0  0  0  0  0  0
   -2.8706    1.9956    1.0961 H   0  0  0  0  0  0  0  0  0  0  0  0
   -2.1030    0.1464    2.3563 H   0  0  0  0  0  0  0  0  0  0  0  0
   -1.2569    1.0561   -1.3198 H   0  0  0  0  0  0  0  0  0  0  0  0
   -2.2983    2.4714   -1.2601 H   0  0  0  0  0  0  0  0  0  0  0  0
    0.2850    0.8207    2.6430 H   0  0  0  0  0  0  0  0  0  0  0  0
   -0.7802    2.1755    2.4665 H   0  0  0  0  0  0  0  0  0  0  0  0
   -0.8579    3.5308    0.4451 H   0  0  0  0  0  0  0  0  0  0  0  0
    0.0909    3.0657   -0.9680 H   0  0  0  0  0  0  0  0  0  0  0  0
   -0.3458   -0.7264   -0.0050 H   0  0  0  0  0  0  0  0  0  0  0  0
   -1.7820   -1.5548    0.5801 H   0  0  0  0  0  0  0  0  0  0  0  0
   -3.9408   -0.3368    0.7432 H   0  0  0  0  0  0  0  0  0  0  0  0
   -3.2111   -0.2779   -0.8833 H   0  0  0  0  0  0  0  0  0  0  0  0
   -0.6741   -1.7584    2.8637 H   0  0  0  0  0  0  0  0  0  0  0  0
    0.0770   -2.6654    1.5483 H   0  0  0  0  0  0  0  0  0  0  0  0
    0.8306   -1.1890    2.1122 H   0  0  0  0  0  0  0  0  0  0  0  0
    2.0960    0.8816    2.3455 H   0  0  0  0  0  0  0  0  0  0  0  0
   -6.4569   -1.2829   -2.0066 H   0  0  0  0  0  0  0  0  0  0  0  0
   -4.8596   -1.3917   -1.3287 H   0  0  0  0  0  0  0  0  0  0  0  0
   -7.9148    0.7544   -0.9801 H   0  0  0  0  0  0  0  0  0  0  0  0
   -6.9749    2.2035   -1.4081 H   0  0  0  0  0  0  0  0  0  0  0  0
   -7.1638    0.8955   -2.5988 H   0  0  0  0  0  0  0  0  0  0  0  0
   -7.4562   -1.2915    0.2932 H   0  0  0  0  0  0  0  0  0  0  0  0
   -5.8626   -1.3677    1.0110 H   0  0  0  0  0  0  0  0  0  0  0  0
    3.6858    0.6217   -0.9954 H   0  0  0  0  0  0  0  0  0  0  0  0
    3.7216   -0.6025    3.1576 H   0  0  0  0  0  0  0  0  0  0  0  0
    5.7046   -1.9994    2.6965 H   0  0  0  0  0  0  0  0  0  0  0  0
    6.6753   -2.0791    0.4339 H   0  0  0  0  0  0  0  0  0  0  0  0
  1 30  1  0  0  0  0
  2 30  1  0  0  0  0
  3 30  1  0  0  0  0
  4 18  2  0  0  0  0
  5 19  2  0  0  0  0
  6 13  1  0  0  0  0
  6 14  1  0  0  0  0
  6 19  1  0  0  0  0
  7 18  1  0  0  0  0
  7 20  1  0  0  0  0
  7 21  1  0  0  0  0
  8 19  1  0  0  0  0
  8 22  1  0  0  0  0
  8 46  1  0  0  0  0
  9 28  3  0  0  0  0
 10 11  1  0  0  0  0
 10 12  1  0  0  0  0
 10 16  1  0  0  0  0
 10 31  1  0  0  0  0
 11 13  1  0  0  0  0
 11 15  1  0  0  0  0
 11 32  1  0  0  0  0
 12 14  1  0  0  0  0
 12 33  1  0  0  0  0
 12 34  1  0  0  0  0
 13 35  1  0  0  0  0
 13 36  1  0  0  0  0
 14 37  1  0  0  0  0
 14 38  1  0  0  0  0
 15 17  1  0  0  0  0
 15 39  1  0  0  0  0
 15 40  1  0  0  0  0
 16 18  1  0  0  0  0
 16 41  1  0  0  0  0
 16 42  1  0  0  0  0
 17 43  1  0  0  0  0
 17 44  1  0  0  0  0
 17 45  1  0  0  0  0
 20 23  1  0  0  0  0
 20 47  1  0  0  0  0
 20 48  1  0  0  0  0
 21 49  1  0  0  0  0
 21 50  1  0  0  0  0
 21 51  1  0  0  0  0
 22 24  1  0  0  0  0
 22 25  2  0  0  0  0
 23 28  1  0  0  0  0
 23 52  1  0  0  0  0
 23 53  1  0  0  0  0
 24 26  2  0  0  0  0
 24 54  1  0  0  0  0
 25 27  1  0  0  0  0
 25 55  1  0  0  0  0
 26 29  1  0  0  0  0
 26 30  1  0  0  0  0
 27 29  2  0  0  0  0
 27 56  1  0  0  0  0
 29 57  1  0  0  0  0
M  END
> <PUBCHEM_COMPOUND_CID>
11912401

> <PUBCHEM_CONFORMER_RMSD>
1.4

> <PUBCHEM_CONFORMER_DIVERSEORDER>
3
79
130
76
154
152
43
77
64
116
109
145
124
19
94
6
119
125
146
28
142
128
88
86
96
4
137
12
56
139
135
89
21
153
52
51
155
38
105
36
149
83
134
68
156
106
42
85
136
27
107
133
34
157
26
126
14
114
97
117
69
132
148
122
31
30
62
95
158
113
90
18
93
115
147
91
48
32
103
131
16
102
129
22
9
82
100
73
127
98
78
87
54
60
104
143
10
110
84
13
59
81
35
65
111
75
138
7
141
25
15
121
23
140
120
99
71
80
92
67
39
17
47
112
150
20
41
74
24
46
63
123
108
5
151
49
118
53
29
101
61
11
144
55
2
37
44
50
72
66
57
40
8
70
58
33
45
1

> <PUBCHEM_MMFF94_PARTIAL_CHARGES>
30
1 -0.34
13 0.3
14 0.3
16 0.06
18 0.57
19 0.69
2 -0.34
20 0.3
21 0.3
22 0.12
23 0.2
24 -0.15
25 -0.15
26 -0.14
27 -0.15
28 0.36
29 -0.15
3 -0.34
30 1.16
4 -0.57
46 0.37
5 -0.57
54 0.15
55 0.15
56 0.15
57 0.15
6 -0.66
7 -0.66
8 -0.55
9 -0.56

> <PUBCHEM_EFFECTIVE_ROTOR_COUNT>
11.2

> <PUBCHEM_PHARMACOPHORE_FEATURES>
7
1 17 hydrophobe
1 4 acceptor
1 5 acceptor
1 8 donor
1 9 acceptor
6 22 24 25 26 27 29 rings
6 6 10 11 12 13 14 rings

> <PUBCHEM_HEAVY_ATOM_COUNT>
30

> <PUBCHEM_ATOM_DEF_STEREO_COUNT>
2

> <PUBCHEM_ATOM_UDEF_STEREO_COUNT>
0

> <PUBCHEM_BOND_DEF_STEREO_COUNT>
0

> <PUBCHEM_BOND_UDEF_STEREO_COUNT>
0

> <PUBCHEM_ISOTOPIC_ATOM_COUNT>
0

> <PUBCHEM_COMPONENT_COUNT>
1

> <PUBCHEM_CACTVS_TAUTO_COUNT>
2

> <PUBCHEM_CONFORMER_ID>
00B5C4D100000003

> <PUBCHEM_MMFF94_ENERGY>
66.8239

> <PUBCHEM_FEATURE_SELFOVERLAP>
35.522

> <PUBCHEM_SHAPE_FINGERPRINT>
10554248 39 15936679394219334322
10883706 89 13182200439062578573
12422481 6 17346598638190333127
12661589 4 18268711782369196430
12788726 201 18116440232919842208
13533116 47 15482661369708940000
1361 4 18195807603576022479
13782708 43 18201431528316161683
13878862 14 14996280328141363782
13947930 73 18059851822185391943
14068700 675 18334288730546301468
14123256 34 18202004334713047245
14951699 99 10087652537036605771
15183329 4 18261110734037895781
15510800 12 17917998252661726942
2026 5 17846491518418349767
21585482 310 18060425737179601271
21792934 111 11167953441748937241
21814621 53 17489863830836924771
23522609 53 17897746278790663956
23559900 14 18408324410785752320
25122255 55 17917992784845917039
2748736 6 9799698090921779347
2838139 119 14490460942399729159
3862424 121 17915767377775351134
44249763 50 12179852723074996241
5104073 3 13254789157404195497
58902169 19 17095518457311290838
86090 222 17561086878338502310

> <PUBCHEM_SHAPE_MULTIPOLES>
563.9
20.31
3.14
2.09
6.79
1.76
-0.59
13.63
-11.42
5.81
-0.03
-3.97
0.48
0.48

> <PUBCHEM_SHAPE_SELFOVERLAP>
1158.677

> <PUBCHEM_SHAPE_VOLUME>
322.3

> <PUBCHEM_COORDINATE_TYPE>
2
5
10

$$$$
