26743822
  -OEChem-12032416413D

 52 55  0     1  0  0  0  0  0999 V2000
   -2.0342    3.5652    0.3232 S   0  0  0  0  0  0  0  0  0  0  0  0
   -4.9158   -2.0932    1.7129 F   0  0  0  0  0  0  0  0  0  0  0  0
    6.3806   -2.2459    0.3255 O   0  0  0  0  0  0  0  0  0  0  0  0
    1.4816   -1.3320    1.2546 O   0  0  0  0  0  0  0  0  0  0  0  0
   -1.9476    4.4059    1.5094 O   0  0  0  0  0  0  0  0  0  0  0  0
   -2.5684    4.1148   -0.9148 O   0  0  0  0  0  0  0  0  0  0  0  0
    3.7158    0.1040   -0.0591 N   0  0  1  0  0  0  0  0  0  0  0  0
    0.5508   -1.4190   -0.7807 N   0  0  0  0  0  0  0  0  0  0  0  0
    0.1063   -1.4976    1.4620 N   0  0  0  0  0  0  0  0  0  0  0  0
    3.0792   -1.1216   -0.5829 C   0  0  1  0  0  0  0  0  0  0  0  0
    4.0068   -2.2678   -0.1383 C   0  0  0  0  0  0  0  0  0  0  0  0
    5.1585   -1.5842    0.5879 C   0  0  2  0  0  0  0  0  0  0  0  0
    5.1479   -0.1762    0.0236 C   0  0  0  0  0  0  0  0  0  0  0  0
    3.4338    1.2861   -0.8628 C   0  0  0  0  0  0  0  0  0  0  0  0
    1.6573   -1.2953   -0.0923 C   0  0  0  0  0  0  0  0  0  0  0  0
    2.0707    1.8532   -0.5671 C   0  0  0  0  0  0  0  0  0  0  0  0
    1.1285    1.9728   -1.5886 C   0  0  0  0  0  0  0  0  0  0  0  0
    1.7505    2.2598    0.7282 C   0  0  0  0  0  0  0  0  0  0  0  0
   -0.3736   -1.5404    0.2156 C   0  0  0  0  0  0  0  0  0  0  0  0
   -0.1341    2.4989   -1.3147 C   0  0  0  0  0  0  0  0  0  0  0  0
    0.4881    2.7862    1.0021 C   0  0  0  0  0  0  0  0  0  0  0  0
   -0.4542    2.9058   -0.0194 C   0  0  0  0  0  0  0  0  0  0  0  0
   -1.7704   -1.7017   -0.0683 C   0  0  0  0  0  0  0  0  0  0  0  0
   -2.6854   -1.8221    0.9775 C   0  0  0  0  0  0  0  0  0  0  0  0
   -2.2135   -1.7377   -1.3904 C   0  0  0  0  0  0  0  0  0  0  0  0
   -3.0182    2.1502    0.7625 C   0  0  0  0  0  0  0  0  0  0  0  0
   -4.0437   -1.9783    0.7013 C   0  0  0  0  0  0  0  0  0  0  0  0
   -3.5719   -1.8941   -1.6666 C   0  0  0  0  0  0  0  0  0  0  0  0
   -4.4869   -2.0143   -0.6208 C   0  0  0  0  0  0  0  0  0  0  0  0
   -5.9386   -2.1814   -0.9196 C   0  0  0  0  0  0  0  0  0  0  0  0
    3.0632   -1.1178   -1.6816 H   0  0  0  0  0  0  0  0  0  0  0  0
    3.5216   -2.9983    0.5190 H   0  0  0  0  0  0  0  0  0  0  0  0
    4.3727   -2.8180   -1.0146 H   0  0  0  0  0  0  0  0  0  0  0  0
    4.9812   -1.5710    1.6704 H   0  0  0  0  0  0  0  0  0  0  0  0
    5.6697    0.5215    0.6869 H   0  0  0  0  0  0  0  0  0  0  0  0
    5.6404   -0.1447   -0.9573 H   0  0  0  0  0  0  0  0  0  0  0  0
    3.5646    1.0892   -1.9350 H   0  0  0  0  0  0  0  0  0  0  0  0
    4.1522    2.0820   -0.6206 H   0  0  0  0  0  0  0  0  0  0  0  0
    6.2917   -3.1605    0.6436 H   0  0  0  0  0  0  0  0  0  0  0  0
    1.3629    1.6564   -2.6013 H   0  0  0  0  0  0  0  0  0  0  0  0
    2.4752    2.1759    1.5338 H   0  0  0  0  0  0  0  0  0  0  0  0
   -0.8550    2.5746   -2.1237 H   0  0  0  0  0  0  0  0  0  0  0  0
    0.2579    3.0911    2.0190 H   0  0  0  0  0  0  0  0  0  0  0  0
   -2.3777   -1.7975    2.0197 H   0  0  0  0  0  0  0  0  0  0  0  0
   -1.5253   -1.6455   -2.2270 H   0  0  0  0  0  0  0  0  0  0  0  0
   -4.0264    2.4977    0.9981 H   0  0  0  0  0  0  0  0  0  0  0  0
   -3.0507    1.4651   -0.0865 H   0  0  0  0  0  0  0  0  0  0  0  0
   -2.5770    1.6668    1.6360 H   0  0  0  0  0  0  0  0  0  0  0  0
   -3.9022   -1.9206   -2.7016 H   0  0  0  0  0  0  0  0  0  0  0  0
   -6.2766   -3.1741   -0.6052 H   0  0  0  0  0  0  0  0  0  0  0  0
   -6.5257   -1.4211   -0.3939 H   0  0  0  0  0  0  0  0  0  0  0  0
   -6.1501   -2.0770   -1.9891 H   0  0  0  0  0  0  0  0  0  0  0  0
  1  5  2  0  0  0  0
  1  6  2  0  0  0  0
  1 22  1  0  0  0  0
  1 26  1  0  0  0  0
  2 27  1  0  0  0  0
  3 12  1  0  0  0  0
  3 39  1  0  0  0  0
  4  9  1  0  0  0  0
  4 15  1  0  0  0  0
  7 10  1  0  0  0  0
  7 13  1  0  0  0  0
  7 14  1  0  0  0  0
  8 15  2  0  0  0  0
  8 19  1  0  0  0  0
  9 19  2  0  0  0  0
 10 11  1  0  0  0  0
 10 15  1  0  0  0  0
 10 31  1  0  0  0  0
 11 12  1  0  0  0  0
 11 32  1  0  0  0  0
 11 33  1  0  0  0  0
 12 13  1  0  0  0  0
 12 34  1  0  0  0  0
 13 35  1  0  0  0  0
 13 36  1  0  0  0  0
 14 16  1  0  0  0  0
 14 37  1  0  0  0  0
 14 38  1  0  0  0  0
 16 17  2  0  0  0  0
 16 18  1  0  0  0  0
 17 20  1  0  0  0  0
 17 40  1  0  0  0  0
 18 21  2  0  0  0  0
 18 41  1  0  0  0  0
 19 23  1  0  0  0  0
 20 22  2  0  0  0  0
 20 42  1  0  0  0  0
 21 22  1  0  0  0  0
 21 43  1  0  0  0  0
 23 24  2  0  0  0  0
 23 25  1  0  0  0  0
 24 27  1  0  0  0  0
 24 44  1  0  0  0  0
 25 28  2  0  0  0  0
 25 45  1  0  0  0  0
 26 46  1  0  0  0  0
 26 47  1  0  0  0  0
 26 48  1  0  0  0  0
 27 29  2  0  0  0  0
 28 29  1  0  0  0  0
 28 49  1  0  0  0  0
 29 30  1  0  0  0  0
 30 50  1  0  0  0  0
 30 51  1  0  0  0  0
 30 52  1  0  0  0  0
M  END
> <PUBCHEM_COMPOUND_CID>
26743822

> <PUBCHEM_CONFORMER_RMSD>
0.8

> <PUBCHEM_CONFORMER_DIVERSEORDER>
1
155
109
16
153
163
75
22
92
210
189
218
177
8
140
176
100
137
131
34
5
3
166
151
197
133
149
88
89
185
108
114
10
148
174
161
33
179
159
98
165
160
156
4
142
86
211
23
25
106
107
93
175
101
99
39
79
191
178
19
141
183
150
95
67
27
134
47
195
15
87
104
205
198
181
139
146
169
116
78
49
2
168
184
182
96
37
157
69
118
173
53
124
6
64
216
63
51
102
71
38
111
17
44
158
40
110
117
196
138
154
7
193
80
77
85
35
194
135
147
143
206
130
208
113
60
127
105
207
122
172
42
65
121
29
84
145
201
120
70
91
217
20
171
76
66
188
212
144
112
213
59
97
43
167
180
58
14
41
219
83
26
125
48
199
50
119
162
57
21
202
54
9
186
46
11
13
31
36
72
152
200
209
204
123
170
103
68
129
18
94
62
187
12
214
215
24
61
74
136
56
192
128
28
30
45
126
164
55
32
73
132
115
52
82
203
90
190
81

> <PUBCHEM_MMFF94_PARTIAL_CHARGES>
37
1 1.2
10 0.45
12 0.28
13 0.27
14 0.41
15 0.3
16 -0.14
17 -0.15
18 -0.15
19 0.46
2 -0.19
20 -0.15
21 -0.15
22 -0.01
23 0.05
24 -0.15
25 -0.15
26 0.11
27 0.19
28 -0.15
29 -0.14
3 -0.68
30 0.14
39 0.4
4 -0.02
40 0.15
41 0.15
42 0.15
43 0.15
44 0.15
45 0.15
49 0.15
5 -0.65
6 -0.65
7 -0.81
8 -0.57
9 -0.41

> <PUBCHEM_EFFECTIVE_ROTOR_COUNT>
6

> <PUBCHEM_PHARMACOPHORE_FEATURES>
10
1 3 acceptor
1 3 donor
1 5 acceptor
1 6 acceptor
1 7 cation
3 8 9 19 cation
5 4 8 9 15 19 rings
5 7 10 11 12 13 rings
6 16 17 18 20 21 22 rings
6 23 24 25 27 28 29 rings

> <PUBCHEM_HEAVY_ATOM_COUNT>
30

> <PUBCHEM_ATOM_DEF_STEREO_COUNT>
2

> <PUBCHEM_ATOM_UDEF_STEREO_COUNT>
0

> <PUBCHEM_BOND_DEF_STEREO_COUNT>
0

> <PUBCHEM_BOND_UDEF_STEREO_COUNT>
0

> <PUBCHEM_ISOTOPIC_ATOM_COUNT>
0

> <PUBCHEM_COMPONENT_COUNT>
1

> <PUBCHEM_CACTVS_TAUTO_COUNT>
1

> <PUBCHEM_CONFORMER_ID>
0198140E00000001

> <PUBCHEM_MMFF94_ENERGY>
56.3994

> <PUBCHEM_FEATURE_SELFOVERLAP>
50.764

> <PUBCHEM_SHAPE_FINGERPRINT>
10064457 181 18053107216155633216
104564 63 18411149047329703684
10688039 33 18261110811178294437
1100329 8 18337954459136500992
11513181 2 18270978846961051502
11578080 2 17702923882758446402
1200032 147 15071407607887619695
12156800 1 18052007777336002189
12166972 35 17821729480793051391
12293681 4 18334584572098719538
12422481 6 18055663679632001827
12788726 201 18339656615205829324
13134695 92 18268427026121504126
140371 6 18115597083757643782
14681490 219 18338510966606855901
14866123 147 18191584147126733410
151778 21 17107075721048167853
15297060 5 17916016855467024521
15484559 13 17329984699551182373
17357779 13 18336816567970605398
1813 80 18200887235131624990
19930381 70 17186724360464846635
20642791 13 18337108974140549278
21033648 29 17605817317627117735
21041028 32 18410015459104119567
21236236 1 18338232670644441838
21641784 216 18187943780655605412
221357 26 18261382390877688775
23559900 14 17531803687755247055
244849 19 17344599597492161402
38695281 34 17688874137767980825
4015057 19 18120650490670932115
469060 322 17168425957153005902
513532 50 17700141185926178716
5171179 24 18129930278477437464
56638632 10 16697201885406941560
7164475 11 18411705361727243238
7471813 234 18341324595451009606

> <PUBCHEM_SHAPE_MULTIPOLES>
575.54
10.64
5.3
1.42
2.22
6.25
-0.04
-11.18
0.05
-3.3
0.58
-0.98
0.12
-1.04

> <PUBCHEM_SHAPE_SELFOVERLAP>
1236.188

> <PUBCHEM_SHAPE_VOLUME>
323.3

> <PUBCHEM_COORDINATE_TYPE>
2
5
10

$$$$
