71693772
  -OEChem-12032416233D

 44 46  0     1  0  0  0  0  0999 V2000
   -2.0096    3.3391    0.7815 O   0  0  0  0  0  0  0  0  0  0  0  0
   -3.8950    1.3463    0.8982 O   0  0  0  0  0  0  0  0  0  0  0  0
    4.7320   -0.5695   -0.0930 O   0  0  0  0  0  0  0  0  0  0  0  0
    1.2713    0.0845    1.1987 O   0  0  0  0  0  0  0  0  0  0  0  0
    0.2615    1.5328   -0.3197 N   0  0  0  0  0  0  0  0  0  0  0  0
   -1.8583   -2.8944    1.3521 N   0  0  0  0  0  0  0  0  0  0  0  0
   -1.1109    1.2115   -0.0202 C   0  0  2  0  0  0  0  0  0  0  0  0
   -1.6657    0.1120   -0.9536 C   0  0  2  0  0  0  0  0  0  0  0  0
   -2.0422    2.3962   -0.2732 C   0  0  1  0  0  0  0  0  0  0  0  0
   -3.1479    0.4864   -1.2133 C   0  0  0  0  0  0  0  0  0  0  0  0
   -3.4136    1.7407   -0.3830 C   0  0  1  0  0  0  0  0  0  0  0  0
   -1.4617   -1.2859   -0.4086 C   0  0  0  0  0  0  0  0  0  0  0  0
    2.6575    1.4364   -0.2006 C   0  0  0  0  0  0  0  0  0  0  0  0
    1.3401    0.9386    0.3187 C   0  0  0  0  0  0  0  0  0  0  0  0
    3.0834    0.6204   -1.4210 C   0  0  0  0  0  0  0  0  0  0  0  0
    3.7228    1.4106    0.8950 C   0  0  0  0  0  0  0  0  0  0  0  0
   -0.7239   -2.2296   -1.1147 C   0  0  0  0  0  0  0  0  0  0  0  0
   -2.0033   -1.6649    0.8091 C   0  0  0  0  0  0  0  0  0  0  0  0
    3.6692   -0.7316   -1.0299 C   0  0  0  0  0  0  0  0  0  0  0  0
    4.2815    0.0107    1.1292 C   0  0  0  0  0  0  0  0  0  0  0  0
   -0.5526   -3.5053   -0.5887 C   0  0  0  0  0  0  0  0  0  0  0  0
   -1.1347   -3.7850    0.6371 C   0  0  0  0  0  0  0  0  0  0  0  0
   -1.1586    0.9269    1.0381 H   0  0  0  0  0  0  0  0  0  0  0  0
   -1.1492    0.1752   -1.9229 H   0  0  0  0  0  0  0  0  0  0  0  0
   -1.7827    2.9063   -1.2095 H   0  0  0  0  0  0  0  0  0  0  0  0
   -3.2613    0.7284   -2.2775 H   0  0  0  0  0  0  0  0  0  0  0  0
   -3.8439   -0.3270   -0.9823 H   0  0  0  0  0  0  0  0  0  0  0  0
   -4.1574    2.4051   -0.8328 H   0  0  0  0  0  0  0  0  0  0  0  0
    0.4389    2.1791   -1.0834 H   0  0  0  0  0  0  0  0  0  0  0  0
    2.5226    2.4826   -0.5067 H   0  0  0  0  0  0  0  0  0  0  0  0
   -2.6906    4.0080    0.5961 H   0  0  0  0  0  0  0  0  0  0  0  0
    3.8584    1.1885   -1.9516 H   0  0  0  0  0  0  0  0  0  0  0  0
    2.2514    0.4758   -2.1196 H   0  0  0  0  0  0  0  0  0  0  0  0
    3.3397    1.8230    1.8354 H   0  0  0  0  0  0  0  0  0  0  0  0
    4.5501    2.0560    0.5721 H   0  0  0  0  0  0  0  0  0  0  0  0
   -4.7494    0.9016    0.7650 H   0  0  0  0  0  0  0  0  0  0  0  0
   -0.2753   -1.9847   -2.0734 H   0  0  0  0  0  0  0  0  0  0  0  0
   -2.5922   -0.9820    1.4116 H   0  0  0  0  0  0  0  0  0  0  0  0
    4.0801   -1.2257   -1.9162 H   0  0  0  0  0  0  0  0  0  0  0  0
    2.9064   -1.3973   -0.6097 H   0  0  0  0  0  0  0  0  0  0  0  0
    3.5610   -0.6599    1.6076 H   0  0  0  0  0  0  0  0  0  0  0  0
    5.1455    0.0738    1.7993 H   0  0  0  0  0  0  0  0  0  0  0  0
    0.0194   -4.2566   -1.1210 H   0  0  0  0  0  0  0  0  0  0  0  0
   -1.0302   -4.7651    1.0907 H   0  0  0  0  0  0  0  0  0  0  0  0
  1  9  1  0  0  0  0
  1 31  1  0  0  0  0
  2 11  1  0  0  0  0
  2 36  1  0  0  0  0
  3 19  1  0  0  0  0
  3 20  1  0  0  0  0
  4 14  2  0  0  0  0
  5  7  1  0  0  0  0
  5 14  1  0  0  0  0
  5 29  1  0  0  0  0
  6 18  1  0  0  0  0
  6 22  2  0  0  0  0
  7  8  1  0  0  0  0
  7  9  1  0  0  0  0
  7 23  1  0  0  0  0
  8 10  1  0  0  0  0
  8 12  1  0  0  0  0
  8 24  1  0  0  0  0
  9 11  1  0  0  0  0
  9 25  1  0  0  0  0
 10 11  1  0  0  0  0
 10 26  1  0  0  0  0
 10 27  1  0  0  0  0
 11 28  1  0  0  0  0
 12 17  1  0  0  0  0
 12 18  2  0  0  0  0
 13 14  1  0  0  0  0
 13 15  1  0  0  0  0
 13 16  1  0  0  0  0
 13 30  1  0  0  0  0
 15 19  1  0  0  0  0
 15 32  1  0  0  0  0
 15 33  1  0  0  0  0
 16 20  1  0  0  0  0
 16 34  1  0  0  0  0
 16 35  1  0  0  0  0
 17 21  2  0  0  0  0
 17 37  1  0  0  0  0
 18 38  1  0  0  0  0
 19 39  1  0  0  0  0
 19 40  1  0  0  0  0
 20 41  1  0  0  0  0
 20 42  1  0  0  0  0
 21 22  1  0  0  0  0
 21 43  1  0  0  0  0
 22 44  1  0  0  0  0
M  END
> <PUBCHEM_COMPOUND_CID>
71693772

> <PUBCHEM_CONFORMER_RMSD>
0.8

> <PUBCHEM_CONFORMER_DIVERSEORDER>
1
55
11
59
82
61
9
50
10
15
78
33
38
12
5
76
56
67
31
60
65
13
66
57
34
64
63
47
52
14
74
80
30
41
75
46
32
4
39
42
2
17
8
36
24
27
81
16
45
70
22
68
83
43
40
71
28
18
21
25
37
53
6
23
7
69
19
26
44
79
29
48
51
73
20
3
54
62
72
49
58
35
77

> <PUBCHEM_MMFF94_PARTIAL_CHARGES>
26
1 -0.68
11 0.28
12 -0.14
13 0.06
14 0.57
17 -0.15
18 0.16
19 0.28
2 -0.68
20 0.28
21 -0.15
22 0.16
29 0.37
3 -0.56
31 0.4
36 0.4
37 0.15
38 0.15
4 -0.57
43 0.15
44 0.15
5 -0.73
6 -0.62
7 0.3
8 0.14
9 0.28

> <PUBCHEM_EFFECTIVE_ROTOR_COUNT>
6.2

> <PUBCHEM_PHARMACOPHORE_FEATURES>
11
1 1 acceptor
1 1 donor
1 2 acceptor
1 2 donor
1 3 acceptor
1 4 acceptor
1 5 donor
1 6 acceptor
5 7 8 9 10 11 rings
6 3 13 15 16 19 20 rings
6 6 12 17 18 21 22 rings

> <PUBCHEM_HEAVY_ATOM_COUNT>
22

> <PUBCHEM_ATOM_DEF_STEREO_COUNT>
4

> <PUBCHEM_ATOM_UDEF_STEREO_COUNT>
0

> <PUBCHEM_BOND_DEF_STEREO_COUNT>
0

> <PUBCHEM_BOND_UDEF_STEREO_COUNT>
0

> <PUBCHEM_ISOTOPIC_ATOM_COUNT>
0

> <PUBCHEM_COMPONENT_COUNT>
1

> <PUBCHEM_CACTVS_TAUTO_COUNT>
2

> <PUBCHEM_CONFORMER_ID>
0445F5CC00000001

> <PUBCHEM_MMFF94_ENERGY>
57.1056

> <PUBCHEM_FEATURE_SELFOVERLAP>
55.834

> <PUBCHEM_SHAPE_FINGERPRINT>
10366900 7 17845642772429266080
10616163 171 18266460000251961886
11322862 65 18409171021410580679
11370993 70 18342167826733388276
11578080 2 17629759243034569521
12173636 292 18410570656710539869
12553582 1 17689722282392498662
12592029 89 18194408792492819025
12714826 92 18197229246060942354
12788726 201 18044668734773365194
13140716 1 18194400215211416504
133893 2 17543326286536232125
14251757 5 18338530715320325932
15163728 17 17098319914655517493
15309172 13 18337107869875089757
15375358 24 17988914587894322308
16752209 62 18262782077843420375
19591789 44 18266743471855779991
20028762 73 18129384977024917103
20567600 347 18265334997766664559
20600515 1 17471518594959892977
20645476 183 18040708152082167015
21524375 3 18267864991143816423
21665056 4 18409165489318480559
22907989 373 18264223563140766501
22956985 138 17608656007637202787
23184049 29 18120931978056952908
23419403 2 16981303393305621559
23557571 272 18267580402611435880
23559900 14 18342454847182959716
23598288 3 18192717958236468638
23728640 28 18410282636087521554
3084891 72 18340199687639459493
352729 6 18410863178311117045
43471831 8 18194398897104680485
59755656 215 18340200783705277677
6138700 20 17836085572610993470
81228 2 18194669600218867293
9709674 26 18272083942051073268

> <PUBCHEM_SHAPE_MULTIPOLES>
419.31
7.25
4.02
1.29
7.66
2.82
0.03
-2.38
-0.39
-3.98
-0.69
0.21
0.27
0.48

> <PUBCHEM_SHAPE_SELFOVERLAP>
886.201

> <PUBCHEM_SHAPE_VOLUME>
232.5

> <PUBCHEM_COORDINATE_TYPE>
2
5
10

$$$$
