38027153
  -OEChem-12032416143D

 67 68  0     1  0  0  0  0  0999 V2000
   -1.7129    2.6515    0.5957 O   0  0  0  0  0  0  0  0  0  0  0  0
    3.1203   -2.6513   -1.3959 O   0  0  0  0  0  0  0  0  0  0  0  0
   -0.0774   -3.6966    1.5380 O   0  0  0  0  0  0  0  0  0  0  0  0
    3.6282   -1.0574    0.2170 N   0  0  0  0  0  0  0  0  0  0  0  0
   -2.3262    0.7109    1.7082 N   0  0  0  0  0  0  0  0  0  0  0  0
    2.6292   -3.0490    0.8367 N   0  0  0  0  0  0  0  0  0  0  0  0
    1.9767    1.0639   -1.1305 C   0  0  1  0  0  0  0  0  0  0  0  0
    3.4149    1.2372   -0.5815 C   0  0  1  0  0  0  0  0  0  0  0  0
    1.0842    2.2276   -0.6729 C   0  0  0  0  0  0  0  0  0  0  0  0
    1.0108    2.3371    0.8618 C   0  0  2  0  0  0  0  0  0  0  0  0
    1.9593    0.9669   -2.6592 C   0  0  0  0  0  0  0  0  0  0  0  0
    2.3825    2.2452    1.4990 C   0  0  0  0  0  0  0  0  0  0  0  0
    3.4478    1.7635    0.8343 C   0  0  0  0  0  0  0  0  0  0  0  0
    4.1975   -0.0788   -0.6554 C   0  0  0  0  0  0  0  0  0  0  0  0
    0.0627    1.2840    1.4459 C   0  0  0  0  0  0  0  0  0  0  0  0
    0.7134    0.2241   -3.1312 C   0  0  0  0  0  0  0  0  0  0  0  0
    2.0280    2.3579   -3.2813 C   0  0  0  0  0  0  0  0  0  0  0  0
    2.5121    2.7627    2.9046 C   0  0  0  0  0  0  0  0  0  0  0  0
   -1.3958    1.6254    1.2032 C   0  0  0  0  0  0  0  0  0  0  0  0
    3.1237   -2.2889   -0.2202 C   0  0  0  0  0  0  0  0  0  0  0  0
   -3.7676    0.8958    1.5572 C   0  0  0  0  0  0  0  0  0  0  0  0
   -1.9276   -0.4954    2.4231 C   0  0  0  0  0  0  0  0  0  0  0  0
   -4.2938    0.2249    0.3214 C   0  0  0  0  0  0  0  0  0  0  0  0
    2.0528   -4.3604    0.6548 C   0  0  0  0  0  0  0  0  0  0  0  0
   -4.3421    0.9236   -0.8849 C   0  0  0  0  0  0  0  0  0  0  0  0
   -4.7340   -1.0975    0.3796 C   0  0  0  0  0  0  0  0  0  0  0  0
    0.5571   -4.2829    0.4089 C   0  0  0  0  0  0  0  0  0  0  0  0
   -4.8307    0.2997   -2.0329 C   0  0  0  0  0  0  0  0  0  0  0  0
   -5.2223   -1.7212   -0.7685 C   0  0  0  0  0  0  0  0  0  0  0  0
   -5.2707   -1.0226   -1.9748 C   0  0  0  0  0  0  0  0  0  0  0  0
    1.5558    0.1358   -0.7269 H   0  0  0  0  0  0  0  0  0  0  0  0
    3.9547    1.9715   -1.1927 H   0  0  0  0  0  0  0  0  0  0  0  0
    0.0796    2.1420   -1.0980 H   0  0  0  0  0  0  0  0  0  0  0  0
    1.4909    3.1868   -1.0185 H   0  0  0  0  0  0  0  0  0  0  0  0
    0.6181    3.3386    1.0872 H   0  0  0  0  0  0  0  0  0  0  0  0
    2.8215    0.3939   -3.0153 H   0  0  0  0  0  0  0  0  0  0  0  0
    4.4186    1.7648    1.3261 H   0  0  0  0  0  0  0  0  0  0  0  0
    5.2302    0.0765   -0.3203 H   0  0  0  0  0  0  0  0  0  0  0  0
    4.2561   -0.4635   -1.6770 H   0  0  0  0  0  0  0  0  0  0  0  0
    0.1953    1.2471    2.5329 H   0  0  0  0  0  0  0  0  0  0  0  0
    0.2775    0.2913    1.0378 H   0  0  0  0  0  0  0  0  0  0  0  0
   -0.2104    0.7411   -2.8536 H   0  0  0  0  0  0  0  0  0  0  0  0
    0.6765   -0.7860   -2.7090 H   0  0  0  0  0  0  0  0  0  0  0  0
    0.7186    0.1237   -4.2222 H   0  0  0  0  0  0  0  0  0  0  0  0
    1.0938    2.9208   -3.1815 H   0  0  0  0  0  0  0  0  0  0  0  0
    2.2025    2.2609   -4.3601 H   0  0  0  0  0  0  0  0  0  0  0  0
    2.8547    2.9569   -2.8880 H   0  0  0  0  0  0  0  0  0  0  0  0
    2.1453    3.7925    2.9661 H   0  0  0  0  0  0  0  0  0  0  0  0
    3.5530    2.7663    3.2460 H   0  0  0  0  0  0  0  0  0  0  0  0
    1.9414    2.1468    3.6053 H   0  0  0  0  0  0  0  0  0  0  0  0
    3.6466   -0.8842    1.2175 H   0  0  0  0  0  0  0  0  0  0  0  0
   -3.9794    1.9710    1.5017 H   0  0  0  0  0  0  0  0  0  0  0  0
   -4.2837    0.5338    2.4546 H   0  0  0  0  0  0  0  0  0  0  0  0
   -2.5158   -0.5751    3.3429 H   0  0  0  0  0  0  0  0  0  0  0  0
   -0.8769   -0.5327    2.7059 H   0  0  0  0  0  0  0  0  0  0  0  0
   -2.1369   -1.3608    1.7881 H   0  0  0  0  0  0  0  0  0  0  0  0
    2.6596   -2.6598    1.7740 H   0  0  0  0  0  0  0  0  0  0  0  0
    2.2585   -4.9190    1.5738 H   0  0  0  0  0  0  0  0  0  0  0  0
    2.5492   -4.8629   -0.1815 H   0  0  0  0  0  0  0  0  0  0  0  0
   -4.0044    1.9545   -0.9457 H   0  0  0  0  0  0  0  0  0  0  0  0
   -4.7044   -1.6524    1.3135 H   0  0  0  0  0  0  0  0  0  0  0  0
    0.1442   -5.2853    0.2603 H   0  0  0  0  0  0  0  0  0  0  0  0
    0.3318   -3.6707   -0.4705 H   0  0  0  0  0  0  0  0  0  0  0  0
   -4.8685    0.8436   -2.9723 H   0  0  0  0  0  0  0  0  0  0  0  0
   -5.5653   -2.7507   -0.7231 H   0  0  0  0  0  0  0  0  0  0  0  0
   -5.6510   -1.5082   -2.8687 H   0  0  0  0  0  0  0  0  0  0  0  0
   -1.0302   -3.6669    1.3460 H   0  0  0  0  0  0  0  0  0  0  0  0
  1 19  2  0  0  0  0
  2 20  2  0  0  0  0
  3 27  1  0  0  0  0
  3 67  1  0  0  0  0
  4 14  1  0  0  0  0
  4 20  1  0  0  0  0
  4 51  1  0  0  0  0
  5 19  1  0  0  0  0
  5 21  1  0  0  0  0
  5 22  1  0  0  0  0
  6 20  1  0  0  0  0
  6 24  1  0  0  0  0
  6 57  1  0  0  0  0
  7  8  1  0  0  0  0
  7  9  1  0  0  0  0
  7 11  1  0  0  0  0
  7 31  1  0  0  0  0
  8 13  1  0  0  0  0
  8 14  1  0  0  0  0
  8 32  1  0  0  0  0
  9 10  1  0  0  0  0
  9 33  1  0  0  0  0
  9 34  1  0  0  0  0
 10 12  1  0  0  0  0
 10 15  1  0  0  0  0
 10 35  1  0  0  0  0
 11 16  1  0  0  0  0
 11 17  1  0  0  0  0
 11 36  1  0  0  0  0
 12 13  2  0  0  0  0
 12 18  1  0  0  0  0
 13 37  1  0  0  0  0
 14 38  1  0  0  0  0
 14 39  1  0  0  0  0
 15 19  1  0  0  0  0
 15 40  1  0  0  0  0
 15 41  1  0  0  0  0
 16 42  1  0  0  0  0
 16 43  1  0  0  0  0
 16 44  1  0  0  0  0
 17 45  1  0  0  0  0
 17 46  1  0  0  0  0
 17 47  1  0  0  0  0
 18 48  1  0  0  0  0
 18 49  1  0  0  0  0
 18 50  1  0  0  0  0
 21 23  1  0  0  0  0
 21 52  1  0  0  0  0
 21 53  1  0  0  0  0
 22 54  1  0  0  0  0
 22 55  1  0  0  0  0
 22 56  1  0  0  0  0
 23 25  2  0  0  0  0
 23 26  1  0  0  0  0
 24 27  1  0  0  0  0
 24 58  1  0  0  0  0
 24 59  1  0  0  0  0
 25 28  1  0  0  0  0
 25 60  1  0  0  0  0
 26 29  2  0  0  0  0
 26 61  1  0  0  0  0
 27 62  1  0  0  0  0
 27 63  1  0  0  0  0
 28 30  2  0  0  0  0
 28 64  1  0  0  0  0
 29 30  1  0  0  0  0
 29 65  1  0  0  0  0
 30 66  1  0  0  0  0
M  END
> <PUBCHEM_COMPOUND_CID>
38027153

> <PUBCHEM_CONFORMER_RMSD>
1.2

> <PUBCHEM_CONFORMER_DIVERSEORDER>
1
147
68
62
118
110
8
143
34
134
30
75
14
53
15
60
105
66
120
67
71
21
57
61
40
39
95
97
149
29
45
51
131
86
102
113
92
112
50
125
41
26
65
88
148
42
136
9
24
91
33
79
135
94
17
31
123
83
116
87
11
74
80
104
151
111
100
72
58
10
55
142
5
90
138
133
23
19
63
32
119
137
109
49
145
64
36
106
48
89
96
99
85
107
126
122
130
144
56
54
103
98
70
38
7
76
27
25
101
46
114
35
117
82
124
81
129
20
6
132
127
146
93
44
121
52
108
84
59
115
140
12
3
13
47
69
37
78
139
73
2
28
4
43
77
150
16
22
128
141
18

> <PUBCHEM_MMFF94_PARTIAL_CHARGES>
34
1 -0.57
10 0.14
12 -0.28
13 -0.29
14 0.3
15 0.06
18 0.14
19 0.57
2 -0.57
20 0.69
21 0.44
22 0.3
23 -0.14
24 0.3
25 -0.15
26 -0.15
27 0.28
28 -0.15
29 -0.15
3 -0.68
30 -0.15
37 0.15
4 -0.73
5 -0.66
51 0.37
57 0.37
6 -0.73
60 0.15
61 0.15
64 0.15
65 0.15
66 0.15
67 0.4
8 0.14

> <PUBCHEM_EFFECTIVE_ROTOR_COUNT>
12.8

> <PUBCHEM_PHARMACOPHORE_FEATURES>
9
1 1 acceptor
1 2 acceptor
1 3 acceptor
1 3 donor
1 4 donor
1 6 donor
3 11 16 17 hydrophobe
6 23 25 26 28 29 30 rings
6 7 8 9 10 12 13 rings

> <PUBCHEM_HEAVY_ATOM_COUNT>
30

> <PUBCHEM_ATOM_DEF_STEREO_COUNT>
3

> <PUBCHEM_ATOM_UDEF_STEREO_COUNT>
0

> <PUBCHEM_BOND_DEF_STEREO_COUNT>
0

> <PUBCHEM_BOND_UDEF_STEREO_COUNT>
0

> <PUBCHEM_ISOTOPIC_ATOM_COUNT>
0

> <PUBCHEM_COMPONENT_COUNT>
1

> <PUBCHEM_CACTVS_TAUTO_COUNT>
3

> <PUBCHEM_CONFORMER_ID>
02443F9100000001

> <PUBCHEM_MMFF94_ENERGY>
59.7081

> <PUBCHEM_FEATURE_SELFOVERLAP>
45.722

> <PUBCHEM_SHAPE_FINGERPRINT>
10816530 23 17607531533205432125
11513181 2 17912094849830233446
12156800 1 15579740386155887914
14251757 17 17023478425710887483
17138139 8 18130787918610293902
20764821 26 18122912190009357139
20775530 9 17685507450823297530
25222932 49 17772458243402321383
25265897 201 16226630536370864299
26353 1 17682387054008585523
35225 105 17760674832621185214
46194498 28 16879378755045930085
463206 1 18341624672052457195
66674814 147 18260270707223009402
6669772 16 17984404493801471665

> <PUBCHEM_SHAPE_MULTIPOLES>
584.83
10.05
4.72
3.08
13.96
6.69
-1.52
1.29
-3.03
-4.53
1.96
-0.56
-1.81
-0.26

> <PUBCHEM_SHAPE_SELFOVERLAP>
1188.538

> <PUBCHEM_SHAPE_VOLUME>
338.5

> <PUBCHEM_COORDINATE_TYPE>
2
5
10

$$$$
