75367815
  -OEChem-12032416383D

 37 37  0     1  0  0  0  0  0999 V2000
   -2.0897   -2.5671   -0.2055 O   0  0  0  0  0  0  0  0  0  0  0  0
    0.9680   -0.7931    0.5436 O   0  0  0  0  0  0  0  0  0  0  0  0
   -4.4454    1.7400   -0.1571 O   0  0  0  0  0  0  0  0  0  0  0  0
    3.3772   -0.5199    1.4758 O   0  0  0  0  0  0  0  0  0  0  0  0
   -2.4319    0.5668   -0.2431 N   0  0  0  0  0  0  0  0  0  0  0  0
    4.2811    0.5125   -0.3974 N   0  0  0  0  0  0  0  0  0  0  0  0
   -0.3314   -0.8796   -0.0441 C   0  0  2  0  0  0  0  0  0  0  0  0
   -1.0217    0.4738    0.1473 C   0  0  0  0  0  0  0  0  0  0  0  0
   -1.0723   -2.0298    0.6322 C   0  0  0  0  0  0  0  0  0  0  0  0
   -2.9926   -0.4792   -1.1023 C   0  0  0  0  0  0  0  0  0  0  0  0
   -3.2552   -1.7578   -0.3179 C   0  0  0  0  0  0  0  0  0  0  0  0
   -3.2595    1.6237    0.1620 C   0  0  0  0  0  0  0  0  0  0  0  0
    1.8807   -0.1356   -0.3206 C   0  0  0  0  0  0  0  0  0  0  0  0
   -2.6292    2.6669    1.0537 C   0  0  0  0  0  0  0  0  0  0  0  0
    3.2434   -0.0639    0.3360 C   0  0  0  0  0  0  0  0  0  0  0  0
    5.6129    0.5956    0.1894 C   0  0  0  0  0  0  0  0  0  0  0  0
    4.1656    1.0469   -1.7522 C   0  0  0  0  0  0  0  0  0  0  0  0
   -0.2382   -1.1093   -1.1136 H   0  0  0  0  0  0  0  0  0  0  0  0
   -0.9229    0.7761    1.1964 H   0  0  0  0  0  0  0  0  0  0  0  0
   -0.5082    1.2486   -0.4320 H   0  0  0  0  0  0  0  0  0  0  0  0
   -0.3694   -2.8479    0.8281 H   0  0  0  0  0  0  0  0  0  0  0  0
   -1.4833   -1.7426    1.6078 H   0  0  0  0  0  0  0  0  0  0  0  0
   -2.3128   -0.6415   -1.9453 H   0  0  0  0  0  0  0  0  0  0  0  0
   -3.9427   -0.1269   -1.5174 H   0  0  0  0  0  0  0  0  0  0  0  0
   -3.6755   -1.5608    0.6753 H   0  0  0  0  0  0  0  0  0  0  0  0
   -3.9865   -2.3601   -0.8675 H   0  0  0  0  0  0  0  0  0  0  0  0
    1.9739   -0.7047   -1.2520 H   0  0  0  0  0  0  0  0  0  0  0  0
    1.5588    0.8888   -0.5253 H   0  0  0  0  0  0  0  0  0  0  0  0
   -3.3239    3.5034    1.1784 H   0  0  0  0  0  0  0  0  0  0  0  0
   -2.4237    2.2412    2.0392 H   0  0  0  0  0  0  0  0  0  0  0  0
   -1.7110    3.0570    0.6077 H   0  0  0  0  0  0  0  0  0  0  0  0
    6.3102    0.0348   -0.4400 H   0  0  0  0  0  0  0  0  0  0  0  0
    5.6405    0.1840    1.2013 H   0  0  0  0  0  0  0  0  0  0  0  0
    5.9167    1.6459    0.2264 H   0  0  0  0  0  0  0  0  0  0  0  0
    4.4836    2.0937   -1.7431 H   0  0  0  0  0  0  0  0  0  0  0  0
    3.1492    0.9953   -2.1427 H   0  0  0  0  0  0  0  0  0  0  0  0
    4.8248    0.4724   -2.4097 H   0  0  0  0  0  0  0  0  0  0  0  0
  1  9  1  0  0  0  0
  1 11  1  0  0  0  0
  2  7  1  0  0  0  0
  2 13  1  0  0  0  0
  3 12  2  0  0  0  0
  4 15  2  0  0  0  0
  5  8  1  0  0  0  0
  5 10  1  0  0  0  0
  5 12  1  0  0  0  0
  6 15  1  0  0  0  0
  6 16  1  0  0  0  0
  6 17  1  0  0  0  0
  7  8  1  0  0  0  0
  7  9  1  0  0  0  0
  7 18  1  0  0  0  0
  8 19  1  0  0  0  0
  8 20  1  0  0  0  0
  9 21  1  0  0  0  0
  9 22  1  0  0  0  0
 10 11  1  0  0  0  0
 10 23  1  0  0  0  0
 10 24  1  0  0  0  0
 11 25  1  0  0  0  0
 11 26  1  0  0  0  0
 12 14  1  0  0  0  0
 13 15  1  0  0  0  0
 13 27  1  0  0  0  0
 13 28  1  0  0  0  0
 14 29  1  0  0  0  0
 14 30  1  0  0  0  0
 14 31  1  0  0  0  0
 16 32  1  0  0  0  0
 16 33  1  0  0  0  0
 16 34  1  0  0  0  0
 17 35  1  0  0  0  0
 17 36  1  0  0  0  0
 17 37  1  0  0  0  0
M  END
> <PUBCHEM_COMPOUND_CID>
75367815

> <PUBCHEM_CONFORMER_RMSD>
0.8

> <PUBCHEM_CONFORMER_DIVERSEORDER>
1
110
136
71
13
102
161
175
124
24
66
138
28
133
27
178
169
129
128
89
176
50
86
112
117
172
54
64
53
174
165
42
158
57
15
94
3
118
18
145
87
153
159
191
37
142
190
78
95
80
120
156
31
108
21
23
115
166
100
43
163
111
179
146
189
96
11
123
26
40
177
73
14
79
68
183
105
193
22
171
167
10
19
155
20
47
49
141
160
16
4
91
56
121
148
61
45
59
30
9
60
75
180
25
51
143
154
7
134
122
162
17
184
188
35
65
152
67
8
103
93
157
77
181
137
32
98
127
149
83
33
12
44
36
173
131
147
130
34
6
38
132
97
151
62
76
70
185
182
72
125
48
114
29
170
46
58
69
139
74
144
119
140
84
88
85
126
109
186
81
5
90
107
52
116
168
104
192
41
164
82
99
63
39
2
92
113
101
135
106
187
150
55

> <PUBCHEM_MMFF94_PARTIAL_CHARGES>
17
1 -0.56
10 0.3
11 0.28
12 0.57
13 0.34
14 0.06
15 0.57
16 0.3
17 0.3
2 -0.56
3 -0.57
4 -0.57
5 -0.66
6 -0.66
7 0.28
8 0.3
9 0.28

> <PUBCHEM_EFFECTIVE_ROTOR_COUNT>
6.4

> <PUBCHEM_PHARMACOPHORE_FEATURES>
5
1 1 acceptor
1 2 acceptor
1 3 acceptor
1 4 acceptor
7 1 5 7 8 9 10 11 rings

> <PUBCHEM_HEAVY_ATOM_COUNT>
17

> <PUBCHEM_ATOM_DEF_STEREO_COUNT>
1

> <PUBCHEM_ATOM_UDEF_STEREO_COUNT>
0

> <PUBCHEM_BOND_DEF_STEREO_COUNT>
0

> <PUBCHEM_BOND_UDEF_STEREO_COUNT>
0

> <PUBCHEM_ISOTOPIC_ATOM_COUNT>
0

> <PUBCHEM_COMPONENT_COUNT>
1

> <PUBCHEM_CACTVS_TAUTO_COUNT>
1

> <PUBCHEM_CONFORMER_ID>
047E058700000001

> <PUBCHEM_MMFF94_ENERGY>
45.8003

> <PUBCHEM_FEATURE_SELFOVERLAP>
25.385

> <PUBCHEM_SHAPE_FINGERPRINT>
11315181 36 18187359987215034216
12173636 292 18270112414517767213
12390115 104 18058182648108231305
12788726 201 18263074582217669555
14123255 52 18193837046694645869
14123260 362 18409455769025763496
14251764 75 17554057541420159145
15342168 16 18187652340953905725
15534591 1 18341891836551350551
15806764 133 17703518799763256152
1741750 31 18340770351417272651
20300324 65 18339358677176575550
204376 136 18335703772235796977
20510252 161 18342459253191768707
20645477 56 18341614797980392665
20645477 70 15358516615512844146
21524375 3 18266736883660797643
21618674 53 18041005041844092312
22620623 9 17632284718739309887
23402539 116 18341604927950315924
23557571 272 18202007663217788614
23559900 14 18200877280130272278
23596394 208 17203059504091967110
3268164 11 18201711886021075021
4214541 1 18410291419775260782
441001 317 18340484560552421456
474 4 17748828514328835706
5104073 3 17968371343022277416
573450 72 18335126610219996602
633830 44 18041001700476041402

> <PUBCHEM_SHAPE_MULTIPOLES>
316.41
10.13
2.38
1.11
11.61
0.14
-0.17
4.03
-1.25
-3.7
0.44
0.78
0.18
-1.14

> <PUBCHEM_SHAPE_SELFOVERLAP>
618.155

> <PUBCHEM_SHAPE_VOLUME>
189.4

> <PUBCHEM_COORDINATE_TYPE>
2
5
10

$$$$
