45783556
  -OEChem-12032416263D

 57 60  0     1  0  0  0  0  0999 V2000
   -1.4613    2.0005   -1.8516 O   0  0  0  0  0  0  0  0  0  0  0  0
    5.2749   -0.6658    0.3930 O   0  0  0  0  0  0  0  0  0  0  0  0
    7.9812   -0.2740    0.9899 O   0  0  0  0  0  0  0  0  0  0  0  0
   -3.7573    0.8506    0.7775 N   0  0  1  0  0  0  0  0  0  0  0  0
   -4.0324   -3.3022   -0.0843 N   0  0  0  0  0  0  0  0  0  0  0  0
   -0.8599    1.0619    0.0912 N   0  0  0  0  0  0  0  0  0  0  0  0
   -0.1003    1.6926   -1.9726 N   0  0  0  0  0  0  0  0  0  0  0  0
    3.7942    0.3196   -1.0971 N   0  0  0  0  0  0  0  0  0  0  0  0
   -4.2399   -0.3958    0.1873 C   0  0  0  0  0  0  0  0  0  0  0  0
   -3.2772    1.8220   -0.2255 C   0  0  1  0  0  0  0  0  0  0  0  0
   -4.7964    1.5327    1.5492 C   0  0  0  0  0  0  0  0  0  0  0  0
   -4.7104   -1.3543    1.2842 C   0  0  0  0  0  0  0  0  0  0  0  0
   -3.1482   -1.0620   -0.6554 C   0  0  0  0  0  0  0  0  0  0  0  0
   -3.5146    3.2000    0.4195 C   0  0  0  0  0  0  0  0  0  0  0  0
   -4.1858    2.9044    1.7533 C   0  0  0  0  0  0  0  0  0  0  0  0
   -5.1269   -2.7034    0.6924 C   0  0  0  0  0  0  0  0  0  0  0  0
   -3.6155   -2.4207   -1.1837 C   0  0  0  0  0  0  0  0  0  0  0  0
   -1.8292    1.5970   -0.6073 C   0  0  0  0  0  0  0  0  0  0  0  0
   -4.4282   -4.6122   -0.6006 C   0  0  0  0  0  0  0  0  0  0  0  0
    0.1809    1.1424   -0.7877 C   0  0  0  0  0  0  0  0  0  0  0  0
    1.4905    0.6648   -0.4499 C   0  0  0  0  0  0  0  0  0  0  0  0
    1.7476    0.0990    0.7940 C   0  0  0  0  0  0  0  0  0  0  0  0
    2.5386    0.7512   -1.3520 C   0  0  0  0  0  0  0  0  0  0  0  0
    3.0268   -0.3565    1.0934 C   0  0  0  0  0  0  0  0  0  0  0  0
    4.0062   -0.2244    0.1222 C   0  0  0  0  0  0  0  0  0  0  0  0
    6.2417   -0.5062   -0.6383 C   0  0  0  0  0  0  0  0  0  0  0  0
    7.5790   -1.0269   -0.1480 C   0  0  0  0  0  0  0  0  0  0  0  0
    9.2218   -0.7345    1.5068 C   0  0  0  0  0  0  0  0  0  0  0  0
   -5.0952   -0.1868   -0.4721 H   0  0  0  0  0  0  0  0  0  0  0  0
   -3.8916    1.7743   -1.1359 H   0  0  0  0  0  0  0  0  0  0  0  0
   -4.9897    1.0632    2.5183 H   0  0  0  0  0  0  0  0  0  0  0  0
   -5.7382    1.6165    0.9923 H   0  0  0  0  0  0  0  0  0  0  0  0
   -5.5750   -0.9531    1.8248 H   0  0  0  0  0  0  0  0  0  0  0  0
   -3.9121   -1.5125    2.0220 H   0  0  0  0  0  0  0  0  0  0  0  0
   -2.8966   -0.4683   -1.5389 H   0  0  0  0  0  0  0  0  0  0  0  0
   -2.2369   -1.2132   -0.0631 H   0  0  0  0  0  0  0  0  0  0  0  0
   -2.5994    3.7839    0.5656 H   0  0  0  0  0  0  0  0  0  0  0  0
   -4.1928    3.7895   -0.2095 H   0  0  0  0  0  0  0  0  0  0  0  0
   -3.4325    2.8741    2.5505 H   0  0  0  0  0  0  0  0  0  0  0  0
   -4.9308    3.6606    2.0178 H   0  0  0  0  0  0  0  0  0  0  0  0
   -5.4003   -3.3690    1.5203 H   0  0  0  0  0  0  0  0  0  0  0  0
   -6.0222   -2.5727    0.0701 H   0  0  0  0  0  0  0  0  0  0  0  0
   -4.4349   -2.2762   -1.9005 H   0  0  0  0  0  0  0  0  0  0  0  0
   -2.7823   -2.8794   -1.7303 H   0  0  0  0  0  0  0  0  0  0  0  0
   -4.6909   -5.2867    0.2220 H   0  0  0  0  0  0  0  0  0  0  0  0
   -5.2850   -4.5477   -1.2811 H   0  0  0  0  0  0  0  0  0  0  0  0
   -3.5962   -5.0818   -1.1369 H   0  0  0  0  0  0  0  0  0  0  0  0
    0.9713   -0.0001    1.5484 H   0  0  0  0  0  0  0  0  0  0  0  0
    2.4215    1.1788   -2.3434 H   0  0  0  0  0  0  0  0  0  0  0  0
    3.2440   -0.8004    2.0588 H   0  0  0  0  0  0  0  0  0  0  0  0
    6.3414    0.5588   -0.8821 H   0  0  0  0  0  0  0  0  0  0  0  0
    5.9407   -1.0673   -1.5309 H   0  0  0  0  0  0  0  0  0  0  0  0
    7.4830   -2.0805    0.1394 H   0  0  0  0  0  0  0  0  0  0  0  0
    8.3304   -0.9335   -0.9398 H   0  0  0  0  0  0  0  0  0  0  0  0
    9.1400   -1.7767    1.8302 H   0  0  0  0  0  0  0  0  0  0  0  0
   10.0117   -0.6333    0.7562 H   0  0  0  0  0  0  0  0  0  0  0  0
    9.4831   -0.1205    2.3728 H   0  0  0  0  0  0  0  0  0  0  0  0
  1  7  1  0  0  0  0
  1 18  1  0  0  0  0
  2 25  1  0  0  0  0
  2 26  1  0  0  0  0
  3 27  1  0  0  0  0
  3 28  1  0  0  0  0
  4  9  1  0  0  0  0
  4 10  1  0  0  0  0
  4 11  1  0  0  0  0
  5 16  1  0  0  0  0
  5 17  1  0  0  0  0
  5 19  1  0  0  0  0
  6 18  2  0  0  0  0
  6 20  1  0  0  0  0
  7 20  2  0  0  0  0
  8 23  1  0  0  0  0
  8 25  2  0  0  0  0
  9 12  1  0  0  0  0
  9 13  1  0  0  0  0
  9 29  1  0  0  0  0
 10 14  1  0  0  0  0
 10 18  1  0  0  0  0
 10 30  1  0  0  0  0
 11 15  1  0  0  0  0
 11 31  1  0  0  0  0
 11 32  1  0  0  0  0
 12 16  1  0  0  0  0
 12 33  1  0  0  0  0
 12 34  1  0  0  0  0
 13 17  1  0  0  0  0
 13 35  1  0  0  0  0
 13 36  1  0  0  0  0
 14 15  1  0  0  0  0
 14 37  1  0  0  0  0
 14 38  1  0  0  0  0
 15 39  1  0  0  0  0
 15 40  1  0  0  0  0
 16 41  1  0  0  0  0
 16 42  1  0  0  0  0
 17 43  1  0  0  0  0
 17 44  1  0  0  0  0
 19 45  1  0  0  0  0
 19 46  1  0  0  0  0
 19 47  1  0  0  0  0
 20 21  1  0  0  0  0
 21 22  1  0  0  0  0
 21 23  2  0  0  0  0
 22 24  2  0  0  0  0
 22 48  1  0  0  0  0
 23 49  1  0  0  0  0
 24 25  1  0  0  0  0
 24 50  1  0  0  0  0
 26 27  1  0  0  0  0
 26 51  1  0  0  0  0
 26 52  1  0  0  0  0
 27 53  1  0  0  0  0
 27 54  1  0  0  0  0
 28 55  1  0  0  0  0
 28 56  1  0  0  0  0
 28 57  1  0  0  0  0
M  END
> <PUBCHEM_COMPOUND_CID>
45783556

> <PUBCHEM_CONFORMER_RMSD>
1

> <PUBCHEM_CONFORMER_DIVERSEORDER>
1
86
89
38
66
67
34
75
7
59
72
29
37
53
87
62
85
71
56
33
52
31
92
25
64
70
42
36
39
18
23
49
40
35
80
4
73
84
41
57
22
15
76
55
48
83
77
11
47
65
28
82
3
88
79
17
90
58
24
8
74
26
78
45
51
93
32
69
9
63
27
60
2
30
19
43
21
10
54
61
68
6
50
91
13
46
12
16
94
5
20
81
44
14

> <PUBCHEM_MMFF94_PARTIAL_CHARGES>
27
1 -0.02
10 0.45
11 0.27
16 0.27
17 0.27
18 0.3
19 0.27
2 -0.36
20 0.46
21 0.05
22 -0.15
23 0.16
24 -0.15
25 0.39
26 0.28
27 0.28
28 0.28
3 -0.56
4 -0.81
48 0.15
49 0.15
5 -0.81
50 0.15
6 -0.57
7 -0.41
8 -0.62
9 0.27

> <PUBCHEM_EFFECTIVE_ROTOR_COUNT>
9.2

> <PUBCHEM_PHARMACOPHORE_FEATURES>
8
1 3 acceptor
1 4 cation
1 5 cation
3 6 7 20 cation
5 1 6 7 18 20 rings
5 4 10 11 14 15 rings
6 5 9 12 13 16 17 rings
6 8 21 22 23 24 25 rings

> <PUBCHEM_HEAVY_ATOM_COUNT>
28

> <PUBCHEM_ATOM_DEF_STEREO_COUNT>
1

> <PUBCHEM_ATOM_UDEF_STEREO_COUNT>
0

> <PUBCHEM_BOND_DEF_STEREO_COUNT>
0

> <PUBCHEM_BOND_UDEF_STEREO_COUNT>
0

> <PUBCHEM_ISOTOPIC_ATOM_COUNT>
0

> <PUBCHEM_COMPONENT_COUNT>
1

> <PUBCHEM_CACTVS_TAUTO_COUNT>
1

> <PUBCHEM_CONFORMER_ID>
02BA9A0400000001

> <PUBCHEM_MMFF94_ENERGY>
52.1123

> <PUBCHEM_FEATURE_SELFOVERLAP>
40.598

> <PUBCHEM_SHAPE_FINGERPRINT>
10319926 262 18202285801358610776
11089746 13 11023814056006371762
11103572 155 18270123388703489038
11135926 11 15647052630053304032
11315181 36 18412261718537067589
11545043 162 18060136539898833576
11552529 35 18413107269064772121
12522641 68 17100565086839247900
12616971 3 17822305565035934788
12633257 1 17059228088974261787
13009979 54 18264497346337451549
13583140 156 17203326689316857349
13782708 43 18335413570296958754
14344974 204 18271246118618785238
14705955 166 17131288874257274553
14844126 61 18411707595395093651
14849402 71 18335145341179899740
14856354 85 18272373048910810732
15021287 119 17530973470929877820
15183329 4 17240204331468114698
15326921 28 17977382729032491657
15348495 7 18131631180042138600
15537594 2 17894918377705979130
17093844 174 18059850628210713864
17324776 126 17698144481090278486
1754908 1 18339627977303033498
17780758 139 18413671301196932193
21360442 33 17261584597238285039
21814621 53 17703231707549557770
22956985 138 17981884456475581865
23081809 10 17894640253721800100
23522609 53 17970943044775028428
23523787 8 17757225433718659743
2838139 119 10231746804289904226
397830 11 18201430429052603608
4073 2 18202004283738117486
4169191 19 13470392397755077882
4403749 210 18130213913838054254
44880568 143 7853568037866868458
4616759 239 17988917821999325066
484985 159 18408597076974111839
4938544 92 18342175518756590857
5104073 3 18271807951800873304
5364581 5 18059569247887210760
58260988 114 17168728417804194561
6009941 240 17917714544058844736
6691757 9 18343025446325650393
68570916 9 18409451410583608316
7970288 3 18193276523372107159
9953998 17 18342738494490099392

> <PUBCHEM_SHAPE_MULTIPOLES>
533.71
19.7
3.83
1.56
52.71
2.99
0.07
10.23
-8.84
-10.85
0.13
-0.01
-0.58
-1.81

> <PUBCHEM_SHAPE_SELFOVERLAP>
1125.054

> <PUBCHEM_SHAPE_VOLUME>
302

> <PUBCHEM_COORDINATE_TYPE>
2
5
10

$$$$
