11879564
  -OEChem-12032416283D

 53 57  0     1  0  0  0  0  0999 V2000
   -1.9148   -2.9196    0.1818 O   0  0  0  0  0  0  0  0  0  0  0  0
   -1.6248   -0.4700   -1.7693 O   0  0  0  0  0  0  0  0  0  0  0  0
    2.9219   -0.8090   -0.3764 O   0  0  0  0  0  0  0  0  0  0  0  0
   -6.3227   -0.8205   -1.0763 O   0  0  0  0  0  0  0  0  0  0  0  0
   -5.4300    2.0860    0.6523 O   0  0  0  0  0  0  0  0  0  0  0  0
    0.8910   -1.3161    0.7394 N   0  0  0  0  0  0  0  0  0  0  0  0
   -4.2767   -0.1590   -0.2077 N   0  0  0  0  0  0  0  0  0  0  0  0
    0.4492   -1.3797    1.9989 N   0  0  0  0  0  0  0  0  0  0  0  0
    2.5993   -0.7920    1.9547 N   0  0  0  0  0  0  0  0  0  0  0  0
    1.5013   -1.0577    2.7414 N   0  0  0  0  0  0  0  0  0  0  0  0
    6.2850    2.6390   -0.3758 N   0  0  0  0  0  0  0  0  0  0  0  0
   -1.2240   -0.7156   -0.4090 C   0  0  1  0  0  0  0  0  0  0  0  0
   -2.3180   -1.5423    0.2381 C   0  0  1  0  0  0  0  0  0  0  0  0
    0.0003   -1.6110   -0.3860 C   0  0  2  0  0  0  0  0  0  0  0  0
   -3.5278   -1.3141   -0.6400 C   0  0  2  0  0  0  0  0  0  0  0  0
   -0.6002   -3.0125   -0.3839 C   0  0  0  0  0  0  0  0  0  0  0  0
   -2.9002   -1.0839   -2.0022 C   0  0  0  0  0  0  0  0  0  0  0  0
    2.1965   -0.9593    0.7161 C   0  0  0  0  0  0  0  0  0  0  0  0
   -5.6315   -0.0085   -0.4669 C   0  0  0  0  0  0  0  0  0  0  0  0
   -6.2512    1.2500    0.0221 C   0  0  0  0  0  0  0  0  0  0  0  0
    4.2592   -0.4389   -0.3408 C   0  0  0  0  0  0  0  0  0  0  0  0
   -7.5145    1.6694   -0.0771 C   0  0  0  0  0  0  0  0  0  0  0  0
   -7.5116    2.9297    0.5669 C   0  0  0  0  0  0  0  0  0  0  0  0
    4.5850    0.9033   -0.3765 C   0  0  0  0  0  0  0  0  0  0  0  0
   -6.2204    3.1377    0.9929 C   0  0  0  0  0  0  0  0  0  0  0  0
    5.2256   -1.4239   -0.2708 C   0  0  0  0  0  0  0  0  0  0  0  0
    5.9290    1.2748   -0.3406 C   0  0  0  0  0  0  0  0  0  0  0  0
    6.5696   -1.0523   -0.2347 C   0  0  0  0  0  0  0  0  0  0  0  0
    6.9213    0.2969   -0.2697 C   0  0  0  0  0  0  0  0  0  0  0  0
    5.3945    3.6442    0.1696 C   0  0  0  0  0  0  0  0  0  0  0  0
    7.5397    3.0551   -0.9704 C   0  0  0  0  0  0  0  0  0  0  0  0
   -1.0838    0.2601    0.0674 H   0  0  0  0  0  0  0  0  0  0  0  0
   -2.4783   -1.2916    1.2917 H   0  0  0  0  0  0  0  0  0  0  0  0
    0.6102   -1.4848   -1.2884 H   0  0  0  0  0  0  0  0  0  0  0  0
   -4.2002   -2.1783   -0.6715 H   0  0  0  0  0  0  0  0  0  0  0  0
   -0.0129   -3.7416    0.1825 H   0  0  0  0  0  0  0  0  0  0  0  0
   -0.7157   -3.3854   -1.4076 H   0  0  0  0  0  0  0  0  0  0  0  0
   -3.4938   -0.4457   -2.6636 H   0  0  0  0  0  0  0  0  0  0  0  0
   -2.7154   -2.0345   -2.5146 H   0  0  0  0  0  0  0  0  0  0  0  0
   -3.7801    0.5933    0.2621 H   0  0  0  0  0  0  0  0  0  0  0  0
   -8.3538    1.1707   -0.5397 H   0  0  0  0  0  0  0  0  0  0  0  0
    3.7902    1.6403   -0.4443 H   0  0  0  0  0  0  0  0  0  0  0  0
   -8.3460    3.6024    0.7034 H   0  0  0  0  0  0  0  0  0  0  0  0
    4.9539   -2.4748   -0.2438 H   0  0  0  0  0  0  0  0  0  0  0  0
   -5.7283    3.9395    1.5240 H   0  0  0  0  0  0  0  0  0  0  0  0
    7.3417   -1.8139   -0.1769 H   0  0  0  0  0  0  0  0  0  0  0  0
    7.9763    0.5523   -0.2279 H   0  0  0  0  0  0  0  0  0  0  0  0
    5.9308    4.5778    0.3741 H   0  0  0  0  0  0  0  0  0  0  0  0
    4.5902    3.8747   -0.5369 H   0  0  0  0  0  0  0  0  0  0  0  0
    4.9560    3.3192    1.1200 H   0  0  0  0  0  0  0  0  0  0  0  0
    8.3710    2.8921   -0.2766 H   0  0  0  0  0  0  0  0  0  0  0  0
    7.7396    2.5162   -1.9036 H   0  0  0  0  0  0  0  0  0  0  0  0
    7.5243    4.1219   -1.2204 H   0  0  0  0  0  0  0  0  0  0  0  0
  1 13  1  0  0  0  0
  1 16  1  0  0  0  0
  2 12  1  0  0  0  0
  2 17  1  0  0  0  0
  3 18  1  0  0  0  0
  3 21  1  0  0  0  0
  4 19  2  0  0  0  0
  5 20  1  0  0  0  0
  5 25  1  0  0  0  0
  6  8  1  0  0  0  0
  6 14  1  0  0  0  0
  6 18  1  0  0  0  0
  7 15  1  0  0  0  0
  7 19  1  0  0  0  0
  7 40  1  0  0  0  0
  8 10  2  0  0  0  0
  9 10  1  0  0  0  0
  9 18  2  0  0  0  0
 11 27  1  0  0  0  0
 11 30  1  0  0  0  0
 11 31  1  0  0  0  0
 12 13  1  0  0  0  0
 12 14  1  0  0  0  0
 12 32  1  0  0  0  0
 13 15  1  0  0  0  0
 13 33  1  0  0  0  0
 14 16  1  0  0  0  0
 14 34  1  0  0  0  0
 15 17  1  0  0  0  0
 15 35  1  0  0  0  0
 16 36  1  0  0  0  0
 16 37  1  0  0  0  0
 17 38  1  0  0  0  0
 17 39  1  0  0  0  0
 19 20  1  0  0  0  0
 20 22  2  0  0  0  0
 21 24  1  0  0  0  0
 21 26  2  0  0  0  0
 22 23  1  0  0  0  0
 22 41  1  0  0  0  0
 23 25  2  0  0  0  0
 23 43  1  0  0  0  0
 24 27  2  0  0  0  0
 24 42  1  0  0  0  0
 25 45  1  0  0  0  0
 26 28  1  0  0  0  0
 26 44  1  0  0  0  0
 27 29  1  0  0  0  0
 28 29  2  0  0  0  0
 28 46  1  0  0  0  0
 29 47  1  0  0  0  0
 30 48  1  0  0  0  0
 30 49  1  0  0  0  0
 30 50  1  0  0  0  0
 31 51  1  0  0  0  0
 31 52  1  0  0  0  0
 31 53  1  0  0  0  0
M  END
> <PUBCHEM_COMPOUND_CID>
11879564

> <PUBCHEM_CONFORMER_RMSD>
1

> <PUBCHEM_CONFORMER_DIVERSEORDER>
1
107
65
101
97
44
53
167
177
67
113
134
128
149
109
127
99
79
171
150
33
94
31
160
70
47
153
82
174
98
168
35
105
20
39
48
24
77
175
126
164
179
173
9
158
140
123
121
74
162
152
91
95
34
32
93
119
196
75
170
178
50
3
147
124
187
106
139
194
49
154
144
72
41
13
6
15
191
102
18
58
111
117
71
52
183
189
61
129
43
85
104
68
148
138
163
36
157
96
116
23
185
11
188
146
88
38
135
156
110
122
25
5
21
90
37
130
83
186
136
7
190
181
172
112
108
19
132
8
57
59
143
115
131
14
103
63
42
169
80
151
87
180
166
4
81
192
17
56
120
142
27
141
54
60
84
92
76
73
176
51
118
137
114
69
22
62
46
182
100
133
12
40
66
16
30
86
125
184
193
28
159
64
10
26
195
2
155
45
78
55
89
29
161
145
165

> <PUBCHEM_MMFF94_PARTIAL_CHARGES>
38
1 -0.56
11 -0.84
12 0.28
13 0.28
14 0.26
15 0.3
16 0.28
17 0.28
18 0.25
19 0.71
2 -0.56
20 0.05
21 0.08
22 -0.15
23 -0.15
24 -0.15
25 -0.01
26 -0.15
27 0.1
28 -0.15
29 -0.15
3 -0.15
30 0.37
31 0.37
4 -0.57
40 0.37
41 0.15
42 0.15
43 0.15
44 0.15
45 0.15
46 0.15
47 0.15
5 -0.28
6 0.31
7 -0.73
8 -0.42
9 -0.34

> <PUBCHEM_EFFECTIVE_ROTOR_COUNT>
8.2

> <PUBCHEM_PHARMACOPHORE_FEATURES>
12
1 1 acceptor
1 11 cation
1 2 acceptor
1 4 acceptor
1 5 acceptor
1 7 donor
3 6 9 18 cation
5 1 12 13 14 16 rings
5 2 12 13 15 17 rings
5 5 20 22 23 25 rings
5 6 8 9 10 18 rings
6 21 24 26 27 28 29 rings

> <PUBCHEM_HEAVY_ATOM_COUNT>
31

> <PUBCHEM_ATOM_DEF_STEREO_COUNT>
4

> <PUBCHEM_ATOM_UDEF_STEREO_COUNT>
0

> <PUBCHEM_BOND_DEF_STEREO_COUNT>
0

> <PUBCHEM_BOND_UDEF_STEREO_COUNT>
0

> <PUBCHEM_ISOTOPIC_ATOM_COUNT>
0

> <PUBCHEM_COMPONENT_COUNT>
1

> <PUBCHEM_CACTVS_TAUTO_COUNT>
2

> <PUBCHEM_CONFORMER_ID>
00B5448C00000001

> <PUBCHEM_MMFF94_ENERGY>
85.2592

> <PUBCHEM_FEATURE_SELFOVERLAP>
61.59

> <PUBCHEM_SHAPE_FINGERPRINT>
10 15 14418140616506695926
10280341 67 18270666671595545080
10670039 82 18201994392444226465
10674148 151 18411981322240486210
10816530 90 18341885299395472656
11408170 253 18059019384731185305
11646440 116 16877662353402765276
12166972 35 11023818474942735451
12717326 120 11675174605229977440
12717326 69 11530478913389909952
12895837 130 18118408573412477556
13540713 4 15624506160415397207
14251757 52 18409728443551103336
14394314 77 18409733954575399829
14415361 349 10879707745860883432
14930077 153 18201439207486124041
15064981 194 18044111257035423854
15183329 4 15913325763140574483
15276724 80 18335416825128393100
15357212 105 16155706633790210452
15840311 113 18260835869232099565
16992727 255 18130509647536910912
16994733 274 18410008866561740936
17913733 40 16877941620318178715
19438510 23 18187365453959420416
20691028 202 18410854403819875924
20715895 44 18342179955942773046
21136928 87 12042132135929782007
21298829 104 18408889572462623908
21307412 95 14117522077188655821
21424621 283 18408606971771406090
21585482 111 18191307074919425501
21781051 124 13696157237557839402
22122407 14 18410865360239120473
23559900 14 14045161026463395307
3178227 256 15647345121499750662
3633792 109 18202571666578005150
3918712 181 18268146458127684945
392239 28 15936697042377102907
4098825 35 18272369733206562206
4339292 15 13110699233587303452
4366758 26 18269846332805430025
44555599 121 18341898480670910040
5104073 3 17676480696608779834
5223283 242 18266467495360706302
563151 74 17095527258025822289
57035037 87 17845922010423913464
5718773 13 9295289430375727741
5911458 16 18411422791339329753
6328613 192 18412826893325622881
636775 72 18268988863969422784
6695519 79 16877933919990371475
9689198 14 18335427854688246115
9980921 221 16701753665586885849

> <PUBCHEM_SHAPE_MULTIPOLES>
578.73
23.54
3.76
1.44
4.38
3
-0.61
24.9
3.17
-0.12
-0.2
0.08
-0.52
-2.83

> <PUBCHEM_SHAPE_SELFOVERLAP>
1266.359

> <PUBCHEM_SHAPE_VOLUME>
315.4

> <PUBCHEM_COORDINATE_TYPE>
2
5
10

$$$$
