45360605
  -OEChem-12032416173D

 74 75  0     1  0  0  0  0  0999 V2000
   -3.9523   -0.0137   -0.9835 S   0  0  0  0  0  0  0  0  0  0  0  0
   -0.0611   -1.3508   -0.4509 O   0  0  0  0  0  0  0  0  0  0  0  0
   -0.1099    1.7669    0.3226 O   0  0  0  0  0  0  0  0  0  0  0  0
    2.0729   -1.2622   -2.6181 O   0  0  0  0  0  0  0  0  0  0  0  0
   -1.7074    4.1087    1.4284 O   0  0  0  0  0  0  0  0  0  0  0  0
    1.5430   -3.9478   -2.3436 O   0  0  0  0  0  0  0  0  0  0  0  0
    0.4082    5.3167    0.1504 O   0  0  0  0  0  0  0  0  0  0  0  0
   -4.1594   -1.3962   -0.5952 O   0  0  0  0  0  0  0  0  0  0  0  0
   -4.4935    1.0612   -0.1733 O   0  0  0  0  0  0  0  0  0  0  0  0
    0.7071   -3.4809    2.6334 O   0  0  0  0  0  0  0  0  0  0  0  0
    2.3050    0.8148    1.3819 O   0  0  0  0  0  0  0  0  0  0  0  0
   -2.2722    0.2529   -1.2545 N   0  0  0  0  0  0  0  0  0  0  0  0
   -1.2677   -2.3863    2.0834 N   0  0  0  0  0  0  0  0  0  0  0  0
    3.9920    1.1507   -0.1807 N   0  0  0  0  0  0  0  0  0  0  0  0
   -0.1035   -0.7576   -1.7688 C   0  0  1  0  0  0  0  0  0  0  0  0
   -1.4554    2.1980    0.0148 C   0  0  1  0  0  0  0  0  0  0  0  0
    0.7077   -1.6737   -2.6785 C   0  0  2  0  0  0  0  0  0  0  0  0
   -1.4440    3.7212    0.0803 C   0  0  2  0  0  0  0  0  0  0  0  0
    0.5342   -3.0198   -2.0061 C   0  0  2  0  0  0  0  0  0  0  0  0
   -0.0103    4.0419   -0.2882 C   0  0  2  0  0  0  0  0  0  0  0  0
   -1.5643   -0.6475   -2.1833 C   0  0  0  0  0  0  0  0  0  0  0  0
   -1.8116    1.6633   -1.3656 C   0  0  0  0  0  0  0  0  0  0  0  0
    0.5819   -2.6347   -0.5372 C   0  0  2  0  0  0  0  0  0  0  0  0
    0.7417    2.9228    0.4120 C   0  0  2  0  0  0  0  0  0  0  0  0
   -0.1289   -3.6246    0.3683 C   0  0  0  0  0  0  0  0  0  0  0  0
    2.0885    2.6158   -0.2180 C   0  0  0  0  0  0  0  0  0  0  0  0
   -4.6009    0.1805   -2.6300 C   0  0  0  0  0  0  0  0  0  0  0  0
   -0.1570   -3.1733    1.8169 C   0  0  0  0  0  0  0  0  0  0  0  0
    2.7794    1.4314    0.4318 C   0  0  0  0  0  0  0  0  0  0  0  0
   -1.5423   -1.8240    3.3858 C   0  0  0  0  0  0  0  0  0  0  0  0
    4.8580    0.0732    0.2400 C   0  0  0  0  0  0  0  0  0  0  0  0
   -0.8638   -0.4681    3.5365 C   0  0  0  0  0  0  0  0  0  0  0  0
   -3.0451   -1.7172    3.6102 C   0  0  0  0  0  0  0  0  0  0  0  0
    5.6220   -0.4944   -0.9498 C   0  0  0  0  0  0  0  0  0  0  0  0
    5.8090    0.5527    1.3288 C   0  0  0  0  0  0  0  0  0  0  0  0
    0.3829    0.2175   -1.6964 H   0  0  0  0  0  0  0  0  0  0  0  0
   -2.1078    1.7747    0.7860 H   0  0  0  0  0  0  0  0  0  0  0  0
    0.4013   -1.6678   -3.7284 H   0  0  0  0  0  0  0  0  0  0  0  0
   -2.1790    4.2184   -0.5589 H   0  0  0  0  0  0  0  0  0  0  0  0
   -0.4413   -3.4481   -2.2656 H   0  0  0  0  0  0  0  0  0  0  0  0
    0.1211    3.9785   -1.3752 H   0  0  0  0  0  0  0  0  0  0  0  0
   -1.6497   -0.2699   -3.2085 H   0  0  0  0  0  0  0  0  0  0  0  0
   -2.0320   -1.6374   -2.1459 H   0  0  0  0  0  0  0  0  0  0  0  0
   -2.6291    2.2543   -1.7955 H   0  0  0  0  0  0  0  0  0  0  0  0
   -0.9783    1.7719   -2.0669 H   0  0  0  0  0  0  0  0  0  0  0  0
    1.6166   -2.5087   -0.1928 H   0  0  0  0  0  0  0  0  0  0  0  0
    0.8817    3.1504    1.4769 H   0  0  0  0  0  0  0  0  0  0  0  0
    0.3626   -4.6035    0.3283 H   0  0  0  0  0  0  0  0  0  0  0  0
   -1.1631   -3.7753    0.0328 H   0  0  0  0  0  0  0  0  0  0  0  0
    2.7483    3.4882   -0.1510 H   0  0  0  0  0  0  0  0  0  0  0  0
    1.9565    2.3651   -1.2784 H   0  0  0  0  0  0  0  0  0  0  0  0
    2.1306   -0.3819   -3.0274 H   0  0  0  0  0  0  0  0  0  0  0  0
   -2.6239    3.8537    1.6303 H   0  0  0  0  0  0  0  0  0  0  0  0
    1.5283   -4.0555   -3.3098 H   0  0  0  0  0  0  0  0  0  0  0  0
   -0.1899    5.9723   -0.2470 H   0  0  0  0  0  0  0  0  0  0  0  0
   -5.6858    0.0624   -2.5748 H   0  0  0  0  0  0  0  0  0  0  0  0
   -4.3624    1.1783   -3.0006 H   0  0  0  0  0  0  0  0  0  0  0  0
   -4.1854   -0.5919   -3.2788 H   0  0  0  0  0  0  0  0  0  0  0  0
   -1.8841   -2.1285    1.3176 H   0  0  0  0  0  0  0  0  0  0  0  0
    4.3195    1.7624   -0.9233 H   0  0  0  0  0  0  0  0  0  0  0  0
   -1.1269   -2.5010    4.1420 H   0  0  0  0  0  0  0  0  0  0  0  0
    4.2298   -0.7228    0.6584 H   0  0  0  0  0  0  0  0  0  0  0  0
   -1.0479   -0.0458    4.5297 H   0  0  0  0  0  0  0  0  0  0  0  0
    0.2198   -0.5546    3.4014 H   0  0  0  0  0  0  0  0  0  0  0  0
   -1.2312    0.2437    2.7890 H   0  0  0  0  0  0  0  0  0  0  0  0
   -3.5115   -1.0548    2.8720 H   0  0  0  0  0  0  0  0  0  0  0  0
   -3.5219   -2.6992    3.5186 H   0  0  0  0  0  0  0  0  0  0  0  0
   -3.2655   -1.3248    4.6083 H   0  0  0  0  0  0  0  0  0  0  0  0
    6.2541   -1.3347   -0.6446 H   0  0  0  0  0  0  0  0  0  0  0  0
    4.9301   -0.8529   -1.7197 H   0  0  0  0  0  0  0  0  0  0  0  0
    6.2628    0.2654   -1.4110 H   0  0  0  0  0  0  0  0  0  0  0  0
    5.2550    0.9287    2.1958 H   0  0  0  0  0  0  0  0  0  0  0  0
    6.4561   -0.2621    1.6701 H   0  0  0  0  0  0  0  0  0  0  0  0
    6.4469    1.3673    0.9680 H   0  0  0  0  0  0  0  0  0  0  0  0
  1  8  2  0  0  0  0
  1  9  2  0  0  0  0
  1 12  1  0  0  0  0
  1 27  1  0  0  0  0
  2 15  1  0  0  0  0
  2 23  1  0  0  0  0
  3 16  1  0  0  0  0
  3 24  1  0  0  0  0
  4 17  1  0  0  0  0
  4 52  1  0  0  0  0
  5 18  1  0  0  0  0
  5 53  1  0  0  0  0
  6 19  1  0  0  0  0
  6 54  1  0  0  0  0
  7 20  1  0  0  0  0
  7 55  1  0  0  0  0
 10 28  2  0  0  0  0
 11 29  2  0  0  0  0
 12 21  1  0  0  0  0
 12 22  1  0  0  0  0
 13 28  1  0  0  0  0
 13 30  1  0  0  0  0
 13 59  1  0  0  0  0
 14 29  1  0  0  0  0
 14 31  1  0  0  0  0
 14 60  1  0  0  0  0
 15 17  1  0  0  0  0
 15 21  1  0  0  0  0
 15 36  1  0  0  0  0
 16 18  1  0  0  0  0
 16 22  1  0  0  0  0
 16 37  1  0  0  0  0
 17 19  1  0  0  0  0
 17 38  1  0  0  0  0
 18 20  1  0  0  0  0
 18 39  1  0  0  0  0
 19 23  1  0  0  0  0
 19 40  1  0  0  0  0
 20 24  1  0  0  0  0
 20 41  1  0  0  0  0
 21 42  1  0  0  0  0
 21 43  1  0  0  0  0
 22 44  1  0  0  0  0
 22 45  1  0  0  0  0
 23 25  1  0  0  0  0
 23 46  1  0  0  0  0
 24 26  1  0  0  0  0
 24 47  1  0  0  0  0
 25 28  1  0  0  0  0
 25 48  1  0  0  0  0
 25 49  1  0  0  0  0
 26 29  1  0  0  0  0
 26 50  1  0  0  0  0
 26 51  1  0  0  0  0
 27 56  1  0  0  0  0
 27 57  1  0  0  0  0
 27 58  1  0  0  0  0
 30 32  1  0  0  0  0
 30 33  1  0  0  0  0
 30 61  1  0  0  0  0
 31 34  1  0  0  0  0
 31 35  1  0  0  0  0
 31 62  1  0  0  0  0
 32 63  1  0  0  0  0
 32 64  1  0  0  0  0
 32 65  1  0  0  0  0
 33 66  1  0  0  0  0
 33 67  1  0  0  0  0
 33 68  1  0  0  0  0
 34 69  1  0  0  0  0
 34 70  1  0  0  0  0
 34 71  1  0  0  0  0
 35 72  1  0  0  0  0
 35 73  1  0  0  0  0
 35 74  1  0  0  0  0
M  END
> <PUBCHEM_COMPOUND_CID>
45360605

> <PUBCHEM_CONFORMER_RMSD>
1.2

> <PUBCHEM_CONFORMER_DIVERSEORDER>
1
49
120
109
113
105
123
88
54
50
99
111
76
5
44
20
28
125
122
16
87
118
19
100
117
25
48
65
21
82
59
64
112
94
93
96
83
27
98
36
110
74
38
124
73
52
97
92
17
95
108
103
78
4
41
71
45
75
85
72
51
106
57
42
13
26
77
61
56
91
3
84
37
107
34
29
121
11
90
104
18
116
47
58
63
14
79
6
80
39
30
86
89
31
81
126
15
62
69
68
53
67
32
10
35
43
7
60
55
115
12
40
70
9
24
101
33
22
102
66
46
23
119
8
114
2

> <PUBCHEM_MMFF94_PARTIAL_CHARGES>
37
1 1.33
10 -0.57
11 -0.57
12 -0.85
13 -0.73
14 -0.73
15 0.28
16 0.28
17 0.28
18 0.28
19 0.28
2 -0.56
20 0.28
21 0.36
22 0.36
23 0.28
24 0.28
25 0.06
26 0.06
27 0.11
28 0.57
29 0.57
3 -0.56
30 0.3
31 0.3
4 -0.68
5 -0.68
52 0.4
53 0.4
54 0.4
55 0.4
59 0.37
6 -0.68
60 0.37
7 -0.68
8 -0.65
9 -0.65

> <PUBCHEM_EFFECTIVE_ROTOR_COUNT>
15

> <PUBCHEM_PHARMACOPHORE_FEATURES>
20
1 10 acceptor
1 11 acceptor
1 13 donor
1 14 donor
1 2 acceptor
1 3 acceptor
1 4 acceptor
1 4 donor
1 5 acceptor
1 5 donor
1 6 acceptor
1 6 donor
1 7 acceptor
1 7 donor
1 8 acceptor
1 9 acceptor
3 30 32 33 hydrophobe
3 31 34 35 hydrophobe
5 2 15 17 19 23 rings
5 3 16 18 20 24 rings

> <PUBCHEM_HEAVY_ATOM_COUNT>
35

> <PUBCHEM_ATOM_DEF_STEREO_COUNT>
8

> <PUBCHEM_ATOM_UDEF_STEREO_COUNT>
0

> <PUBCHEM_BOND_DEF_STEREO_COUNT>
0

> <PUBCHEM_BOND_UDEF_STEREO_COUNT>
0

> <PUBCHEM_ISOTOPIC_ATOM_COUNT>
0

> <PUBCHEM_COMPONENT_COUNT>
1

> <PUBCHEM_CACTVS_TAUTO_COUNT>
3

> <PUBCHEM_CONFORMER_ID>
02B425DD00000001

> <PUBCHEM_MMFF94_ENERGY>
71.7008

> <PUBCHEM_FEATURE_SELFOVERLAP>
101.555

> <PUBCHEM_SHAPE_FINGERPRINT>
10032420 55 17970601083219681405
12058002 1 18042987401142916636
12156800 1 17318215733102992418
12788726 201 18340754997653221864
15513586 35 15953782142749288682
17974551 9 17533488186696959026
20764821 26 17973764386656622065
229495 10 17259626370220538403
25265897 201 17124757972155491123
3383291 50 18338503227667119274
35225 105 17749657597419924490
445580 42 18188194503766501664
469060 322 18201168697212370556

> <PUBCHEM_SHAPE_MULTIPOLES>
650.5
7.55
5.97
3.57
7.48
3.52
2.09
0.94
-1.06
-0.3
1.29
-2.52
-3.85
1.94

> <PUBCHEM_SHAPE_SELFOVERLAP>
1297.95

> <PUBCHEM_SHAPE_VOLUME>
387.7

> <PUBCHEM_COORDINATE_TYPE>
2
5
10

$$$$
