11882034
  -OEChem-12032416123D

 67 70  0     1  0  0  0  0  0999 V2000
   -3.1066   -0.0680    1.3641 O   0  0  0  0  0  0  0  0  0  0  0  0
   -6.0425    0.9512    1.1093 O   0  0  0  0  0  0  0  0  0  0  0  0
    0.5576    2.7422   -1.6634 O   0  0  0  0  0  0  0  0  0  0  0  0
   -4.2938   -3.5071   -0.2564 O   0  0  0  0  0  0  0  0  0  0  0  0
    6.6727    1.5193    0.2000 O   0  0  0  0  0  0  0  0  0  0  0  0
   -4.2089    2.0115    0.1759 N   0  0  0  0  0  0  0  0  0  0  0  0
   -1.0717    2.3072   -0.0814 N   0  0  0  0  0  0  0  0  0  0  0  0
   -2.7767   -1.2438   -0.6178 N   0  0  0  0  0  0  0  0  0  0  0  0
    1.1279    1.9169    0.4590 N   0  0  0  0  0  0  0  0  0  0  0  0
    1.7584   -1.0121   -1.8112 N   0  0  0  0  0  0  0  0  0  0  0  0
   -2.9120   -4.1140    1.4751 N   0  0  0  0  0  0  0  0  0  0  0  0
   -2.1999    2.7007   -0.8878 C   0  0  1  0  0  0  0  0  0  0  0  0
   -3.8140    0.9133   -0.6939 C   0  0  1  0  0  0  0  0  0  0  0  0
   -2.7922    1.5159   -1.6556 C   0  0  0  0  0  0  0  0  0  0  0  0
   -3.3655    3.1883   -0.0330 C   0  0  0  0  0  0  0  0  0  0  0  0
   -3.2074   -0.1714    0.1444 C   0  0  0  0  0  0  0  0  0  0  0  0
   -5.3548    1.9620    0.9553 C   0  0  0  0  0  0  0  0  0  0  0  0
   -2.1356   -2.4089   -0.0521 C   0  0  2  0  0  0  0  0  0  0  0  0
    0.2521    2.3577   -0.5371 C   0  0  0  0  0  0  0  0  0  0  0  0
   -1.1791   -3.0842   -1.0428 C   0  0  0  0  0  0  0  0  0  0  0  0
   -5.7289    3.2496    1.6452 C   0  0  0  0  0  0  0  0  0  0  0  0
    0.1479   -2.3882   -1.1481 C   0  0  0  0  0  0  0  0  0  0  0  0
   -3.2402   -3.3709    0.3608 C   0  0  0  0  0  0  0  0  0  0  0  0
    1.3071   -2.6503   -0.3656 C   0  0  0  0  0  0  0  0  0  0  0  0
    0.4565   -1.3762   -2.0276 C   0  0  0  0  0  0  0  0  0  0  0  0
    2.3028   -1.7735   -0.8016 C   0  0  0  0  0  0  0  0  0  0  0  0
    1.6058   -3.5521    0.6750 C   0  0  0  0  0  0  0  0  0  0  0  0
    2.5373    1.8172    0.3937 C   0  0  0  0  0  0  0  0  0  0  0  0
    3.5874   -1.7534   -0.2468 C   0  0  0  0  0  0  0  0  0  0  0  0
    2.8865   -3.5433    1.2395 C   0  0  0  0  0  0  0  0  0  0  0  0
    3.8606   -2.6569    0.7842 C   0  0  0  0  0  0  0  0  0  0  0  0
    3.2553    1.3508    1.4950 C   0  0  0  0  0  0  0  0  0  0  0  0
    3.2091    2.1840   -0.7724 C   0  0  0  0  0  0  0  0  0  0  0  0
    4.6451    1.2513    1.4302 C   0  0  0  0  0  0  0  0  0  0  0  0
    4.5989    2.0847   -0.8372 C   0  0  0  0  0  0  0  0  0  0  0  0
    5.3169    1.6183    0.2640 C   0  0  0  0  0  0  0  0  0  0  0  0
    7.3438    1.0327    1.3613 C   0  0  0  0  0  0  0  0  0  0  0  0
   -1.8661    3.4862   -1.5744 H   0  0  0  0  0  0  0  0  0  0  0  0
   -4.6908    0.5107   -1.2137 H   0  0  0  0  0  0  0  0  0  0  0  0
   -3.3275    1.9035   -2.5322 H   0  0  0  0  0  0  0  0  0  0  0  0
   -2.0296    0.8205   -2.0179 H   0  0  0  0  0  0  0  0  0  0  0  0
   -3.9662    3.9225   -0.5815 H   0  0  0  0  0  0  0  0  0  0  0  0
   -3.0646    3.6213    0.9258 H   0  0  0  0  0  0  0  0  0  0  0  0
   -1.2483    1.9155    0.8387 H   0  0  0  0  0  0  0  0  0  0  0  0
   -2.9902   -1.2570   -1.6112 H   0  0  0  0  0  0  0  0  0  0  0  0
   -1.5940   -2.0933    0.8491 H   0  0  0  0  0  0  0  0  0  0  0  0
   -0.9998   -4.1244   -0.7405 H   0  0  0  0  0  0  0  0  0  0  0  0
   -1.6393   -3.1427   -2.0385 H   0  0  0  0  0  0  0  0  0  0  0  0
   -4.9569    3.5254    2.3682 H   0  0  0  0  0  0  0  0  0  0  0  0
   -5.8608    4.0502    0.9129 H   0  0  0  0  0  0  0  0  0  0  0  0
   -6.6735    3.1150    2.1805 H   0  0  0  0  0  0  0  0  0  0  0  0
    0.7096    1.6302    1.3404 H   0  0  0  0  0  0  0  0  0  0  0  0
   -0.1316   -0.8813   -2.7879 H   0  0  0  0  0  0  0  0  0  0  0  0
    2.2495   -0.2894   -2.3190 H   0  0  0  0  0  0  0  0  0  0  0  0
    0.8579   -4.2485    1.0431 H   0  0  0  0  0  0  0  0  0  0  0  0
   -2.0269   -4.0079    1.9604 H   0  0  0  0  0  0  0  0  0  0  0  0
   -3.5554   -4.8038    1.8487 H   0  0  0  0  0  0  0  0  0  0  0  0
    4.3533   -1.0828   -0.6175 H   0  0  0  0  0  0  0  0  0  0  0  0
    3.1228   -4.2371    2.0420 H   0  0  0  0  0  0  0  0  0  0  0  0
    4.8504   -2.6702    1.2331 H   0  0  0  0  0  0  0  0  0  0  0  0
    2.7426    1.0599    2.4084 H   0  0  0  0  0  0  0  0  0  0  0  0
    2.7238    2.5515   -1.6654 H   0  0  0  0  0  0  0  0  0  0  0  0
    5.1399    0.8796    2.3209 H   0  0  0  0  0  0  0  0  0  0  0  0
    5.1179    2.3703   -1.7482 H   0  0  0  0  0  0  0  0  0  0  0  0
    8.4148    1.0189    1.1339 H   0  0  0  0  0  0  0  0  0  0  0  0
    7.0526    0.0021    1.5916 H   0  0  0  0  0  0  0  0  0  0  0  0
    7.2070    1.7037    2.2161 H   0  0  0  0  0  0  0  0  0  0  0  0
  1 16  2  0  0  0  0
  2 17  2  0  0  0  0
  3 19  2  0  0  0  0
  4 23  2  0  0  0  0
  5 36  1  0  0  0  0
  5 37  1  0  0  0  0
  6 13  1  0  0  0  0
  6 15  1  0  0  0  0
  6 17  1  0  0  0  0
  7 12  1  0  0  0  0
  7 19  1  0  0  0  0
  7 44  1  0  0  0  0
  8 16  1  0  0  0  0
  8 18  1  0  0  0  0
  8 45  1  0  0  0  0
  9 19  1  0  0  0  0
  9 28  1  0  0  0  0
  9 52  1  0  0  0  0
 10 25  1  0  0  0  0
 10 26  1  0  0  0  0
 10 54  1  0  0  0  0
 11 23  1  0  0  0  0
 11 56  1  0  0  0  0
 11 57  1  0  0  0  0
 12 14  1  0  0  0  0
 12 15  1  0  0  0  0
 12 38  1  0  0  0  0
 13 14  1  0  0  0  0
 13 16  1  0  0  0  0
 13 39  1  0  0  0  0
 14 40  1  0  0  0  0
 14 41  1  0  0  0  0
 15 42  1  0  0  0  0
 15 43  1  0  0  0  0
 17 21  1  0  0  0  0
 18 20  1  0  0  0  0
 18 23  1  0  0  0  0
 18 46  1  0  0  0  0
 20 22  1  0  0  0  0
 20 47  1  0  0  0  0
 20 48  1  0  0  0  0
 21 49  1  0  0  0  0
 21 50  1  0  0  0  0
 21 51  1  0  0  0  0
 22 24  1  0  0  0  0
 22 25  2  0  0  0  0
 24 26  1  0  0  0  0
 24 27  2  0  0  0  0
 25 53  1  0  0  0  0
 26 29  2  0  0  0  0
 27 30  1  0  0  0  0
 27 55  1  0  0  0  0
 28 32  2  0  0  0  0
 28 33  1  0  0  0  0
 29 31  1  0  0  0  0
 29 58  1  0  0  0  0
 30 31  2  0  0  0  0
 30 59  1  0  0  0  0
 31 60  1  0  0  0  0
 32 34  1  0  0  0  0
 32 61  1  0  0  0  0
 33 35  2  0  0  0  0
 33 62  1  0  0  0  0
 34 36  2  0  0  0  0
 34 63  1  0  0  0  0
 35 36  1  0  0  0  0
 35 64  1  0  0  0  0
 37 65  1  0  0  0  0
 37 66  1  0  0  0  0
 37 67  1  0  0  0  0
M  END
> <PUBCHEM_COMPOUND_CID>
11882034

> <PUBCHEM_CONFORMER_RMSD>
1.2

> <PUBCHEM_CONFORMER_DIVERSEORDER>
1
204
151
199
102
37
96
101
203
54
134
129
110
180
25
39
140
206
72
181
195
114
213
170
88
68
108
189
215
109
148
118
36
174
155
112
93
38
212
52
178
27
133
79
59
164
201
197
157
26
45
98
44
80
221
100
184
216
117
219
84
61
94
14
4
30
218
143
198
53
209
7
186
97
65
92
120
137
173
149
77
153
130
12
28
208
55
147
107
91
163
126
138
210
51
85
116
136
132
156
21
179
8
188
60
172
160
135
128
71
220
166
144
29
57
154
127
104
34
33
190
168
193
211
200
123
31
22
194
141
63
2
125
43
103
207
171
182
177
17
146
183
49
9
142
131
185
40
58
82
69
90
20
222
76
161
124
214
89
3
169
159
152
42
202
176
6
187
145
106
73
83
205
139
47
67
113
75
158
162
41
18
46
115
196
175
167
105
119
191
86
121
19
99
62
15
64
81
70
50
192
78
23
150
111
10
66
24
217
122
87
16
5
56
165
13
11
95
32
74
48
35

> <PUBCHEM_MMFF94_PARTIAL_CHARGES>
50
1 -0.57
10 0.03
11 -0.8
12 0.3
13 0.36
15 0.3
16 0.57
17 0.57
18 0.36
19 0.69
2 -0.57
20 0.18
21 0.06
22 -0.18
23 0.57
25 -0.3
26 -0.15
27 -0.15
28 0.12
29 -0.15
3 -0.57
30 -0.15
31 -0.15
32 -0.15
33 -0.15
34 -0.15
35 -0.15
36 0.08
37 0.28
4 -0.57
44 0.37
45 0.37
5 -0.36
52 0.37
53 0.15
54 0.27
55 0.15
56 0.37
57 0.37
58 0.15
59 0.15
6 -0.66
60 0.15
61 0.15
62 0.15
63 0.15
64 0.15
7 -0.73
8 -0.73
9 -0.55

> <PUBCHEM_EFFECTIVE_ROTOR_COUNT>
13

> <PUBCHEM_PHARMACOPHORE_FEATURES>
15
1 1 acceptor
1 10 cation
1 10 donor
1 11 donor
1 2 acceptor
1 3 acceptor
1 4 acceptor
1 5 acceptor
1 7 donor
1 8 donor
1 9 donor
5 10 22 24 25 26 rings
5 6 12 13 14 15 rings
6 24 26 27 29 30 31 rings
6 28 32 33 34 35 36 rings

> <PUBCHEM_HEAVY_ATOM_COUNT>
37

> <PUBCHEM_ATOM_DEF_STEREO_COUNT>
3

> <PUBCHEM_ATOM_UDEF_STEREO_COUNT>
0

> <PUBCHEM_BOND_DEF_STEREO_COUNT>
0

> <PUBCHEM_BOND_UDEF_STEREO_COUNT>
0

> <PUBCHEM_ISOTOPIC_ATOM_COUNT>
0

> <PUBCHEM_COMPONENT_COUNT>
1

> <PUBCHEM_CACTVS_TAUTO_COUNT>
12

> <PUBCHEM_CONFORMER_ID>
00B54E3200000001

> <PUBCHEM_MMFF94_ENERGY>
94.9763

> <PUBCHEM_FEATURE_SELFOVERLAP>
76.268

> <PUBCHEM_SHAPE_FINGERPRINT>
10675989 125 17620751683003445060
11513181 2 18060415807437058414
12422481 6 18268404916505726850
12633257 1 18268988679121668607
12788726 201 17833283286527386444
13140716 1 18411980230474936798
13726171 33 17979100458579797852
14725015 67 18052254287073853531
14790565 3 18192711366258617668
15274700 242 17897695835485826216
15420108 30 18201714054884925943
16112460 7 18199754647939109776
20764821 26 18336539439258250455
3052486 1 18264212581400098356
338550 245 18335136519120966076
3411729 13 18271529693432829300
392239 28 18195518199488010863
4093350 32 17131837504436542772
4144715 1 18411707616733799506
469060 322 18119820358979790339
508706 21 18340209681991083791
6669772 16 18261387797982655323

> <PUBCHEM_SHAPE_MULTIPOLES>
702.21
13.28
5.89
1.6
4.66
4.02
0.11
-9.72
-6.42
-2.52
-0.74
-0.06
-0.08
-0.51

> <PUBCHEM_SHAPE_SELFOVERLAP>
1509.889

> <PUBCHEM_SHAPE_VOLUME>
387.1

> <PUBCHEM_COORDINATE_TYPE>
2
5
10

$$$$
