40777708
  -OEChem-12032416173D

 64 66  0     1  0  0  0  0  0999 V2000
    5.3516   -0.8031    1.4127 O   0  0  0  0  0  0  0  0  0  0  0  0
    8.9593    3.0123    1.2400 O   0  0  0  0  0  0  0  0  0  0  0  0
   10.5645    2.1016   -0.0836 O   0  0  0  0  0  0  0  0  0  0  0  0
    4.1338   -1.0345   -0.5490 N   0  0  0  0  0  0  0  0  0  0  0  0
   -2.6848   -0.7493    0.1097 N   0  0  0  0  0  0  0  0  0  0  0  0
   -2.4777   -1.8847    0.7984 N   0  0  0  0  0  0  0  0  0  0  0  0
    0.8700   -1.1231   -0.6929 C   0  0  2  0  0  0  0  0  0  0  0  0
    1.8797   -1.0843    0.4730 C   0  0  0  0  0  0  0  0  0  0  0  0
    3.1025   -1.8771   -0.0051 C   0  0  1  0  0  0  0  0  0  0  0  0
   -0.5696   -1.1715   -0.2350 C   0  0  0  0  0  0  0  0  0  0  0  0
    1.3221   -2.3250   -1.4706 C   0  0  0  0  0  0  0  0  0  0  0  0
    2.5400   -2.7293   -1.0947 C   0  0  0  0  0  0  0  0  0  0  0  0
   -1.5734   -0.2809   -0.5276 C   0  0  0  0  0  0  0  0  0  0  0  0
   -1.1838   -2.1377    0.5840 C   0  0  0  0  0  0  0  0  0  0  0  0
   -7.8391    1.6278    0.0763 C   0  0  0  0  0  0  0  0  0  0  0  0
   -3.9529   -0.1675    0.0996 C   0  0  0  0  0  0  0  0  0  0  0  0
   -1.5654    0.9496   -1.3446 C   0  0  0  0  0  0  0  0  0  0  0  0
   -0.5691   -3.3319    1.1902 C   0  0  0  0  0  0  0  0  0  0  0  0
    5.1874   -0.5619    0.2198 C   0  0  0  0  0  0  0  0  0  0  0  0
   -6.4855    1.0019    0.0846 C   0  0  0  0  0  0  0  0  0  0  0  0
   -4.3744    0.5691   -1.0074 C   0  0  0  0  0  0  0  0  0  0  0  0
   -4.7976   -0.3192    1.1992 C   0  0  0  0  0  0  0  0  0  0  0  0
    6.1172    0.3274   -0.5887 C   0  0  0  0  0  0  0  0  0  0  0  0
   -5.6407    1.1537   -1.0149 C   0  0  0  0  0  0  0  0  0  0  0  0
   -6.0639    0.2655    1.1918 C   0  0  0  0  0  0  0  0  0  0  0  0
   -8.7049    1.0876   -1.1040 C   0  0  0  0  0  0  0  0  0  0  0  0
   -7.7452    3.1774   -0.0801 C   0  0  0  0  0  0  0  0  0  0  0  0
   -8.6964    1.3909    1.3639 C   0  0  0  0  0  0  0  0  0  0  0  0
    7.2960    0.8744    0.2139 C   0  0  0  0  0  0  0  0  0  0  0  0
    8.2175    1.7559   -0.6315 C   0  0  0  0  0  0  0  0  0  0  0  0
    9.3828    2.2857    0.1725 C   0  0  0  0  0  0  0  0  0  0  0  0
    1.0253   -0.2450   -1.3316 H   0  0  0  0  0  0  0  0  0  0  0  0
    2.1267   -0.0498    0.7415 H   0  0  0  0  0  0  0  0  0  0  0  0
    1.4834   -1.5475    1.3825 H   0  0  0  0  0  0  0  0  0  0  0  0
    3.5078   -2.4853    0.8104 H   0  0  0  0  0  0  0  0  0  0  0  0
    0.7498   -2.7864   -2.2632 H   0  0  0  0  0  0  0  0  0  0  0  0
    3.0644   -3.5633   -1.5393 H   0  0  0  0  0  0  0  0  0  0  0  0
    4.0651   -0.7421   -1.5204 H   0  0  0  0  0  0  0  0  0  0  0  0
   -1.8463    0.7507   -2.3829 H   0  0  0  0  0  0  0  0  0  0  0  0
   -2.1514    1.7679   -0.9171 H   0  0  0  0  0  0  0  0  0  0  0  0
   -0.5457    1.3515   -1.3914 H   0  0  0  0  0  0  0  0  0  0  0  0
   -0.0414   -3.0706    2.1124 H   0  0  0  0  0  0  0  0  0  0  0  0
   -1.3308   -4.0755    1.4518 H   0  0  0  0  0  0  0  0  0  0  0  0
    0.1318   -3.8262    0.5139 H   0  0  0  0  0  0  0  0  0  0  0  0
   -3.8329    0.6268   -1.9411 H   0  0  0  0  0  0  0  0  0  0  0  0
   -4.4934   -0.8774    2.0814 H   0  0  0  0  0  0  0  0  0  0  0  0
    6.4895   -0.2572   -1.4388 H   0  0  0  0  0  0  0  0  0  0  0  0
    5.5263    1.1600   -0.9897 H   0  0  0  0  0  0  0  0  0  0  0  0
   -5.9543    1.7007   -1.8995 H   0  0  0  0  0  0  0  0  0  0  0  0
   -6.6785    0.1186    2.0730 H   0  0  0  0  0  0  0  0  0  0  0  0
   -8.8105   -0.0020   -1.0423 H   0  0  0  0  0  0  0  0  0  0  0  0
   -8.2617    1.3221   -2.0780 H   0  0  0  0  0  0  0  0  0  0  0  0
   -9.7103    1.5242   -1.0933 H   0  0  0  0  0  0  0  0  0  0  0  0
   -8.7382    3.6413   -0.0589 H   0  0  0  0  0  0  0  0  0  0  0  0
   -7.1515    3.6151    0.7311 H   0  0  0  0  0  0  0  0  0  0  0  0
   -7.2742    3.4651   -1.0265 H   0  0  0  0  0  0  0  0  0  0  0  0
   -8.2062    1.8020    2.2541 H   0  0  0  0  0  0  0  0  0  0  0  0
   -8.8850    0.3239    1.5302 H   0  0  0  0  0  0  0  0  0  0  0  0
   -9.6747    1.8802    1.2825 H   0  0  0  0  0  0  0  0  0  0  0  0
    6.9136    1.4433    1.0708 H   0  0  0  0  0  0  0  0  0  0  0  0
    7.8738    0.0431    0.6379 H   0  0  0  0  0  0  0  0  0  0  0  0
    8.6213    1.1775   -1.4705 H   0  0  0  0  0  0  0  0  0  0  0  0
    7.6750    2.6092   -1.0532 H   0  0  0  0  0  0  0  0  0  0  0  0
    9.7105    3.3601    1.7664 H   0  0  0  0  0  0  0  0  0  0  0  0
  1 19  2  0  0  0  0
  2 31  1  0  0  0  0
  2 64  1  0  0  0  0
  3 31  2  0  0  0  0
  4  9  1  0  0  0  0
  4 19  1  0  0  0  0
  4 38  1  0  0  0  0
  5  6  1  0  0  0  0
  5 13  1  0  0  0  0
  5 16  1  0  0  0  0
  6 14  2  0  0  0  0
  7  8  1  0  0  0  0
  7 10  1  0  0  0  0
  7 11  1  0  0  0  0
  7 32  1  0  0  0  0
  8  9  1  0  0  0  0
  8 33  1  0  0  0  0
  8 34  1  0  0  0  0
  9 12  1  0  0  0  0
  9 35  1  0  0  0  0
 10 13  2  0  0  0  0
 10 14  1  0  0  0  0
 11 12  2  0  0  0  0
 11 36  1  0  0  0  0
 12 37  1  0  0  0  0
 13 17  1  0  0  0  0
 14 18  1  0  0  0  0
 15 20  1  0  0  0  0
 15 26  1  0  0  0  0
 15 27  1  0  0  0  0
 15 28  1  0  0  0  0
 16 21  2  0  0  0  0
 16 22  1  0  0  0  0
 17 39  1  0  0  0  0
 17 40  1  0  0  0  0
 17 41  1  0  0  0  0
 18 42  1  0  0  0  0
 18 43  1  0  0  0  0
 18 44  1  0  0  0  0
 19 23  1  0  0  0  0
 20 24  2  0  0  0  0
 20 25  1  0  0  0  0
 21 24  1  0  0  0  0
 21 45  1  0  0  0  0
 22 25  2  0  0  0  0
 22 46  1  0  0  0  0
 23 29  1  0  0  0  0
 23 47  1  0  0  0  0
 23 48  1  0  0  0  0
 24 49  1  0  0  0  0
 25 50  1  0  0  0  0
 26 51  1  0  0  0  0
 26 52  1  0  0  0  0
 26 53  1  0  0  0  0
 27 54  1  0  0  0  0
 27 55  1  0  0  0  0
 27 56  1  0  0  0  0
 28 57  1  0  0  0  0
 28 58  1  0  0  0  0
 28 59  1  0  0  0  0
 29 30  1  0  0  0  0
 29 60  1  0  0  0  0
 29 61  1  0  0  0  0
 30 31  1  0  0  0  0
 30 62  1  0  0  0  0
 30 63  1  0  0  0  0
M  END
> <PUBCHEM_COMPOUND_CID>
40777708

> <PUBCHEM_CONFORMER_RMSD>
1

> <PUBCHEM_CONFORMER_DIVERSEORDER>
10
22
98
114
38
86
24
51
89
40
27
95
48
69
113
56
124
103
37
104
43
97
50
72
91
54
47
84
128
88
52
13
36
9
64
75
101
5
32
121
92
93
68
85
123
110
107
102
16
105
45
28
126
108
111
117
53
35
82
25
63
29
23
20
58
125
18
57
106
67
60
34
21
19
112
41
116
4
6
30
99
77
120
61
118
73
79
83
66
3
2
39
109
11
96
94
76
12
26
119
90
14
31
65
87
1
78
15
46
17
49
74
71
81
59
44
33
62
122
100
115
55
129
80
42
8
7
127
70

> <PUBCHEM_MMFF94_PARTIAL_CHARGES>
34
1 -0.57
10 -0.18
11 -0.29
12 -0.29
13 -0.33
14 0.11
15 0.14
16 -0.02
17 0.18
18 0.18
19 0.57
2 -0.65
20 -0.14
21 -0.15
22 -0.15
23 0.06
24 -0.15
25 -0.15
3 -0.57
30 0.06
31 0.66
36 0.15
37 0.15
38 0.37
4 -0.73
45 0.15
46 0.15
49 0.15
5 0.59
50 0.15
6 -0.71
64 0.5
7 0.32
9 0.44

> <PUBCHEM_EFFECTIVE_ROTOR_COUNT>
9.6

> <PUBCHEM_PHARMACOPHORE_FEATURES>
10
1 1 acceptor
1 2 acceptor
1 3 acceptor
1 4 donor
1 6 acceptor
3 2 3 31 anion
4 15 26 27 28 hydrophobe
5 5 6 10 13 14 rings
5 7 8 9 11 12 rings
6 16 20 21 22 24 25 rings

> <PUBCHEM_HEAVY_ATOM_COUNT>
31

> <PUBCHEM_ATOM_DEF_STEREO_COUNT>
2

> <PUBCHEM_ATOM_UDEF_STEREO_COUNT>
0

> <PUBCHEM_BOND_DEF_STEREO_COUNT>
0

> <PUBCHEM_BOND_UDEF_STEREO_COUNT>
0

> <PUBCHEM_ISOTOPIC_ATOM_COUNT>
0

> <PUBCHEM_COMPONENT_COUNT>
1

> <PUBCHEM_CACTVS_TAUTO_COUNT>
2

> <PUBCHEM_CONFORMER_ID>
026E37EC0000000A

> <PUBCHEM_MMFF94_ENERGY>
80.9856

> <PUBCHEM_FEATURE_SELFOVERLAP>
50.805

> <PUBCHEM_SHAPE_FINGERPRINT>
10 15 17967254182508776539
10533779 47 16733255761071619368
10838868 160 18340760468724450608
10930396 42 17022617593784418421
11408170 108 11097846372200714248
11409948 8 18260558853127332859
11607047 141 17823130122054296754
12166972 35 9150588216416194855
12539765 74 18201442428337186799
12838862 33 17458059345102910783
13383665 225 15410067154157513329
13530399 1 17916875617125585665
13782708 43 8286192847165085359
14251920 17 18412262849009966557
14359421 15 11383845857215102500
14617042 71 18341898484749917752
14849402 71 18411702080541722649
15183329 4 14405186144722487607
15347590 135 15574704799638073280
15350500 55 18410575093738375192
1577012 14 18412256268977826262
1768 4 18411707578088753697
17852330 53 16443889567702314320
1818759 1 8214146265903326424
19301679 30 13407062649456212462
19302320 297 17967533519837285068
2026 5 9150908169767572200
20721686 146 18412547626652965708
21033648 29 18113624469012718582
21130935 74 8717668707096932733
21307412 95 12031495614786256461
21344244 78 15430040924852373814
21792965 169 12751239258948793018
21792965 326 17703236118054210513
22224240 67 18041282076473965299
23516275 100 18338516335507094876
23524908 199 17632588129010579532
23559900 14 12462128093418232955
23576562 1 16486395728631071832
24771293 8 18335139799948362437
25242607 90 10881402071445175164
25269216 80 16844999225890410023
2851757 41 8430324558719205144
306946 40 17603856785858878005
3383291 50 8430319030832434116
3711267 37 18341907289564957992
406291 66 8718559302941944220
4073 2 18411984642192800935
4339292 15 10375877359990600364
4403749 210 18410858806288494083
54039377 194 8862947178258814528
5718773 13 8790888480319235328
5758199 1 18335423422825581795
5937810 71 17917157087838717345
59682541 35 17821736031076730137
6327066 14 18272652376883934222
636775 72 18409167676159161993
6438161 24 9367341523040331174
6691757 9 16588581023486068979
9953998 17 17385443245300276570

> <PUBCHEM_SHAPE_MULTIPOLES>
605.41
31.97
3.28
1.28
36.1
0.09
-0.02
-40.76
-4.38
3.69
-0.35
-0.78
0.17
1.55

> <PUBCHEM_SHAPE_SELFOVERLAP>
1277.242

> <PUBCHEM_SHAPE_VOLUME>
343.5

> <PUBCHEM_COORDINATE_TYPE>
2
5
10

$$$$
