45784193
  -OEChem-12032416293D

 46 49  0     1  0  0  0  0  0999 V2000
    2.8596   -1.3089    0.7313 O   0  0  0  0  0  0  0  0  0  0  0  0
   -4.1843   -1.7860   -0.7017 O   0  0  0  0  0  0  0  0  0  0  0  0
   -1.6130    0.0411    0.0362 N   0  0  1  0  0  0  0  0  0  0  0  0
    2.5804    0.7844   -0.0916 N   0  0  0  0  0  0  0  0  0  0  0  0
    0.5545   -0.5179    0.7353 C   0  0  1  0  0  0  0  0  0  0  0  0
   -0.0660    0.4786    1.7298 C   0  0  0  0  0  0  0  0  0  0  0  0
   -0.3390   -0.4320   -0.5094 C   0  0  0  0  0  0  0  0  0  0  0  0
   -1.2488    1.0893    0.9895 C   0  0  0  0  0  0  0  0  0  0  0  0
   -2.5157    0.5228   -0.9989 C   0  0  0  0  0  0  0  0  0  0  0  0
    2.0157   -0.2829    0.4290 C   0  0  0  0  0  0  0  0  0  0  0  0
   -3.9394    0.5912   -0.5137 C   0  0  0  0  0  0  0  0  0  0  0  0
    3.9109    0.4454   -0.1422 C   0  0  0  0  0  0  0  0  0  0  0  0
    4.0857   -0.8354    0.3608 C   0  0  0  0  0  0  0  0  0  0  0  0
   -4.7062   -0.5670   -0.3881 C   0  0  0  0  0  0  0  0  0  0  0  0
   -4.4900    1.8309   -0.1887 C   0  0  0  0  0  0  0  0  0  0  0  0
    5.0326    1.1545   -0.5950 C   0  0  0  0  0  0  0  0  0  0  0  0
    5.3081   -1.4889    0.4553 C   0  0  0  0  0  0  0  0  0  0  0  0
    6.2846    0.5276   -0.5158 C   0  0  0  0  0  0  0  0  0  0  0  0
   -6.0237   -0.4857    0.0626 C   0  0  0  0  0  0  0  0  0  0  0  0
   -5.8077    1.9123    0.2620 C   0  0  0  0  0  0  0  0  0  0  0  0
    6.4170   -0.7677   -0.0007 C   0  0  0  0  0  0  0  0  0  0  0  0
   -6.5746    0.7539    0.3876 C   0  0  0  0  0  0  0  0  0  0  0  0
    7.4986    1.2570   -0.9901 C   0  0  0  0  0  0  0  0  0  0  0  0
   -5.0392   -2.9166   -0.5435 C   0  0  0  0  0  0  0  0  0  0  0  0
    0.4543   -1.5235    1.1683 H   0  0  0  0  0  0  0  0  0  0  0  0
   -0.4162   -0.0636    2.6171 H   0  0  0  0  0  0  0  0  0  0  0  0
    0.6348    1.2498    2.0667 H   0  0  0  0  0  0  0  0  0  0  0  0
   -0.4425   -1.4098   -0.9924 H   0  0  0  0  0  0  0  0  0  0  0  0
    0.0684    0.2738   -1.2457 H   0  0  0  0  0  0  0  0  0  0  0  0
   -0.9307    2.0109    0.4851 H   0  0  0  0  0  0  0  0  0  0  0  0
   -2.0616    1.3311    1.6815 H   0  0  0  0  0  0  0  0  0  0  0  0
   -2.1934    1.4910   -1.4060 H   0  0  0  0  0  0  0  0  0  0  0  0
   -2.4999   -0.1607   -1.8596 H   0  0  0  0  0  0  0  0  0  0  0  0
   -3.9041    2.7417   -0.2800 H   0  0  0  0  0  0  0  0  0  0  0  0
    4.9275    2.1578   -0.9956 H   0  0  0  0  0  0  0  0  0  0  0  0
    5.3996   -2.4911    0.8548 H   0  0  0  0  0  0  0  0  0  0  0  0
   -6.6791   -1.3410    0.1852 H   0  0  0  0  0  0  0  0  0  0  0  0
   -6.2364    2.8774    0.5155 H   0  0  0  0  0  0  0  0  0  0  0  0
    7.3981   -1.2357    0.0497 H   0  0  0  0  0  0  0  0  0  0  0  0
   -7.6005    0.8185    0.7388 H   0  0  0  0  0  0  0  0  0  0  0  0
    8.3755    0.9937   -0.3889 H   0  0  0  0  0  0  0  0  0  0  0  0
    7.3683    2.3415   -0.9075 H   0  0  0  0  0  0  0  0  0  0  0  0
    7.7008    1.0079   -2.0365 H   0  0  0  0  0  0  0  0  0  0  0  0
   -5.3286   -3.0609    0.5031 H   0  0  0  0  0  0  0  0  0  0  0  0
   -5.9042   -2.8661   -1.2135 H   0  0  0  0  0  0  0  0  0  0  0  0
   -4.4620   -3.7997   -0.8372 H   0  0  0  0  0  0  0  0  0  0  0  0
  1 10  1  0  0  0  0
  1 13  1  0  0  0  0
  2 14  1  0  0  0  0
  2 24  1  0  0  0  0
  3  7  1  0  0  0  0
  3  8  1  0  0  0  0
  3  9  1  0  0  0  0
  4 10  2  0  0  0  0
  4 12  1  0  0  0  0
  5  6  1  0  0  0  0
  5  7  1  0  0  0  0
  5 10  1  0  0  0  0
  5 25  1  0  0  0  0
  6  8  1  0  0  0  0
  6 26  1  0  0  0  0
  6 27  1  0  0  0  0
  7 28  1  0  0  0  0
  7 29  1  0  0  0  0
  8 30  1  0  0  0  0
  8 31  1  0  0  0  0
  9 11  1  0  0  0  0
  9 32  1  0  0  0  0
  9 33  1  0  0  0  0
 11 14  1  0  0  0  0
 11 15  2  0  0  0  0
 12 13  2  0  0  0  0
 12 16  1  0  0  0  0
 13 17  1  0  0  0  0
 14 19  2  0  0  0  0
 15 20  1  0  0  0  0
 15 34  1  0  0  0  0
 16 18  2  0  0  0  0
 16 35  1  0  0  0  0
 17 21  2  0  0  0  0
 17 36  1  0  0  0  0
 18 21  1  0  0  0  0
 18 23  1  0  0  0  0
 19 22  1  0  0  0  0
 19 37  1  0  0  0  0
 20 22  2  0  0  0  0
 20 38  1  0  0  0  0
 21 39  1  0  0  0  0
 22 40  1  0  0  0  0
 23 41  1  0  0  0  0
 23 42  1  0  0  0  0
 23 43  1  0  0  0  0
 24 44  1  0  0  0  0
 24 45  1  0  0  0  0
 24 46  1  0  0  0  0
M  END
> <PUBCHEM_COMPOUND_CID>
45784193

> <PUBCHEM_CONFORMER_RMSD>
0.8

> <PUBCHEM_CONFORMER_DIVERSEORDER>
1
90
47
64
67
84
75
69
65
66
54
80
92
32
73
89
91
85
19
40
30
82
98
79
81
45
49
22
56
94
68
6
41
100
25
104
74
72
83
63
76
71
38
88
53
78
61
95
33
87
70
24
48
99
8
86
50
7
9
36
29
18
96
3
4
77
2
105
10
55
102
42
101
31
103
51
12
37
59
46
26
23
44
28
58
43
5
21
97
57
15
106
20
60
11
17
14
39
52
27
13
35
93
16
34
62

> <PUBCHEM_MMFF94_PARTIAL_CHARGES>
30
1 -0.28
10 0.3
11 -0.14
12 0.23
13 0.14
14 0.08
15 -0.15
16 -0.15
17 -0.15
18 -0.14
19 -0.15
2 -0.36
20 -0.15
21 -0.15
22 -0.15
23 0.14
24 0.28
3 -0.81
34 0.15
35 0.15
36 0.15
37 0.15
38 0.15
39 0.15
4 -0.57
40 0.15
5 0.18
7 0.27
8 0.27
9 0.41

> <PUBCHEM_EFFECTIVE_ROTOR_COUNT>
5

> <PUBCHEM_PHARMACOPHORE_FEATURES>
6
1 2 acceptor
1 3 cation
5 1 4 10 12 13 rings
5 3 5 6 7 8 rings
6 11 14 15 19 20 22 rings
6 12 13 16 17 18 21 rings

> <PUBCHEM_HEAVY_ATOM_COUNT>
24

> <PUBCHEM_ATOM_DEF_STEREO_COUNT>
1

> <PUBCHEM_ATOM_UDEF_STEREO_COUNT>
0

> <PUBCHEM_BOND_DEF_STEREO_COUNT>
0

> <PUBCHEM_BOND_UDEF_STEREO_COUNT>
0

> <PUBCHEM_ISOTOPIC_ATOM_COUNT>
0

> <PUBCHEM_COMPONENT_COUNT>
1

> <PUBCHEM_CACTVS_TAUTO_COUNT>
1

> <PUBCHEM_CONFORMER_ID>
02BA9C8100000001

> <PUBCHEM_MMFF94_ENERGY>
62.1002

> <PUBCHEM_FEATURE_SELFOVERLAP>
30.566

> <PUBCHEM_SHAPE_FINGERPRINT>
10299344 5 18410575089459368531
10595046 47 18334292050317799970
11315181 36 18334013900637631181
11524674 6 16702018699703022487
11646440 116 15791455911344622212
12166972 35 18333453153486059364
12236239 1 18411418397687233206
12730499 353 17313106311480541810
12788726 201 17417247598982210491
12821665 9 18116438226594277055
13533116 47 18338232670718522506
13631057 29 18337106882438982091
13690498 29 18270673290456048591
14251752 14 18273494546254297232
14849402 71 18114189691294354260
14856354 85 18272937141905274655
14933364 13 18410294700671676876
15183329 4 18409726253101782540
15250474 111 18263626446987223611
15537594 2 16558746806516396518
1577012 14 18335417967921418110
16993438 75 17969231203374846963
17093844 174 17131824374710949483
17844677 252 18272089426545325913
18335252 98 18187653525974547795
20157964 124 18040437681718873986
21150785 3 18411141355470362420
21236236 1 18409729591025120787
21795232 338 18267875046306302547
220451 1 18409446972885275122
22224240 67 15791453733521928800
23035841 295 18341892983186260443
23081809 10 18187358831410149178
23198884 109 18259705584137039745
23516275 137 18196110875201375715
23522609 53 18190766200475309284
23536379 177 18408885109568960264
23559900 14 18202273727883665473
23569943 247 16807279195204554466
2838139 119 17167860885370020652
29717793 49 18201160962857017854
3004659 81 18412262801374929658
314173 85 15339116840287904633
335352 9 18343014494485956709
34797466 226 16558751239788049136
4073 2 17968101944950615250
4325135 7 18333450950029965405
4340502 62 15068341194706793808
5265222 85 18200313341511563631
542803 24 18410289194555005004
5758199 1 17967254204442393112
59682541 35 16153438259334251761
59755656 215 15769781221752288412
59755656 520 16588025714384501219
7495541 125 18201996676607094952
9996256 80 18261108569384544908

> <PUBCHEM_SHAPE_MULTIPOLES>
472.21
20.5
1.91
1.02
9.29
0.81
-0.18
-1.96
3.82
-2.35
0.24
0.14
-0.09
-1.63

> <PUBCHEM_SHAPE_SELFOVERLAP>
1030.555

> <PUBCHEM_SHAPE_VOLUME>
259.8

> <PUBCHEM_COORDINATE_TYPE>
2
5
10

$$$$
