51136752
  -OEChem-12032416143D

 65 67  0     1  0  0  0  0  0999 V2000
   -1.5238    4.8290   -0.4020 O   0  0  0  0  0  0  0  0  0  0  0  0
    5.2901    0.2763   -0.7884 O   0  0  0  0  0  0  0  0  0  0  0  0
    0.3630    5.0519    0.8514 O   0  0  0  0  0  0  0  0  0  0  0  0
    3.4192    0.6962    0.5156 N   0  0  0  0  0  0  0  0  0  0  0  0
    0.9213   -2.3346   -0.0394 N   0  0  0  0  0  0  0  0  0  0  0  0
    4.1503   -1.5108    0.0864 N   0  0  0  0  0  0  0  0  0  0  0  0
    0.9522    0.7825    0.7420 C   0  0  2  0  0  0  0  0  0  0  0  0
    1.0223    2.3187    0.5349 C   0  0  1  0  0  0  0  0  0  0  0  0
    2.2769    2.7321   -0.2560 C   0  0  0  0  0  0  0  0  0  0  0  0
    2.2770    0.2825    1.3434 C   0  0  0  0  0  0  0  0  0  0  0  0
    0.6107   -0.0040   -0.5289 C   0  0  0  0  0  0  0  0  0  0  0  0
    3.5457    2.1461    0.3614 C   0  0  0  0  0  0  0  0  0  0  0  0
   -0.2367    2.8949   -0.1124 C   0  0  0  0  0  0  0  0  0  0  0  0
    0.0742   -1.3663   -0.1609 C   0  0  0  0  0  0  0  0  0  0  0  0
   -1.3874   -1.5267    0.0493 C   0  0  0  0  0  0  0  0  0  0  0  0
    4.3522   -0.1495   -0.1062 C   0  0  0  0  0  0  0  0  0  0  0  0
   -0.3932    4.3604    0.1860 C   0  0  0  0  0  0  0  0  0  0  0  0
   -1.8027   -2.6655    0.7509 C   0  0  0  0  0  0  0  0  0  0  0  0
   -0.7623   -3.6245    1.2485 C   0  0  0  0  0  0  0  0  0  0  0  0
    0.3939   -3.6706    0.2583 C   0  0  0  0  0  0  0  0  0  0  0  0
   -2.3225   -0.5957   -0.4068 C   0  0  0  0  0  0  0  0  0  0  0  0
   -3.6786   -0.8011   -0.1501 C   0  0  0  0  0  0  0  0  0  0  0  0
   -4.6853    0.1873   -0.6348 C   0  0  0  0  0  0  0  0  0  0  0  0
   -3.1616   -2.8545    1.0173 C   0  0  0  0  0  0  0  0  0  0  0  0
   -4.0973   -1.9253    0.5623 C   0  0  0  0  0  0  0  0  0  0  0  0
   -4.1028    1.4071   -1.4227 C   0  0  0  0  0  0  0  0  0  0  0  0
   -5.7123   -0.4793   -1.6018 C   0  0  0  0  0  0  0  0  0  0  0  0
   -5.4884    0.8043    0.5518 C   0  0  0  0  0  0  0  0  0  0  0  0
    5.0207   -2.5074   -0.4963 C   0  0  0  0  0  0  0  0  0  0  0  0
    4.6852   -2.7533   -1.9528 C   0  0  0  0  0  0  0  0  0  0  0  0
    0.1658    0.5959    1.4869 H   0  0  0  0  0  0  0  0  0  0  0  0
    1.1224    2.7522    1.5411 H   0  0  0  0  0  0  0  0  0  0  0  0
    2.1900    2.3813   -1.2924 H   0  0  0  0  0  0  0  0  0  0  0  0
    2.3737    3.8223   -0.2974 H   0  0  0  0  0  0  0  0  0  0  0  0
    2.2475   -0.7852    1.5470 H   0  0  0  0  0  0  0  0  0  0  0  0
    2.4256    0.7527    2.3249 H   0  0  0  0  0  0  0  0  0  0  0  0
    1.5037   -0.1511   -1.1498 H   0  0  0  0  0  0  0  0  0  0  0  0
   -0.0772    0.5270   -1.1826 H   0  0  0  0  0  0  0  0  0  0  0  0
    3.7217    2.5717    1.3564 H   0  0  0  0  0  0  0  0  0  0  0  0
    4.4090    2.4034   -0.2601 H   0  0  0  0  0  0  0  0  0  0  0  0
   -0.2203    2.7658   -1.2000 H   0  0  0  0  0  0  0  0  0  0  0  0
   -1.1216    2.3935    0.2960 H   0  0  0  0  0  0  0  0  0  0  0  0
   -1.1813   -4.6303    1.3647 H   0  0  0  0  0  0  0  0  0  0  0  0
   -0.4123   -3.2858    2.2310 H   0  0  0  0  0  0  0  0  0  0  0  0
    0.0882   -4.1500   -0.6802 H   0  0  0  0  0  0  0  0  0  0  0  0
    1.2024   -4.2788    0.6785 H   0  0  0  0  0  0  0  0  0  0  0  0
   -1.9980    0.2698   -0.9626 H   0  0  0  0  0  0  0  0  0  0  0  0
   -3.4985   -3.7232    1.5765 H   0  0  0  0  0  0  0  0  0  0  0  0
    3.3440   -1.8619    0.5830 H   0  0  0  0  0  0  0  0  0  0  0  0
   -5.1471   -2.1016    0.7790 H   0  0  0  0  0  0  0  0  0  0  0  0
   -4.9027    2.0839   -1.7474 H   0  0  0  0  0  0  0  0  0  0  0  0
   -3.4196    1.9986   -0.8025 H   0  0  0  0  0  0  0  0  0  0  0  0
   -3.5706    1.0874   -2.3262 H   0  0  0  0  0  0  0  0  0  0  0  0
   -6.4352    0.2520   -1.9816 H   0  0  0  0  0  0  0  0  0  0  0  0
   -5.2021   -0.9267   -2.4630 H   0  0  0  0  0  0  0  0  0  0  0  0
   -6.2846   -1.2724   -1.1082 H   0  0  0  0  0  0  0  0  0  0  0  0
   -6.0552    0.0451    1.1018 H   0  0  0  0  0  0  0  0  0  0  0  0
   -6.2081    1.5525    0.1998 H   0  0  0  0  0  0  0  0  0  0  0  0
   -4.8145    1.2947    1.2643 H   0  0  0  0  0  0  0  0  0  0  0  0
    4.8972   -3.4282    0.0823 H   0  0  0  0  0  0  0  0  0  0  0  0
    6.0599   -2.1761   -0.3983 H   0  0  0  0  0  0  0  0  0  0  0  0
   -1.6575    5.7850   -0.2274 H   0  0  0  0  0  0  0  0  0  0  0  0
    3.6455   -3.0790   -2.0644 H   0  0  0  0  0  0  0  0  0  0  0  0
    4.8145   -1.8464   -2.5523 H   0  0  0  0  0  0  0  0  0  0  0  0
    5.3341   -3.5307   -2.3676 H   0  0  0  0  0  0  0  0  0  0  0  0
  1 17  1  0  0  0  0
  1 62  1  0  0  0  0
  2 16  2  0  0  0  0
  3 17  2  0  0  0  0
  4 10  1  0  0  0  0
  4 12  1  0  0  0  0
  4 16  1  0  0  0  0
  5 14  2  0  0  0  0
  5 20  1  0  0  0  0
  6 16  1  0  0  0  0
  6 29  1  0  0  0  0
  6 49  1  0  0  0  0
  7  8  1  0  0  0  0
  7 10  1  0  0  0  0
  7 11  1  0  0  0  0
  7 31  1  0  0  0  0
  8  9  1  0  0  0  0
  8 13  1  0  0  0  0
  8 32  1  0  0  0  0
  9 12  1  0  0  0  0
  9 33  1  0  0  0  0
  9 34  1  0  0  0  0
 10 35  1  0  0  0  0
 10 36  1  0  0  0  0
 11 14  1  0  0  0  0
 11 37  1  0  0  0  0
 11 38  1  0  0  0  0
 12 39  1  0  0  0  0
 12 40  1  0  0  0  0
 13 17  1  0  0  0  0
 13 41  1  0  0  0  0
 13 42  1  0  0  0  0
 14 15  1  0  0  0  0
 15 18  2  0  0  0  0
 15 21  1  0  0  0  0
 18 19  1  0  0  0  0
 18 24  1  0  0  0  0
 19 20  1  0  0  0  0
 19 43  1  0  0  0  0
 19 44  1  0  0  0  0
 20 45  1  0  0  0  0
 20 46  1  0  0  0  0
 21 22  2  0  0  0  0
 21 47  1  0  0  0  0
 22 23  1  0  0  0  0
 22 25  1  0  0  0  0
 23 26  1  0  0  0  0
 23 27  1  0  0  0  0
 23 28  1  0  0  0  0
 24 25  2  0  0  0  0
 24 48  1  0  0  0  0
 25 50  1  0  0  0  0
 26 51  1  0  0  0  0
 26 52  1  0  0  0  0
 26 53  1  0  0  0  0
 27 54  1  0  0  0  0
 27 55  1  0  0  0  0
 27 56  1  0  0  0  0
 28 57  1  0  0  0  0
 28 58  1  0  0  0  0
 28 59  1  0  0  0  0
 29 30  1  0  0  0  0
 29 60  1  0  0  0  0
 29 61  1  0  0  0  0
 30 63  1  0  0  0  0
 30 64  1  0  0  0  0
 30 65  1  0  0  0  0
M  END
> <PUBCHEM_COMPOUND_CID>
51136752

> <PUBCHEM_CONFORMER_RMSD>
1

> <PUBCHEM_CONFORMER_DIVERSEORDER>
1
2
25
13
101
54
23
105
17
19
21
26
28
10
43
59
16
52
87
31
97
3
57
85
79
98
66
11
78
15
73
45
40
49
55
12
58
6
70
47
90
9
69
60
4
68
86
14
76
80
50
100
71
7
81
74
67
34
72
56
8
37
94
103
33
96
77
24
39
41
89
27
93
20
62
35
42
18
82
102
53
32
22
95
83
5
91
65
48
30
61
99
88
64
29
63
75
84
92
44
104
46
51
38
36

> <PUBCHEM_MMFF94_PARTIAL_CHARGES>
28
1 -0.65
10 0.3
11 0.06
12 0.3
13 0.06
14 0.3
15 0.09
16 0.69
17 0.66
18 -0.14
19 0.14
2 -0.57
20 0.25
21 -0.15
22 -0.14
23 0.14
24 -0.15
25 -0.15
29 0.3
3 -0.57
4 -0.66
47 0.15
48 0.15
49 0.37
5 -0.7
50 0.15
6 -0.73
62 0.5

> <PUBCHEM_EFFECTIVE_ROTOR_COUNT>
9.6

> <PUBCHEM_PHARMACOPHORE_FEATURES>
10
1 1 acceptor
1 2 acceptor
1 3 acceptor
1 5 acceptor
1 6 donor
3 1 3 17 anion
4 23 26 27 28 hydrophobe
6 15 18 21 22 24 25 rings
6 4 7 8 9 10 12 rings
6 5 14 15 18 19 20 rings

> <PUBCHEM_HEAVY_ATOM_COUNT>
30

> <PUBCHEM_ATOM_DEF_STEREO_COUNT>
2

> <PUBCHEM_ATOM_UDEF_STEREO_COUNT>
0

> <PUBCHEM_BOND_DEF_STEREO_COUNT>
0

> <PUBCHEM_BOND_UDEF_STEREO_COUNT>
0

> <PUBCHEM_ISOTOPIC_ATOM_COUNT>
0

> <PUBCHEM_COMPONENT_COUNT>
1

> <PUBCHEM_CACTVS_TAUTO_COUNT>
2

> <PUBCHEM_CONFORMER_ID>
030C48F000000001

> <PUBCHEM_MMFF94_ENERGY>
76.8425

> <PUBCHEM_FEATURE_SELFOVERLAP>
50.828

> <PUBCHEM_SHAPE_FINGERPRINT>
10190108 129 18049184184606129785
10675989 125 18408886231172544536
10693767 8 18130207295088502927
12166972 35 18059009601074155049
12403259 226 18191305086259233491
12596602 18 13840274662842248463
12645989 146 18343295977113949863
12788726 201 18409449146824191464
13140716 1 18336256907677309251
13402501 40 18335413600040073805
13642711 20 18265883670943495871
14251757 5 18261397771071010492
144659 178 18336275543815265548
14466204 15 18337093662033221065
14681490 219 18268988696327924839
14725015 67 18268140968990454962
14866123 147 17979078176378311810
14955137 171 18335154106721633097
15081414 286 18340494481520647992
15351339 4 18047179765859336283
17349148 13 15769786787476424902
17627616 140 17614282160900696587
19591789 44 18409726261696991857
20775438 99 16761087977688549527
21033648 29 17844799476658328291
21133410 127 17104514937272661357
21279426 13 18410575041729652751
21285901 2 18059861614953101406
21521239 73 18130209541614822447
23536364 44 18193829341053721749
23559900 14 18412265051721820186
24893992 56 18410011006510333033
350125 39 18047474706228588611
59755656 215 18263923242148390335
6287921 2 17107063634424751301
7399639 24 17041481085715878418

> <PUBCHEM_SHAPE_MULTIPOLES>
584.83
10.76
6.02
1.22
1.26
5.45
0.29
-3.86
3.86
-1.27
-0.98
0.15
-0.48
2.19

> <PUBCHEM_SHAPE_SELFOVERLAP>
1219.168

> <PUBCHEM_SHAPE_VOLUME>
330.9

> <PUBCHEM_COORDINATE_TYPE>
2
5
10

$$$$
