25313019
  -OEChem-12032416193D

 62 64  0     1  0  0  0  0  0999 V2000
    0.2552    3.4726   -1.4269 O   0  0  0  0  0  0  0  0  0  0  0  0
    2.3666   -4.8166   -0.4220 O   0  0  0  0  0  0  0  0  0  0  0  0
   -6.0650   -1.6569   -0.4016 O   0  0  0  0  0  0  0  0  0  0  0  0
   -5.9551    0.5394    0.1859 O   0  0  0  0  0  0  0  0  0  0  0  0
   -0.9158    2.2805    0.1807 N   0  0  0  0  0  0  0  0  0  0  0  0
    0.9470   -2.4160    0.1471 N   0  0  0  0  0  0  0  0  0  0  0  0
    1.4479    2.3265    0.1613 N   0  0  0  0  0  0  0  0  0  0  0  0
   -1.7512    0.1108    1.0407 C   0  0  2  0  0  0  0  0  0  0  0  0
   -3.1377    0.4419    0.4280 C   0  0  1  0  0  0  0  0  0  0  0  0
   -1.0065    1.4168    1.3670 C   0  0  0  0  0  0  0  0  0  0  0  0
   -3.0209    1.4210   -0.7545 C   0  0  0  0  0  0  0  0  0  0  0  0
   -0.8811   -0.7964    0.1628 C   0  0  0  0  0  0  0  0  0  0  0  0
   -2.2145    2.6622   -0.3757 C   0  0  0  0  0  0  0  0  0  0  0  0
   -3.9267   -0.8023    0.0214 C   0  0  0  0  0  0  0  0  0  0  0  0
    0.1191   -1.5731    1.0073 C   0  0  0  0  0  0  0  0  0  0  0  0
    2.7419    2.7140   -0.3551 C   0  0  0  0  0  0  0  0  0  0  0  0
    0.2612    2.7452   -0.4281 C   0  0  0  0  0  0  0  0  0  0  0  0
    3.7695    2.8431    0.7744 C   0  0  0  0  0  0  0  0  0  0  0  0
    3.2208    1.7353   -1.4326 C   0  0  0  0  0  0  0  0  0  0  0  0
    4.1785    1.4876    1.3507 C   0  0  0  0  0  0  0  0  0  0  0  0
    3.6306    0.3815   -0.8525 C   0  0  0  0  0  0  0  0  0  0  0  0
    4.6617    0.5352    0.2612 C   0  0  0  0  0  0  0  0  0  0  0  0
   -5.4036   -0.5264   -0.0430 C   0  0  0  0  0  0  0  0  0  0  0  0
    0.2452   -3.6611   -0.1948 C   0  0  0  0  0  0  0  0  0  0  0  0
    2.2295   -2.7228    0.7956 C   0  0  0  0  0  0  0  0  0  0  0  0
    1.1330   -4.5294   -1.0818 C   0  0  0  0  0  0  0  0  0  0  0  0
    3.0704   -3.6124   -0.1154 C   0  0  0  0  0  0  0  0  0  0  0  0
   -1.9437   -0.4090    1.9896 H   0  0  0  0  0  0  0  0  0  0  0  0
   -3.6979    0.9627    1.2189 H   0  0  0  0  0  0  0  0  0  0  0  0
   -1.5769    1.9817    2.1162 H   0  0  0  0  0  0  0  0  0  0  0  0
   -0.0437    1.2160    1.8328 H   0  0  0  0  0  0  0  0  0  0  0  0
   -4.0103    1.7343   -1.1045 H   0  0  0  0  0  0  0  0  0  0  0  0
   -2.5290    0.9206   -1.5985 H   0  0  0  0  0  0  0  0  0  0  0  0
   -0.3604   -0.2199   -0.6114 H   0  0  0  0  0  0  0  0  0  0  0  0
   -1.5126   -1.5104   -0.3707 H   0  0  0  0  0  0  0  0  0  0  0  0
   -2.0947    3.3043   -1.2537 H   0  0  0  0  0  0  0  0  0  0  0  0
   -2.7431    3.2468    0.3865 H   0  0  0  0  0  0  0  0  0  0  0  0
   -3.6088   -1.1709   -0.9601 H   0  0  0  0  0  0  0  0  0  0  0  0
   -3.7815   -1.5936    0.7664 H   0  0  0  0  0  0  0  0  0  0  0  0
   -0.3821   -2.1598    1.7880 H   0  0  0  0  0  0  0  0  0  0  0  0
    0.7573   -0.8478    1.5261 H   0  0  0  0  0  0  0  0  0  0  0  0
    2.6295    3.7015   -0.8197 H   0  0  0  0  0  0  0  0  0  0  0  0
    3.3738    3.4752    1.5785 H   0  0  0  0  0  0  0  0  0  0  0  0
    4.6648    3.3453    0.3862 H   0  0  0  0  0  0  0  0  0  0  0  0
    4.0848    2.1712   -1.9502 H   0  0  0  0  0  0  0  0  0  0  0  0
    2.4424    1.5840   -2.1900 H   0  0  0  0  0  0  0  0  0  0  0  0
    1.4428    1.6104    0.8731 H   0  0  0  0  0  0  0  0  0  0  0  0
    4.9760    1.6318    2.0888 H   0  0  0  0  0  0  0  0  0  0  0  0
    3.3354    1.0352    1.8860 H   0  0  0  0  0  0  0  0  0  0  0  0
    2.7388   -0.1219   -0.4693 H   0  0  0  0  0  0  0  0  0  0  0  0
    4.0383   -0.2525   -1.6477 H   0  0  0  0  0  0  0  0  0  0  0  0
    5.5999    0.9142   -0.1626 H   0  0  0  0  0  0  0  0  0  0  0  0
    4.8843   -0.4445    0.6984 H   0  0  0  0  0  0  0  0  0  0  0  0
   -0.6841   -3.4624   -0.7374 H   0  0  0  0  0  0  0  0  0  0  0  0
   -0.0080   -4.2189    0.7165 H   0  0  0  0  0  0  0  0  0  0  0  0
    2.0516   -3.2449    1.7453 H   0  0  0  0  0  0  0  0  0  0  0  0
    2.7876   -1.8101    1.0220 H   0  0  0  0  0  0  0  0  0  0  0  0
    0.6363   -5.4832   -1.2869 H   0  0  0  0  0  0  0  0  0  0  0  0
    1.3368   -4.0475   -2.0459 H   0  0  0  0  0  0  0  0  0  0  0  0
    3.3407   -3.0980   -1.0458 H   0  0  0  0  0  0  0  0  0  0  0  0
    4.0002   -3.8907    0.3910 H   0  0  0  0  0  0  0  0  0  0  0  0
   -7.0340   -1.5126   -0.4537 H   0  0  0  0  0  0  0  0  0  0  0  0
  1 17  2  0  0  0  0
  2 26  1  0  0  0  0
  2 27  1  0  0  0  0
  3 23  1  0  0  0  0
  3 62  1  0  0  0  0
  4 23  2  0  0  0  0
  5 10  1  0  0  0  0
  5 13  1  0  0  0  0
  5 17  1  0  0  0  0
  6 15  1  0  0  0  0
  6 24  1  0  0  0  0
  6 25  1  0  0  0  0
  7 16  1  0  0  0  0
  7 17  1  0  0  0  0
  7 47  1  0  0  0  0
  8  9  1  0  0  0  0
  8 10  1  0  0  0  0
  8 12  1  0  0  0  0
  8 28  1  0  0  0  0
  9 11  1  0  0  0  0
  9 14  1  0  0  0  0
  9 29  1  0  0  0  0
 10 30  1  0  0  0  0
 10 31  1  0  0  0  0
 11 13  1  0  0  0  0
 11 32  1  0  0  0  0
 11 33  1  0  0  0  0
 12 15  1  0  0  0  0
 12 34  1  0  0  0  0
 12 35  1  0  0  0  0
 13 36  1  0  0  0  0
 13 37  1  0  0  0  0
 14 23  1  0  0  0  0
 14 38  1  0  0  0  0
 14 39  1  0  0  0  0
 15 40  1  0  0  0  0
 15 41  1  0  0  0  0
 16 18  1  0  0  0  0
 16 19  1  0  0  0  0
 16 42  1  0  0  0  0
 18 20  1  0  0  0  0
 18 43  1  0  0  0  0
 18 44  1  0  0  0  0
 19 21  1  0  0  0  0
 19 45  1  0  0  0  0
 19 46  1  0  0  0  0
 20 22  1  0  0  0  0
 20 48  1  0  0  0  0
 20 49  1  0  0  0  0
 21 22  1  0  0  0  0
 21 50  1  0  0  0  0
 21 51  1  0  0  0  0
 22 52  1  0  0  0  0
 22 53  1  0  0  0  0
 24 26  1  0  0  0  0
 24 54  1  0  0  0  0
 24 55  1  0  0  0  0
 25 27  1  0  0  0  0
 25 56  1  0  0  0  0
 25 57  1  0  0  0  0
 26 58  1  0  0  0  0
 26 59  1  0  0  0  0
 27 60  1  0  0  0  0
 27 61  1  0  0  0  0
M  END
> <PUBCHEM_COMPOUND_CID>
25313019

> <PUBCHEM_CONFORMER_RMSD>
1

> <PUBCHEM_CONFORMER_DIVERSEORDER>
1
183
40
121
179
150
48
120
22
144
119
31
34
89
176
71
60
5
142
195
20
82
140
157
83
85
153
134
148
193
162
17
197
56
199
187
139
147
200
24
180
163
10
37
166
170
126
106
62
91
70
125
114
80
61
171
26
201
113
76
49
88
186
151
196
136
156
178
100
122
2
146
77
185
137
138
133
45
41
105
25
15
155
36
202
23
174
66
181
191
73
194
169
154
78
161
141
3
124
160
104
143
165
172
8
32
152
72
109
69
102
47
99
14
96
6
79
158
108
53
18
167
67
64
38
58
116
131
86
177
52
101
184
93
175
29
192
12
103
21
68
44
110
51
135
75
19
55
145
127
111
54
39
90
190
123
16
94
65
57
95
129
46
118
130
7
42
198
159
149
30
117
168
35
63
115
188
164
74
87
92
81
98
97
4
43
203
107
112
132
128
27
173
9
59
189
11
182
84
28
33
50
13

> <PUBCHEM_MMFF94_PARTIAL_CHARGES>
20
1 -0.57
10 0.3
13 0.3
14 0.06
15 0.27
16 0.3
17 0.69
2 -0.56
23 0.66
24 0.27
25 0.27
26 0.28
27 0.28
3 -0.65
4 -0.57
47 0.37
5 -0.66
6 -0.81
62 0.5
7 -0.73

> <PUBCHEM_EFFECTIVE_ROTOR_COUNT>
11.6

> <PUBCHEM_PHARMACOPHORE_FEATURES>
10
1 1 acceptor
1 2 acceptor
1 3 acceptor
1 4 acceptor
1 6 cation
1 7 donor
3 3 4 23 anion
6 16 18 19 20 21 22 rings
6 2 6 24 25 26 27 rings
6 5 8 9 10 11 13 rings

> <PUBCHEM_HEAVY_ATOM_COUNT>
27

> <PUBCHEM_ATOM_DEF_STEREO_COUNT>
2

> <PUBCHEM_ATOM_UDEF_STEREO_COUNT>
0

> <PUBCHEM_BOND_DEF_STEREO_COUNT>
0

> <PUBCHEM_BOND_UDEF_STEREO_COUNT>
0

> <PUBCHEM_ISOTOPIC_ATOM_COUNT>
0

> <PUBCHEM_COMPONENT_COUNT>
1

> <PUBCHEM_CACTVS_TAUTO_COUNT>
2

> <PUBCHEM_CONFORMER_ID>
01823EFB00000001

> <PUBCHEM_MMFF94_ENERGY>
38.8088

> <PUBCHEM_FEATURE_SELFOVERLAP>
50.803

> <PUBCHEM_SHAPE_FINGERPRINT>
10675989 125 16465010489769846927
11014199 57 17836934395260315754
11488393 25 18336273383552087555
11578080 2 16589970652197017325
12592029 89 18336266829320996201
12788726 201 17255967195882093110
1361 2 18338797917867595195
138480 1 18050851022774286346
14028597 1 17702967927742960643
14790565 3 18196370544801885017
15876981 60 17472439655186927086
16728300 4 17679267864153537746
19591789 44 17906174306326943419
19930381 70 18409730621104634550
20028762 73 18270679891050421959
20101258 96 17833008052238364035
20775438 99 17542743605429447653
20905425 154 18193842539962975484
21285901 2 17821442456802977405
22113638 7 18191864746030199476
23559900 14 18123176910460726507
23566358 2 18188199893665790077
3298306 158 18335702784039968915
338550 245 18048596220504369071
38695281 34 18339921627747207639
4017518 198 18270687597102543710
4280585 95 17686611351680874378
463206 1 18268708484076652847
484985 159 14139409772090253002
59755656 215 18335422356861159830
6138700 20 18335421270524636240
6287921 2 18198063573264680922
6700243 42 16909211533734582422

> <PUBCHEM_SHAPE_MULTIPOLES>
517.23
9.83
6.09
1.15
11.26
6.84
0.01
-1.29
0.04
-5.87
-1.59
-0.62
-0.35
0.31

> <PUBCHEM_SHAPE_SELFOVERLAP>
1046.668

> <PUBCHEM_SHAPE_VOLUME>
297.3

> <PUBCHEM_COORDINATE_TYPE>
2
5
10

$$$$
