28959930
  -OEChem-12032416413D

 68 71  0     1  0  0  0  0  0999 V2000
    8.8603   -0.2897   -0.9135 F   0  0  0  0  0  0  0  0  0  0  0  0
   -3.0349    3.0400   -1.6439 O   0  0  0  0  0  0  0  0  0  0  0  0
   -5.1926   -4.8922   -0.7097 O   0  0  0  0  0  0  0  0  0  0  0  0
   -6.4853   -3.0355   -0.4607 O   0  0  0  0  0  0  0  0  0  0  0  0
   -3.5247    1.3748   -0.1066 N   0  0  0  0  0  0  0  0  0  0  0  0
    0.7119   -1.2793    0.7596 N   0  0  0  0  0  0  0  0  0  0  0  0
    3.5014   -0.8414    0.3277 N   0  0  0  0  0  0  0  0  0  0  0  0
   -3.0606   -0.8266    0.9434 C   0  0  2  0  0  0  0  0  0  0  0  0
   -4.2374   -1.4212    0.1279 C   0  0  1  0  0  0  0  0  0  0  0  0
   -3.2862    0.6802    1.1632 C   0  0  0  0  0  0  0  0  0  0  0  0
   -4.4834   -0.6314   -1.1691 C   0  0  0  0  0  0  0  0  0  0  0  0
   -1.6819   -1.0732    0.3184 C   0  0  0  0  0  0  0  0  0  0  0  0
   -4.6487    0.8600   -0.8880 C   0  0  0  0  0  0  0  0  0  0  0  0
   -1.6435    2.9355    0.2843 C   0  0  0  0  0  0  0  0  0  0  0  0
   -4.0682   -2.9103   -0.1721 C   0  0  0  0  0  0  0  0  0  0  0  0
   -0.5932   -1.0598    1.3819 C   0  0  0  0  0  0  0  0  0  0  0  0
   -2.7809    2.4696   -0.5723 C   0  0  0  0  0  0  0  0  0  0  0  0
   -2.1179    4.0269    1.2505 C   0  0  0  0  0  0  0  0  0  0  0  0
   -0.5472    3.5700   -0.5729 C   0  0  0  0  0  0  0  0  0  0  0  0
   -1.2158    5.2297    0.9954 C   0  0  0  0  0  0  0  0  0  0  0  0
   -0.7825    5.0687   -0.4506 C   0  0  0  0  0  0  0  0  0  0  0  0
    1.6953   -1.7061    1.7623 C   0  0  0  0  0  0  0  0  0  0  0  0
    1.1768   -0.0565    0.0931 C   0  0  0  0  0  0  0  0  0  0  0  0
    3.0523   -1.9938    1.1149 C   0  0  0  0  0  0  0  0  0  0  0  0
    2.5157   -0.2898   -0.6105 C   0  0  0  0  0  0  0  0  0  0  0  0
   -5.3882   -3.5730   -0.4542 C   0  0  0  0  0  0  0  0  0  0  0  0
    4.8578   -0.7014    0.0138 C   0  0  0  0  0  0  0  0  0  0  0  0
    5.6583   -1.8336   -0.1385 C   0  0  0  0  0  0  0  0  0  0  0  0
    5.4094    0.5696   -0.1477 C   0  0  0  0  0  0  0  0  0  0  0  0
    7.0103   -1.6948   -0.4520 C   0  0  0  0  0  0  0  0  0  0  0  0
    6.7615    0.7084   -0.4610 C   0  0  0  0  0  0  0  0  0  0  0  0
    7.5619   -0.4238   -0.6131 C   0  0  0  0  0  0  0  0  0  0  0  0
   -3.0845   -1.3125    1.9289 H   0  0  0  0  0  0  0  0  0  0  0  0
   -5.1324   -1.2950    0.7551 H   0  0  0  0  0  0  0  0  0  0  0  0
   -4.2005    0.8186    1.7560 H   0  0  0  0  0  0  0  0  0  0  0  0
   -2.4941    1.1174    1.7672 H   0  0  0  0  0  0  0  0  0  0  0  0
   -5.3765   -0.9953   -1.6882 H   0  0  0  0  0  0  0  0  0  0  0  0
   -3.6379   -0.7743   -1.8542 H   0  0  0  0  0  0  0  0  0  0  0  0
   -1.5005   -0.3419   -0.4744 H   0  0  0  0  0  0  0  0  0  0  0  0
   -1.6460   -2.0540   -0.1678 H   0  0  0  0  0  0  0  0  0  0  0  0
   -4.7496    1.4035   -1.8326 H   0  0  0  0  0  0  0  0  0  0  0  0
   -5.5613    1.0416   -0.3082 H   0  0  0  0  0  0  0  0  0  0  0  0
   -1.1668    2.1035    0.8035 H   0  0  0  0  0  0  0  0  0  0  0  0
   -3.4172   -3.0689   -1.0388 H   0  0  0  0  0  0  0  0  0  0  0  0
   -3.6357   -3.4170    0.6987 H   0  0  0  0  0  0  0  0  0  0  0  0
   -0.8086   -1.8772    2.0830 H   0  0  0  0  0  0  0  0  0  0  0  0
   -0.6017   -0.1340    1.9692 H   0  0  0  0  0  0  0  0  0  0  0  0
   -2.0428    3.6991    2.2928 H   0  0  0  0  0  0  0  0  0  0  0  0
   -3.1652    4.3004    1.0737 H   0  0  0  0  0  0  0  0  0  0  0  0
   -0.5335    3.2390   -1.6161 H   0  0  0  0  0  0  0  0  0  0  0  0
    0.4347    3.3284   -0.1453 H   0  0  0  0  0  0  0  0  0  0  0  0
   -0.3421    5.1872    1.6568 H   0  0  0  0  0  0  0  0  0  0  0  0
   -1.7294    6.1788    1.1747 H   0  0  0  0  0  0  0  0  0  0  0  0
   -1.5827    5.3896   -1.1273 H   0  0  0  0  0  0  0  0  0  0  0  0
    0.1153    5.6491   -0.6817 H   0  0  0  0  0  0  0  0  0  0  0  0
    1.3564   -2.6238    2.2584 H   0  0  0  0  0  0  0  0  0  0  0  0
    1.8130   -0.9386    2.5394 H   0  0  0  0  0  0  0  0  0  0  0  0
    1.2862    0.7620    0.8179 H   0  0  0  0  0  0  0  0  0  0  0  0
    0.4708    0.2824   -0.6710 H   0  0  0  0  0  0  0  0  0  0  0  0
    3.7683   -2.2206    1.9147 H   0  0  0  0  0  0  0  0  0  0  0  0
    2.9709   -2.8781    0.4698 H   0  0  0  0  0  0  0  0  0  0  0  0
    2.3856   -0.9874   -1.4481 H   0  0  0  0  0  0  0  0  0  0  0  0
    2.8479    0.6648   -1.0346 H   0  0  0  0  0  0  0  0  0  0  0  0
   -6.0356   -5.3569   -0.8987 H   0  0  0  0  0  0  0  0  0  0  0  0
    5.2600   -2.8388   -0.0345 H   0  0  0  0  0  0  0  0  0  0  0  0
    4.8059    1.4644   -0.0193 H   0  0  0  0  0  0  0  0  0  0  0  0
    7.6336   -2.5758   -0.5737 H   0  0  0  0  0  0  0  0  0  0  0  0
    7.1922    1.6978   -0.5834 H   0  0  0  0  0  0  0  0  0  0  0  0
  1 32  1  0  0  0  0
  2 17  2  0  0  0  0
  3 26  1  0  0  0  0
  3 64  1  0  0  0  0
  4 26  2  0  0  0  0
  5 10  1  0  0  0  0
  5 13  1  0  0  0  0
  5 17  1  0  0  0  0
  6 16  1  0  0  0  0
  6 22  1  0  0  0  0
  6 23  1  0  0  0  0
  7 24  1  0  0  0  0
  7 25  1  0  0  0  0
  7 27  1  0  0  0  0
  8  9  1  0  0  0  0
  8 10  1  0  0  0  0
  8 12  1  0  0  0  0
  8 33  1  0  0  0  0
  9 11  1  0  0  0  0
  9 15  1  0  0  0  0
  9 34  1  0  0  0  0
 10 35  1  0  0  0  0
 10 36  1  0  0  0  0
 11 13  1  0  0  0  0
 11 37  1  0  0  0  0
 11 38  1  0  0  0  0
 12 16  1  0  0  0  0
 12 39  1  0  0  0  0
 12 40  1  0  0  0  0
 13 41  1  0  0  0  0
 13 42  1  0  0  0  0
 14 17  1  0  0  0  0
 14 18  1  0  0  0  0
 14 19  1  0  0  0  0
 14 43  1  0  0  0  0
 15 26  1  0  0  0  0
 15 44  1  0  0  0  0
 15 45  1  0  0  0  0
 16 46  1  0  0  0  0
 16 47  1  0  0  0  0
 18 20  1  0  0  0  0
 18 48  1  0  0  0  0
 18 49  1  0  0  0  0
 19 21  1  0  0  0  0
 19 50  1  0  0  0  0
 19 51  1  0  0  0  0
 20 21  1  0  0  0  0
 20 52  1  0  0  0  0
 20 53  1  0  0  0  0
 21 54  1  0  0  0  0
 21 55  1  0  0  0  0
 22 24  1  0  0  0  0
 22 56  1  0  0  0  0
 22 57  1  0  0  0  0
 23 25  1  0  0  0  0
 23 58  1  0  0  0  0
 23 59  1  0  0  0  0
 24 60  1  0  0  0  0
 24 61  1  0  0  0  0
 25 62  1  0  0  0  0
 25 63  1  0  0  0  0
 27 28  2  0  0  0  0
 27 29  1  0  0  0  0
 28 30  1  0  0  0  0
 28 65  1  0  0  0  0
 29 31  2  0  0  0  0
 29 66  1  0  0  0  0
 30 32  2  0  0  0  0
 30 67  1  0  0  0  0
 31 32  1  0  0  0  0
 31 68  1  0  0  0  0
M  END
> <PUBCHEM_COMPOUND_CID>
28959930

> <PUBCHEM_CONFORMER_RMSD>
1.2

> <PUBCHEM_CONFORMER_DIVERSEORDER>
1
37
117
108
102
98
113
79
75
101
116
30
119
91
12
115
34
66
24
97
4
72
50
55
96
76
38
111
114
29
26
25
51
20
27
48
23
32
43
17
10
15
105
39
104
78
93
18
64
109
13
53
42
22
11
3
87
68
21
62
63
59
84
45
118
86
67
41
85
60
73
83
40
99
44
5
81
100
35
80
61
112
89
82
69
54
28
94
107
52
88
14
47
49
77
2
103
110
36
58
57
71
70
65
106
56
31
90
8
6
33
7
16
92
19
9
46
74
95

> <PUBCHEM_MMFF94_PARTIAL_CHARGES>
29
1 -0.19
10 0.3
13 0.3
14 0.06
15 0.06
16 0.27
17 0.57
2 -0.57
22 0.27
23 0.27
24 0.37
25 0.37
26 0.66
27 0.1
28 -0.15
29 -0.15
3 -0.65
30 -0.15
31 -0.15
32 0.19
4 -0.57
5 -0.66
6 -0.81
64 0.5
65 0.15
66 0.15
67 0.15
68 0.15
7 -0.84

> <PUBCHEM_EFFECTIVE_ROTOR_COUNT>
11.4

> <PUBCHEM_PHARMACOPHORE_FEATURES>
10
1 2 acceptor
1 3 acceptor
1 4 acceptor
1 6 cation
1 7 cation
3 3 4 26 anion
5 14 18 19 20 21 rings
6 27 28 29 30 31 32 rings
6 5 8 9 10 11 13 rings
6 6 7 22 23 24 25 rings

> <PUBCHEM_HEAVY_ATOM_COUNT>
32

> <PUBCHEM_ATOM_DEF_STEREO_COUNT>
2

> <PUBCHEM_ATOM_UDEF_STEREO_COUNT>
0

> <PUBCHEM_BOND_DEF_STEREO_COUNT>
0

> <PUBCHEM_BOND_UDEF_STEREO_COUNT>
0

> <PUBCHEM_ISOTOPIC_ATOM_COUNT>
0

> <PUBCHEM_COMPONENT_COUNT>
1

> <PUBCHEM_CACTVS_TAUTO_COUNT>
1

> <PUBCHEM_CONFORMER_ID>
01B9E4BA00000001

> <PUBCHEM_MMFF94_ENERGY>
80.6492

> <PUBCHEM_FEATURE_SELFOVERLAP>
50.806

> <PUBCHEM_SHAPE_FINGERPRINT>
100830 39 18337111156084019660
10411042 1 18339926047258012235
10454371 7 18337397041802388892
10670039 82 18335138649308693840
11434127 23 18200027322712402292
11477941 20 18341604928224999348
12107183 9 17469599612615422258
12166972 35 17895757421121243205
12645989 146 18339648952952927238
12788726 201 18262228903446347563
13540713 5 17896872154715035882
13631057 29 18408885135486469968
13690498 29 18271802449467881358
13757389 114 18271241609318991129
13782708 43 17775005670384601582
13911987 19 18047172070286088829
14068700 675 18261392282060706012
15183329 4 18335421228134366394
15289351 153 18336542722105883394
15419008 47 18059850692877797640
15773216 30 17473546227888298567
15876981 60 18335145301706406349
17686467 74 18271803584092855336
18681886 176 18268142231088484354
20771845 65 17915745491202336939
20775438 99 17257916617377768239
21057603 43 17983578791631263115
21236236 1 18335425608742415352
21344244 246 17977946022814209865
21796203 349 17976009701713983499
21927370 108 18265350541680934627
23516275 100 18194391415816321288
255183 451 18124026000079341535
437795 83 18336274470774742916
497634 4 18060145331786819443
531348 171 18267023856159425554
550186 7 18199743652880704902
6057620 51 18261958556951907574
6058803 2 17826219706087694786
6608658 132 18334574612142847490
6673363 416 18340498859047527164
6700243 42 17843436004914631166
9980921 221 18120963641531955260

> <PUBCHEM_SHAPE_MULTIPOLES>
618.72
18.18
6.34
1.24
36.96
6.41
0.23
-14.8
-6.62
-12.12
-0.08
-0.46
0.18
-1.25

> <PUBCHEM_SHAPE_SELFOVERLAP>
1293.594

> <PUBCHEM_SHAPE_VOLUME>
350.9

> <PUBCHEM_COORDINATE_TYPE>
2
5
10

$$$$
