75536510
  -OEChem-12032416343D

 39 40  0     1  0  0  0  0  0999 V2000
    1.8193    1.1856    0.4585 O   0  0  0  0  0  0  0  0  0  0  0  0
    1.0731   -2.1863   -0.5307 O   0  0  0  0  0  0  0  0  0  0  0  0
    5.6029   -1.2294    0.2064 O   0  0  0  0  0  0  0  0  0  0  0  0
   -1.4339   -0.3383   -0.1118 N   0  0  0  0  0  0  0  0  0  0  0  0
    4.4838    0.6867   -0.5027 N   0  0  0  0  0  0  0  0  0  0  0  0
   -4.4013    0.8076   -0.2633 N   0  0  0  0  0  0  0  0  0  0  0  0
   -4.6463   -1.2297    0.5857 N   0  0  0  0  0  0  0  0  0  0  0  0
   -0.0765   -0.2441    0.4002 C   0  0  1  0  0  0  0  0  0  0  0  0
    0.9738   -0.7757   -0.5574 C   0  0  1  0  0  0  0  0  0  0  0  0
    2.2302   -0.1078   -0.0150 C   0  0  1  0  0  0  0  0  0  0  0  0
    0.3868    1.1912    0.5882 C   0  0  0  0  0  0  0  0  0  0  0  0
    3.3235    0.0505   -1.0566 C   0  0  0  0  0  0  0  0  0  0  0  0
   -2.4113   -0.1376    0.9514 C   0  0  0  0  0  0  0  0  0  0  0  0
   -3.8238   -0.2153    0.4363 C   0  0  0  0  0  0  0  0  0  0  0  0
    5.5335   -0.0090    0.0863 C   0  0  0  0  0  0  0  0  0  0  0  0
   -5.6730    0.4207   -0.5801 C   0  0  0  0  0  0  0  0  0  0  0  0
   -3.7948    2.0706   -0.6125 C   0  0  0  0  0  0  0  0  0  0  0  0
   -5.8010   -0.8396   -0.0455 C   0  0  0  0  0  0  0  0  0  0  0  0
    6.6349    0.8999    0.5625 C   0  0  0  0  0  0  0  0  0  0  0  0
    0.0120   -0.8000    1.3445 H   0  0  0  0  0  0  0  0  0  0  0  0
    0.7682   -0.4551   -1.5864 H   0  0  0  0  0  0  0  0  0  0  0  0
    2.6229   -0.6618    0.8478 H   0  0  0  0  0  0  0  0  0  0  0  0
   -0.0049    1.8603   -0.1868 H   0  0  0  0  0  0  0  0  0  0  0  0
    0.1133    1.5991    1.5659 H   0  0  0  0  0  0  0  0  0  0  0  0
    2.9841    0.6909   -1.8781 H   0  0  0  0  0  0  0  0  0  0  0  0
    3.6081   -0.9237   -1.4685 H   0  0  0  0  0  0  0  0  0  0  0  0
   -1.5741   -1.2630   -0.5196 H   0  0  0  0  0  0  0  0  0  0  0  0
   -2.2663    0.8297    1.4463 H   0  0  0  0  0  0  0  0  0  0  0  0
   -2.2925   -0.9107    1.7214 H   0  0  0  0  0  0  0  0  0  0  0  0
    1.2540   -2.4628    0.3836 H   0  0  0  0  0  0  0  0  0  0  0  0
    4.5307    1.7007   -0.5453 H   0  0  0  0  0  0  0  0  0  0  0  0
   -6.3544    1.0484   -1.1373 H   0  0  0  0  0  0  0  0  0  0  0  0
   -3.4759    2.5723    0.3042 H   0  0  0  0  0  0  0  0  0  0  0  0
   -2.9438    1.8804   -1.2705 H   0  0  0  0  0  0  0  0  0  0  0  0
   -4.5276    2.6933   -1.1325 H   0  0  0  0  0  0  0  0  0  0  0  0
   -6.6656   -1.4860   -0.0831 H   0  0  0  0  0  0  0  0  0  0  0  0
    6.2176    1.7445    1.1182 H   0  0  0  0  0  0  0  0  0  0  0  0
    7.1967    1.2721   -0.2985 H   0  0  0  0  0  0  0  0  0  0  0  0
    7.3092    0.3468    1.2221 H   0  0  0  0  0  0  0  0  0  0  0  0
  1 10  1  0  0  0  0
  1 11  1  0  0  0  0
  2  9  1  0  0  0  0
  2 30  1  0  0  0  0
  3 15  2  0  0  0  0
  4  8  1  0  0  0  0
  4 13  1  0  0  0  0
  4 27  1  0  0  0  0
  5 12  1  0  0  0  0
  5 15  1  0  0  0  0
  5 31  1  0  0  0  0
  6 14  1  0  0  0  0
  6 16  1  0  0  0  0
  6 17  1  0  0  0  0
  7 14  2  0  0  0  0
  7 18  1  0  0  0  0
  8  9  1  0  0  0  0
  8 11  1  0  0  0  0
  8 20  1  0  0  0  0
  9 10  1  0  0  0  0
  9 21  1  0  0  0  0
 10 12  1  0  0  0  0
 10 22  1  0  0  0  0
 11 23  1  0  0  0  0
 11 24  1  0  0  0  0
 12 25  1  0  0  0  0
 12 26  1  0  0  0  0
 13 14  1  0  0  0  0
 13 28  1  0  0  0  0
 13 29  1  0  0  0  0
 15 19  1  0  0  0  0
 16 18  2  0  0  0  0
 16 32  1  0  0  0  0
 17 33  1  0  0  0  0
 17 34  1  0  0  0  0
 17 35  1  0  0  0  0
 18 36  1  0  0  0  0
 19 37  1  0  0  0  0
 19 38  1  0  0  0  0
 19 39  1  0  0  0  0
M  END
> <PUBCHEM_COMPOUND_CID>
75536510

> <PUBCHEM_CONFORMER_RMSD>
1

> <PUBCHEM_CONFORMER_DIVERSEORDER>
1
69
101
100
8
16
87
64
54
112
121
61
116
128
2
115
129
21
11
72
81
97
117
18
39
98
90
66
38
123
119
49
20
62
67
73
4
34
114
126
7
107
132
52
6
125
109
102
110
78
106
71
85
29
32
10
24
79
5
133
48
96
75
108
33
118
42
25
70
65
122
83
57
41
130
93
91
36
124
47
19
77
14
82
30
23
105
74
80
51
104
17
46
127
15
95
92
35
22
28
12
89
86
111
58
53
59
40
13
113
103
94
55
3
99
9
27
60
76
26
68
88
45
131
120
37
56
84
43
50
63
44
31

> <PUBCHEM_MMFF94_PARTIAL_CHARGES>
24
1 -0.56
10 0.28
11 0.28
12 0.3
13 0.45
14 0.01
15 0.57
16 -0.3
17 0.26
18 0.08
19 0.06
2 -0.68
27 0.36
3 -0.57
30 0.4
31 0.37
32 0.15
36 0.15
4 -0.9
5 -0.73
6 0.05
7 -0.57
8 0.27
9 0.28

> <PUBCHEM_EFFECTIVE_ROTOR_COUNT>
7

> <PUBCHEM_PHARMACOPHORE_FEATURES>
10
1 1 acceptor
1 2 acceptor
1 2 donor
1 3 acceptor
1 4 cation
1 4 donor
1 5 donor
3 6 7 14 cation
5 1 8 9 10 11 rings
5 6 7 14 16 18 rings

> <PUBCHEM_HEAVY_ATOM_COUNT>
19

> <PUBCHEM_ATOM_DEF_STEREO_COUNT>
3

> <PUBCHEM_ATOM_UDEF_STEREO_COUNT>
0

> <PUBCHEM_BOND_DEF_STEREO_COUNT>
0

> <PUBCHEM_BOND_UDEF_STEREO_COUNT>
0

> <PUBCHEM_ISOTOPIC_ATOM_COUNT>
0

> <PUBCHEM_COMPONENT_COUNT>
1

> <PUBCHEM_CACTVS_TAUTO_COUNT>
2

> <PUBCHEM_CONFORMER_ID>
0480987E00000001

> <PUBCHEM_MMFF94_ENERGY>
25.8426

> <PUBCHEM_FEATURE_SELFOVERLAP>
50.748

> <PUBCHEM_SHAPE_FINGERPRINT>
11089746 13 15864069896746661365
11315181 36 17095246947038209645
11401426 45 18273216408778255814
12236239 1 18040714766911960584
13533116 47 18188206508284866826
13862211 1 18201720647981406598
1420 363 17203615890728698014
14251718 22 18272652354791425101
15183329 4 16950282888819996978
17834076 25 13334734643665008969
19433438 38 18409732846435725093
19489759 90 17967533471626662985
200 152 17704073984737338505
20645477 70 17917440765542560214
21054139 6 17988635341842556847
21709351 56 18409161147544361997
23035841 295 10879997956114738828
23402539 116 17821727251810084279
23536379 177 17894630348894089104
23559900 14 18337102462774976041
23590187 156 18411135848525742793
34797466 226 14548741746395204368
4072396 5 18412538787341303026
42788 4 18260831505275898092
474229 33 18343022194275686790
59755656 215 18339086986953393830

> <PUBCHEM_SHAPE_MULTIPOLES>
353.48
16.06
1.5
0.87
6.32
0.05
-0.02
0.87
0.05
-0.54
-0.15
0.02
0.04
0.76

> <PUBCHEM_SHAPE_SELFOVERLAP>
722.661

> <PUBCHEM_SHAPE_VOLUME>
205.5

> <PUBCHEM_COORDINATE_TYPE>
2
5
10

$$$$
