51136888
  -OEChem-12032416223D

 58 62  0     1  0  0  0  0  0999 V2000
   -4.0173    0.1652   -2.0434 O   0  0  0  0  0  0  0  0  0  0  0  0
    3.7684    1.2832    1.5425 O   0  0  0  0  0  0  0  0  0  0  0  0
    9.7195   -0.4223    0.3622 O   0  0  0  0  0  0  0  0  0  0  0  0
   -5.7764    0.8841    0.9126 N   0  0  1  0  0  0  0  0  0  0  0  0
   -2.8952    1.0673   -0.3275 N   0  0  0  0  0  0  0  0  0  0  0  0
   -2.6690   -0.1538   -2.2489 N   0  0  0  0  0  0  0  0  0  0  0  0
   -4.4634   -3.4319   -0.4081 N   0  0  0  0  0  0  0  0  0  0  0  0
    1.5109   -0.4275   -1.7331 N   0  0  0  0  0  0  0  0  0  0  0  0
    3.4321    0.0920   -0.4554 N   0  0  0  0  0  0  0  0  0  0  0  0
   -5.4300    1.3556   -0.4431 C   0  0  1  0  0  0  0  0  0  0  0  0
   -5.5332    2.8899   -0.3618 C   0  0  0  0  0  0  0  0  0  0  0  0
   -6.0017    3.1824    1.0564 C   0  0  0  0  0  0  0  0  0  0  0  0
   -6.6697    1.8915    1.4849 C   0  0  0  0  0  0  0  0  0  0  0  0
   -6.3715   -0.4461    0.9235 C   0  0  0  0  0  0  0  0  0  0  0  0
   -4.0624    0.8846   -0.8915 C   0  0  0  0  0  0  0  0  0  0  0  0
   -5.3306   -1.5270    0.8018 C   0  0  0  0  0  0  0  0  0  0  0  0
   -2.0715    0.4125   -1.1962 C   0  0  0  0  0  0  0  0  0  0  0  0
   -4.3036   -1.6411    1.7323 C   0  0  0  0  0  0  0  0  0  0  0  0
   -5.3656   -2.4391   -0.2407 C   0  0  0  0  0  0  0  0  0  0  0  0
   -0.6546    0.3437   -0.9840 C   0  0  0  0  0  0  0  0  0  0  0  0
   -3.3564   -2.6497    1.5938 C   0  0  0  0  0  0  0  0  0  0  0  0
   -3.4798   -3.5115    0.5160 C   0  0  0  0  0  0  0  0  0  0  0  0
   -0.0655    0.9460    0.1222 C   0  0  0  0  0  0  0  0  0  0  0  0
    0.1701   -0.3250   -1.8741 C   0  0  0  0  0  0  0  0  0  0  0  0
    1.3108    0.8624    0.3018 C   0  0  0  0  0  0  0  0  0  0  0  0
    2.0477    0.1705   -0.6459 C   0  0  0  0  0  0  0  0  0  0  0  0
    4.1866    0.6334    0.5903 C   0  0  0  0  0  0  0  0  0  0  0  0
    5.6454    0.3539    0.5301 C   0  0  0  0  0  0  0  0  0  0  0  0
    6.3983    0.3218    1.7039 C   0  0  0  0  0  0  0  0  0  0  0  0
    6.2615    0.1249   -0.7002 C   0  0  0  0  0  0  0  0  0  0  0  0
    7.7673    0.0610    1.6475 C   0  0  0  0  0  0  0  0  0  0  0  0
    7.6306   -0.1359   -0.7567 C   0  0  0  0  0  0  0  0  0  0  0  0
    8.3835   -0.1678    0.4170 C   0  0  0  0  0  0  0  0  0  0  0  0
   10.2848   -0.6472   -0.9284 C   0  0  0  0  0  0  0  0  0  0  0  0
   -6.1764    1.0170   -1.1755 H   0  0  0  0  0  0  0  0  0  0  0  0
   -4.5946    3.4118   -0.5773 H   0  0  0  0  0  0  0  0  0  0  0  0
   -6.2857    3.2463   -1.0760 H   0  0  0  0  0  0  0  0  0  0  0  0
   -6.6792    4.0402    1.0998 H   0  0  0  0  0  0  0  0  0  0  0  0
   -5.1376    3.3972    1.6974 H   0  0  0  0  0  0  0  0  0  0  0  0
   -7.6802    1.8273    1.0618 H   0  0  0  0  0  0  0  0  0  0  0  0
   -6.7340    1.8146    2.5747 H   0  0  0  0  0  0  0  0  0  0  0  0
   -6.8782   -0.6203    1.8832 H   0  0  0  0  0  0  0  0  0  0  0  0
   -7.1493   -0.5511    0.1557 H   0  0  0  0  0  0  0  0  0  0  0  0
   -4.2314   -0.9543    2.5712 H   0  0  0  0  0  0  0  0  0  0  0  0
   -6.1405   -2.4013   -1.0000 H   0  0  0  0  0  0  0  0  0  0  0  0
   -2.5471   -2.7575    2.3068 H   0  0  0  0  0  0  0  0  0  0  0  0
   -2.7663   -4.3145    0.3627 H   0  0  0  0  0  0  0  0  0  0  0  0
   -0.6553    1.4857    0.8589 H   0  0  0  0  0  0  0  0  0  0  0  0
   -0.2103   -0.8217   -2.7617 H   0  0  0  0  0  0  0  0  0  0  0  0
    1.6920    1.3535    1.1816 H   0  0  0  0  0  0  0  0  0  0  0  0
    3.8958   -0.4667   -1.1652 H   0  0  0  0  0  0  0  0  0  0  0  0
    5.9370    0.4924    2.6730 H   0  0  0  0  0  0  0  0  0  0  0  0
    5.7233    0.1775   -1.6418 H   0  0  0  0  0  0  0  0  0  0  0  0
    8.3486    0.0362    2.5652 H   0  0  0  0  0  0  0  0  0  0  0  0
    8.0471   -0.2964   -1.7453 H   0  0  0  0  0  0  0  0  0  0  0  0
    9.8638   -1.5405   -1.4022 H   0  0  0  0  0  0  0  0  0  0  0  0
   10.1994    0.2399   -1.5651 H   0  0  0  0  0  0  0  0  0  0  0  0
   11.3538   -0.8355   -0.7846 H   0  0  0  0  0  0  0  0  0  0  0  0
  1  6  1  0  0  0  0
  1 15  1  0  0  0  0
  2 27  2  0  0  0  0
  3 33  1  0  0  0  0
  3 34  1  0  0  0  0
  4 10  1  0  0  0  0
  4 13  1  0  0  0  0
  4 14  1  0  0  0  0
  5 15  2  0  0  0  0
  5 17  1  0  0  0  0
  6 17  2  0  0  0  0
  7 19  1  0  0  0  0
  7 22  2  0  0  0  0
  8 24  1  0  0  0  0
  8 26  2  0  0  0  0
  9 26  1  0  0  0  0
  9 27  1  0  0  0  0
  9 51  1  0  0  0  0
 10 11  1  0  0  0  0
 10 15  1  0  0  0  0
 10 35  1  0  0  0  0
 11 12  1  0  0  0  0
 11 36  1  0  0  0  0
 11 37  1  0  0  0  0
 12 13  1  0  0  0  0
 12 38  1  0  0  0  0
 12 39  1  0  0  0  0
 13 40  1  0  0  0  0
 13 41  1  0  0  0  0
 14 16  1  0  0  0  0
 14 42  1  0  0  0  0
 14 43  1  0  0  0  0
 16 18  1  0  0  0  0
 16 19  2  0  0  0  0
 17 20  1  0  0  0  0
 18 21  2  0  0  0  0
 18 44  1  0  0  0  0
 19 45  1  0  0  0  0
 20 23  1  0  0  0  0
 20 24  2  0  0  0  0
 21 22  1  0  0  0  0
 21 46  1  0  0  0  0
 22 47  1  0  0  0  0
 23 25  2  0  0  0  0
 23 48  1  0  0  0  0
 24 49  1  0  0  0  0
 25 26  1  0  0  0  0
 25 50  1  0  0  0  0
 27 28  1  0  0  0  0
 28 29  2  0  0  0  0
 28 30  1  0  0  0  0
 29 31  1  0  0  0  0
 29 52  1  0  0  0  0
 30 32  2  0  0  0  0
 30 53  1  0  0  0  0
 31 33  2  0  0  0  0
 31 54  1  0  0  0  0
 32 33  1  0  0  0  0
 32 55  1  0  0  0  0
 34 56  1  0  0  0  0
 34 57  1  0  0  0  0
 34 58  1  0  0  0  0
M  END
> <PUBCHEM_COMPOUND_CID>
51136888

> <PUBCHEM_CONFORMER_RMSD>
1

> <PUBCHEM_CONFORMER_DIVERSEORDER>
1
22
46
14
85
19
68
72
37
7
41
76
18
78
52
15
53
55
43
70
56
31
60
80
39
34
4
20
81
57
82
79
69
51
5
25
13
17
35
16
75
67
9
11
27
48
62
10
65
84
40
77
21
54
45
42
66
23
6
30
8
83
64
24
50
63
61
73
2
29
74
49
44
33
12
58
26
47
3
32
28
36
71
59
38

> <PUBCHEM_MMFF94_PARTIAL_CHARGES>
44
1 -0.02
10 0.45
13 0.27
14 0.41
15 0.3
16 -0.14
17 0.46
18 -0.15
19 0.16
2 -0.57
20 0.05
21 -0.15
22 0.16
23 -0.15
24 0.16
25 -0.15
26 0.43
27 0.54
28 0.09
29 -0.15
3 -0.36
30 -0.15
31 -0.15
32 -0.15
33 0.08
34 0.28
4 -0.81
44 0.15
45 0.15
46 0.15
47 0.15
48 0.15
49 0.15
5 -0.57
50 0.15
51 0.37
52 0.15
53 0.15
54 0.15
55 0.15
6 -0.41
7 -0.62
8 -0.62
9 -0.55

> <PUBCHEM_EFFECTIVE_ROTOR_COUNT>
9

> <PUBCHEM_PHARMACOPHORE_FEATURES>
11
1 2 acceptor
1 3 acceptor
1 4 cation
1 7 acceptor
1 9 donor
3 5 6 17 cation
5 1 5 6 15 17 rings
5 4 10 11 12 13 rings
6 28 29 30 31 32 33 rings
6 7 16 18 19 21 22 rings
6 8 20 23 24 25 26 rings

> <PUBCHEM_HEAVY_ATOM_COUNT>
34

> <PUBCHEM_ATOM_DEF_STEREO_COUNT>
1

> <PUBCHEM_ATOM_UDEF_STEREO_COUNT>
0

> <PUBCHEM_BOND_DEF_STEREO_COUNT>
0

> <PUBCHEM_BOND_UDEF_STEREO_COUNT>
0

> <PUBCHEM_ISOTOPIC_ATOM_COUNT>
0

> <PUBCHEM_COMPONENT_COUNT>
1

> <PUBCHEM_CACTVS_TAUTO_COUNT>
14

> <PUBCHEM_CONFORMER_ID>
030C497800000001

> <PUBCHEM_MMFF94_ENERGY>
95.6862

> <PUBCHEM_FEATURE_SELFOVERLAP>
55.823

> <PUBCHEM_SHAPE_FINGERPRINT>
10 15 17917429800322059445
10299344 5 17458345239242246600
11103572 155 18334011658359521018
11135926 11 18260259720749374590
11607047 191 18190749636078639609
12104220 1 18334295340611570861
14856354 85 18260827116035638935
15021287 119 16660650656802162893
15183329 4 16443338802127311234
15352257 5 18187362130293510722
15444296 121 18410295796121037217
17093844 174 17846775213518104797
17324776 126 17693085683962514999
17686467 74 10663520609026885854
19611394 137 18272652367909118432
21756936 100 18341891866985471285
21796203 349 16299256547977251525
23516275 137 17678749929451984354
23522609 53 17605300478131629780
335507 130 16588026806076177542
397638 26 18060419123035375578
397830 11 18268702991088132512
4073 2 18413670214607136126
445580 167 15068342320320508430
484985 159 17896032299999539995
5364581 5 18197777906875156217
54039377 194 16298392396230355843
58083652 198 15697990852184645170
58260988 114 16226628385245987713
59520647 208 18264488391352830042
6009941 240 18272089378973456160
6691757 9 18261111860136491617
68570916 9 18114468971790150604
9953998 17 18334576845504781361

> <PUBCHEM_SHAPE_MULTIPOLES>
652.21
28.48
2.81
1.8
68.04
1.59
0.18
-0.73
-6.91
-9.48
-0.86
-0.33
0.02
0.45

> <PUBCHEM_SHAPE_SELFOVERLAP>
1428.073

> <PUBCHEM_SHAPE_VOLUME>
352.3

> <PUBCHEM_COORDINATE_TYPE>
2
5
10

$$$$
