7143745
  -OEChem-12032416213D

 47 50  0     1  0  0  0  0  0999 V2000
    7.1795    0.6182   -0.6987 Cl  0  0  0  0  0  0  0  0  0  0  0  0
   -1.1518    2.7603    0.2150 S   0  0  0  0  0  0  0  0  0  0  0  0
    0.9841   -1.4649   -1.6112 O   0  0  0  0  0  0  0  0  0  0  0  0
   -3.2287    1.7746   -2.2077 O   0  0  0  0  0  0  0  0  0  0  0  0
   -3.5213    0.3757   -0.3757 N   0  0  0  0  0  0  0  0  0  0  0  0
   -0.8240   -1.3179   -0.1452 N   0  0  0  0  0  0  0  0  0  0  0  0
   -3.1861   -2.0639   -0.7930 C   0  0  1  0  0  0  0  0  0  0  0  0
   -2.7678   -1.1406    1.4472 C   0  0  2  0  0  0  0  0  0  0  0  0
   -3.3601   -2.3317    0.6970 C   0  0  0  0  0  0  0  0  0  0  0  0
   -3.9147   -0.7704   -1.1976 C   0  0  0  0  0  0  0  0  0  0  0  0
   -1.6881   -2.0060   -1.1143 C   0  0  0  0  0  0  0  0  0  0  0  0
   -3.5411    0.1399    1.0758 C   0  0  0  0  0  0  0  0  0  0  0  0
   -1.2966   -0.9653    1.1210 C   0  0  0  0  0  0  0  0  0  0  0  0
   -0.4581   -0.4475    2.0325 C   0  0  0  0  0  0  0  0  0  0  0  0
    0.5225   -1.1350   -0.5172 C   0  0  0  0  0  0  0  0  0  0  0  0
   -3.2403    1.5977   -0.9869 C   0  0  0  0  0  0  0  0  0  0  0  0
    1.4298   -0.5182    0.5131 C   0  0  0  0  0  0  0  0  0  0  0  0
    0.9233   -0.2174    1.7182 C   0  0  0  0  0  0  0  0  0  0  0  0
   -2.9273    2.7545   -0.0718 C   0  0  0  0  0  0  0  0  0  0  0  0
    2.8451   -0.2388    0.2144 C   0  0  0  0  0  0  0  0  0  0  0  0
    3.8178   -1.2050    0.4737 C   0  0  0  0  0  0  0  0  0  0  0  0
    3.2146    0.9929   -0.3276 C   0  0  0  0  0  0  0  0  0  0  0  0
    5.1579   -0.9400    0.1916 C   0  0  0  0  0  0  0  0  0  0  0  0
    4.5547    1.2578   -0.6100 C   0  0  0  0  0  0  0  0  0  0  0  0
   -1.0499    4.1995    1.3078 C   0  0  0  0  0  0  0  0  0  0  0  0
    5.5264    0.2913   -0.3502 C   0  0  0  0  0  0  0  0  0  0  0  0
   -3.6290   -2.8864   -1.3683 H   0  0  0  0  0  0  0  0  0  0  0  0
   -2.8902   -1.3196    2.5234 H   0  0  0  0  0  0  0  0  0  0  0  0
   -2.8560   -3.2630    0.9842 H   0  0  0  0  0  0  0  0  0  0  0  0
   -4.4220   -2.4514    0.9436 H   0  0  0  0  0  0  0  0  0  0  0  0
   -3.7500   -0.5605   -2.2597 H   0  0  0  0  0  0  0  0  0  0  0  0
   -4.9959   -0.8964   -1.0613 H   0  0  0  0  0  0  0  0  0  0  0  0
   -1.3028   -3.0331   -1.1758 H   0  0  0  0  0  0  0  0  0  0  0  0
   -1.5243   -1.5633   -2.1049 H   0  0  0  0  0  0  0  0  0  0  0  0
   -4.5948    0.0407    1.3646 H   0  0  0  0  0  0  0  0  0  0  0  0
   -3.1346    0.9744    1.6471 H   0  0  0  0  0  0  0  0  0  0  0  0
   -0.8014   -0.1557    3.0195 H   0  0  0  0  0  0  0  0  0  0  0  0
    1.5342    0.2305    2.4966 H   0  0  0  0  0  0  0  0  0  0  0  0
   -3.5149    2.7460    0.8474 H   0  0  0  0  0  0  0  0  0  0  0  0
   -3.2002    3.6748   -0.6013 H   0  0  0  0  0  0  0  0  0  0  0  0
    3.5461   -2.1699    0.8951 H   0  0  0  0  0  0  0  0  0  0  0  0
    2.4686    1.7561   -0.5362 H   0  0  0  0  0  0  0  0  0  0  0  0
    5.9043   -1.7026    0.3988 H   0  0  0  0  0  0  0  0  0  0  0  0
    4.8271    2.2217   -1.0322 H   0  0  0  0  0  0  0  0  0  0  0  0
   -1.4145    5.0932    0.7949 H   0  0  0  0  0  0  0  0  0  0  0  0
   -0.0069    4.3618    1.5921 H   0  0  0  0  0  0  0  0  0  0  0  0
   -1.6354    4.0292    2.2149 H   0  0  0  0  0  0  0  0  0  0  0  0
  1 26  1  0  0  0  0
  2 19  1  0  0  0  0
  2 25  1  0  0  0  0
  3 15  2  0  0  0  0
  4 16  2  0  0  0  0
  5 10  1  0  0  0  0
  5 12  1  0  0  0  0
  5 16  1  0  0  0  0
  6 11  1  0  0  0  0
  6 13  1  0  0  0  0
  6 15  1  0  0  0  0
  7  9  1  0  0  0  0
  7 10  1  0  0  0  0
  7 11  1  0  0  0  0
  7 27  1  0  0  0  0
  8  9  1  0  0  0  0
  8 12  1  0  0  0  0
  8 13  1  0  0  0  0
  8 28  1  0  0  0  0
  9 29  1  0  0  0  0
  9 30  1  0  0  0  0
 10 31  1  0  0  0  0
 10 32  1  0  0  0  0
 11 33  1  0  0  0  0
 11 34  1  0  0  0  0
 12 35  1  0  0  0  0
 12 36  1  0  0  0  0
 13 14  2  0  0  0  0
 14 18  1  0  0  0  0
 14 37  1  0  0  0  0
 15 17  1  0  0  0  0
 16 19  1  0  0  0  0
 17 18  2  0  0  0  0
 17 20  1  0  0  0  0
 18 38  1  0  0  0  0
 19 39  1  0  0  0  0
 19 40  1  0  0  0  0
 20 21  2  0  0  0  0
 20 22  1  0  0  0  0
 21 23  1  0  0  0  0
 21 41  1  0  0  0  0
 22 24  2  0  0  0  0
 22 42  1  0  0  0  0
 23 26  2  0  0  0  0
 23 43  1  0  0  0  0
 24 26  1  0  0  0  0
 24 44  1  0  0  0  0
 25 45  1  0  0  0  0
 25 46  1  0  0  0  0
 25 47  1  0  0  0  0
M  END
> <PUBCHEM_COMPOUND_CID>
7143745

> <PUBCHEM_CONFORMER_RMSD>
0.8

> <PUBCHEM_CONFORMER_DIVERSEORDER>
1
10
7
2
9
6
3
4
8
5

> <PUBCHEM_MMFF94_PARTIAL_CHARGES>
30
1 -0.18
10 0.3
11 0.3
12 0.3
13 -0.03
14 -0.15
15 0.62
16 0.57
17 -0.01
18 -0.15
19 0.29
2 -0.46
20 0.03
21 -0.15
22 -0.15
23 -0.15
24 -0.15
25 0.23
26 0.18
3 -0.57
37 0.15
38 0.15
4 -0.57
41 0.15
42 0.15
43 0.15
44 0.15
5 -0.66
6 -0.47
8 0.14

> <PUBCHEM_EFFECTIVE_ROTOR_COUNT>
5

> <PUBCHEM_PHARMACOPHORE_FEATURES>
7
1 25 hydrophobe
1 3 acceptor
1 4 acceptor
6 20 21 22 23 24 26 rings
6 5 7 8 9 10 12 rings
6 6 13 14 15 17 18 rings
6 6 7 8 9 11 13 rings

> <PUBCHEM_HEAVY_ATOM_COUNT>
26

> <PUBCHEM_ATOM_DEF_STEREO_COUNT>
2

> <PUBCHEM_ATOM_UDEF_STEREO_COUNT>
0

> <PUBCHEM_BOND_DEF_STEREO_COUNT>
0

> <PUBCHEM_BOND_UDEF_STEREO_COUNT>
0

> <PUBCHEM_ISOTOPIC_ATOM_COUNT>
0

> <PUBCHEM_COMPONENT_COUNT>
1

> <PUBCHEM_CACTVS_TAUTO_COUNT>
1

> <PUBCHEM_CONFORMER_ID>
006D014100000001

> <PUBCHEM_MMFF94_ENERGY>
69.6888

> <PUBCHEM_FEATURE_SELFOVERLAP>
37.087

> <PUBCHEM_SHAPE_FINGERPRINT>
10165383 225 17988651761966155195
10291535 26 18412266103587660432
10937287 8 17621322333891120849
11524674 6 7925639881640674096
11578080 2 18127712442842817494
11961588 58 17823114775893067349
12107183 9 17829037711661187186
12403814 3 18342184392412037235
12788726 201 18409724036935594674
13224815 77 15770059436564230922
13583140 156 18336550503363368298
13761468 95 17973161734337376860
14363568 33 17907587174157176929
14713325 29 18341901757604044683
15183329 4 18413110542294127574
15209294 21 16950279581294479738
15788980 27 18342459266150672730
17492 54 18117535398282996285
17818456 19 18051395285298863506
17844677 252 18260272975419038934
19958102 18 17774731892078605878
20101258 96 18048605003818439371
20775438 99 17045943952401779383
21033648 144 18127696144148550520
22907989 373 18130508535314344160
22956985 138 16745952142905749531
23352939 185 18199470051148629851
23402539 116 18335704966110169778
23557571 272 18411706482291681719
445580 37 18261968401269924284
531348 171 18341896247478008758
70251023 43 18050838125040893547

> <PUBCHEM_SHAPE_MULTIPOLES>
519.09
11.38
3.22
1.62
21.19
3.52
0.1
0.39
-3.22
-3.64
0.27
-1.25
0.01
-0.07

> <PUBCHEM_SHAPE_SELFOVERLAP>
1100.953

> <PUBCHEM_SHAPE_VOLUME>
292.9

> <PUBCHEM_COORDINATE_TYPE>
2
5
10

$$$$
