45784065
  -OEChem-12032416203D

 40 42  0     1  0  0  0  0  0999 V2000
   -4.1780    0.2537   -1.6603 O   0  0  0  0  0  0  0  0  0  0  0  0
   -5.5980    1.5208    0.0377 O   0  0  0  0  0  0  0  0  0  0  0  0
    5.8771    0.9737    0.2063 O   0  0  0  0  0  0  0  0  0  0  0  0
   -2.8162   -0.7735   -0.1017 N   0  0  0  0  0  0  0  0  0  0  0  0
    1.6955   -1.5636   -0.0237 N   0  0  0  0  0  0  0  0  0  0  0  0
    0.4411    0.2417   -0.3510 N   0  0  0  0  0  0  0  0  0  0  0  0
   -0.7746   -1.9802   -0.2680 C   0  0  1  0  0  0  0  0  0  0  0  0
   -1.3819   -2.1881    1.1282 C   0  0  0  0  0  0  0  0  0  0  0  0
   -1.9825   -1.4773   -1.0685 C   0  0  0  0  0  0  0  0  0  0  0  0
   -2.3902   -1.0534    1.2649 C   0  0  0  0  0  0  0  0  0  0  0  0
    0.4374   -1.0659   -0.2200 C   0  0  0  0  0  0  0  0  0  0  0  0
   -3.8580    0.0503   -0.4881 C   0  0  0  0  0  0  0  0  0  0  0  0
    2.5693   -0.5068   -0.0286 C   0  0  0  0  0  0  0  0  0  0  0  0
    1.7622    0.6086   -0.2344 C   0  0  0  0  0  0  0  0  0  0  0  0
   -4.6173    0.7085    0.6359 C   0  0  0  0  0  0  0  0  0  0  0  0
    3.9541   -0.4331    0.1246 C   0  0  0  0  0  0  0  0  0  0  0  0
    2.3548    1.8812   -0.2936 C   0  0  0  0  0  0  0  0  0  0  0  0
    4.5273    0.8414    0.0630 C   0  0  0  0  0  0  0  0  0  0  0  0
    3.7436    1.9793   -0.1422 C   0  0  0  0  0  0  0  0  0  0  0  0
   -6.3912    2.2047    1.0061 C   0  0  0  0  0  0  0  0  0  0  0  0
    6.6254   -0.2220    0.4133 C   0  0  0  0  0  0  0  0  0  0  0  0
   -0.4413   -2.9395   -0.6844 H   0  0  0  0  0  0  0  0  0  0  0  0
   -1.9152   -3.1471    1.1490 H   0  0  0  0  0  0  0  0  0  0  0  0
   -0.6511   -2.1925    1.9428 H   0  0  0  0  0  0  0  0  0  0  0  0
   -2.5765   -2.3146   -1.4528 H   0  0  0  0  0  0  0  0  0  0  0  0
   -1.7220   -0.8202   -1.9043 H   0  0  0  0  0  0  0  0  0  0  0  0
   -1.9246   -0.1465    1.6652 H   0  0  0  0  0  0  0  0  0  0  0  0
   -3.2414   -1.3251    1.8949 H   0  0  0  0  0  0  0  0  0  0  0  0
    1.9406   -2.5366    0.1041 H   0  0  0  0  0  0  0  0  0  0  0  0
   -3.9322    1.3178    1.2344 H   0  0  0  0  0  0  0  0  0  0  0  0
   -5.0921   -0.0599    1.2543 H   0  0  0  0  0  0  0  0  0  0  0  0
    4.5037   -1.3521    0.2807 H   0  0  0  0  0  0  0  0  0  0  0  0
    1.7545    2.7712   -0.4527 H   0  0  0  0  0  0  0  0  0  0  0  0
    4.2121    2.9598   -0.1863 H   0  0  0  0  0  0  0  0  0  0  0  0
   -6.9186    1.4871    1.6418 H   0  0  0  0  0  0  0  0  0  0  0  0
   -5.7642    2.8618    1.6164 H   0  0  0  0  0  0  0  0  0  0  0  0
   -7.1286    2.8141    0.4770 H   0  0  0  0  0  0  0  0  0  0  0  0
    7.6773    0.0676    0.5062 H   0  0  0  0  0  0  0  0  0  0  0  0
    6.5560   -0.8957   -0.4476 H   0  0  0  0  0  0  0  0  0  0  0  0
    6.3473   -0.7150    1.3511 H   0  0  0  0  0  0  0  0  0  0  0  0
  1 12  2  0  0  0  0
  2 15  1  0  0  0  0
  2 20  1  0  0  0  0
  3 18  1  0  0  0  0
  3 21  1  0  0  0  0
  4  9  1  0  0  0  0
  4 10  1  0  0  0  0
  4 12  1  0  0  0  0
  5 11  1  0  0  0  0
  5 13  1  0  0  0  0
  5 29  1  0  0  0  0
  6 11  2  0  0  0  0
  6 14  1  0  0  0  0
  7  8  1  0  0  0  0
  7  9  1  0  0  0  0
  7 11  1  0  0  0  0
  7 22  1  0  0  0  0
  8 10  1  0  0  0  0
  8 23  1  0  0  0  0
  8 24  1  0  0  0  0
  9 25  1  0  0  0  0
  9 26  1  0  0  0  0
 10 27  1  0  0  0  0
 10 28  1  0  0  0  0
 12 15  1  0  0  0  0
 13 14  2  0  0  0  0
 13 16  1  0  0  0  0
 14 17  1  0  0  0  0
 15 30  1  0  0  0  0
 15 31  1  0  0  0  0
 16 18  2  0  0  0  0
 16 32  1  0  0  0  0
 17 19  2  0  0  0  0
 17 33  1  0  0  0  0
 18 19  1  0  0  0  0
 19 34  1  0  0  0  0
 20 35  1  0  0  0  0
 20 36  1  0  0  0  0
 20 37  1  0  0  0  0
 21 38  1  0  0  0  0
 21 39  1  0  0  0  0
 21 40  1  0  0  0  0
M  END
> <PUBCHEM_COMPOUND_CID>
45784065

> <PUBCHEM_CONFORMER_RMSD>
0.8

> <PUBCHEM_CONFORMER_DIVERSEORDER>
1
59
46
48
8
26
56
50
5
41
60
29
37
7
12
2
63
45
62
17
24
64
57
39
68
11
34
16
10
47
14
22
61
42
9
19
25
13
30
49
28
54
43
52
21
66
15
18
65
35
58
3
32
51
69
36
6
20
38
53
23
27
67
40
4
55
33
44
31

> <PUBCHEM_MMFF94_PARTIAL_CHARGES>
24
1 -0.57
10 0.3
11 0.01
12 0.57
13 -0.15
14 0.23
15 0.34
16 -0.15
17 -0.15
18 0.08
19 -0.15
2 -0.56
20 0.28
21 0.28
29 0.27
3 -0.36
32 0.15
33 0.15
34 0.15
4 -0.66
5 0.03
6 -0.57
7 0.18
9 0.3

> <PUBCHEM_EFFECTIVE_ROTOR_COUNT>
6

> <PUBCHEM_PHARMACOPHORE_FEATURES>
8
1 1 acceptor
1 2 acceptor
1 3 acceptor
1 5 donor
3 5 6 11 cation
5 4 7 8 9 10 rings
5 5 6 11 13 14 rings
6 13 14 16 17 18 19 rings

> <PUBCHEM_HEAVY_ATOM_COUNT>
21

> <PUBCHEM_ATOM_DEF_STEREO_COUNT>
1

> <PUBCHEM_ATOM_UDEF_STEREO_COUNT>
0

> <PUBCHEM_BOND_DEF_STEREO_COUNT>
0

> <PUBCHEM_BOND_UDEF_STEREO_COUNT>
0

> <PUBCHEM_ISOTOPIC_ATOM_COUNT>
0

> <PUBCHEM_COMPONENT_COUNT>
1

> <PUBCHEM_CACTVS_TAUTO_COUNT>
2

> <PUBCHEM_CONFORMER_ID>
02BA9C0100000001

> <PUBCHEM_MMFF94_ENERGY>
52.2305

> <PUBCHEM_FEATURE_SELFOVERLAP>
40.718

> <PUBCHEM_SHAPE_FINGERPRINT>
10906281 52 18336838554229920942
11089746 13 17989199378596270056
11405975 8 18114460184244371018
12107183 9 18336259034082162682
12236239 1 18059852887600693390
12293681 160 17275104999059628131
12596602 18 13623536748799593597
12633257 1 16370738053809007713
13103583 49 12829490303802758117
13177829 73 18272089374668121096
13583140 156 15502640633909260013
14251764 18 18260546748859946178
14576447 43 9655580699406153780
14790565 3 17397272011306674500
15188451 53 15068918498836589745
15196674 1 18264487459211888380
15238133 3 18187657902762428788
15531645 54 18410575089643841982
19489759 90 15554454015625236870
20567600 254 17968088708456948797
20621476 66 18411141354948525588
20645477 56 17748819726625632543
21033648 29 18272081751338184384
21054139 6 10231759989850143372
21315759 148 14490466452895777232
21365058 27 14996289106890734336
21421861 104 17750220449301177026
21637258 2 11602827930028060505
21774942 28 16844738503795370272
23402539 116 17989202668045450604
23402655 69 18273210906592912039
23559900 14 18412544328038979874
270888 7 18271527477831110873
2838139 119 18272929427827999729
3009799 131 16415476056382025288
3268164 11 14692303840924114971
335352 9 18409729565249568406
351380 3 11025804206207059425
3633792 109 16486702346762908942
4259306 186 10375869667324332745
4325135 7 18342174497487869215
445580 204 17560527201018148849
46194498 28 13182148767233992689
465052 167 11098154253332069697
474 4 18411421666410624635
5104073 3 18041835255149740576
5385378 56 18262521381554757626
57724786 102 18114186388442962708
59124914 9 18410855451575404232
59755656 520 18186797006960114715
6328613 192 18335425724907369476
633830 44 17605265375991016350
7226269 152 18343018895830682464
9862886 166 13182730481071770676

> <PUBCHEM_SHAPE_MULTIPOLES>
399.62
14.32
2.25
1.01
0.17
0.19
0.03
9.42
-2.41
1.45
-0.31
1.17
-0.17
-0.67

> <PUBCHEM_SHAPE_SELFOVERLAP>
854.804

> <PUBCHEM_SHAPE_VOLUME>
223

> <PUBCHEM_COORDINATE_TYPE>
2
5
10

$$$$
