51137140
  -OEChem-12032416243D

 47 50  0     1  0  0  0  0  0999 V2000
    6.1006    0.7933   -0.5466 S   0  0  0  0  0  0  0  0  0  0  0  0
    1.0678   -2.0144    0.3298 O   0  0  0  0  0  0  0  0  0  0  0  0
    7.0924   -0.1043   -1.1201 O   0  0  0  0  0  0  0  0  0  0  0  0
    5.7569    2.0288   -1.2339 O   0  0  0  0  0  0  0  0  0  0  0  0
   -3.3074   -0.2893   -0.1080 N   0  0  1  0  0  0  0  0  0  0  0  0
    0.9163    0.2341    0.0895 N   0  0  0  0  0  0  0  0  0  0  0  0
   -6.0195    1.6398    0.0449 N   0  0  0  0  0  0  0  0  0  0  0  0
   -1.1982   -1.1300    0.4784 C   0  0  1  0  0  0  0  0  0  0  0  0
   -1.8157   -0.4020    1.6850 C   0  0  0  0  0  0  0  0  0  0  0  0
   -2.0336   -0.6682   -0.7232 C   0  0  0  0  0  0  0  0  0  0  0  0
   -2.9381    0.4464    1.1012 C   0  0  0  0  0  0  0  0  0  0  0  0
    0.2835   -0.9011    0.2888 C   0  0  0  0  0  0  0  0  0  0  0  0
   -4.1434    0.4981   -1.0021 C   0  0  0  0  0  0  0  0  0  0  0  0
   -5.5819    0.5116   -0.5579 C   0  0  0  0  0  0  0  0  0  0  0  0
    2.2315   -0.1504   -0.0111 C   0  0  0  0  0  0  0  0  0  0  0  0
    2.3281   -1.5263    0.1355 C   0  0  0  0  0  0  0  0  0  0  0  0
    3.4016    0.5922   -0.2247 C   0  0  0  0  0  0  0  0  0  0  0  0
    4.6203   -0.0997   -0.2797 C   0  0  0  0  0  0  0  0  0  0  0  0
    3.5154   -2.2462    0.0871 C   0  0  0  0  0  0  0  0  0  0  0  0
   -6.3718   -0.6044   -0.7824 C   0  0  0  0  0  0  0  0  0  0  0  0
    4.6734   -1.4906   -0.1265 C   0  0  0  0  0  0  0  0  0  0  0  0
    6.6614    1.2120    1.0877 C   0  0  0  0  0  0  0  0  0  0  0  0
   -7.6962   -0.5595   -0.3612 C   0  0  0  0  0  0  0  0  0  0  0  0
   -7.3122    1.6466    0.4406 C   0  0  0  0  0  0  0  0  0  0  0  0
   -8.1832    0.5838    0.2626 C   0  0  0  0  0  0  0  0  0  0  0  0
    7.9520    1.9994    1.0464 C   0  0  0  0  0  0  0  0  0  0  0  0
   -1.3610   -2.2076    0.6233 H   0  0  0  0  0  0  0  0  0  0  0  0
   -2.2269   -1.1408    2.3842 H   0  0  0  0  0  0  0  0  0  0  0  0
   -1.0965    0.2130    2.2362 H   0  0  0  0  0  0  0  0  0  0  0  0
   -2.1593   -1.4752   -1.4532 H   0  0  0  0  0  0  0  0  0  0  0  0
   -1.5647    0.1851   -1.2314 H   0  0  0  0  0  0  0  0  0  0  0  0
   -3.7695    0.5402    1.8069 H   0  0  0  0  0  0  0  0  0  0  0  0
   -2.5581    1.4502    0.8711 H   0  0  0  0  0  0  0  0  0  0  0  0
   -3.7710    1.5253   -1.1139 H   0  0  0  0  0  0  0  0  0  0  0  0
   -4.1236    0.0671   -2.0128 H   0  0  0  0  0  0  0  0  0  0  0  0
    3.3478    1.6699   -0.3350 H   0  0  0  0  0  0  0  0  0  0  0  0
    3.5456   -3.3217    0.2084 H   0  0  0  0  0  0  0  0  0  0  0  0
   -5.9831   -1.4918   -1.2703 H   0  0  0  0  0  0  0  0  0  0  0  0
    5.6249   -2.0161   -0.1638 H   0  0  0  0  0  0  0  0  0  0  0  0
    6.8032    0.2788    1.6410 H   0  0  0  0  0  0  0  0  0  0  0  0
    5.8737    1.7984    1.5700 H   0  0  0  0  0  0  0  0  0  0  0  0
   -8.3477   -1.4137   -0.5189 H   0  0  0  0  0  0  0  0  0  0  0  0
   -7.6428    2.5610    0.9220 H   0  0  0  0  0  0  0  0  0  0  0  0
    8.2779    2.2490    2.0607 H   0  0  0  0  0  0  0  0  0  0  0  0
    7.8283    2.9336    0.4892 H   0  0  0  0  0  0  0  0  0  0  0  0
    8.7507    1.4268    0.5641 H   0  0  0  0  0  0  0  0  0  0  0  0
   -9.2120    0.6410    0.5991 H   0  0  0  0  0  0  0  0  0  0  0  0
  1  3  2  0  0  0  0
  1  4  2  0  0  0  0
  1 18  1  0  0  0  0
  1 22  1  0  0  0  0
  2 12  1  0  0  0  0
  2 16  1  0  0  0  0
  5 10  1  0  0  0  0
  5 11  1  0  0  0  0
  5 13  1  0  0  0  0
  6 12  2  0  0  0  0
  6 15  1  0  0  0  0
  7 14  1  0  0  0  0
  7 24  2  0  0  0  0
  8  9  1  0  0  0  0
  8 10  1  0  0  0  0
  8 12  1  0  0  0  0
  8 27  1  0  0  0  0
  9 11  1  0  0  0  0
  9 28  1  0  0  0  0
  9 29  1  0  0  0  0
 10 30  1  0  0  0  0
 10 31  1  0  0  0  0
 11 32  1  0  0  0  0
 11 33  1  0  0  0  0
 13 14  1  0  0  0  0
 13 34  1  0  0  0  0
 13 35  1  0  0  0  0
 14 20  2  0  0  0  0
 15 16  2  0  0  0  0
 15 17  1  0  0  0  0
 16 19  1  0  0  0  0
 17 18  2  0  0  0  0
 17 36  1  0  0  0  0
 18 21  1  0  0  0  0
 19 21  2  0  0  0  0
 19 37  1  0  0  0  0
 20 23  1  0  0  0  0
 20 38  1  0  0  0  0
 21 39  1  0  0  0  0
 22 26  1  0  0  0  0
 22 40  1  0  0  0  0
 22 41  1  0  0  0  0
 23 25  2  0  0  0  0
 23 42  1  0  0  0  0
 24 25  1  0  0  0  0
 24 43  1  0  0  0  0
 25 47  1  0  0  0  0
 26 44  1  0  0  0  0
 26 45  1  0  0  0  0
 26 46  1  0  0  0  0
M  END
> <PUBCHEM_COMPOUND_CID>
51137140

> <PUBCHEM_CONFORMER_RMSD>
0.8

> <PUBCHEM_CONFORMER_DIVERSEORDER>
1
228
121
143
147
76
229
200
101
61
5
168
235
19
232
22
96
181
188
189
225
90
237
152
28
213
157
177
15
57
192
151
103
130
230
47
108
150
4
159
125
175
199
84
165
38
144
220
99
132
186
37
83
174
115
234
71
208
65
94
179
180
205
163
69
26
153
126
178
233
158
193
105
109
63
137
41
139
91
187
124
212
89
133
164
88
219
70
141
129
18
173
134
120
146
145
184
7
196
58
128
24
211
148
40
142
169
118
85
20
176
185
43
201
198
227
154
23
54
194
51
140
56
114
204
167
30
138
3
210
60
116
226
27
8
111
183
223
214
12
182
81
161
221
162
79
197
206
119
44
191
21
67
73
160
13
97
207
29
102
35
25
136
172
110
202
222
77
92
100
131
11
149
224
171
17
209
62
112
155
166
195
135
33
104
74
238
170
2
156
117
80
75
236
34
86
98
6
218
217
48
190
16
82
39
216
45
64
122
49
66
203
68
72
215
53
107
87
32
50
59
127
9
93
36
52
231
31
14
55
106
78
95
123
10
113
42
46

> <PUBCHEM_MMFF94_PARTIAL_CHARGES>
31
1 1.2
10 0.27
11 0.27
12 0.3
13 0.41
14 0.17
15 0.23
16 0.14
17 -0.15
18 -0.01
19 -0.15
2 -0.28
20 -0.15
21 -0.15
22 0.11
23 -0.15
24 0.16
25 -0.15
3 -0.65
36 0.15
37 0.15
38 0.15
39 0.15
4 -0.65
42 0.15
43 0.15
47 0.15
5 -0.81
6 -0.57
7 -0.62
8 0.18

> <PUBCHEM_EFFECTIVE_ROTOR_COUNT>
6

> <PUBCHEM_PHARMACOPHORE_FEATURES>
8
1 3 acceptor
1 4 acceptor
1 5 cation
1 7 acceptor
5 2 6 12 15 16 rings
5 5 8 9 10 11 rings
6 15 16 17 18 19 21 rings
6 7 14 20 23 24 25 rings

> <PUBCHEM_HEAVY_ATOM_COUNT>
26

> <PUBCHEM_ATOM_DEF_STEREO_COUNT>
1

> <PUBCHEM_ATOM_UDEF_STEREO_COUNT>
0

> <PUBCHEM_BOND_DEF_STEREO_COUNT>
0

> <PUBCHEM_BOND_UDEF_STEREO_COUNT>
0

> <PUBCHEM_ISOTOPIC_ATOM_COUNT>
0

> <PUBCHEM_COMPONENT_COUNT>
1

> <PUBCHEM_CACTVS_TAUTO_COUNT>
1

> <PUBCHEM_CONFORMER_ID>
030C4A7400000001

> <PUBCHEM_MMFF94_ENERGY>
42.5205

> <PUBCHEM_FEATURE_SELFOVERLAP>
40.733

> <PUBCHEM_SHAPE_FINGERPRINT>
10 15 16225769631355539100
10299344 5 18272651234659743743
10369192 42 18201718436637564077
10411042 1 17758394077183177314
10595046 47 18339641140802703827
11135609 187 18272368659665211083
11315181 36 18412825773530934237
11638347 137 15213013834777122128
11646440 116 16950289481584552709
12236239 1 18201436944175151679
12539745 222 13118542032357282718
12592606 108 8142085368529074273
12730499 353 17894916174741833827
13533116 47 18201717297575035090
14170010 4 18260550021936177924
14251764 18 18113053835578445845
14461889 52 17895197731064298275
14849402 71 18336270123930729381
14856354 85 17489586776046218775
14933364 13 18411138013895953463
15183329 4 17275105003496655753
15301273 46 12035440636567814992
15352257 5 11527947854897284669
1577012 14 18343578517590228295
16994733 274 18262235522165576121
18335252 98 18335707161303116995
18643901 69 12031796876350147897
20156587 128 15410352000678522608
20157964 124 18334858299254854738
2026 5 13973145103036691348
20281389 69 17748824098722816357
20554085 129 18130211740906817682
21033648 29 18114460184402899344
21150785 3 17060338539456517860
21298829 104 18412547604329276744
21795232 338 18270966847719341747
22224240 67 17240483615531300299
23536379 177 18341329995037160251
23559900 14 15482375551792624299
23576562 1 16844707864379686665
28498 318 10159701283383654107
29717793 49 17846501383615083166
3004659 81 16559026095475929395
3146122 72 14907320019475130744
335352 9 18336272276257542398
34797466 226 15626220239102585418
3711267 37 18130799940857453713
4073 2 18114187453748053755
4093350 32 18131352982114776182
4325135 7 18409448086315493943
4340502 62 16225765199097223458
445580 126 18334849524768284744
445580 167 18411693301654125311
445580 37 16343709790445342185
5104073 3 15937521551733969245
5265222 85 18131067156584614599
5283156 175 16702305620392172134
5385378 56 18040991813798949618
5470011 282 15195570143480896652
5758199 1 18334575737603770107
5937810 71 17489315148939720057
59682541 35 17240773882981201697
59682541 52 17418105295730571566

> <PUBCHEM_SHAPE_MULTIPOLES>
506.37
25.49
1.87
1.09
12.41
0.04
0.13
-13.5
-1.81
-2.28
0.18
-0.4
-0.2
-0.03

> <PUBCHEM_SHAPE_SELFOVERLAP>
1084.486

> <PUBCHEM_SHAPE_VOLUME>
284.1

> <PUBCHEM_COORDINATE_TYPE>
2
5
10

$$$$
