45783621
  -OEChem-12032416273D

 59 62  0     1  0  0  0  0  0999 V2000
    1.7641    2.7616    1.5860 O   0  0  0  0  0  0  0  0  0  0  0  0
    3.6227   -5.0490   -0.3182 O   0  0  0  0  0  0  0  0  0  0  0  0
   -5.4101   -0.9571   -1.5247 O   0  0  0  0  0  0  0  0  0  0  0  0
   -7.9472   -1.5145   -1.3099 O   0  0  0  0  0  0  0  0  0  0  0  0
    3.6761    1.0560   -1.0486 N   0  0  1  0  0  0  0  0  0  0  0  0
    3.8740   -2.8805    0.4768 N   0  0  0  0  0  0  0  0  0  0  0  0
    0.8933    1.5701   -0.0988 N   0  0  0  0  0  0  0  0  0  0  0  0
    0.4131    2.5702    1.9020 N   0  0  0  0  0  0  0  0  0  0  0  0
   -3.6205    1.3463    1.6898 N   0  0  0  0  0  0  0  0  0  0  0  0
   -5.3348    0.2153    0.5169 N   0  0  0  0  0  0  0  0  0  0  0  0
    4.1620   -0.1109   -0.3160 C   0  0  0  0  0  0  0  0  0  0  0  0
    3.3658    2.2045   -0.1740 C   0  0  1  0  0  0  0  0  0  0  0  0
    4.6502    1.5348   -2.0296 C   0  0  0  0  0  0  0  0  0  0  0  0
    3.5942    3.4433   -1.0595 C   0  0  0  0  0  0  0  0  0  0  0  0
    4.4516   -1.2606   -1.2896 C   0  0  0  0  0  0  0  0  0  0  0  0
    3.1277   -0.5432    0.7315 C   0  0  0  0  0  0  0  0  0  0  0  0
    4.0889    2.8952   -2.3905 C   0  0  0  0  0  0  0  0  0  0  0  0
    4.8696   -2.5215   -0.5352 C   0  0  0  0  0  0  0  0  0  0  0  0
    3.5716   -1.8196    1.4458 C   0  0  0  0  0  0  0  0  0  0  0  0
    1.9631    2.1419    0.3932 C   0  0  0  0  0  0  0  0  0  0  0  0
    3.3252   -4.1624    0.4865 C   0  0  0  0  0  0  0  0  0  0  0  0
    2.3050   -4.4525    1.5582 C   0  0  0  0  0  0  0  0  0  0  0  0
   -0.0319    1.8594    0.8615 C   0  0  0  0  0  0  0  0  0  0  0  0
   -1.3944    1.4246    0.7502 C   0  0  0  0  0  0  0  0  0  0  0  0
   -1.8239    0.6875   -0.3479 C   0  0  0  0  0  0  0  0  0  0  0  0
   -2.3234    1.7253    1.7330 C   0  0  0  0  0  0  0  0  0  0  0  0
   -3.1508    0.2795   -0.4282 C   0  0  0  0  0  0  0  0  0  0  0  0
   -4.0014    0.6314    0.6075 C   0  0  0  0  0  0  0  0  0  0  0  0
   -5.9379   -0.5258   -0.5041 C   0  0  0  0  0  0  0  0  0  0  0  0
   -7.4078   -0.7684   -0.2385 C   0  0  0  0  0  0  0  0  0  0  0  0
   -9.3344   -1.7806   -1.1254 C   0  0  0  0  0  0  0  0  0  0  0  0
    5.0960    0.1381    0.2084 H   0  0  0  0  0  0  0  0  0  0  0  0
    4.0798    2.2602    0.6603 H   0  0  0  0  0  0  0  0  0  0  0  0
    4.7049    0.9063   -2.9234 H   0  0  0  0  0  0  0  0  0  0  0  0
    5.6538    1.6412   -1.5987 H   0  0  0  0  0  0  0  0  0  0  0  0
    4.3698    4.0776   -0.6132 H   0  0  0  0  0  0  0  0  0  0  0  0
    2.6983    4.0576   -1.2007 H   0  0  0  0  0  0  0  0  0  0  0  0
    5.2596   -1.0095   -1.9853 H   0  0  0  0  0  0  0  0  0  0  0  0
    3.5576   -1.4802   -1.8884 H   0  0  0  0  0  0  0  0  0  0  0  0
    3.0012    0.2037    1.5193 H   0  0  0  0  0  0  0  0  0  0  0  0
    2.1569   -0.7347    0.2577 H   0  0  0  0  0  0  0  0  0  0  0  0
    4.8345    3.5474   -2.8547 H   0  0  0  0  0  0  0  0  0  0  0  0
    3.2469    2.7904   -3.0861 H   0  0  0  0  0  0  0  0  0  0  0  0
    5.0186   -3.3425   -1.2438 H   0  0  0  0  0  0  0  0  0  0  0  0
    5.8216   -2.3609   -0.0153 H   0  0  0  0  0  0  0  0  0  0  0  0
    4.4880   -1.6373    2.0200 H   0  0  0  0  0  0  0  0  0  0  0  0
    2.8017   -2.1229    2.1576 H   0  0  0  0  0  0  0  0  0  0  0  0
    1.9478   -5.4815    1.4516 H   0  0  0  0  0  0  0  0  0  0  0  0
    2.7568   -4.3497    2.5483 H   0  0  0  0  0  0  0  0  0  0  0  0
    1.4474   -3.7824    1.4551 H   0  0  0  0  0  0  0  0  0  0  0  0
   -1.1460    0.4174   -1.1537 H   0  0  0  0  0  0  0  0  0  0  0  0
   -2.0693    2.2960    2.6213 H   0  0  0  0  0  0  0  0  0  0  0  0
   -3.4101   -0.2876   -1.3070 H   0  0  0  0  0  0  0  0  0  0  0  0
   -5.9175    0.4988    1.3009 H   0  0  0  0  0  0  0  0  0  0  0  0
   -7.9165    0.1987   -0.1563 H   0  0  0  0  0  0  0  0  0  0  0  0
   -7.5101   -1.3245    0.7000 H   0  0  0  0  0  0  0  0  0  0  0  0
   -9.4926   -2.3688   -0.2164 H   0  0  0  0  0  0  0  0  0  0  0  0
   -9.8990   -0.8448   -1.0733 H   0  0  0  0  0  0  0  0  0  0  0  0
   -9.6904   -2.3577   -1.9829 H   0  0  0  0  0  0  0  0  0  0  0  0
  1  8  1  0  0  0  0
  1 20  1  0  0  0  0
  2 21  2  0  0  0  0
  3 29  2  0  0  0  0
  4 30  1  0  0  0  0
  4 31  1  0  0  0  0
  5 11  1  0  0  0  0
  5 12  1  0  0  0  0
  5 13  1  0  0  0  0
  6 18  1  0  0  0  0
  6 19  1  0  0  0  0
  6 21  1  0  0  0  0
  7 20  2  0  0  0  0
  7 23  1  0  0  0  0
  8 23  2  0  0  0  0
  9 26  1  0  0  0  0
  9 28  2  0  0  0  0
 10 28  1  0  0  0  0
 10 29  1  0  0  0  0
 10 54  1  0  0  0  0
 11 15  1  0  0  0  0
 11 16  1  0  0  0  0
 11 32  1  0  0  0  0
 12 14  1  0  0  0  0
 12 20  1  0  0  0  0
 12 33  1  0  0  0  0
 13 17  1  0  0  0  0
 13 34  1  0  0  0  0
 13 35  1  0  0  0  0
 14 17  1  0  0  0  0
 14 36  1  0  0  0  0
 14 37  1  0  0  0  0
 15 18  1  0  0  0  0
 15 38  1  0  0  0  0
 15 39  1  0  0  0  0
 16 19  1  0  0  0  0
 16 40  1  0  0  0  0
 16 41  1  0  0  0  0
 17 42  1  0  0  0  0
 17 43  1  0  0  0  0
 18 44  1  0  0  0  0
 18 45  1  0  0  0  0
 19 46  1  0  0  0  0
 19 47  1  0  0  0  0
 21 22  1  0  0  0  0
 22 48  1  0  0  0  0
 22 49  1  0  0  0  0
 22 50  1  0  0  0  0
 23 24  1  0  0  0  0
 24 25  1  0  0  0  0
 24 26  2  0  0  0  0
 25 27  2  0  0  0  0
 25 51  1  0  0  0  0
 26 52  1  0  0  0  0
 27 28  1  0  0  0  0
 27 53  1  0  0  0  0
 29 30  1  0  0  0  0
 30 55  1  0  0  0  0
 30 56  1  0  0  0  0
 31 57  1  0  0  0  0
 31 58  1  0  0  0  0
 31 59  1  0  0  0  0
M  END
> <PUBCHEM_COMPOUND_CID>
45783621

> <PUBCHEM_CONFORMER_RMSD>
1

> <PUBCHEM_CONFORMER_DIVERSEORDER>
1
8
37
41
17
4
18
16
9
20
14
22
24
13
34
35
19
38
26
30
25
31
39
23
32
2
29
40
33
5
12
6
36
27
10
7
11
28
3
21
15

> <PUBCHEM_MMFF94_PARTIAL_CHARGES>
31
1 -0.02
10 -0.55
11 0.27
12 0.45
13 0.27
18 0.3
19 0.3
2 -0.57
20 0.3
21 0.57
22 0.06
23 0.46
24 0.05
25 -0.15
26 0.16
27 -0.15
28 0.43
29 0.57
3 -0.57
30 0.34
31 0.28
4 -0.56
5 -0.81
51 0.15
52 0.15
53 0.15
54 0.37
6 -0.66
7 -0.57
8 -0.41
9 -0.62

> <PUBCHEM_EFFECTIVE_ROTOR_COUNT>
10.2

> <PUBCHEM_PHARMACOPHORE_FEATURES>
10
1 10 donor
1 2 acceptor
1 3 acceptor
1 4 acceptor
1 5 cation
3 7 8 23 cation
5 1 7 8 20 23 rings
5 5 12 13 14 17 rings
6 6 11 15 16 18 19 rings
6 9 24 25 26 27 28 rings

> <PUBCHEM_HEAVY_ATOM_COUNT>
31

> <PUBCHEM_ATOM_DEF_STEREO_COUNT>
1

> <PUBCHEM_ATOM_UDEF_STEREO_COUNT>
0

> <PUBCHEM_BOND_DEF_STEREO_COUNT>
0

> <PUBCHEM_BOND_UDEF_STEREO_COUNT>
0

> <PUBCHEM_ISOTOPIC_ATOM_COUNT>
0

> <PUBCHEM_COMPONENT_COUNT>
1

> <PUBCHEM_CACTVS_TAUTO_COUNT>
11

> <PUBCHEM_CONFORMER_ID>
02BA9A4500000001

> <PUBCHEM_MMFF94_ENERGY>
65.1404

> <PUBCHEM_FEATURE_SELFOVERLAP>
50.758

> <PUBCHEM_SHAPE_FINGERPRINT>
10448021 39 18411978027298995679
10622 236 18196651800492891395
11069576 57 18337677425667222918
11103572 155 18335714875423194267
11181472 205 18335140874492624117
11227150 75 16809239598572798946
11801155 225 18057033838799470471
12107183 9 17908718232430888945
12838863 1 18188198790097267610
13533116 47 18341328968249715921
13553644 42 18343864399836966295
13692114 37 18268707389656447600
13782708 43 18343011208603912309
14347332 77 18272088280269313585
14863182 85 18409730660862192488
15250474 111 18412548712504120531
15264996 154 18200324220659145663
15475509 35 18130213926501319465
16989713 51 17254562596265773326
17134984 74 18337391659664722911
17324776 126 17610327256447909139
19319366 153 18339926025761778356
20587220 46 17917990581185913766
20721686 124 17168420571712650136
20775438 99 18335700572274906082
20775530 9 17755874009052336466
208703 8 18131070381281932830
21057603 40 18261379084275454983
21133410 171 16736614656856444834
21133410 52 18264770944762074438
21304303 94 18334292101868152514
21360442 67 18115869775199725779
21599406 157 17968927708775321503
21792934 111 13182755745261395667
23522609 53 17984456077066695873
34797466 226 17168418363941327541
3534868 343 18334586758205964157
397830 11 10447640353911648437
46194498 28 17894346679136544444
5104073 3 16845578634427995937
5223283 242 17096648682471805557
59682541 52 18113614599641706413
6058803 2 18125743209091871976
6201320 221 18128797704750917919
6636735 143 13470680435457744871
6677587 24 17534044535555127668
7970288 3 18198061374394879922
9831232 110 18261662685213068463

> <PUBCHEM_SHAPE_MULTIPOLES>
584.6
18.59
5.37
1.85
53.04
6.26
-0.08
11.71
-10.61
-10.74
0.64
-0.47
-0.87
-4.07

> <PUBCHEM_SHAPE_SELFOVERLAP>
1238.291

> <PUBCHEM_SHAPE_VOLUME>
325.8

> <PUBCHEM_COORDINATE_TYPE>
2
5
10

$$$$
