38030268
  -OEChem-12032416363D

 65 67  0     1  0  0  0  0  0999 V2000
   -1.9787    0.0896    0.9046 O   0  0  0  0  0  0  0  0  0  0  0  0
    3.3474   -0.2290   -0.3256 N   0  0  0  0  0  0  0  0  0  0  0  0
   -2.6855    1.9279    1.9655 N   0  0  0  0  0  0  0  0  0  0  0  0
    5.2632   -3.2885    0.6089 N   0  0  0  0  0  0  0  0  0  0  0  0
   -3.7974    1.1973    1.5899 N   0  0  0  0  0  0  0  0  0  0  0  0
    0.9058    1.2034   -1.3355 C   0  0  1  0  0  0  0  0  0  0  0  0
    2.3426    1.7822   -1.3149 C   0  0  1  0  0  0  0  0  0  0  0  0
   -0.0922    2.2257   -0.7705 C   0  0  0  0  0  0  0  0  0  0  0  0
    0.2485    2.6351    0.6748 C   0  0  2  0  0  0  0  0  0  0  0  0
    0.4799    0.7884   -2.7472 C   0  0  0  0  0  0  0  0  0  0  0  0
    1.7187    2.9649    0.8350 C   0  0  0  0  0  0  0  0  0  0  0  0
    2.6380    2.5872   -0.0711 C   0  0  0  0  0  0  0  0  0  0  0  0
    3.3885    0.6715   -1.4647 C   0  0  0  0  0  0  0  0  0  0  0  0
   -0.1829    1.5535    1.6715 C   0  0  0  0  0  0  0  0  0  0  0  0
   -0.6082   -0.2786   -2.6827 C   0  0  0  0  0  0  0  0  0  0  0  0
    0.0010    2.0024   -3.5369 C   0  0  0  0  0  0  0  0  0  0  0  0
    2.1026    3.7795    2.0389 C   0  0  0  0  0  0  0  0  0  0  0  0
   -1.6471    1.2438    1.5454 C   0  0  0  0  0  0  0  0  0  0  0  0
    4.3323   -1.2952   -0.4637 C   0  0  0  0  0  0  0  0  0  0  0  0
    4.2901   -2.2116    0.7553 C   0  0  0  0  0  0  0  0  0  0  0  0
   -3.3373    0.1334    0.9741 C   0  0  0  0  0  0  0  0  0  0  0  0
    4.9082   -4.4227    1.4633 C   0  0  0  0  0  0  0  0  0  0  0  0
    6.6097   -2.8127    0.9294 C   0  0  0  0  0  0  0  0  0  0  0  0
   -4.0321   -0.9691    0.3752 C   0  0  0  0  0  0  0  0  0  0  0  0
   -5.4260   -1.0103    0.3984 C   0  0  0  0  0  0  0  0  0  0  0  0
   -3.3138   -1.9999   -0.2306 C   0  0  0  0  0  0  0  0  0  0  0  0
   -6.1020   -2.0826   -0.1840 C   0  0  0  0  0  0  0  0  0  0  0  0
   -3.9895   -3.0722   -0.8130 C   0  0  0  0  0  0  0  0  0  0  0  0
   -5.3837   -3.1136   -0.7897 C   0  0  0  0  0  0  0  0  0  0  0  0
    0.8713    0.3146   -0.6933 H   0  0  0  0  0  0  0  0  0  0  0  0
    2.4735    2.4700   -2.1600 H   0  0  0  0  0  0  0  0  0  0  0  0
   -1.1253    1.8789   -0.8583 H   0  0  0  0  0  0  0  0  0  0  0  0
   -0.0435    3.1575   -1.3507 H   0  0  0  0  0  0  0  0  0  0  0  0
   -0.3293    3.5472    0.8836 H   0  0  0  0  0  0  0  0  0  0  0  0
    1.3224    0.3452   -3.2875 H   0  0  0  0  0  0  0  0  0  0  0  0
    3.6726    2.8937    0.0712 H   0  0  0  0  0  0  0  0  0  0  0  0
    4.3853    1.1267   -1.5433 H   0  0  0  0  0  0  0  0  0  0  0  0
    3.2292    0.1158   -2.3943 H   0  0  0  0  0  0  0  0  0  0  0  0
   -0.0055    1.8893    2.7004 H   0  0  0  0  0  0  0  0  0  0  0  0
    0.4004    0.6339    1.5423 H   0  0  0  0  0  0  0  0  0  0  0  0
   -0.8831   -0.6058   -3.6916 H   0  0  0  0  0  0  0  0  0  0  0  0
   -0.2606   -1.1611   -2.1349 H   0  0  0  0  0  0  0  0  0  0  0  0
   -1.5187    0.0857   -2.1973 H   0  0  0  0  0  0  0  0  0  0  0  0
    0.7197    2.8271   -3.5212 H   0  0  0  0  0  0  0  0  0  0  0  0
   -0.1226    1.7201   -4.5898 H   0  0  0  0  0  0  0  0  0  0  0  0
   -0.9779    2.3697   -3.2115 H   0  0  0  0  0  0  0  0  0  0  0  0
    1.5293    4.7118    2.0655 H   0  0  0  0  0  0  0  0  0  0  0  0
    3.1647    4.0469    2.0339 H   0  0  0  0  0  0  0  0  0  0  0  0
    1.9084    3.2238    2.9610 H   0  0  0  0  0  0  0  0  0  0  0  0
    3.5230    0.2805    0.5393 H   0  0  0  0  0  0  0  0  0  0  0  0
    4.1211   -1.8810   -1.3673 H   0  0  0  0  0  0  0  0  0  0  0  0
    5.3262   -0.8493   -0.5787 H   0  0  0  0  0  0  0  0  0  0  0  0
    4.4456   -1.6488    1.6857 H   0  0  0  0  0  0  0  0  0  0  0  0
    3.2758   -2.6309    0.8123 H   0  0  0  0  0  0  0  0  0  0  0  0
    5.6264   -5.2405    1.3362 H   0  0  0  0  0  0  0  0  0  0  0  0
    4.8819   -4.1478    2.5241 H   0  0  0  0  0  0  0  0  0  0  0  0
    3.9277   -4.8249    1.1849 H   0  0  0  0  0  0  0  0  0  0  0  0
    6.6822   -2.4295    1.9539 H   0  0  0  0  0  0  0  0  0  0  0  0
    7.3349   -3.6280    0.8228 H   0  0  0  0  0  0  0  0  0  0  0  0
    6.9400   -2.0283    0.2419 H   0  0  0  0  0  0  0  0  0  0  0  0
   -6.0064   -0.2179    0.8649 H   0  0  0  0  0  0  0  0  0  0  0  0
   -2.2274   -2.0035   -0.2683 H   0  0  0  0  0  0  0  0  0  0  0  0
   -7.1875   -2.1150   -0.1660 H   0  0  0  0  0  0  0  0  0  0  0  0
   -3.4306   -3.8751   -1.2850 H   0  0  0  0  0  0  0  0  0  0  0  0
   -5.9098   -3.9485   -1.2432 H   0  0  0  0  0  0  0  0  0  0  0  0
  1 18  1  0  0  0  0
  1 21  1  0  0  0  0
  2 13  1  0  0  0  0
  2 19  1  0  0  0  0
  2 50  1  0  0  0  0
  3  5  1  0  0  0  0
  3 18  2  0  0  0  0
  4 20  1  0  0  0  0
  4 22  1  0  0  0  0
  4 23  1  0  0  0  0
  5 21  2  0  0  0  0
  6  7  1  0  0  0  0
  6  8  1  0  0  0  0
  6 10  1  0  0  0  0
  6 30  1  0  0  0  0
  7 12  1  0  0  0  0
  7 13  1  0  0  0  0
  7 31  1  0  0  0  0
  8  9  1  0  0  0  0
  8 32  1  0  0  0  0
  8 33  1  0  0  0  0
  9 11  1  0  0  0  0
  9 14  1  0  0  0  0
  9 34  1  0  0  0  0
 10 15  1  0  0  0  0
 10 16  1  0  0  0  0
 10 35  1  0  0  0  0
 11 12  2  0  0  0  0
 11 17  1  0  0  0  0
 12 36  1  0  0  0  0
 13 37  1  0  0  0  0
 13 38  1  0  0  0  0
 14 18  1  0  0  0  0
 14 39  1  0  0  0  0
 14 40  1  0  0  0  0
 15 41  1  0  0  0  0
 15 42  1  0  0  0  0
 15 43  1  0  0  0  0
 16 44  1  0  0  0  0
 16 45  1  0  0  0  0
 16 46  1  0  0  0  0
 17 47  1  0  0  0  0
 17 48  1  0  0  0  0
 17 49  1  0  0  0  0
 19 20  1  0  0  0  0
 19 51  1  0  0  0  0
 19 52  1  0  0  0  0
 20 53  1  0  0  0  0
 20 54  1  0  0  0  0
 21 24  1  0  0  0  0
 22 55  1  0  0  0  0
 22 56  1  0  0  0  0
 22 57  1  0  0  0  0
 23 58  1  0  0  0  0
 23 59  1  0  0  0  0
 23 60  1  0  0  0  0
 24 25  2  0  0  0  0
 24 26  1  0  0  0  0
 25 27  1  0  0  0  0
 25 61  1  0  0  0  0
 26 28  2  0  0  0  0
 26 62  1  0  0  0  0
 27 29  2  0  0  0  0
 27 63  1  0  0  0  0
 28 29  1  0  0  0  0
 28 64  1  0  0  0  0
 29 65  1  0  0  0  0
M  END
> <PUBCHEM_COMPOUND_CID>
38030268

> <PUBCHEM_CONFORMER_RMSD>
1

> <PUBCHEM_CONFORMER_DIVERSEORDER>
1
148
73
123
131
62
48
165
151
113
138
156
78
133
79
112
9
70
44
52
85
149
53
140
108
59
17
136
132
119
97
152
7
96
128
121
50
38
111
63
37
102
142
24
32
74
163
43
26
84
30
114
93
60
144
90
19
25
67
75
72
157
143
153
103
105
54
81
124
86
154
101
166
80
87
2
69
134
68
171
110
159
137
170
139
55
155
169
147
117
168
82
99
94
12
109
164
27
77
51
36
135
127
145
8
150
120
158
46
18
116
141
161
10
57
83
146
49
5
66
129
91
61
35
40
98
71
92
65
21
88
167
100
162
16
41
126
28
56
58
42
23
130
76
22
107
20
160
31
39
115
3
125
89
15
47
122
106
6
45
34
13
104
33
29
4
118
11
95
14
64

> <PUBCHEM_MMFF94_PARTIAL_CHARGES>
31
1 -0.28
11 -0.28
12 -0.29
13 0.27
14 0.18
17 0.14
18 0.3
19 0.27
2 -0.9
20 0.27
21 0.43
22 0.27
23 0.27
24 0.05
25 -0.15
26 -0.15
27 -0.15
28 -0.15
29 -0.15
3 -0.34
36 0.15
4 -0.81
5 -0.34
50 0.36
61 0.15
62 0.15
63 0.15
64 0.15
65 0.15
7 0.14
9 0.14

> <PUBCHEM_EFFECTIVE_ROTOR_COUNT>
9.8

> <PUBCHEM_PHARMACOPHORE_FEATURES>
7
1 2 cation
1 2 donor
1 4 cation
3 10 15 16 hydrophobe
5 1 3 5 18 21 rings
6 24 25 26 27 28 29 rings
6 6 7 8 9 11 12 rings

> <PUBCHEM_HEAVY_ATOM_COUNT>
29

> <PUBCHEM_ATOM_DEF_STEREO_COUNT>
3

> <PUBCHEM_ATOM_UDEF_STEREO_COUNT>
0

> <PUBCHEM_BOND_DEF_STEREO_COUNT>
0

> <PUBCHEM_BOND_UDEF_STEREO_COUNT>
0

> <PUBCHEM_ISOTOPIC_ATOM_COUNT>
0

> <PUBCHEM_COMPONENT_COUNT>
1

> <PUBCHEM_CACTVS_TAUTO_COUNT>
1

> <PUBCHEM_CONFORMER_ID>
02444BBC00000001

> <PUBCHEM_MMFF94_ENERGY>
53.3266

> <PUBCHEM_FEATURE_SELFOVERLAP>
35.522

> <PUBCHEM_SHAPE_FINGERPRINT>
10622 236 18336548226761747578
11135926 11 17243048815230085870
11552529 35 17905603303726450514
12633257 1 17915484751536706577
12977781 61 18121466186163699504
131258 38 18270396226210343126
13165053 137 14871832808457163419
13402501 40 17056979665047127629
13533116 47 18338800142876958195
14028597 1 15834186442288595556
14068700 675 18343019982241026690
14114206 34 15285638725074759436
14674994 50 17755016402397951316
14950920 106 17915168028327445914
15419009 47 18042958771381492941
15513586 35 13466123006657848178
18681886 176 16198768988901140816
19315092 285 18341613758477020378
20626108 58 18060153053890383313
21049683 118 15909365545643443104
21315764 119 18041273387913303343
21401589 2 13182437951155071382
21458453 9 16127787773759982450
23559900 14 17273446978474848069
25019877 29 13853867014331144469
25222932 49 17267506527645518295
3027735 51 16590281758126800826
3680242 22 17986975096812422395
437795 70 16878213174495461727
46194498 28 15721673335623760945
484985 159 17758670054110300446
5104073 3 17416424241072354731
513532 50 16879342531228666485
66674814 147 18040720259811973866
6823239 73 16699530508741487029
9709674 26 17058123036844507205

> <PUBCHEM_SHAPE_MULTIPOLES>
571.01
12.83
5.32
2.62
2.64
3.26
-1.92
19.85
3.43
-6.38
2.24
-0.32
-2.03
-3.12

> <PUBCHEM_SHAPE_SELFOVERLAP>
1181.65

> <PUBCHEM_SHAPE_VOLUME>
328.1

> <PUBCHEM_COORDINATE_TYPE>
2
5
10

$$$$
