75536742
  -OEChem-12032416343D

 36 37  0     1  0  0  0  0  0999 V2000
    2.1011   -1.3255    0.2352 O   0  0  0  0  0  0  0  0  0  0  0  0
    3.6163    1.9190   -0.0516 O   0  0  0  0  0  0  0  0  0  0  0  0
   -5.1715   -0.6886    0.2179 O   0  0  0  0  0  0  0  0  0  0  0  0
   -0.9484    1.8896    0.1821 O   0  0  0  0  0  0  0  0  0  0  0  0
   -0.3087   -0.0979   -0.7690 N   0  0  0  0  0  0  0  0  0  0  0  0
    5.6376   -0.4782    0.1558 N   0  0  0  0  0  0  0  0  0  0  0  0
   -2.4694    0.1383    0.1606 N   0  0  0  0  0  0  0  0  0  0  0  0
    2.0127    0.0884   -0.0079 C   0  0  1  0  0  0  0  0  0  0  0  0
    3.4263    0.5474   -0.3393 C   0  0  2  0  0  0  0  0  0  0  0  0
    4.2462   -0.3589    0.5602 C   0  0  1  0  0  0  0  0  0  0  0  0
    3.4824   -1.6677    0.4453 C   0  0  0  0  0  0  0  0  0  0  0  0
    1.0175    0.3562   -1.1229 C   0  0  0  0  0  0  0  0  0  0  0  0
   -2.8251   -1.2752   -0.0289 C   0  0  0  0  0  0  0  0  0  0  0  0
   -3.4923    0.9313    0.8463 C   0  0  0  0  0  0  0  0  0  0  0  0
   -1.2242    0.7246   -0.1230 C   0  0  0  0  0  0  0  0  0  0  0  0
   -4.2378   -1.4089   -0.5876 C   0  0  0  0  0  0  0  0  0  0  0  0
   -4.8627    0.7062    0.2267 C   0  0  0  0  0  0  0  0  0  0  0  0
    1.6595    0.5577    0.9196 H   0  0  0  0  0  0  0  0  0  0  0  0
    3.6616    0.3721   -1.3965 H   0  0  0  0  0  0  0  0  0  0  0  0
    4.2099    0.0082    1.5939 H   0  0  0  0  0  0  0  0  0  0  0  0
    3.5743   -2.2875    1.3425 H   0  0  0  0  0  0  0  0  0  0  0  0
    3.8026   -2.2622   -0.4182 H   0  0  0  0  0  0  0  0  0  0  0  0
    1.2955   -0.1973   -2.0267 H   0  0  0  0  0  0  0  0  0  0  0  0
    0.9850    1.4232   -1.3676 H   0  0  0  0  0  0  0  0  0  0  0  0
   -0.5261   -1.0558   -1.0027 H   0  0  0  0  0  0  0  0  0  0  0  0
    6.0968    0.4280    0.2346 H   0  0  0  0  0  0  0  0  0  0  0  0
    6.1269   -1.1086    0.7895 H   0  0  0  0  0  0  0  0  0  0  0  0
    3.4136    2.0647    0.8880 H   0  0  0  0  0  0  0  0  0  0  0  0
   -2.7742   -1.7336    0.9660 H   0  0  0  0  0  0  0  0  0  0  0  0
   -2.1377   -1.8146   -0.6779 H   0  0  0  0  0  0  0  0  0  0  0  0
   -3.2420    1.9963    0.8338 H   0  0  0  0  0  0  0  0  0  0  0  0
   -3.4915    0.5963    1.8904 H   0  0  0  0  0  0  0  0  0  0  0  0
   -4.2919   -1.0413   -1.6194 H   0  0  0  0  0  0  0  0  0  0  0  0
   -4.5399   -2.4609   -0.5930 H   0  0  0  0  0  0  0  0  0  0  0  0
   -5.6304    1.2175    0.8156 H   0  0  0  0  0  0  0  0  0  0  0  0
   -4.9094    1.0963   -0.7970 H   0  0  0  0  0  0  0  0  0  0  0  0
  1  8  1  0  0  0  0
  1 11  1  0  0  0  0
  2  9  1  0  0  0  0
  2 28  1  0  0  0  0
  3 16  1  0  0  0  0
  3 17  1  0  0  0  0
  4 15  2  0  0  0  0
  5 12  1  0  0  0  0
  5 15  1  0  0  0  0
  5 25  1  0  0  0  0
  6 10  1  0  0  0  0
  6 26  1  0  0  0  0
  6 27  1  0  0  0  0
  7 13  1  0  0  0  0
  7 14  1  0  0  0  0
  7 15  1  0  0  0  0
  8  9  1  0  0  0  0
  8 12  1  0  0  0  0
  8 18  1  0  0  0  0
  9 10  1  0  0  0  0
  9 19  1  0  0  0  0
 10 11  1  0  0  0  0
 10 20  1  0  0  0  0
 11 21  1  0  0  0  0
 11 22  1  0  0  0  0
 12 23  1  0  0  0  0
 12 24  1  0  0  0  0
 13 16  1  0  0  0  0
 13 29  1  0  0  0  0
 13 30  1  0  0  0  0
 14 17  1  0  0  0  0
 14 31  1  0  0  0  0
 14 32  1  0  0  0  0
 16 33  1  0  0  0  0
 16 34  1  0  0  0  0
 17 35  1  0  0  0  0
 17 36  1  0  0  0  0
M  END
> <PUBCHEM_COMPOUND_CID>
75536742

> <PUBCHEM_CONFORMER_RMSD>
0.8

> <PUBCHEM_CONFORMER_DIVERSEORDER>
1
7
19
21
20
24
18
15
10
16
4
8
6
22
11
5
13
2
12
3
17
14
23
9

> <PUBCHEM_MMFF94_PARTIAL_CHARGES>
21
1 -0.56
10 0.27
11 0.28
12 0.3
13 0.3
14 0.3
15 0.69
16 0.28
17 0.28
2 -0.68
25 0.37
26 0.36
27 0.36
28 0.4
3 -0.56
4 -0.57
5 -0.73
6 -0.99
7 -0.66
8 0.28
9 0.28

> <PUBCHEM_EFFECTIVE_ROTOR_COUNT>
6.2

> <PUBCHEM_PHARMACOPHORE_FEATURES>
10
1 1 acceptor
1 2 acceptor
1 2 donor
1 3 acceptor
1 4 acceptor
1 5 donor
1 6 cation
1 6 donor
5 1 8 9 10 11 rings
6 3 7 13 14 16 17 rings

> <PUBCHEM_HEAVY_ATOM_COUNT>
17

> <PUBCHEM_ATOM_DEF_STEREO_COUNT>
3

> <PUBCHEM_ATOM_UDEF_STEREO_COUNT>
0

> <PUBCHEM_BOND_DEF_STEREO_COUNT>
0

> <PUBCHEM_BOND_UDEF_STEREO_COUNT>
0

> <PUBCHEM_ISOTOPIC_ATOM_COUNT>
0

> <PUBCHEM_COMPONENT_COUNT>
1

> <PUBCHEM_CACTVS_TAUTO_COUNT>
2

> <PUBCHEM_CONFORMER_ID>
0480996600000001

> <PUBCHEM_MMFF94_ENERGY>
29.8973

> <PUBCHEM_FEATURE_SELFOVERLAP>
50.747

> <PUBCHEM_SHAPE_FINGERPRINT>
10366900 7 18187090559336908480
12107183 9 17691408512037473195
12236239 1 18335140894737631022
12251169 10 18412262813869240092
12815109 37 18334011687901253167
12916748 109 9439406852019031359
13167823 11 18410855464639738219
13675066 3 17894919520673818129
14341114 176 18342742871404470154
14386348 63 16225770705012954154
15196674 1 18411138073302886939
17834072 33 18411419535378851988
18186145 218 14273742875691482541
19050596 39 18411138039122529072
200 152 18260263044858356551
20279233 1 16081371851416257762
20645477 70 17894910711347994354
21065198 48 18412264995612432240
21267235 1 18410019835649628174
22485316 2 18409729569228050133
22646028 1 18334013891013630823
23402539 116 18271801320397202813
23559900 14 18409162238155013352
26918003 58 17967254199809711905
300161 21 18410005533587633725
42 15 18334296452764734423
4214541 1 18410292476174042545
5104073 3 18411702114204408513
5283173 99 18041827412492394613
5374978 207 18411698790000135872
573450 72 18413669098084314315
77779 3 18412265029819137675
9709674 26 18409455756093798099

> <PUBCHEM_SHAPE_MULTIPOLES>
311.43
11.9
1.62
0.82
0.32
0.07
0.07
-2.02
-1.65
-0.07
-0.08
0.05
0.01
-0.8

> <PUBCHEM_SHAPE_SELFOVERLAP>
628.968

> <PUBCHEM_SHAPE_VOLUME>
181.9

> <PUBCHEM_COORDINATE_TYPE>
2
5
10

$$$$
