71693895
  -OEChem-12032416273D

 54 57  0     1  0  0  0  0  0999 V2000
   -0.1764    2.7544   -2.9076 O   0  0  0  0  0  0  0  0  0  0  0  0
    2.4018    3.2374   -2.0957 O   0  0  0  0  0  0  0  0  0  0  0  0
    0.3055   -1.5483   -1.3138 O   0  0  0  0  0  0  0  0  0  0  0  0
    5.1687   -2.3460    1.3618 O   0  0  0  0  0  0  0  0  0  0  0  0
   -3.6194   -3.0970   -0.9994 O   0  0  0  0  0  0  0  0  0  0  0  0
   -0.7113    0.4859   -0.8577 N   0  0  0  0  0  0  0  0  0  0  0  0
   -4.0709   -2.1500   -0.0882 N   0  0  0  0  0  0  0  0  0  0  0  0
    1.2068    1.5575    0.2858 C   0  0  2  0  0  0  0  0  0  0  0  0
    0.4587    1.3064   -1.0429 C   0  0  2  0  0  0  0  0  0  0  0  0
    0.0995    2.7128   -1.5203 C   0  0  1  0  0  0  0  0  0  0  0  0
    1.7444    3.0094    0.2002 C   0  0  0  0  0  0  0  0  0  0  0  0
    1.3463    3.5215   -1.1826 C   0  0  1  0  0  0  0  0  0  0  0  0
    2.2669    0.5157    0.5747 C   0  0  0  0  0  0  0  0  0  0  0  0
    3.3206    0.3267   -0.3195 C   0  0  0  0  0  0  0  0  0  0  0  0
    2.1886   -0.2566    1.7336 C   0  0  0  0  0  0  0  0  0  0  0  0
   -0.6888   -0.8938   -1.0112 C   0  0  0  0  0  0  0  0  0  0  0  0
    4.2960   -0.6346   -0.0547 C   0  0  0  0  0  0  0  0  0  0  0  0
    3.1640   -1.2179    1.9984 C   0  0  0  0  0  0  0  0  0  0  0  0
   -1.9845   -1.5927   -0.8114 C   0  0  0  0  0  0  0  0  0  0  0  0
    4.2177   -1.4068    1.1042 C   0  0  0  0  0  0  0  0  0  0  0  0
   -3.0776   -1.2617    0.0079 C   0  0  0  0  0  0  0  0  0  0  0  0
   -2.3759   -2.7542   -1.4230 C   0  0  0  0  0  0  0  0  0  0  0  0
   -3.2035   -0.1233    0.8800 C   0  0  0  0  0  0  0  0  0  0  0  0
   -1.7491   -3.6580   -2.3973 C   0  0  0  0  0  0  0  0  0  0  0  0
    6.2180   -2.4864    0.4051 C   0  0  0  0  0  0  0  0  0  0  0  0
   -2.2941    0.0604    1.9215 C   0  0  0  0  0  0  0  0  0  0  0  0
   -4.2343    0.7957    0.6840 C   0  0  0  0  0  0  0  0  0  0  0  0
   -2.4155    1.1631    2.7672 C   0  0  0  0  0  0  0  0  0  0  0  0
   -4.3558    1.8983    1.5297 C   0  0  0  0  0  0  0  0  0  0  0  0
   -3.4465    2.0820    2.5713 C   0  0  0  0  0  0  0  0  0  0  0  0
    0.4798    1.5411    1.1106 H   0  0  0  0  0  0  0  0  0  0  0  0
    1.0892    0.8177   -1.7959 H   0  0  0  0  0  0  0  0  0  0  0  0
   -0.7708    3.1014   -0.9761 H   0  0  0  0  0  0  0  0  0  0  0  0
    1.2377    3.6103    0.9659 H   0  0  0  0  0  0  0  0  0  0  0  0
    2.8219    3.0812    0.3824 H   0  0  0  0  0  0  0  0  0  0  0  0
    1.1615    4.5996   -1.2056 H   0  0  0  0  0  0  0  0  0  0  0  0
   -1.5819    0.9591   -0.6449 H   0  0  0  0  0  0  0  0  0  0  0  0
   -0.3019    3.6871   -3.1523 H   0  0  0  0  0  0  0  0  0  0  0  0
    3.1795    3.7470   -1.8110 H   0  0  0  0  0  0  0  0  0  0  0  0
    3.4042    0.9177   -1.2262 H   0  0  0  0  0  0  0  0  0  0  0  0
    1.3731   -0.1226    2.4393 H   0  0  0  0  0  0  0  0  0  0  0  0
    5.0867   -0.7289   -0.7911 H   0  0  0  0  0  0  0  0  0  0  0  0
    3.0973   -1.8170    2.9024 H   0  0  0  0  0  0  0  0  0  0  0  0
   -0.9363   -4.2213   -1.9287 H   0  0  0  0  0  0  0  0  0  0  0  0
   -2.4708   -4.3765   -2.7987 H   0  0  0  0  0  0  0  0  0  0  0  0
   -1.3363   -3.0943   -3.2397 H   0  0  0  0  0  0  0  0  0  0  0  0
    6.8838   -3.2758    0.7693 H   0  0  0  0  0  0  0  0  0  0  0  0
    6.8175   -1.5730    0.3283 H   0  0  0  0  0  0  0  0  0  0  0  0
    5.8349   -2.8147   -0.5670 H   0  0  0  0  0  0  0  0  0  0  0  0
   -1.4862   -0.6469    2.0942 H   0  0  0  0  0  0  0  0  0  0  0  0
   -4.9505    0.6718   -0.1249 H   0  0  0  0  0  0  0  0  0  0  0  0
   -1.7070    1.3061    3.5779 H   0  0  0  0  0  0  0  0  0  0  0  0
   -5.1577    2.6146    1.3765 H   0  0  0  0  0  0  0  0  0  0  0  0
   -3.5407    2.9408    3.2294 H   0  0  0  0  0  0  0  0  0  0  0  0
  1 10  1  0  0  0  0
  1 38  1  0  0  0  0
  2 12  1  0  0  0  0
  2 39  1  0  0  0  0
  3 16  2  0  0  0  0
  4 20  1  0  0  0  0
  4 25  1  0  0  0  0
  5  7  1  0  0  0  0
  5 22  1  0  0  0  0
  6  9  1  0  0  0  0
  6 16  1  0  0  0  0
  6 37  1  0  0  0  0
  7 21  2  0  0  0  0
  8  9  1  0  0  0  0
  8 11  1  0  0  0  0
  8 13  1  0  0  0  0
  8 31  1  0  0  0  0
  9 10  1  0  0  0  0
  9 32  1  0  0  0  0
 10 12  1  0  0  0  0
 10 33  1  0  0  0  0
 11 12  1  0  0  0  0
 11 34  1  0  0  0  0
 11 35  1  0  0  0  0
 12 36  1  0  0  0  0
 13 14  2  0  0  0  0
 13 15  1  0  0  0  0
 14 17  1  0  0  0  0
 14 40  1  0  0  0  0
 15 18  2  0  0  0  0
 15 41  1  0  0  0  0
 16 19  1  0  0  0  0
 17 20  2  0  0  0  0
 17 42  1  0  0  0  0
 18 20  1  0  0  0  0
 18 43  1  0  0  0  0
 19 21  1  0  0  0  0
 19 22  2  0  0  0  0
 21 23  1  0  0  0  0
 22 24  1  0  0  0  0
 23 26  2  0  0  0  0
 23 27  1  0  0  0  0
 24 44  1  0  0  0  0
 24 45  1  0  0  0  0
 24 46  1  0  0  0  0
 25 47  1  0  0  0  0
 25 48  1  0  0  0  0
 25 49  1  0  0  0  0
 26 28  1  0  0  0  0
 26 50  1  0  0  0  0
 27 29  2  0  0  0  0
 27 51  1  0  0  0  0
 28 30  2  0  0  0  0
 28 52  1  0  0  0  0
 29 30  1  0  0  0  0
 29 53  1  0  0  0  0
 30 54  1  0  0  0  0
M  END
> <PUBCHEM_COMPOUND_CID>
71693895

> <PUBCHEM_CONFORMER_RMSD>
0.8

> <PUBCHEM_CONFORMER_DIVERSEORDER>
1
79
84
70
87
17
56
85
44
72
13
61
48
33
47
32
63
20
81
4
36
52
27
39
60
88
19
59
83
15
46
28
50
86
76
74
8
14
75
80
51
82
40
62
55
68
67
66
21
37
30
43
10
45
65
73
24
53
18
22
89
31
12
42
77
58
2
78
69
35
26
71
6
34
29
25
7
9
38
54
41
5
16
11
23
3
64
57
49

> <PUBCHEM_MMFF94_PARTIAL_CHARGES>
41
1 -0.68
10 0.28
12 0.28
13 -0.14
14 -0.15
15 -0.15
16 0.72
17 -0.15
18 -0.15
19 -0.09
2 -0.68
20 0.08
21 0.23
22 -0.04
23 0.05
24 0.18
25 0.28
26 -0.15
27 -0.15
28 -0.15
29 -0.15
3 -0.57
30 -0.15
37 0.37
38 0.4
39 0.4
4 -0.36
40 0.15
41 0.15
42 0.15
43 0.15
5 -0.02
50 0.15
51 0.15
52 0.15
53 0.15
54 0.15
6 -0.73
7 -0.41
8 0.14
9 0.3

> <PUBCHEM_EFFECTIVE_ROTOR_COUNT>
7

> <PUBCHEM_PHARMACOPHORE_FEATURES>
12
1 1 acceptor
1 1 donor
1 2 acceptor
1 2 donor
1 3 acceptor
1 4 acceptor
1 6 donor
1 7 acceptor
5 5 7 19 21 22 rings
5 8 9 10 11 12 rings
6 13 14 15 17 18 20 rings
6 23 26 27 28 29 30 rings

> <PUBCHEM_HEAVY_ATOM_COUNT>
30

> <PUBCHEM_ATOM_DEF_STEREO_COUNT>
4

> <PUBCHEM_ATOM_UDEF_STEREO_COUNT>
0

> <PUBCHEM_BOND_DEF_STEREO_COUNT>
0

> <PUBCHEM_BOND_UDEF_STEREO_COUNT>
0

> <PUBCHEM_ISOTOPIC_ATOM_COUNT>
0

> <PUBCHEM_COMPONENT_COUNT>
1

> <PUBCHEM_CACTVS_TAUTO_COUNT>
2

> <PUBCHEM_CONFORMER_ID>
0445F64700000001

> <PUBCHEM_MMFF94_ENERGY>
86.7987

> <PUBCHEM_FEATURE_SELFOVERLAP>
60.91

> <PUBCHEM_SHAPE_FINGERPRINT>
10764073 3 16912016405191847380
11049842 53 17772504284971439669
11399939 17 17245877875554475435
11421498 54 17620473949058137707
11578080 2 18053068952202536881
11640471 11 18121799462983410937
11763715 3 17270861072727725191
12107183 9 18341616958169536465
12128747 34 16557352527384013758
12160290 23 17246077776133046220
12166972 35 18268977830503576239
12403259 327 17315954076745739881
12422481 6 18055074259864200226
12553582 1 17967802822005630066
12597179 24 17471851398948645017
12633257 1 18270964544350235392
12788726 201 17912940666608791531
13009979 54 18271806886110757730
133893 2 17897167029314060620
13533116 47 18117278279823156283
13583140 156 17968957412584329057
13726171 33 16913439503798535993
13965767 371 17910685263048403163
14114206 34 16733812091436204428
14674994 50 18197753562667771445
14844126 61 17466745374692013098
17349148 13 18131629011120311045
17492 89 18192710266261927155
17818456 19 18202002178924444087
1813 80 18334579036228415390
19319366 153 17258494977245820047
20101258 96 17968373425912818140
20505436 4 17834434410935575837
20642791 105 18201717358674625107
20715895 44 18341331112008258125
20739085 24 18408608063320606176
21033648 29 16056886810056011722
21133410 230 16753551387514282763
2132832 1 18200019785229400439
23598288 3 17462552915301201952
238918 7 17764307245677810957
3886686 26 17985272876313589767
4409770 3 17901370217686086092
513202 73 17684371659649165154
57527573 199 16738335341162025069
70251023 43 18041828614534162350
9981440 41 17845660223192724123

> <PUBCHEM_SHAPE_MULTIPOLES>
578.08
9.53
4.46
2.64
7.59
0.35
0.06
5.72
-5.69
-0.87
3.12
-0.76
-1.13
-4.34

> <PUBCHEM_SHAPE_SELFOVERLAP>
1258.044

> <PUBCHEM_SHAPE_VOLUME>
316.7

> <PUBCHEM_COORDINATE_TYPE>
2
5
10

$$$$
