7673896
  -OEChem-12032416113D

 62 65  0     1  0  0  0  0  0999 V2000
   -0.8109    2.3431    2.2156 O   0  0  0  0  0  0  0  0  0  0  0  0
   -2.6417   -2.3489    1.5375 O   0  0  0  0  0  0  0  0  0  0  0  0
    2.6769    1.6627   -1.0642 O   0  0  0  0  0  0  0  0  0  0  0  0
    4.1831   -4.7516   -0.5677 O   0  0  0  0  0  0  0  0  0  0  0  0
   -3.6330   -1.0321   -0.0824 N   0  0  0  0  0  0  0  0  0  0  0  0
   -2.2367    1.7342    0.4674 N   0  0  0  0  0  0  0  0  0  0  0  0
   -1.7502   -2.3514   -0.6049 N   0  0  0  0  0  0  0  0  0  0  0  0
    1.3400    2.6899    0.5412 N   0  0  0  0  0  0  0  0  0  0  0  0
    4.8243    3.1654   -0.1877 N   0  0  0  0  0  0  0  0  0  0  0  0
   -4.6692    1.0258    0.8490 C   0  0  1  0  0  0  0  0  0  0  0  0
   -3.7396    1.0417   -1.4334 C   0  0  2  0  0  0  0  0  0  0  0  0
   -4.8921    1.5503   -0.5663 C   0  0  0  0  0  0  0  0  0  0  0  0
   -4.6307   -0.5157    0.8575 C   0  0  0  0  0  0  0  0  0  0  0  0
   -3.3728    1.6378    1.3961 C   0  0  0  0  0  0  0  0  0  0  0  0
   -3.7626   -0.4990   -1.4495 C   0  0  0  0  0  0  0  0  0  0  0  0
   -2.4037    1.5311   -0.9071 C   0  0  0  0  0  0  0  0  0  0  0  0
   -1.3765    1.7302   -1.7499 C   0  0  0  0  0  0  0  0  0  0  0  0
   -1.0019    2.1346    1.0166 C   0  0  0  0  0  0  0  0  0  0  0  0
   -2.6700   -1.9599    0.3671 C   0  0  0  0  0  0  0  0  0  0  0  0
    0.1240    2.3198    0.0469 C   0  0  0  0  0  0  0  0  0  0  0  0
   -0.0880    2.1309   -1.2598 C   0  0  0  0  0  0  0  0  0  0  0  0
   -0.4053   -2.7487   -0.4053 C   0  0  0  0  0  0  0  0  0  0  0  0
    2.5503    2.3470   -0.0510 C   0  0  0  0  0  0  0  0  0  0  0  0
    0.1299   -2.7763    0.8826 C   0  0  0  0  0  0  0  0  0  0  0  0
    0.3841   -3.1111   -1.4966 C   0  0  0  0  0  0  0  0  0  0  0  0
    3.7246    2.9032    0.7294 C   0  0  0  0  0  0  0  0  0  0  0  0
    1.4545   -3.1664    1.0790 C   0  0  0  0  0  0  0  0  0  0  0  0
    1.7088   -3.5011   -1.3001 C   0  0  0  0  0  0  0  0  0  0  0  0
    2.2441   -3.5289   -0.0123 C   0  0  0  0  0  0  0  0  0  0  0  0
    4.5914    4.4035   -0.9350 C   0  0  0  0  0  0  0  0  0  0  0  0
    6.0950    3.2436    0.5366 C   0  0  0  0  0  0  0  0  0  0  0  0
    3.6249   -3.9361    0.1930 C   0  0  0  0  0  0  0  0  0  0  0  0
    4.4288   -3.3679    1.3577 C   0  0  0  0  0  0  0  0  0  0  0  0
   -5.4992    1.3407    1.4932 H   0  0  0  0  0  0  0  0  0  0  0  0
   -3.8946    1.4051   -2.4575 H   0  0  0  0  0  0  0  0  0  0  0  0
   -5.8527    1.1946   -0.9586 H   0  0  0  0  0  0  0  0  0  0  0  0
   -4.9290    2.6469   -0.5716 H   0  0  0  0  0  0  0  0  0  0  0  0
   -5.6026   -0.9162    0.5446 H   0  0  0  0  0  0  0  0  0  0  0  0
   -4.4439   -0.8805    1.8726 H   0  0  0  0  0  0  0  0  0  0  0  0
   -3.0453    1.1011    2.2954 H   0  0  0  0  0  0  0  0  0  0  0  0
   -3.5788    2.6680    1.7177 H   0  0  0  0  0  0  0  0  0  0  0  0
   -2.9824   -0.8600   -2.1202 H   0  0  0  0  0  0  0  0  0  0  0  0
   -4.7177   -0.8632   -1.8476 H   0  0  0  0  0  0  0  0  0  0  0  0
   -1.4786    1.5685   -2.8179 H   0  0  0  0  0  0  0  0  0  0  0  0
    0.6611    2.2986   -2.0244 H   0  0  0  0  0  0  0  0  0  0  0  0
   -2.0467   -2.3545   -1.5742 H   0  0  0  0  0  0  0  0  0  0  0  0
    1.3567    3.0379    1.4968 H   0  0  0  0  0  0  0  0  0  0  0  0
   -0.4204   -2.4827    1.7674 H   0  0  0  0  0  0  0  0  0  0  0  0
   -0.0202   -3.0923   -2.5054 H   0  0  0  0  0  0  0  0  0  0  0  0
    3.4440    3.7945    1.3036 H   0  0  0  0  0  0  0  0  0  0  0  0
    3.9927    2.1186    1.4491 H   0  0  0  0  0  0  0  0  0  0  0  0
    1.8443   -3.1853    2.0931 H   0  0  0  0  0  0  0  0  0  0  0  0
    2.3100   -3.7760   -2.1629 H   0  0  0  0  0  0  0  0  0  0  0  0
    4.5252    5.2783   -0.2776 H   0  0  0  0  0  0  0  0  0  0  0  0
    5.4039    4.5750   -1.6502 H   0  0  0  0  0  0  0  0  0  0  0  0
    3.6700    4.3460   -1.5246 H   0  0  0  0  0  0  0  0  0  0  0  0
    6.9247    3.4141   -0.1586 H   0  0  0  0  0  0  0  0  0  0  0  0
    6.0965    4.0477    1.2814 H   0  0  0  0  0  0  0  0  0  0  0  0
    6.3059    2.2976    1.0479 H   0  0  0  0  0  0  0  0  0  0  0  0
    4.1235   -2.3408    1.5756 H   0  0  0  0  0  0  0  0  0  0  0  0
    4.2939   -4.0003    2.2385 H   0  0  0  0  0  0  0  0  0  0  0  0
    5.4876   -3.3444    1.0827 H   0  0  0  0  0  0  0  0  0  0  0  0
  1 18  2  0  0  0  0
  2 19  2  0  0  0  0
  3 23  2  0  0  0  0
  4 32  2  0  0  0  0
  5 13  1  0  0  0  0
  5 15  1  0  0  0  0
  5 19  1  0  0  0  0
  6 14  1  0  0  0  0
  6 16  1  0  0  0  0
  6 18  1  0  0  0  0
  7 19  1  0  0  0  0
  7 22  1  0  0  0  0
  7 46  1  0  0  0  0
  8 20  1  0  0  0  0
  8 23  1  0  0  0  0
  8 47  1  0  0  0  0
  9 26  1  0  0  0  0
  9 30  1  0  0  0  0
  9 31  1  0  0  0  0
 10 12  1  0  0  0  0
 10 13  1  0  0  0  0
 10 14  1  0  0  0  0
 10 34  1  0  0  0  0
 11 12  1  0  0  0  0
 11 15  1  0  0  0  0
 11 16  1  0  0  0  0
 11 35  1  0  0  0  0
 12 36  1  0  0  0  0
 12 37  1  0  0  0  0
 13 38  1  0  0  0  0
 13 39  1  0  0  0  0
 14 40  1  0  0  0  0
 14 41  1  0  0  0  0
 15 42  1  0  0  0  0
 15 43  1  0  0  0  0
 16 17  2  0  0  0  0
 17 21  1  0  0  0  0
 17 44  1  0  0  0  0
 18 20  1  0  0  0  0
 20 21  2  0  0  0  0
 21 45  1  0  0  0  0
 22 24  2  0  0  0  0
 22 25  1  0  0  0  0
 23 26  1  0  0  0  0
 24 27  1  0  0  0  0
 24 48  1  0  0  0  0
 25 28  2  0  0  0  0
 25 49  1  0  0  0  0
 26 50  1  0  0  0  0
 26 51  1  0  0  0  0
 27 29  2  0  0  0  0
 27 52  1  0  0  0  0
 28 29  1  0  0  0  0
 28 53  1  0  0  0  0
 29 32  1  0  0  0  0
 30 54  1  0  0  0  0
 30 55  1  0  0  0  0
 30 56  1  0  0  0  0
 31 57  1  0  0  0  0
 31 58  1  0  0  0  0
 31 59  1  0  0  0  0
 32 33  1  0  0  0  0
 33 60  1  0  0  0  0
 33 61  1  0  0  0  0
 33 62  1  0  0  0  0
M  END
> <PUBCHEM_COMPOUND_CID>
7673896

> <PUBCHEM_CONFORMER_RMSD>
1

> <PUBCHEM_CONFORMER_DIVERSEORDER>
1
8
20
33
23
16
25
11
5
15
28
29
32
21
34
18
3
26
2
31
24
13
6
12
14
19
10
30
7
27
17
22
9
4

> <PUBCHEM_MMFF94_PARTIAL_CHARGES>
39
1 -0.57
11 0.14
13 0.3
14 0.3
15 0.3
16 -0.03
17 -0.15
18 0.62
19 0.69
2 -0.57
20 0.12
21 -0.15
22 0.12
23 0.57
24 -0.15
25 -0.15
26 0.33
27 -0.15
28 -0.15
29 0.09
3 -0.57
30 0.27
31 0.27
32 0.42
33 0.06
4 -0.57
44 0.15
45 0.15
46 0.37
47 0.37
48 0.15
49 0.15
5 -0.66
52 0.15
53 0.15
6 -0.47
7 -0.55
8 -0.54
9 -0.81

> <PUBCHEM_EFFECTIVE_ROTOR_COUNT>
9

> <PUBCHEM_PHARMACOPHORE_FEATURES>
11
1 1 acceptor
1 2 acceptor
1 3 acceptor
1 4 acceptor
1 7 donor
1 8 donor
1 9 cation
6 22 24 25 27 28 29 rings
6 5 10 11 12 13 15 rings
6 6 10 11 12 14 16 rings
6 6 16 17 18 20 21 rings

> <PUBCHEM_HEAVY_ATOM_COUNT>
33

> <PUBCHEM_ATOM_DEF_STEREO_COUNT>
2

> <PUBCHEM_ATOM_UDEF_STEREO_COUNT>
0

> <PUBCHEM_BOND_DEF_STEREO_COUNT>
0

> <PUBCHEM_BOND_UDEF_STEREO_COUNT>
0

> <PUBCHEM_ISOTOPIC_ATOM_COUNT>
0

> <PUBCHEM_COMPONENT_COUNT>
1

> <PUBCHEM_CACTVS_TAUTO_COUNT>
18

> <PUBCHEM_CONFORMER_ID>
0075182800000001

> <PUBCHEM_MMFF94_ENERGY>
101.0049

> <PUBCHEM_FEATURE_SELFOVERLAP>
57.421

> <PUBCHEM_SHAPE_FINGERPRINT>
10032420 55 17098345185805216979
11513181 2 18273214226808958286
11524674 6 18199748218478737948
12104220 1 17545037109787747542
12156800 1 15720546284829162227
14028597 1 17701564959516906539
14251757 5 17616537697837329588
14415361 192 17317038035753572016
14747281 78 17100279227307504501
15274700 242 16954473278264250016
15927050 60 18341612680329764911
15961568 22 18053098416084239342
16719943 64 18122343751398318080
17627616 140 18339074990634767670
18336668 15 17825680941158199558
20764821 26 18341039813924253342
20771845 165 18042108887532681885
21344244 246 18338499929585533847
21796203 349 17547617749017625898
23516275 137 18261975006618519736
3027735 51 18123467439138871531
373842 8 18338508639689805394
4112364 45 17483998946042580705
463206 1 17904773180652058044
5080951 261 17539654282973017520
5265222 85 17976263752775999357
56638632 33 17970073244760697702
6287921 2 17915448394358788922
6669772 16 18411419540407146500

> <PUBCHEM_SHAPE_MULTIPOLES>
630.74
10.46
7.38
1.6
4.67
3.18
-0.03
-5.31
-0.98
13.62
0.26
-0.71
-0.07
-0.27

> <PUBCHEM_SHAPE_SELFOVERLAP>
1351.87

> <PUBCHEM_SHAPE_VOLUME>
343.2

> <PUBCHEM_COORDINATE_TYPE>
2
5
10

$$$$
