75536996
  -OEChem-12032416303D

 51 54  0     1  0  0  0  0  0999 V2000
   -6.5630   -2.7437   -2.1291 F   0  0  0  0  0  0  0  0  0  0  0  0
   -3.2850    2.7401    0.8843 O   0  0  0  0  0  0  0  0  0  0  0  0
    3.2394    2.8491   -1.4020 O   0  0  0  0  0  0  0  0  0  0  0  0
   -1.0775    2.0307    0.5042 N   0  0  0  0  0  0  0  0  0  0  0  0
   -2.5237    0.5726    1.4167 N   0  0  0  0  0  0  0  0  0  0  0  0
    1.3156    1.6733   -0.8671 N   0  0  0  0  0  0  0  0  0  0  0  0
    3.4591    0.7157   -0.5908 N   0  0  0  0  0  0  0  0  0  0  0  0
   -0.2728    0.8604    0.8140 C   0  0  1  0  0  0  0  0  0  0  0  0
   -1.3028   -0.1897    1.2218 C   0  0  0  0  0  0  0  0  0  0  0  0
    0.5873    0.4806   -0.3875 C   0  0  0  0  0  0  0  0  0  0  0  0
   -0.4542    3.2035   -0.0849 C   0  0  0  0  0  0  0  0  0  0  0  0
    0.4385    2.7903   -1.2547 C   0  0  0  0  0  0  0  0  0  0  0  0
   -2.4052    1.8906    0.9325 C   0  0  0  0  0  0  0  0  0  0  0  0
   -3.7352   -0.0373    1.9182 C   0  0  0  0  0  0  0  0  0  0  0  0
    2.7068    1.8156   -0.9836 C   0  0  0  0  0  0  0  0  0  0  0  0
   -4.4893   -0.7591    0.8391 C   0  0  0  0  0  0  0  0  0  0  0  0
   -4.2277   -2.1058    0.5863 C   0  0  0  0  0  0  0  0  0  0  0  0
   -5.4515   -0.0828    0.0891 C   0  0  0  0  0  0  0  0  0  0  0  0
    4.9039    0.7123   -0.6471 C   0  0  0  0  0  0  0  0  0  0  0  0
   -4.9285   -2.7761   -0.4162 C   0  0  0  0  0  0  0  0  0  0  0  0
   -6.1523   -0.7531   -0.9134 C   0  0  0  0  0  0  0  0  0  0  0  0
    5.4818   -0.5887   -0.1700 C   0  0  0  0  0  0  0  0  0  0  0  0
   -5.8908   -2.0998   -1.1661 C   0  0  0  0  0  0  0  0  0  0  0  0
    5.7948   -0.7608    1.1783 C   0  0  0  0  0  0  0  0  0  0  0  0
    5.7051   -1.6259   -1.0756 C   0  0  0  0  0  0  0  0  0  0  0  0
    6.3312   -1.9700    1.6211 C   0  0  0  0  0  0  0  0  0  0  0  0
    6.2413   -2.8351   -0.6329 C   0  0  0  0  0  0  0  0  0  0  0  0
    6.5544   -3.0070    0.7156 C   0  0  0  0  0  0  0  0  0  0  0  0
    0.3606    1.1295    1.6689 H   0  0  0  0  0  0  0  0  0  0  0  0
   -1.4729   -0.9323    0.4362 H   0  0  0  0  0  0  0  0  0  0  0  0
   -1.0249   -0.6968    2.1506 H   0  0  0  0  0  0  0  0  0  0  0  0
    1.2329   -0.3564   -0.1276 H   0  0  0  0  0  0  0  0  0  0  0  0
   -0.0394    0.1477   -1.2248 H   0  0  0  0  0  0  0  0  0  0  0  0
    0.1444    3.6746    0.7030 H   0  0  0  0  0  0  0  0  0  0  0  0
   -1.2238    3.9140   -0.4011 H   0  0  0  0  0  0  0  0  0  0  0  0
   -0.1731    2.4387   -2.0943 H   0  0  0  0  0  0  0  0  0  0  0  0
    1.0173    3.6502   -1.6046 H   0  0  0  0  0  0  0  0  0  0  0  0
   -4.3702    0.7500    2.3425 H   0  0  0  0  0  0  0  0  0  0  0  0
   -3.4766   -0.7125    2.7421 H   0  0  0  0  0  0  0  0  0  0  0  0
    3.0169   -0.1148   -0.2239 H   0  0  0  0  0  0  0  0  0  0  0  0
   -3.4809   -2.6441    1.1639 H   0  0  0  0  0  0  0  0  0  0  0  0
   -5.6648    0.9663    0.2751 H   0  0  0  0  0  0  0  0  0  0  0  0
    5.2745    1.5480   -0.0411 H   0  0  0  0  0  0  0  0  0  0  0  0
    5.2096    0.9193   -1.6798 H   0  0  0  0  0  0  0  0  0  0  0  0
   -4.7252   -3.8245   -0.6134 H   0  0  0  0  0  0  0  0  0  0  0  0
   -6.9013   -0.2269   -1.4978 H   0  0  0  0  0  0  0  0  0  0  0  0
    5.6236    0.0391    1.8938 H   0  0  0  0  0  0  0  0  0  0  0  0
    5.4635   -1.5046   -2.1283 H   0  0  0  0  0  0  0  0  0  0  0  0
    6.5745   -2.1042    2.6711 H   0  0  0  0  0  0  0  0  0  0  0  0
    6.4146   -3.6429   -1.3378 H   0  0  0  0  0  0  0  0  0  0  0  0
    6.9717   -3.9486    1.0603 H   0  0  0  0  0  0  0  0  0  0  0  0
  1 23  1  0  0  0  0
  2 13  2  0  0  0  0
  3 15  2  0  0  0  0
  4  8  1  0  0  0  0
  4 11  1  0  0  0  0
  4 13  1  0  0  0  0
  5  9  1  0  0  0  0
  5 13  1  0  0  0  0
  5 14  1  0  0  0  0
  6 10  1  0  0  0  0
  6 12  1  0  0  0  0
  6 15  1  0  0  0  0
  7 15  1  0  0  0  0
  7 19  1  0  0  0  0
  7 40  1  0  0  0  0
  8  9  1  0  0  0  0
  8 10  1  0  0  0  0
  8 29  1  0  0  0  0
  9 30  1  0  0  0  0
  9 31  1  0  0  0  0
 10 32  1  0  0  0  0
 10 33  1  0  0  0  0
 11 12  1  0  0  0  0
 11 34  1  0  0  0  0
 11 35  1  0  0  0  0
 12 36  1  0  0  0  0
 12 37  1  0  0  0  0
 14 16  1  0  0  0  0
 14 38  1  0  0  0  0
 14 39  1  0  0  0  0
 16 17  2  0  0  0  0
 16 18  1  0  0  0  0
 17 20  1  0  0  0  0
 17 41  1  0  0  0  0
 18 21  2  0  0  0  0
 18 42  1  0  0  0  0
 19 22  1  0  0  0  0
 19 43  1  0  0  0  0
 19 44  1  0  0  0  0
 20 23  2  0  0  0  0
 20 45  1  0  0  0  0
 21 23  1  0  0  0  0
 21 46  1  0  0  0  0
 22 24  2  0  0  0  0
 22 25  1  0  0  0  0
 24 26  1  0  0  0  0
 24 47  1  0  0  0  0
 25 27  2  0  0  0  0
 25 48  1  0  0  0  0
 26 28  2  0  0  0  0
 26 49  1  0  0  0  0
 27 28  1  0  0  0  0
 27 50  1  0  0  0  0
 28 51  1  0  0  0  0
M  END
> <PUBCHEM_COMPOUND_CID>
75536996

> <PUBCHEM_CONFORMER_RMSD>
0.8

> <PUBCHEM_CONFORMER_DIVERSEORDER>
1
150
71
148
74
17
132
34
112
75
168
61
38
109
196
147
167
48
92
170
43
130
66
182
100
177
108
162
115
72
55
140
68
95
176
29
9
136
193
26
190
110
33
39
160
27
128
131
155
76
181
195
164
117
97
67
107
42
188
10
56
36
45
191
135
189
50
116
133
6
37
104
22
154
151
94
98
183
172
145
5
157
197
51
44
41
86
77
59
93
124
83
69
31
91
53
88
179
194
111
35
62
142
8
80
156
158
166
96
114
126
163
178
85
28
173
102
187
64
57
129
21
13
73
90
113
4
20
143
119
149
175
52
180
103
40
58
185
18
79
121
105
46
2
174
32
84
125
24
78
106
54
171
127
23
138
63
120
12
11
192
141
14
99
139
137
81
15
123
144
30
146
25
89
65
161
87
47
198
153
16
184
82
159
169
3
122
60
49
186
19
152
118
101
134
165
70
7

> <PUBCHEM_MMFF94_PARTIAL_CHARGES>
38
1 -0.19
10 0.3
11 0.3
12 0.3
13 0.69
14 0.44
15 0.69
16 -0.14
17 -0.15
18 -0.15
19 0.44
2 -0.57
20 -0.15
21 -0.15
22 -0.14
23 0.19
24 -0.15
25 -0.15
26 -0.15
27 -0.15
28 -0.15
3 -0.57
4 -0.66
40 0.37
41 0.15
42 0.15
45 0.15
46 0.15
47 0.15
48 0.15
49 0.15
5 -0.66
50 0.15
51 0.15
6 -0.66
7 -0.73
8 0.3
9 0.3

> <PUBCHEM_EFFECTIVE_ROTOR_COUNT>
7.2

> <PUBCHEM_PHARMACOPHORE_FEATURES>
7
1 2 acceptor
1 3 acceptor
1 7 donor
5 4 5 8 9 13 rings
6 16 17 18 20 21 23 rings
6 22 24 25 26 27 28 rings
6 4 6 8 10 11 12 rings

> <PUBCHEM_HEAVY_ATOM_COUNT>
28

> <PUBCHEM_ATOM_DEF_STEREO_COUNT>
1

> <PUBCHEM_ATOM_UDEF_STEREO_COUNT>
0

> <PUBCHEM_BOND_DEF_STEREO_COUNT>
0

> <PUBCHEM_BOND_UDEF_STEREO_COUNT>
0

> <PUBCHEM_ISOTOPIC_ATOM_COUNT>
0

> <PUBCHEM_COMPONENT_COUNT>
1

> <PUBCHEM_CACTVS_TAUTO_COUNT>
2

> <PUBCHEM_CONFORMER_ID>
04809A6400000001

> <PUBCHEM_MMFF94_ENERGY>
63.9464

> <PUBCHEM_FEATURE_SELFOVERLAP>
35.62

> <PUBCHEM_SHAPE_FINGERPRINT>
10571361 74 18342457079648933230
10622 236 18335707147768933188
10693767 8 18266452282122377875
10721379 63 8430054074674438176
11135609 201 9943516406235932613
11475781 23 14996559638143042164
11607047 403 17412445206548213664
12342043 65 16446193224597255697
12422481 6 17846506893942086262
12975358 362 11821201831617082983
13008946 267 16396347513049967576
13533116 47 18409732898081211136
13761468 95 17896310326223131557
13782708 43 18060700568084588842
13828863 39 9655586214418332013
13885169 86 10591754398698080050
14211702 104 18343026570931965622
14347332 77 18408043991800777256
15183329 4 17385718110369875683
15188451 53 18272084977016865626
15357212 105 14116366534556785298
15684389 69 10159686998728947541
16126227 98 9655281653528454542
16992828 155 15011719326041068619
17857418 61 18411706495218775274
17899979 129 9079112285709041824
18222031 100 18333455326965636800
18393751 57 11095894774296395525
19438510 23 9511452321807368500
19958102 18 17748821938433517463
20028762 73 18341614794081876510
20156587 161 17843373367228949758
20691028 202 8574445192259424975
21401589 2 12823286880283500036
21424621 283 8502373360045681946
21585483 132 18336816571960695770
22002106 203 18335130944454733810
23559900 14 18041565848456410865
3014063 24 18412542107124247422
32027 91 18339640157023045665
3504750 166 18198627631303970112
38570 142 10665223726784259911
397830 11 15985101933572295498
437795 70 15791721997247802863
5085150 59 17988924444939530927
531348 171 18334295353949594877
5874358 3 18268127860196587414
5951187 136 8574425466139084818
6034566 193 8718829795059356197
6058803 2 18193867957079474876
6712543 237 17346605123184962583
96874 4 18341325656239801582

> <PUBCHEM_SHAPE_MULTIPOLES>
537.29
19.57
4.06
1.62
9.88
0.52
0.06
-22.12
-2.33
0.56
-1.13
-0.72
-0.33
-3.52

> <PUBCHEM_SHAPE_SELFOVERLAP>
1151.579

> <PUBCHEM_SHAPE_VOLUME>
297.3

> <PUBCHEM_COORDINATE_TYPE>
2
5
10

$$$$
