38028485
  -OEChem-12032416253D

 66 68  0     1  0  0  0  0  0999 V2000
    6.2778   -0.7588    2.2755 F   0  0  0  0  0  0  0  0  0  0  0  0
   -3.5572   -0.7974    2.0717 O   0  0  0  0  0  0  0  0  0  0  0  0
    1.8950    1.3221   -2.2266 O   0  0  0  0  0  0  0  0  0  0  0  0
    0.9685    2.8237   -0.7301 N   0  0  0  0  0  0  0  0  0  0  0  0
   -1.3386   -1.4843    2.1520 N   0  0  0  0  0  0  0  0  0  0  0  0
    2.7321    1.5026   -0.0409 N   0  0  0  0  0  0  0  0  0  0  0  0
   -0.5115   -3.8258   -1.3640 N   0  0  0  0  0  0  0  0  0  0  0  0
   -1.7714    1.6125   -0.9939 C   0  0  1  0  0  0  0  0  0  0  0  0
   -1.4316    3.1231   -1.0441 C   0  0  1  0  0  0  0  0  0  0  0  0
   -2.9646    1.3621   -0.0591 C   0  0  0  0  0  0  0  0  0  0  0  0
   -2.6922    1.8491    1.3766 C   0  0  2  0  0  0  0  0  0  0  0  0
   -2.0767    1.0516   -2.3863 C   0  0  0  0  0  0  0  0  0  0  0  0
   -2.0989    3.2432    1.3953 C   0  0  0  0  0  0  0  0  0  0  0  0
   -1.5521    3.8012    0.3006 C   0  0  0  0  0  0  0  0  0  0  0  0
   -0.0255    3.3553   -1.6089 C   0  0  0  0  0  0  0  0  0  0  0  0
   -1.7976    0.8619    2.1343 C   0  0  0  0  0  0  0  0  0  0  0  0
   -3.5172    1.3615   -2.7805 C   0  0  0  0  0  0  0  0  0  0  0  0
   -1.8169   -0.4510   -2.4234 C   0  0  0  0  0  0  0  0  0  0  0  0
   -2.1895    4.0004    2.6910 C   0  0  0  0  0  0  0  0  0  0  0  0
   -2.3567   -0.5429    2.1142 C   0  0  0  0  0  0  0  0  0  0  0  0
    1.8826    1.8214   -1.1040 C   0  0  0  0  0  0  0  0  0  0  0  0
   -1.5804   -2.9088    2.1454 C   0  0  0  0  0  0  0  0  0  0  0  0
   -1.6247   -3.4648    0.7515 C   0  0  0  0  0  0  0  0  0  0  0  0
    3.7778    0.5504   -0.0209 C   0  0  0  0  0  0  0  0  0  0  0  0
   -2.7596   -4.1100    0.2728 C   0  0  0  0  0  0  0  0  0  0  0  0
   -0.5369   -3.3497   -0.0989 C   0  0  0  0  0  0  0  0  0  0  0  0
    4.5272    0.3622    1.1404 C   0  0  0  0  0  0  0  0  0  0  0  0
    4.0586   -0.2016   -1.1618 C   0  0  0  0  0  0  0  0  0  0  0  0
   -2.7717   -4.6132   -1.0234 C   0  0  0  0  0  0  0  0  0  0  0  0
    5.5574   -0.5779    1.1610 C   0  0  0  0  0  0  0  0  0  0  0  0
    5.0888   -1.1418   -1.1411 C   0  0  0  0  0  0  0  0  0  0  0  0
   -1.6326   -4.4467   -1.7945 C   0  0  0  0  0  0  0  0  0  0  0  0
    5.8382   -1.3299    0.0202 C   0  0  0  0  0  0  0  0  0  0  0  0
   -0.9105    1.0689   -0.5858 H   0  0  0  0  0  0  0  0  0  0  0  0
   -2.1380    3.6359   -1.7089 H   0  0  0  0  0  0  0  0  0  0  0  0
   -3.2708    0.3139   -0.0832 H   0  0  0  0  0  0  0  0  0  0  0  0
   -3.8373    1.9370   -0.3976 H   0  0  0  0  0  0  0  0  0  0  0  0
   -3.6675    1.8871    1.8821 H   0  0  0  0  0  0  0  0  0  0  0  0
   -1.4163    1.5037   -3.1333 H   0  0  0  0  0  0  0  0  0  0  0  0
   -1.1838    4.8236    0.3601 H   0  0  0  0  0  0  0  0  0  0  0  0
    0.1745    4.4304   -1.6933 H   0  0  0  0  0  0  0  0  0  0  0  0
    0.0854    2.9389   -2.6136 H   0  0  0  0  0  0  0  0  0  0  0  0
   -1.7126    1.1506    3.1891 H   0  0  0  0  0  0  0  0  0  0  0  0
   -0.7819    0.8726    1.7202 H   0  0  0  0  0  0  0  0  0  0  0  0
   -4.2521    0.7578   -2.2377 H   0  0  0  0  0  0  0  0  0  0  0  0
   -3.6593    1.1196   -3.8412 H   0  0  0  0  0  0  0  0  0  0  0  0
   -3.7674    2.4207   -2.6699 H   0  0  0  0  0  0  0  0  0  0  0  0
   -2.4609   -1.0016   -1.7311 H   0  0  0  0  0  0  0  0  0  0  0  0
   -0.7751   -0.6736   -2.1689 H   0  0  0  0  0  0  0  0  0  0  0  0
   -2.0007   -0.8468   -3.4283 H   0  0  0  0  0  0  0  0  0  0  0  0
   -3.2311    4.0629    3.0225 H   0  0  0  0  0  0  0  0  0  0  0  0
   -1.8118    5.0242    2.5977 H   0  0  0  0  0  0  0  0  0  0  0  0
   -1.6043    3.5039    3.4707 H   0  0  0  0  0  0  0  0  0  0  0  0
    1.0676    3.2341    0.1934 H   0  0  0  0  0  0  0  0  0  0  0  0
   -0.3714   -1.1755    2.1828 H   0  0  0  0  0  0  0  0  0  0  0  0
   -2.5160   -3.1108    2.6792 H   0  0  0  0  0  0  0  0  0  0  0  0
   -0.7702   -3.3878    2.7062 H   0  0  0  0  0  0  0  0  0  0  0  0
    2.5858    2.0106    0.8278 H   0  0  0  0  0  0  0  0  0  0  0  0
   -3.6406   -4.2259    0.8979 H   0  0  0  0  0  0  0  0  0  0  0  0
    0.3789   -2.8589    0.2163 H   0  0  0  0  0  0  0  0  0  0  0  0
    4.3187    0.9412    2.0364 H   0  0  0  0  0  0  0  0  0  0  0  0
    3.5237   -0.1135   -2.0967 H   0  0  0  0  0  0  0  0  0  0  0  0
   -3.6454   -5.1189   -1.4180 H   0  0  0  0  0  0  0  0  0  0  0  0
    5.3084   -1.7282   -2.0286 H   0  0  0  0  0  0  0  0  0  0  0  0
   -1.5914   -4.8202   -2.8124 H   0  0  0  0  0  0  0  0  0  0  0  0
    6.6404   -2.0617    0.0366 H   0  0  0  0  0  0  0  0  0  0  0  0
  1 30  1  0  0  0  0
  2 20  2  0  0  0  0
  3 21  2  0  0  0  0
  4 15  1  0  0  0  0
  4 21  1  0  0  0  0
  4 54  1  0  0  0  0
  5 20  1  0  0  0  0
  5 22  1  0  0  0  0
  5 55  1  0  0  0  0
  6 21  1  0  0  0  0
  6 24  1  0  0  0  0
  6 58  1  0  0  0  0
  7 26  1  0  0  0  0
  7 32  2  0  0  0  0
  8  9  1  0  0  0  0
  8 10  1  0  0  0  0
  8 12  1  0  0  0  0
  8 34  1  0  0  0  0
  9 14  1  0  0  0  0
  9 15  1  0  0  0  0
  9 35  1  0  0  0  0
 10 11  1  0  0  0  0
 10 36  1  0  0  0  0
 10 37  1  0  0  0  0
 11 13  1  0  0  0  0
 11 16  1  0  0  0  0
 11 38  1  0  0  0  0
 12 17  1  0  0  0  0
 12 18  1  0  0  0  0
 12 39  1  0  0  0  0
 13 14  2  0  0  0  0
 13 19  1  0  0  0  0
 14 40  1  0  0  0  0
 15 41  1  0  0  0  0
 15 42  1  0  0  0  0
 16 20  1  0  0  0  0
 16 43  1  0  0  0  0
 16 44  1  0  0  0  0
 17 45  1  0  0  0  0
 17 46  1  0  0  0  0
 17 47  1  0  0  0  0
 18 48  1  0  0  0  0
 18 49  1  0  0  0  0
 18 50  1  0  0  0  0
 19 51  1  0  0  0  0
 19 52  1  0  0  0  0
 19 53  1  0  0  0  0
 22 23  1  0  0  0  0
 22 56  1  0  0  0  0
 22 57  1  0  0  0  0
 23 25  1  0  0  0  0
 23 26  2  0  0  0  0
 24 27  2  0  0  0  0
 24 28  1  0  0  0  0
 25 29  2  0  0  0  0
 25 59  1  0  0  0  0
 26 60  1  0  0  0  0
 27 30  1  0  0  0  0
 27 61  1  0  0  0  0
 28 31  2  0  0  0  0
 28 62  1  0  0  0  0
 29 32  1  0  0  0  0
 29 63  1  0  0  0  0
 30 33  2  0  0  0  0
 31 33  1  0  0  0  0
 31 64  1  0  0  0  0
 32 65  1  0  0  0  0
 33 66  1  0  0  0  0
M  END
> <PUBCHEM_COMPOUND_CID>
38028485

> <PUBCHEM_CONFORMER_RMSD>
1.2

> <PUBCHEM_CONFORMER_DIVERSEORDER>
1
159
8
65
41
62
161
97
111
46
51
53
172
99
95
33
154
180
43
19
110
17
177
104
126
83
144
10
155
145
100
164
121
54
181
72
47
101
143
70
81
34
67
87
150
128
113
13
136
96
93
44
142
63
140
71
9
4
109
147
50
2
76
132
56
35
82
120
162
49
68
77
160
158
148
74
6
153
139
16
73
168
92
84
175
173
58
26
27
94
75
11
131
178
7
22
138
119
130
106
29
64
166
169
78
124
91
102
179
55
129
137
45
3
105
122
182
88
86
21
12
163
149
79
69
59
114
57
90
66
52
125
167
170
112
98
134
116
156
174
37
32
135
14
152
80
61
108
141
38
40
39
107
5
176
20
28
60
42
117
127
85
146
31
133
103
151
165
115
89
24
15
48
18
118
23
157
36
30
123
25
171

> <PUBCHEM_MMFF94_PARTIAL_CHARGES>
40
1 -0.19
11 0.14
13 -0.28
14 -0.29
15 0.3
16 0.06
19 0.14
2 -0.57
20 0.57
21 0.69
22 0.44
23 -0.14
24 0.12
25 -0.15
26 0.16
27 -0.15
28 -0.15
29 -0.15
3 -0.57
30 0.19
31 -0.15
32 0.16
33 -0.15
4 -0.73
40 0.15
5 -0.73
54 0.37
55 0.37
58 0.37
59 0.15
6 -0.55
60 0.15
61 0.15
62 0.15
63 0.15
64 0.15
65 0.15
66 0.15
7 -0.62
9 0.14

> <PUBCHEM_EFFECTIVE_ROTOR_COUNT>
11.8

> <PUBCHEM_PHARMACOPHORE_FEATURES>
10
1 2 acceptor
1 3 acceptor
1 4 donor
1 5 donor
1 6 donor
1 7 acceptor
3 12 17 18 hydrophobe
6 24 27 28 30 31 33 rings
6 7 23 25 26 29 32 rings
6 8 9 10 11 13 14 rings

> <PUBCHEM_HEAVY_ATOM_COUNT>
33

> <PUBCHEM_ATOM_DEF_STEREO_COUNT>
3

> <PUBCHEM_ATOM_UDEF_STEREO_COUNT>
0

> <PUBCHEM_BOND_DEF_STEREO_COUNT>
0

> <PUBCHEM_BOND_UDEF_STEREO_COUNT>
0

> <PUBCHEM_ISOTOPIC_ATOM_COUNT>
0

> <PUBCHEM_COMPONENT_COUNT>
1

> <PUBCHEM_CACTVS_TAUTO_COUNT>
6

> <PUBCHEM_CONFORMER_ID>
024444C500000001

> <PUBCHEM_MMFF94_ENERGY>
73.5201

> <PUBCHEM_FEATURE_SELFOVERLAP>
50.795

> <PUBCHEM_SHAPE_FINGERPRINT>
11552529 35 18341344387103550968
12156800 1 17614230776149448091
13165053 137 17684344188737906603
13642711 20 17264716628016036343
14674994 50 18335411391857282061
19315092 285 15831120007364448807
20764821 26 18337400451563395182
20775530 9 18048891984757989826
238918 7 18123482578956677246
35225 105 17967533471500088583
469060 322 15123226714272404622

> <PUBCHEM_SHAPE_MULTIPOLES>
640.19
9.46
6.82
3.02
23.17
5.55
-0.15
1.67
-2.59
-8.22
0.44
-2.19
-0.68
-0.87

> <PUBCHEM_SHAPE_SELFOVERLAP>
1340.08

> <PUBCHEM_SHAPE_VOLUME>
361.2

> <PUBCHEM_COORDINATE_TYPE>
2
5
10

$$$$
