45783972
  -OEChem-12032416253D

 68 70  0     1  0  0  0  0  0999 V2000
   -0.6679   -1.1671   -0.7581 O   0  0  0  0  0  0  0  0  0  0  0  0
    3.9178    1.8244   -0.8175 N   0  0  0  0  0  0  0  0  0  0  0  0
   -0.4485   -3.3931   -0.7160 N   0  0  0  0  0  0  0  0  0  0  0  0
   -1.7825   -3.0915   -0.5149 N   0  0  0  0  0  0  0  0  0  0  0  0
   -6.3148    1.6221    0.0402 N   0  0  0  0  0  0  0  0  0  0  0  0
    2.3210    0.2274    1.1656 C   0  0  1  0  0  0  0  0  0  0  0  0
    3.8653    0.3477    1.1446 C   0  0  1  0  0  0  0  0  0  0  0  0
    1.8997   -1.2416    1.3228 C   0  0  0  0  0  0  0  0  0  0  0  0
    2.4429   -2.1283    0.1864 C   0  0  2  0  0  0  0  0  0  0  0  0
    1.7003    1.0678    2.2859 C   0  0  0  0  0  0  0  0  0  0  0  0
    3.9129   -1.8702   -0.0755 C   0  0  0  0  0  0  0  0  0  0  0  0
    4.5345   -0.7647    0.3720 C   0  0  0  0  0  0  0  0  0  0  0  0
    4.3071    1.7014    0.5766 C   0  0  0  0  0  0  0  0  0  0  0  0
    1.6183   -1.9525   -1.0935 C   0  0  0  0  0  0  0  0  0  0  0  0
    1.7753    0.3220    3.6144 C   0  0  0  0  0  0  0  0  0  0  0  0
    0.2564    1.4240    1.9464 C   0  0  0  0  0  0  0  0  0  0  0  0
    4.6641   -2.9349   -0.8254 C   0  0  0  0  0  0  0  0  0  0  0  0
    0.1640   -2.2403   -0.8532 C   0  0  0  0  0  0  0  0  0  0  0  0
    4.3249    3.1133   -1.3641 C   0  0  0  0  0  0  0  0  0  0  0  0
    4.4066    3.0173   -2.8843 C   0  0  0  0  0  0  0  0  0  0  0  0
    3.3459    4.2027   -0.9355 C   0  0  0  0  0  0  0  0  0  0  0  0
   -1.8638   -1.7819   -0.5470 C   0  0  0  0  0  0  0  0  0  0  0  0
   -2.9967   -0.9153   -0.3975 C   0  0  0  0  0  0  0  0  0  0  0  0
   -4.2640   -1.4556   -0.1784 C   0  0  0  0  0  0  0  0  0  0  0  0
   -2.8314    0.4678   -0.4707 C   0  0  0  0  0  0  0  0  0  0  0  0
   -5.3658   -0.6129   -0.0326 C   0  0  0  0  0  0  0  0  0  0  0  0
   -3.9332    1.3106   -0.3250 C   0  0  0  0  0  0  0  0  0  0  0  0
   -5.2004    0.7703   -0.1060 C   0  0  0  0  0  0  0  0  0  0  0  0
   -6.1527    3.0609   -0.0267 C   0  0  0  0  0  0  0  0  0  0  0  0
   -7.6357    1.0704    0.2670 C   0  0  0  0  0  0  0  0  0  0  0  0
    1.9234    0.5874    0.2085 H   0  0  0  0  0  0  0  0  0  0  0  0
    4.2529    0.2810    2.1692 H   0  0  0  0  0  0  0  0  0  0  0  0
    2.3316   -1.6592    2.2428 H   0  0  0  0  0  0  0  0  0  0  0  0
    0.8171   -1.3461    1.4331 H   0  0  0  0  0  0  0  0  0  0  0  0
    2.3357   -3.1687    0.5261 H   0  0  0  0  0  0  0  0  0  0  0  0
    2.2381    2.0143    2.3992 H   0  0  0  0  0  0  0  0  0  0  0  0
    5.6029   -0.6552    0.1957 H   0  0  0  0  0  0  0  0  0  0  0  0
    5.3992    1.7828    0.6659 H   0  0  0  0  0  0  0  0  0  0  0  0
    3.8904    2.5102    1.1822 H   0  0  0  0  0  0  0  0  0  0  0  0
    1.9663   -2.6442   -1.8702 H   0  0  0  0  0  0  0  0  0  0  0  0
    1.7305   -0.9430   -1.5069 H   0  0  0  0  0  0  0  0  0  0  0  0
    2.7841   -0.0345    3.8425 H   0  0  0  0  0  0  0  0  0  0  0  0
    1.4982    1.0057    4.4264 H   0  0  0  0  0  0  0  0  0  0  0  0
    1.0726   -0.5154    3.6791 H   0  0  0  0  0  0  0  0  0  0  0  0
   -0.3799    0.5383    1.8570 H   0  0  0  0  0  0  0  0  0  0  0  0
    0.2006    1.9794    1.0039 H   0  0  0  0  0  0  0  0  0  0  0  0
   -0.1745    2.0597    2.7278 H   0  0  0  0  0  0  0  0  0  0  0  0
    4.2812   -3.0342   -1.8454 H   0  0  0  0  0  0  0  0  0  0  0  0
    5.7341   -2.7120   -0.8962 H   0  0  0  0  0  0  0  0  0  0  0  0
    4.5625   -3.9001   -0.3186 H   0  0  0  0  0  0  0  0  0  0  0  0
    4.3496    1.0760   -1.3584 H   0  0  0  0  0  0  0  0  0  0  0  0
    5.3302    3.3803   -1.0127 H   0  0  0  0  0  0  0  0  0  0  0  0
    4.7181    3.9745   -3.3165 H   0  0  0  0  0  0  0  0  0  0  0  0
    5.1376    2.2622   -3.1947 H   0  0  0  0  0  0  0  0  0  0  0  0
    3.4380    2.7516   -3.3229 H   0  0  0  0  0  0  0  0  0  0  0  0
    3.6063    5.1577   -1.4056 H   0  0  0  0  0  0  0  0  0  0  0  0
    3.3551    4.3658    0.1464 H   0  0  0  0  0  0  0  0  0  0  0  0
    2.3197    3.9576   -1.2326 H   0  0  0  0  0  0  0  0  0  0  0  0
   -4.4155   -2.5307   -0.1176 H   0  0  0  0  0  0  0  0  0  0  0  0
   -1.8601    0.9254   -0.6406 H   0  0  0  0  0  0  0  0  0  0  0  0
   -6.3301   -1.0818    0.1361 H   0  0  0  0  0  0  0  0  0  0  0  0
   -3.7529    2.3790   -0.3901 H   0  0  0  0  0  0  0  0  0  0  0  0
   -5.7639    3.3705   -1.0032 H   0  0  0  0  0  0  0  0  0  0  0  0
   -7.1069    3.5826    0.1076 H   0  0  0  0  0  0  0  0  0  0  0  0
   -5.4868    3.4216    0.7652 H   0  0  0  0  0  0  0  0  0  0  0  0
   -7.9472    0.4325   -0.5677 H   0  0  0  0  0  0  0  0  0  0  0  0
   -7.6705    0.4974    1.2003 H   0  0  0  0  0  0  0  0  0  0  0  0
   -8.3933    1.8571    0.3562 H   0  0  0  0  0  0  0  0  0  0  0  0
  1 18  1  0  0  0  0
  1 22  1  0  0  0  0
  2 13  1  0  0  0  0
  2 19  1  0  0  0  0
  2 51  1  0  0  0  0
  3  4  1  0  0  0  0
  3 18  2  0  0  0  0
  4 22  2  0  0  0  0
  5 28  1  0  0  0  0
  5 29  1  0  0  0  0
  5 30  1  0  0  0  0
  6  7  1  0  0  0  0
  6  8  1  0  0  0  0
  6 10  1  0  0  0  0
  6 31  1  0  0  0  0
  7 12  1  0  0  0  0
  7 13  1  0  0  0  0
  7 32  1  0  0  0  0
  8  9  1  0  0  0  0
  8 33  1  0  0  0  0
  8 34  1  0  0  0  0
  9 11  1  0  0  0  0
  9 14  1  0  0  0  0
  9 35  1  0  0  0  0
 10 15  1  0  0  0  0
 10 16  1  0  0  0  0
 10 36  1  0  0  0  0
 11 12  2  0  0  0  0
 11 17  1  0  0  0  0
 12 37  1  0  0  0  0
 13 38  1  0  0  0  0
 13 39  1  0  0  0  0
 14 18  1  0  0  0  0
 14 40  1  0  0  0  0
 14 41  1  0  0  0  0
 15 42  1  0  0  0  0
 15 43  1  0  0  0  0
 15 44  1  0  0  0  0
 16 45  1  0  0  0  0
 16 46  1  0  0  0  0
 16 47  1  0  0  0  0
 17 48  1  0  0  0  0
 17 49  1  0  0  0  0
 17 50  1  0  0  0  0
 19 20  1  0  0  0  0
 19 21  1  0  0  0  0
 19 52  1  0  0  0  0
 20 53  1  0  0  0  0
 20 54  1  0  0  0  0
 20 55  1  0  0  0  0
 21 56  1  0  0  0  0
 21 57  1  0  0  0  0
 21 58  1  0  0  0  0
 22 23  1  0  0  0  0
 23 24  2  0  0  0  0
 23 25  1  0  0  0  0
 24 26  1  0  0  0  0
 24 59  1  0  0  0  0
 25 27  2  0  0  0  0
 25 60  1  0  0  0  0
 26 28  2  0  0  0  0
 26 61  1  0  0  0  0
 27 28  1  0  0  0  0
 27 62  1  0  0  0  0
 29 63  1  0  0  0  0
 29 64  1  0  0  0  0
 29 65  1  0  0  0  0
 30 66  1  0  0  0  0
 30 67  1  0  0  0  0
 30 68  1  0  0  0  0
M  END
> <PUBCHEM_COMPOUND_CID>
45783972

> <PUBCHEM_CONFORMER_RMSD>
1

> <PUBCHEM_CONFORMER_DIVERSEORDER>
1
9
85
20
38
40
83
23
22
5
37
66
32
53
80
16
61
71
26
54
50
13
27
56
69
39
24
30
84
35
82
29
43
86
31
17
41
72
77
8
19
34
64
10
78
12
67
70
62
7
3
75
63
28
68
57
74
76
46
14
21
25
33
81
48
4
65
15
73
44
36
45
79
59
55
42
49
47
11
52
6
58
60
2
18
51

> <PUBCHEM_MMFF94_PARTIAL_CHARGES>
29
1 -0.28
11 -0.28
12 -0.29
13 0.27
14 0.18
17 0.14
18 0.3
19 0.27
2 -0.9
22 0.43
23 0.05
24 -0.15
25 -0.15
26 -0.15
27 -0.15
28 0.1
29 0.37
3 -0.34
30 0.37
37 0.15
4 -0.34
5 -0.84
51 0.36
59 0.15
60 0.15
61 0.15
62 0.15
7 0.14
9 0.14

> <PUBCHEM_EFFECTIVE_ROTOR_COUNT>
8.8

> <PUBCHEM_PHARMACOPHORE_FEATURES>
8
1 2 cation
1 2 donor
1 5 cation
3 10 15 16 hydrophobe
3 19 20 21 hydrophobe
5 1 3 4 18 22 rings
6 23 24 25 26 27 28 rings
6 6 7 8 9 11 12 rings

> <PUBCHEM_HEAVY_ATOM_COUNT>
30

> <PUBCHEM_ATOM_DEF_STEREO_COUNT>
3

> <PUBCHEM_ATOM_UDEF_STEREO_COUNT>
0

> <PUBCHEM_BOND_DEF_STEREO_COUNT>
0

> <PUBCHEM_BOND_UDEF_STEREO_COUNT>
0

> <PUBCHEM_ISOTOPIC_ATOM_COUNT>
0

> <PUBCHEM_COMPONENT_COUNT>
1

> <PUBCHEM_CACTVS_TAUTO_COUNT>
1

> <PUBCHEM_CONFORMER_ID>
02BA9BA400000001

> <PUBCHEM_MMFF94_ENERGY>
67.9996

> <PUBCHEM_FEATURE_SELFOVERLAP>
40.596

> <PUBCHEM_SHAPE_FINGERPRINT>
10190206 1 17845112795256502048
10673678 19 18342182188792776630
10763959 59 18341051791918427983
11070050 100 15936406758554525736
11273773 38 18411699906860846985
11479125 193 17973741451437394096
11578080 2 16009894873624152072
1200032 147 17968670409947791628
12166972 35 18269840804759545782
12596602 18 17458620181405148531
12788726 201 17275111612918867457
13402501 40 18201149950117837203
13617811 41 17331667458994514487
13726171 33 18194693776421731985
14537116 161 17274827922472481617
14790565 3 18410857694007268437
14844126 61 9978992707442005034
15001296 14 18261111902385376373
15082195 135 18268127920784072165
15238133 3 18272642476810003146
16067690 210 17894906296575593825
17921350 177 17462533175626585844
21033648 29 18272354387467774819
21703447 108 9007061245143030182
23559900 14 18271517607468594395
245318 6 18115601459702097973
27425 322 17894910758856015307
3004659 81 18342172220379625610
38570 142 17605004783214053260
46194498 28 18260830362867877764
508180 173 18049459316338753976
54076057 255 18114477673546678574
57724786 102 18408038515711934199
7808743 9 18267019646800831310

> <PUBCHEM_SHAPE_MULTIPOLES>
591.59
15.04
4.48
2.1
25.46
1.72
-1.38
9.88
2.43
-4.06
2.75
-3.3
1.31
-2

> <PUBCHEM_SHAPE_SELFOVERLAP>
1227.502

> <PUBCHEM_SHAPE_VOLUME>
340

> <PUBCHEM_COORDINATE_TYPE>
2
5
10

$$$$
