75536535
  -OEChem-12032416323D

 50 52  0     1  0  0  0  0  0999 V2000
    1.9524   -0.1328    1.2047 O   0  0  0  0  0  0  0  0  0  0  0  0
    0.8899    1.7223   -1.6824 O   0  0  0  0  0  0  0  0  0  0  0  0
    5.3674    0.3070   -1.6906 O   0  0  0  0  0  0  0  0  0  0  0  0
   -6.7684   -0.9618   -1.6559 O   0  0  0  0  0  0  0  0  0  0  0  0
   -1.3693    1.1242    0.4187 N   0  0  0  0  0  0  0  0  0  0  0  0
   -5.1799   -0.6575    0.0119 N   0  0  0  0  0  0  0  0  0  0  0  0
    4.6294    0.6420    0.4939 N   0  0  0  0  0  0  0  0  0  0  0  0
   -0.0970    0.4680    0.1651 C   0  0  1  0  0  0  0  0  0  0  0  0
    0.9926    1.4133   -0.3060 C   0  0  1  0  0  0  0  0  0  0  0  0
   -2.4460    0.1431    0.5284 C   0  0  0  0  0  0  0  0  0  0  0  0
    2.2413    0.5978    0.0011 C   0  0  1  0  0  0  0  0  0  0  0  0
    6.6107   -0.6769    0.0474 C   0  0  0  0  0  0  0  0  0  0  0  0
    6.3010   -1.8404    0.9292 C   0  0  0  0  0  0  0  0  0  0  0  0
    6.7915   -2.0651   -0.4697 C   0  0  0  0  0  0  0  0  0  0  0  0
    0.5306   -0.1119    1.4220 C   0  0  0  0  0  0  0  0  0  0  0  0
   -3.6195    0.7354    1.3195 C   0  0  0  0  0  0  0  0  0  0  0  0
   -2.9065   -0.2917   -0.8688 C   0  0  0  0  0  0  0  0  0  0  0  0
    3.4808    1.4510    0.2036 C   0  0  0  0  0  0  0  0  0  0  0  0
   -4.7965   -0.2389    1.3661 C   0  0  0  0  0  0  0  0  0  0  0  0
   -4.0963   -1.2456   -0.7784 C   0  0  0  0  0  0  0  0  0  0  0  0
    5.4772    0.1376   -0.4818 C   0  0  0  0  0  0  0  0  0  0  0  0
   -6.4631   -0.5697   -0.5267 C   0  0  0  0  0  0  0  0  0  0  0  0
   -7.5224    0.0507    0.3487 C   0  0  0  0  0  0  0  0  0  0  0  0
   -0.1964   -0.3180   -0.5938 H   0  0  0  0  0  0  0  0  0  0  0  0
    0.9797    2.3481    0.2682 H   0  0  0  0  0  0  0  0  0  0  0  0
   -2.1063   -0.7417    1.0830 H   0  0  0  0  0  0  0  0  0  0  0  0
    2.4289   -0.1390   -0.7911 H   0  0  0  0  0  0  0  0  0  0  0  0
    7.5151   -0.1155    0.2570 H   0  0  0  0  0  0  0  0  0  0  0  0
   -1.5779    1.7878   -0.3266 H   0  0  0  0  0  0  0  0  0  0  0  0
    5.2683   -2.0906    1.1396 H   0  0  0  0  0  0  0  0  0  0  0  0
    6.9837   -2.0526    1.7432 H   0  0  0  0  0  0  0  0  0  0  0  0
    7.8035   -2.4303   -0.5961 H   0  0  0  0  0  0  0  0  0  0  0  0
    6.0844   -2.4532   -1.1927 H   0  0  0  0  0  0  0  0  0  0  0  0
    0.3485    0.5123    2.3045 H   0  0  0  0  0  0  0  0  0  0  0  0
    0.1853   -1.1267    1.6407 H   0  0  0  0  0  0  0  0  0  0  0  0
   -3.9506    1.6722    0.8515 H   0  0  0  0  0  0  0  0  0  0  0  0
   -3.3052    0.9785    2.3417 H   0  0  0  0  0  0  0  0  0  0  0  0
   -2.1060   -0.7908   -1.4245 H   0  0  0  0  0  0  0  0  0  0  0  0
   -3.2043    0.5879   -1.4555 H   0  0  0  0  0  0  0  0  0  0  0  0
    3.6819    2.0568   -0.6864 H   0  0  0  0  0  0  0  0  0  0  0  0
    3.3521    2.1214    1.0604 H   0  0  0  0  0  0  0  0  0  0  0  0
   -5.6269    0.2234    1.9024 H   0  0  0  0  0  0  0  0  0  0  0  0
   -4.5201   -1.1451    1.9182 H   0  0  0  0  0  0  0  0  0  0  0  0
   -4.4422   -1.4995   -1.7854 H   0  0  0  0  0  0  0  0  0  0  0  0
   -3.8027   -2.1809   -0.2874 H   0  0  0  0  0  0  0  0  0  0  0  0
    4.8244    0.4337    1.4690 H   0  0  0  0  0  0  0  0  0  0  0  0
    0.8992    0.8897   -2.1844 H   0  0  0  0  0  0  0  0  0  0  0  0
   -7.2528    1.0809    0.5961 H   0  0  0  0  0  0  0  0  0  0  0  0
   -7.6559   -0.5410    1.2581 H   0  0  0  0  0  0  0  0  0  0  0  0
   -8.4752    0.0680   -0.1896 H   0  0  0  0  0  0  0  0  0  0  0  0
  1 11  1  0  0  0  0
  1 15  1  0  0  0  0
  2  9  1  0  0  0  0
  2 47  1  0  0  0  0
  3 21  2  0  0  0  0
  4 22  2  0  0  0  0
  5  8  1  0  0  0  0
  5 10  1  0  0  0  0
  5 29  1  0  0  0  0
  6 19  1  0  0  0  0
  6 20  1  0  0  0  0
  6 22  1  0  0  0  0
  7 18  1  0  0  0  0
  7 21  1  0  0  0  0
  7 46  1  0  0  0  0
  8  9  1  0  0  0  0
  8 15  1  0  0  0  0
  8 24  1  0  0  0  0
  9 11  1  0  0  0  0
  9 25  1  0  0  0  0
 10 16  1  0  0  0  0
 10 17  1  0  0  0  0
 10 26  1  0  0  0  0
 11 18  1  0  0  0  0
 11 27  1  0  0  0  0
 12 13  1  0  0  0  0
 12 14  1  0  0  0  0
 12 21  1  0  0  0  0
 12 28  1  0  0  0  0
 13 14  1  0  0  0  0
 13 30  1  0  0  0  0
 13 31  1  0  0  0  0
 14 32  1  0  0  0  0
 14 33  1  0  0  0  0
 15 34  1  0  0  0  0
 15 35  1  0  0  0  0
 16 19  1  0  0  0  0
 16 36  1  0  0  0  0
 16 37  1  0  0  0  0
 17 20  1  0  0  0  0
 17 38  1  0  0  0  0
 17 39  1  0  0  0  0
 18 40  1  0  0  0  0
 18 41  1  0  0  0  0
 19 42  1  0  0  0  0
 19 43  1  0  0  0  0
 20 44  1  0  0  0  0
 20 45  1  0  0  0  0
 22 23  1  0  0  0  0
 23 48  1  0  0  0  0
 23 49  1  0  0  0  0
 23 50  1  0  0  0  0
M  END
> <PUBCHEM_COMPOUND_CID>
75536535

> <PUBCHEM_CONFORMER_RMSD>
1

> <PUBCHEM_CONFORMER_DIVERSEORDER>
2
19
51
24
38
31
44
35
57
41
55
66
37
62
36
69
42
67
25
68
16
22
64
17
45
9
65
12
56
20
39
26
47
58
43
6
30
11
59
52
61
21
53
32
50
40
29
33
23
34
46
8
60
18
49
4
48
28
54
10
14
1
5
15
7
63
27
13
3

> <PUBCHEM_MMFF94_PARTIAL_CHARGES>
29
1 -0.56
10 0.27
11 0.28
12 -0.1
13 -0.2
14 -0.2
15 0.28
18 0.3
19 0.3
2 -0.68
20 0.3
21 0.63
22 0.57
23 0.06
28 0.1
29 0.36
3 -0.57
30 0.1
31 0.1
32 0.1
33 0.1
4 -0.57
46 0.37
47 0.4
5 -0.9
6 -0.66
7 -0.73
8 0.27
9 0.28

> <PUBCHEM_EFFECTIVE_ROTOR_COUNT>
9.8

> <PUBCHEM_PHARMACOPHORE_FEATURES>
10
1 1 acceptor
1 2 acceptor
1 2 donor
1 3 acceptor
1 4 acceptor
1 5 cation
1 5 donor
1 7 donor
5 1 8 9 11 15 rings
6 6 10 16 17 19 20 rings

> <PUBCHEM_HEAVY_ATOM_COUNT>
23

> <PUBCHEM_ATOM_DEF_STEREO_COUNT>
3

> <PUBCHEM_ATOM_UDEF_STEREO_COUNT>
0

> <PUBCHEM_BOND_DEF_STEREO_COUNT>
0

> <PUBCHEM_BOND_UDEF_STEREO_COUNT>
0

> <PUBCHEM_ISOTOPIC_ATOM_COUNT>
0

> <PUBCHEM_COMPONENT_COUNT>
1

> <PUBCHEM_CACTVS_TAUTO_COUNT>
2

> <PUBCHEM_CONFORMER_ID>
0480989700000002

> <PUBCHEM_MMFF94_ENERGY>
37.705

> <PUBCHEM_FEATURE_SELFOVERLAP>
50.747

> <PUBCHEM_SHAPE_FINGERPRINT>
10 15 14620788319314753666
10299344 5 18202284701493496698
10591671 39 14634590467160957843
106641 1 13542456583697554974
10693767 8 18114453492723033506
10906281 52 12035730868793055033
11315181 36 16988566836048929865
11719270 70 16200437961535831660
11991303 11 17023193767953194498
12166972 35 18410012169286498977
12236239 1 18342457084349296009
125118 31 11383842566452267923
12670543 26 17313101934650254292
13073987 5 14045477608792076467
13533116 47 18413390964877418976
13540713 5 16445578348642387616
13668630 136 18259704514426640355
13862211 1 18272653441576367680
13914758 101 18342177739776668993
14251752 14 18273213080463665417
14251764 18 17632295700864995232
14347332 77 18338515232026566176
14528608 73 13190345686406179242
14849402 71 9799392447689873051
14933364 13 14056719054191987789
15183329 4 18272375278146361054
15188451 53 17846777399561421992
15348495 7 15195273257960924946
15475509 35 17846206719247740570
15706992 2 8934711254005276598
17857418 61 18273215296508554102
18222031 100 18040714775502362784
20567600 234 10879990259718006154
21150785 3 15936132967448244082
21267235 1 17894634764547932105
21521239 73 18261108586791618458
21637258 2 18201715150401980328
21641784 216 15647330789204323670
21792961 116 15864350208045899248
22061861 79 17749109993685059046
221357 26 17458341940417544572
2215653 11 17822013112206808642
22224240 67 12823293498627727517
23035841 295 18272088305664109667
23081809 10 18271537454333238352
23522609 53 18054824803832336424
23559900 14 18266737064281864313
23569943 247 18190741934237174226
28498 318 18410009914617734655
29717793 49 18413110584336581884
34797466 226 16153714240968195566
4340502 62 15195570091740491724
445580 37 15864064339591659247
465052 167 18342181064260528830
5104073 3 17060059314668358634
5283156 175 18343022177280154827
559249 180 18131069325479099921
59682541 35 15482663594571051698
59682541 52 17822008684227856650
59755656 215 17312818260392014122
59755656 520 18335697274156675575
6438161 24 17894904106484807258

> <PUBCHEM_SHAPE_MULTIPOLES>
434.91
21.33
1.53
1.37
1.13
0.29
-0.14
11
-1.61
-1.8
-0.19
0.25
-0.03
-1.47

> <PUBCHEM_SHAPE_SELFOVERLAP>
885.904

> <PUBCHEM_SHAPE_VOLUME>
252.6

> <PUBCHEM_COORDINATE_TYPE>
2
5
10

$$$$
