75536784
  -OEChem-12032416323D

 50 52  0     1  0  0  0  0  0999 V2000
   -9.6060    0.6400   -0.5209 F   0  0  0  0  0  0  0  0  0  0  0  0
    0.1423    0.7134   -0.0713 O   0  0  0  0  0  0  0  0  0  0  0  0
   -1.2614   -2.5925   -0.1470 O   0  0  0  0  0  0  0  0  0  0  0  0
    3.3705   -2.3798    0.0600 O   0  0  0  0  0  0  0  0  0  0  0  0
    8.4217    1.3815    0.6789 O   0  0  0  0  0  0  0  0  0  0  0  0
   -3.3631   -0.2577   -0.0601 N   0  0  0  0  0  0  0  0  0  0  0  0
    2.5726   -0.4918   -1.0270 N   0  0  0  0  0  0  0  0  0  0  0  0
   -1.9648   -0.3049    0.3350 C   0  0  1  0  0  0  0  0  0  0  0  0
   -1.1220   -1.2348   -0.5181 C   0  0  1  0  0  0  0  0  0  0  0  0
    0.2777   -0.7086   -0.2307 C   0  0  1  0  0  0  0  0  0  0  0  0
   -1.2480    1.0202    0.1336 C   0  0  0  0  0  0  0  0  0  0  0  0
    1.2712   -1.0086   -1.3389 C   0  0  0  0  0  0  0  0  0  0  0  0
   -4.1799    0.3677    0.9732 C   0  0  0  0  0  0  0  0  0  0  0  0
   -5.6298    0.4403    0.5742 C   0  0  0  0  0  0  0  0  0  0  0  0
    3.5324   -1.2306   -0.3420 C   0  0  0  0  0  0  0  0  0  0  0  0
   -6.4943   -0.6074    0.8916 C   0  0  0  0  0  0  0  0  0  0  0  0
   -6.1087    1.5557   -0.1132 C   0  0  0  0  0  0  0  0  0  0  0  0
    4.8216   -0.5428   -0.0736 C   0  0  0  0  0  0  0  0  0  0  0  0
   -7.8375   -0.5397    0.5219 C   0  0  0  0  0  0  0  0  0  0  0  0
   -7.4519    1.6234   -0.4830 C   0  0  0  0  0  0  0  0  0  0  0  0
   -8.3163    0.5758   -0.1654 C   0  0  0  0  0  0  0  0  0  0  0  0
    5.5960   -0.9165    1.0248 C   0  0  0  0  0  0  0  0  0  0  0  0
    5.2572    0.4774   -0.9193 C   0  0  0  0  0  0  0  0  0  0  0  0
    6.8058   -0.2698    1.2776 C   0  0  0  0  0  0  0  0  0  0  0  0
    6.4669    1.1242   -0.6664 C   0  0  0  0  0  0  0  0  0  0  0  0
    7.2411    0.7505    0.4320 C   0  0  0  0  0  0  0  0  0  0  0  0
    8.8066    2.4155   -0.2257 C   0  0  0  0  0  0  0  0  0  0  0  0
   -1.8769   -0.6307    1.3812 H   0  0  0  0  0  0  0  0  0  0  0  0
   -1.3730   -1.1313   -1.5812 H   0  0  0  0  0  0  0  0  0  0  0  0
    0.6555   -1.1091    0.7193 H   0  0  0  0  0  0  0  0  0  0  0  0
   -1.5963    1.5509   -0.7601 H   0  0  0  0  0  0  0  0  0  0  0  0
   -1.3480    1.6899    0.9931 H   0  0  0  0  0  0  0  0  0  0  0  0
    0.9645   -0.5241   -2.2724 H   0  0  0  0  0  0  0  0  0  0  0  0
    1.3406   -2.0875   -1.5140 H   0  0  0  0  0  0  0  0  0  0  0  0
   -3.6973   -1.2093   -0.2151 H   0  0  0  0  0  0  0  0  0  0  0  0
   -3.8265    1.3847    1.1853 H   0  0  0  0  0  0  0  0  0  0  0  0
   -4.0999   -0.1865    1.9179 H   0  0  0  0  0  0  0  0  0  0  0  0
   -1.0389   -2.6763    0.7956 H   0  0  0  0  0  0  0  0  0  0  0  0
    2.7462    0.4779   -1.2689 H   0  0  0  0  0  0  0  0  0  0  0  0
   -6.1330   -1.4826    1.4251 H   0  0  0  0  0  0  0  0  0  0  0  0
   -5.4450    2.3777   -0.3680 H   0  0  0  0  0  0  0  0  0  0  0  0
   -8.5108   -1.3554    0.7683 H   0  0  0  0  0  0  0  0  0  0  0  0
   -7.8250    2.4913   -1.0186 H   0  0  0  0  0  0  0  0  0  0  0  0
    5.2717   -1.7057    1.6979 H   0  0  0  0  0  0  0  0  0  0  0  0
    4.6994    0.7770   -1.8017 H   0  0  0  0  0  0  0  0  0  0  0  0
    7.4043   -0.5643    2.1354 H   0  0  0  0  0  0  0  0  0  0  0  0
    6.7489    1.9031   -1.3667 H   0  0  0  0  0  0  0  0  0  0  0  0
    9.7677    2.8081    0.1222 H   0  0  0  0  0  0  0  0  0  0  0  0
    8.0963    3.2491   -0.2099 H   0  0  0  0  0  0  0  0  0  0  0  0
    8.9675    2.0262   -1.2368 H   0  0  0  0  0  0  0  0  0  0  0  0
  1 21  1  0  0  0  0
  2 10  1  0  0  0  0
  2 11  1  0  0  0  0
  3  9  1  0  0  0  0
  3 38  1  0  0  0  0
  4 15  2  0  0  0  0
  5 26  1  0  0  0  0
  5 27  1  0  0  0  0
  6  8  1  0  0  0  0
  6 13  1  0  0  0  0
  6 35  1  0  0  0  0
  7 12  1  0  0  0  0
  7 15  1  0  0  0  0
  7 39  1  0  0  0  0
  8  9  1  0  0  0  0
  8 11  1  0  0  0  0
  8 28  1  0  0  0  0
  9 10  1  0  0  0  0
  9 29  1  0  0  0  0
 10 12  1  0  0  0  0
 10 30  1  0  0  0  0
 11 31  1  0  0  0  0
 11 32  1  0  0  0  0
 12 33  1  0  0  0  0
 12 34  1  0  0  0  0
 13 14  1  0  0  0  0
 13 36  1  0  0  0  0
 13 37  1  0  0  0  0
 14 16  2  0  0  0  0
 14 17  1  0  0  0  0
 15 18  1  0  0  0  0
 16 19  1  0  0  0  0
 16 40  1  0  0  0  0
 17 20  2  0  0  0  0
 17 41  1  0  0  0  0
 18 22  2  0  0  0  0
 18 23  1  0  0  0  0
 19 21  2  0  0  0  0
 19 42  1  0  0  0  0
 20 21  1  0  0  0  0
 20 43  1  0  0  0  0
 22 24  1  0  0  0  0
 22 44  1  0  0  0  0
 23 25  2  0  0  0  0
 23 45  1  0  0  0  0
 24 26  2  0  0  0  0
 24 46  1  0  0  0  0
 25 26  1  0  0  0  0
 25 47  1  0  0  0  0
 27 48  1  0  0  0  0
 27 49  1  0  0  0  0
 27 50  1  0  0  0  0
M  END
> <PUBCHEM_COMPOUND_CID>
75536784

> <PUBCHEM_CONFORMER_RMSD>
1

> <PUBCHEM_CONFORMER_DIVERSEORDER>
1
101
84
49
89
124
34
126
77
17
103
41
58
65
25
26
37
99
29
100
116
22
130
53
55
67
106
4
111
88
6
39
21
97
128
63
38
32
98
74
62
125
87
51
91
18
109
79
82
20
78
8
23
36
27
10
92
112
45
94
15
95
14
107
66
73
90
127
11
7
80
52
123
115
60
129
24
76
122
102
119
93
81
59
31
19
42
108
30
114
44
83
104
71
85
131
12
9
13
57
64
68
120
75
86
54
47
28
33
72
121
117
48
113
2
46
118
70
3
69
96
5
50
40
16
110
105
43
35
61
56

> <PUBCHEM_MMFF94_PARTIAL_CHARGES>
38
1 -0.19
10 0.28
11 0.28
12 0.3
13 0.41
14 -0.14
15 0.54
16 -0.15
17 -0.15
18 0.09
19 -0.15
2 -0.56
20 -0.15
21 0.19
22 -0.15
23 -0.15
24 -0.15
25 -0.15
26 0.08
27 0.28
3 -0.68
35 0.36
38 0.4
39 0.37
4 -0.57
40 0.15
41 0.15
42 0.15
43 0.15
44 0.15
45 0.15
46 0.15
47 0.15
5 -0.36
6 -0.9
7 -0.73
8 0.27
9 0.28

> <PUBCHEM_EFFECTIVE_ROTOR_COUNT>
9

> <PUBCHEM_PHARMACOPHORE_FEATURES>
11
1 2 acceptor
1 3 acceptor
1 3 donor
1 4 acceptor
1 5 acceptor
1 6 cation
1 6 donor
1 7 donor
5 2 8 9 10 11 rings
6 14 16 17 19 20 21 rings
6 18 22 23 24 25 26 rings

> <PUBCHEM_HEAVY_ATOM_COUNT>
27

> <PUBCHEM_ATOM_DEF_STEREO_COUNT>
3

> <PUBCHEM_ATOM_UDEF_STEREO_COUNT>
0

> <PUBCHEM_BOND_DEF_STEREO_COUNT>
0

> <PUBCHEM_BOND_UDEF_STEREO_COUNT>
0

> <PUBCHEM_ISOTOPIC_ATOM_COUNT>
0

> <PUBCHEM_COMPONENT_COUNT>
1

> <PUBCHEM_CACTVS_TAUTO_COUNT>
2

> <PUBCHEM_CONFORMER_ID>
0480999000000001

> <PUBCHEM_MMFF94_ENERGY>
71.8309

> <PUBCHEM_FEATURE_SELFOVERLAP>
55.822

> <PUBCHEM_SHAPE_FINGERPRINT>
10 15 18408322189685591210
10162869 55 18337104661702916039
10429389 143 18409728435752790621
106641 1 18408889563909118723
11135926 11 12107781939503843337
11315181 36 18131072615993839225
11638347 137 17168140118753416098
12592606 108 10665235864747109849
12838862 33 18271795835687425704
13685833 64 12324242772035961478
14216079 64 11746930980521284200
14251764 18 18186522111619567839
14251764 46 17894911832323571353
14344974 52 15984814987361072832
14347424 109 15068632607995195462
14428016 248 17418382389677343841
14856354 85 12607395599644302033
15131766 46 16953682733397562444
15461852 350 17632291311672260863
15840311 113 18334579067010793268
15849732 13 18409732854957140343
16090146 7 14333134125536351087
1754911 235 15626504982417922705
1818759 1 10809338928314931400
18365409 1 16200138950371448693
20105231 36 10663813097196808981
20554085 129 18201710743687089498
21095086 128 11600003245896382509
21150785 3 14549018775368346904
21344244 246 10735617782085908380
21365058 27 15554447388712129573
21403212 168 16225764112628564587
21792934 111 16732980929365096348
21792961 116 8790893960945723859
221357 26 13110965314979128274
22224240 67 18412263926197652583
23035841 295 8358252636484812685
246663 6 8502654813668868821
24771293 8 18131078112597735129
249057 3 15913321420923155501
28498 318 11097852999461027547
34797466 226 14979954765826229984
4107672 100 11959741434829664555
5283156 175 9223234048636061434
5470011 282 11239994573319417458
5719381 82 8574440807667450028
5758199 1 17418098698355186819
59682541 35 18187367652940562136
636775 72 18338235952343367153
6438161 24 9007061249822592836
67123 10 18410292519381866593
9937071 3 8214150651239418228

> <PUBCHEM_SHAPE_MULTIPOLES>
514.93
31.33
1.88
1.01
11.75
0.12
0.03
-16.82
3.7
-1.89
-0.19
-0.68
0.09
0.25

> <PUBCHEM_SHAPE_SELFOVERLAP>
1091.599

> <PUBCHEM_SHAPE_VOLUME>
289.9

> <PUBCHEM_COORDINATE_TYPE>
2
5
10

$$$$
