44716096
  -OEChem-12032416153D

 61 65  0     1  0  0  0  0  0999 V2000
   -3.9252    2.2517    0.7796 O   0  0  0  0  0  0  0  0  0  0  0  0
    7.5953    2.4191    1.0324 O   0  0  0  0  0  0  0  0  0  0  0  0
   -1.4030   -0.1668   -1.8373 N   0  0  1  0  0  0  0  0  0  0  0  0
   -4.7828    0.0897    0.8787 N   0  0  0  0  0  0  0  0  0  0  0  0
    2.3180   -0.7646   -1.1583 N   0  0  0  0  0  0  0  0  0  0  0  0
    2.3783   -1.9247   -0.4847 N   0  0  0  0  0  0  0  0  0  0  0  0
    3.5678   -1.9770    0.1048 N   0  0  0  0  0  0  0  0  0  0  0  0
   -1.3640    1.4719    0.1840 C   0  0  1  0  0  0  0  0  0  0  0  0
   -2.4696    0.4095    0.3442 C   0  0  2  0  0  0  0  0  0  0  0  0
   -0.1529   -0.3512   -1.0502 C   0  0  2  0  0  0  0  0  0  0  0  0
   -0.0251    0.7215    0.0566 C   0  0  0  0  0  0  0  0  0  0  0  0
   -1.5682    2.2271   -1.1419 C   0  0  0  0  0  0  0  0  0  0  0  0
   -2.5605   -0.4306   -0.9438 C   0  0  0  0  0  0  0  0  0  0  0  0
   -1.5176    1.2314   -2.3109 C   0  0  0  0  0  0  0  0  0  0  0  0
    1.0897   -0.3961   -1.9421 C   0  0  0  0  0  0  0  0  0  0  0  0
   -3.7907    1.0349    0.6812 C   0  0  0  0  0  0  0  0  0  0  0  0
   -6.1416    0.4319    1.2362 C   0  0  0  0  0  0  0  0  0  0  0  0
   -6.9915    0.6889   -0.0127 C   0  0  0  0  0  0  0  0  0  0  0  0
   -6.7679   -0.6511    2.1211 C   0  0  0  0  0  0  0  0  0  0  0  0
   -7.3014   -0.5942   -0.7836 C   0  0  0  0  0  0  0  0  0  0  0  0
   -7.0781   -1.9322    1.3466 C   0  0  0  0  0  0  0  0  0  0  0  0
   -7.9340   -1.6523    0.1152 C   0  0  0  0  0  0  0  0  0  0  0  0
    3.4638   -0.0435   -1.0195 C   0  0  0  0  0  0  0  0  0  0  0  0
    4.2448   -0.8325   -0.2127 C   0  0  0  0  0  0  0  0  0  0  0  0
    5.5638   -0.5172    0.2334 C   0  0  0  0  0  0  0  0  0  0  0  0
    5.9392    0.8135    0.4175 C   0  0  0  0  0  0  0  0  0  0  0  0
    6.4774   -1.5410    0.4854 C   0  0  0  0  0  0  0  0  0  0  0  0
    7.2281    1.1208    0.8537 C   0  0  0  0  0  0  0  0  0  0  0  0
    7.7663   -1.2337    0.9213 C   0  0  0  0  0  0  0  0  0  0  0  0
    8.1417    0.0970    1.1057 C   0  0  0  0  0  0  0  0  0  0  0  0
   -1.3336    2.1702    1.0274 H   0  0  0  0  0  0  0  0  0  0  0  0
   -2.2024   -0.2453    1.1859 H   0  0  0  0  0  0  0  0  0  0  0  0
   -0.2264   -1.3322   -0.5591 H   0  0  0  0  0  0  0  0  0  0  0  0
    0.7726    1.4420   -0.1617 H   0  0  0  0  0  0  0  0  0  0  0  0
    0.2255    0.2403    1.0100 H   0  0  0  0  0  0  0  0  0  0  0  0
   -2.5178    2.7706   -1.1575 H   0  0  0  0  0  0  0  0  0  0  0  0
   -0.7773    2.9770   -1.2663 H   0  0  0  0  0  0  0  0  0  0  0  0
   -2.5783   -1.4977   -0.6865 H   0  0  0  0  0  0  0  0  0  0  0  0
   -3.4914   -0.2508   -1.4974 H   0  0  0  0  0  0  0  0  0  0  0  0
   -2.4213    1.3372   -2.9248 H   0  0  0  0  0  0  0  0  0  0  0  0
   -0.6889    1.4788   -2.9840 H   0  0  0  0  0  0  0  0  0  0  0  0
    1.0097   -1.1663   -2.7178 H   0  0  0  0  0  0  0  0  0  0  0  0
    1.3136    0.5656   -2.4155 H   0  0  0  0  0  0  0  0  0  0  0  0
   -6.0982    1.3630    1.8150 H   0  0  0  0  0  0  0  0  0  0  0  0
   -4.5605   -0.8906    0.7341 H   0  0  0  0  0  0  0  0  0  0  0  0
   -6.4902    1.4002   -0.6800 H   0  0  0  0  0  0  0  0  0  0  0  0
   -7.9383    1.1536    0.2911 H   0  0  0  0  0  0  0  0  0  0  0  0
   -7.7009   -0.2648    2.5509 H   0  0  0  0  0  0  0  0  0  0  0  0
   -6.1042   -0.8867    2.9618 H   0  0  0  0  0  0  0  0  0  0  0  0
   -6.3795   -0.9922   -1.2248 H   0  0  0  0  0  0  0  0  0  0  0  0
   -7.9779   -0.3674   -1.6155 H   0  0  0  0  0  0  0  0  0  0  0  0
   -7.6028   -2.6359    2.0031 H   0  0  0  0  0  0  0  0  0  0  0  0
   -6.1467   -2.4238    1.0423 H   0  0  0  0  0  0  0  0  0  0  0  0
   -8.9280   -1.3133    0.4323 H   0  0  0  0  0  0  0  0  0  0  0  0
   -8.0793   -2.5789   -0.4515 H   0  0  0  0  0  0  0  0  0  0  0  0
    3.6075    0.9181   -1.4927 H   0  0  0  0  0  0  0  0  0  0  0  0
    5.2380    1.6253    0.2372 H   0  0  0  0  0  0  0  0  0  0  0  0
    6.2081   -2.5851    0.3453 H   0  0  0  0  0  0  0  0  0  0  0  0
    8.4781   -2.0305    1.1166 H   0  0  0  0  0  0  0  0  0  0  0  0
    9.1472    0.3299    1.4452 H   0  0  0  0  0  0  0  0  0  0  0  0
    6.8426    2.9941    0.8114 H   0  0  0  0  0  0  0  0  0  0  0  0
  1 16  2  0  0  0  0
  2 28  1  0  0  0  0
  2 61  1  0  0  0  0
  3 10  1  0  0  0  0
  3 13  1  0  0  0  0
  3 14  1  0  0  0  0
  4 16  1  0  0  0  0
  4 17  1  0  0  0  0
  4 45  1  0  0  0  0
  5  6  1  0  0  0  0
  5 15  1  0  0  0  0
  5 23  1  0  0  0  0
  6  7  2  0  0  0  0
  7 24  1  0  0  0  0
  8  9  1  0  0  0  0
  8 11  1  0  0  0  0
  8 12  1  0  0  0  0
  8 31  1  0  0  0  0
  9 13  1  0  0  0  0
  9 16  1  0  0  0  0
  9 32  1  0  0  0  0
 10 11  1  0  0  0  0
 10 15  1  0  0  0  0
 10 33  1  0  0  0  0
 11 34  1  0  0  0  0
 11 35  1  0  0  0  0
 12 14  1  0  0  0  0
 12 36  1  0  0  0  0
 12 37  1  0  0  0  0
 13 38  1  0  0  0  0
 13 39  1  0  0  0  0
 14 40  1  0  0  0  0
 14 41  1  0  0  0  0
 15 42  1  0  0  0  0
 15 43  1  0  0  0  0
 17 18  1  0  0  0  0
 17 19  1  0  0  0  0
 17 44  1  0  0  0  0
 18 20  1  0  0  0  0
 18 46  1  0  0  0  0
 18 47  1  0  0  0  0
 19 21  1  0  0  0  0
 19 48  1  0  0  0  0
 19 49  1  0  0  0  0
 20 22  1  0  0  0  0
 20 50  1  0  0  0  0
 20 51  1  0  0  0  0
 21 22  1  0  0  0  0
 21 52  1  0  0  0  0
 21 53  1  0  0  0  0
 22 54  1  0  0  0  0
 22 55  1  0  0  0  0
 23 24  2  0  0  0  0
 23 56  1  0  0  0  0
 24 25  1  0  0  0  0
 25 26  2  0  0  0  0
 25 27  1  0  0  0  0
 26 28  1  0  0  0  0
 26 57  1  0  0  0  0
 27 29  2  0  0  0  0
 27 58  1  0  0  0  0
 28 30  2  0  0  0  0
 29 30  1  0  0  0  0
 29 59  1  0  0  0  0
 30 60  1  0  0  0  0
M  END
> <PUBCHEM_COMPOUND_CID>
44716096

> <PUBCHEM_CONFORMER_RMSD>
1.2

> <PUBCHEM_CONFORMER_DIVERSEORDER>
1
26
80
92
43
97
86
79
56
75
33
51
118
105
57
95
59
9
53
93
34
76
72
22
106
111
89
107
69
66
37
73
36
110
50
23
82
10
65
64
67
45
99
117
58
70
60
113
15
84
19
81
63
21
109
120
41
102
46
115
17
74
47
52
71
38
7
78
61
16
40
5
121
91
20
48
100
49
27
87
62
54
6
77
2
94
85
18
114
4
116
29
55
98
90
25
83
24
8
108
112
32
96
12
101
14
28
42
31
11
68
119
3
103
30
39
13
35
88
104
44

> <PUBCHEM_MMFF94_PARTIAL_CHARGES>
29
1 -0.57
10 0.27
13 0.27
14 0.27
15 0.26
16 0.57
17 0.3
2 -0.53
23 -0.3
24 0.17
25 0.05
26 -0.15
27 -0.15
28 0.08
29 -0.15
3 -0.81
30 -0.15
4 -0.73
45 0.37
5 0.31
56 0.15
57 0.15
58 0.15
59 0.15
6 -0.42
60 0.15
61 0.45
7 -0.23
9 0.06

> <PUBCHEM_EFFECTIVE_ROTOR_COUNT>
8.4

> <PUBCHEM_PHARMACOPHORE_FEATURES>
8
1 1 acceptor
1 2 donor
1 3 cation
1 4 donor
5 5 6 7 23 24 rings
6 17 18 19 20 21 22 rings
6 25 26 27 28 29 30 rings
8 3 8 9 10 11 12 13 14 rings

> <PUBCHEM_HEAVY_ATOM_COUNT>
30

> <PUBCHEM_ATOM_DEF_STEREO_COUNT>
2

> <PUBCHEM_ATOM_UDEF_STEREO_COUNT>
1

> <PUBCHEM_BOND_DEF_STEREO_COUNT>
0

> <PUBCHEM_BOND_UDEF_STEREO_COUNT>
0

> <PUBCHEM_ISOTOPIC_ATOM_COUNT>
0

> <PUBCHEM_COMPONENT_COUNT>
1

> <PUBCHEM_CACTVS_TAUTO_COUNT>
6

> <PUBCHEM_CONFORMER_ID>
02AA504000000001

> <PUBCHEM_MMFF94_ENERGY>
59.7959

> <PUBCHEM_FEATURE_SELFOVERLAP>
40.597

> <PUBCHEM_SHAPE_FINGERPRINT>
10 15 18060420222356943210
10369192 42 13758358852234966721
10483366 6 12107781922117887655
106641 1 17775286080003310835
10670039 82 11602813615261428615
10674148 151 10519987045934028846
10917259 69 14924766940998946335
10930396 42 17822560716005360640
11211813 163 11531024275905687247
11273773 118 8502382144409336927
11297750 10 14851882590719344406
11408170 108 17313104095061516379
11408170 132 8070024480895457910
11456790 92 18130498653396027498
11724838 91 18131349721759688588
12120059 9 17822004312051798467
12539747 91 17313373556851312845
12559415 135 14562802249076804215
12596602 18 17987806207032564443
13177829 20 18342176665385816610
13914758 101 11891328733846599767
14068700 675 15936414441744304709
14251764 18 17561080319485058065
14849402 71 16415194619928321017
14856354 85 13398621763457267973
14931854 50 11674877771671514704
15183329 4 8574716788631422014
15188451 53 16153425043766776548
15475509 8 10952052247011748850
15706992 2 13542473090011526979
15728490 51 18202280346908647583
16126227 98 16271923835086174766
16992610 120 15051739724378996460
18393751 57 18131068238409711294
19303781 99 17533225395910207235
20105231 36 17968657105062814082
2026 5 16805610287405141851
21130935 74 18337957766377435250
21315764 119 8790881878416710840
21365058 27 12823296793569601909
21792934 111 18040432187818023069
22224240 67 18410292510507621570
23559900 14 12036033316005401815
23576562 1 11167353108495020187
24771293 8 17060063640254553545
3004659 81 11241974793518338268
3383291 50 17822585983762369435
3633792 109 11674883294994052710
3711267 37 15841554084985410514
38570 142 12247683751439407861
397830 11 18343025441054431550
4107672 100 9223223032425158377
4149490 64 17823714143222032811
4403749 210 17703790285373945317
444769 64 13551475831090097941
474113 269 14273723054691621016
5104073 3 18195815072033182794
5223283 242 13470417669390061544
563151 40 14764338349702816269
57307002 182 18114466764351176844
5758199 1 15554450686925245607
59682541 35 18410291436934063794
5969126 39 17240761766461670405
6126387 218 18408321074101857105
6201320 82 15050017962896547034
9689198 14 13398634948173020755

> <PUBCHEM_SHAPE_MULTIPOLES>
580.74
26.81
2.01
1.7
10.43
0.17
-0.32
-8.65
13.72
-0.28
0.22
-0.81
0.26
1.41

> <PUBCHEM_SHAPE_SELFOVERLAP>
1249.631

> <PUBCHEM_SHAPE_VOLUME>
314.1

> <PUBCHEM_COORDINATE_TYPE>
2
5
10

$$$$
