75537011
  -OEChem-12032416313D

 46 49  0     1  0  0  0  0  0999 V2000
    1.6323   -2.6749    0.5020 O   0  0  0  0  0  0  0  0  0  0  0  0
   -5.0298   -0.7429   -0.1674 O   0  0  0  0  0  0  0  0  0  0  0  0
    1.7890   -0.3464    0.1642 N   0  0  0  0  0  0  0  0  0  0  0  0
   -0.2491   -1.2786    0.3254 N   0  0  0  0  0  0  0  0  0  0  0  0
   -2.7535   -0.4381   -0.5437 N   0  0  0  0  0  0  0  0  0  0  0  0
   -0.5044    0.1493    0.2471 C   0  0  1  0  0  0  0  0  0  0  0  0
    3.2182   -0.1699    0.0736 C   0  0  0  0  0  0  0  0  0  0  0  0
    0.8622    0.7447   -0.0819 C   0  0  0  0  0  0  0  0  0  0  0  0
   -4.3062    1.4719   -0.3566 C   0  0  0  0  0  0  0  0  0  0  0  0
   -1.5938    0.4408   -0.7815 C   0  0  0  0  0  0  0  0  0  0  0  0
   -4.1043    2.2328    0.9103 C   0  0  0  0  0  0  0  0  0  0  0  0
   -5.4884    2.0033    0.3816 C   0  0  0  0  0  0  0  0  0  0  0  0
   -1.3589   -2.2031    0.4746 C   0  0  0  0  0  0  0  0  0  0  0  0
    1.1212   -1.5727    0.3532 C   0  0  0  0  0  0  0  0  0  0  0  0
   -2.4486   -1.8762   -0.5439 C   0  0  0  0  0  0  0  0  0  0  0  0
    3.7225    0.7186    1.2133 C   0  0  0  0  0  0  0  0  0  0  0  0
    3.6082    0.4013   -1.2923 C   0  0  0  0  0  0  0  0  0  0  0  0
   -4.0661   -0.0031   -0.3473 C   0  0  0  0  0  0  0  0  0  0  0  0
    5.2255    0.9654    1.1116 C   0  0  0  0  0  0  0  0  0  0  0  0
    5.1116    0.6468   -1.3903 C   0  0  0  0  0  0  0  0  0  0  0  0
    5.6123    1.5311   -0.2520 C   0  0  0  0  0  0  0  0  0  0  0  0
   -0.8299    0.4651    1.2466 H   0  0  0  0  0  0  0  0  0  0  0  0
    3.6843   -1.1580    0.1798 H   0  0  0  0  0  0  0  0  0  0  0  0
    0.9273    1.0390   -1.1337 H   0  0  0  0  0  0  0  0  0  0  0  0
    1.0850    1.6051    0.5539 H   0  0  0  0  0  0  0  0  0  0  0  0
   -4.0729    1.9713   -1.2919 H   0  0  0  0  0  0  0  0  0  0  0  0
   -1.2442    0.2208   -1.7978 H   0  0  0  0  0  0  0  0  0  0  0  0
   -1.8655    1.4978   -0.7514 H   0  0  0  0  0  0  0  0  0  0  0  0
   -3.6951    3.2331    0.8387 H   0  0  0  0  0  0  0  0  0  0  0  0
   -3.8091    1.6927    1.8017 H   0  0  0  0  0  0  0  0  0  0  0  0
   -6.1268    1.3291    0.9389 H   0  0  0  0  0  0  0  0  0  0  0  0
   -6.0104    2.8520   -0.0445 H   0  0  0  0  0  0  0  0  0  0  0  0
   -1.7408   -2.0802    1.4944 H   0  0  0  0  0  0  0  0  0  0  0  0
   -1.0037   -3.2321    0.3637 H   0  0  0  0  0  0  0  0  0  0  0  0
   -2.1089   -2.1268   -1.5561 H   0  0  0  0  0  0  0  0  0  0  0  0
   -3.3452   -2.4688   -0.3385 H   0  0  0  0  0  0  0  0  0  0  0  0
    3.2125    1.6894    1.2054 H   0  0  0  0  0  0  0  0  0  0  0  0
    3.4913    0.2555    2.1804 H   0  0  0  0  0  0  0  0  0  0  0  0
    3.2933   -0.2818   -2.0906 H   0  0  0  0  0  0  0  0  0  0  0  0
    3.0994    1.3552   -1.4770 H   0  0  0  0  0  0  0  0  0  0  0  0
    5.7615    0.0234    1.2811 H   0  0  0  0  0  0  0  0  0  0  0  0
    5.5401    1.6576    1.9008 H   0  0  0  0  0  0  0  0  0  0  0  0
    5.3471    1.1157   -2.3524 H   0  0  0  0  0  0  0  0  0  0  0  0
    5.6401   -0.3141   -1.3657 H   0  0  0  0  0  0  0  0  0  0  0  0
    6.7018    1.6307   -0.3142 H   0  0  0  0  0  0  0  0  0  0  0  0
    5.1923    2.5386   -0.3611 H   0  0  0  0  0  0  0  0  0  0  0  0
  1 14  2  0  0  0  0
  2 18  2  0  0  0  0
  3  7  1  0  0  0  0
  3  8  1  0  0  0  0
  3 14  1  0  0  0  0
  4  6  1  0  0  0  0
  4 13  1  0  0  0  0
  4 14  1  0  0  0  0
  5 10  1  0  0  0  0
  5 15  1  0  0  0  0
  5 18  1  0  0  0  0
  6  8  1  0  0  0  0
  6 10  1  0  0  0  0
  6 22  1  0  0  0  0
  7 16  1  0  0  0  0
  7 17  1  0  0  0  0
  7 23  1  0  0  0  0
  8 24  1  0  0  0  0
  8 25  1  0  0  0  0
  9 11  1  0  0  0  0
  9 12  1  0  0  0  0
  9 18  1  0  0  0  0
  9 26  1  0  0  0  0
 10 27  1  0  0  0  0
 10 28  1  0  0  0  0
 11 12  1  0  0  0  0
 11 29  1  0  0  0  0
 11 30  1  0  0  0  0
 12 31  1  0  0  0  0
 12 32  1  0  0  0  0
 13 15  1  0  0  0  0
 13 33  1  0  0  0  0
 13 34  1  0  0  0  0
 15 35  1  0  0  0  0
 15 36  1  0  0  0  0
 16 19  1  0  0  0  0
 16 37  1  0  0  0  0
 16 38  1  0  0  0  0
 17 20  1  0  0  0  0
 17 39  1  0  0  0  0
 17 40  1  0  0  0  0
 19 21  1  0  0  0  0
 19 41  1  0  0  0  0
 19 42  1  0  0  0  0
 20 21  1  0  0  0  0
 20 43  1  0  0  0  0
 20 44  1  0  0  0  0
 21 45  1  0  0  0  0
 21 46  1  0  0  0  0
M  END
> <PUBCHEM_COMPOUND_CID>
75537011

> <PUBCHEM_CONFORMER_RMSD>
0.8

> <PUBCHEM_CONFORMER_DIVERSEORDER>
1
33
32
21
24
20
31
13
16
7
6
36
28
5
35
8
23
11
12
22
14
27
10
19
34
18
4
26
17
2
15
25
9
3
30
29
37

> <PUBCHEM_MMFF94_PARTIAL_CHARGES>
21
1 -0.57
10 0.3
11 -0.2
12 -0.2
13 0.3
14 0.69
15 0.3
18 0.63
2 -0.57
26 0.1
29 0.1
3 -0.66
30 0.1
31 0.1
32 0.1
4 -0.66
5 -0.66
6 0.3
7 0.3
8 0.3
9 -0.1

> <PUBCHEM_EFFECTIVE_ROTOR_COUNT>
6

> <PUBCHEM_PHARMACOPHORE_FEATURES>
5
1 1 acceptor
1 2 acceptor
5 3 4 6 8 14 rings
6 4 5 6 10 13 15 rings
6 7 16 17 19 20 21 rings

> <PUBCHEM_HEAVY_ATOM_COUNT>
21

> <PUBCHEM_ATOM_DEF_STEREO_COUNT>
1

> <PUBCHEM_ATOM_UDEF_STEREO_COUNT>
0

> <PUBCHEM_BOND_DEF_STEREO_COUNT>
0

> <PUBCHEM_BOND_UDEF_STEREO_COUNT>
0

> <PUBCHEM_ISOTOPIC_ATOM_COUNT>
0

> <PUBCHEM_COMPONENT_COUNT>
1

> <PUBCHEM_CACTVS_TAUTO_COUNT>
1

> <PUBCHEM_CONFORMER_ID>
04809A7300000001

> <PUBCHEM_MMFF94_ENERGY>
38.3392

> <PUBCHEM_FEATURE_SELFOVERLAP>
25.47

> <PUBCHEM_SHAPE_FINGERPRINT>
10378564 45 17846223203120673836
10382601 240 17822849771314297746
10493431 412 18335422357283094381
12236239 1 17458901643781527216
12390115 104 18272098171414972329
12403814 3 17240473724052572471
12422481 6 17459176405165341388
12596602 18 17240204330967110857
12616971 3 17095516319087113716
12644460 14 17749668476624761570
12788726 201 17489028132742690097
12916748 109 18341615940457420219
14251764 38 18197212766266978056
14341114 328 17240762908432249690
14573314 32 17846784005073735564
14739800 52 18130206191212647584
14790565 3 18334863843730943860
15183329 4 16845300397360512940
15188451 53 11746940918848980985
15196674 1 18410290272892710491
15209294 21 18410569574547261193
15880784 105 11386372534222860268
1601671 61 18335138687436028100
17857418 61 10663826264949145444
17959699 21 18272932734757561184
1813 80 10952050061247558570
18222031 100 9655575214716878092
19784866 34 18408884018605224963
200 152 13686305677116681158
20645477 70 16271657728098431628
20739085 24 17970072140711268935
22289505 5 17489869341433510768
23402539 116 18340761654725449574
23402655 69 18272086084738632870
23557571 272 18200602500337312454
23559900 14 18341336656652541622
25147074 1 18335965511374221531
2916195 48 18201148949126992552
293599 30 18412266108140999429
312425 54 13190335730292932797
3472631 163 18412547625814474772
34797466 226 17131552846424991068
34934 24 18342171154947998559
350125 39 18409449228586948761
3680242 22 18259982657052165168
441001 317 18273494576598812081
465052 167 9799400161434903000
474 4 18040438797476694340
5104073 3 18261955150636498339
5283173 99 18060423495180526096
542803 24 17967813860071645204
59682541 35 18337967736267563241
59682541 52 17059777698089706396
59755656 215 18340772534046785758
633830 44 18343013432842999204
636775 72 18198336463441453088
7495541 125 11602821307241205318
7808743 9 18411134723603176425
8863177 126 12246523852814758341
960060 61 13542459878169586152

> <PUBCHEM_SHAPE_MULTIPOLES>
405.49
13.03
2.32
1.07
1.96
0.74
0.07
-8.87
0.47
-1.9
-0.5
1.06
-0.22
-0.62

> <PUBCHEM_SHAPE_SELFOVERLAP>
847.488

> <PUBCHEM_SHAPE_VOLUME>
228.4

> <PUBCHEM_COORDINATE_TYPE>
2
5
10

$$$$
