75536998
  -OEChem-12032416333D

 48 51  0     1  0  0  0  0  0999 V2000
   -6.4094    2.9316    1.8330 F   0  0  0  0  0  0  0  0  0  0  0  0
   -2.8939   -2.9170    0.0130 O   0  0  0  0  0  0  0  0  0  0  0  0
    3.8336   -1.7950    1.1304 O   0  0  0  0  0  0  0  0  0  0  0  0
   -0.7624   -1.9509   -0.1980 N   0  0  0  0  0  0  0  0  0  0  0  0
   -2.4908   -0.9570   -1.2346 N   0  0  0  0  0  0  0  0  0  0  0  0
    1.7293   -1.0074    0.5935 N   0  0  0  0  0  0  0  0  0  0  0  0
    3.6514    0.0021   -0.3253 N   0  0  0  0  0  0  0  0  0  0  0  0
   -0.1609   -0.8671   -0.9584 C   0  0  1  0  0  0  0  0  0  0  0  0
   -1.3607   -0.0761   -1.4725 C   0  0  0  0  0  0  0  0  0  0  0  0
    0.7961   -0.0758   -0.0731 C   0  0  0  0  0  0  0  0  0  0  0  0
    0.0773   -2.8374    0.5900 C   0  0  0  0  0  0  0  0  0  0  0  0
    1.0637   -2.0221    1.4264 C   0  0  0  0  0  0  0  0  0  0  0  0
   -2.1426   -2.0536   -0.4211 C   0  0  0  0  0  0  0  0  0  0  0  0
   -3.8259   -0.6276   -1.6826 C   0  0  0  0  0  0  0  0  0  0  0  0
    3.1369   -0.9835    0.5156 C   0  0  0  0  0  0  0  0  0  0  0  0
   -4.5148    0.3216   -0.7453 C   0  0  0  0  0  0  0  0  0  0  0  0
   -5.2750   -0.1736    0.3142 C   0  0  0  0  0  0  0  0  0  0  0  0
   -4.3947    1.6985   -0.9337 C   0  0  0  0  0  0  0  0  0  0  0  0
    4.8929    0.6742   -0.2021 C   0  0  0  0  0  0  0  0  0  0  0  0
   -5.9153    0.7078    1.1851 C   0  0  0  0  0  0  0  0  0  0  0  0
   -5.0350    2.5801   -0.0629 C   0  0  0  0  0  0  0  0  0  0  0  0
   -5.7953    2.0847    0.9965 C   0  0  0  0  0  0  0  0  0  0  0  0
    5.2571    1.6420   -1.1384 C   0  0  0  0  0  0  0  0  0  0  0  0
    5.7505    0.3685    0.8544 C   0  0  0  0  0  0  0  0  0  0  0  0
    6.4790    2.3041   -1.0180 C   0  0  0  0  0  0  0  0  0  0  0  0
    6.9723    1.0306    0.9751 C   0  0  0  0  0  0  0  0  0  0  0  0
    7.3366    1.9983    0.0387 C   0  0  0  0  0  0  0  0  0  0  0  0
    0.3815   -1.3289   -1.7932 H   0  0  0  0  0  0  0  0  0  0  0  0
   -1.5155    0.8535   -0.9160 H   0  0  0  0  0  0  0  0  0  0  0  0
   -1.2771    0.1466   -2.5404 H   0  0  0  0  0  0  0  0  0  0  0  0
    1.2996    0.7009   -0.6493 H   0  0  0  0  0  0  0  0  0  0  0  0
    0.2492    0.4355    0.7297 H   0  0  0  0  0  0  0  0  0  0  0  0
    0.6167   -3.4761   -0.1185 H   0  0  0  0  0  0  0  0  0  0  0  0
   -0.5473   -3.4776    1.2205 H   0  0  0  0  0  0  0  0  0  0  0  0
    1.7889   -2.6882    1.9028 H   0  0  0  0  0  0  0  0  0  0  0  0
    0.5345   -1.4844    2.2223 H   0  0  0  0  0  0  0  0  0  0  0  0
   -4.4067   -1.5553   -1.7540 H   0  0  0  0  0  0  0  0  0  0  0  0
   -3.7671   -0.2132   -2.6958 H   0  0  0  0  0  0  0  0  0  0  0  0
    3.0834    0.3052   -1.1092 H   0  0  0  0  0  0  0  0  0  0  0  0
   -5.3765   -1.2439    0.4729 H   0  0  0  0  0  0  0  0  0  0  0  0
   -3.8058    2.0970   -1.7556 H   0  0  0  0  0  0  0  0  0  0  0  0
   -6.5070    0.3227    2.0103 H   0  0  0  0  0  0  0  0  0  0  0  0
   -4.9418    3.6521   -0.2092 H   0  0  0  0  0  0  0  0  0  0  0  0
    4.5981    1.8898   -1.9665 H   0  0  0  0  0  0  0  0  0  0  0  0
    5.5125   -0.3527    1.6264 H   0  0  0  0  0  0  0  0  0  0  0  0
    6.7625    3.0578   -1.7467 H   0  0  0  0  0  0  0  0  0  0  0  0
    7.6382    0.7977    1.8010 H   0  0  0  0  0  0  0  0  0  0  0  0
    8.2873    2.5148    0.1334 H   0  0  0  0  0  0  0  0  0  0  0  0
  1 22  1  0  0  0  0
  2 13  2  0  0  0  0
  3 15  2  0  0  0  0
  4  8  1  0  0  0  0
  4 11  1  0  0  0  0
  4 13  1  0  0  0  0
  5  9  1  0  0  0  0
  5 13  1  0  0  0  0
  5 14  1  0  0  0  0
  6 10  1  0  0  0  0
  6 12  1  0  0  0  0
  6 15  1  0  0  0  0
  7 15  1  0  0  0  0
  7 19  1  0  0  0  0
  7 39  1  0  0  0  0
  8  9  1  0  0  0  0
  8 10  1  0  0  0  0
  8 28  1  0  0  0  0
  9 29  1  0  0  0  0
  9 30  1  0  0  0  0
 10 31  1  0  0  0  0
 10 32  1  0  0  0  0
 11 12  1  0  0  0  0
 11 33  1  0  0  0  0
 11 34  1  0  0  0  0
 12 35  1  0  0  0  0
 12 36  1  0  0  0  0
 14 16  1  0  0  0  0
 14 37  1  0  0  0  0
 14 38  1  0  0  0  0
 16 17  2  0  0  0  0
 16 18  1  0  0  0  0
 17 20  1  0  0  0  0
 17 40  1  0  0  0  0
 18 21  2  0  0  0  0
 18 41  1  0  0  0  0
 19 23  2  0  0  0  0
 19 24  1  0  0  0  0
 20 22  2  0  0  0  0
 20 42  1  0  0  0  0
 21 22  1  0  0  0  0
 21 43  1  0  0  0  0
 23 25  1  0  0  0  0
 23 44  1  0  0  0  0
 24 26  2  0  0  0  0
 24 45  1  0  0  0  0
 25 27  2  0  0  0  0
 25 46  1  0  0  0  0
 26 27  1  0  0  0  0
 26 47  1  0  0  0  0
 27 48  1  0  0  0  0
M  END
> <PUBCHEM_COMPOUND_CID>
75536998

> <PUBCHEM_CONFORMER_RMSD>
0.8

> <PUBCHEM_CONFORMER_DIVERSEORDER>
1
111
4
104
63
98
143
25
122
54
48
79
127
69
102
146
77
139
22
29
151
32
5
91
121
88
89
81
138
99
82
134
65
105
7
83
144
20
72
15
109
9
12
8
51
47
113
147
90
30
152
123
96
135
62
112
21
86
92
38
26
131
142
45
19
129
52
44
50
130
132
125
136
119
118
120
115
93
140
59
106
53
128
64
68
78
57
148
97
41
124
16
149
114
70
31
107
71
94
141
74
95
145
42
103
37
3
17
40
24
108
56
137
13
46
100
110
150
116
49
36
84
133
66
2
73
67
75
35
55
117
6
126
85
101
43
61
60
23
33
10
34
28
58
80
11
18
87
39
76
14
27

> <PUBCHEM_MMFF94_PARTIAL_CHARGES>
37
1 -0.19
10 0.3
11 0.3
12 0.3
13 0.69
14 0.44
15 0.69
16 -0.14
17 -0.15
18 -0.15
19 0.12
2 -0.57
20 -0.15
21 -0.15
22 0.19
23 -0.15
24 -0.15
25 -0.15
26 -0.15
27 -0.15
3 -0.57
39 0.37
4 -0.66
40 0.15
41 0.15
42 0.15
43 0.15
44 0.15
45 0.15
46 0.15
47 0.15
48 0.15
5 -0.66
6 -0.66
7 -0.55
8 0.3
9 0.3

> <PUBCHEM_EFFECTIVE_ROTOR_COUNT>
6.2

> <PUBCHEM_PHARMACOPHORE_FEATURES>
7
1 2 acceptor
1 3 acceptor
1 7 donor
5 4 5 8 9 13 rings
6 16 17 18 20 21 22 rings
6 19 23 24 25 26 27 rings
6 4 6 8 10 11 12 rings

> <PUBCHEM_HEAVY_ATOM_COUNT>
27

> <PUBCHEM_ATOM_DEF_STEREO_COUNT>
1

> <PUBCHEM_ATOM_UDEF_STEREO_COUNT>
0

> <PUBCHEM_BOND_DEF_STEREO_COUNT>
0

> <PUBCHEM_BOND_UDEF_STEREO_COUNT>
0

> <PUBCHEM_ISOTOPIC_ATOM_COUNT>
0

> <PUBCHEM_COMPONENT_COUNT>
1

> <PUBCHEM_CACTVS_TAUTO_COUNT>
2

> <PUBCHEM_CONFORMER_ID>
04809A6600000001

> <PUBCHEM_MMFF94_ENERGY>
73.0586

> <PUBCHEM_FEATURE_SELFOVERLAP>
35.62

> <PUBCHEM_SHAPE_FINGERPRINT>
10 15 17240480320832188447
105312 117 17346595292088790055
10554248 39 17844515622222269383
10721379 63 18058459699422088870
10906281 52 18335427906718373318
10917259 128 17988630858429235944
11135609 201 18335137626410158371
11475781 23 16917062253325769088
11963148 33 9727097338557208416
12390115 104 18335423499280632854
12596602 18 18040999501811157753
12788726 201 17917430874148442608
12975358 362 17981346507891495793
13167372 99 18335415786394685556
13540713 5 18263901320351345075
13690498 29 16342278371828750047
13782708 43 11386361548176545212
13828863 39 18336830801903615717
13885169 86 18114467863477695564
14150022 121 18263089971644296707
14211702 104 10953730080618768648
14251764 75 18408887330299167322
14394314 77 18412266120958343105
14508225 48 13110966443933295002
14765038 42 18408889524800940229
14790565 3 18335419054115854740
14849402 71 18262804084961037197
15163728 17 17917433082035887247
15183329 4 15769781238494164270
15188451 53 11818992993547562677
15338160 23 18336551607597081755
15840311 113 18263084323397973997
16126227 98 18410296951218559897
16993089 31 13696131957459255336
1768 23 17895490210216615716
17913733 40 16950277391029880186
18222031 100 11383833762407179110
19958102 18 12535622760814583081
21424621 283 18342458149242488938
21756936 100 18343017813757133247
21774942 28 18202280317297518136
23389318 12 10591755507627382576
23559900 14 18334562552787940354
23569914 152 16626329225421692636
2838139 119 18271798060395881028
312425 54 13624075453515065461
3680242 22 17822279194427067976
392239 28 16298391287753915459
397830 11 12757435003177042230
406291 66 7997676589738373425
4098825 35 18202568358867625126
4280585 95 9511462212932454193
437795 70 15913330165102141841
445580 204 18343863329635455448
5104073 3 17822284704464362738
5718773 13 8286199439923963096
5874358 3 10159420834815385652
5911458 16 18341337729387628376
6036956 94 17911521991946923385
6328613 192 18341891887526748112
636775 72 18196929088504879192
7226269 152 18131353007463021521
7495541 125 12612757908524579230
7808743 9 18411696586966775451
9689198 14 18130798840886070833

> <PUBCHEM_SHAPE_MULTIPOLES>
516.71
19.86
3.18
1.44
15.45
0.2
-0.02
-19.56
-4.15
-1.94
-0.7
-1.06
-0.27
-2.8

> <PUBCHEM_SHAPE_SELFOVERLAP>
1113.523

> <PUBCHEM_SHAPE_VOLUME>
284.1

> <PUBCHEM_COORDINATE_TYPE>
2
5
10

$$$$
