75367811
  -OEChem-12032416383D

 43 44  0     1  0  0  0  0  0999 V2000
   -4.1662   -2.2070   -0.4038 O   0  0  0  0  0  0  0  0  0  0  0  0
    0.4246    3.3694   -0.2898 O   0  0  0  0  0  0  0  0  0  0  0  0
    2.5874    0.4986   -0.0968 O   0  0  0  0  0  0  0  0  0  0  0  0
    4.0619   -1.8676   -0.3182 O   0  0  0  0  0  0  0  0  0  0  0  0
   -1.1379    0.6818   -0.0430 N   0  0  2  0  0  0  0  0  0  0  0  0
   -2.1185   -0.3299    0.3525 C   0  0  0  0  0  0  0  0  0  0  0  0
   -1.7952   -1.6875   -0.2793 C   0  0  0  0  0  0  0  0  0  0  0  0
   -3.5295    0.1112   -0.0468 C   0  0  0  0  0  0  0  0  0  0  0  0
    0.2225    0.1744    0.1667 C   0  0  0  0  0  0  0  0  0  0  0  0
   -1.4077    1.9693    0.5987 C   0  0  0  0  0  0  0  0  0  0  0  0
    1.3725    1.1938    0.1879 C   0  0  2  0  0  0  0  0  0  0  0  0
   -2.8974   -2.6935    0.0338 C   0  0  0  0  0  0  0  0  0  0  0  0
   -4.5355   -0.9945    0.2533 C   0  0  0  0  0  0  0  0  0  0  0  0
   -0.9722    3.1115   -0.3202 C   0  0  0  0  0  0  0  0  0  0  0  0
    1.2295    2.3233   -0.8233 C   0  0  0  0  0  0  0  0  0  0  0  0
    3.0803   -0.1691    1.0538 C   0  0  0  0  0  0  0  0  0  0  0  0
    4.3540   -0.9075    0.6898 C   0  0  0  0  0  0  0  0  0  0  0  0
    5.2274   -2.5766   -0.7152 C   0  0  0  0  0  0  0  0  0  0  0  0
   -2.0964   -0.4525    1.4457 H   0  0  0  0  0  0  0  0  0  0  0  0
   -0.8569   -2.1148    0.0890 H   0  0  0  0  0  0  0  0  0  0  0  0
   -1.7171   -1.5789   -1.3691 H   0  0  0  0  0  0  0  0  0  0  0  0
   -3.5540    0.3298   -1.1226 H   0  0  0  0  0  0  0  0  0  0  0  0
   -3.8931    0.9944    0.4811 H   0  0  0  0  0  0  0  0  0  0  0  0
    0.4565   -0.5446   -0.6291 H   0  0  0  0  0  0  0  0  0  0  0  0
    0.2686   -0.3757    1.1160 H   0  0  0  0  0  0  0  0  0  0  0  0
   -0.9064    2.0326    1.5729 H   0  0  0  0  0  0  0  0  0  0  0  0
   -2.4596    2.1594    0.8035 H   0  0  0  0  0  0  0  0  0  0  0  0
    1.4333    1.6481    1.1869 H   0  0  0  0  0  0  0  0  0  0  0  0
   -2.7031   -3.6343   -0.4913 H   0  0  0  0  0  0  0  0  0  0  0  0
   -2.9425   -2.9165    1.1064 H   0  0  0  0  0  0  0  0  0  0  0  0
   -5.5259   -0.7070   -0.1141 H   0  0  0  0  0  0  0  0  0  0  0  0
   -4.6220   -1.1755    1.3313 H   0  0  0  0  0  0  0  0  0  0  0  0
   -1.3036    2.9556   -1.3546 H   0  0  0  0  0  0  0  0  0  0  0  0
   -1.4563    4.0332    0.0225 H   0  0  0  0  0  0  0  0  0  0  0  0
    2.2146    2.7599   -1.0245 H   0  0  0  0  0  0  0  0  0  0  0  0
    0.8440    1.9782   -1.7904 H   0  0  0  0  0  0  0  0  0  0  0  0
    2.3462   -0.8963    1.4144 H   0  0  0  0  0  0  0  0  0  0  0  0
    3.2927    0.5563    1.8471 H   0  0  0  0  0  0  0  0  0  0  0  0
    4.7621   -1.4091    1.5741 H   0  0  0  0  0  0  0  0  0  0  0  0
    5.0940   -0.1984    0.3007 H   0  0  0  0  0  0  0  0  0  0  0  0
    4.9447   -3.3003   -1.4844 H   0  0  0  0  0  0  0  0  0  0  0  0
    5.6547   -3.1188    0.1339 H   0  0  0  0  0  0  0  0  0  0  0  0
    5.9688   -1.8912   -1.1370 H   0  0  0  0  0  0  0  0  0  0  0  0
  1 12  1  0  0  0  0
  1 13  1  0  0  0  0
  2 14  1  0  0  0  0
  2 15  1  0  0  0  0
  3 11  1  0  0  0  0
  3 16  1  0  0  0  0
  4 17  1  0  0  0  0
  4 18  1  0  0  0  0
  5  6  1  0  0  0  0
  5  9  1  0  0  0  0
  5 10  1  0  0  0  0
  6  7  1  0  0  0  0
  6  8  1  0  0  0  0
  6 19  1  0  0  0  0
  7 12  1  0  0  0  0
  7 20  1  0  0  0  0
  7 21  1  0  0  0  0
  8 13  1  0  0  0  0
  8 22  1  0  0  0  0
  8 23  1  0  0  0  0
  9 11  1  0  0  0  0
  9 24  1  0  0  0  0
  9 25  1  0  0  0  0
 10 14  1  0  0  0  0
 10 26  1  0  0  0  0
 10 27  1  0  0  0  0
 11 15  1  0  0  0  0
 11 28  1  0  0  0  0
 12 29  1  0  0  0  0
 12 30  1  0  0  0  0
 13 31  1  0  0  0  0
 13 32  1  0  0  0  0
 14 33  1  0  0  0  0
 14 34  1  0  0  0  0
 15 35  1  0  0  0  0
 15 36  1  0  0  0  0
 16 17  1  0  0  0  0
 16 37  1  0  0  0  0
 16 38  1  0  0  0  0
 17 39  1  0  0  0  0
 17 40  1  0  0  0  0
 18 41  1  0  0  0  0
 18 42  1  0  0  0  0
 18 43  1  0  0  0  0
M  END
> <PUBCHEM_COMPOUND_CID>
75367811

> <PUBCHEM_CONFORMER_RMSD>
0.8

> <PUBCHEM_CONFORMER_DIVERSEORDER>
1
88
76
114
86
8
101
51
41
16
28
50
111
10
45
106
99
83
55
24
31
44
35
42
65
13
32
36
37
93
39
48
56
98
72
103
105
12
15
79
113
53
21
5
108
26
104
112
82
38
92
54
100
97
85
40
4
18
63
80
14
11
29
81
49
74
22
23
33
90
96
2
91
58
61
52
19
9
89
78
67
66
6
73
110
3
95
34
68
57
69
17
84
60
107
75
64
7
47
77
30
43
109
102
27
94
71
25
87
62
70
20
46
59

> <PUBCHEM_MMFF94_PARTIAL_CHARGES>
16
1 -0.56
10 0.27
11 0.28
12 0.28
13 0.28
14 0.28
15 0.28
16 0.28
17 0.28
18 0.28
2 -0.56
3 -0.56
4 -0.56
5 -0.81
6 0.27
9 0.27

> <PUBCHEM_EFFECTIVE_ROTOR_COUNT>
7.6

> <PUBCHEM_PHARMACOPHORE_FEATURES>
7
1 1 acceptor
1 2 acceptor
1 3 acceptor
1 4 acceptor
1 5 cation
6 1 6 7 8 12 13 rings
7 2 5 9 10 11 14 15 rings

> <PUBCHEM_HEAVY_ATOM_COUNT>
18

> <PUBCHEM_ATOM_DEF_STEREO_COUNT>
1

> <PUBCHEM_ATOM_UDEF_STEREO_COUNT>
0

> <PUBCHEM_BOND_DEF_STEREO_COUNT>
0

> <PUBCHEM_BOND_UDEF_STEREO_COUNT>
0

> <PUBCHEM_ISOTOPIC_ATOM_COUNT>
0

> <PUBCHEM_COMPONENT_COUNT>
1

> <PUBCHEM_CACTVS_TAUTO_COUNT>
1

> <PUBCHEM_CONFORMER_ID>
047E058300000001

> <PUBCHEM_MMFF94_ENERGY>
51.2145

> <PUBCHEM_FEATURE_SELFOVERLAP>
35.527

> <PUBCHEM_SHAPE_FINGERPRINT>
10968037 57 18342463612135382402
11265709 11 18408321111828258520
116883 192 18410011018255634988
12403259 327 16056597719923411282
12553582 1 18334003978245417019
13533116 47 18049159166743552339
14178000 29 18410292531923929118
14866123 147 18124598583247969931
15042514 8 18266744588610931281
15352361 1 18411136944001229866
15442244 35 18338517564262392657
15885798 251 18410009948639979779
17492 89 18122907791989544195
17804303 29 18271246023780214160
1813 80 17894348878212268030
18186145 218 17024574802281381011
19141452 34 18270403784882927953
20291156 8 18408600383407443154
20645477 70 18045492269220069611
20871998 22 18411416249956068120
221490 88 17972884940684724507
2255824 54 17758679236180823076
23402539 116 18343010065599064997
23463225 33 18267584787588214279
23557571 272 18200035015336198366
23559900 14 18340760520332266160
314173 41 18334011739420047786
335352 9 18410292489522999589
5207 123 18411693305580165159
56633871 153 18342468023605106043
59755656 215 18123185710679722695
6433294 58 17687468283366167099
7364860 26 18049438446168866704
9709674 26 18118684559168490707
9981440 41 17039784539728518161

> <PUBCHEM_SHAPE_MULTIPOLES>
341.97
9.1
3.82
0.82
6.36
1.51
0.05
-10.18
-0.2
-0.15
-0.89
0.45
0.02
0.2

> <PUBCHEM_SHAPE_SELFOVERLAP>
674.617

> <PUBCHEM_SHAPE_VOLUME>
201.6

> <PUBCHEM_COORDINATE_TYPE>
2
5
10

$$$$
