26743352
  -OEChem-12032416183D

 75 79  0     1  0  0  0  0  0999 V2000
    1.1985    0.5710    1.9090 O   0  0  0  0  0  0  0  0  0  0  0  0
    4.1270   -2.7219   -1.3868 O   0  0  0  0  0  0  0  0  0  0  0  0
   -0.9818   -4.0779    2.0187 O   0  0  0  0  0  0  0  0  0  0  0  0
   -0.3919    1.7207    0.6658 N   0  0  0  0  0  0  0  0  0  0  0  0
    5.3441    3.6327    0.6264 N   0  0  0  0  0  0  0  0  0  0  0  0
    4.7751   -1.5126   -1.6069 N   0  0  0  0  0  0  0  0  0  0  0  0
    0.8237   -3.3913   -0.0718 N   0  0  0  0  0  0  0  0  0  0  0  0
    3.3759    1.4344    0.6500 C   0  0  1  0  0  0  0  0  0  0  0  0
    4.5101    1.5301   -0.3982 C   0  0  2  0  0  0  0  0  0  0  0  0
    3.7948    2.2034    1.9143 C   0  0  0  0  0  0  0  0  0  0  0  0
    2.0138    1.9214    0.1414 C   0  0  0  0  0  0  0  0  0  0  0  0
    4.9517    2.9856   -0.6261 C   0  0  0  0  0  0  0  0  0  0  0  0
    4.2587    3.6261    1.6048 C   0  0  0  0  0  0  0  0  0  0  0  0
    4.1557    0.8619   -1.7273 C   0  0  0  0  0  0  0  0  0  0  0  0
   -3.0127    1.4776   -0.5536 C   0  0  0  0  0  0  0  0  0  0  0  0
   -1.7960    1.9838   -1.3434 C   0  0  0  0  0  0  0  0  0  0  0  0
   -2.5586    0.5508    0.5842 C   0  0  0  0  0  0  0  0  0  0  0  0
   -0.7658    2.6334   -0.4210 C   0  0  0  0  0  0  0  0  0  0  0  0
   -1.5147    1.2307    1.4669 C   0  0  0  0  0  0  0  0  0  0  0  0
    0.9102    1.3410    0.9891 C   0  0  0  0  0  0  0  0  0  0  0  0
   -3.9998    0.7643   -1.4745 C   0  0  0  0  0  0  0  0  0  0  0  0
    3.8138   -0.5875   -1.5368 C   0  0  0  0  0  0  0  0  0  0  0  0
   -5.3805    0.7193   -0.8795 C   0  0  0  0  0  0  0  0  0  0  0  0
    2.5513   -1.1483   -1.2774 C   0  0  0  0  0  0  0  0  0  0  0  0
    2.8033   -2.4921   -1.1920 C   0  0  0  0  0  0  0  0  0  0  0  0
    1.9633   -3.6698   -0.9433 C   0  0  0  0  0  0  0  0  0  0  0  0
   -5.7566   -0.3537   -0.0715 C   0  0  0  0  0  0  0  0  0  0  0  0
   -6.2844    1.7501   -1.1355 C   0  0  0  0  0  0  0  0  0  0  0  0
    1.2375   -3.3720    1.3382 C   0  0  0  0  0  0  0  0  0  0  0  0
   -0.2402   -4.3852   -0.2707 C   0  0  0  0  0  0  0  0  0  0  0  0
   -7.0370   -0.3959    0.4806 C   0  0  0  0  0  0  0  0  0  0  0  0
   -7.5648    1.7080   -0.5836 C   0  0  0  0  0  0  0  0  0  0  0  0
    0.0302   -3.0924    2.2287 C   0  0  0  0  0  0  0  0  0  0  0  0
   -1.4128   -4.0807    0.6572 C   0  0  0  0  0  0  0  0  0  0  0  0
   -7.9410    0.6350    0.2245 C   0  0  0  0  0  0  0  0  0  0  0  0
    3.3050    0.3797    0.9443 H   0  0  0  0  0  0  0  0  0  0  0  0
    5.3769    0.9952    0.0211 H   0  0  0  0  0  0  0  0  0  0  0  0
    4.6192    1.6615    2.3978 H   0  0  0  0  0  0  0  0  0  0  0  0
    2.9847    2.2411    2.6505 H   0  0  0  0  0  0  0  0  0  0  0  0
    1.8176    1.6054   -0.8832 H   0  0  0  0  0  0  0  0  0  0  0  0
    1.9505    3.0131    0.1688 H   0  0  0  0  0  0  0  0  0  0  0  0
    5.8126    3.0030   -1.3044 H   0  0  0  0  0  0  0  0  0  0  0  0
    4.1545    3.5622   -1.1116 H   0  0  0  0  0  0  0  0  0  0  0  0
    3.4280    4.2493    1.2561 H   0  0  0  0  0  0  0  0  0  0  0  0
    4.6238    4.0857    2.5303 H   0  0  0  0  0  0  0  0  0  0  0  0
    5.0211    0.9279   -2.4014 H   0  0  0  0  0  0  0  0  0  0  0  0
    3.3469    1.3792   -2.2539 H   0  0  0  0  0  0  0  0  0  0  0  0
   -3.4986    2.3567   -0.1065 H   0  0  0  0  0  0  0  0  0  0  0  0
   -2.1126    2.7093   -2.1018 H   0  0  0  0  0  0  0  0  0  0  0  0
   -1.3268    1.1445   -1.8732 H   0  0  0  0  0  0  0  0  0  0  0  0
   -2.1306   -0.3698    0.1666 H   0  0  0  0  0  0  0  0  0  0  0  0
   -3.4018    0.2613    1.2184 H   0  0  0  0  0  0  0  0  0  0  0  0
    5.6215    4.5951    0.4362 H   0  0  0  0  0  0  0  0  0  0  0  0
    0.0946    2.9493   -1.0127 H   0  0  0  0  0  0  0  0  0  0  0  0
   -1.1848    3.5338    0.0438 H   0  0  0  0  0  0  0  0  0  0  0  0
   -1.9509    2.0945    1.9824 H   0  0  0  0  0  0  0  0  0  0  0  0
   -1.1697    0.5319    2.2355 H   0  0  0  0  0  0  0  0  0  0  0  0
   -3.6576   -0.2506   -1.7152 H   0  0  0  0  0  0  0  0  0  0  0  0
   -4.0604    1.2848   -2.4399 H   0  0  0  0  0  0  0  0  0  0  0  0
    1.5918   -0.6640   -1.1821 H   0  0  0  0  0  0  0  0  0  0  0  0
    1.5999   -3.9894   -1.9299 H   0  0  0  0  0  0  0  0  0  0  0  0
    2.5616   -4.5071   -0.5605 H   0  0  0  0  0  0  0  0  0  0  0  0
   -5.0670   -1.1693    0.1288 H   0  0  0  0  0  0  0  0  0  0  0  0
   -6.0028    2.5927   -1.7614 H   0  0  0  0  0  0  0  0  0  0  0  0
    1.6769   -4.3377    1.6206 H   0  0  0  0  0  0  0  0  0  0  0  0
    1.9884   -2.5939    1.5154 H   0  0  0  0  0  0  0  0  0  0  0  0
   -0.5977   -4.3618   -1.3065 H   0  0  0  0  0  0  0  0  0  0  0  0
    0.1393   -5.3942   -0.0629 H   0  0  0  0  0  0  0  0  0  0  0  0
   -7.3307   -1.2324    1.1079 H   0  0  0  0  0  0  0  0  0  0  0  0
   -8.2686    2.5109   -0.7825 H   0  0  0  0  0  0  0  0  0  0  0  0
   -0.3866   -2.0950    2.0430 H   0  0  0  0  0  0  0  0  0  0  0  0
    0.3250   -3.1370    3.2819 H   0  0  0  0  0  0  0  0  0  0  0  0
   -2.1810   -4.8536    0.5531 H   0  0  0  0  0  0  0  0  0  0  0  0
   -1.8782   -3.1164    0.4186 H   0  0  0  0  0  0  0  0  0  0  0  0
   -8.9381    0.6021    0.6539 H   0  0  0  0  0  0  0  0  0  0  0  0
  1 20  2  0  0  0  0
  2  6  1  0  0  0  0
  2 25  1  0  0  0  0
  3 33  1  0  0  0  0
  3 34  1  0  0  0  0
  4 18  1  0  0  0  0
  4 19  1  0  0  0  0
  4 20  1  0  0  0  0
  5 12  1  0  0  0  0
  5 13  1  0  0  0  0
  5 53  1  0  0  0  0
  6 22  2  0  0  0  0
  7 26  1  0  0  0  0
  7 29  1  0  0  0  0
  7 30  1  0  0  0  0
  8  9  1  0  0  0  0
  8 10  1  0  0  0  0
  8 11  1  0  0  0  0
  8 36  1  0  0  0  0
  9 12  1  0  0  0  0
  9 14  1  0  0  0  0
  9 37  1  0  0  0  0
 10 13  1  0  0  0  0
 10 38  1  0  0  0  0
 10 39  1  0  0  0  0
 11 20  1  0  0  0  0
 11 40  1  0  0  0  0
 11 41  1  0  0  0  0
 12 42  1  0  0  0  0
 12 43  1  0  0  0  0
 13 44  1  0  0  0  0
 13 45  1  0  0  0  0
 14 22  1  0  0  0  0
 14 46  1  0  0  0  0
 14 47  1  0  0  0  0
 15 16  1  0  0  0  0
 15 17  1  0  0  0  0
 15 21  1  0  0  0  0
 15 48  1  0  0  0  0
 16 18  1  0  0  0  0
 16 49  1  0  0  0  0
 16 50  1  0  0  0  0
 17 19  1  0  0  0  0
 17 51  1  0  0  0  0
 17 52  1  0  0  0  0
 18 54  1  0  0  0  0
 18 55  1  0  0  0  0
 19 56  1  0  0  0  0
 19 57  1  0  0  0  0
 21 23  1  0  0  0  0
 21 58  1  0  0  0  0
 21 59  1  0  0  0  0
 22 24  1  0  0  0  0
 23 27  2  0  0  0  0
 23 28  1  0  0  0  0
 24 25  2  0  0  0  0
 24 60  1  0  0  0  0
 25 26  1  0  0  0  0
 26 61  1  0  0  0  0
 26 62  1  0  0  0  0
 27 31  1  0  0  0  0
 27 63  1  0  0  0  0
 28 32  2  0  0  0  0
 28 64  1  0  0  0  0
 29 33  1  0  0  0  0
 29 65  1  0  0  0  0
 29 66  1  0  0  0  0
 30 34  1  0  0  0  0
 30 67  1  0  0  0  0
 30 68  1  0  0  0  0
 31 35  2  0  0  0  0
 31 69  1  0  0  0  0
 32 35  1  0  0  0  0
 32 70  1  0  0  0  0
 33 71  1  0  0  0  0
 33 72  1  0  0  0  0
 34 73  1  0  0  0  0
 34 74  1  0  0  0  0
 35 75  1  0  0  0  0
M  END
> <PUBCHEM_COMPOUND_CID>
26743352

> <PUBCHEM_CONFORMER_RMSD>
1.6

> <PUBCHEM_CONFORMER_DIVERSEORDER>
1
44
102
74
97
32
60
9
88
86
90
14
21
98
93
83
104
89
15
8
85
30
33
95
28
13
53
54
69
103
99
78
72
43
18
106
101
75
66
22
17
24
49
48
34
76
110
71
37
87
23
3
96
38
68
70
108
62
27
55
31
112
19
7
82
63
50
11
35
84
81
6
20
109
107
47
51
56
52
65
58
79
40
4
67
111
41
26
59
36
100
2
77
16
45
5
105
42
12
80
25
29
64
92
10
61
39
46
91
94
57
73

> <PUBCHEM_MMFF94_PARTIAL_CHARGES>
36
1 -0.57
11 0.06
12 0.27
13 0.27
14 0.18
18 0.3
19 0.3
2 -0.02
20 0.57
21 0.14
22 0.11
23 -0.14
24 -0.15
25 -0.04
26 0.45
27 -0.15
28 -0.15
29 0.27
3 -0.56
30 0.27
31 -0.15
32 -0.15
33 0.28
34 0.28
35 -0.15
4 -0.66
5 -0.9
53 0.36
6 -0.41
60 0.15
63 0.15
64 0.15
69 0.15
7 -0.81
70 0.15
75 0.15

> <PUBCHEM_EFFECTIVE_ROTOR_COUNT>
12.6

> <PUBCHEM_PHARMACOPHORE_FEATURES>
11
1 1 acceptor
1 3 acceptor
1 5 cation
1 5 donor
1 6 acceptor
1 7 cation
5 2 6 22 24 25 rings
6 23 27 28 31 32 35 rings
6 3 7 29 30 33 34 rings
6 4 15 16 17 18 19 rings
6 5 8 9 10 12 13 rings

> <PUBCHEM_HEAVY_ATOM_COUNT>
35

> <PUBCHEM_ATOM_DEF_STEREO_COUNT>
2

> <PUBCHEM_ATOM_UDEF_STEREO_COUNT>
0

> <PUBCHEM_BOND_DEF_STEREO_COUNT>
0

> <PUBCHEM_BOND_UDEF_STEREO_COUNT>
0

> <PUBCHEM_ISOTOPIC_ATOM_COUNT>
0

> <PUBCHEM_COMPONENT_COUNT>
1

> <PUBCHEM_CACTVS_TAUTO_COUNT>
1

> <PUBCHEM_CONFORMER_ID>
0198123800000001

> <PUBCHEM_MMFF94_ENERGY>
61.7395

> <PUBCHEM_FEATURE_SELFOVERLAP>
55.823

> <PUBCHEM_SHAPE_FINGERPRINT>
10675989 125 18340485577879551841
10721379 63 18119519947465904577
11014199 57 17114665112395849551
11093857 5 18041569122081275379
11135609 187 18342458179234153929
11136257 40 17552362494349432243
12156800 1 16768684378860005626
12522641 33 18409727391432140173
12539745 222 11238906031418800008
12597179 24 18340764965834121712
13165054 189 18117005592465701073
13533116 47 17917711292563379709
1361 2 18408046216826088405
13617811 41 18114184134091599749
13773456 73 17603860066564674675
14068700 686 18261670385963193709
14675020 138 18341316843282934536
14725015 67 18263076626726966898
14931854 50 18194982767733375902
15001296 14 17846771915067507661
15183329 4 16487257682045814853
15840311 113 11674873369783229749
15927050 60 18270674389814942463
15968369 26 17899671498281145379
16114785 44 17267486719382741340
16993438 75 17980755262270469470
19026451 147 18047749295677099675
20775438 99 18272074028861204094
21304303 94 18411983533484005450
21344244 181 18412834585432708419
27425 322 17241616189907062916
437795 51 18410582777804542127
4403749 210 17696748136573563152
484989 97 18337126608638405118
513532 50 17386287597675049940
5265222 85 18118970428287044133
5776283 40 18411710876560463678
6669772 16 18341325664808084839
86090 222 18335708221452682947

> <PUBCHEM_SHAPE_MULTIPOLES>
682.75
15.95
5.98
1.92
30.5
6.72
0.44
-12.27
-3.99
-6.23
1.68
-1.56
0.48
3.43

> <PUBCHEM_SHAPE_SELFOVERLAP>
1434.825

> <PUBCHEM_SHAPE_VOLUME>
379.8

> <PUBCHEM_COORDINATE_TYPE>
2
5
10

$$$$
