25338610
  -OEChem-12032416203D

 46 49  0     1  0  0  0  0  0999 V2000
    4.6038   -4.4860    0.8521 F   0  0  0  0  0  0  0  0  0  0  0  0
   -5.2055   -4.3255    0.1770 F   0  0  0  0  0  0  0  0  0  0  0  0
   -2.7341    2.8540   -0.5408 O   0  0  0  0  0  0  0  0  0  0  0  0
    3.8651    1.1747   -1.8271 O   0  0  0  0  0  0  0  0  0  0  0  0
    0.3061    3.1413    1.2174 N   0  0  1  0  0  0  0  0  0  0  0  0
    2.4867    1.4358    0.0193 N   0  0  0  0  0  0  0  0  0  0  0  0
   -1.6460    0.9743    0.0064 N   0  0  0  0  0  0  0  0  0  0  0  0
   -3.6899    1.8304   -0.5624 N   0  0  0  0  0  0  0  0  0  0  0  0
    2.0535    2.7794   -0.2827 C   0  0  1  0  0  0  0  0  0  0  0  0
   -0.3513    3.1722   -0.1032 C   0  0  1  0  0  0  0  0  0  0  0  0
    0.7604    2.7839   -1.0978 C   0  0  0  0  0  0  0  0  0  0  0  0
    1.6964    3.5438    0.9832 C   0  0  0  0  0  0  0  0  0  0  0  0
   -1.5590    2.2646   -0.1975 C   0  0  0  0  0  0  0  0  0  0  0  0
   -0.3479    3.9922    2.2042 C   0  0  0  0  0  0  0  0  0  0  0  0
    3.3688    0.7385   -0.7918 C   0  0  0  0  0  0  0  0  0  0  0  0
   -2.9718    0.7537   -0.2292 C   0  0  0  0  0  0  0  0  0  0  0  0
    3.6951   -0.6440   -0.3568 C   0  0  0  0  0  0  0  0  0  0  0  0
   -3.5477   -0.5558   -0.1245 C   0  0  0  0  0  0  0  0  0  0  0  0
    4.0738   -1.6003   -1.2991 C   0  0  0  0  0  0  0  0  0  0  0  0
    3.6234   -0.9857    0.9936 C   0  0  0  0  0  0  0  0  0  0  0  0
   -2.7478   -1.6436    0.2260 C   0  0  0  0  0  0  0  0  0  0  0  0
   -4.9077   -0.7415   -0.3728 C   0  0  0  0  0  0  0  0  0  0  0  0
    4.3804   -2.8982   -0.8911 C   0  0  0  0  0  0  0  0  0  0  0  0
    3.9300   -2.2837    1.4018 C   0  0  0  0  0  0  0  0  0  0  0  0
    4.3085   -3.2400    0.4595 C   0  0  0  0  0  0  0  0  0  0  0  0
   -3.3078   -2.9169    0.3278 C   0  0  0  0  0  0  0  0  0  0  0  0
   -5.4677   -2.0149   -0.2710 C   0  0  0  0  0  0  0  0  0  0  0  0
   -4.6678   -3.1026    0.0793 C   0  0  0  0  0  0  0  0  0  0  0  0
    2.8561    3.2858   -0.8307 H   0  0  0  0  0  0  0  0  0  0  0  0
   -0.6643    4.1989   -0.3425 H   0  0  0  0  0  0  0  0  0  0  0  0
    0.5829    1.8235   -1.5958 H   0  0  0  0  0  0  0  0  0  0  0  0
    0.8228    3.5526   -1.8784 H   0  0  0  0  0  0  0  0  0  0  0  0
    1.7685    4.6235    0.7978 H   0  0  0  0  0  0  0  0  0  0  0  0
    2.3426    3.2871    1.8294 H   0  0  0  0  0  0  0  0  0  0  0  0
    2.0324    0.9723    0.7993 H   0  0  0  0  0  0  0  0  0  0  0  0
   -1.3754    3.6582    2.3835 H   0  0  0  0  0  0  0  0  0  0  0  0
   -0.3771    5.0432    1.8951 H   0  0  0  0  0  0  0  0  0  0  0  0
    0.1761    3.9321    3.1644 H   0  0  0  0  0  0  0  0  0  0  0  0
    4.1314   -1.3548   -2.3562 H   0  0  0  0  0  0  0  0  0  0  0  0
    3.3629   -0.2642    1.7624 H   0  0  0  0  0  0  0  0  0  0  0  0
   -1.6850   -1.5314    0.4256 H   0  0  0  0  0  0  0  0  0  0  0  0
   -5.5622    0.0817   -0.6479 H   0  0  0  0  0  0  0  0  0  0  0  0
    4.6744   -3.6434   -1.6243 H   0  0  0  0  0  0  0  0  0  0  0  0
    3.8810   -2.5489    2.4538 H   0  0  0  0  0  0  0  0  0  0  0  0
   -2.6856   -3.7643    0.6005 H   0  0  0  0  0  0  0  0  0  0  0  0
   -6.5265   -2.1604   -0.4642 H   0  0  0  0  0  0  0  0  0  0  0  0
  1 25  1  0  0  0  0
  2 28  1  0  0  0  0
  3  8  1  0  0  0  0
  3 13  1  0  0  0  0
  4 15  2  0  0  0  0
  5 10  1  0  0  0  0
  5 12  1  0  0  0  0
  5 14  1  0  0  0  0
  6  9  1  0  0  0  0
  6 15  1  0  0  0  0
  6 35  1  0  0  0  0
  7 13  2  0  0  0  0
  7 16  1  0  0  0  0
  8 16  2  0  0  0  0
  9 11  1  0  0  0  0
  9 12  1  0  0  0  0
  9 29  1  0  0  0  0
 10 11  1  0  0  0  0
 10 13  1  0  0  0  0
 10 30  1  0  0  0  0
 11 31  1  0  0  0  0
 11 32  1  0  0  0  0
 12 33  1  0  0  0  0
 12 34  1  0  0  0  0
 14 36  1  0  0  0  0
 14 37  1  0  0  0  0
 14 38  1  0  0  0  0
 15 17  1  0  0  0  0
 16 18  1  0  0  0  0
 17 19  2  0  0  0  0
 17 20  1  0  0  0  0
 18 21  2  0  0  0  0
 18 22  1  0  0  0  0
 19 23  1  0  0  0  0
 19 39  1  0  0  0  0
 20 24  2  0  0  0  0
 20 40  1  0  0  0  0
 21 26  1  0  0  0  0
 21 41  1  0  0  0  0
 22 27  2  0  0  0  0
 22 42  1  0  0  0  0
 23 25  2  0  0  0  0
 23 43  1  0  0  0  0
 24 25  1  0  0  0  0
 24 44  1  0  0  0  0
 26 28  2  0  0  0  0
 26 45  1  0  0  0  0
 27 28  1  0  0  0  0
 27 46  1  0  0  0  0
M  END
> <PUBCHEM_COMPOUND_CID>
25338610

> <PUBCHEM_CONFORMER_RMSD>
0.8

> <PUBCHEM_CONFORMER_DIVERSEORDER>
1
27
26
10
38
12
25
17
32
30
31
4
22
37
33
5
21
9
24
36
28
34
18
11
15
8
23
7
29
2
19
6
16
3
20
35
14
13

> <PUBCHEM_MMFF94_PARTIAL_CHARGES>
36
1 -0.19
10 0.45
12 0.27
13 0.3
14 0.27
15 0.54
16 0.46
17 0.09
18 0.05
19 -0.15
2 -0.19
20 -0.15
21 -0.15
22 -0.15
23 -0.15
24 -0.15
25 0.19
26 -0.15
27 -0.15
28 0.19
3 -0.02
35 0.37
39 0.15
4 -0.57
40 0.15
41 0.15
42 0.15
43 0.15
44 0.15
45 0.15
46 0.15
5 -0.81
6 -0.73
7 -0.57
8 -0.41
9 0.3

> <PUBCHEM_EFFECTIVE_ROTOR_COUNT>
6

> <PUBCHEM_PHARMACOPHORE_FEATURES>
8
1 4 acceptor
1 5 cation
1 6 donor
3 7 8 16 cation
5 3 7 8 13 16 rings
5 5 9 10 11 12 rings
6 17 19 20 23 24 25 rings
6 18 21 22 26 27 28 rings

> <PUBCHEM_HEAVY_ATOM_COUNT>
28

> <PUBCHEM_ATOM_DEF_STEREO_COUNT>
2

> <PUBCHEM_ATOM_UDEF_STEREO_COUNT>
0

> <PUBCHEM_BOND_DEF_STEREO_COUNT>
0

> <PUBCHEM_BOND_UDEF_STEREO_COUNT>
0

> <PUBCHEM_ISOTOPIC_ATOM_COUNT>
0

> <PUBCHEM_COMPONENT_COUNT>
1

> <PUBCHEM_CACTVS_TAUTO_COUNT>
2

> <PUBCHEM_CONFORMER_ID>
0182A2F200000001

> <PUBCHEM_MMFF94_ENERGY>
59.1878

> <PUBCHEM_FEATURE_SELFOVERLAP>
40.597

> <PUBCHEM_SHAPE_FINGERPRINT>
10622 236 17824818932721888306
10838868 229 18191035697933268891
10928967 22 18264789708413095234
11285246 1 17968101884583391219
11374522 301 17465693437901075874
114674 6 17908143531266993008
12147406 95 18120627349054370595
12969540 37 18337387244639426556
12990986 174 18337386016346870746
13533116 47 17840877588187380851
1361 2 17618503620185535467
13631057 29 18411992360338274148
14289585 56 14581981442732745944
14508693 111 18187921730167160378
14863182 85 17832425671647621860
14866123 147 18196937669849159625
15003188 105 18261672696518117134
15320294 125 17393881761200668114
15776043 110 18054259702410620907
17492 89 18409448093924759742
17909252 39 18338517563681832680
19319366 153 18121503720246396780
20028762 73 16825870171873441499
20775530 9 18413111670878541348
21049683 118 15474238835140667736
21315759 227 18335125531782031790
21458453 9 17698680914658087418
21703447 108 17914333726340376825
23379529 103 18195534688442694238
23559900 14 18336256959850140373
23572383 38 18268975523610239934
25222932 49 18200030793124949180
3146121 3 18261952935504914218
325973 47 18408324375782740915
3383291 50 18123466073671652585
345986 75 17703522098493318537
4017518 198 16751556865189648462
437795 163 18334860524644000230
4394409 98 17393861991381055565
44062 13 18262799541117149117
4435113 14 16766487202557014798
4461854 278 16895124002216276339
463206 1 18264489477413942600
4756261 7 17973410435140754112
50009960 94 18045472421786467875
50080093 196 17621576729273207278
5309563 4 18268435817993476887
556388 4 18336829796200916540
56633871 153 18196097651127718411
613672 6 18199734882673420396
6433294 58 18267022949657029586
7970288 3 18265049129038890670
86090 222 17688038921220760507
88748 71 18407762521313978861
9831232 110 17901103346379552975

> <PUBCHEM_SHAPE_MULTIPOLES>
530.02
12.17
6.74
1.3
5.12
0.44
0.27
16.86
-1.21
-0.86
2.14
-1.35
-0.71
-0.39

> <PUBCHEM_SHAPE_SELFOVERLAP>
1156.765

> <PUBCHEM_SHAPE_VOLUME>
290.5

> <PUBCHEM_COORDINATE_TYPE>
2
5
10

$$$$
