38030234
  -OEChem-12032416373D

 64 66  0     1  0  0  0  0  0999 V2000
    2.8766   -0.1029   -0.8995 O   0  0  0  0  0  0  0  0  0  0  0  0
   -7.3381   -1.9910   -0.1071 O   0  0  0  0  0  0  0  0  0  0  0  0
   -3.2975    0.2391    0.2514 N   0  0  0  0  0  0  0  0  0  0  0  0
    3.9780    1.6849   -0.1282 N   0  0  0  0  0  0  0  0  0  0  0  0
    4.6262    0.5532    0.3304 N   0  0  0  0  0  0  0  0  0  0  0  0
   -5.2210   -2.9465    0.0648 N   0  0  0  0  0  0  0  0  0  0  0  0
   -0.9904    1.8482    0.9819 C   0  0  1  0  0  0  0  0  0  0  0  0
   -2.0700    2.3289   -0.0156 C   0  0  1  0  0  0  0  0  0  0  0  0
    0.2978    1.4680    0.2386 C   0  0  0  0  0  0  0  0  0  0  0  0
    0.8685    2.6154   -0.6221 C   0  0  2  0  0  0  0  0  0  0  0  0
   -0.7169    2.9038    2.0619 C   0  0  0  0  0  0  0  0  0  0  0  0
   -0.2091    3.4160   -1.3374 C   0  0  0  0  0  0  0  0  0  0  0  0
   -1.5174    3.2649   -1.0601 C   0  0  0  0  0  0  0  0  0  0  0  0
   -2.7632    1.1521   -0.7099 C   0  0  0  0  0  0  0  0  0  0  0  0
    1.9150    2.0340   -1.5812 C   0  0  0  0  0  0  0  0  0  0  0  0
    0.3078    2.3849    3.0655 C   0  0  0  0  0  0  0  0  0  0  0  0
   -2.0132    3.2939    2.7650 C   0  0  0  0  0  0  0  0  0  0  0  0
    0.2392    4.4431   -2.3407 C   0  0  0  0  0  0  0  0  0  0  0  0
    2.9639    1.2541   -0.8414 C   0  0  0  0  0  0  0  0  0  0  0  0
   -3.9568   -0.9058   -0.3854 C   0  0  0  0  0  0  0  0  0  0  0  0
   -4.5451   -1.8311    0.6694 C   0  0  0  0  0  0  0  0  0  0  0  0
    3.9488   -0.4660   -0.1439 C   0  0  0  0  0  0  0  0  0  0  0  0
    4.1606   -1.8764    0.0080 C   0  0  0  0  0  0  0  0  0  0  0  0
   -6.5675   -2.9327   -0.2744 C   0  0  0  0  0  0  0  0  0  0  0  0
    3.1125   -2.7676   -0.2221 C   0  0  0  0  0  0  0  0  0  0  0  0
    5.4144   -2.3570    0.3856 C   0  0  0  0  0  0  0  0  0  0  0  0
   -7.0136   -4.2199   -0.9146 C   0  0  0  0  0  0  0  0  0  0  0  0
    3.3182   -4.1394   -0.0747 C   0  0  0  0  0  0  0  0  0  0  0  0
    5.6202   -3.7287    0.5329 C   0  0  0  0  0  0  0  0  0  0  0  0
    4.5720   -4.6198    0.3028 C   0  0  0  0  0  0  0  0  0  0  0  0
   -1.3337    0.9482    1.5073 H   0  0  0  0  0  0  0  0  0  0  0  0
   -2.8668    2.8715    0.4996 H   0  0  0  0  0  0  0  0  0  0  0  0
    0.0653    0.6136   -0.4130 H   0  0  0  0  0  0  0  0  0  0  0  0
    1.0478    1.0858    0.9376 H   0  0  0  0  0  0  0  0  0  0  0  0
    1.3833    3.3140    0.0530 H   0  0  0  0  0  0  0  0  0  0  0  0
   -0.3062    3.8200    1.6209 H   0  0  0  0  0  0  0  0  0  0  0  0
   -2.2498    3.8619   -1.5993 H   0  0  0  0  0  0  0  0  0  0  0  0
   -2.0538    0.6367   -1.3702 H   0  0  0  0  0  0  0  0  0  0  0  0
   -3.5652    1.5379   -1.3540 H   0  0  0  0  0  0  0  0  0  0  0  0
    2.4276    2.8346   -2.1274 H   0  0  0  0  0  0  0  0  0  0  0  0
    1.4388    1.3908   -2.3321 H   0  0  0  0  0  0  0  0  0  0  0  0
    0.0311    1.3991    3.4541 H   0  0  0  0  0  0  0  0  0  0  0  0
    0.3888    3.0647    3.9215 H   0  0  0  0  0  0  0  0  0  0  0  0
    1.3113    2.3219    2.6345 H   0  0  0  0  0  0  0  0  0  0  0  0
   -2.6198    2.4182    3.0198 H   0  0  0  0  0  0  0  0  0  0  0  0
   -2.6172    3.9841    2.1687 H   0  0  0  0  0  0  0  0  0  0  0  0
   -1.8004    3.8254    3.7000 H   0  0  0  0  0  0  0  0  0  0  0  0
    1.0055    5.0916   -1.9037 H   0  0  0  0  0  0  0  0  0  0  0  0
   -0.5842    5.0872   -2.6680 H   0  0  0  0  0  0  0  0  0  0  0  0
    0.6514    3.9600   -3.2319 H   0  0  0  0  0  0  0  0  0  0  0  0
   -3.9580    0.7163    0.8643 H   0  0  0  0  0  0  0  0  0  0  0  0
   -3.2360   -1.4624   -0.9971 H   0  0  0  0  0  0  0  0  0  0  0  0
   -4.7545   -0.5570   -1.0534 H   0  0  0  0  0  0  0  0  0  0  0  0
   -5.2555   -1.2908    1.3059 H   0  0  0  0  0  0  0  0  0  0  0  0
   -3.7560   -2.2382    1.3113 H   0  0  0  0  0  0  0  0  0  0  0  0
   -4.6720   -3.7777   -0.1355 H   0  0  0  0  0  0  0  0  0  0  0  0
    2.1214   -2.4255   -0.5098 H   0  0  0  0  0  0  0  0  0  0  0  0
    6.2453   -1.6798    0.5682 H   0  0  0  0  0  0  0  0  0  0  0  0
   -6.6451   -5.0771   -0.3438 H   0  0  0  0  0  0  0  0  0  0  0  0
   -8.1060   -4.2598   -0.9382 H   0  0  0  0  0  0  0  0  0  0  0  0
   -6.6283   -4.2699   -1.9367 H   0  0  0  0  0  0  0  0  0  0  0  0
    2.5019   -4.8335   -0.2520 H   0  0  0  0  0  0  0  0  0  0  0  0
    6.5965   -4.1032    0.8264 H   0  0  0  0  0  0  0  0  0  0  0  0
    4.7322   -5.6878    0.4178 H   0  0  0  0  0  0  0  0  0  0  0  0
  1 19  1  0  0  0  0
  1 22  1  0  0  0  0
  2 24  2  0  0  0  0
  3 14  1  0  0  0  0
  3 20  1  0  0  0  0
  3 51  1  0  0  0  0
  4  5  1  0  0  0  0
  4 19  2  0  0  0  0
  5 22  2  0  0  0  0
  6 21  1  0  0  0  0
  6 24  1  0  0  0  0
  6 56  1  0  0  0  0
  7  8  1  0  0  0  0
  7  9  1  0  0  0  0
  7 11  1  0  0  0  0
  7 31  1  0  0  0  0
  8 13  1  0  0  0  0
  8 14  1  0  0  0  0
  8 32  1  0  0  0  0
  9 10  1  0  0  0  0
  9 33  1  0  0  0  0
  9 34  1  0  0  0  0
 10 12  1  0  0  0  0
 10 15  1  0  0  0  0
 10 35  1  0  0  0  0
 11 16  1  0  0  0  0
 11 17  1  0  0  0  0
 11 36  1  0  0  0  0
 12 13  2  0  0  0  0
 12 18  1  0  0  0  0
 13 37  1  0  0  0  0
 14 38  1  0  0  0  0
 14 39  1  0  0  0  0
 15 19  1  0  0  0  0
 15 40  1  0  0  0  0
 15 41  1  0  0  0  0
 16 42  1  0  0  0  0
 16 43  1  0  0  0  0
 16 44  1  0  0  0  0
 17 45  1  0  0  0  0
 17 46  1  0  0  0  0
 17 47  1  0  0  0  0
 18 48  1  0  0  0  0
 18 49  1  0  0  0  0
 18 50  1  0  0  0  0
 20 21  1  0  0  0  0
 20 52  1  0  0  0  0
 20 53  1  0  0  0  0
 21 54  1  0  0  0  0
 21 55  1  0  0  0  0
 22 23  1  0  0  0  0
 23 25  2  0  0  0  0
 23 26  1  0  0  0  0
 24 27  1  0  0  0  0
 25 28  1  0  0  0  0
 25 57  1  0  0  0  0
 26 29  2  0  0  0  0
 26 58  1  0  0  0  0
 27 59  1  0  0  0  0
 27 60  1  0  0  0  0
 27 61  1  0  0  0  0
 28 30  2  0  0  0  0
 28 62  1  0  0  0  0
 29 30  1  0  0  0  0
 29 63  1  0  0  0  0
 30 64  1  0  0  0  0
M  END
> <PUBCHEM_COMPOUND_CID>
38030234

> <PUBCHEM_CONFORMER_RMSD>
1

> <PUBCHEM_CONFORMER_DIVERSEORDER>
68
154
141
53
195
181
56
127
142
112
217
37
122
160
199
116
198
175
165
90
95
115
153
9
85
224
227
162
190
131
39
126
170
109
203
206
212
167
182
200
66
157
94
185
147
38
197
123
1
129
143
100
210
232
164
48
97
119
158
215
111
118
187
138
104
209
186
114
67
87
28
83
140
192
136
93
69
91
108
221
166
231
13
178
58
159
233
113
214
96
169
103
134
107
10
62
152
132
213
110
155
98
191
106
207
188
42
148
229
173
156
177
71
125
16
151
40
168
222
81
226
29
78
51
130
223
137
183
211
46
75
133
36
82
55
101
12
216
179
146
196
89
31
176
105
139
76
57
99
204
92
49
201
225
117
21
202
135
74
79
180
34
128
64
43
220
219
70
72
144
60
208
230
3
145
65
26
27
163
25
121
23
171
193
174
4
149
47
41
161
88
124
77
45
5
84
20
205
52
44
22
80
102
33
17
228
194
120
19
7
150
54
63
18
172
32
35
50
61
86
15
189
59
184
14
8
6
218
11
24
30
73
2

> <PUBCHEM_MMFF94_PARTIAL_CHARGES>
33
1 -0.28
10 0.14
12 -0.28
13 -0.29
14 0.27
15 0.18
18 0.14
19 0.3
2 -0.57
20 0.27
21 0.3
22 0.43
23 0.05
24 0.57
25 -0.15
26 -0.15
27 0.06
28 -0.15
29 -0.15
3 -0.9
30 -0.15
37 0.15
4 -0.34
5 -0.34
51 0.36
56 0.37
57 0.15
58 0.15
6 -0.73
62 0.15
63 0.15
64 0.15
8 0.14

> <PUBCHEM_EFFECTIVE_ROTOR_COUNT>
10.8

> <PUBCHEM_PHARMACOPHORE_FEATURES>
8
1 2 acceptor
1 3 cation
1 3 donor
1 6 donor
3 11 16 17 hydrophobe
5 1 4 5 19 22 rings
6 23 25 26 28 29 30 rings
6 7 8 9 10 12 13 rings

> <PUBCHEM_HEAVY_ATOM_COUNT>
30

> <PUBCHEM_ATOM_DEF_STEREO_COUNT>
3

> <PUBCHEM_ATOM_UDEF_STEREO_COUNT>
0

> <PUBCHEM_BOND_DEF_STEREO_COUNT>
0

> <PUBCHEM_BOND_UDEF_STEREO_COUNT>
0

> <PUBCHEM_ISOTOPIC_ATOM_COUNT>
0

> <PUBCHEM_COMPONENT_COUNT>
1

> <PUBCHEM_CACTVS_TAUTO_COUNT>
2

> <PUBCHEM_CONFORMER_ID>
02444B9A00000044

> <PUBCHEM_MMFF94_ENERGY>
48.6328

> <PUBCHEM_FEATURE_SELFOVERLAP>
40.596

> <PUBCHEM_SHAPE_FINGERPRINT>
10622 236 18410576193292460919
107951 10 15654956787033307516
10928967 22 17686358477181499058
12202916 173 17823688866733139872
131258 38 17912356829723197023
13631057 29 18341058479799536636
13911852 28 18408885166057864439
15361156 5 17316787377895451196
15475509 35 18128535062645779185
17492 89 18337107874159455750
18738133 556 18199181983181888195
19315092 285 18131072657920067728
19319366 153 17908708675938114557
20775530 9 18412263908943618678
21133410 171 17244661707819150291
21133410 58 18116986887936433295
21585483 132 17626933516239429239
23523788 1 18052223427559499594
23559900 14 17973434405222168884
3383291 50 17614554839705913524
345986 75 17988371450572270705
44344687 77 17895769486613410203
56633871 153 18263937540142121177
7970288 3 18408602591211037631
9831232 110 18119804970898549871
9981440 41 15263668155049104144

> <PUBCHEM_SHAPE_MULTIPOLES>
585.72
14.63
7.74
1.92
12.74
4.28
1.3
29.94
-0.86
2.46
-1.05
0.75
-3.35
-2.57

> <PUBCHEM_SHAPE_SELFOVERLAP>
1215.979

> <PUBCHEM_SHAPE_VOLUME>
332.9

> <PUBCHEM_COORDINATE_TYPE>
2
5
10

$$$$
