7143045
  -OEChem-12032416223D

 66 70  0     1  0  0  0  0  0999 V2000
   -0.9085    2.7709   -1.5973 O   0  0  0  0  0  0  0  0  0  0  0  0
    3.5213   -0.1613   -2.2739 O   0  0  0  0  0  0  0  0  0  0  0  0
    3.1184   -2.2833   -0.9605 O   0  0  0  0  0  0  0  0  0  0  0  0
   -2.7802   -0.3345    1.6104 O   0  0  0  0  0  0  0  0  0  0  0  0
    3.7398    1.2534   -0.4437 N   0  0  0  0  0  0  0  0  0  0  0  0
    0.9352    2.7627   -0.1616 N   0  0  0  0  0  0  0  0  0  0  0  0
   -2.5337    1.5300    0.2384 N   0  0  0  0  0  0  0  0  0  0  0  0
   -4.5404    0.4100    0.2950 N   0  0  0  0  0  0  0  0  0  0  0  0
    3.2301    3.6651   -0.8491 C   0  0  1  0  0  0  0  0  0  0  0  0
    2.9154    2.7125    1.3958 C   0  0  2  0  0  0  0  0  0  0  0  0
    3.4116    3.9421    0.6382 C   0  0  0  0  0  0  0  0  0  0  0  0
    4.0384    2.4252   -1.2694 C   0  0  0  0  0  0  0  0  0  0  0  0
    1.7341    3.5056   -1.1453 C   0  0  0  0  0  0  0  0  0  0  0  0
    3.7668    1.4878    1.0078 C   0  0  0  0  0  0  0  0  0  0  0  0
    1.4534    2.4388    1.0963 C   0  0  0  0  0  0  0  0  0  0  0  0
    0.6688    1.8627    2.0225 C   0  0  0  0  0  0  0  0  0  0  0  0
   -0.4030    2.4889   -0.5099 C   0  0  0  0  0  0  0  0  0  0  0  0
    3.5405    0.0144   -1.0529 C   0  0  0  0  0  0  0  0  0  0  0  0
   -1.2368    1.8240    0.5411 C   0  0  0  0  0  0  0  0  0  0  0  0
   -0.7025    1.5491    1.7357 C   0  0  0  0  0  0  0  0  0  0  0  0
   -5.4954   -0.5984    0.6976 C   0  0  0  0  0  0  0  0  0  0  0  0
   -5.3850   -1.8457   -0.1859 C   0  0  0  0  0  0  0  0  0  0  0  0
   -6.9221   -0.0390    0.6928 C   0  0  0  0  0  0  0  0  0  0  0  0
   -5.9203   -1.6112   -1.5985 C   0  0  0  0  0  0  0  0  0  0  0  0
   -7.4549    0.1925   -0.7211 C   0  0  0  0  0  0  0  0  0  0  0  0
    3.3315   -1.1637   -0.1355 C   0  0  0  0  0  0  0  0  0  0  0  0
   -7.3448   -1.0654   -1.5774 C   0  0  0  0  0  0  0  0  0  0  0  0
   -3.2388    0.4614    0.7914 C   0  0  0  0  0  0  0  0  0  0  0  0
    2.8490   -3.4833   -0.3410 C   0  0  0  0  0  0  0  0  0  0  0  0
    2.7964   -3.5535    1.0512 C   0  0  0  0  0  0  0  0  0  0  0  0
    2.6293   -4.6291   -1.1057 C   0  0  0  0  0  0  0  0  0  0  0  0
    2.5244   -4.7692    1.6786 C   0  0  0  0  0  0  0  0  0  0  0  0
    2.3572   -5.8447   -0.4783 C   0  0  0  0  0  0  0  0  0  0  0  0
    2.3047   -5.9148    0.9139 C   0  0  0  0  0  0  0  0  0  0  0  0
    3.6058    4.5167   -1.4299 H   0  0  0  0  0  0  0  0  0  0  0  0
    3.0448    2.8976    2.4702 H   0  0  0  0  0  0  0  0  0  0  0  0
    4.4671    4.1338    0.8665 H   0  0  0  0  0  0  0  0  0  0  0  0
    2.8504    4.8365    0.9366 H   0  0  0  0  0  0  0  0  0  0  0  0
    5.1107    2.6252   -1.1521 H   0  0  0  0  0  0  0  0  0  0  0  0
    3.8698    2.2057   -2.3290 H   0  0  0  0  0  0  0  0  0  0  0  0
    1.5837    3.0516   -2.1328 H   0  0  0  0  0  0  0  0  0  0  0  0
    1.2794    4.5043   -1.2005 H   0  0  0  0  0  0  0  0  0  0  0  0
    3.4397    0.6094    1.5684 H   0  0  0  0  0  0  0  0  0  0  0  0
    4.8161    1.6603    1.2782 H   0  0  0  0  0  0  0  0  0  0  0  0
    1.0498    1.5953    3.0026 H   0  0  0  0  0  0  0  0  0  0  0  0
   -1.2563    1.1218    2.5629 H   0  0  0  0  0  0  0  0  0  0  0  0
   -5.2473   -0.8880    1.7263 H   0  0  0  0  0  0  0  0  0  0  0  0
   -5.9577   -2.6601    0.2760 H   0  0  0  0  0  0  0  0  0  0  0  0
   -4.3440   -2.1854   -0.2446 H   0  0  0  0  0  0  0  0  0  0  0  0
   -6.9641    0.9014    1.2553 H   0  0  0  0  0  0  0  0  0  0  0  0
   -7.5843   -0.7471    1.2072 H   0  0  0  0  0  0  0  0  0  0  0  0
   -5.8963   -2.5521   -2.1600 H   0  0  0  0  0  0  0  0  0  0  0  0
   -5.2668   -0.9086   -2.1299 H   0  0  0  0  0  0  0  0  0  0  0  0
   -6.9070    1.0121   -1.2006 H   0  0  0  0  0  0  0  0  0  0  0  0
   -8.5037    0.5067   -0.6678 H   0  0  0  0  0  0  0  0  0  0  0  0
   -8.0228   -1.8333   -1.1848 H   0  0  0  0  0  0  0  0  0  0  0  0
   -7.6709   -0.8452   -2.6001 H   0  0  0  0  0  0  0  0  0  0  0  0
    2.4381   -0.9580    0.4654 H   0  0  0  0  0  0  0  0  0  0  0  0
    4.2334   -1.2889    0.4741 H   0  0  0  0  0  0  0  0  0  0  0  0
   -2.9200    1.9556   -0.6000 H   0  0  0  0  0  0  0  0  0  0  0  0
   -4.8016    1.0721   -0.4289 H   0  0  0  0  0  0  0  0  0  0  0  0
    2.9611   -2.7019    1.7028 H   0  0  0  0  0  0  0  0  0  0  0  0
    2.6690   -4.5803   -2.1904 H   0  0  0  0  0  0  0  0  0  0  0  0
    2.4842   -4.8251    2.7626 H   0  0  0  0  0  0  0  0  0  0  0  0
    2.1861   -6.7369   -1.0736 H   0  0  0  0  0  0  0  0  0  0  0  0
    2.0930   -6.8614    1.4024 H   0  0  0  0  0  0  0  0  0  0  0  0
  1 17  2  0  0  0  0
  2 18  2  0  0  0  0
  3 26  1  0  0  0  0
  3 29  1  0  0  0  0
  4 28  2  0  0  0  0
  5 12  1  0  0  0  0
  5 14  1  0  0  0  0
  5 18  1  0  0  0  0
  6 13  1  0  0  0  0
  6 15  1  0  0  0  0
  6 17  1  0  0  0  0
  7 19  1  0  0  0  0
  7 28  1  0  0  0  0
  7 60  1  0  0  0  0
  8 21  1  0  0  0  0
  8 28  1  0  0  0  0
  8 61  1  0  0  0  0
  9 11  1  0  0  0  0
  9 12  1  0  0  0  0
  9 13  1  0  0  0  0
  9 35  1  0  0  0  0
 10 11  1  0  0  0  0
 10 14  1  0  0  0  0
 10 15  1  0  0  0  0
 10 36  1  0  0  0  0
 11 37  1  0  0  0  0
 11 38  1  0  0  0  0
 12 39  1  0  0  0  0
 12 40  1  0  0  0  0
 13 41  1  0  0  0  0
 13 42  1  0  0  0  0
 14 43  1  0  0  0  0
 14 44  1  0  0  0  0
 15 16  2  0  0  0  0
 16 20  1  0  0  0  0
 16 45  1  0  0  0  0
 17 19  1  0  0  0  0
 18 26  1  0  0  0  0
 19 20  2  0  0  0  0
 20 46  1  0  0  0  0
 21 22  1  0  0  0  0
 21 23  1  0  0  0  0
 21 47  1  0  0  0  0
 22 24  1  0  0  0  0
 22 48  1  0  0  0  0
 22 49  1  0  0  0  0
 23 25  1  0  0  0  0
 23 50  1  0  0  0  0
 23 51  1  0  0  0  0
 24 27  1  0  0  0  0
 24 52  1  0  0  0  0
 24 53  1  0  0  0  0
 25 27  1  0  0  0  0
 25 54  1  0  0  0  0
 25 55  1  0  0  0  0
 26 58  1  0  0  0  0
 26 59  1  0  0  0  0
 27 56  1  0  0  0  0
 27 57  1  0  0  0  0
 29 30  2  0  0  0  0
 29 31  1  0  0  0  0
 30 32  1  0  0  0  0
 30 62  1  0  0  0  0
 31 33  2  0  0  0  0
 31 63  1  0  0  0  0
 32 34  2  0  0  0  0
 32 64  1  0  0  0  0
 33 34  1  0  0  0  0
 33 65  1  0  0  0  0
 34 66  1  0  0  0  0
M  END
> <PUBCHEM_COMPOUND_CID>
7143045

> <PUBCHEM_CONFORMER_RMSD>
1

> <PUBCHEM_CONFORMER_DIVERSEORDER>
1
94
82
130
65
116
60
118
93
71
104
133
76
36
112
23
67
14
146
78
113
87
138
51
19
122
34
123
103
106
111
139
117
129
144
13
80
141
105
109
136
83
89
44
68
9
31
128
137
45
53
91
72
115
124
25
33
99
59
96
86
56
131
148
108
90
84
100
7
97
101
16
22
140
70
8
69
30
125
64
127
98
17
39
114
29
43
26
54
120
102
40
46
75
147
42
50
81
10
61
79
37
57
32
142
49
18
121
66
145
110
73
55
47
119
4
126
135
134
143
38
74
28
15
2
48
11
41
27
12
52
77
3
35
88
24
62
85
21
63
58
92
132
107
6
20
95
5

> <PUBCHEM_MMFF94_PARTIAL_CHARGES>
36
1 -0.57
10 0.14
12 0.3
13 0.3
14 0.3
15 -0.03
16 -0.15
17 0.62
18 0.57
19 0.12
2 -0.57
20 -0.15
21 0.3
26 0.34
28 0.69
29 0.08
3 -0.36
30 -0.15
31 -0.15
32 -0.15
33 -0.15
34 -0.15
4 -0.57
45 0.15
46 0.15
5 -0.66
6 -0.47
60 0.37
61 0.37
62 0.15
63 0.15
64 0.15
65 0.15
66 0.15
7 -0.54
8 -0.73

> <PUBCHEM_EFFECTIVE_ROTOR_COUNT>
10.2

> <PUBCHEM_PHARMACOPHORE_FEATURES>
11
1 1 acceptor
1 2 acceptor
1 3 acceptor
1 4 acceptor
1 7 donor
1 8 donor
6 21 22 23 24 25 27 rings
6 29 30 31 32 33 34 rings
6 5 9 10 11 12 14 rings
6 6 15 16 17 19 20 rings
6 6 9 10 11 13 15 rings

> <PUBCHEM_HEAVY_ATOM_COUNT>
34

> <PUBCHEM_ATOM_DEF_STEREO_COUNT>
2

> <PUBCHEM_ATOM_UDEF_STEREO_COUNT>
0

> <PUBCHEM_BOND_DEF_STEREO_COUNT>
0

> <PUBCHEM_BOND_UDEF_STEREO_COUNT>
0

> <PUBCHEM_ISOTOPIC_ATOM_COUNT>
0

> <PUBCHEM_COMPONENT_COUNT>
1

> <PUBCHEM_CACTVS_TAUTO_COUNT>
3

> <PUBCHEM_CONFORMER_ID>
006CFE8500000001

> <PUBCHEM_MMFF94_ENERGY>
83.2456

> <PUBCHEM_FEATURE_SELFOVERLAP>
57.453

> <PUBCHEM_SHAPE_FINGERPRINT>
10079526 769 18343301427775640803
10622 236 18198062469943505755
10675989 125 18341053024642672161
11014199 57 17690004436137923050
11093857 51 18043271191412649838
11135609 149 18191565498557692701
12147406 95 18115571652634097683
12202916 173 18113612396476192242
1361 2 18338238279312574145
14659021 117 17109308301067566354
14675020 138 18199456830902001528
15183329 4 17895466055642542581
15419008 42 18042384925243468349
15484559 13 18269844262714348806
15968369 26 18261381291371660915
16993438 75 17473548426800712914
18365409 1 17689443002281389148
19315092 285 18131350769715949864
19319366 153 18271238442978249214
20775438 99 18336256916700644267
20775530 9 17975715904069482898
21133410 171 17390766896246357834
21133410 52 18340480081287459278
21360442 67 18122063362848126435
23569914 152 17615657689630431613
25222932 49 18271808965354769430
3103668 31 17184766125923848198
3882209 13 18044923576821995410
54728670 133 15969590324313266544
5951187 136 15213314048595866822
86090 222 18196112129357257546
9831232 110 18408322207888736447

> <PUBCHEM_SHAPE_MULTIPOLES>
656.3
14.66
8.23
1.81
40.8
13.65
-0.01
3.88
-4.32
-15.36
0.48
-0.34
-0.13
-1.2

> <PUBCHEM_SHAPE_SELFOVERLAP>
1410.558

> <PUBCHEM_SHAPE_VOLUME>
351.8

> <PUBCHEM_COORDINATE_TYPE>
2
5
10

$$$$
