71694384
  -OEChem-12032416233D

 42 44  0     0  0  0  0  0  0999 V2000
   -0.7753    3.5151   -0.5619 O   0  0  0  0  0  0  0  0  0  0  0  0
   -4.6164   -1.6796   -0.1574 O   0  0  0  0  0  0  0  0  0  0  0  0
    2.2668   -1.7460    0.3245 O   0  0  0  0  0  0  0  0  0  0  0  0
    4.7781    0.3279   -1.5046 O   0  0  0  0  0  0  0  0  0  0  0  0
   -1.1931    0.6267   -0.9247 N   0  0  0  0  0  0  0  0  0  0  0  0
    0.9632   -1.3150    0.5383 N   0  0  0  0  0  0  0  0  0  0  0  0
   -0.6435    1.4946    0.1208 C   0  0  0  0  0  0  0  0  0  0  0  0
   -2.0488   -0.3863   -0.3117 C   0  0  0  0  0  0  0  0  0  0  0  0
    0.2840    2.5221   -0.5413 C   0  0  0  0  0  0  0  0  0  0  0  0
   -1.5884    2.6883    0.3124 C   0  0  0  0  0  0  0  0  0  0  0  0
   -0.1548    0.7362    1.3277 C   0  0  0  0  0  0  0  0  0  0  0  0
   -2.5136   -1.4154   -1.3470 C   0  0  0  0  0  0  0  0  0  0  0  0
   -3.2610    0.2720    0.3535 C   0  0  0  0  0  0  0  0  0  0  0  0
   -3.5100   -2.3846   -0.7205 C   0  0  0  0  0  0  0  0  0  0  0  0
   -4.2161   -0.7908    0.8857 C   0  0  0  0  0  0  0  0  0  0  0  0
    1.0826   -0.0619    0.9863 C   0  0  0  0  0  0  0  0  0  0  0  0
    2.4242    0.3476    1.0750 C   0  0  0  0  0  0  0  0  0  0  0  0
    3.1278   -0.7472    0.6477 C   0  0  0  0  0  0  0  0  0  0  0  0
    4.5574   -1.0346    0.4801 C   0  0  0  0  0  0  0  0  0  0  0  0
    5.0370   -0.9693   -0.9830 C   0  0  0  0  0  0  0  0  0  0  0  0
   -1.5310   -1.0060    0.4216 H   0  0  0  0  0  0  0  0  0  0  0  0
    0.6497    2.2955   -1.5481 H   0  0  0  0  0  0  0  0  0  0  0  0
    1.1202    2.8819    0.0674 H   0  0  0  0  0  0  0  0  0  0  0  0
   -1.6104    3.1126    1.3227 H   0  0  0  0  0  0  0  0  0  0  0  0
   -2.6075    2.6650   -0.0762 H   0  0  0  0  0  0  0  0  0  0  0  0
   -1.6952    1.1102   -1.6690 H   0  0  0  0  0  0  0  0  0  0  0  0
   -0.8940    0.1374    1.8667 H   0  0  0  0  0  0  0  0  0  0  0  0
    0.1581    1.4690    2.0875 H   0  0  0  0  0  0  0  0  0  0  0  0
   -1.6603   -1.9673   -1.7578 H   0  0  0  0  0  0  0  0  0  0  0  0
   -3.0044   -0.8972   -2.1815 H   0  0  0  0  0  0  0  0  0  0  0  0
   -3.8086    0.8742   -0.3826 H   0  0  0  0  0  0  0  0  0  0  0  0
   -3.0009    0.8967    1.2108 H   0  0  0  0  0  0  0  0  0  0  0  0
   -3.9017   -3.0611   -1.4867 H   0  0  0  0  0  0  0  0  0  0  0  0
   -3.0373   -3.0005    0.0536 H   0  0  0  0  0  0  0  0  0  0  0  0
   -3.7606   -1.3663    1.7003 H   0  0  0  0  0  0  0  0  0  0  0  0
   -5.1193   -0.3157    1.2820 H   0  0  0  0  0  0  0  0  0  0  0  0
    2.8234    1.2967    1.4009 H   0  0  0  0  0  0  0  0  0  0  0  0
    4.7879   -2.0260    0.8871 H   0  0  0  0  0  0  0  0  0  0  0  0
    5.1320   -0.3071    1.0671 H   0  0  0  0  0  0  0  0  0  0  0  0
    6.1126   -1.1636   -1.0369 H   0  0  0  0  0  0  0  0  0  0  0  0
    4.5080   -1.7036   -1.5993 H   0  0  0  0  0  0  0  0  0  0  0  0
    5.0942    0.3333   -2.4241 H   0  0  0  0  0  0  0  0  0  0  0  0
  1  9  1  0  0  0  0
  1 10  1  0  0  0  0
  2 14  1  0  0  0  0
  2 15  1  0  0  0  0
  3  6  1  0  0  0  0
  3 18  1  0  0  0  0
  4 20  1  0  0  0  0
  4 42  1  0  0  0  0
  5  7  1  0  0  0  0
  5  8  1  0  0  0  0
  5 26  1  0  0  0  0
  6 16  2  0  0  0  0
  7  9  1  0  0  0  0
  7 10  1  0  0  0  0
  7 11  1  0  0  0  0
  8 12  1  0  0  0  0
  8 13  1  0  0  0  0
  8 21  1  0  0  0  0
  9 22  1  0  0  0  0
  9 23  1  0  0  0  0
 10 24  1  0  0  0  0
 10 25  1  0  0  0  0
 11 16  1  0  0  0  0
 11 27  1  0  0  0  0
 11 28  1  0  0  0  0
 12 14  1  0  0  0  0
 12 29  1  0  0  0  0
 12 30  1  0  0  0  0
 13 15  1  0  0  0  0
 13 31  1  0  0  0  0
 13 32  1  0  0  0  0
 14 33  1  0  0  0  0
 14 34  1  0  0  0  0
 15 35  1  0  0  0  0
 15 36  1  0  0  0  0
 16 17  1  0  0  0  0
 17 18  2  0  0  0  0
 17 37  1  0  0  0  0
 18 19  1  0  0  0  0
 19 20  1  0  0  0  0
 19 38  1  0  0  0  0
 19 39  1  0  0  0  0
 20 40  1  0  0  0  0
 20 41  1  0  0  0  0
M  END
> <PUBCHEM_COMPOUND_CID>
71694384

> <PUBCHEM_CONFORMER_RMSD>
0.8

> <PUBCHEM_CONFORMER_DIVERSEORDER>
2
116
60
86
54
67
63
96
5
128
114
104
43
108
117
44
97
106
40
71
18
69
55
57
19
41
62
10
109
21
75
126
102
42
59
77
58
35
80
39
4
98
118
46
122
73
68
123
15
82
37
113
47
119
27
36
38
7
52
94
66
33
65
32
88
99
95
12
90
121
92
72
87
103
64
127
6
120
13
48
105
111
3
125
53
79
28
20
76
81
1
23
112
101
9
74
11
83
110
61
8
107
115
30
22
29
45
124
85
70
93
56
25
14
84
17
91
49
50
24
16
100
34
89
26
78
31
51

> <PUBCHEM_MMFF94_PARTIAL_CHARGES>
21
1 -0.52
10 0.26
11 0.18
14 0.28
15 0.28
16 0.11
17 -0.15
18 -0.04
19 0.18
2 -0.56
20 0.28
26 0.36
3 -0.02
37 0.15
4 -0.68
42 0.4
5 -0.84
6 -0.41
7 0.21
8 0.27
9 0.26

> <PUBCHEM_EFFECTIVE_ROTOR_COUNT>
8

> <PUBCHEM_PHARMACOPHORE_FEATURES>
10
1 1 acceptor
1 2 acceptor
1 4 acceptor
1 4 donor
1 5 cation
1 5 donor
1 6 acceptor
4 1 7 9 10 rings
5 3 6 16 17 18 rings
6 2 8 12 13 14 15 rings

> <PUBCHEM_HEAVY_ATOM_COUNT>
20

> <PUBCHEM_ATOM_DEF_STEREO_COUNT>
0

> <PUBCHEM_ATOM_UDEF_STEREO_COUNT>
0

> <PUBCHEM_BOND_DEF_STEREO_COUNT>
0

> <PUBCHEM_BOND_UDEF_STEREO_COUNT>
0

> <PUBCHEM_ISOTOPIC_ATOM_COUNT>
0

> <PUBCHEM_COMPONENT_COUNT>
1

> <PUBCHEM_CACTVS_TAUTO_COUNT>
1

> <PUBCHEM_CONFORMER_ID>
0445F83000000002

> <PUBCHEM_MMFF94_ENERGY>
40.0668

> <PUBCHEM_FEATURE_SELFOVERLAP>
50.747

> <PUBCHEM_SHAPE_FINGERPRINT>
10042902 136 17774439528473771342
10692045 39 8069488992793739452
10764073 3 14185966534193853304
11045515 52 17967249793068239188
11128504 68 18186809105972288270
12011746 2 18200867388741124005
12173636 292 17764013684563123596
12553582 1 18337380613061897075
12633257 1 15338839832436280179
12714826 92 18129935681134390640
12788726 201 18189326867082491409
12841375 25 18409441518598309107
13009979 54 17987247797128502867
13533116 47 17835794571898064359
14251732 17 13685755869937616675
14251764 30 18202008745697987598
14787075 74 17967819387425601434
15061688 2 10953732300783966250
15842332 3 17534049779904815584
17349148 13 17530959151793600162
17357779 13 18126538246281841381
17804303 29 17988924491951685475
1813 80 18341618147791087685
18222031 100 18341319102525551815
19489759 90 11746938702619255078
200 152 17749392546487558162
20291156 8 18411412947136370755
20388580 30 18264202680988699869
20645477 70 17828741170239947023
20871999 31 18187355507231822335
21029758 27 18409168835451418787
21330990 113 17489039179335121942
21403212 168 10303268871476559628
22907989 373 18191575363839596237
22950370 63 18410579512901370939
23402539 116 18041274379438572130
23557571 272 18200596883010692892
23566358 27 17902801000526640803
23598288 3 18044650906422011825
23622692 88 18343590638256878627
238078 22 18335424590260185915
312423 11 17896601687665437098
351380 180 11602821315330570950
6049 1 17988063518586597320
7364860 26 17977655734870731873
7615 1 17460020783156710368
81228 2 18048567397227129353
83771 10 18412257354886776651

> <PUBCHEM_SHAPE_MULTIPOLES>
378.15
9.01
2.89
1.24
6.1
2.2
-0.1
-6.61
-1.5
-2.08
-0.72
0.47
-0.06
-0.45

> <PUBCHEM_SHAPE_SELFOVERLAP>
786.35

> <PUBCHEM_SHAPE_VOLUME>
216.6

> <PUBCHEM_COORDINATE_TYPE>
2
5
10

$$$$
