11942956
  -OEChem-12032416153D

 65 69  0     1  0  0  0  0  0999 V2000
   -2.7529   -0.5224   -2.0981 O   0  0  0  0  0  0  0  0  0  0  0  0
    4.9568    0.1329   -1.3554 O   0  0  0  0  0  0  0  0  0  0  0  0
   -2.7867    3.7446    1.2615 O   0  0  0  0  0  0  0  0  0  0  0  0
   -2.0403   -3.7573    0.0873 N   0  0  2  0  0  0  0  0  0  0  0  0
    1.4740   -2.5014   -0.5673 N   0  0  0  0  0  0  0  0  0  0  0  0
   -3.5283    0.7539   -0.3123 N   0  0  0  0  0  0  0  0  0  0  0  0
    2.4856   -3.2503   -0.1422 N   0  0  0  0  0  0  0  0  0  0  0  0
    3.5350   -2.4337    0.0451 N   0  0  0  0  0  0  0  0  0  0  0  0
   -2.4902   -1.4635    1.2310 C   0  0  2  0  0  0  0  0  0  0  0  0
   -0.7531   -3.0591    0.3479 C   0  0  2  0  0  0  0  0  0  0  0  0
   -3.3238   -1.6182   -0.0556 C   0  0  2  0  0  0  0  0  0  0  0  0
   -0.9971   -1.6320    0.8856 C   0  0  0  0  0  0  0  0  0  0  0  0
   -2.8809   -2.6300    2.1562 C   0  0  0  0  0  0  0  0  0  0  0  0
   -2.9160   -2.9194   -0.7691 C   0  0  0  0  0  0  0  0  0  0  0  0
   -2.7224   -3.9569    1.3905 C   0  0  0  0  0  0  0  0  0  0  0  0
    0.1664   -3.0562   -0.8753 C   0  0  0  0  0  0  0  0  0  0  0  0
   -3.1709   -0.4231   -0.9474 C   0  0  0  0  0  0  0  0  0  0  0  0
    4.2012    0.0108   -0.1426 C   0  0  0  0  0  0  0  0  0  0  0  0
    5.2005   -0.1394    1.0192 C   0  0  0  0  0  0  0  0  0  0  0  0
    3.5866    1.3822    0.1839 C   0  0  0  0  0  0  0  0  0  0  0  0
    3.2258   -1.1425   -0.2539 C   0  0  0  0  0  0  0  0  0  0  0  0
    1.9109   -1.2078   -0.6411 C   0  0  0  0  0  0  0  0  0  0  0  0
    5.7530    1.2638    1.2756 C   0  0  0  0  0  0  0  0  0  0  0  0
    4.7671    2.2353    0.6369 C   0  0  0  0  0  0  0  0  0  0  0  0
   -3.4503    2.0498   -0.9470 C   0  0  0  0  0  0  0  0  0  0  0  0
   -2.0987    2.6800   -0.7733 C   0  0  0  0  0  0  0  0  0  0  0  0
   -1.8294    3.4987    0.3237 C   0  0  0  0  0  0  0  0  0  0  0  0
   -1.1068    2.4393   -1.7240 C   0  0  0  0  0  0  0  0  0  0  0  0
   -0.5681    4.0763    0.4697 C   0  0  0  0  0  0  0  0  0  0  0  0
    0.1545    3.0171   -1.5778 C   0  0  0  0  0  0  0  0  0  0  0  0
    0.4237    3.8356   -0.4811 C   0  0  0  0  0  0  0  0  0  0  0  0
   -2.4251    4.5927    2.3495 C   0  0  0  0  0  0  0  0  0  0  0  0
   -2.6492   -0.5130    1.7484 H   0  0  0  0  0  0  0  0  0  0  0  0
   -0.2242   -3.6255    1.1289 H   0  0  0  0  0  0  0  0  0  0  0  0
   -4.3884   -1.6801    0.2113 H   0  0  0  0  0  0  0  0  0  0  0  0
   -0.3884   -1.4673    1.7832 H   0  0  0  0  0  0  0  0  0  0  0  0
   -0.7229   -0.8593    0.1612 H   0  0  0  0  0  0  0  0  0  0  0  0
   -2.2425   -2.6314    3.0479 H   0  0  0  0  0  0  0  0  0  0  0  0
   -3.9169   -2.5176    2.4967 H   0  0  0  0  0  0  0  0  0  0  0  0
   -2.4387   -2.7722   -1.7422 H   0  0  0  0  0  0  0  0  0  0  0  0
   -3.8238   -3.4930   -1.0006 H   0  0  0  0  0  0  0  0  0  0  0  0
   -2.1596   -4.6743    2.0006 H   0  0  0  0  0  0  0  0  0  0  0  0
   -3.7044   -4.4189    1.2280 H   0  0  0  0  0  0  0  0  0  0  0  0
   -0.2370   -2.4581   -1.6998 H   0  0  0  0  0  0  0  0  0  0  0  0
    0.3292   -4.0738   -1.2500 H   0  0  0  0  0  0  0  0  0  0  0  0
   -3.9071    0.7238    0.6290 H   0  0  0  0  0  0  0  0  0  0  0  0
    4.6945   -0.4988    1.9245 H   0  0  0  0  0  0  0  0  0  0  0  0
    6.0117   -0.8381    0.7865 H   0  0  0  0  0  0  0  0  0  0  0  0
    3.0908    1.8371   -0.6799 H   0  0  0  0  0  0  0  0  0  0  0  0
    2.8533    1.3001    0.9960 H   0  0  0  0  0  0  0  0  0  0  0  0
    1.2472   -0.4249   -0.9812 H   0  0  0  0  0  0  0  0  0  0  0  0
    5.8611    1.4478    2.3497 H   0  0  0  0  0  0  0  0  0  0  0  0
    6.7442    1.3807    0.8232 H   0  0  0  0  0  0  0  0  0  0  0  0
    4.4546    3.0212    1.3314 H   0  0  0  0  0  0  0  0  0  0  0  0
    5.2338    2.7257   -0.2254 H   0  0  0  0  0  0  0  0  0  0  0  0
   -3.6820    1.9405   -2.0135 H   0  0  0  0  0  0  0  0  0  0  0  0
   -4.2407    2.6780   -0.5220 H   0  0  0  0  0  0  0  0  0  0  0  0
    4.3363    0.3606   -2.0690 H   0  0  0  0  0  0  0  0  0  0  0  0
   -1.3008    1.8069   -2.5858 H   0  0  0  0  0  0  0  0  0  0  0  0
   -0.2858    4.7214    1.2945 H   0  0  0  0  0  0  0  0  0  0  0  0
    0.9272    2.8287   -2.3173 H   0  0  0  0  0  0  0  0  0  0  0  0
    1.4068    4.2835   -0.3678 H   0  0  0  0  0  0  0  0  0  0  0  0
   -1.6267    4.1524    2.9567 H   0  0  0  0  0  0  0  0  0  0  0  0
   -2.1816    5.6049    2.0093 H   0  0  0  0  0  0  0  0  0  0  0  0
   -3.3044    4.6787    2.9965 H   0  0  0  0  0  0  0  0  0  0  0  0
  1 17  2  0  0  0  0
  2 18  1  0  0  0  0
  2 58  1  0  0  0  0
  3 27  1  0  0  0  0
  3 32  1  0  0  0  0
  4 10  1  0  0  0  0
  4 14  1  0  0  0  0
  4 15  1  0  0  0  0
  5  7  1  0  0  0  0
  5 16  1  0  0  0  0
  5 22  1  0  0  0  0
  6 17  1  0  0  0  0
  6 25  1  0  0  0  0
  6 46  1  0  0  0  0
  7  8  2  0  0  0  0
  8 21  1  0  0  0  0
  9 11  1  0  0  0  0
  9 12  1  0  0  0  0
  9 13  1  0  0  0  0
  9 33  1  0  0  0  0
 10 12  1  0  0  0  0
 10 16  1  0  0  0  0
 10 34  1  0  0  0  0
 11 14  1  0  0  0  0
 11 17  1  0  0  0  0
 11 35  1  0  0  0  0
 12 36  1  0  0  0  0
 12 37  1  0  0  0  0
 13 15  1  0  0  0  0
 13 38  1  0  0  0  0
 13 39  1  0  0  0  0
 14 40  1  0  0  0  0
 14 41  1  0  0  0  0
 15 42  1  0  0  0  0
 15 43  1  0  0  0  0
 16 44  1  0  0  0  0
 16 45  1  0  0  0  0
 18 19  1  0  0  0  0
 18 20  1  0  0  0  0
 18 21  1  0  0  0  0
 19 23  1  0  0  0  0
 19 47  1  0  0  0  0
 19 48  1  0  0  0  0
 20 24  1  0  0  0  0
 20 49  1  0  0  0  0
 20 50  1  0  0  0  0
 21 22  2  0  0  0  0
 22 51  1  0  0  0  0
 23 24  1  0  0  0  0
 23 52  1  0  0  0  0
 23 53  1  0  0  0  0
 24 54  1  0  0  0  0
 24 55  1  0  0  0  0
 25 26  1  0  0  0  0
 25 56  1  0  0  0  0
 25 57  1  0  0  0  0
 26 27  1  0  0  0  0
 26 28  2  0  0  0  0
 27 29  2  0  0  0  0
 28 30  1  0  0  0  0
 28 59  1  0  0  0  0
 29 31  1  0  0  0  0
 29 60  1  0  0  0  0
 30 31  2  0  0  0  0
 30 61  1  0  0  0  0
 31 62  1  0  0  0  0
 32 63  1  0  0  0  0
 32 64  1  0  0  0  0
 32 65  1  0  0  0  0
M  END
> <PUBCHEM_COMPOUND_CID>
11942956

> <PUBCHEM_CONFORMER_RMSD>
1.2

> <PUBCHEM_CONFORMER_DIVERSEORDER>
2
25
102
80
105
90
119
130
136
116
27
113
28
66
58
140
115
106
94
120
24
68
98
96
61
29
111
107
65
41
40
42
54
19
1
134
72
32
101
82
57
71
122
59
125
123
11
38
26
81
39
97
121
137
10
132
69
75
52
86
124
3
77
117
33
92
93
47
37
23
60
53
16
78
84
139
46
135
138
51
91
129
79
108
110
88
99
89
17
50
95
70
87
64
131
126
56
109
133
127
21
104
22
12
76
49
67
34
73
18
48
112
4
83
62
100
118
8
30
74
63
5
31
15
35
128
9
7
36
55
44
85
114
20
45
103
43
13
14
6

> <PUBCHEM_MMFF94_PARTIAL_CHARGES>
32
1 -0.57
10 0.27
11 0.06
14 0.27
15 0.27
16 0.26
17 0.57
18 0.46
2 -0.68
21 0.05
22 -0.3
25 0.44
26 -0.14
27 0.08
28 -0.15
29 -0.15
3 -0.36
30 -0.15
31 -0.15
32 0.28
4 -0.81
46 0.37
5 0.31
51 0.15
58 0.4
59 0.15
6 -0.73
60 0.15
61 0.15
62 0.15
7 -0.42
8 -0.23

> <PUBCHEM_EFFECTIVE_ROTOR_COUNT>
10.2

> <PUBCHEM_PHARMACOPHORE_FEATURES>
10
1 1 acceptor
1 2 acceptor
1 2 donor
1 3 acceptor
1 4 cation
1 6 donor
5 18 19 20 23 24 rings
5 5 7 8 21 22 rings
6 26 27 28 29 30 31 rings
8 4 9 10 11 12 13 14 15 rings

> <PUBCHEM_HEAVY_ATOM_COUNT>
32

> <PUBCHEM_ATOM_DEF_STEREO_COUNT>
3

> <PUBCHEM_ATOM_UDEF_STEREO_COUNT>
0

> <PUBCHEM_BOND_DEF_STEREO_COUNT>
0

> <PUBCHEM_BOND_UDEF_STEREO_COUNT>
0

> <PUBCHEM_ISOTOPIC_ATOM_COUNT>
0

> <PUBCHEM_COMPONENT_COUNT>
1

> <PUBCHEM_CACTVS_TAUTO_COUNT>
2

> <PUBCHEM_CONFORMER_ID>
00B63C2C00000002

> <PUBCHEM_MMFF94_ENERGY>
84.1001

> <PUBCHEM_FEATURE_SELFOVERLAP>
50.747

> <PUBCHEM_SHAPE_FINGERPRINT>
10670039 82 18262815072372694940
11059048 146 18196668302079158388
12156800 1 17544252234066607757
13122387 1 16967728568850084844
13402501 40 18410283739893947612
14081887 123 18408882936637197172
14251764 38 18269265764889625402
14363568 33 17543642279695797312
14725015 67 18117542132385105275
150020 26 17395862423901974985
15264996 55 17684344188858278088
15840311 113 17629793127129014915
16067690 210 18114725119165057256
16112460 7 17909269075055306792
19930381 70 17472137757503131231
20764821 26 18050278464678668636
20775530 9 17902236941917840685
21458453 9 17832184582728184609
23398203 216 18198077884085506337
474144 1 17462013360087565484
4742675 86 18340761572577920744
50150288 127 16988015876964373680
508706 21 18338239267645747278
56638632 10 17479453886167505088
57091435 65 17397831657653810388
57527585 103 17459208389681254451
6004065 56 18197487627505359831
6371009 1 17904742402441836567
653340 110 18413386527933453136

> <PUBCHEM_SHAPE_MULTIPOLES>
616.03
9.46
7.2
1.72
14.76
4.49
0.38
-1.83
1.99
-5.66
1.87
-1.13
0.83
0.77

> <PUBCHEM_SHAPE_SELFOVERLAP>
1323.203

> <PUBCHEM_SHAPE_VOLUME>
337.2

> <PUBCHEM_COORDINATE_TYPE>
2
5
10

$$$$
