45784169
  -OEChem-12032416203D

 60 62  0     1  0  0  0  0  0999 V2000
   -5.5505    1.0404    0.5031 F   0  0  0  0  0  0  0  0  0  0  0  0
   -1.4489    0.4132    0.7841 O   0  0  0  0  0  0  0  0  0  0  0  0
    3.0462   -2.8593   -0.9993 O   0  0  0  0  0  0  0  0  0  0  0  0
    2.6420   -4.1089    1.3508 O   0  0  0  0  0  0  0  0  0  0  0  0
    3.8288   -0.9261    0.0342 N   0  0  0  0  0  0  0  0  0  0  0  0
   -1.8794    2.4279    1.6564 N   0  0  0  0  0  0  0  0  0  0  0  0
   -3.0767    1.8799    1.2356 N   0  0  0  0  0  0  0  0  0  0  0  0
    1.7466    0.8094   -1.2680 C   0  0  1  0  0  0  0  0  0  0  0  0
    3.2602    1.1218   -1.1621 C   0  0  1  0  0  0  0  0  0  0  0  0
    0.9161    2.0357   -0.8599 C   0  0  0  0  0  0  0  0  0  0  0  0
    1.2206    2.4928    0.5792 C   0  0  2  0  0  0  0  0  0  0  0  0
    1.3551    0.3647   -2.6807 C   0  0  0  0  0  0  0  0  0  0  0  0
    2.7110    2.5665    0.8432 C   0  0  0  0  0  0  0  0  0  0  0  0
    3.6079    1.9587    0.0466 C   0  0  0  0  0  0  0  0  0  0  0  0
    4.0912   -0.1663   -1.1476 C   0  0  0  0  0  0  0  0  0  0  0  0
    0.5257    1.5898    1.6043 C   0  0  0  0  0  0  0  0  0  0  0  0
    0.0869   -0.4820   -2.6398 C   0  0  0  0  0  0  0  0  0  0  0  0
    1.1671    1.5770   -3.5871 C   0  0  0  0  0  0  0  0  0  0  0  0
    3.1501    3.3937    2.0192 C   0  0  0  0  0  0  0  0  0  0  0  0
   -0.9573    1.5375    1.3733 C   0  0  0  0  0  0  0  0  0  0  0  0
    3.3222   -2.2253    0.0155 C   0  0  0  0  0  0  0  0  0  0  0  0
   -2.7775    0.7047    0.7333 C   0  0  0  0  0  0  0  0  0  0  0  0
    3.1430   -2.7902    1.4085 C   0  0  0  0  0  0  0  0  0  0  0  0
   -3.6183   -0.3005    0.1509 C   0  0  0  0  0  0  0  0  0  0  0  0
   -4.9946   -0.0950    0.0555 C   0  0  0  0  0  0  0  0  0  0  0  0
   -3.0560   -1.4869   -0.3200 C   0  0  0  0  0  0  0  0  0  0  0  0
    2.4633   -4.6665    2.6496 C   0  0  0  0  0  0  0  0  0  0  0  0
   -5.8086   -1.0760   -0.5109 C   0  0  0  0  0  0  0  0  0  0  0  0
   -3.8700   -2.4680   -0.8863 C   0  0  0  0  0  0  0  0  0  0  0  0
   -5.2463   -2.2625   -0.9818 C   0  0  0  0  0  0  0  0  0  0  0  0
    1.5031   -0.0032   -0.5727 H   0  0  0  0  0  0  0  0  0  0  0  0
    3.5767    1.7032   -2.0372 H   0  0  0  0  0  0  0  0  0  0  0  0
    1.1779    2.8939   -1.4940 H   0  0  0  0  0  0  0  0  0  0  0  0
   -0.1541    1.8732   -1.0131 H   0  0  0  0  0  0  0  0  0  0  0  0
    0.8076    3.5073    0.6767 H   0  0  0  0  0  0  0  0  0  0  0  0
    2.1395   -0.2642   -3.1140 H   0  0  0  0  0  0  0  0  0  0  0  0
    4.6682    2.0849    0.2572 H   0  0  0  0  0  0  0  0  0  0  0  0
    3.9203   -0.7739   -2.0403 H   0  0  0  0  0  0  0  0  0  0  0  0
    5.1611    0.0748   -1.1338 H   0  0  0  0  0  0  0  0  0  0  0  0
    0.6870    1.9702    2.6202 H   0  0  0  0  0  0  0  0  0  0  0  0
    0.9373    0.5733    1.5867 H   0  0  0  0  0  0  0  0  0  0  0  0
   -0.7737    0.0773   -2.2605 H   0  0  0  0  0  0  0  0  0  0  0  0
    0.2248   -1.3647   -2.0061 H   0  0  0  0  0  0  0  0  0  0  0  0
   -0.1690   -0.8360   -3.6445 H   0  0  0  0  0  0  0  0  0  0  0  0
    0.2517    2.1382   -3.3723 H   0  0  0  0  0  0  0  0  0  0  0  0
    1.0706    1.2373   -4.6259 H   0  0  0  0  0  0  0  0  0  0  0  0
    2.0224    2.2587   -3.5640 H   0  0  0  0  0  0  0  0  0  0  0  0
    2.7582    4.4124    1.9348 H   0  0  0  0  0  0  0  0  0  0  0  0
    4.2409    3.4659    2.0880 H   0  0  0  0  0  0  0  0  0  0  0  0
    2.7903    2.9578    2.9559 H   0  0  0  0  0  0  0  0  0  0  0  0
    4.0754   -0.5177    0.9313 H   0  0  0  0  0  0  0  0  0  0  0  0
    4.1155   -2.7814    1.9142 H   0  0  0  0  0  0  0  0  0  0  0  0
    2.4423   -2.1470    1.9538 H   0  0  0  0  0  0  0  0  0  0  0  0
   -1.9886   -1.6847   -0.2630 H   0  0  0  0  0  0  0  0  0  0  0  0
    2.0753   -5.6823    2.5367 H   0  0  0  0  0  0  0  0  0  0  0  0
    1.7411   -4.0767    3.2222 H   0  0  0  0  0  0  0  0  0  0  0  0
    3.4192   -4.7129    3.1801 H   0  0  0  0  0  0  0  0  0  0  0  0
   -6.8801   -0.9158   -0.5853 H   0  0  0  0  0  0  0  0  0  0  0  0
   -3.4325   -3.3920   -1.2531 H   0  0  0  0  0  0  0  0  0  0  0  0
   -5.8801   -3.0263   -1.4228 H   0  0  0  0  0  0  0  0  0  0  0  0
  1 25  1  0  0  0  0
  2 20  1  0  0  0  0
  2 22  1  0  0  0  0
  3 21  2  0  0  0  0
  4 23  1  0  0  0  0
  4 27  1  0  0  0  0
  5 15  1  0  0  0  0
  5 21  1  0  0  0  0
  5 51  1  0  0  0  0
  6  7  1  0  0  0  0
  6 20  2  0  0  0  0
  7 22  2  0  0  0  0
  8  9  1  0  0  0  0
  8 10  1  0  0  0  0
  8 12  1  0  0  0  0
  8 31  1  0  0  0  0
  9 14  1  0  0  0  0
  9 15  1  0  0  0  0
  9 32  1  0  0  0  0
 10 11  1  0  0  0  0
 10 33  1  0  0  0  0
 10 34  1  0  0  0  0
 11 13  1  0  0  0  0
 11 16  1  0  0  0  0
 11 35  1  0  0  0  0
 12 17  1  0  0  0  0
 12 18  1  0  0  0  0
 12 36  1  0  0  0  0
 13 14  2  0  0  0  0
 13 19  1  0  0  0  0
 14 37  1  0  0  0  0
 15 38  1  0  0  0  0
 15 39  1  0  0  0  0
 16 20  1  0  0  0  0
 16 40  1  0  0  0  0
 16 41  1  0  0  0  0
 17 42  1  0  0  0  0
 17 43  1  0  0  0  0
 17 44  1  0  0  0  0
 18 45  1  0  0  0  0
 18 46  1  0  0  0  0
 18 47  1  0  0  0  0
 19 48  1  0  0  0  0
 19 49  1  0  0  0  0
 19 50  1  0  0  0  0
 21 23  1  0  0  0  0
 22 24  1  0  0  0  0
 23 52  1  0  0  0  0
 23 53  1  0  0  0  0
 24 25  1  0  0  0  0
 24 26  2  0  0  0  0
 25 28  2  0  0  0  0
 26 29  1  0  0  0  0
 26 54  1  0  0  0  0
 27 55  1  0  0  0  0
 27 56  1  0  0  0  0
 27 57  1  0  0  0  0
 28 30  1  0  0  0  0
 28 58  1  0  0  0  0
 29 30  2  0  0  0  0
 29 59  1  0  0  0  0
 30 60  1  0  0  0  0
M  END
> <PUBCHEM_COMPOUND_CID>
45784169

> <PUBCHEM_CONFORMER_RMSD>
1

> <PUBCHEM_CONFORMER_DIVERSEORDER>
1
13
29
27
89
46
50
58
25
35
57
61
51
81
87
65
32
15
31
83
39
24
82
56
78
3
11
52
34
54
66
84
36
23
2
47
75
86
20
55
68
48
42
74
88
44
62
67
49
33
59
18
76
79
53
10
28
77
72
69
22
21
64
41
60
43
85
70
19
45
71
9
16
7
14
73
80
6
38
63
12
17
30
8
37
4
40
5
26

> <PUBCHEM_MMFF94_PARTIAL_CHARGES>
31
1 -0.19
11 0.14
13 -0.28
14 -0.29
15 0.3
16 0.18
19 0.14
2 -0.28
20 0.3
21 0.57
22 0.43
23 0.34
24 0.05
25 0.19
26 -0.15
27 0.28
28 -0.15
29 -0.15
3 -0.57
30 -0.15
37 0.15
4 -0.56
5 -0.73
51 0.37
54 0.15
58 0.15
59 0.15
6 -0.34
60 0.15
7 -0.34
9 0.14

> <PUBCHEM_EFFECTIVE_ROTOR_COUNT>
9.8

> <PUBCHEM_PHARMACOPHORE_FEATURES>
7
1 3 acceptor
1 4 acceptor
1 5 donor
3 12 17 18 hydrophobe
5 2 6 7 20 22 rings
6 24 25 26 28 29 30 rings
6 8 9 10 11 13 14 rings

> <PUBCHEM_HEAVY_ATOM_COUNT>
30

> <PUBCHEM_ATOM_DEF_STEREO_COUNT>
3

> <PUBCHEM_ATOM_UDEF_STEREO_COUNT>
0

> <PUBCHEM_BOND_DEF_STEREO_COUNT>
0

> <PUBCHEM_BOND_UDEF_STEREO_COUNT>
0

> <PUBCHEM_ISOTOPIC_ATOM_COUNT>
0

> <PUBCHEM_COMPONENT_COUNT>
1

> <PUBCHEM_CACTVS_TAUTO_COUNT>
2

> <PUBCHEM_CONFORMER_ID>
02BA9C6900000001

> <PUBCHEM_MMFF94_ENERGY>
55.2105

> <PUBCHEM_FEATURE_SELFOVERLAP>
35.528

> <PUBCHEM_SHAPE_FINGERPRINT>
11186622 123 18270958072109294347
11578080 2 18261382304852119228
11796584 16 17988652886873390725
12633257 1 17845953848399364329
13165053 137 13861335408856805915
13402501 40 17488190490119611085
13583140 156 18342725313214758852
14674994 50 16888344959265228710
15403338 16 18411692180356976871
17138139 8 18270124655122242158
18681886 176 16845299362574549132
19315092 285 18337657672643448258
20626108 58 18130793317310481328
20775530 9 17318459683283306154
21421861 104 18130521789709643009
23559900 14 17488765388397782581
239999 70 17488474142355096940
25222932 49 17770494545689646679
3680242 22 18059030397242686819
444735 86 17840852286214079503
46194498 28 16155994683385968952
463206 1 18410019857150884283
484985 159 16892287782240537350
5104073 3 17560532801808178305
513532 50 16443342138973949972
66674814 147 17967534558369882258
6823239 73 16987183589601120916
9709674 26 17274004400847577013

> <PUBCHEM_SHAPE_MULTIPOLES>
577.56
10.59
4.78
2.7
15.82
5.69
-1.54
3.52
-0.2
-5.49
3.99
-2.05
-0.23
-2.16

> <PUBCHEM_SHAPE_SELFOVERLAP>
1210.912

> <PUBCHEM_SHAPE_VOLUME>
328.1

> <PUBCHEM_COORDINATE_TYPE>
2
5
10

$$$$
