45783551
  -OEChem-12032416363D

 42 44  0     1  0  0  0  0  0999 V2000
   -2.8148   -1.8833   -0.5925 O   0  0  0  0  0  0  0  0  0  0  0  0
    4.3367    0.4233    0.4354 O   0  0  0  0  0  0  0  0  0  0  0  0
    6.9389    0.8124   -0.5194 O   0  0  0  0  0  0  0  0  0  0  0  0
   -4.9753    0.4574    0.8914 N   0  0  1  0  0  0  0  0  0  0  0  0
   -2.0143    0.1532   -0.1148 N   0  0  0  0  0  0  0  0  0  0  0  0
   -1.4233   -2.0210   -0.5120 N   0  0  0  0  0  0  0  0  0  0  0  0
    2.6723   -1.1308   -0.0101 N   0  0  0  0  0  0  0  0  0  0  0  0
   -4.5352   -0.1610   -0.3752 C   0  0  1  0  0  0  0  0  0  0  0  0
   -4.8316    0.8993   -1.4518 C   0  0  0  0  0  0  0  0  0  0  0  0
   -5.4917    2.0501   -0.7056 C   0  0  0  0  0  0  0  0  0  0  0  0
   -6.0434    1.3949    0.5445 C   0  0  0  0  0  0  0  0  0  0  0  0
   -3.0783   -0.5733   -0.3463 C   0  0  0  0  0  0  0  0  0  0  0  0
   -5.4026   -0.5163    1.8879 C   0  0  0  0  0  0  0  0  0  0  0  0
   -1.0233   -0.7781   -0.2272 C   0  0  0  0  0  0  0  0  0  0  0  0
    0.3578   -0.4335   -0.0502 C   0  0  0  0  0  0  0  0  0  0  0  0
    0.7382    0.8713    0.2441 C   0  0  0  0  0  0  0  0  0  0  0  0
    1.3544   -1.3890   -0.1658 C   0  0  0  0  0  0  0  0  0  0  0  0
    2.0845    1.1760    0.4114 C   0  0  0  0  0  0  0  0  0  0  0  0
    3.0039    0.1484    0.2752 C   0  0  0  0  0  0  0  0  0  0  0  0
    5.2377   -0.6675    0.2849 C   0  0  0  0  0  0  0  0  0  0  0  0
    6.6568   -0.1668    0.4731 C   0  0  0  0  0  0  0  0  0  0  0  0
    8.2526    1.3343   -0.3771 C   0  0  0  0  0  0  0  0  0  0  0  0
   -5.1479   -1.0446   -0.6034 H   0  0  0  0  0  0  0  0  0  0  0  0
   -3.9445    1.2446   -1.9937 H   0  0  0  0  0  0  0  0  0  0  0  0
   -5.5346    0.4896   -2.1875 H   0  0  0  0  0  0  0  0  0  0  0  0
   -6.2684    2.5383   -1.3015 H   0  0  0  0  0  0  0  0  0  0  0  0
   -4.7392    2.8039   -0.4424 H   0  0  0  0  0  0  0  0  0  0  0  0
   -6.9842    0.8774    0.3176 H   0  0  0  0  0  0  0  0  0  0  0  0
   -6.2226    2.1270    1.3378 H   0  0  0  0  0  0  0  0  0  0  0  0
   -4.5784   -1.1880    2.1509 H   0  0  0  0  0  0  0  0  0  0  0  0
   -6.2450   -1.1253    1.5407 H   0  0  0  0  0  0  0  0  0  0  0  0
   -5.7043   -0.0088    2.8107 H   0  0  0  0  0  0  0  0  0  0  0  0
    0.0083    1.6698    0.3489 H   0  0  0  0  0  0  0  0  0  0  0  0
    1.1417   -2.4295   -0.3932 H   0  0  0  0  0  0  0  0  0  0  0  0
    2.3979    2.1885    0.6412 H   0  0  0  0  0  0  0  0  0  0  0  0
    5.1378   -1.0853   -0.7246 H   0  0  0  0  0  0  0  0  0  0  0  0
    5.0253   -1.4411    1.0322 H   0  0  0  0  0  0  0  0  0  0  0  0
    6.7590    0.2921    1.4634 H   0  0  0  0  0  0  0  0  0  0  0  0
    7.3627   -0.9998    0.3842 H   0  0  0  0  0  0  0  0  0  0  0  0
    8.3673    1.8261    0.5937 H   0  0  0  0  0  0  0  0  0  0  0  0
    8.9958    0.5386   -0.4871 H   0  0  0  0  0  0  0  0  0  0  0  0
    8.4158    2.0751   -1.1644 H   0  0  0  0  0  0  0  0  0  0  0  0
  1  6  1  0  0  0  0
  1 12  1  0  0  0  0
  2 19  1  0  0  0  0
  2 20  1  0  0  0  0
  3 21  1  0  0  0  0
  3 22  1  0  0  0  0
  4  8  1  0  0  0  0
  4 11  1  0  0  0  0
  4 13  1  0  0  0  0
  5 12  2  0  0  0  0
  5 14  1  0  0  0  0
  6 14  2  0  0  0  0
  7 17  1  0  0  0  0
  7 19  2  0  0  0  0
  8  9  1  0  0  0  0
  8 12  1  0  0  0  0
  8 23  1  0  0  0  0
  9 10  1  0  0  0  0
  9 24  1  0  0  0  0
  9 25  1  0  0  0  0
 10 11  1  0  0  0  0
 10 26  1  0  0  0  0
 10 27  1  0  0  0  0
 11 28  1  0  0  0  0
 11 29  1  0  0  0  0
 13 30  1  0  0  0  0
 13 31  1  0  0  0  0
 13 32  1  0  0  0  0
 14 15  1  0  0  0  0
 15 16  1  0  0  0  0
 15 17  2  0  0  0  0
 16 18  2  0  0  0  0
 16 33  1  0  0  0  0
 17 34  1  0  0  0  0
 18 19  1  0  0  0  0
 18 35  1  0  0  0  0
 20 21  1  0  0  0  0
 20 36  1  0  0  0  0
 20 37  1  0  0  0  0
 21 38  1  0  0  0  0
 21 39  1  0  0  0  0
 22 40  1  0  0  0  0
 22 41  1  0  0  0  0
 22 42  1  0  0  0  0
M  END
> <PUBCHEM_COMPOUND_CID>
45783551

> <PUBCHEM_CONFORMER_RMSD>
0.8

> <PUBCHEM_CONFORMER_DIVERSEORDER>
1
56
66
17
59
20
86
55
60
36
51
25
62
105
33
16
28
54
5
44
65
61
83
64
87
46
27
24
12
77
103
48
18
52
94
9
50
99
23
47
43
30
69
22
8
78
95
4
26
35
38
100
88
85
67
2
11
58
97
96
104
92
84
68
40
90
42
71
91
19
49
101
80
70
45
79
13
10
98
6
14
63
102
29
93
7
3
37
53
21
57
39
89
31
32
15
73
76
34
106
82
41
81
72
75
74

> <PUBCHEM_MMFF94_PARTIAL_CHARGES>
23
1 -0.02
11 0.27
12 0.3
13 0.27
14 0.46
15 0.05
16 -0.15
17 0.16
18 -0.15
19 0.39
2 -0.36
20 0.28
21 0.28
22 0.28
3 -0.56
33 0.15
34 0.15
35 0.15
4 -0.81
5 -0.57
6 -0.41
7 -0.62
8 0.45

> <PUBCHEM_EFFECTIVE_ROTOR_COUNT>
7

> <PUBCHEM_PHARMACOPHORE_FEATURES>
6
1 3 acceptor
1 4 cation
3 5 6 14 cation
5 1 5 6 12 14 rings
5 4 8 9 10 11 rings
6 7 15 16 17 18 19 rings

> <PUBCHEM_HEAVY_ATOM_COUNT>
22

> <PUBCHEM_ATOM_DEF_STEREO_COUNT>
1

> <PUBCHEM_ATOM_UDEF_STEREO_COUNT>
0

> <PUBCHEM_BOND_DEF_STEREO_COUNT>
0

> <PUBCHEM_BOND_UDEF_STEREO_COUNT>
0

> <PUBCHEM_ISOTOPIC_ATOM_COUNT>
0

> <PUBCHEM_COMPONENT_COUNT>
1

> <PUBCHEM_CACTVS_TAUTO_COUNT>
1

> <PUBCHEM_CONFORMER_ID>
02BA99FF00000001

> <PUBCHEM_MMFF94_ENERGY>
45.2213

> <PUBCHEM_FEATURE_SELFOVERLAP>
30.446

> <PUBCHEM_SHAPE_FINGERPRINT>
10 15 18260268551011679057
10066227 112 18412260662370738764
106641 1 18186809089124436203
10906281 52 18271537433201097990
11089746 13 16630519639895879514
11315181 36 16917066689399218785
12091667 2 18260827111746036807
12236239 1 18186235130853518730
13073987 5 14707473760519987004
13533116 47 16916508048058176814
13583140 156 17385995166663781311
13668630 136 11887958752963232548
13914758 101 14692581987612368306
1420 363 7925627834404646712
14251764 18 18411978078785758183
14849402 71 15358279176830226838
14856354 85 16515695450369479331
14933364 13 18113338613680640172
15048467 5 18333447643137269044
15183329 4 17989487407460835832
15461852 350 18272928354317901775
15716309 27 12612754605372539333
17093844 174 14996277016504904951
17780758 139 14923946735215243917
19489759 90 14261349155027233307
20281389 69 18410288125139972336
20621476 66 18408324397710302988
20645477 56 18410005529392893463
21033648 29 18337939126799567281
21033650 10 14333138438374833299
21054139 6 11239994559860034996
21095123 145 17168155576119220010
21267235 1 18270962474429673871
21709351 56 18129933585105934869
220451 1 18410007754597779578
22224240 67 15574433227979877680
23081809 10 18335690668417599598
23198884 109 15626221308496713625
23402539 116 15410892959665632737
23559900 14 17774715463564746336
293599 30 18413385427799280927
3009799 131 17203326715360980976
335352 9 18343579659371306949
350125 39 18410008832481869348
3545911 37 18272931630950770955
4073 2 18187368739842283282
4340502 62 16442780216314421354
4463277 17 18409165520069014596
4938544 92 15285628851699144503
5104073 3 18340479088284097610
59755656 215 18130790023581761542
6328613 192 18412826919422623704
7226269 152 18131070424431818889
9953998 17 16153430541367464209

> <PUBCHEM_SHAPE_MULTIPOLES>
415.22
19.83
1.68
1.03
25.13
0.01
-0.2
-9.4
-1.03
-1.03
0.3
-1.63
-0.01
0.18

> <PUBCHEM_SHAPE_SELFOVERLAP>
874.492

> <PUBCHEM_SHAPE_VOLUME>
236.2

> <PUBCHEM_COORDINATE_TYPE>
2
5
10

$$$$
