86769002
  -OEChem-12032416313D

 48 49  0     1  0  0  0  0  0999 V2000
   -5.5775    2.0570   -0.2765 S   0  0  0  0  0  0  0  0  0  0  0  0
    0.8458    0.1986   -0.0139 O   0  0  0  0  0  0  0  0  0  0  0  0
   -0.8531   -2.8586    0.8061 O   0  0  0  0  0  0  0  0  0  0  0  0
    3.1739    0.3068   -1.9621 O   0  0  0  0  0  0  0  0  0  0  0  0
   -2.7320   -0.4540    0.0552 N   0  0  0  0  0  0  0  0  0  0  0  0
    3.2017   -1.4190   -0.4059 N   0  0  0  0  0  0  0  0  0  0  0  0
   -1.3608   -0.4858    0.5375 C   0  0  1  0  0  0  0  0  0  0  0  0
   -0.5742   -1.6914    0.0575 C   0  0  1  0  0  0  0  0  0  0  0  0
    0.8555   -1.2110    0.2667 C   0  0  1  0  0  0  0  0  0  0  0  0
   -0.5173    0.6578   -0.0017 C   0  0  0  0  0  0  0  0  0  0  0  0
    1.8606   -1.9067   -0.6339 C   0  0  0  0  0  0  0  0  0  0  0  0
    5.3051    1.0150    0.4504 C   0  0  0  0  0  0  0  0  0  0  0  0
    5.1750   -0.0379   -0.6758 C   0  0  0  0  0  0  0  0  0  0  0  0
   -3.5281    0.5147    0.7992 C   0  0  0  0  0  0  0  0  0  0  0  0
    3.7467   -0.3480   -1.0934 C   0  0  0  0  0  0  0  0  0  0  0  0
    6.7806    1.2753    0.7974 C   0  0  0  0  0  0  0  0  0  0  0  0
    4.6837    2.3323   -0.0536 C   0  0  0  0  0  0  0  0  0  0  0  0
    4.5548    0.5783    1.7192 C   0  0  0  0  0  0  0  0  0  0  0  0
   -4.9480    0.5734    0.3021 C   0  0  0  0  0  0  0  0  0  0  0  0
   -5.8762   -0.4424    0.2370 C   0  0  0  0  0  0  0  0  0  0  0  0
   -7.1205    0.0031   -0.2951 C   0  0  0  0  0  0  0  0  0  0  0  0
   -7.0960    1.3425   -0.6163 C   0  0  0  0  0  0  0  0  0  0  0  0
   -1.3454   -0.4855    1.6367 H   0  0  0  0  0  0  0  0  0  0  0  0
   -0.7723   -1.8954   -1.0021 H   0  0  0  0  0  0  0  0  0  0  0  0
    1.1610   -1.3333    1.3143 H   0  0  0  0  0  0  0  0  0  0  0  0
   -0.7789    0.9183   -1.0338 H   0  0  0  0  0  0  0  0  0  0  0  0
   -0.5886    1.5617    0.6108 H   0  0  0  0  0  0  0  0  0  0  0  0
    1.8691   -2.9852   -0.4466 H   0  0  0  0  0  0  0  0  0  0  0  0
    1.6128   -1.7383   -1.6881 H   0  0  0  0  0  0  0  0  0  0  0  0
   -3.1439   -1.3806    0.1681 H   0  0  0  0  0  0  0  0  0  0  0  0
    3.7565   -1.8891    0.3031 H   0  0  0  0  0  0  0  0  0  0  0  0
    5.6653   -0.9704   -0.3670 H   0  0  0  0  0  0  0  0  0  0  0  0
    5.7107    0.2968   -1.5738 H   0  0  0  0  0  0  0  0  0  0  0  0
   -0.6765   -2.6702    1.7434 H   0  0  0  0  0  0  0  0  0  0  0  0
   -3.0686    1.5085    0.7353 H   0  0  0  0  0  0  0  0  0  0  0  0
   -3.5580    0.2431    1.8627 H   0  0  0  0  0  0  0  0  0  0  0  0
    6.8809    2.0418    1.5739 H   0  0  0  0  0  0  0  0  0  0  0  0
    7.3383    1.6154   -0.0823 H   0  0  0  0  0  0  0  0  0  0  0  0
    7.2618    0.3620    1.1645 H   0  0  0  0  0  0  0  0  0  0  0  0
    5.1418    2.6537   -0.9958 H   0  0  0  0  0  0  0  0  0  0  0  0
    4.8332    3.1375    0.6754 H   0  0  0  0  0  0  0  0  0  0  0  0
    3.6037    2.2460   -0.2128 H   0  0  0  0  0  0  0  0  0  0  0  0
    4.9108   -0.3970    2.0692 H   0  0  0  0  0  0  0  0  0  0  0  0
    4.7088    1.2972    2.5324 H   0  0  0  0  0  0  0  0  0  0  0  0
    3.4745    0.5083    1.5570 H   0  0  0  0  0  0  0  0  0  0  0  0
   -5.6789   -1.4579    0.5564 H   0  0  0  0  0  0  0  0  0  0  0  0
   -7.9895   -0.6265   -0.4347 H   0  0  0  0  0  0  0  0  0  0  0  0
   -7.8973    1.9355   -1.0341 H   0  0  0  0  0  0  0  0  0  0  0  0
  1 19  1  0  0  0  0
  1 22  1  0  0  0  0
  2  9  1  0  0  0  0
  2 10  1  0  0  0  0
  3  8  1  0  0  0  0
  3 34  1  0  0  0  0
  4 15  2  0  0  0  0
  5  7  1  0  0  0  0
  5 14  1  0  0  0  0
  5 30  1  0  0  0  0
  6 11  1  0  0  0  0
  6 15  1  0  0  0  0
  6 31  1  0  0  0  0
  7  8  1  0  0  0  0
  7 10  1  0  0  0  0
  7 23  1  0  0  0  0
  8  9  1  0  0  0  0
  8 24  1  0  0  0  0
  9 11  1  0  0  0  0
  9 25  1  0  0  0  0
 10 26  1  0  0  0  0
 10 27  1  0  0  0  0
 11 28  1  0  0  0  0
 11 29  1  0  0  0  0
 12 13  1  0  0  0  0
 12 16  1  0  0  0  0
 12 17  1  0  0  0  0
 12 18  1  0  0  0  0
 13 15  1  0  0  0  0
 13 32  1  0  0  0  0
 13 33  1  0  0  0  0
 14 19  1  0  0  0  0
 14 35  1  0  0  0  0
 14 36  1  0  0  0  0
 16 37  1  0  0  0  0
 16 38  1  0  0  0  0
 16 39  1  0  0  0  0
 17 40  1  0  0  0  0
 17 41  1  0  0  0  0
 17 42  1  0  0  0  0
 18 43  1  0  0  0  0
 18 44  1  0  0  0  0
 18 45  1  0  0  0  0
 19 20  2  0  0  0  0
 20 21  1  0  0  0  0
 20 46  1  0  0  0  0
 21 22  2  0  0  0  0
 21 47  1  0  0  0  0
 22 48  1  0  0  0  0
M  END
> <PUBCHEM_COMPOUND_CID>
86769002

> <PUBCHEM_CONFORMER_RMSD>
1

> <PUBCHEM_CONFORMER_DIVERSEORDER>
1
19
105
141
89
184
117
90
158
54
4
96
145
154
98
128
25
114
91
14
155
119
189
9
61
163
121
46
30
171
21
68
182
2
162
151
34
76
32
148
179
65
41
112
143
126
134
110
66
167
51
16
80
137
174
130
188
87
118
140
77
186
15
109
142
161
36
120
100
175
187
127
42
86
73
150
27
108
13
39
135
74
129
125
185
177
156
166
99
23
116
122
81
18
75
69
111
149
102
170
95
173
84
52
146
44
147
22
107
40
176
82
144
183
131
6
124
101
123
92
160
133
48
56
12
106
62
159
28
71
64
104
115
78
164
37
20
53
58
113
11
47
45
38
70
55
97
136
35
88
153
169
132
157
103
26
180
10
57
138
165
93
60
24
72
49
168
67
7
181
8
79
94
29
172
31
43
33
85
178
5
50
63
139
83
17
3
152
59

> <PUBCHEM_MMFF94_PARTIAL_CHARGES>
24
1 -0.08
10 0.28
11 0.3
13 0.06
14 0.45
15 0.57
19 -0.14
2 -0.56
20 -0.15
21 -0.15
22 -0.11
3 -0.68
30 0.36
31 0.37
34 0.4
4 -0.57
46 0.15
47 0.15
48 0.15
5 -0.9
6 -0.73
7 0.27
8 0.28
9 0.28

> <PUBCHEM_EFFECTIVE_ROTOR_COUNT>
9

> <PUBCHEM_PHARMACOPHORE_FEATURES>
10
1 2 acceptor
1 3 acceptor
1 3 donor
1 4 acceptor
1 5 cation
1 5 donor
1 6 donor
4 12 16 17 18 hydrophobe
5 1 19 20 21 22 rings
5 2 7 8 9 10 rings

> <PUBCHEM_HEAVY_ATOM_COUNT>
22

> <PUBCHEM_ATOM_DEF_STEREO_COUNT>
3

> <PUBCHEM_ATOM_UDEF_STEREO_COUNT>
0

> <PUBCHEM_BOND_DEF_STEREO_COUNT>
0

> <PUBCHEM_BOND_UDEF_STEREO_COUNT>
0

> <PUBCHEM_ISOTOPIC_ATOM_COUNT>
0

> <PUBCHEM_COMPONENT_COUNT>
1

> <PUBCHEM_CACTVS_TAUTO_COUNT>
2

> <PUBCHEM_CONFORMER_ID>
052BFD6A00000001

> <PUBCHEM_MMFF94_ENERGY>
39.3106

> <PUBCHEM_FEATURE_SELFOVERLAP>
50.746

> <PUBCHEM_SHAPE_FINGERPRINT>
10 15 18041002873049306929
10638233 991 15841550790835177819
10666366 153 10087643681193505515
12778500 126 15213013825955312700
13533116 47 18335422301612686658
13673619 4 11530475628251117366
13685833 64 8214145157616829292
14123256 34 10087637122140387477
14251764 18 16805325517507505996
14251764 30 9511461121689143977
14347424 109 13551472579330083838
14420673 8 9511457836614454793
14461889 52 18187935005779261843
14528608 73 18060420200881996259
14681490 219 17060338517739609161
15183329 4 15841551877293260385
15348495 7 12974186102511021245
15352257 5 10015864288676975693
16079462 125 18333728001348746565
173720 79 17894628153870505706
20157964 124 18131072619550393070
20554085 129 18340193142104058995
20567600 254 18412825785387188154
20715895 44 18410576206156406632
21150785 3 17346312709490492821
21521721 280 18201726150161690811
220451 1 13614524039560585045
23016692 55 10592044665171677928
23035841 295 11240000049197173029
23081809 10 16200157543406087139
23424782 7 17846212315463227631
23522609 53 13182474333865728115
23559900 14 18131343151161521369
2767999 5 18259985968181520581
2916195 48 18410293610071457681
300161 21 18411136931248073471
312425 54 13768217137254849497
335352 9 18341337730457896590
3472631 163 18339081592210218820
34797466 226 17418099806166358813
4072396 5 17095242505630607970
4325135 7 17917710205746386029
4340502 62 18333170561316464234
439807 62 10087656896291507752
465052 167 8430313545831382984
5104073 3 18115032888242588993
5207 217 17775566455267842775
59682541 52 16271927082218730197

> <PUBCHEM_SHAPE_MULTIPOLES>
429.03
19.56
2.15
1.12
14.2
0.4
-0.08
-11.59
-0.41
-0.58
0.1
-1.29
-0.05
1.21

> <PUBCHEM_SHAPE_SELFOVERLAP>
858.131

> <PUBCHEM_SHAPE_VOLUME>
256.1

> <PUBCHEM_COORDINATE_TYPE>
2
5
10

$$$$
