51137482
  -OEChem-12032416203D

 52 55  0     1  0  0  0  0  0999 V2000
   -7.3889   -1.2831    0.9829 S   0  0  0  0  0  0  0  0  0  0  0  0
    2.9042    0.6742    0.4958 O   0  0  0  0  0  0  0  0  0  0  0  0
   -7.3174   -2.7081    0.6897 O   0  0  0  0  0  0  0  0  0  0  0  0
   -7.4755   -0.8332    2.3650 O   0  0  0  0  0  0  0  0  0  0  0  0
    5.8577   -1.9631   -0.8888 O   0  0  0  0  0  0  0  0  0  0  0  0
   -1.5813    1.6864   -0.6358 N   0  0  1  0  0  0  0  0  0  0  0  0
    1.9017   -0.7873   -0.8692 N   0  0  0  0  0  0  0  0  0  0  0  0
    3.2456   -1.1063   -0.8147 N   0  0  0  0  0  0  0  0  0  0  0  0
    0.4968    1.0391    0.2371 C   0  0  1  0  0  0  0  0  0  0  0  0
    0.5434    2.5266   -0.1536 C   0  0  0  0  0  0  0  0  0  0  0  0
   -0.7517    0.4914   -0.4673 C   0  0  0  0  0  0  0  0  0  0  0  0
   -0.6543    2.7304   -1.0724 C   0  0  0  0  0  0  0  0  0  0  0  0
   -2.6679    1.4792   -1.5817 C   0  0  0  0  0  0  0  0  0  0  0  0
    1.7482    0.2573   -0.0895 C   0  0  0  0  0  0  0  0  0  0  0  0
   -3.8443    0.7909   -0.9420 C   0  0  0  0  0  0  0  0  0  0  0  0
   -4.3001   -0.4262   -1.4487 C   0  0  0  0  0  0  0  0  0  0  0  0
   -4.4788    1.3704    0.1566 C   0  0  0  0  0  0  0  0  0  0  0  0
    3.7913   -0.2274   -0.0069 C   0  0  0  0  0  0  0  0  0  0  0  0
   -5.3905   -1.0636   -0.8567 C   0  0  0  0  0  0  0  0  0  0  0  0
   -5.5690    0.7330    0.7487 C   0  0  0  0  0  0  0  0  0  0  0  0
   -6.0249   -0.4839    0.2421 C   0  0  0  0  0  0  0  0  0  0  0  0
    5.1519   -0.0739    0.4199 C   0  0  0  0  0  0  0  0  0  0  0  0
    6.1454   -0.9431   -0.0304 C   0  0  0  0  0  0  0  0  0  0  0  0
    5.4755    0.9600    1.2983 C   0  0  0  0  0  0  0  0  0  0  0  0
   -8.8023   -0.6458    0.1111 C   0  0  0  0  0  0  0  0  0  0  0  0
    7.4626   -0.7784    0.3977 C   0  0  0  0  0  0  0  0  0  0  0  0
    6.7928    1.1248    1.7265 C   0  0  0  0  0  0  0  0  0  0  0  0
    7.7864    0.2556    1.2762 C   0  0  0  0  0  0  0  0  0  0  0  0
    6.9431   -2.7959   -1.2899 C   0  0  0  0  0  0  0  0  0  0  0  0
    0.3483    0.9762    1.3241 H   0  0  0  0  0  0  0  0  0  0  0  0
    0.4364    3.1429    0.7478 H   0  0  0  0  0  0  0  0  0  0  0  0
    1.4758    2.8179   -0.6487 H   0  0  0  0  0  0  0  0  0  0  0  0
   -1.2468   -0.2699    0.1455 H   0  0  0  0  0  0  0  0  0  0  0  0
   -0.4994    0.0414   -1.4365 H   0  0  0  0  0  0  0  0  0  0  0  0
   -0.3504    2.5902   -2.1178 H   0  0  0  0  0  0  0  0  0  0  0  0
   -1.0780    3.7335   -0.9616 H   0  0  0  0  0  0  0  0  0  0  0  0
   -3.0422    2.4496   -1.9375 H   0  0  0  0  0  0  0  0  0  0  0  0
   -2.3315    0.9477   -2.4818 H   0  0  0  0  0  0  0  0  0  0  0  0
   -3.8156   -0.8890   -2.3043 H   0  0  0  0  0  0  0  0  0  0  0  0
   -4.1397    2.3218    0.5580 H   0  0  0  0  0  0  0  0  0  0  0  0
   -5.7327   -2.0077   -1.2711 H   0  0  0  0  0  0  0  0  0  0  0  0
   -6.0529    1.2067    1.5982 H   0  0  0  0  0  0  0  0  0  0  0  0
    4.7322    1.6591    1.6733 H   0  0  0  0  0  0  0  0  0  0  0  0
   -8.7139   -0.9038   -0.9459 H   0  0  0  0  0  0  0  0  0  0  0  0
   -8.8433    0.4368    0.2449 H   0  0  0  0  0  0  0  0  0  0  0  0
   -9.6974   -1.1072    0.5337 H   0  0  0  0  0  0  0  0  0  0  0  0
    8.2888   -1.4113    0.0932 H   0  0  0  0  0  0  0  0  0  0  0  0
    7.0454    1.9297    2.4106 H   0  0  0  0  0  0  0  0  0  0  0  0
    8.8118    0.3850    1.6104 H   0  0  0  0  0  0  0  0  0  0  0  0
    7.6955   -2.2363   -1.8563 H   0  0  0  0  0  0  0  0  0  0  0  0
    7.3738   -3.3375   -0.4407 H   0  0  0  0  0  0  0  0  0  0  0  0
    6.5340   -3.5505   -1.9700 H   0  0  0  0  0  0  0  0  0  0  0  0
  1  3  2  0  0  0  0
  1  4  2  0  0  0  0
  1 21  1  0  0  0  0
  1 25  1  0  0  0  0
  2 14  1  0  0  0  0
  2 18  1  0  0  0  0
  5 23  1  0  0  0  0
  5 29  1  0  0  0  0
  6 11  1  0  0  0  0
  6 12  1  0  0  0  0
  6 13  1  0  0  0  0
  7  8  1  0  0  0  0
  7 14  2  0  0  0  0
  8 18  2  0  0  0  0
  9 10  1  0  0  0  0
  9 11  1  0  0  0  0
  9 14  1  0  0  0  0
  9 30  1  0  0  0  0
 10 12  1  0  0  0  0
 10 31  1  0  0  0  0
 10 32  1  0  0  0  0
 11 33  1  0  0  0  0
 11 34  1  0  0  0  0
 12 35  1  0  0  0  0
 12 36  1  0  0  0  0
 13 15  1  0  0  0  0
 13 37  1  0  0  0  0
 13 38  1  0  0  0  0
 15 16  2  0  0  0  0
 15 17  1  0  0  0  0
 16 19  1  0  0  0  0
 16 39  1  0  0  0  0
 17 20  2  0  0  0  0
 17 40  1  0  0  0  0
 18 22  1  0  0  0  0
 19 21  2  0  0  0  0
 19 41  1  0  0  0  0
 20 21  1  0  0  0  0
 20 42  1  0  0  0  0
 22 23  1  0  0  0  0
 22 24  2  0  0  0  0
 23 26  2  0  0  0  0
 24 27  1  0  0  0  0
 24 43  1  0  0  0  0
 25 44  1  0  0  0  0
 25 45  1  0  0  0  0
 25 46  1  0  0  0  0
 26 28  1  0  0  0  0
 26 47  1  0  0  0  0
 27 28  2  0  0  0  0
 27 48  1  0  0  0  0
 28 49  1  0  0  0  0
 29 50  1  0  0  0  0
 29 51  1  0  0  0  0
 29 52  1  0  0  0  0
M  END
> <PUBCHEM_COMPOUND_CID>
51137482

> <PUBCHEM_CONFORMER_RMSD>
1.2

> <PUBCHEM_CONFORMER_DIVERSEORDER>
8
84
46
7
48
29
54
85
52
27
12
35
82
61
24
51
40
53
41
4
10
86
50
37
63
83
43
45
64
81
21
18
6
87
71
56
13
3
72
90
34
55
16
57
14
47
78
49
73
30
67
11
58
79
20
70
17
65
60
88
89
80
32
31
28
69
25
36
26
23
77
68
44
91
19
5
33
2
62
15
66
76
42
39
1
59
38
9
75
74
22

> <PUBCHEM_MMFF94_PARTIAL_CHARGES>
36
1 1.2
11 0.27
12 0.27
13 0.41
14 0.3
15 -0.14
16 -0.15
17 -0.15
18 0.43
19 -0.15
2 -0.28
20 -0.15
21 -0.01
22 0.05
23 0.08
24 -0.15
25 0.11
26 -0.15
27 -0.15
28 -0.15
29 0.28
3 -0.65
39 0.15
4 -0.65
40 0.15
41 0.15
42 0.15
43 0.15
47 0.15
48 0.15
49 0.15
5 -0.36
6 -0.81
7 -0.34
8 -0.34
9 0.18

> <PUBCHEM_EFFECTIVE_ROTOR_COUNT>
7

> <PUBCHEM_PHARMACOPHORE_FEATURES>
8
1 3 acceptor
1 4 acceptor
1 5 acceptor
1 6 cation
5 2 7 8 14 18 rings
5 6 9 10 11 12 rings
6 15 16 17 19 20 21 rings
6 22 23 24 26 27 28 rings

> <PUBCHEM_HEAVY_ATOM_COUNT>
29

> <PUBCHEM_ATOM_DEF_STEREO_COUNT>
1

> <PUBCHEM_ATOM_UDEF_STEREO_COUNT>
0

> <PUBCHEM_BOND_DEF_STEREO_COUNT>
0

> <PUBCHEM_BOND_UDEF_STEREO_COUNT>
0

> <PUBCHEM_ISOTOPIC_ATOM_COUNT>
0

> <PUBCHEM_COMPONENT_COUNT>
1

> <PUBCHEM_CACTVS_TAUTO_COUNT>
1

> <PUBCHEM_CONFORMER_ID>
030C4BCA00000008

> <PUBCHEM_MMFF94_ENERGY>
69.5

> <PUBCHEM_FEATURE_SELFOVERLAP>
40.615

> <PUBCHEM_SHAPE_FINGERPRINT>
10 15 16702304564062143825
10299344 5 17132109156432488172
10669705 176 9511461130717227369
10674148 151 17095238125956527809
11386260 185 12324247136161331046
11456790 92 17632005370135271738
11963148 33 18186792557115904002
12082328 90 13262396640493375725
12166972 35 16805325483586046820
12730499 353 18059846252640930126
13008946 62 17770501147898905772
13673619 4 17967249819534414125
13685833 64 18409730672997754457
13690498 29 17313095363930638389
13782708 43 18267017263911614198
14251764 18 16486969614082580765
14556957 393 14779552232025092663
14849402 71 17488734730832163920
14856354 85 15984808380926542221
15142383 8 11527945669507464938
15183329 4 11674871186927454404
15350500 55 13542197048294566115
15352257 5 18343018883040686918
15510794 2 18410851027758842343
15510800 12 18113912571551001563
16110190 28 18130782390876302735
16992779 147 16915362528471877392
17780758 139 18201718445269936193
18335252 98 18412262831697890782
18643901 69 17748547031374165951
190975 80 18409447024419614408
20105231 36 17846786179028899118
21095123 293 15051734222356638088
21130935 74 18342458084934446194
21150785 3 14923944548243167562
21267235 1 18407760330648770452
21298829 104 10087654702016997691
21521721 280 17561072645090578778
22149856 69 18271815592246843648
22864921 47 17677311875574973466
2303208 19 18340483366519793452
23081809 10 15430317971685906308
23424782 7 18410856547598906638
23522609 53 16414912080042917640
23569917 315 17241321370894687706
23569943 247 17611180456712943314
23576562 1 8646185031889726691
2747138 104 18409168805091534616
3178227 256 17988922288791614248
335507 130 18412541033719981924
3383291 50 18187086187139959595
3418910 222 18335424565377632196
393628 179 10879710936678770843
4461854 278 18201722885475466871
5104073 3 18057313999562420064
5385378 56 12967141488198509189
54039377 194 18113902662618181879
5470011 282 16081091493437382471
58083652 198 17274522278965873056
59682541 35 18410284848676226152
59682541 52 12757145767184228408
6009941 240 18340486652386656753
6126387 218 18343298155543089397
6328613 192 10807638039645441050
636775 8 18334020458725904758
6691757 9 16056878070747111431
9511036 111 17201343308766540511
9663363 56 18187074066820864149
9953998 17 18202847665286413811
9962374 69 18267297811254302487
999808 66 18408605868661240591

> <PUBCHEM_SHAPE_MULTIPOLES>
562.24
27.85
2.37
1.48
5.97
0.14
0.29
16.62
10.69
-0.27
-0.64
0.49
0.09
3.46

> <PUBCHEM_SHAPE_SELFOVERLAP>
1203.543

> <PUBCHEM_SHAPE_VOLUME>
314.9

> <PUBCHEM_COORDINATE_TYPE>
2
5
10

$$$$
