71693197
  -OEChem-12032416403D

 67 69  0     1  0  0  0  0  0999 V2000
    3.6080    2.3025    1.0695 O   0  0  0  0  0  0  0  0  0  0  0  0
   -6.0493    0.7965    0.9950 O   0  0  0  0  0  0  0  0  0  0  0  0
   -1.1504    3.8010   -0.1822 O   0  0  0  0  0  0  0  0  0  0  0  0
    0.2688    5.4012   -0.9455 O   0  0  0  0  0  0  0  0  0  0  0  0
    4.0414    0.4071   -0.2004 N   0  0  0  0  0  0  0  0  0  0  0  0
   -1.5094   -0.2827   -0.4888 N   0  0  0  0  0  0  0  0  0  0  0  0
   -2.1219   -2.1714   -1.4874 N   0  0  0  0  0  0  0  0  0  0  0  0
    1.8961   -1.1812    1.1846 C   0  0  1  0  0  0  0  0  0  0  0  0
    3.3437   -1.6543    0.9007 C   0  0  1  0  0  0  0  0  0  0  0  0
    0.8879   -2.2671    0.7790 C   0  0  0  0  0  0  0  0  0  0  0  0
    0.9972   -2.6358   -0.7126 C   0  0  2  0  0  0  0  0  0  0  0  0
    1.6968   -0.8128    2.6580 C   0  0  0  0  0  0  0  0  0  0  0  0
    2.4358   -2.8568   -1.1340 C   0  0  0  0  0  0  0  0  0  0  0  0
    3.4713   -2.4228   -0.3937 C   0  0  0  0  0  0  0  0  0  0  0  0
    4.3200   -0.4725    0.8912 C   0  0  0  0  0  0  0  0  0  0  0  0
    0.3235   -1.5780   -1.5938 C   0  0  0  0  0  0  0  0  0  0  0  0
    0.5428    0.1734    2.8086 C   0  0  0  0  0  0  0  0  0  0  0  0
    1.4493   -2.0663    3.4911 C   0  0  0  0  0  0  0  0  0  0  0  0
    2.6581   -3.6289   -2.4047 C   0  0  0  0  0  0  0  0  0  0  0  0
   -1.1137   -1.3763   -1.2073 C   0  0  0  0  0  0  0  0  0  0  0  0
    3.7016    1.7484   -0.0224 C   0  0  0  0  0  0  0  0  0  0  0  0
   -2.8632   -0.3782   -0.2924 C   0  0  0  0  0  0  0  0  0  0  0  0
   -3.2217   -1.5655   -0.9248 C   0  0  0  0  0  0  0  0  0  0  0  0
    3.4283    2.4505   -1.3419 C   0  0  0  0  0  0  0  0  0  0  0  0
   -3.7770    0.4466    0.3643 C   0  0  0  0  0  0  0  0  0  0  0  0
    2.4130    3.5867   -1.2346 C   0  0  0  0  0  0  0  0  0  0  0  0
   -4.5673   -1.9694   -0.9113 C   0  0  0  0  0  0  0  0  0  0  0  0
   -5.1121    0.0293    0.3680 C   0  0  0  0  0  0  0  0  0  0  0  0
   -5.5024   -1.1569   -0.2579 C   0  0  0  0  0  0  0  0  0  0  0  0
    1.0471    3.1030   -0.7433 C   0  0  0  0  0  0  0  0  0  0  0  0
    0.0502    4.2353   -0.6473 C   0  0  0  0  0  0  0  0  0  0  0  0
   -5.5926    1.9957    1.6161 C   0  0  0  0  0  0  0  0  0  0  0  0
    1.6889   -0.2916    0.5775 H   0  0  0  0  0  0  0  0  0  0  0  0
    3.6684   -2.3382    1.6950 H   0  0  0  0  0  0  0  0  0  0  0  0
   -0.1347   -2.0054    1.0609 H   0  0  0  0  0  0  0  0  0  0  0  0
    1.1079   -3.1991    1.3183 H   0  0  0  0  0  0  0  0  0  0  0  0
    0.4570   -3.5854   -0.8381 H   0  0  0  0  0  0  0  0  0  0  0  0
    2.5893   -0.3152    3.0511 H   0  0  0  0  0  0  0  0  0  0  0  0
    4.4837   -2.6513   -0.7214 H   0  0  0  0  0  0  0  0  0  0  0  0
    5.3462   -0.8326    0.7484 H   0  0  0  0  0  0  0  0  0  0  0  0
    4.3115    0.0719    1.8393 H   0  0  0  0  0  0  0  0  0  0  0  0
    0.3402   -1.8927   -2.6447 H   0  0  0  0  0  0  0  0  0  0  0  0
    0.8627   -0.6232   -1.5537 H   0  0  0  0  0  0  0  0  0  0  0  0
    0.7256    1.0835    2.2280 H   0  0  0  0  0  0  0  0  0  0  0  0
    0.4294    0.4708    3.8570 H   0  0  0  0  0  0  0  0  0  0  0  0
   -0.4122   -0.2507    2.4839 H   0  0  0  0  0  0  0  0  0  0  0  0
    1.4929   -1.8045    4.5557 H   0  0  0  0  0  0  0  0  0  0  0  0
    2.2098   -2.8365    3.3319 H   0  0  0  0  0  0  0  0  0  0  0  0
    0.4566   -2.5005    3.3329 H   0  0  0  0  0  0  0  0  0  0  0  0
    2.1545   -4.5996   -2.3526 H   0  0  0  0  0  0  0  0  0  0  0  0
    3.7205   -3.8194   -2.5907 H   0  0  0  0  0  0  0  0  0  0  0  0
    2.2675   -3.0788   -3.2660 H   0  0  0  0  0  0  0  0  0  0  0  0
    4.1562    0.0519   -1.1452 H   0  0  0  0  0  0  0  0  0  0  0  0
   -0.9122    0.4635   -0.1574 H   0  0  0  0  0  0  0  0  0  0  0  0
    4.3841    2.8461   -1.7045 H   0  0  0  0  0  0  0  0  0  0  0  0
    3.0738    1.7225   -2.0814 H   0  0  0  0  0  0  0  0  0  0  0  0
   -3.4098    1.3521    0.8293 H   0  0  0  0  0  0  0  0  0  0  0  0
    2.7937    4.3577   -0.5528 H   0  0  0  0  0  0  0  0  0  0  0  0
    2.3061    4.0635   -2.2166 H   0  0  0  0  0  0  0  0  0  0  0  0
   -4.8805   -2.8892   -1.3947 H   0  0  0  0  0  0  0  0  0  0  0  0
   -6.5466   -1.4606   -0.2417 H   0  0  0  0  0  0  0  0  0  0  0  0
    0.6474    2.3561   -1.4383 H   0  0  0  0  0  0  0  0  0  0  0  0
    1.1292    2.6536    0.2509 H   0  0  0  0  0  0  0  0  0  0  0  0
   -6.4664    2.4801    2.0644 H   0  0  0  0  0  0  0  0  0  0  0  0
   -5.1805    2.6981    0.8835 H   0  0  0  0  0  0  0  0  0  0  0  0
   -4.8918    1.7863    2.4315 H   0  0  0  0  0  0  0  0  0  0  0  0
   -1.8035    4.5302   -0.1184 H   0  0  0  0  0  0  0  0  0  0  0  0
  1 21  2  0  0  0  0
  2 28  1  0  0  0  0
  2 32  1  0  0  0  0
  3 31  1  0  0  0  0
  3 67  1  0  0  0  0
  4 31  2  0  0  0  0
  5 15  1  0  0  0  0
  5 21  1  0  0  0  0
  5 53  1  0  0  0  0
  6 20  1  0  0  0  0
  6 22  1  0  0  0  0
  6 54  1  0  0  0  0
  7 20  2  0  0  0  0
  7 23  1  0  0  0  0
  8  9  1  0  0  0  0
  8 10  1  0  0  0  0
  8 12  1  0  0  0  0
  8 33  1  0  0  0  0
  9 14  1  0  0  0  0
  9 15  1  0  0  0  0
  9 34  1  0  0  0  0
 10 11  1  0  0  0  0
 10 35  1  0  0  0  0
 10 36  1  0  0  0  0
 11 13  1  0  0  0  0
 11 16  1  0  0  0  0
 11 37  1  0  0  0  0
 12 17  1  0  0  0  0
 12 18  1  0  0  0  0
 12 38  1  0  0  0  0
 13 14  2  0  0  0  0
 13 19  1  0  0  0  0
 14 39  1  0  0  0  0
 15 40  1  0  0  0  0
 15 41  1  0  0  0  0
 16 20  1  0  0  0  0
 16 42  1  0  0  0  0
 16 43  1  0  0  0  0
 17 44  1  0  0  0  0
 17 45  1  0  0  0  0
 17 46  1  0  0  0  0
 18 47  1  0  0  0  0
 18 48  1  0  0  0  0
 18 49  1  0  0  0  0
 19 50  1  0  0  0  0
 19 51  1  0  0  0  0
 19 52  1  0  0  0  0
 21 24  1  0  0  0  0
 22 23  2  0  0  0  0
 22 25  1  0  0  0  0
 23 27  1  0  0  0  0
 24 26  1  0  0  0  0
 24 55  1  0  0  0  0
 24 56  1  0  0  0  0
 25 28  2  0  0  0  0
 25 57  1  0  0  0  0
 26 30  1  0  0  0  0
 26 58  1  0  0  0  0
 26 59  1  0  0  0  0
 27 29  2  0  0  0  0
 27 60  1  0  0  0  0
 28 29  1  0  0  0  0
 29 61  1  0  0  0  0
 30 31  1  0  0  0  0
 30 62  1  0  0  0  0
 30 63  1  0  0  0  0
 32 64  1  0  0  0  0
 32 65  1  0  0  0  0
 32 66  1  0  0  0  0
M  END
> <PUBCHEM_COMPOUND_CID>
71693197

> <PUBCHEM_CONFORMER_RMSD>
1.2

> <PUBCHEM_CONFORMER_DIVERSEORDER>
2
18
26
31
40
44
42
15
46
1
8
39
23
24
21
32
19
9
36
47
38
13
14
37
28
12
17
25
10
4
45
29
6
35
16
27
7
20
43
33
30
5
34
11
41
3
22

> <PUBCHEM_MMFF94_PARTIAL_CHARGES>
33
1 -0.57
11 0.14
13 -0.28
14 -0.29
15 0.3
16 0.18
19 0.14
2 -0.36
20 0.01
21 0.57
22 -0.15
23 0.23
24 0.06
25 -0.15
27 -0.15
28 0.08
29 -0.15
3 -0.65
30 0.06
31 0.66
32 0.28
39 0.15
4 -0.57
5 -0.73
53 0.37
54 0.27
57 0.15
6 0.03
60 0.15
61 0.15
67 0.5
7 -0.57
9 0.14

> <PUBCHEM_EFFECTIVE_ROTOR_COUNT>
11.8

> <PUBCHEM_PHARMACOPHORE_FEATURES>
12
1 1 acceptor
1 2 acceptor
1 3 acceptor
1 4 acceptor
1 5 donor
1 6 donor
3 12 17 18 hydrophobe
3 3 4 31 anion
3 6 7 20 cation
5 6 7 20 22 23 rings
6 22 23 25 27 28 29 rings
6 8 9 10 11 13 14 rings

> <PUBCHEM_HEAVY_ATOM_COUNT>
32

> <PUBCHEM_ATOM_DEF_STEREO_COUNT>
3

> <PUBCHEM_ATOM_UDEF_STEREO_COUNT>
0

> <PUBCHEM_BOND_DEF_STEREO_COUNT>
0

> <PUBCHEM_BOND_UDEF_STEREO_COUNT>
0

> <PUBCHEM_ISOTOPIC_ATOM_COUNT>
0

> <PUBCHEM_COMPONENT_COUNT>
1

> <PUBCHEM_CACTVS_TAUTO_COUNT>
6

> <PUBCHEM_CONFORMER_ID>
0445F38D00000002

> <PUBCHEM_MMFF94_ENERGY>
61.6527

> <PUBCHEM_FEATURE_SELFOVERLAP>
61.06

> <PUBCHEM_SHAPE_FINGERPRINT>
10483366 6 18266483021909951500
11421498 54 17752777822414962330
12156800 1 14904841491862793542
12422481 6 18124565679740840586
15001296 14 18341050830399894865
15082195 135 18200016444151208415
20764821 26 16463315476278228572
21033648 29 17843666774256465979
23559900 14 17988647324838430671
3493558 16 18271820033374539067
373842 8 18338237038621738789
392239 28 17385994122069272786
42626532 9 17974319558746926939
445580 8 18337661027034031408
474 4 18263640826278611590

> <PUBCHEM_SHAPE_MULTIPOLES>
620.12
10.37
5.69
2.44
15.81
7.64
-2.01
-0.06
-1.49
-3.77
3.2
-1.45
-1.46
-1.63

> <PUBCHEM_SHAPE_SELFOVERLAP>
1295.187

> <PUBCHEM_SHAPE_VOLUME>
350.4

> <PUBCHEM_COORDINATE_TYPE>
2
5
10

$$$$
