45361432
  -OEChem-12032416333D

 72 74  0     1  0  0  0  0  0999 V2000
    1.8958   -1.9285   -0.5103 O   0  0  0  0  0  0  0  0  0  0  0  0
    6.4065    0.0860    1.3855 O   0  0  0  0  0  0  0  0  0  0  0  0
   -3.9091    1.4368   -1.9638 O   0  0  0  0  0  0  0  0  0  0  0  0
   -3.0129    0.3309   -0.1337 N   0  0  0  0  0  0  0  0  0  0  0  0
    6.3591   -0.8682   -0.7280 N   0  0  0  0  0  0  0  0  0  0  0  0
  -10.2957   -1.5551    0.7063 N   0  0  0  0  0  0  0  0  0  0  0  0
    1.0100    1.5444    0.8049 C   0  0  1  0  0  0  0  0  0  0  0  0
    0.8388    0.2055    0.0131 C   0  0  2  0  0  0  0  0  0  0  0  0
   -0.6321   -0.3323    0.1358 C   0  0  1  0  0  0  0  0  0  0  0  0
    1.9558   -0.8135    0.3804 C   0  0  2  0  0  0  0  0  0  0  0  0
    2.4332    2.1038    0.5709 C   0  0  0  0  0  0  0  0  0  0  0  0
    3.3751   -0.2147    0.2440 C   0  0  1  0  0  0  0  0  0  0  0  0
    0.0011    2.5832    0.2630 C   0  0  0  0  0  0  0  0  0  0  0  0
   -1.6423    0.7487   -0.3416 C   0  0  2  0  0  0  0  0  0  0  0  0
    3.5296    1.1235    0.9664 C   0  0  0  0  0  0  0  0  0  0  0  0
   -1.4426    2.1063    0.3317 C   0  0  0  0  0  0  0  0  0  0  0  0
    0.7897    1.3659    2.3285 C   0  0  0  0  0  0  0  0  0  0  0  0
    4.4532   -1.1890    0.7343 C   0  0  2  0  0  0  0  0  0  0  0  0
   -0.8788   -1.6346   -0.6445 C   0  0  0  0  0  0  0  0  0  0  0  0
    4.2162   -1.5405    2.1989 C   0  0  0  0  0  0  0  0  0  0  0  0
    5.8369   -0.5817    0.5249 C   0  0  0  0  0  0  0  0  0  0  0  0
   -4.0407    0.7182   -0.9765 C   0  0  0  0  0  0  0  0  0  0  0  0
    7.6557   -0.4003   -1.1598 C   0  0  0  0  0  0  0  0  0  0  0  0
   -5.3944    0.2269   -0.6116 C   0  0  0  0  0  0  0  0  0  0  0  0
    7.9228   -0.8928   -2.5867 C   0  0  0  0  0  0  0  0  0  0  0  0
    7.6714    1.1315   -1.1282 C   0  0  0  0  0  0  0  0  0  0  0  0
    8.7324   -0.9499   -0.2169 C   0  0  0  0  0  0  0  0  0  0  0  0
   -6.5250    0.9500   -0.9917 C   0  0  0  0  0  0  0  0  0  0  0  0
   -5.5345   -0.9586    0.1101 C   0  0  0  0  0  0  0  0  0  0  0  0
   -7.7957    0.4876   -0.6502 C   0  0  0  0  0  0  0  0  0  0  0  0
   -6.8054   -1.4208    0.4517 C   0  0  0  0  0  0  0  0  0  0  0  0
   -7.9361   -0.6979    0.0714 C   0  0  0  0  0  0  0  0  0  0  0  0
   -9.2382   -1.1710    0.4218 C   0  0  0  0  0  0  0  0  0  0  0  0
    0.9775    0.4350   -1.0557 H   0  0  0  0  0  0  0  0  0  0  0  0
   -0.8383   -0.5637    1.1885 H   0  0  0  0  0  0  0  0  0  0  0  0
    1.7512   -1.1881    1.3850 H   0  0  0  0  0  0  0  0  0  0  0  0
    2.5595    2.3588   -0.4901 H   0  0  0  0  0  0  0  0  0  0  0  0
    2.5703    3.0397    1.1279 H   0  0  0  0  0  0  0  0  0  0  0  0
    3.5604   -0.0323   -0.8252 H   0  0  0  0  0  0  0  0  0  0  0  0
    0.2389    2.8171   -0.7835 H   0  0  0  0  0  0  0  0  0  0  0  0
    0.0929    3.5267    0.8160 H   0  0  0  0  0  0  0  0  0  0  0  0
   -1.4981    0.8895   -1.4218 H   0  0  0  0  0  0  0  0  0  0  0  0
    3.5268    1.0263    2.0537 H   0  0  0  0  0  0  0  0  0  0  0  0
    4.4826    1.5964    0.7032 H   0  0  0  0  0  0  0  0  0  0  0  0
   -2.0852    2.8566   -0.1471 H   0  0  0  0  0  0  0  0  0  0  0  0
   -1.7758    2.0634    1.3758 H   0  0  0  0  0  0  0  0  0  0  0  0
   -0.2253    1.0447    2.5760 H   0  0  0  0  0  0  0  0  0  0  0  0
    0.9619    2.3116    2.8557 H   0  0  0  0  0  0  0  0  0  0  0  0
    1.4641    0.6239    2.7649 H   0  0  0  0  0  0  0  0  0  0  0  0
    4.4022   -2.1221    0.1583 H   0  0  0  0  0  0  0  0  0  0  0  0
   -0.3719   -2.4803   -0.1716 H   0  0  0  0  0  0  0  0  0  0  0  0
   -1.9396   -1.9049   -0.6641 H   0  0  0  0  0  0  0  0  0  0  0  0
   -0.5402   -1.5467   -1.6820 H   0  0  0  0  0  0  0  0  0  0  0  0
   -3.2139   -0.1681    0.7265 H   0  0  0  0  0  0  0  0  0  0  0  0
    2.0256   -1.5991   -1.4159 H   0  0  0  0  0  0  0  0  0  0  0  0
    3.3019   -2.1179    2.3550 H   0  0  0  0  0  0  0  0  0  0  0  0
    5.0346   -2.1848    2.5461 H   0  0  0  0  0  0  0  0  0  0  0  0
    4.2158   -0.6847    2.8771 H   0  0  0  0  0  0  0  0  0  0  0  0
    5.8038   -1.4180   -1.3776 H   0  0  0  0  0  0  0  0  0  0  0  0
    8.9000   -0.5563   -2.9502 H   0  0  0  0  0  0  0  0  0  0  0  0
    7.1600   -0.5225   -3.2817 H   0  0  0  0  0  0  0  0  0  0  0  0
    7.9038   -1.9878   -2.6371 H   0  0  0  0  0  0  0  0  0  0  0  0
    7.5984    1.5441   -0.1177 H   0  0  0  0  0  0  0  0  0  0  0  0
    6.8412    1.5466   -1.7121 H   0  0  0  0  0  0  0  0  0  0  0  0
    8.6030    1.5183   -1.5581 H   0  0  0  0  0  0  0  0  0  0  0  0
    8.6617   -0.5496    0.7988 H   0  0  0  0  0  0  0  0  0  0  0  0
    9.7344   -0.6984   -0.5843 H   0  0  0  0  0  0  0  0  0  0  0  0
    8.6719   -2.0422   -0.1435 H   0  0  0  0  0  0  0  0  0  0  0  0
   -6.4362    1.8780   -1.5504 H   0  0  0  0  0  0  0  0  0  0  0  0
   -4.6827   -1.5676    0.3983 H   0  0  0  0  0  0  0  0  0  0  0  0
   -8.6676    1.0628   -0.9526 H   0  0  0  0  0  0  0  0  0  0  0  0
   -6.8994   -2.3501    1.0088 H   0  0  0  0  0  0  0  0  0  0  0  0
  1 10  1  0  0  0  0
  1 55  1  0  0  0  0
  2 21  2  0  0  0  0
  3 22  2  0  0  0  0
  4 14  1  0  0  0  0
  4 22  1  0  0  0  0
  4 54  1  0  0  0  0
  5 21  1  0  0  0  0
  5 23  1  0  0  0  0
  5 59  1  0  0  0  0
  6 33  3  0  0  0  0
  7  8  1  0  0  0  0
  7 11  1  0  0  0  0
  7 13  1  0  0  0  0
  7 17  1  0  0  0  0
  8  9  1  0  0  0  0
  8 10  1  0  0  0  0
  8 34  1  0  0  0  0
  9 14  1  0  0  0  0
  9 19  1  0  0  0  0
  9 35  1  0  0  0  0
 10 12  1  0  0  0  0
 10 36  1  0  0  0  0
 11 15  1  0  0  0  0
 11 37  1  0  0  0  0
 11 38  1  0  0  0  0
 12 15  1  0  0  0  0
 12 18  1  0  0  0  0
 12 39  1  0  0  0  0
 13 16  1  0  0  0  0
 13 40  1  0  0  0  0
 13 41  1  0  0  0  0
 14 16  1  0  0  0  0
 14 42  1  0  0  0  0
 15 43  1  0  0  0  0
 15 44  1  0  0  0  0
 16 45  1  0  0  0  0
 16 46  1  0  0  0  0
 17 47  1  0  0  0  0
 17 48  1  0  0  0  0
 17 49  1  0  0  0  0
 18 20  1  0  0  0  0
 18 21  1  0  0  0  0
 18 50  1  0  0  0  0
 19 51  1  0  0  0  0
 19 52  1  0  0  0  0
 19 53  1  0  0  0  0
 20 56  1  0  0  0  0
 20 57  1  0  0  0  0
 20 58  1  0  0  0  0
 22 24  1  0  0  0  0
 23 25  1  0  0  0  0
 23 26  1  0  0  0  0
 23 27  1  0  0  0  0
 24 28  2  0  0  0  0
 24 29  1  0  0  0  0
 25 60  1  0  0  0  0
 25 61  1  0  0  0  0
 25 62  1  0  0  0  0
 26 63  1  0  0  0  0
 26 64  1  0  0  0  0
 26 65  1  0  0  0  0
 27 66  1  0  0  0  0
 27 67  1  0  0  0  0
 27 68  1  0  0  0  0
 28 30  1  0  0  0  0
 28 69  1  0  0  0  0
 29 31  2  0  0  0  0
 29 70  1  0  0  0  0
 30 32  2  0  0  0  0
 30 71  1  0  0  0  0
 31 32  1  0  0  0  0
 31 72  1  0  0  0  0
 32 33  1  0  0  0  0
M  END
> <PUBCHEM_COMPOUND_CID>
45361432

> <PUBCHEM_CONFORMER_RMSD>
1

> <PUBCHEM_CONFORMER_DIVERSEORDER>
1
18
29
35
27
10
34
44
22
32
41
30
9
33
42
38
39
13
26
16
24
25
21
19
36
23
31
6
15
40
14
45
2
7
20
17
37
5
28
43
8
3
12
11
4

> <PUBCHEM_MMFF94_PARTIAL_CHARGES>
26
1 -0.68
10 0.28
14 0.3
18 0.06
2 -0.57
21 0.57
22 0.54
23 0.3
24 0.09
28 -0.15
29 -0.15
3 -0.57
30 -0.15
31 -0.15
32 0.07
33 0.48
4 -0.73
5 -0.73
54 0.37
55 0.4
59 0.37
6 -0.56
69 0.15
70 0.15
71 0.15
72 0.15

> <PUBCHEM_EFFECTIVE_ROTOR_COUNT>
8.6

> <PUBCHEM_PHARMACOPHORE_FEATURES>
12
1 1 acceptor
1 1 donor
1 2 acceptor
1 20 hydrophobe
1 3 acceptor
1 4 donor
1 5 donor
1 6 acceptor
4 23 25 26 27 hydrophobe
6 24 28 29 30 31 32 rings
6 7 8 10 11 12 15 rings
6 7 8 9 13 14 16 rings

> <PUBCHEM_HEAVY_ATOM_COUNT>
33

> <PUBCHEM_ATOM_DEF_STEREO_COUNT>
6

> <PUBCHEM_ATOM_UDEF_STEREO_COUNT>
1

> <PUBCHEM_BOND_DEF_STEREO_COUNT>
0

> <PUBCHEM_BOND_UDEF_STEREO_COUNT>
0

> <PUBCHEM_ISOTOPIC_ATOM_COUNT>
0

> <PUBCHEM_COMPONENT_COUNT>
1

> <PUBCHEM_CACTVS_TAUTO_COUNT>
4

> <PUBCHEM_CONFORMER_ID>
02B4291800000001

> <PUBCHEM_MMFF94_ENERGY>
98.6759

> <PUBCHEM_FEATURE_SELFOVERLAP>
60.911

> <PUBCHEM_SHAPE_FINGERPRINT>
10076449 9 18411141337451638601
10190108 129 16272211868662634114
10299344 5 18113336401872436611
10533779 1 15792878787888481836
10533779 47 15697730254469298031
10591671 39 18408605834190368996
10883706 142 16298099900889490756
11315181 36 17894348857608038397
11331351 85 16773794796704301736
12089408 11 16588019096488418819
13150687 139 14923947813067166480
13165053 68 16879931869513979695
13383668 254 15357993213829924349
13617811 41 18342179947759046540
13673619 4 18272083898817271681
14347424 109 13254785851065744858
14359421 15 16700635420287607558
15301273 46 17489869319219760392
15352257 5 18333726932276605283
15840311 113 17531252777554441142
16067689 302 18130793313274445134
16120349 18 15574718010682877494
16728433 281 16880171336481368685
17686467 74 16515688862343269877
1818759 1 18202568384547491367
18335252 98 18408323263654736302
18365409 1 15936985131382274795
18608769 82 18408884053097033631
19315958 150 17346590924745177664
20105231 36 18272653441424108335
20554085 129 12324240598767283388
21049683 271 18260548935020100861
21150785 3 17094961039328065644
21267235 1 18272088292362651737
21403212 168 8646768885248568916
21591340 7 9439399108388558769
21781051 124 18336551602505594338
21781055 127 16199610059698425169
21792961 116 18338792317098067262
23569943 247 16486416456486459446
246663 6 18343022194444244975
249057 3 18131066065235283007
2747138 104 18201434783247374768
3178227 256 18272647965699047107
335352 9 18343579659371021271
3383291 50 18131066043618385270
3552219 110 17988931075841918289
4258327 124 16515984630728411774
439807 62 17967245378580129235
4461854 278 17561083626779273215
484989 97 18335989773718057115
54039377 194 18341896290184504021
5470011 282 18187366519739083190
5776283 40 17603872242686228217
5937810 71 13840530836868375535
6057620 51 17240201014983007489
6081469 158 16056883515684292034
636775 8 18410016532761755567

> <PUBCHEM_SHAPE_MULTIPOLES>
646.57
29.4
2.05
1.6
24.26
0.7
0.04
-14.06
6.76
0.11
-0.3
-2.54
-0.02
1.55

> <PUBCHEM_SHAPE_SELFOVERLAP>
1349.71

> <PUBCHEM_SHAPE_VOLUME>
362.4

> <PUBCHEM_COORDINATE_TYPE>
2
5
10

$$$$
