71693922
  -OEChem-12032416293D

 45 47  0     1  0  0  0  0  0999 V2000
    1.4739    3.6526   -0.7809 O   0  0  0  0  0  0  0  0  0  0  0  0
    3.9680    2.5070   -0.7020 O   0  0  0  0  0  0  0  0  0  0  0  0
   -0.2514   -0.5562   -1.5516 O   0  0  0  0  0  0  0  0  0  0  0  0
   -0.0554    1.0895    0.0710 N   0  0  0  0  0  0  0  0  0  0  0  0
   -7.4970   -0.2662    0.5188 N   0  0  0  0  0  0  0  0  0  0  0  0
    2.1913    0.4592    0.9018 C   0  0  2  0  0  0  0  0  0  0  0  0
    1.3599    1.3124   -0.0827 C   0  0  2  0  0  0  0  0  0  0  0  0
    1.7531    2.7464    0.2695 C   0  0  1  0  0  0  0  0  0  0  0  0
    3.3941    1.3452    1.3171 C   0  0  0  0  0  0  0  0  0  0  0  0
    3.2524    2.6417    0.5221 C   0  0  1  0  0  0  0  0  0  0  0  0
    2.5771   -0.8910    0.3355 C   0  0  0  0  0  0  0  0  0  0  0  0
    2.1768   -2.0720    0.9603 C   0  0  0  0  0  0  0  0  0  0  0  0
    3.3434   -0.9428   -0.8288 C   0  0  0  0  0  0  0  0  0  0  0  0
   -0.7526    0.1594   -0.6883 C   0  0  0  0  0  0  0  0  0  0  0  0
    2.5430   -3.3051    0.4207 C   0  0  0  0  0  0  0  0  0  0  0  0
    1.3561   -2.0418    2.2075 C   0  0  0  0  0  0  0  0  0  0  0  0
    3.7098   -2.1760   -1.3683 C   0  0  0  0  0  0  0  0  0  0  0  0
    3.3095   -3.3571   -0.7437 C   0  0  0  0  0  0  0  0  0  0  0  0
   -2.2123    0.0683   -0.4277 C   0  0  0  0  0  0  0  0  0  0  0  0
   -3.0752   -0.3642   -1.4347 C   0  0  0  0  0  0  0  0  0  0  0  0
   -2.7195    0.4141    0.8248 C   0  0  0  0  0  0  0  0  0  0  0  0
   -4.4455   -0.4511   -1.1890 C   0  0  0  0  0  0  0  0  0  0  0  0
   -4.0899    0.3273    1.0704 C   0  0  0  0  0  0  0  0  0  0  0  0
   -4.9529   -0.1054    0.0636 C   0  0  0  0  0  0  0  0  0  0  0  0
   -6.3568   -0.1940    0.3147 C   0  0  0  0  0  0  0  0  0  0  0  0
    1.5945    0.3377    1.8122 H   0  0  0  0  0  0  0  0  0  0  0  0
    1.6128    1.1149   -1.1315 H   0  0  0  0  0  0  0  0  0  0  0  0
    1.2331    3.0854    1.1745 H   0  0  0  0  0  0  0  0  0  0  0  0
    3.3080    1.5674    2.3883 H   0  0  0  0  0  0  0  0  0  0  0  0
    4.3624    0.8584    1.1591 H   0  0  0  0  0  0  0  0  0  0  0  0
    3.6473    3.5153    1.0492 H   0  0  0  0  0  0  0  0  0  0  0  0
   -0.5394    1.6646    0.7517 H   0  0  0  0  0  0  0  0  0  0  0  0
    1.8351    4.5180   -0.5235 H   0  0  0  0  0  0  0  0  0  0  0  0
    4.9093    2.4051   -0.4803 H   0  0  0  0  0  0  0  0  0  0  0  0
    3.6713   -0.0399   -1.3337 H   0  0  0  0  0  0  0  0  0  0  0  0
    2.2397   -4.2351    0.8942 H   0  0  0  0  0  0  0  0  0  0  0  0
    1.8925   -1.5334    3.0155 H   0  0  0  0  0  0  0  0  0  0  0  0
    0.3925   -1.5532    2.0291 H   0  0  0  0  0  0  0  0  0  0  0  0
    1.1340   -3.0538    2.5653 H   0  0  0  0  0  0  0  0  0  0  0  0
    4.3071   -2.2166   -2.2745 H   0  0  0  0  0  0  0  0  0  0  0  0
    3.5948   -4.3171   -1.1638 H   0  0  0  0  0  0  0  0  0  0  0  0
   -2.6996   -0.6339   -2.4182 H   0  0  0  0  0  0  0  0  0  0  0  0
   -2.0811    0.7224    1.6472 H   0  0  0  0  0  0  0  0  0  0  0  0
   -5.1057   -0.7891   -1.9842 H   0  0  0  0  0  0  0  0  0  0  0  0
   -4.4700    0.5931    2.0540 H   0  0  0  0  0  0  0  0  0  0  0  0
  1  8  1  0  0  0  0
  1 33  1  0  0  0  0
  2 10  1  0  0  0  0
  2 34  1  0  0  0  0
  3 14  2  0  0  0  0
  4  7  1  0  0  0  0
  4 14  1  0  0  0  0
  4 32  1  0  0  0  0
  5 25  3  0  0  0  0
  6  7  1  0  0  0  0
  6  9  1  0  0  0  0
  6 11  1  0  0  0  0
  6 26  1  0  0  0  0
  7  8  1  0  0  0  0
  7 27  1  0  0  0  0
  8 10  1  0  0  0  0
  8 28  1  0  0  0  0
  9 10  1  0  0  0  0
  9 29  1  0  0  0  0
  9 30  1  0  0  0  0
 10 31  1  0  0  0  0
 11 12  1  0  0  0  0
 11 13  2  0  0  0  0
 12 15  2  0  0  0  0
 12 16  1  0  0  0  0
 13 17  1  0  0  0  0
 13 35  1  0  0  0  0
 14 19  1  0  0  0  0
 15 18  1  0  0  0  0
 15 36  1  0  0  0  0
 16 37  1  0  0  0  0
 16 38  1  0  0  0  0
 16 39  1  0  0  0  0
 17 18  2  0  0  0  0
 17 40  1  0  0  0  0
 18 41  1  0  0  0  0
 19 20  2  0  0  0  0
 19 21  1  0  0  0  0
 20 22  1  0  0  0  0
 20 42  1  0  0  0  0
 21 23  2  0  0  0  0
 21 43  1  0  0  0  0
 22 24  2  0  0  0  0
 22 44  1  0  0  0  0
 23 24  1  0  0  0  0
 23 45  1  0  0  0  0
 24 25  1  0  0  0  0
M  END
> <PUBCHEM_COMPOUND_CID>
71693922

> <PUBCHEM_CONFORMER_RMSD>
0.8

> <PUBCHEM_CONFORMER_DIVERSEORDER>
1
12
9
13
5
6
11
4
3
8
7
10
2

> <PUBCHEM_MMFF94_PARTIAL_CHARGES>
35
1 -0.68
10 0.28
11 -0.14
12 -0.14
13 -0.15
14 0.54
15 -0.15
16 0.14
17 -0.15
18 -0.15
19 0.09
2 -0.68
20 -0.15
21 -0.15
22 -0.15
23 -0.15
24 0.07
25 0.48
3 -0.57
32 0.37
33 0.4
34 0.4
35 0.15
36 0.15
4 -0.73
40 0.15
41 0.15
42 0.15
43 0.15
44 0.15
45 0.15
5 -0.56
6 0.14
7 0.3
8 0.28

> <PUBCHEM_EFFECTIVE_ROTOR_COUNT>
5

> <PUBCHEM_PHARMACOPHORE_FEATURES>
10
1 1 acceptor
1 1 donor
1 2 acceptor
1 2 donor
1 3 acceptor
1 4 donor
1 5 acceptor
5 6 7 8 9 10 rings
6 11 12 13 15 17 18 rings
6 19 20 21 22 23 24 rings

> <PUBCHEM_HEAVY_ATOM_COUNT>
25

> <PUBCHEM_ATOM_DEF_STEREO_COUNT>
4

> <PUBCHEM_ATOM_UDEF_STEREO_COUNT>
0

> <PUBCHEM_BOND_DEF_STEREO_COUNT>
0

> <PUBCHEM_BOND_UDEF_STEREO_COUNT>
0

> <PUBCHEM_ISOTOPIC_ATOM_COUNT>
0

> <PUBCHEM_COMPONENT_COUNT>
1

> <PUBCHEM_CACTVS_TAUTO_COUNT>
2

> <PUBCHEM_CONFORMER_ID>
0445F66200000001

> <PUBCHEM_MMFF94_ENERGY>
72.1946

> <PUBCHEM_FEATURE_SELFOVERLAP>
50.758

> <PUBCHEM_SHAPE_FINGERPRINT>
10366900 7 17822301149835661755
10554248 39 18060129905039960189
114674 6 18187362112443663834
12107183 9 17912092651212568889
12553582 1 18268703905631544118
13009979 54 17488189188354156394
13533116 47 18343022194787123515
13583140 156 18268435814347388729
13617811 41 15936408940983513463
13785724 45 17841444626523069447
13955234 65 18342453768201786808
14863182 85 18411411843878538244
17492 89 18342175527805084515
17818456 19 17702388338765013457
17844677 252 18410576150653972281
1813 80 18128543652274838390
20157964 124 18409443726744489529
20645477 70 18409162212474620331
21197605 99 17974009749944765507
21344244 78 18130774634366079929
21421861 104 18341322336382419464
22033318 11 17842308933516133593
22149856 69 14346077474447506041
2255824 54 18411979187187721678
23559900 14 18410294735426820419
239999 70 18335138700046545546
312423 11 18272378529457703385
3421961 26 18340484474215108602
345986 75 17916298342811815659
4144715 1 18260555524670680913
4340502 62 18262514909312809937
437795 51 18263099823739818238
4394409 98 14017635371643588678
465052 167 18272375222327935607
474 4 18266453385501562208
5104073 3 18060431209795936107
6669772 16 18040710416584863346
70251023 43 18267309729166413746
7970288 3 18124314913317299799
8272917 22 18409728499475472205
8509985 295 16056873603168960443
9841814 1 18263068947209442826

> <PUBCHEM_SHAPE_MULTIPOLES>
486.92
11.87
3.6
1.48
25.88
0.62
-0.19
-2.39
-0.53
-7.29
0.17
-0.35
-0.57
0.15

> <PUBCHEM_SHAPE_SELFOVERLAP>
1050.243

> <PUBCHEM_SHAPE_VOLUME>
265.9

> <PUBCHEM_COORDINATE_TYPE>
2
5
10

$$$$
