45784236
  -OEChem-12032416293D

 39 42  0     1  0  0  0  0  0999 V2000
    7.3663   -0.4339   -0.2780 F   0  0  0  0  0  0  0  0  0  0  0  0
   -2.0510   -0.2803   -0.1120 N   0  0  1  0  0  0  0  0  0  0  0  0
    2.6075   -1.3174    0.3140 N   0  0  0  0  0  0  0  0  0  0  0  0
    2.0303    0.8134    0.0565 N   0  0  0  0  0  0  0  0  0  0  0  0
   -4.9939    1.2763    0.0185 N   0  0  0  0  0  0  0  0  0  0  0  0
    0.1522   -0.8238    0.4795 C   0  0  1  0  0  0  0  0  0  0  0  0
   -0.5532   -0.1608    1.6754 C   0  0  0  0  0  0  0  0  0  0  0  0
   -0.7398   -0.4993   -0.7264 C   0  0  0  0  0  0  0  0  0  0  0  0
   -1.7792    0.5206    1.0816 C   0  0  0  0  0  0  0  0  0  0  0  0
    1.5902   -0.4048    0.2783 C   0  0  0  0  0  0  0  0  0  0  0  0
   -2.9859    0.3726   -1.0164 C   0  0  0  0  0  0  0  0  0  0  0  0
    3.7824   -0.6431    0.1007 C   0  0  0  0  0  0  0  0  0  0  0  0
   -4.4125    0.2045   -0.5654 C   0  0  0  0  0  0  0  0  0  0  0  0
    3.3956    0.6848   -0.0571 C   0  0  0  0  0  0  0  0  0  0  0  0
    5.1098   -1.0680    0.0342 C   0  0  0  0  0  0  0  0  0  0  0  0
    4.3780    1.6605   -0.2959 C   0  0  0  0  0  0  0  0  0  0  0  0
   -5.0486   -1.0102   -0.7653 C   0  0  0  0  0  0  0  0  0  0  0  0
    6.0745   -0.0835   -0.2042 C   0  0  0  0  0  0  0  0  0  0  0  0
    5.7173    1.2570   -0.3666 C   0  0  0  0  0  0  0  0  0  0  0  0
   -6.3663   -1.1325   -0.3385 C   0  0  0  0  0  0  0  0  0  0  0  0
   -6.2752    1.1198    0.4204 C   0  0  0  0  0  0  0  0  0  0  0  0
   -6.9985   -0.0519    0.2665 C   0  0  0  0  0  0  0  0  0  0  0  0
    0.1263   -1.9107    0.6456 H   0  0  0  0  0  0  0  0  0  0  0  0
   -0.8613   -0.9340    2.3904 H   0  0  0  0  0  0  0  0  0  0  0  0
    0.0795    0.5542    2.2119 H   0  0  0  0  0  0  0  0  0  0  0  0
   -0.3899    0.3986   -1.2531 H   0  0  0  0  0  0  0  0  0  0  0  0
   -0.7597   -1.3296   -1.4406 H   0  0  0  0  0  0  0  0  0  0  0  0
   -2.6140    0.5172    1.7895 H   0  0  0  0  0  0  0  0  0  0  0  0
   -1.5358    1.5612    0.8310 H   0  0  0  0  0  0  0  0  0  0  0  0
   -2.7528    1.4377   -1.1490 H   0  0  0  0  0  0  0  0  0  0  0  0
   -2.9118   -0.0712   -2.0190 H   0  0  0  0  0  0  0  0  0  0  0  0
    2.5145   -2.3125    0.4694 H   0  0  0  0  0  0  0  0  0  0  0  0
    5.3848   -2.1088    0.1606 H   0  0  0  0  0  0  0  0  0  0  0  0
    4.1107    2.7047   -0.4234 H   0  0  0  0  0  0  0  0  0  0  0  0
   -4.5471   -1.8476   -1.2386 H   0  0  0  0  0  0  0  0  0  0  0  0
    6.4899    1.9990   -0.5507 H   0  0  0  0  0  0  0  0  0  0  0  0
   -6.8995   -2.0682   -0.4771 H   0  0  0  0  0  0  0  0  0  0  0  0
   -6.7225    1.9916    0.8864 H   0  0  0  0  0  0  0  0  0  0  0  0
   -8.0251   -0.1247    0.6069 H   0  0  0  0  0  0  0  0  0  0  0  0
  1 18  1  0  0  0  0
  2  8  1  0  0  0  0
  2  9  1  0  0  0  0
  2 11  1  0  0  0  0
  3 10  1  0  0  0  0
  3 12  1  0  0  0  0
  3 32  1  0  0  0  0
  4 10  2  0  0  0  0
  4 14  1  0  0  0  0
  5 13  1  0  0  0  0
  5 21  2  0  0  0  0
  6  7  1  0  0  0  0
  6  8  1  0  0  0  0
  6 10  1  0  0  0  0
  6 23  1  0  0  0  0
  7  9  1  0  0  0  0
  7 24  1  0  0  0  0
  7 25  1  0  0  0  0
  8 26  1  0  0  0  0
  8 27  1  0  0  0  0
  9 28  1  0  0  0  0
  9 29  1  0  0  0  0
 11 13  1  0  0  0  0
 11 30  1  0  0  0  0
 11 31  1  0  0  0  0
 12 14  2  0  0  0  0
 12 15  1  0  0  0  0
 13 17  2  0  0  0  0
 14 16  1  0  0  0  0
 15 18  2  0  0  0  0
 15 33  1  0  0  0  0
 16 19  2  0  0  0  0
 16 34  1  0  0  0  0
 17 20  1  0  0  0  0
 17 35  1  0  0  0  0
 18 19  1  0  0  0  0
 19 36  1  0  0  0  0
 20 22  2  0  0  0  0
 20 37  1  0  0  0  0
 21 22  1  0  0  0  0
 21 38  1  0  0  0  0
 22 39  1  0  0  0  0
M  END
> <PUBCHEM_COMPOUND_CID>
45784236

> <PUBCHEM_CONFORMER_RMSD>
0.6

> <PUBCHEM_CONFORMER_DIVERSEORDER>
1
77
155
181
31
108
134
169
121
150
180
38
178
125
102
167
93
85
122
66
115
44
99
101
140
135
16
127
51
120
96
147
146
160
119
59
161
110
23
116
94
89
58
75
176
82
106
131
95
36
156
144
152
26
87
136
170
49
109
46
141
162
47
118
179
153
41
166
130
92
123
33
76
177
173
39
61
78
175
111
3
151
104
114
81
174
164
107
103
86
64
132
27
6
37
129
124
158
19
143
117
18
84
172
83
97
14
154
105
69
13
128
139
71
79
20
165
148
133
142
10
34
91
5
113
159
17
80
15
50
54
12
8
43
149
21
40
22
62
138
2
30
60
57
9
11
72
24
90
88
56
48
126
52
28
112
100
7
163
55
63
53
4
45
157
32
25
168
67
145
68
35
65
42
73
137
70
29
98
74
171

> <PUBCHEM_MMFF94_PARTIAL_CHARGES>
29
1 -0.19
10 0.01
11 0.41
12 -0.15
13 0.17
14 0.23
15 -0.15
16 -0.15
17 -0.15
18 0.19
19 -0.15
2 -0.81
20 -0.15
21 0.16
22 -0.15
3 0.03
32 0.27
33 0.15
34 0.15
35 0.15
36 0.15
37 0.15
38 0.15
39 0.15
4 -0.57
5 -0.62
6 0.18
8 0.27
9 0.27

> <PUBCHEM_EFFECTIVE_ROTOR_COUNT>
4

> <PUBCHEM_PHARMACOPHORE_FEATURES>
8
1 2 cation
1 3 donor
1 5 acceptor
3 3 4 10 cation
5 2 6 7 8 9 rings
5 3 4 10 12 14 rings
6 12 14 15 16 18 19 rings
6 5 13 17 20 21 22 rings

> <PUBCHEM_HEAVY_ATOM_COUNT>
22

> <PUBCHEM_ATOM_DEF_STEREO_COUNT>
1

> <PUBCHEM_ATOM_UDEF_STEREO_COUNT>
0

> <PUBCHEM_BOND_DEF_STEREO_COUNT>
0

> <PUBCHEM_BOND_UDEF_STEREO_COUNT>
0

> <PUBCHEM_ISOTOPIC_ATOM_COUNT>
0

> <PUBCHEM_COMPONENT_COUNT>
1

> <PUBCHEM_CACTVS_TAUTO_COUNT>
2

> <PUBCHEM_CONFORMER_ID>
02BA9CAC00000001

> <PUBCHEM_MMFF94_ENERGY>
43.421

> <PUBCHEM_FEATURE_SELFOVERLAP>
40.704

> <PUBCHEM_SHAPE_FINGERPRINT>
10 15 14201400521332772244
10299344 5 18272088310259893735
10595046 47 18410854348238021411
106641 1 13334745647381920372
11315181 36 18409167723840749253
11408170 108 17773600426496333150
11524674 6 15769774685001968479
11646440 116 17022908942859281189
11796584 16 14836399259502657230
12091667 2 18412826885310324419
12166972 35 18408887351695558100
12236239 1 18273495671530291468
12730499 353 17822011991078341946
12788726 201 17131556037907549939
12916748 109 16805319977047179740
13167372 99 18411137991709519088
13533116 47 17023454258156546202
13668630 136 17989492909625373710
14170010 4 18260828224469874124
1420 363 17240203227291896667
14251752 14 17704072880493003857
14251764 18 17967530169244990920
14251764 46 18410854364911507823
14294032 229 16986897652253766625
14849402 71 18189342423275325981
14856354 85 17846501465736043287
14933364 13 18410575080732264533
15183329 4 18410852148718932581
15537594 2 16056596547671114047
17093844 174 14045739323199375103
18006028 8 12823295697677350379
19489759 90 10665227047590370007
200 152 18201718452978604002
20157964 124 18408323302868013392
20281389 69 17458058274865068468
21033648 29 17823417270566487360
21150785 3 18342741827964664228
21267235 1 18341335522327514052
221357 26 18334855013599735196
22224240 67 9367341523256849348
23035841 295 17846780719761156287
23198884 109 18409449193952800097
23402539 116 17775280569159265749
23536379 177 18413388726650402523
23559900 14 18261671579346143841
23569943 247 17315343735596174058
23622692 88 14345797162351365050
26918003 58 10519982681724698414
29717793 49 17846504725447448236
3004659 81 18273495667768132634
314173 85 14333411159817330491
335352 9 18333736819644644566
347723 3 17346880048198902859
3545911 37 17894911832328871914
4073 2 18040721423763642794
4325135 7 18408603669632379151
4340502 62 16226045583157366306
5283156 175 17346604045538125982
542803 24 18342172267544923367
59682541 35 16008757931061408225
59755656 520 17894345605242220203
9996256 80 18334855008998312493

> <PUBCHEM_SHAPE_MULTIPOLES>
425.55
19.71
1.31
0.96
3.77
0.18
-0.2
1.08
2.5
-0.36
0.05
0.54
0
-0.69

> <PUBCHEM_SHAPE_SELFOVERLAP>
936.328

> <PUBCHEM_SHAPE_VOLUME>
233.3

> <PUBCHEM_COORDINATE_TYPE>
2
5
10

$$$$
