7155689
  -OEChem-12032416223D

 54 58  0     1  0  0  0  0  0999 V2000
    3.1685   -5.2088    0.4252 F   0  0  0  0  0  0  0  0  0  0  0  0
   -1.3822    2.3772   -1.4287 O   0  0  0  0  0  0  0  0  0  0  0  0
   -2.9776   -1.3872    1.1761 O   0  0  0  0  0  0  0  0  0  0  0  0
    3.3760    1.0078   -0.6455 N   0  0  2  0  0  0  0  0  0  0  0  0
    0.4882    2.2219   -0.0373 N   0  0  0  0  0  0  0  0  0  0  0  0
   -2.8807    0.6968    0.1475 N   0  0  0  0  0  0  0  0  0  0  0  0
   -7.5242   -0.9493   -0.7616 N   0  0  0  0  0  0  0  0  0  0  0  0
    2.6982    3.4191   -0.5367 C   0  0  1  0  0  0  0  0  0  0  0  0
    2.4997    2.0208    1.4639 C   0  0  2  0  0  0  0  0  0  0  0  0
    2.8687    3.4193    0.9767 C   0  0  0  0  0  0  0  0  0  0  0  0
    3.6194    2.3563   -1.1723 C   0  0  0  0  0  0  0  0  0  0  0  0
    3.4496    0.9832    0.8231 C   0  0  0  0  0  0  0  0  0  0  0  0
    1.2174    3.1899   -0.8684 C   0  0  0  0  0  0  0  0  0  0  0  0
    1.0554    1.6974    1.1285 C   0  0  0  0  0  0  0  0  0  0  0  0
    4.3011    0.0412   -1.2318 C   0  0  0  0  0  0  0  0  0  0  0  0
    0.3328    0.8992    1.9321 C   0  0  0  0  0  0  0  0  0  0  0  0
   -0.8358    1.9275   -0.4204 C   0  0  0  0  0  0  0  0  0  0  0  0
   -1.5998    1.0160    0.4895 C   0  0  0  0  0  0  0  0  0  0  0  0
   -1.0209    0.5522    1.6022 C   0  0  0  0  0  0  0  0  0  0  0  0
    3.9984   -1.3654   -0.7880 C   0  0  0  0  0  0  0  0  0  0  0  0
    4.6023   -1.8657    0.3568 C   0  0  0  0  0  0  0  0  0  0  0  0
    3.1191   -2.1412   -1.5303 C   0  0  0  0  0  0  0  0  0  0  0  0
    4.3211   -3.1686    0.7679 C   0  0  0  0  0  0  0  0  0  0  0  0
    2.8378   -3.4441   -1.1191 C   0  0  0  0  0  0  0  0  0  0  0  0
   -3.4966   -0.4924    0.5133 C   0  0  0  0  0  0  0  0  0  0  0  0
    3.4389   -3.9579    0.0300 C   0  0  0  0  0  0  0  0  0  0  0  0
   -4.9051   -0.6524    0.0673 C   0  0  0  0  0  0  0  0  0  0  0  0
   -5.7481   -1.4548    0.7988 C   0  0  0  0  0  0  0  0  0  0  0  0
   -5.3244    0.0071   -1.0635 C   0  0  0  0  0  0  0  0  0  0  0  0
   -7.0509   -1.5708    0.3418 C   0  0  0  0  0  0  0  0  0  0  0  0
   -6.6462   -0.1743   -1.4372 C   0  0  0  0  0  0  0  0  0  0  0  0
    2.9942    4.3960   -0.9391 H   0  0  0  0  0  0  0  0  0  0  0  0
    2.6407    1.9921    2.5526 H   0  0  0  0  0  0  0  0  0  0  0  0
    2.2296    4.1802    1.4417 H   0  0  0  0  0  0  0  0  0  0  0  0
    3.9043    3.6594    1.2466 H   0  0  0  0  0  0  0  0  0  0  0  0
    3.4613    2.3596   -2.2581 H   0  0  0  0  0  0  0  0  0  0  0  0
    4.6643    2.6487   -1.0005 H   0  0  0  0  0  0  0  0  0  0  0  0
    4.4749    1.1788    1.1654 H   0  0  0  0  0  0  0  0  0  0  0  0
    3.1418    0.0128    1.2241 H   0  0  0  0  0  0  0  0  0  0  0  0
    0.6819    4.1420   -0.7502 H   0  0  0  0  0  0  0  0  0  0  0  0
    1.0970    2.9063   -1.9216 H   0  0  0  0  0  0  0  0  0  0  0  0
    5.3444    0.2873   -0.9894 H   0  0  0  0  0  0  0  0  0  0  0  0
    4.2363    0.0797   -2.3276 H   0  0  0  0  0  0  0  0  0  0  0  0
    0.7522    0.4771    2.8395 H   0  0  0  0  0  0  0  0  0  0  0  0
   -1.5234   -0.0609    2.3402 H   0  0  0  0  0  0  0  0  0  0  0  0
   -3.3159    1.3190   -0.5249 H   0  0  0  0  0  0  0  0  0  0  0  0
    5.3028   -1.2689    0.9341 H   0  0  0  0  0  0  0  0  0  0  0  0
    2.6433   -1.7502   -2.4253 H   0  0  0  0  0  0  0  0  0  0  0  0
    4.7912   -3.5700    1.6609 H   0  0  0  0  0  0  0  0  0  0  0  0
    2.1503   -4.0584   -1.6928 H   0  0  0  0  0  0  0  0  0  0  0  0
   -5.4358   -1.9777    1.6952 H   0  0  0  0  0  0  0  0  0  0  0  0
   -4.6914    0.6162   -1.6956 H   0  0  0  0  0  0  0  0  0  0  0  0
   -7.7721   -2.1861    0.8700 H   0  0  0  0  0  0  0  0  0  0  0  0
   -7.0441    0.3069   -2.3247 H   0  0  0  0  0  0  0  0  0  0  0  0
  1 26  1  0  0  0  0
  2 17  2  0  0  0  0
  3 25  2  0  0  0  0
  4 11  1  0  0  0  0
  4 12  1  0  0  0  0
  4 15  1  0  0  0  0
  5 13  1  0  0  0  0
  5 14  1  0  0  0  0
  5 17  1  0  0  0  0
  6 18  1  0  0  0  0
  6 25  1  0  0  0  0
  6 46  1  0  0  0  0
  7 30  2  0  0  0  0
  7 31  1  0  0  0  0
  8 10  1  0  0  0  0
  8 11  1  0  0  0  0
  8 13  1  0  0  0  0
  8 32  1  0  0  0  0
  9 10  1  0  0  0  0
  9 12  1  0  0  0  0
  9 14  1  0  0  0  0
  9 33  1  0  0  0  0
 10 34  1  0  0  0  0
 10 35  1  0  0  0  0
 11 36  1  0  0  0  0
 11 37  1  0  0  0  0
 12 38  1  0  0  0  0
 12 39  1  0  0  0  0
 13 40  1  0  0  0  0
 13 41  1  0  0  0  0
 14 16  2  0  0  0  0
 15 20  1  0  0  0  0
 15 42  1  0  0  0  0
 15 43  1  0  0  0  0
 16 19  1  0  0  0  0
 16 44  1  0  0  0  0
 17 18  1  0  0  0  0
 18 19  2  0  0  0  0
 19 45  1  0  0  0  0
 20 21  2  0  0  0  0
 20 22  1  0  0  0  0
 21 23  1  0  0  0  0
 21 47  1  0  0  0  0
 22 24  2  0  0  0  0
 22 48  1  0  0  0  0
 23 26  2  0  0  0  0
 23 49  1  0  0  0  0
 24 26  1  0  0  0  0
 24 50  1  0  0  0  0
 25 27  1  0  0  0  0
 27 28  2  0  0  0  0
 27 29  1  0  0  0  0
 28 30  1  0  0  0  0
 28 51  1  0  0  0  0
 29 31  2  0  0  0  0
 29 52  1  0  0  0  0
 30 53  1  0  0  0  0
 31 54  1  0  0  0  0
M  END
> <PUBCHEM_COMPOUND_CID>
7155689

> <PUBCHEM_CONFORMER_RMSD>
0.8

> <PUBCHEM_CONFORMER_DIVERSEORDER>
1
8
9
10
5
11
2
12
3
6
7
4

> <PUBCHEM_MMFF94_PARTIAL_CHARGES>
40
1 -0.19
11 0.27
12 0.27
13 0.3
14 -0.03
15 0.41
16 -0.15
17 0.62
18 0.12
19 -0.15
2 -0.57
20 -0.14
21 -0.15
22 -0.15
23 -0.15
24 -0.15
25 0.54
26 0.19
27 0.09
28 -0.15
29 -0.15
3 -0.57
30 0.16
31 0.16
4 -0.81
44 0.15
45 0.15
46 0.37
47 0.15
48 0.15
49 0.15
5 -0.47
50 0.15
51 0.15
52 0.15
53 0.15
54 0.15
6 -0.54
7 -0.62
9 0.14

> <PUBCHEM_EFFECTIVE_ROTOR_COUNT>
6

> <PUBCHEM_PHARMACOPHORE_FEATURES>
10
1 2 acceptor
1 3 acceptor
1 4 cation
1 6 donor
1 7 acceptor
6 20 21 22 23 24 26 rings
6 4 8 9 10 11 12 rings
6 5 14 16 17 18 19 rings
6 5 8 9 10 13 14 rings
6 7 27 28 29 30 31 rings

> <PUBCHEM_HEAVY_ATOM_COUNT>
31

> <PUBCHEM_ATOM_DEF_STEREO_COUNT>
2

> <PUBCHEM_ATOM_UDEF_STEREO_COUNT>
0

> <PUBCHEM_BOND_DEF_STEREO_COUNT>
0

> <PUBCHEM_BOND_UDEF_STEREO_COUNT>
0

> <PUBCHEM_ISOTOPIC_ATOM_COUNT>
0

> <PUBCHEM_COMPONENT_COUNT>
1

> <PUBCHEM_CACTVS_TAUTO_COUNT>
2

> <PUBCHEM_CONFORMER_ID>
006D2FE900000001

> <PUBCHEM_MMFF94_ENERGY>
93.0765

> <PUBCHEM_FEATURE_SELFOVERLAP>
52.298

> <PUBCHEM_SHAPE_FINGERPRINT>
10622 236 18200036114442111955
11135609 149 18193532545912692453
11719270 70 18337951320232813056
11828532 37 17313392278724200843
12147406 95 18042948926625412106
12202916 173 18113330938827134698
13533116 47 18130510829106415769
1361 2 18338238291996957454
13631057 29 18195255421638290910
14347332 77 18272651217337566729
14675020 138 18128527357554130608
15183329 4 18334577962697659137
15324884 4 17467380115251075272
15419008 42 18116129169997046477
15475509 35 17989199369726748003
15664445 248 17168147896417495612
17134984 74 18339927124672545342
17909252 39 18408884031548441585
18681886 176 14260520230123299409
19026451 147 18338517435376892426
19301679 30 18341337751800890105
19315092 285 17917429787874690026
20567600 247 18343017796450513927
20775438 99 18264757934366923971
20775530 9 18122928433796943506
21033650 10 16660923267130171125
21133410 171 17173743087832530906
21133410 58 18337098009010603839
21285901 2 17967810587011550301
21703447 108 18131630105915699840
23559900 14 18335707186186307593
23569914 152 17687995671896784743
239999 70 17968934326476080649
25222932 49 18271531905757439470
345986 75 17632581513405195673
34797466 226 17677333943665299349
397830 11 10015575152148139189
404807 14 17979080384155272523
46194498 28 18113898303305926788
463206 1 18129941307462810174
513532 50 17240481450778053948
5309563 4 18269559351763722886
5951187 136 15357990000724297254
59682541 52 18410003352303313015
70251023 43 18408604729941104177
9831232 110 18335699464700493623

> <PUBCHEM_SHAPE_MULTIPOLES>
599.03
15.07
5.21
1.56
33.67
3.71
0.08
10.81
-3.3
-9.92
-0.17
-0.19
-0.33
0.51

> <PUBCHEM_SHAPE_SELFOVERLAP>
1323.335

> <PUBCHEM_SHAPE_VOLUME>
318.6

> <PUBCHEM_COORDINATE_TYPE>
2
5
10

$$$$
