11912450
  -OEChem-12032416113D

 56 58  0     1  0  0  0  0  0999 V2000
    7.1639   -1.3808    0.8212 S   0  0  0  0  0  0  0  0  0  0  0  0
   -2.9835    2.1183    1.2978 O   0  0  0  0  0  0  0  0  0  0  0  0
    3.6125    1.1179   -0.8686 O   0  0  0  0  0  0  0  0  0  0  0  0
   -1.6282    1.0060   -0.2196 N   0  0  0  0  0  0  0  0  0  0  0  0
   -3.8198    0.2562    0.2532 N   0  0  0  0  0  0  0  0  0  0  0  0
    4.6919   -0.6794    0.2014 N   0  0  0  0  0  0  0  0  0  0  0  0
    6.5259    0.7987   -0.4136 N   0  0  0  0  0  0  0  0  0  0  0  0
   -0.1359   -0.9011   -0.7494 C   0  0  2  0  0  0  0  0  0  0  0  0
    1.0815    0.0292   -0.5048 C   0  0  1  0  0  0  0  0  0  0  0  0
    0.7321    1.1904    0.4439 C   0  0  0  0  0  0  0  0  0  0  0  0
   -1.3464   -0.0607   -1.1912 C   0  0  0  0  0  0  0  0  0  0  0  0
   -0.5166    1.9374   -0.0225 C   0  0  0  0  0  0  0  0  0  0  0  0
   -0.5032   -1.7779    0.4534 C   0  0  0  0  0  0  0  0  0  0  0  0
    2.3184   -0.7188   -0.0079 C   0  0  0  0  0  0  0  0  0  0  0  0
   -5.1021    0.3084    0.9198 C   0  0  0  0  0  0  0  0  0  0  0  0
   -6.0863    1.1970    0.1518 C   0  0  0  0  0  0  0  0  0  0  0  0
   -5.6715   -1.0987    1.1298 C   0  0  0  0  0  0  0  0  0  0  0  0
   -2.8219    1.1921    0.4962 C   0  0  0  0  0  0  0  0  0  0  0  0
   -6.5609    0.5539   -1.1512 C   0  0  0  0  0  0  0  0  0  0  0  0
   -6.1468   -1.7380   -0.1749 C   0  0  0  0  0  0  0  0  0  0  0  0
   -7.1335   -0.8403   -0.9151 C   0  0  0  0  0  0  0  0  0  0  0  0
   -1.6352   -2.7250    0.1145 C   0  0  0  0  0  0  0  0  0  0  0  0
    3.6045    0.0372   -0.2891 C   0  0  0  0  0  0  0  0  0  0  0  0
    6.0327   -0.2941    0.1252 C   0  0  0  0  0  0  0  0  0  0  0  0
    8.4288   -0.3139    0.3710 C   0  0  0  0  0  0  0  0  0  0  0  0
    7.8997    0.7859   -0.2713 C   0  0  0  0  0  0  0  0  0  0  0  0
    0.1252   -1.5693   -1.5820 H   0  0  0  0  0  0  0  0  0  0  0  0
    1.3159    0.4742   -1.4831 H   0  0  0  0  0  0  0  0  0  0  0  0
    1.5622    1.9014    0.5152 H   0  0  0  0  0  0  0  0  0  0  0  0
    0.5612    0.8039    1.4565 H   0  0  0  0  0  0  0  0  0  0  0  0
   -1.1030    0.4458   -2.1351 H   0  0  0  0  0  0  0  0  0  0  0  0
   -2.2061   -0.6829   -1.4275 H   0  0  0  0  0  0  0  0  0  0  0  0
   -0.7746    2.7119    0.7064 H   0  0  0  0  0  0  0  0  0  0  0  0
   -0.3301    2.4392   -0.9794 H   0  0  0  0  0  0  0  0  0  0  0  0
    0.3613   -2.3829    0.7482 H   0  0  0  0  0  0  0  0  0  0  0  0
   -0.7791   -1.1762    1.3261 H   0  0  0  0  0  0  0  0  0  0  0  0
    2.3996   -1.6835   -0.5252 H   0  0  0  0  0  0  0  0  0  0  0  0
    2.2537   -0.9188    1.0684 H   0  0  0  0  0  0  0  0  0  0  0  0
   -4.9415    0.7555    1.9087 H   0  0  0  0  0  0  0  0  0  0  0  0
   -6.9607    1.3898    0.7868 H   0  0  0  0  0  0  0  0  0  0  0  0
   -5.6355    2.1719   -0.0687 H   0  0  0  0  0  0  0  0  0  0  0  0
   -4.9216   -1.7465    1.5996 H   0  0  0  0  0  0  0  0  0  0  0  0
   -6.5205   -1.0401    1.8229 H   0  0  0  0  0  0  0  0  0  0  0  0
   -5.7256    0.4918   -1.8592 H   0  0  0  0  0  0  0  0  0  0  0  0
   -7.3231    1.1892   -1.6166 H   0  0  0  0  0  0  0  0  0  0  0  0
   -6.6234   -2.7004    0.0445 H   0  0  0  0  0  0  0  0  0  0  0  0
   -5.2896   -1.9550   -0.8229 H   0  0  0  0  0  0  0  0  0  0  0  0
   -3.7369   -0.3989   -0.5096 H   0  0  0  0  0  0  0  0  0  0  0  0
   -8.0596   -0.7595   -0.3326 H   0  0  0  0  0  0  0  0  0  0  0  0
   -7.3998   -1.2973   -1.8748 H   0  0  0  0  0  0  0  0  0  0  0  0
   -2.6015   -2.2236    0.0490 H   0  0  0  0  0  0  0  0  0  0  0  0
   -1.7311   -3.4780    0.9047 H   0  0  0  0  0  0  0  0  0  0  0  0
   -1.4504   -3.2569   -0.8243 H   0  0  0  0  0  0  0  0  0  0  0  0
    4.5302   -1.5704    0.6639 H   0  0  0  0  0  0  0  0  0  0  0  0
    9.4638   -0.5335    0.5906 H   0  0  0  0  0  0  0  0  0  0  0  0
    8.4776    1.6138   -0.6594 H   0  0  0  0  0  0  0  0  0  0  0  0
  1 24  1  0  0  0  0
  1 25  1  0  0  0  0
  2 18  2  0  0  0  0
  3 23  2  0  0  0  0
  4 11  1  0  0  0  0
  4 12  1  0  0  0  0
  4 18  1  0  0  0  0
  5 15  1  0  0  0  0
  5 18  1  0  0  0  0
  5 48  1  0  0  0  0
  6 23  1  0  0  0  0
  6 24  1  0  0  0  0
  6 54  1  0  0  0  0
  7 24  2  0  0  0  0
  7 26  1  0  0  0  0
  8  9  1  0  0  0  0
  8 11  1  0  0  0  0
  8 13  1  0  0  0  0
  8 27  1  0  0  0  0
  9 10  1  0  0  0  0
  9 14  1  0  0  0  0
  9 28  1  0  0  0  0
 10 12  1  0  0  0  0
 10 29  1  0  0  0  0
 10 30  1  0  0  0  0
 11 31  1  0  0  0  0
 11 32  1  0  0  0  0
 12 33  1  0  0  0  0
 12 34  1  0  0  0  0
 13 22  1  0  0  0  0
 13 35  1  0  0  0  0
 13 36  1  0  0  0  0
 14 23  1  0  0  0  0
 14 37  1  0  0  0  0
 14 38  1  0  0  0  0
 15 16  1  0  0  0  0
 15 17  1  0  0  0  0
 15 39  1  0  0  0  0
 16 19  1  0  0  0  0
 16 40  1  0  0  0  0
 16 41  1  0  0  0  0
 17 20  1  0  0  0  0
 17 42  1  0  0  0  0
 17 43  1  0  0  0  0
 19 21  1  0  0  0  0
 19 44  1  0  0  0  0
 19 45  1  0  0  0  0
 20 21  1  0  0  0  0
 20 46  1  0  0  0  0
 20 47  1  0  0  0  0
 21 49  1  0  0  0  0
 21 50  1  0  0  0  0
 22 51  1  0  0  0  0
 22 52  1  0  0  0  0
 22 53  1  0  0  0  0
 25 26  2  0  0  0  0
 25 55  1  0  0  0  0
 26 56  1  0  0  0  0
M  END
> <PUBCHEM_COMPOUND_CID>
11912450

> <PUBCHEM_CONFORMER_RMSD>
1.2

> <PUBCHEM_CONFORMER_DIVERSEORDER>
1
110
86
85
72
40
84
71
95
104
96
101
90
63
113
109
20
81
60
2
70
93
18
28
30
82
51
61
99
5
98
107
25
97
26
57
34
65
106
103
53
68
76
37
17
74
10
46
33
69
75
3
64
91
89
55
80
7
14
6
44
54
79
22
73
39
59
27
16
111
100
83
56
58
47
19
4
36
43
35
66
52
88
31
108
48
92
24
8
112
41
94
12
77
62
49
9
13
23
87
42
67
50
45
11
105
29
38
21
78
15
32
102

> <PUBCHEM_MMFF94_PARTIAL_CHARGES>
20
1 -0.08
11 0.3
12 0.3
14 0.06
15 0.3
18 0.69
2 -0.57
23 0.57
24 0.44
25 -0.11
26 0.08
3 -0.57
4 -0.66
48 0.37
5 -0.73
54 0.37
55 0.15
56 0.15
6 -0.49
7 -0.57

> <PUBCHEM_EFFECTIVE_ROTOR_COUNT>
10.4

> <PUBCHEM_PHARMACOPHORE_FEATURES>
8
1 2 acceptor
1 22 hydrophobe
1 3 acceptor
1 5 donor
1 6 donor
5 1 7 24 25 26 rings
6 15 16 17 19 20 21 rings
6 4 8 9 10 11 12 rings

> <PUBCHEM_HEAVY_ATOM_COUNT>
26

> <PUBCHEM_ATOM_DEF_STEREO_COUNT>
2

> <PUBCHEM_ATOM_UDEF_STEREO_COUNT>
0

> <PUBCHEM_BOND_DEF_STEREO_COUNT>
0

> <PUBCHEM_BOND_UDEF_STEREO_COUNT>
0

> <PUBCHEM_ISOTOPIC_ATOM_COUNT>
0

> <PUBCHEM_COMPONENT_COUNT>
1

> <PUBCHEM_CACTVS_TAUTO_COUNT>
6

> <PUBCHEM_CONFORMER_ID>
00B5C50200000001

> <PUBCHEM_MMFF94_ENERGY>
35.839

> <PUBCHEM_FEATURE_SELFOVERLAP>
40.596

> <PUBCHEM_SHAPE_FINGERPRINT>
10 15 18131349722350402184
11135609 99 17986668371986924751
11135926 11 18336546028629697567
11315181 36 18412263935483627185
12236239 1 18186522098855926608
13862211 1 18411983572412686295
13885169 127 17385438791419359645
13914758 101 16660359255786811180
13947920 75 18130498708619302015
14251764 18 18412826893678712950
14251764 46 14908179750582222092
14856354 85 14405179591267155653
15131766 46 16518522428198486252
15183329 4 9511463286315517185
15849732 13 17748827419043818166
18335252 98 17275108327226603150
18681886 176 18340198678881113129
21095123 145 15123503756848010884
21365058 27 15410896262490300589
22224240 67 17418371394191696630
23402539 116 18342175570875894959
23559900 14 17968098680944326889
249057 25 18261406532963089276
3009799 131 14057001620090476244
335352 9 18409166640707306694
3383291 50 18272933842701231470
34797466 226 17704358780336127492
474229 33 18413110559115287359
5104073 3 18336259129351554434
59682541 35 17988923400676623122
5969126 39 17749384845690851013
59755656 520 18113893883916538311
6009941 240 16950286225767311787
9953998 17 15052016784582617855

> <PUBCHEM_SHAPE_MULTIPOLES>
507.25
23.67
1.98
1.02
25.81
0.47
-0.01
2.34
-0.42
-1.57
-0.31
-0.93
-0.05
-0.89

> <PUBCHEM_SHAPE_SELFOVERLAP>
1026.927

> <PUBCHEM_SHAPE_VOLUME>
296.6

> <PUBCHEM_COORDINATE_TYPE>
2
5
10

$$$$
