40567551
  -OEChem-12032416113D

 51 51  0     1  0  0  0  0  0999 V2000
   -0.6975    1.9675    2.1578 O   0  0  0  0  0  0  0  0  0  0  0  0
   -0.1938    4.1527   -0.7323 O   0  0  0  0  0  0  0  0  0  0  0  0
   -3.9804    1.1036   -0.4253 O   0  0  0  0  0  0  0  0  0  0  0  0
    3.3483    1.2656   -1.6148 O   0  0  0  0  0  0  0  0  0  0  0  0
    3.4481   -2.4912    1.6170 O   0  0  0  0  0  0  0  0  0  0  0  0
   -1.9485    0.2858    0.3517 N   0  0  0  0  0  0  0  0  0  0  0  0
    2.8030   -0.4972   -0.1892 N   0  0  0  0  0  0  0  0  0  0  0  0
    5.6347   -2.3657    0.9251 N   0  0  0  0  0  0  0  0  0  0  0  0
   -1.1086    1.3447   -0.1523 C   0  0  1  0  0  0  0  0  0  0  0  0
   -0.9782    2.4979    0.8608 C   0  0  2  0  0  0  0  0  0  0  0  0
    0.1459    3.4653    0.4701 C   0  0  1  0  0  0  0  0  0  0  0  0
    1.4961    2.7470    0.3040 C   0  0  0  0  0  0  0  0  0  0  0  0
    0.2163    0.7610   -0.5626 C   0  0  0  0  0  0  0  0  0  0  0  0
    1.3772    1.3969   -0.3444 C   0  0  0  0  0  0  0  0  0  0  0  0
   -4.1344   -2.1764   -0.1396 C   0  0  0  0  0  0  0  0  0  0  0  0
   -3.9768   -0.9612    0.8051 C   0  0  0  0  0  0  0  0  0  0  0  0
   -3.3209    0.2549    0.1715 C   0  0  0  0  0  0  0  0  0  0  0  0
   -4.8177   -3.3518    0.5793 C   0  0  0  0  0  0  0  0  0  0  0  0
   -5.0223   -1.7477   -1.3243 C   0  0  0  0  0  0  0  0  0  0  0  0
   -2.7769   -2.6398   -0.6928 C   0  0  0  0  0  0  0  0  0  0  0  0
    2.6064    0.7342   -0.7894 C   0  0  0  0  0  0  0  0  0  0  0  0
    3.9425   -1.3429   -0.4651 C   0  0  2  0  0  0  0  0  0  0  0  0
    3.6519   -2.2956   -1.6140 C   0  0  0  0  0  0  0  0  0  0  0  0
    4.2856   -2.1078    0.8039 C   0  0  0  0  0  0  0  0  0  0  0  0
   -1.5772    1.7367   -1.0647 H   0  0  0  0  0  0  0  0  0  0  0  0
   -1.9366    3.0277    0.9207 H   0  0  0  0  0  0  0  0  0  0  0  0
    0.2580    4.2282    1.2502 H   0  0  0  0  0  0  0  0  0  0  0  0
    1.9479    2.6024    1.2936 H   0  0  0  0  0  0  0  0  0  0  0  0
    2.1777    3.3767   -0.2803 H   0  0  0  0  0  0  0  0  0  0  0  0
    0.1998   -0.1965   -1.0794 H   0  0  0  0  0  0  0  0  0  0  0  0
   -1.5100   -0.4495    0.8994 H   0  0  0  0  0  0  0  0  0  0  0  0
   -3.3996   -1.2557    1.6913 H   0  0  0  0  0  0  0  0  0  0  0  0
   -4.9575   -0.6420    1.1816 H   0  0  0  0  0  0  0  0  0  0  0  0
   -4.2162   -3.6913    1.4298 H   0  0  0  0  0  0  0  0  0  0  0  0
   -5.8022   -3.0607    0.9624 H   0  0  0  0  0  0  0  0  0  0  0  0
   -4.9592   -4.2055   -0.0927 H   0  0  0  0  0  0  0  0  0  0  0  0
   -4.5414   -0.9872   -1.9482 H   0  0  0  0  0  0  0  0  0  0  0  0
   -5.9818   -1.3469   -0.9782 H   0  0  0  0  0  0  0  0  0  0  0  0
   -5.2399   -2.6016   -1.9768 H   0  0  0  0  0  0  0  0  0  0  0  0
   -2.3077   -1.8796   -1.3258 H   0  0  0  0  0  0  0  0  0  0  0  0
   -2.8907   -3.5405   -1.3072 H   0  0  0  0  0  0  0  0  0  0  0  0
   -2.0836   -2.8805    0.1208 H   0  0  0  0  0  0  0  0  0  0  0  0
   -0.6509    2.7164    2.7763 H   0  0  0  0  0  0  0  0  0  0  0  0
    0.5196    4.7857   -0.9211 H   0  0  0  0  0  0  0  0  0  0  0  0
    2.1176   -0.8386    0.4794 H   0  0  0  0  0  0  0  0  0  0  0  0
    4.7859   -0.6979   -0.7392 H   0  0  0  0  0  0  0  0  0  0  0  0
    2.8048   -2.9508   -1.3804 H   0  0  0  0  0  0  0  0  0  0  0  0
    3.4039   -1.7456   -2.5280 H   0  0  0  0  0  0  0  0  0  0  0  0
    4.5165   -2.9345   -1.8228 H   0  0  0  0  0  0  0  0  0  0  0  0
    6.3130   -2.0600    0.2347 H   0  0  0  0  0  0  0  0  0  0  0  0
    5.9968   -2.8797    1.7215 H   0  0  0  0  0  0  0  0  0  0  0  0
  1 10  1  0  0  0  0
  1 43  1  0  0  0  0
  2 11  1  0  0  0  0
  2 44  1  0  0  0  0
  3 17  2  0  0  0  0
  4 21  2  0  0  0  0
  5 24  2  0  0  0  0
  6  9  1  0  0  0  0
  6 17  1  0  0  0  0
  6 31  1  0  0  0  0
  7 21  1  0  0  0  0
  7 22  1  0  0  0  0
  7 45  1  0  0  0  0
  8 24  1  0  0  0  0
  8 50  1  0  0  0  0
  8 51  1  0  0  0  0
  9 10  1  0  0  0  0
  9 13  1  0  0  0  0
  9 25  1  0  0  0  0
 10 11  1  0  0  0  0
 10 26  1  0  0  0  0
 11 12  1  0  0  0  0
 11 27  1  0  0  0  0
 12 14  1  0  0  0  0
 12 28  1  0  0  0  0
 12 29  1  0  0  0  0
 13 14  2  0  0  0  0
 13 30  1  0  0  0  0
 14 21  1  0  0  0  0
 15 16  1  0  0  0  0
 15 18  1  0  0  0  0
 15 19  1  0  0  0  0
 15 20  1  0  0  0  0
 16 17  1  0  0  0  0
 16 32  1  0  0  0  0
 16 33  1  0  0  0  0
 18 34  1  0  0  0  0
 18 35  1  0  0  0  0
 18 36  1  0  0  0  0
 19 37  1  0  0  0  0
 19 38  1  0  0  0  0
 19 39  1  0  0  0  0
 20 40  1  0  0  0  0
 20 41  1  0  0  0  0
 20 42  1  0  0  0  0
 22 23  1  0  0  0  0
 22 24  1  0  0  0  0
 22 46  1  0  0  0  0
 23 47  1  0  0  0  0
 23 48  1  0  0  0  0
 23 49  1  0  0  0  0
M  END
> <PUBCHEM_COMPOUND_CID>
40567551

> <PUBCHEM_CONFORMER_RMSD>
1

> <PUBCHEM_CONFORMER_DIVERSEORDER>
1
98
85
95
75
121
111
10
84
49
89
14
103
79
74
110
17
2
101
113
122
69
44
11
65
127
64
36
28
56
123
71
24
126
46
13
80
32
45
50
90
12
23
22
37
43
119
35
60
78
76
4
93
15
114
92
41
54
51
9
42
108
5
62
33
99
88
72
58
81
105
104
26
48
31
19
38
8
102
96
16
97
73
117
30
20
129
25
112
107
67
3
29
68
7
83
77
106
124
100
59
128
55
6
34
61
82
18
27
57
87
21
86
66
94
52
91
116
39
115
70
53
118
125
63
40
120
109
47

> <PUBCHEM_MMFF94_PARTIAL_CHARGES>
26
1 -0.68
10 0.28
11 0.28
12 0.14
13 -0.29
14 -0.12
16 0.06
17 0.57
2 -0.68
21 0.62
22 0.36
24 0.57
3 -0.57
30 0.15
31 0.37
4 -0.57
43 0.4
44 0.4
45 0.37
5 -0.57
50 0.37
51 0.37
6 -0.73
7 -0.73
8 -0.8
9 0.44

> <PUBCHEM_EFFECTIVE_ROTOR_COUNT>
8.8

> <PUBCHEM_PHARMACOPHORE_FEATURES>
12
1 1 acceptor
1 1 donor
1 2 acceptor
1 2 donor
1 3 acceptor
1 4 acceptor
1 5 acceptor
1 6 donor
1 7 donor
1 8 donor
4 15 18 19 20 hydrophobe
6 9 10 11 12 13 14 rings

> <PUBCHEM_HEAVY_ATOM_COUNT>
24

> <PUBCHEM_ATOM_DEF_STEREO_COUNT>
4

> <PUBCHEM_ATOM_UDEF_STEREO_COUNT>
0

> <PUBCHEM_BOND_DEF_STEREO_COUNT>
0

> <PUBCHEM_BOND_UDEF_STEREO_COUNT>
0

> <PUBCHEM_ISOTOPIC_ATOM_COUNT>
0

> <PUBCHEM_COMPONENT_COUNT>
1

> <PUBCHEM_CACTVS_TAUTO_COUNT>
8

> <PUBCHEM_CONFORMER_ID>
026B02FF00000001

> <PUBCHEM_MMFF94_ENERGY>
49.6968

> <PUBCHEM_FEATURE_SELFOVERLAP>
60.905

> <PUBCHEM_SHAPE_FINGERPRINT>
11796584 16 18338239266944029919
12107183 9 18270702921614362945
12293681 25 18048560898593594069
12523318 42 18123452892284769426
12553582 1 18271818924903867727
12633257 1 18129679564219647279
12788726 201 18264785263590928920
12990986 174 18410572847111893658
13533116 47 18194119844827544207
13955234 65 17836932570294815305
14251757 17 17459475626894529179
14844126 61 18119809101733117384
15342168 16 9222962452147721179
15342816 4 18340503247538492860
15537594 2 18264793062776953595
17492 89 18193837265933397155
20567600 70 18336822099946855730
20600515 1 18059585628792087953
20621476 51 18194681454350099634
20626108 58 18342733044150005843
20775530 9 18411425046022495999
21315759 227 18044370762954371379
21388113 180 11167127691316230971
21452121 199 18410852179153345704
235170 7 16443629115888559183
23559900 14 18341044194279634105
3004659 81 18335144184825336262
312425 83 17168140178429148085
339767 52 18337380540052935498
3421961 26 18268992157865706929
345986 75 17845669156434010379
4017518 198 16751545874137054046
44062 13 18334012757722649991
463206 1 18334018306414688987
5104073 3 18130798914338131601
613672 6 18271802380732334031
6433294 58 18123474044577260599
88748 71 18335707182355804315

> <PUBCHEM_SHAPE_MULTIPOLES>
449.62
10.74
4.93
1.37
2.25
1.78
-0.15
-14.06
0.12
-0.93
-0.6
-0.68
-0.3
-1.11

> <PUBCHEM_SHAPE_SELFOVERLAP>
905.898

> <PUBCHEM_SHAPE_VOLUME>
261.4

> <PUBCHEM_COORDINATE_TYPE>
2
5
10

$$$$
