7127920
  -OEChem-12032416153D

 62 64  0     1  0  0  0  0  0999 V2000
   -6.0271    1.2977    2.3304 Br  0  0  0  0  0  0  0  0  0  0  0  0
   -0.2819    4.2497    1.2389 O   0  0  0  0  0  0  0  0  0  0  0  0
    1.7362    4.1506   -1.8107 O   0  0  0  0  0  0  0  0  0  0  0  0
    2.8550    0.5687    2.1292 O   0  0  0  0  0  0  0  0  0  0  0  0
   -2.2003    0.5823   -1.5243 O   0  0  0  0  0  0  0  0  0  0  0  0
    6.0542    0.5610   -1.1682 O   0  0  0  0  0  0  0  0  0  0  0  0
   -0.8612   -4.2060    0.5856 O   0  0  0  0  0  0  0  0  0  0  0  0
   -1.6600    2.1405    0.0959 N   0  0  0  0  0  0  0  0  0  0  0  0
    3.5471    0.2739   -0.0773 N   0  0  0  0  0  0  0  0  0  0  0  0
   -3.6818    1.0599    0.2330 N   0  0  0  0  0  0  0  0  0  0  0  0
    6.8891   -0.6492    0.5967 N   0  0  0  0  0  0  0  0  0  0  0  0
   -0.0087    3.9612   -0.1340 C   0  0  1  0  0  0  0  0  0  0  0  0
    1.4718    4.2484   -0.4127 C   0  0  1  0  0  0  0  0  0  0  0  0
   -0.3656    2.4928   -0.4346 C   0  0  1  0  0  0  0  0  0  0  0  0
    2.4018    3.3035    0.3676 C   0  0  0  0  0  0  0  0  0  0  0  0
    1.8890    1.8936    0.4465 C   0  0  0  0  0  0  0  0  0  0  0  0
    0.6546    1.5150    0.0825 C   0  0  0  0  0  0  0  0  0  0  0  0
    2.8002    0.8537    0.9333 C   0  0  0  0  0  0  0  0  0  0  0  0
    4.5155   -0.7730    0.1577 C   0  0  1  0  0  0  0  0  0  0  0  0
   -2.4990    1.1916   -0.5001 C   0  0  0  0  0  0  0  0  0  0  0  0
    4.2025   -2.0423   -0.6427 C   0  0  0  0  0  0  0  0  0  0  0  0
    2.8479   -2.6208   -0.3138 C   0  0  0  0  0  0  0  0  0  0  0  0
    5.8773   -0.2202   -0.2364 C   0  0  0  0  0  0  0  0  0  0  0  0
    2.7366   -3.5540    0.7045 C   0  0  0  0  0  0  0  0  0  0  0  0
    1.7397   -2.2087   -1.0371 C   0  0  0  0  0  0  0  0  0  0  0  0
   -4.7797    0.2097   -0.0362 C   0  0  0  0  0  0  0  0  0  0  0  0
    1.4845   -4.0892    1.0076 C   0  0  0  0  0  0  0  0  0  0  0  0
    0.4878   -2.7438   -0.7339 C   0  0  0  0  0  0  0  0  0  0  0  0
    0.3602   -3.6840    0.2884 C   0  0  0  0  0  0  0  0  0  0  0  0
   -5.8910    0.1936    0.7923 C   0  0  0  0  0  0  0  0  0  0  0  0
   -4.7065   -0.6064   -1.1555 C   0  0  0  0  0  0  0  0  0  0  0  0
   -6.9547   -0.6585    0.4954 C   0  0  0  0  0  0  0  0  0  0  0  0
   -5.7703   -1.4585   -1.4524 C   0  0  0  0  0  0  0  0  0  0  0  0
   -6.8943   -1.4847   -0.6270 C   0  0  0  0  0  0  0  0  0  0  0  0
   -1.9688   -3.7482   -0.1887 C   0  0  0  0  0  0  0  0  0  0  0  0
   -0.6453    4.6175   -0.7385 H   0  0  0  0  0  0  0  0  0  0  0  0
    1.7024    5.2787   -0.1153 H   0  0  0  0  0  0  0  0  0  0  0  0
   -0.4023    2.3606   -1.5238 H   0  0  0  0  0  0  0  0  0  0  0  0
    2.5158    3.6770    1.3931 H   0  0  0  0  0  0  0  0  0  0  0  0
    3.3972    3.3036   -0.0929 H   0  0  0  0  0  0  0  0  0  0  0  0
    0.3697    0.4671    0.1417 H   0  0  0  0  0  0  0  0  0  0  0  0
   -1.9404    2.5399    0.9865 H   0  0  0  0  0  0  0  0  0  0  0  0
    0.1709    3.5943    1.7946 H   0  0  0  0  0  0  0  0  0  0  0  0
    2.6700    4.3827   -1.9505 H   0  0  0  0  0  0  0  0  0  0  0  0
    4.5206   -1.0103    1.2287 H   0  0  0  0  0  0  0  0  0  0  0  0
    3.4384    0.6111   -1.0302 H   0  0  0  0  0  0  0  0  0  0  0  0
    4.9785   -2.7989   -0.4645 H   0  0  0  0  0  0  0  0  0  0  0  0
    4.2526   -1.8333   -1.7205 H   0  0  0  0  0  0  0  0  0  0  0  0
   -3.7751    1.6421    1.0615 H   0  0  0  0  0  0  0  0  0  0  0  0
    3.6062   -3.8737    1.2714 H   0  0  0  0  0  0  0  0  0  0  0  0
    1.8284   -1.4783   -1.8364 H   0  0  0  0  0  0  0  0  0  0  0  0
    6.7286   -1.2919    1.3656 H   0  0  0  0  0  0  0  0  0  0  0  0
    7.8455   -0.3419    0.4541 H   0  0  0  0  0  0  0  0  0  0  0  0
    1.3913   -4.8207    1.8057 H   0  0  0  0  0  0  0  0  0  0  0  0
   -0.3434   -2.3838   -1.3307 H   0  0  0  0  0  0  0  0  0  0  0  0
   -3.8811   -0.6560   -1.8480 H   0  0  0  0  0  0  0  0  0  0  0  0
   -7.8392   -0.6928    1.1263 H   0  0  0  0  0  0  0  0  0  0  0  0
   -5.7244   -2.1032   -2.3255 H   0  0  0  0  0  0  0  0  0  0  0  0
   -7.7223   -2.1483   -0.8582 H   0  0  0  0  0  0  0  0  0  0  0  0
   -2.1412   -2.6754   -0.0486 H   0  0  0  0  0  0  0  0  0  0  0  0
   -2.8595   -4.2656    0.1826 H   0  0  0  0  0  0  0  0  0  0  0  0
   -1.8599   -4.0160   -1.2450 H   0  0  0  0  0  0  0  0  0  0  0  0
  1 30  1  0  0  0  0
  2 12  1  0  0  0  0
  2 43  1  0  0  0  0
  3 13  1  0  0  0  0
  3 44  1  0  0  0  0
  4 18  2  0  0  0  0
  5 20  2  0  0  0  0
  6 23  2  0  0  0  0
  7 29  1  0  0  0  0
  7 35  1  0  0  0  0
  8 14  1  0  0  0  0
  8 20  1  0  0  0  0
  8 42  1  0  0  0  0
  9 18  1  0  0  0  0
  9 19  1  0  0  0  0
  9 46  1  0  0  0  0
 10 20  1  0  0  0  0
 10 26  1  0  0  0  0
 10 49  1  0  0  0  0
 11 23  1  0  0  0  0
 11 52  1  0  0  0  0
 11 53  1  0  0  0  0
 12 13  1  0  0  0  0
 12 14  1  0  0  0  0
 12 36  1  0  0  0  0
 13 15  1  0  0  0  0
 13 37  1  0  0  0  0
 14 17  1  0  0  0  0
 14 38  1  0  0  0  0
 15 16  1  0  0  0  0
 15 39  1  0  0  0  0
 15 40  1  0  0  0  0
 16 17  2  0  0  0  0
 16 18  1  0  0  0  0
 17 41  1  0  0  0  0
 19 21  1  0  0  0  0
 19 23  1  0  0  0  0
 19 45  1  0  0  0  0
 21 22  1  0  0  0  0
 21 47  1  0  0  0  0
 21 48  1  0  0  0  0
 22 24  2  0  0  0  0
 22 25  1  0  0  0  0
 24 27  1  0  0  0  0
 24 50  1  0  0  0  0
 25 28  2  0  0  0  0
 25 51  1  0  0  0  0
 26 30  1  0  0  0  0
 26 31  2  0  0  0  0
 27 29  2  0  0  0  0
 27 54  1  0  0  0  0
 28 29  1  0  0  0  0
 28 55  1  0  0  0  0
 30 32  2  0  0  0  0
 31 33  1  0  0  0  0
 31 56  1  0  0  0  0
 32 34  1  0  0  0  0
 32 57  1  0  0  0  0
 33 34  2  0  0  0  0
 33 58  1  0  0  0  0
 34 59  1  0  0  0  0
 35 60  1  0  0  0  0
 35 61  1  0  0  0  0
 35 62  1  0  0  0  0
M  END
> <PUBCHEM_COMPOUND_CID>
7127920

> <PUBCHEM_CONFORMER_RMSD>
1.2

> <PUBCHEM_CONFORMER_DIVERSEORDER>
1
109
215
137
138
233
226
99
220
274
76
124
106
134
69
85
225
248
276
162
175
153
200
143
5
39
206
115
184
176
265
242
258
91
105
30
247
140
38
117
234
228
158
139
84
54
20
110
207
275
55
246
218
169
63
257
11
261
167
282
193
28
48
197
183
280
209
68
211
149
270
126
47
164
230
10
130
23
144
56
237
267
208
141
250
41
119
77
12
37
44
150
180
101
123
136
129
112
135
151
231
46
196
154
251
27
113
43
73
133
81
132
168
60
245
131
214
125
29
177
229
128
147
179
65
156
217
40
82
96
107
235
116
223
194
173
17
111
195
72
259
148
88
272
13
216
192
121
21
67
170
51
227
219
221
90
108
269
78
256
52
122
241
7
181
155
178
94
6
238
8
89
266
262
277
35
32
273
26
24
61
53
163
236
174
190
86
34
70
201
15
64
57
50
268
31
42
281
239
22
199
185
146
160
19
203
249
264
198
9
152
279
114
243
71
3
87
187
16
104
145
66
263
59
166
127
93
49
222
14
204
182
25
224
83
45
62
189
118
80
18
213
171
186
210
33
58
253
202
232
159
205
97
260
165
252
100
142
2
244
74
120
188
92
255
161
98
254
271
36
212
95
103
191
157
278
79
4
172
102
240
75

> <PUBCHEM_MMFF94_PARTIAL_CHARGES>
51
1 -0.11
10 -0.55
11 -0.8
12 0.28
13 0.28
14 0.44
15 0.14
16 -0.12
17 -0.29
18 0.62
19 0.36
2 -0.68
20 0.69
21 0.14
22 -0.14
23 0.57
24 -0.15
25 -0.15
26 0.12
27 -0.15
28 -0.15
29 0.08
3 -0.68
30 0.11
31 -0.15
32 -0.15
33 -0.15
34 -0.15
35 0.28
4 -0.57
41 0.15
42 0.37
43 0.4
44 0.4
46 0.37
49 0.37
5 -0.57
50 0.15
51 0.15
52 0.37
53 0.37
54 0.15
55 0.15
56 0.15
57 0.15
58 0.15
59 0.15
6 -0.57
7 -0.36
8 -0.73
9 -0.73

> <PUBCHEM_EFFECTIVE_ROTOR_COUNT>
11.8

> <PUBCHEM_PHARMACOPHORE_FEATURES>
16
1 1 hydrophobe
1 10 donor
1 11 donor
1 2 acceptor
1 2 donor
1 3 acceptor
1 3 donor
1 4 acceptor
1 5 acceptor
1 6 acceptor
1 7 acceptor
1 8 donor
1 9 donor
6 12 13 14 15 16 17 rings
6 22 24 25 27 28 29 rings
6 26 30 31 32 33 34 rings

> <PUBCHEM_HEAVY_ATOM_COUNT>
35

> <PUBCHEM_ATOM_DEF_STEREO_COUNT>
4

> <PUBCHEM_ATOM_UDEF_STEREO_COUNT>
0

> <PUBCHEM_BOND_DEF_STEREO_COUNT>
0

> <PUBCHEM_BOND_UDEF_STEREO_COUNT>
0

> <PUBCHEM_ISOTOPIC_ATOM_COUNT>
0

> <PUBCHEM_COMPONENT_COUNT>
1

> <PUBCHEM_CACTVS_TAUTO_COUNT>
12

> <PUBCHEM_CONFORMER_ID>
006CC37000000001

> <PUBCHEM_MMFF94_ENERGY>
97.8119

> <PUBCHEM_FEATURE_SELFOVERLAP>
81.259

> <PUBCHEM_SHAPE_FINGERPRINT>
10190108 129 18267881501056553304
10316853 100 18410292548977496562
1100329 8 18338234985041146246
12107183 9 18200043829089995585
13383661 66 17630059152538948134
13402501 40 18410294700613868906
1361 2 18337952389004150905
14068700 675 18202284705915441800
14394314 77 18339366245568411969
14784336 7 17843670305036087283
15320467 1 18410572903157880831
15483637 11 17904762537491645903
15538507 32 18338802325274570644
15927050 60 17908704282482080132
16112460 7 18269273632874261121
19319366 153 18113898247782899474
20028762 73 18272647982530906231
20764821 26 18337112396432899414
21133410 62 18188472611194116039
21133410 90 17203046421194686186
3178227 256 18336273413410629585
3737641 26 18196938768574342466
392239 28 18339078173216258783
463206 1 18411983589439821575
5309563 4 18339358561465601101
53794403 172 18191869131049124263
5776283 40 18265341792837755444
66674814 147 18412266142379224411

> <PUBCHEM_SHAPE_MULTIPOLES>
671.09
15.16
6.44
1.43
14.76
0.74
-0.33
-4.3
-1.02
-3.8
-0.13
1.16
0.38
-1.66

> <PUBCHEM_SHAPE_SELFOVERLAP>
1408.414

> <PUBCHEM_SHAPE_VOLUME>
383.2

> <PUBCHEM_COORDINATE_TYPE>
2
5
10

$$$$
