11886486
  -OEChem-12032416153D

 50 53  0     1  0  0  0  0  0999 V2000
    1.2229    0.7235    0.7941 O   0  0  0  0  0  0  0  0  0  0  0  0
    1.0431    3.2554   -0.9267 O   0  0  0  0  0  0  0  0  0  0  0  0
    3.6349    0.8071   -0.5777 O   0  0  0  0  0  0  0  0  0  0  0  0
   -3.2603    2.2339    1.5271 O   0  0  0  0  0  0  0  0  0  0  0  0
   -6.9239   -2.5278   -0.3590 O   0  0  0  0  0  0  0  0  0  0  0  0
   -1.7920    1.1623    0.0867 N   0  0  0  0  0  0  0  0  0  0  0  0
    0.2473    2.0519   -0.9108 C   0  0  1  0  0  0  0  0  0  0  0  0
    1.1947    0.9024   -0.6318 C   0  0  1  0  0  0  0  0  0  0  0  0
   -0.6778    2.0571    0.2838 C   0  0  2  0  0  0  0  0  0  0  0  0
    2.5093    1.4285   -1.1558 C   0  0  1  0  0  0  0  0  0  0  0  0
    0.2322    1.5696    1.3980 C   0  0  0  0  0  0  0  0  0  0  0  0
    2.4275    2.8972   -0.8059 C   0  0  0  0  0  0  0  0  0  0  0  0
    3.7090   -0.5772   -0.9094 C   0  0  0  0  0  0  0  0  0  0  0  0
   -3.0075    1.3296    0.7354 C   0  0  0  0  0  0  0  0  0  0  0  0
    4.9258   -1.1713   -0.2630 C   0  0  0  0  0  0  0  0  0  0  0  0
   -4.0459    0.3076    0.4452 C   0  0  0  0  0  0  0  0  0  0  0  0
    6.1367   -1.1735   -0.9465 C   0  0  0  0  0  0  0  0  0  0  0  0
    4.8319   -1.7138    1.0138 C   0  0  0  0  0  0  0  0  0  0  0  0
   -5.0116    0.0504    1.3960 C   0  0  0  0  0  0  0  0  0  0  0  0
   -4.0112   -0.3520   -0.7660 C   0  0  0  0  0  0  0  0  0  0  0  0
   -5.9862   -0.9095    1.1236 C   0  0  0  0  0  0  0  0  0  0  0  0
   -4.9859   -1.3118   -1.0385 C   0  0  0  0  0  0  0  0  0  0  0  0
    7.2680   -1.7256   -0.3456 C   0  0  0  0  0  0  0  0  0  0  0  0
    5.9633   -2.2657    1.6147 C   0  0  0  0  0  0  0  0  0  0  0  0
   -5.9736   -1.5906   -0.0938 C   0  0  0  0  0  0  0  0  0  0  0  0
    7.1813   -2.2715    0.9350 C   0  0  0  0  0  0  0  0  0  0  0  0
   -6.8520   -3.1862   -1.6228 C   0  0  0  0  0  0  0  0  0  0  0  0
   -0.2576    1.9745   -1.8790 H   0  0  0  0  0  0  0  0  0  0  0  0
    0.8733   -0.0405   -1.0839 H   0  0  0  0  0  0  0  0  0  0  0  0
   -1.0641    3.0549    0.5188 H   0  0  0  0  0  0  0  0  0  0  0  0
    2.5414    1.3310   -2.2495 H   0  0  0  0  0  0  0  0  0  0  0  0
    0.7641    2.4070    1.8629 H   0  0  0  0  0  0  0  0  0  0  0  0
   -0.2869    1.0133    2.1845 H   0  0  0  0  0  0  0  0  0  0  0  0
    2.7580    3.1002    0.2190 H   0  0  0  0  0  0  0  0  0  0  0  0
    3.0273    3.5186   -1.4779 H   0  0  0  0  0  0  0  0  0  0  0  0
   -1.6183    0.3282   -0.4642 H   0  0  0  0  0  0  0  0  0  0  0  0
    2.8216   -1.1179   -0.5618 H   0  0  0  0  0  0  0  0  0  0  0  0
    3.7627   -0.6977   -1.9987 H   0  0  0  0  0  0  0  0  0  0  0  0
    6.2160   -0.7488   -1.9434 H   0  0  0  0  0  0  0  0  0  0  0  0
    3.8887   -1.7121    1.5533 H   0  0  0  0  0  0  0  0  0  0  0  0
   -5.0325    0.5678    2.3505 H   0  0  0  0  0  0  0  0  0  0  0  0
   -3.2807   -0.1391   -1.5397 H   0  0  0  0  0  0  0  0  0  0  0  0
   -6.7522   -1.1236    1.8640 H   0  0  0  0  0  0  0  0  0  0  0  0
   -4.9218   -1.7980   -2.0061 H   0  0  0  0  0  0  0  0  0  0  0  0
    8.2166   -1.7297   -0.8745 H   0  0  0  0  0  0  0  0  0  0  0  0
    5.8961   -2.6901    2.6121 H   0  0  0  0  0  0  0  0  0  0  0  0
    8.0623   -2.7010    1.4030 H   0  0  0  0  0  0  0  0  0  0  0  0
   -6.9925   -2.4835   -2.4511 H   0  0  0  0  0  0  0  0  0  0  0  0
   -5.9282   -3.7662   -1.7226 H   0  0  0  0  0  0  0  0  0  0  0  0
   -7.6824   -3.8986   -1.6638 H   0  0  0  0  0  0  0  0  0  0  0  0
  1  8  1  0  0  0  0
  1 11  1  0  0  0  0
  2  7  1  0  0  0  0
  2 12  1  0  0  0  0
  3 10  1  0  0  0  0
  3 13  1  0  0  0  0
  4 14  2  0  0  0  0
  5 25  1  0  0  0  0
  5 27  1  0  0  0  0
  6  9  1  0  0  0  0
  6 14  1  0  0  0  0
  6 36  1  0  0  0  0
  7  8  1  0  0  0  0
  7  9  1  0  0  0  0
  7 28  1  0  0  0  0
  8 10  1  0  0  0  0
  8 29  1  0  0  0  0
  9 11  1  0  0  0  0
  9 30  1  0  0  0  0
 10 12  1  0  0  0  0
 10 31  1  0  0  0  0
 11 32  1  0  0  0  0
 11 33  1  0  0  0  0
 12 34  1  0  0  0  0
 12 35  1  0  0  0  0
 13 15  1  0  0  0  0
 13 37  1  0  0  0  0
 13 38  1  0  0  0  0
 14 16  1  0  0  0  0
 15 17  2  0  0  0  0
 15 18  1  0  0  0  0
 16 19  2  0  0  0  0
 16 20  1  0  0  0  0
 17 23  1  0  0  0  0
 17 39  1  0  0  0  0
 18 24  2  0  0  0  0
 18 40  1  0  0  0  0
 19 21  1  0  0  0  0
 19 41  1  0  0  0  0
 20 22  2  0  0  0  0
 20 42  1  0  0  0  0
 21 25  2  0  0  0  0
 21 43  1  0  0  0  0
 22 25  1  0  0  0  0
 22 44  1  0  0  0  0
 23 26  2  0  0  0  0
 23 45  1  0  0  0  0
 24 26  1  0  0  0  0
 24 46  1  0  0  0  0
 26 47  1  0  0  0  0
 27 48  1  0  0  0  0
 27 49  1  0  0  0  0
 27 50  1  0  0  0  0
M  END
> <PUBCHEM_COMPOUND_CID>
11886486

> <PUBCHEM_CONFORMER_RMSD>
1

> <PUBCHEM_CONFORMER_DIVERSEORDER>
1
11
17
7
14
9
16
12
5
6
10
13
3
15
2
4
8

> <PUBCHEM_MMFF94_PARTIAL_CHARGES>
37
1 -0.56
10 0.28
11 0.28
12 0.28
13 0.42
14 0.54
15 -0.14
16 0.09
17 -0.15
18 -0.15
19 -0.15
2 -0.56
20 -0.15
21 -0.15
22 -0.15
23 -0.15
24 -0.15
25 0.08
26 -0.15
27 0.28
3 -0.56
36 0.37
39 0.15
4 -0.57
40 0.15
41 0.15
42 0.15
43 0.15
44 0.15
45 0.15
46 0.15
47 0.15
5 -0.36
6 -0.73
7 0.28
8 0.28
9 0.3

> <PUBCHEM_EFFECTIVE_ROTOR_COUNT>
8.2

> <PUBCHEM_PHARMACOPHORE_FEATURES>
10
1 1 acceptor
1 2 acceptor
1 3 acceptor
1 4 acceptor
1 5 acceptor
1 6 donor
5 1 7 8 9 11 rings
5 2 7 8 10 12 rings
6 15 17 18 23 24 26 rings
6 16 19 20 21 22 25 rings

> <PUBCHEM_HEAVY_ATOM_COUNT>
27

> <PUBCHEM_ATOM_DEF_STEREO_COUNT>
4

> <PUBCHEM_ATOM_UDEF_STEREO_COUNT>
0

> <PUBCHEM_BOND_DEF_STEREO_COUNT>
0

> <PUBCHEM_BOND_UDEF_STEREO_COUNT>
0

> <PUBCHEM_ISOTOPIC_ATOM_COUNT>
0

> <PUBCHEM_COMPONENT_COUNT>
1

> <PUBCHEM_CACTVS_TAUTO_COUNT>
2

> <PUBCHEM_CONFORMER_ID>
00B55F9600000001

> <PUBCHEM_MMFF94_ENERGY>
90.0922

> <PUBCHEM_FEATURE_SELFOVERLAP>
51.469

> <PUBCHEM_SHAPE_FINGERPRINT>
10 15 14045738218601398323
10319926 262 17203618042512958689
10622 236 18409167710033019197
10670039 82 12901545728107059878
10693767 8 18259979405176288266
10939801 23 18129940213005480430
11211813 128 18410575043133048426
11410812 94 15140951800539751478
11475781 23 12107793999903878318
11497681 19 18264493885127165246
11607047 403 17984127434600612216
12390115 104 10663520626555265396
13533116 47 18339083807912573417
13540713 5 18267888170867229957
13690498 29 17822005376955124901
14068700 675 18412546492059029632
14347332 77 18410294709836624413
14671636 106 18342177748804687478
15183329 4 13767928997005353412
15188451 53 18202279191187443501
15320294 125 18202284715043213167
15326921 28 17413046300839953553
15728490 51 18413387657984410614
190975 80 18131345341288724506
19315092 285 18273495684784894616
19841028 212 18339358703764511407
20028762 73 18342460326860311414
20567600 247 18260829280657185250
20775438 99 17970624323493195434
21033648 29 13829588509869567577
21315759 148 17274261622449441414
21344244 78 15266791030623253827
21585482 111 10879730761799585323
21585483 132 18336253643835525931
21637258 2 18409166606047004532
21792938 703 18116154544063003402
23389318 12 18040442088593047782
23522609 53 18050044122462950964
25025965 108 17679852723115931938
2748736 6 9943520791434692006
2838139 119 10953751022815525798
312425 54 17346045445938429650
3383291 50 18342455967405598335
3504750 166 18048315540423876680
397830 11 17775556538441629528
4015057 19 17096390413567599652
406291 66 18411134753531382023
439807 62 18261114093245653263
474113 269 18059846299738365447
50009960 94 16628816595912982231
5104073 3 17489315234727821689
559249 180 18337958896565503721
5718773 13 18409446990049430454
5874358 3 17896018998063851650
6058803 2 18267892586468332145
6691757 9 17914903037478162281
7970288 3 18261671476668459378
96874 4 18410006637194444322

> <PUBCHEM_SHAPE_MULTIPOLES>
521.32
21.07
3.6
1.5
1.77
0.43
0.21
-26.21
0.35
-0.43
-0.65
-0.38
-0.22
-3.83

> <PUBCHEM_SHAPE_SELFOVERLAP>
1129.181

> <PUBCHEM_SHAPE_VOLUME>
286.2

> <PUBCHEM_COORDINATE_TYPE>
2
5
10

$$$$
