75536695
  -OEChem-12032416303D

 43 44  0     1  0  0  0  0  0999 V2000
    1.9961    2.0204    0.2528 S   0  0  0  0  0  0  0  0  0  0  0  0
   -2.1177    0.8799   -1.3734 O   0  0  0  0  0  0  0  0  0  0  0  0
   -2.9334   -0.0156    2.0086 O   0  0  0  0  0  0  0  0  0  0  0  0
    1.8509    2.3057    1.6676 O   0  0  0  0  0  0  0  0  0  0  0  0
    2.6439    2.9790   -0.6218 O   0  0  0  0  0  0  0  0  0  0  0  0
   -4.8530   -1.1994   -0.1798 N   0  0  0  0  0  0  0  0  0  0  0  0
    0.4780    1.6142   -0.3989 N   0  0  0  0  0  0  0  0  0  0  0  0
   -3.9647   -0.0488   -0.2040 C   0  0  1  0  0  0  0  0  0  0  0  0
   -2.7094   -0.2313    0.6288 C   0  0  1  0  0  0  0  0  0  0  0  0
   -1.8015    0.8334    0.0280 C   0  0  1  0  0  0  0  0  0  0  0  0
   -3.3767    0.2158   -1.5803 C   0  0  0  0  0  0  0  0  0  0  0  0
   -0.3240    0.5357    0.2112 C   0  0  0  0  0  0  0  0  0  0  0  0
   -5.9801   -1.0068   -1.0971 C   0  0  0  0  0  0  0  0  0  0  0  0
   -5.3464   -1.4481    1.1781 C   0  0  0  0  0  0  0  0  0  0  0  0
    2.8781    0.4969    0.0921 C   0  0  0  0  0  0  0  0  0  0  0  0
    3.6065    0.2322   -1.0676 C   0  0  0  0  0  0  0  0  0  0  0  0
    2.8432   -0.4417    1.1234 C   0  0  0  0  0  0  0  0  0  0  0  0
    4.3003   -0.9710   -1.1960 C   0  0  0  0  0  0  0  0  0  0  0  0
    3.5369   -1.6450    0.9949 C   0  0  0  0  0  0  0  0  0  0  0  0
    4.2656   -1.9096   -0.1646 C   0  0  0  0  0  0  0  0  0  0  0  0
    5.0073   -3.1961   -0.3021 C   0  0  0  0  0  0  0  0  0  0  0  0
   -4.4976    0.8509    0.1384 H   0  0  0  0  0  0  0  0  0  0  0  0
   -2.2843   -1.2335    0.4911 H   0  0  0  0  0  0  0  0  0  0  0  0
   -2.0283    1.8223    0.4479 H   0  0  0  0  0  0  0  0  0  0  0  0
   -3.1608   -0.7079   -2.1297 H   0  0  0  0  0  0  0  0  0  0  0  0
   -4.0159    0.8499   -2.2024 H   0  0  0  0  0  0  0  0  0  0  0  0
   -0.0601   -0.4009   -0.2926 H   0  0  0  0  0  0  0  0  0  0  0  0
   -0.0989    0.4447    1.2780 H   0  0  0  0  0  0  0  0  0  0  0  0
    0.3157    1.7789   -1.4003 H   0  0  0  0  0  0  0  0  0  0  0  0
   -3.3163    0.8709    2.1208 H   0  0  0  0  0  0  0  0  0  0  0  0
   -6.6569   -1.8684   -1.0574 H   0  0  0  0  0  0  0  0  0  0  0  0
   -5.6484   -0.9402   -2.1384 H   0  0  0  0  0  0  0  0  0  0  0  0
   -6.5600   -0.1084   -0.8556 H   0  0  0  0  0  0  0  0  0  0  0  0
   -6.1057   -2.2396    1.1697 H   0  0  0  0  0  0  0  0  0  0  0  0
   -5.7982   -0.5576    1.6299 H   0  0  0  0  0  0  0  0  0  0  0  0
   -4.5531   -1.8248    1.8303 H   0  0  0  0  0  0  0  0  0  0  0  0
    3.6414    0.9455   -1.8862 H   0  0  0  0  0  0  0  0  0  0  0  0
    2.2805   -0.2575    2.0341 H   0  0  0  0  0  0  0  0  0  0  0  0
    4.8644   -1.1658   -2.1043 H   0  0  0  0  0  0  0  0  0  0  0  0
    3.5030   -2.3679    1.8057 H   0  0  0  0  0  0  0  0  0  0  0  0
    4.5076   -4.0010    0.2476 H   0  0  0  0  0  0  0  0  0  0  0  0
    5.0625   -3.5104   -1.3499 H   0  0  0  0  0  0  0  0  0  0  0  0
    6.0251   -3.0861    0.0853 H   0  0  0  0  0  0  0  0  0  0  0  0
  1  4  2  0  0  0  0
  1  5  2  0  0  0  0
  1  7  1  0  0  0  0
  1 15  1  0  0  0  0
  2 10  1  0  0  0  0
  2 11  1  0  0  0  0
  3  9  1  0  0  0  0
  3 30  1  0  0  0  0
  6  8  1  0  0  0  0
  6 13  1  0  0  0  0
  6 14  1  0  0  0  0
  7 12  1  0  0  0  0
  7 29  1  0  0  0  0
  8  9  1  0  0  0  0
  8 11  1  0  0  0  0
  8 22  1  0  0  0  0
  9 10  1  0  0  0  0
  9 23  1  0  0  0  0
 10 12  1  0  0  0  0
 10 24  1  0  0  0  0
 11 25  1  0  0  0  0
 11 26  1  0  0  0  0
 12 27  1  0  0  0  0
 12 28  1  0  0  0  0
 13 31  1  0  0  0  0
 13 32  1  0  0  0  0
 13 33  1  0  0  0  0
 14 34  1  0  0  0  0
 14 35  1  0  0  0  0
 14 36  1  0  0  0  0
 15 16  2  0  0  0  0
 15 17  1  0  0  0  0
 16 18  1  0  0  0  0
 16 37  1  0  0  0  0
 17 19  2  0  0  0  0
 17 38  1  0  0  0  0
 18 20  2  0  0  0  0
 18 39  1  0  0  0  0
 19 20  1  0  0  0  0
 19 40  1  0  0  0  0
 20 21  1  0  0  0  0
 21 41  1  0  0  0  0
 21 42  1  0  0  0  0
 21 43  1  0  0  0  0
M  END
> <PUBCHEM_COMPOUND_CID>
75536695

> <PUBCHEM_CONFORMER_RMSD>
0.8

> <PUBCHEM_CONFORMER_DIVERSEORDER>
1
29
43
23
60
47
33
17
45
37
9
62
22
41
30
53
38
27
42
59
14
28
10
57
48
50
52
7
8
40
36
55
25
49
51
21
19
5
54
11
26
44
2
3
56
31
15
35
6
39
24
4
46
32
18
20
16
58
34
13
61
12

> <PUBCHEM_MMFF94_PARTIAL_CHARGES>
27
1 1.45
10 0.28
11 0.28
12 0.36
13 0.27
14 0.27
15 -0.01
16 -0.15
17 -0.15
18 -0.15
19 -0.15
2 -0.56
20 -0.14
21 0.14
29 0.42
3 -0.68
30 0.4
37 0.15
38 0.15
39 0.15
4 -0.65
40 0.15
5 -0.65
6 -0.81
7 -0.91
8 0.27
9 0.28

> <PUBCHEM_EFFECTIVE_ROTOR_COUNT>
6

> <PUBCHEM_PHARMACOPHORE_FEATURES>
9
1 2 acceptor
1 3 acceptor
1 3 donor
1 4 acceptor
1 5 acceptor
1 6 cation
1 7 donor
5 2 8 9 10 11 rings
6 15 16 17 18 19 20 rings

> <PUBCHEM_HEAVY_ATOM_COUNT>
21

> <PUBCHEM_ATOM_DEF_STEREO_COUNT>
3

> <PUBCHEM_ATOM_UDEF_STEREO_COUNT>
0

> <PUBCHEM_BOND_DEF_STEREO_COUNT>
0

> <PUBCHEM_BOND_UDEF_STEREO_COUNT>
0

> <PUBCHEM_ISOTOPIC_ATOM_COUNT>
0

> <PUBCHEM_COMPONENT_COUNT>
1

> <PUBCHEM_CACTVS_TAUTO_COUNT>
1

> <PUBCHEM_CONFORMER_ID>
0480993700000001

> <PUBCHEM_MMFF94_ENERGY>
40.3694

> <PUBCHEM_FEATURE_SELFOVERLAP>
45.69

> <PUBCHEM_SHAPE_FINGERPRINT>
10319926 262 14476968860816412166
10366900 7 17676490514513530531
10498660 4 14057008217054663444
10928967 22 18272088241066268022
12107183 9 18055365647509373009
12363563 72 18339643326650783692
12596602 18 17275383196770647746
12892183 10 15482389729991202122
13533116 47 18271807977554320091
13914758 101 17917428697633588357
13955234 65 18198061576390199048
13965767 371 11527654242822627642
1420 369 18131631175224860223
14251732 14 15575008299006235011
14251764 30 17702116781078818454
14251764 75 9510872908833760678
14341114 328 14620493641608750226
14528608 73 12179847212441927691
14848160 33 18411978040389366270
14848178 96 7853563622038712158
14866123 147 17979074882048757505
15188451 53 17131540679220446199
15475509 8 17458904847869608237
15664445 248 16660646322953646076
17349148 13 17775569753855493383
17870717 6 17385444311222565303
1813 80 18059301967866550948
18222031 100 18130787837069017358
193927 3 18341616983897336678
19784866 34 8430303645921138142
20388580 30 18411141320868121764
20645477 70 18335416902405778596
20693207 138 17822004315834328493
21713013 43 17749390313120388662
221357 26 18187644678352246391
2215653 11 18186794790957008551
22224240 67 18056749048370925928
23557571 272 17168131373477841156
23559900 14 17530684342210363877
23596394 208 17822007618511120106
239999 70 17749666419346190192
270888 7 8574128558896785022
2838139 119 11748093198909497878
312423 11 18341905094783506377
314194 84 18342739611334700238
3421961 26 18341609322160983832
3472631 163 11530775794276887691
34797466 226 16588595321985389943
351380 3 18060703875093245374
3737641 26 17200807592736356502
44062 13 18264765454980486893
46194498 28 17676490587738815708
465052 167 18342181076338666719
5104073 3 17988926643366466937
5281201 14 18260263066396990613
6034566 193 8213840601211771555
7808743 9 9293844689936367998
7970288 3 18268994194029229054
94968 8 18407760331197097544
960060 61 17967535674739053822
9841814 1 16702020928289875848

> <PUBCHEM_SHAPE_MULTIPOLES>
402.58
13.13
2.67
1.48
10.45
0.2
-0.19
-10.27
1.86
-4.11
-0.11
0.71
0.05
0.54

> <PUBCHEM_SHAPE_SELFOVERLAP>
816.466

> <PUBCHEM_SHAPE_VOLUME>
237.4

> <PUBCHEM_COORDINATE_TYPE>
2
5
10

$$$$
