7161627
  -OEChem-12032416133D

 49 50  0     1  0  0  0  0  0999 V2000
   -2.2655    1.5434   -1.3421 O   0  0  0  0  0  0  0  0  0  0  0  0
    1.9051    2.5593   -0.2541 O   0  0  0  0  0  0  0  0  0  0  0  0
    0.3732    1.8388    1.3178 O   0  0  0  0  0  0  0  0  0  0  0  0
    3.3093   -2.3729    0.9158 O   0  0  0  0  0  0  0  0  0  0  0  0
    5.3947   -1.0542    0.3635 O   0  0  0  0  0  0  0  0  0  0  0  0
   -0.7225    0.1144   -0.3459 N   0  0  0  0  0  0  0  0  0  0  0  0
    1.8461   -1.1179   -0.3789 N   0  0  0  0  0  0  0  0  0  0  0  0
   -3.1343   -0.0750    0.1429 C   0  0  0  0  0  0  0  0  0  0  0  0
   -3.6473   -1.2581   -0.6813 C   0  0  0  0  0  0  0  0  0  0  0  0
   -4.2508    0.9299    0.4350 C   0  0  0  0  0  0  0  0  0  0  0  0
   -4.8537   -1.9229   -0.0236 C   0  0  0  0  0  0  0  0  0  0  0  0
   -5.4557    0.2600    1.0902 C   0  0  0  0  0  0  0  0  0  0  0  0
    0.4282    0.8541   -0.8814 C   0  0  2  0  0  0  0  0  0  0  0  0
   -5.9643   -0.9167    0.2629 C   0  0  0  0  0  0  0  0  0  0  0  0
   -2.0115    0.6048   -0.5826 C   0  0  0  0  0  0  0  0  0  0  0  0
   -0.4174   -1.0059    0.5603 C   0  0  0  0  0  0  0  0  0  0  0  0
    1.5684   -0.0518   -1.3471 C   0  0  0  0  0  0  0  0  0  0  0  0
    0.6753   -1.9053   -0.0031 C   0  0  0  0  0  0  0  0  0  0  0  0
    0.8751    1.7917    0.2030 C   0  0  0  0  0  0  0  0  0  0  0  0
    3.1000   -1.4397    0.1367 C   0  0  0  0  0  0  0  0  0  0  0  0
    4.2525   -0.5717   -0.3012 C   0  0  0  0  0  0  0  0  0  0  0  0
    2.4310    3.5040    0.6835 C   0  0  0  0  0  0  0  0  0  0  0  0
    6.5642   -0.3086    0.0298 C   0  0  0  0  0  0  0  0  0  0  0  0
   -2.8016   -0.4196    1.1271 H   0  0  0  0  0  0  0  0  0  0  0  0
   -3.9307   -0.9143   -1.6852 H   0  0  0  0  0  0  0  0  0  0  0  0
   -2.8594   -2.0045   -0.8319 H   0  0  0  0  0  0  0  0  0  0  0  0
   -3.8772    1.7307    1.0853 H   0  0  0  0  0  0  0  0  0  0  0  0
   -4.5877    1.4147   -0.4908 H   0  0  0  0  0  0  0  0  0  0  0  0
   -5.2362   -2.7179   -0.6736 H   0  0  0  0  0  0  0  0  0  0  0  0
   -4.5409   -2.3990    0.9138 H   0  0  0  0  0  0  0  0  0  0  0  0
   -5.1781   -0.0909    2.0918 H   0  0  0  0  0  0  0  0  0  0  0  0
   -6.2594    0.9934    1.2210 H   0  0  0  0  0  0  0  0  0  0  0  0
    0.0960    1.4777   -1.7198 H   0  0  0  0  0  0  0  0  0  0  0  0
   -6.3745   -0.5463   -0.6847 H   0  0  0  0  0  0  0  0  0  0  0  0
   -6.7842   -1.4136    0.7936 H   0  0  0  0  0  0  0  0  0  0  0  0
   -1.2864   -1.6352    0.7507 H   0  0  0  0  0  0  0  0  0  0  0  0
   -0.1068   -0.5863    1.5228 H   0  0  0  0  0  0  0  0  0  0  0  0
    2.4637    0.5232   -1.5894 H   0  0  0  0  0  0  0  0  0  0  0  0
    1.2669   -0.5600   -2.2721 H   0  0  0  0  0  0  0  0  0  0  0  0
    0.3231   -2.4145   -0.9084 H   0  0  0  0  0  0  0  0  0  0  0  0
    0.9377   -2.6761    0.7282 H   0  0  0  0  0  0  0  0  0  0  0  0
    4.0619    0.4656   -0.0081 H   0  0  0  0  0  0  0  0  0  0  0  0
    4.3841   -0.6581   -1.3846 H   0  0  0  0  0  0  0  0  0  0  0  0
    1.6541    4.2141    0.9825 H   0  0  0  0  0  0  0  0  0  0  0  0
    2.8369    2.9838    1.5563 H   0  0  0  0  0  0  0  0  0  0  0  0
    3.2400    4.0533    0.1949 H   0  0  0  0  0  0  0  0  0  0  0  0
    6.7679   -0.3798   -1.0429 H   0  0  0  0  0  0  0  0  0  0  0  0
    6.4448    0.7387    0.3236 H   0  0  0  0  0  0  0  0  0  0  0  0
    7.4096   -0.7333    0.5773 H   0  0  0  0  0  0  0  0  0  0  0  0
  1 15  2  0  0  0  0
  2 19  1  0  0  0  0
  2 22  1  0  0  0  0
  3 19  2  0  0  0  0
  4 20  2  0  0  0  0
  5 21  1  0  0  0  0
  5 23  1  0  0  0  0
  6 13  1  0  0  0  0
  6 15  1  0  0  0  0
  6 16  1  0  0  0  0
  7 17  1  0  0  0  0
  7 18  1  0  0  0  0
  7 20  1  0  0  0  0
  8  9  1  0  0  0  0
  8 10  1  0  0  0  0
  8 15  1  0  0  0  0
  8 24  1  0  0  0  0
  9 11  1  0  0  0  0
  9 25  1  0  0  0  0
  9 26  1  0  0  0  0
 10 12  1  0  0  0  0
 10 27  1  0  0  0  0
 10 28  1  0  0  0  0
 11 14  1  0  0  0  0
 11 29  1  0  0  0  0
 11 30  1  0  0  0  0
 12 14  1  0  0  0  0
 12 31  1  0  0  0  0
 12 32  1  0  0  0  0
 13 17  1  0  0  0  0
 13 19  1  0  0  0  0
 13 33  1  0  0  0  0
 14 34  1  0  0  0  0
 14 35  1  0  0  0  0
 16 18  1  0  0  0  0
 16 36  1  0  0  0  0
 16 37  1  0  0  0  0
 17 38  1  0  0  0  0
 17 39  1  0  0  0  0
 18 40  1  0  0  0  0
 18 41  1  0  0  0  0
 20 21  1  0  0  0  0
 21 42  1  0  0  0  0
 21 43  1  0  0  0  0
 22 44  1  0  0  0  0
 22 45  1  0  0  0  0
 22 46  1  0  0  0  0
 23 47  1  0  0  0  0
 23 48  1  0  0  0  0
 23 49  1  0  0  0  0
M  END
> <PUBCHEM_COMPOUND_CID>
7161627

> <PUBCHEM_CONFORMER_RMSD>
1

> <PUBCHEM_CONFORMER_DIVERSEORDER>
1
40
39
43
46
22
70
51
23
67
60
66
73
57
69
64
13
24
7
30
42
58
31
65
72
76
62
10
49
37
14
59
6
2
16
79
50
78
11
77
9
47
36
45
48
21
34
27
38
3
35
75
15
12
63
8
55
17
53
20
19
41
61
54
26
74
32
44
5
29
71
28
18
33
68
56
52
25
4

> <PUBCHEM_MMFF94_PARTIAL_CHARGES>
18
1 -0.57
13 0.36
15 0.57
16 0.3
17 0.3
18 0.3
19 0.66
2 -0.43
20 0.57
21 0.34
22 0.28
23 0.28
3 -0.57
4 -0.57
5 -0.56
6 -0.66
7 -0.66
8 0.06

> <PUBCHEM_EFFECTIVE_ROTOR_COUNT>
9.4

> <PUBCHEM_PHARMACOPHORE_FEATURES>
6
1 1 acceptor
1 3 acceptor
1 4 acceptor
1 5 acceptor
6 6 7 13 16 17 18 rings
6 8 9 10 11 12 14 rings

> <PUBCHEM_HEAVY_ATOM_COUNT>
23

> <PUBCHEM_ATOM_DEF_STEREO_COUNT>
1

> <PUBCHEM_ATOM_UDEF_STEREO_COUNT>
0

> <PUBCHEM_BOND_DEF_STEREO_COUNT>
0

> <PUBCHEM_BOND_UDEF_STEREO_COUNT>
0

> <PUBCHEM_ISOTOPIC_ATOM_COUNT>
0

> <PUBCHEM_COMPONENT_COUNT>
1

> <PUBCHEM_CACTVS_TAUTO_COUNT>
1

> <PUBCHEM_CONFORMER_ID>
006D471B00000001

> <PUBCHEM_MMFF94_ENERGY>
48.3633

> <PUBCHEM_FEATURE_SELFOVERLAP>
30.465

> <PUBCHEM_SHAPE_FINGERPRINT>
1100329 8 18340204206467281346
11405975 8 18413113866482653089
12035758 1 18410002265492068496
12166972 35 17968101885464138046
12516196 113 18411700967954704282
12633257 1 18202015304776861545
13140716 1 18337113492003201979
13899415 154 18341902891981864784
14787075 74 18259705592890634386
14849402 71 18268717275891337728
14955137 171 17988929968019046718
15048467 5 15626220195915710530
15209289 33 18335141981886927747
15238133 3 17060352803391159209
15527383 91 18408889525380863925
15927050 60 17838334439240940612
17980427 26 17270863276014877008
18785283 64 18263640830890388504
20028762 73 18201154455339071503
21033648 29 16056026927644252171
21041028 32 18273215270565203321
21267235 1 18336552638289083910
22182313 1 17896577614120581149
23402539 116 16733267859124150999
23559900 14 17895758520812173135
23622692 118 17773582996774617375
23622692 88 17846776300302930565
25147074 1 17773868882334211133
3286 77 18409169926420630493
3411729 13 18127973207999377584
350125 39 18409168814061205893
3633792 109 18339631297185950663
4093350 32 16702026426898001552
5104073 3 18269849747762080387
5895379 119 16700924625150376161
59682541 35 18335138726591569314
67856867 119 18271806882279825625
7495541 125 18334861640269555343

> <PUBCHEM_SHAPE_MULTIPOLES>
434.02
12.56
2.74
1.03
0.75
1.81
0.08
-5.04
-2.28
-2.12
-0.56
0.19
0.2
-0.17

> <PUBCHEM_SHAPE_SELFOVERLAP>
880.399

> <PUBCHEM_SHAPE_VOLUME>
249.6

> <PUBCHEM_COORDINATE_TYPE>
2
5
10

$$$$
