28960058
  -OEChem-12032416143D

 64 67  0     1  0  0  0  0  0999 V2000
    0.2659    5.4051    1.2001 F   0  0  0  0  0  0  0  0  0  0  0  0
   -3.8144    2.1670   -2.2292 O   0  0  0  0  0  0  0  0  0  0  0  0
   -3.4750   -5.7649    0.1281 O   0  0  0  0  0  0  0  0  0  0  0  0
   -5.2538   -4.3480    0.2232 O   0  0  0  0  0  0  0  0  0  0  0  0
   -3.7546    0.7221   -0.3899 N   0  0  0  0  0  0  0  0  0  0  0  0
    1.1296   -0.4032    0.4336 N   0  0  0  0  0  0  0  0  0  0  0  0
    3.9594   -0.6472    0.1298 N   0  0  0  0  0  0  0  0  0  0  0  0
    5.9132    0.3132   -0.7995 N   0  0  0  0  0  0  0  0  0  0  0  0
   -2.5892   -1.0335    0.9274 C   0  0  2  0  0  0  0  0  0  0  0  0
   -3.5715   -2.0755    0.3341 C   0  0  1  0  0  0  0  0  0  0  0  0
   -3.2466    0.3588    0.9405 C   0  0  0  0  0  0  0  0  0  0  0  0
   -4.1113   -1.6286   -1.0351 C   0  0  0  0  0  0  0  0  0  0  0  0
   -1.2345   -0.9760    0.2103 C   0  0  0  0  0  0  0  0  0  0  0  0
   -4.7082   -0.2259   -0.9629 C   0  0  0  0  0  0  0  0  0  0  0  0
   -0.1469   -0.4653    1.1445 C   0  0  0  0  0  0  0  0  0  0  0  0
   -2.9759   -3.4804    0.2459 C   0  0  0  0  0  0  0  0  0  0  0  0
    1.7613   -1.7276    0.3927 C   0  0  0  0  0  0  0  0  0  0  0  0
    2.0311    0.5603    1.0775 C   0  0  0  0  0  0  0  0  0  0  0  0
   -3.3961    1.8620   -1.1135 C   0  0  0  0  0  0  0  0  0  0  0  0
    3.0717   -1.6882   -0.3975 C   0  0  0  0  0  0  0  0  0  0  0  0
    3.3497    0.6765    0.3094 C   0  0  0  0  0  0  0  0  0  0  0  0
   -4.0466   -4.5354    0.2005 C   0  0  0  0  0  0  0  0  0  0  0  0
   -2.4360    2.7906   -0.5065 C   0  0  0  0  0  0  0  0  0  0  0  0
    5.3328   -0.7085   -0.1313 C   0  0  0  0  0  0  0  0  0  0  0  0
   -1.0688    2.6225   -0.7265 C   0  0  0  0  0  0  0  0  0  0  0  0
   -2.8902    3.8418    0.2900 C   0  0  0  0  0  0  0  0  0  0  0  0
    6.0143   -1.8279    0.3185 C   0  0  0  0  0  0  0  0  0  0  0  0
   -0.1559    3.5054   -0.1499 C   0  0  0  0  0  0  0  0  0  0  0  0
   -1.9772    4.7246    0.8668 C   0  0  0  0  0  0  0  0  0  0  0  0
    7.3796   -1.9033    0.0664 C   0  0  0  0  0  0  0  0  0  0  0  0
   -0.6101    4.5564    0.6468 C   0  0  0  0  0  0  0  0  0  0  0  0
    7.2416    0.2048   -1.0262 C   0  0  0  0  0  0  0  0  0  0  0  0
    8.0126   -0.8717   -0.6181 C   0  0  0  0  0  0  0  0  0  0  0  0
   -2.4128   -1.3262    1.9718 H   0  0  0  0  0  0  0  0  0  0  0  0
   -4.4289   -2.1067    1.0227 H   0  0  0  0  0  0  0  0  0  0  0  0
   -4.1150    0.3479    1.6117 H   0  0  0  0  0  0  0  0  0  0  0  0
   -2.5660    1.1132    1.3375 H   0  0  0  0  0  0  0  0  0  0  0  0
   -4.8765   -2.3211   -1.4019 H   0  0  0  0  0  0  0  0  0  0  0  0
   -3.2983   -1.6343   -1.7724 H   0  0  0  0  0  0  0  0  0  0  0  0
   -1.2912   -0.3675   -0.6980 H   0  0  0  0  0  0  0  0  0  0  0  0
   -0.9571   -1.9775   -0.1257 H   0  0  0  0  0  0  0  0  0  0  0  0
   -5.0216    0.0937   -1.9619 H   0  0  0  0  0  0  0  0  0  0  0  0
   -5.5992   -0.2213   -0.3239 H   0  0  0  0  0  0  0  0  0  0  0  0
   -0.0742   -1.0823    2.0496 H   0  0  0  0  0  0  0  0  0  0  0  0
   -0.4290    0.5390    1.4805 H   0  0  0  0  0  0  0  0  0  0  0  0
   -2.3537   -3.5927   -0.6488 H   0  0  0  0  0  0  0  0  0  0  0  0
   -2.3663   -3.6813    1.1348 H   0  0  0  0  0  0  0  0  0  0  0  0
    1.1122   -2.4641   -0.0920 H   0  0  0  0  0  0  0  0  0  0  0  0
    1.9630   -2.0931    1.4090 H   0  0  0  0  0  0  0  0  0  0  0  0
    2.2367    0.2587    2.1137 H   0  0  0  0  0  0  0  0  0  0  0  0
    1.5721    1.5527    1.1182 H   0  0  0  0  0  0  0  0  0  0  0  0
    3.5333   -2.6807   -0.3442 H   0  0  0  0  0  0  0  0  0  0  0  0
    2.8677   -1.4846   -1.4566 H   0  0  0  0  0  0  0  0  0  0  0  0
    3.1764    1.1391   -0.6707 H   0  0  0  0  0  0  0  0  0  0  0  0
    4.0193    1.3354    0.8765 H   0  0  0  0  0  0  0  0  0  0  0  0
   -4.1468   -6.4791    0.0965 H   0  0  0  0  0  0  0  0  0  0  0  0
   -0.7020    1.8180   -1.3575 H   0  0  0  0  0  0  0  0  0  0  0  0
   -3.9533    3.9816    0.4681 H   0  0  0  0  0  0  0  0  0  0  0  0
    5.5251   -2.6264    0.8666 H   0  0  0  0  0  0  0  0  0  0  0  0
    0.9077    3.3831   -0.3309 H   0  0  0  0  0  0  0  0  0  0  0  0
   -2.3304    5.5430    1.4872 H   0  0  0  0  0  0  0  0  0  0  0  0
    7.9501   -2.7625    0.4061 H   0  0  0  0  0  0  0  0  0  0  0  0
    7.6874    1.0353   -1.5635 H   0  0  0  0  0  0  0  0  0  0  0  0
    9.0760   -0.9089   -0.8248 H   0  0  0  0  0  0  0  0  0  0  0  0
  1 31  1  0  0  0  0
  2 19  2  0  0  0  0
  3 22  1  0  0  0  0
  3 56  1  0  0  0  0
  4 22  2  0  0  0  0
  5 11  1  0  0  0  0
  5 14  1  0  0  0  0
  5 19  1  0  0  0  0
  6 15  1  0  0  0  0
  6 17  1  0  0  0  0
  6 18  1  0  0  0  0
  7 20  1  0  0  0  0
  7 21  1  0  0  0  0
  7 24  1  0  0  0  0
  8 24  1  0  0  0  0
  8 32  2  0  0  0  0
  9 10  1  0  0  0  0
  9 11  1  0  0  0  0
  9 13  1  0  0  0  0
  9 34  1  0  0  0  0
 10 12  1  0  0  0  0
 10 16  1  0  0  0  0
 10 35  1  0  0  0  0
 11 36  1  0  0  0  0
 11 37  1  0  0  0  0
 12 14  1  0  0  0  0
 12 38  1  0  0  0  0
 12 39  1  0  0  0  0
 13 15  1  0  0  0  0
 13 40  1  0  0  0  0
 13 41  1  0  0  0  0
 14 42  1  0  0  0  0
 14 43  1  0  0  0  0
 15 44  1  0  0  0  0
 15 45  1  0  0  0  0
 16 22  1  0  0  0  0
 16 46  1  0  0  0  0
 16 47  1  0  0  0  0
 17 20  1  0  0  0  0
 17 48  1  0  0  0  0
 17 49  1  0  0  0  0
 18 21  1  0  0  0  0
 18 50  1  0  0  0  0
 18 51  1  0  0  0  0
 19 23  1  0  0  0  0
 20 52  1  0  0  0  0
 20 53  1  0  0  0  0
 21 54  1  0  0  0  0
 21 55  1  0  0  0  0
 23 25  2  0  0  0  0
 23 26  1  0  0  0  0
 24 27  2  0  0  0  0
 25 28  1  0  0  0  0
 25 57  1  0  0  0  0
 26 29  2  0  0  0  0
 26 58  1  0  0  0  0
 27 30  1  0  0  0  0
 27 59  1  0  0  0  0
 28 31  2  0  0  0  0
 28 60  1  0  0  0  0
 29 31  1  0  0  0  0
 29 61  1  0  0  0  0
 30 33  2  0  0  0  0
 30 62  1  0  0  0  0
 32 33  1  0  0  0  0
 32 63  1  0  0  0  0
 33 64  1  0  0  0  0
M  END
> <PUBCHEM_COMPOUND_CID>
28960058

> <PUBCHEM_CONFORMER_RMSD>
1

> <PUBCHEM_CONFORMER_DIVERSEORDER>
1
80
90
95
93
106
63
120
67
34
36
56
57
58
40
91
122
89
73
47
28
65
105
66
79
101
32
33
128
61
118
114
117
125
22
126
99
52
45
103
68
13
62
19
82
127
72
50
110
48
88
35
108
92
30
51
112
42
96
38
21
87
26
131
27
37
119
70
44
39
4
25
104
64
94
86
78
132
129
124
23
71
41
115
111
109
69
18
81
102
29
107
75
98
46
49
15
121
2
97
77
53
10
130
54
17
55
76
83
3
60
20
113
24
9
12
8
123
59
43
14
5
11
74
116
100
16
7
84
85
31
6

> <PUBCHEM_MMFF94_PARTIAL_CHARGES>
38
1 -0.19
11 0.3
14 0.3
15 0.27
16 0.06
17 0.27
18 0.27
19 0.54
2 -0.57
20 0.37
21 0.37
22 0.66
23 0.09
24 0.41
25 -0.15
26 -0.15
27 -0.15
28 -0.15
29 -0.15
3 -0.65
30 -0.15
31 0.19
32 0.16
33 -0.15
4 -0.57
5 -0.66
56 0.5
57 0.15
58 0.15
59 0.15
6 -0.81
60 0.15
61 0.15
62 0.15
63 0.15
64 0.15
7 -0.84
8 -0.62

> <PUBCHEM_EFFECTIVE_ROTOR_COUNT>
10.4

> <PUBCHEM_PHARMACOPHORE_FEATURES>
11
1 2 acceptor
1 3 acceptor
1 4 acceptor
1 6 cation
1 7 cation
1 8 acceptor
3 3 4 22 anion
6 23 25 26 28 29 31 rings
6 5 9 10 11 12 14 rings
6 6 7 17 18 20 21 rings
6 8 24 27 30 32 33 rings

> <PUBCHEM_HEAVY_ATOM_COUNT>
33

> <PUBCHEM_ATOM_DEF_STEREO_COUNT>
2

> <PUBCHEM_ATOM_UDEF_STEREO_COUNT>
0

> <PUBCHEM_BOND_DEF_STEREO_COUNT>
0

> <PUBCHEM_BOND_UDEF_STEREO_COUNT>
0

> <PUBCHEM_ISOTOPIC_ATOM_COUNT>
0

> <PUBCHEM_COMPONENT_COUNT>
1

> <PUBCHEM_CACTVS_TAUTO_COUNT>
1

> <PUBCHEM_CONFORMER_ID>
01B9E53A00000001

> <PUBCHEM_MMFF94_ENERGY>
91.7271

> <PUBCHEM_FEATURE_SELFOVERLAP>
55.882

> <PUBCHEM_SHAPE_FINGERPRINT>
100830 39 18409449164057340742
10411042 1 18266462190485485299
10454371 7 18338242557796723388
10462674 296 17841138167690502078
10816530 145 18342471330497147129
11049842 53 17689980250770937163
11409948 41 17262986465915807879
11434127 23 18270394980173721582
11756154 67 18337396036827585547
12788726 201 18261949652808989659
13690498 29 18336827592846510930
13761468 95 17753887212472625348
13782708 43 17988924466688556654
13911987 19 18118387464049631661
14856354 85 18342177739465127900
15183329 4 17968096362204877090
15297060 5 18126564518607977177
15324884 4 17913178087836792353
15400415 2 17762339115933673816
15876981 60 18334301988819395695
15890870 6 18264766550920359965
15950262 2 15360217401003178845
15968369 26 16889759468105194007
16114785 44 17984996899247777385
19246450 95 18197804154095003481
20101258 96 18264212572778820371
20775438 99 17546959412742332311
21033650 10 18118151133284375382
21236236 1 18335987450631230024
23559900 14 18195517328332680763
255183 451 17977383060324806399
3610482 184 18117582647218180668
531348 171 18335139739798364090
57527306 92 15430597230865850373
57527452 28 15912747463527945933
6700243 42 17841752670219799150

> <PUBCHEM_SHAPE_MULTIPOLES>
634.32
16.16
7.25
1.15
40.49
1.19
-0.23
-11.7
-4.62
-13.59
1.63
-0.65
0.6
0.46

> <PUBCHEM_SHAPE_SELFOVERLAP>
1342.377

> <PUBCHEM_SHAPE_VOLUME>
353.6

> <PUBCHEM_COORDINATE_TYPE>
2
5
10

$$$$
