11912433
  -OEChem-12032416213D

 62 66  0     1  0  0  0  0  0999 V2000
    8.0359    2.0331   -0.6780 F   0  0  0  0  0  0  0  0  0  0  0  0
    5.9361    2.0877   -1.2810 F   0  0  0  0  0  0  0  0  0  0  0  0
    6.5768    3.0112    0.6219 F   0  0  0  0  0  0  0  0  0  0  0  0
   -3.4425    0.2099    2.2323 O   0  0  0  0  0  0  0  0  0  0  0  0
    0.9194   -0.7263   -1.8225 O   0  0  0  0  0  0  0  0  0  0  0  0
    6.5744    0.7309    0.4458 O   0  0  0  0  0  0  0  0  0  0  0  0
   -3.6413   -1.0956    0.3223 N   0  0  0  0  0  0  0  0  0  0  0  0
   -0.7431   -1.9778   -0.7694 N   0  0  0  0  0  0  0  0  0  0  0  0
   -3.7796    1.2636    0.2226 N   0  0  0  0  0  0  0  0  0  0  0  0
   -3.0632   -2.3242   -1.7913 C   0  0  1  0  0  0  0  0  0  0  0  0
   -2.5286   -3.3292    0.3828 C   0  0  2  0  0  0  0  0  0  0  0  0
   -3.0651   -3.6321   -1.0130 C   0  0  0  0  0  0  0  0  0  0  0  0
   -3.9517   -1.2682   -1.1053 C   0  0  0  0  0  0  0  0  0  0  0  0
   -3.4734   -2.3391    1.0846 C   0  0  0  0  0  0  0  0  0  0  0  0
   -1.6152   -1.8421   -1.9431 C   0  0  0  0  0  0  0  0  0  0  0  0
   -1.1266   -2.7535    0.3265 C   0  0  0  0  0  0  0  0  0  0  0  0
   -3.6076    0.1313    1.0104 C   0  0  0  0  0  0  0  0  0  0  0  0
   -3.7758    2.5971    0.7820 C   0  0  0  0  0  0  0  0  0  0  0  0
   -0.2664   -2.9648    1.3355 C   0  0  0  0  0  0  0  0  0  0  0  0
    0.5321   -1.3853   -0.8559 C   0  0  0  0  0  0  0  0  0  0  0  0
   -3.1996    3.6102   -0.2130 C   0  0  0  0  0  0  0  0  0  0  0  0
   -5.1795    3.0061    1.2409 C   0  0  0  0  0  0  0  0  0  0  0  0
   -4.1448    3.8834   -1.3829 C   0  0  0  0  0  0  0  0  0  0  0  0
   -6.1215    3.2802    0.0685 C   0  0  0  0  0  0  0  0  0  0  0  0
    1.4606   -1.6087    0.3073 C   0  0  0  0  0  0  0  0  0  0  0  0
   -5.5314    4.2993   -0.9014 C   0  0  0  0  0  0  0  0  0  0  0  0
    1.0431   -2.3771    1.3245 C   0  0  0  0  0  0  0  0  0  0  0  0
    2.8001   -0.9961    0.3435 C   0  0  0  0  0  0  0  0  0  0  0  0
    3.8955   -1.6792   -0.1861 C   0  0  0  0  0  0  0  0  0  0  0  0
    2.9747    0.2680    0.9078 C   0  0  0  0  0  0  0  0  0  0  0  0
    5.1636   -1.0992   -0.1513 C   0  0  0  0  0  0  0  0  0  0  0  0
    4.2428    0.8481    0.9427 C   0  0  0  0  0  0  0  0  0  0  0  0
    5.3372    0.1645    0.4132 C   0  0  0  0  0  0  0  0  0  0  0  0
    6.7643    1.9738   -0.2211 C   0  0  0  0  0  0  0  0  0  0  0  0
   -3.4716   -2.4954   -2.7951 H   0  0  0  0  0  0  0  0  0  0  0  0
   -2.5202   -4.2654    0.9562 H   0  0  0  0  0  0  0  0  0  0  0  0
   -4.0804   -4.0429   -0.9553 H   0  0  0  0  0  0  0  0  0  0  0  0
   -2.4423   -4.3828   -1.5153 H   0  0  0  0  0  0  0  0  0  0  0  0
   -3.8771   -0.3411   -1.6724 H   0  0  0  0  0  0  0  0  0  0  0  0
   -5.0006   -1.5862   -1.1519 H   0  0  0  0  0  0  0  0  0  0  0  0
   -4.4721   -2.7816    1.1880 H   0  0  0  0  0  0  0  0  0  0  0  0
   -3.1169   -2.1257    2.0984 H   0  0  0  0  0  0  0  0  0  0  0  0
   -1.1322   -2.4252   -2.7392 H   0  0  0  0  0  0  0  0  0  0  0  0
   -1.5911   -0.7976   -2.2785 H   0  0  0  0  0  0  0  0  0  0  0  0
   -3.1215    2.5835    1.6624 H   0  0  0  0  0  0  0  0  0  0  0  0
   -0.5418   -3.5560    2.2026 H   0  0  0  0  0  0  0  0  0  0  0  0
   -3.0062    4.5547    0.3114 H   0  0  0  0  0  0  0  0  0  0  0  0
   -2.2356    3.2579   -0.5996 H   0  0  0  0  0  0  0  0  0  0  0  0
   -5.6165    2.2324    1.8834 H   0  0  0  0  0  0  0  0  0  0  0  0
   -5.1031    3.9161    1.8498 H   0  0  0  0  0  0  0  0  0  0  0  0
   -4.0623    1.1847   -0.7429 H   0  0  0  0  0  0  0  0  0  0  0  0
   -3.7246    4.6766   -2.0120 H   0  0  0  0  0  0  0  0  0  0  0  0
   -4.2275    2.9930   -2.0171 H   0  0  0  0  0  0  0  0  0  0  0  0
   -6.3306    2.3450   -0.4649 H   0  0  0  0  0  0  0  0  0  0  0  0
   -7.0812    3.6487    0.4485 H   0  0  0  0  0  0  0  0  0  0  0  0
   -5.4671    5.2768   -0.4075 H   0  0  0  0  0  0  0  0  0  0  0  0
   -6.1997    4.4203   -1.7613 H   0  0  0  0  0  0  0  0  0  0  0  0
    1.6730   -2.5695    2.1881 H   0  0  0  0  0  0  0  0  0  0  0  0
    3.7761   -2.6645   -0.6304 H   0  0  0  0  0  0  0  0  0  0  0  0
    2.1315    0.8131    1.3252 H   0  0  0  0  0  0  0  0  0  0  0  0
    6.0123   -1.6360   -0.5661 H   0  0  0  0  0  0  0  0  0  0  0  0
    4.3648    1.8302    1.3911 H   0  0  0  0  0  0  0  0  0  0  0  0
  1 34  1  0  0  0  0
  2 34  1  0  0  0  0
  3 34  1  0  0  0  0
  4 17  2  0  0  0  0
  5 20  2  0  0  0  0
  6 33  1  0  0  0  0
  6 34  1  0  0  0  0
  7 13  1  0  0  0  0
  7 14  1  0  0  0  0
  7 17  1  0  0  0  0
  8 15  1  0  0  0  0
  8 16  1  0  0  0  0
  8 20  1  0  0  0  0
  9 17  1  0  0  0  0
  9 18  1  0  0  0  0
  9 51  1  0  0  0  0
 10 12  1  0  0  0  0
 10 13  1  0  0  0  0
 10 15  1  0  0  0  0
 10 35  1  0  0  0  0
 11 12  1  0  0  0  0
 11 14  1  0  0  0  0
 11 16  1  0  0  0  0
 11 36  1  0  0  0  0
 12 37  1  0  0  0  0
 12 38  1  0  0  0  0
 13 39  1  0  0  0  0
 13 40  1  0  0  0  0
 14 41  1  0  0  0  0
 14 42  1  0  0  0  0
 15 43  1  0  0  0  0
 15 44  1  0  0  0  0
 16 19  2  0  0  0  0
 18 21  1  0  0  0  0
 18 22  1  0  0  0  0
 18 45  1  0  0  0  0
 19 27  1  0  0  0  0
 19 46  1  0  0  0  0
 20 25  1  0  0  0  0
 21 23  1  0  0  0  0
 21 47  1  0  0  0  0
 21 48  1  0  0  0  0
 22 24  1  0  0  0  0
 22 49  1  0  0  0  0
 22 50  1  0  0  0  0
 23 26  1  0  0  0  0
 23 52  1  0  0  0  0
 23 53  1  0  0  0  0
 24 26  1  0  0  0  0
 24 54  1  0  0  0  0
 24 55  1  0  0  0  0
 25 27  2  0  0  0  0
 25 28  1  0  0  0  0
 26 56  1  0  0  0  0
 26 57  1  0  0  0  0
 27 58  1  0  0  0  0
 28 29  2  0  0  0  0
 28 30  1  0  0  0  0
 29 31  1  0  0  0  0
 29 59  1  0  0  0  0
 30 32  2  0  0  0  0
 30 60  1  0  0  0  0
 31 33  2  0  0  0  0
 31 61  1  0  0  0  0
 32 33  1  0  0  0  0
 32 62  1  0  0  0  0
M  END
> <PUBCHEM_COMPOUND_CID>
11912433

> <PUBCHEM_CONFORMER_RMSD>
1

> <PUBCHEM_CONFORMER_DIVERSEORDER>
1
10
9
11
5
15
17
6
13
4
8
12
2
14
3
16
7
18

> <PUBCHEM_MMFF94_PARTIAL_CHARGES>
34
1 -0.34
11 0.14
13 0.3
14 0.3
15 0.3
16 -0.03
17 0.69
18 0.3
19 -0.15
2 -0.34
20 0.62
25 -0.01
27 -0.15
28 0.03
29 -0.15
3 -0.34
30 -0.15
31 -0.15
32 -0.15
33 0.08
34 1.3
4 -0.57
46 0.15
5 -0.57
51 0.37
58 0.15
59 0.15
6 -0.36
60 0.15
61 0.15
62 0.15
7 -0.66
8 -0.47
9 -0.73

> <PUBCHEM_EFFECTIVE_ROTOR_COUNT>
8.2

> <PUBCHEM_PHARMACOPHORE_FEATURES>
9
1 4 acceptor
1 5 acceptor
1 6 acceptor
1 9 donor
6 18 21 22 23 24 26 rings
6 28 29 30 31 32 33 rings
6 7 10 11 12 13 14 rings
6 8 10 11 12 15 16 rings
6 8 16 19 20 25 27 rings

> <PUBCHEM_HEAVY_ATOM_COUNT>
34

> <PUBCHEM_ATOM_DEF_STEREO_COUNT>
2

> <PUBCHEM_ATOM_UDEF_STEREO_COUNT>
0

> <PUBCHEM_BOND_DEF_STEREO_COUNT>
0

> <PUBCHEM_BOND_UDEF_STEREO_COUNT>
0

> <PUBCHEM_ISOTOPIC_ATOM_COUNT>
0

> <PUBCHEM_COMPONENT_COUNT>
1

> <PUBCHEM_CACTVS_TAUTO_COUNT>
2

> <PUBCHEM_CONFORMER_ID>
00B5C4F100000001

> <PUBCHEM_MMFF94_ENERGY>
83.5701

> <PUBCHEM_FEATURE_SELFOVERLAP>
47.223

> <PUBCHEM_SHAPE_FINGERPRINT>
10864689 126 18193842540121763828
11227688 84 12607407706112397623
11477941 20 17913758694205738183
11578080 2 17345217578123178286
12107183 9 18121208784716131826
12633257 1 15720261404228494459
13761468 95 17916605157937466520
14114211 80 17986678065564275977
14202776 33 18129379474427298166
14251764 75 18125729989419599873
14950920 106 16299254400308519305
15064981 113 17203047374935550558
15183329 4 16916798435134003686
15198563 99 18057025008672880623
15338160 23 18408886264989172109
15510800 12 11241965962754822656
15575132 122 18341608184263532703
16120349 189 18335699387021797821
16992828 155 18335978692945488101
18603816 31 10663557997149506796
19304152 47 18187376432233530169
21223535 225 18410294714500467436
21927370 108 17978800326634346979
23379529 103 10302939065359473905
23516275 100 17478026720012271488
23569914 152 17413327776000318662
23569914 2 17556252373019440304
2838139 119 18122056503990953287
3383291 50 12757143611289825737
3388396 114 17547570834805697037
3418910 222 17830467424500555532
4112364 45 18044934563664076873
44249763 50 17988348369354517218
50677037 204 18262232356548137276
550186 7 18202007654744080942
6058803 2 18192405550943423691
6086070 43 16988549209455921130
6327066 14 18339640023905718853
636775 72 18267301131438933584
6376802 137 17389962371720551291
7288768 16 17822577105980266851
7808743 9 18412259511002641867

> <PUBCHEM_SHAPE_MULTIPOLES>
645.33
16.99
5.87
1.59
25.87
2.92
-0.18
23.38
-0.53
-7.76
-0.89
-1.26
-0.45
-0.64

> <PUBCHEM_SHAPE_SELFOVERLAP>
1398.131

> <PUBCHEM_SHAPE_VOLUME>
351.6

> <PUBCHEM_COORDINATE_TYPE>
2
5
10

$$$$
