40777131
  -OEChem-12032416383D

 60 63  0     1  0  0  0  0  0999 V2000
    3.0674    2.7337    1.3603 Br  0  0  0  0  0  0  0  0  0  0  0  0
   -5.4181    0.2184    1.6132 O   0  0  0  0  0  0  0  0  0  0  0  0
   -1.4565   -2.1078    1.5783 N   0  0  2  0  0  0  0  0  0  0  0  0
   -3.5308    0.7911    0.3847 N   0  0  0  0  0  0  0  0  0  0  0  0
    1.1204   -0.5741   -1.8610 N   0  0  0  0  0  0  0  0  0  0  0  0
    3.1415    0.7328   -1.7395 N   0  0  0  0  0  0  0  0  0  0  0  0
   -5.6130    1.5404   -0.2836 N   0  0  0  0  0  0  0  0  0  0  0  0
   -0.8039   -2.4772   -0.9158 C   0  0  2  0  0  0  0  0  0  0  0  0
    0.4488   -2.1046   -0.0753 C   0  0  2  0  0  0  0  0  0  0  0  0
   -2.3628   -1.3277    0.6948 C   0  0  2  0  0  0  0  0  0  0  0  0
   -1.8666   -1.3681   -0.7665 C   0  0  0  0  0  0  0  0  0  0  0  0
   -1.3948   -3.7588   -0.2901 C   0  0  0  0  0  0  0  0  0  0  0  0
   -0.0473   -1.7051    1.3437 C   0  0  0  0  0  0  0  0  0  0  0  0
   -1.5944   -3.5398    1.2199 C   0  0  0  0  0  0  0  0  0  0  0  0
   -2.5661    0.1062    1.1887 C   0  0  0  0  0  0  0  0  0  0  0  0
    1.4256   -1.0900   -0.6523 C   0  0  0  0  0  0  0  0  0  0  0  0
    2.5546   -0.7491    0.0641 C   0  0  0  0  0  0  0  0  0  0  0  0
    3.3848    0.1766   -0.5346 C   0  0  0  0  0  0  0  0  0  0  0  0
   -4.9041    0.7981    0.6574 C   0  0  0  0  0  0  0  0  0  0  0  0
    2.0088    0.3184   -2.3384 C   0  0  0  0  0  0  0  0  0  0  0  0
    4.5988    0.6164    0.1106 C   0  0  0  0  0  0  0  0  0  0  0  0
    1.7067    0.9097   -3.6737 C   0  0  0  0  0  0  0  0  0  0  0  0
   -7.0464    1.7063   -0.2310 C   0  0  0  0  0  0  0  0  0  0  0  0
    4.6246    1.7168    0.9672 C   0  0  0  0  0  0  0  0  0  0  0  0
    5.7703   -0.0962   -0.1450 C   0  0  0  0  0  0  0  0  0  0  0  0
   -7.6168    1.8322   -1.6377 C   0  0  0  0  0  0  0  0  0  0  0  0
   -7.4141    2.9126    0.6240 C   0  0  0  0  0  0  0  0  0  0  0  0
    5.8220    2.1047    1.5685 C   0  0  0  0  0  0  0  0  0  0  0  0
    6.9678    0.2917    0.4562 C   0  0  0  0  0  0  0  0  0  0  0  0
    6.9936    1.3922    1.3130 C   0  0  0  0  0  0  0  0  0  0  0  0
   -0.5571   -2.6451   -1.9694 H   0  0  0  0  0  0  0  0  0  0  0  0
    1.0401   -3.0283    0.0239 H   0  0  0  0  0  0  0  0  0  0  0  0
   -3.3525   -1.8074    0.7284 H   0  0  0  0  0  0  0  0  0  0  0  0
   -1.4454   -0.4060   -1.0785 H   0  0  0  0  0  0  0  0  0  0  0  0
   -2.7126   -1.5777   -1.4328 H   0  0  0  0  0  0  0  0  0  0  0  0
   -0.7250   -4.6104   -0.4572 H   0  0  0  0  0  0  0  0  0  0  0  0
   -2.3522   -3.9997   -0.7678 H   0  0  0  0  0  0  0  0  0  0  0  0
    0.5884   -2.1900    2.0968 H   0  0  0  0  0  0  0  0  0  0  0  0
    0.0682   -0.6309    1.5291 H   0  0  0  0  0  0  0  0  0  0  0  0
   -2.5822   -3.9086    1.5225 H   0  0  0  0  0  0  0  0  0  0  0  0
   -0.8709   -4.1368    1.7897 H   0  0  0  0  0  0  0  0  0  0  0  0
   -1.6431    0.6925    1.1394 H   0  0  0  0  0  0  0  0  0  0  0  0
   -2.9068    0.1041    2.2305 H   0  0  0  0  0  0  0  0  0  0  0  0
   -3.2029    1.2956   -0.4333 H   0  0  0  0  0  0  0  0  0  0  0  0
    2.7785   -1.1845    1.0308 H   0  0  0  0  0  0  0  0  0  0  0  0
   -5.0902    2.0444   -0.9937 H   0  0  0  0  0  0  0  0  0  0  0  0
    2.2341    0.3514   -4.4527 H   0  0  0  0  0  0  0  0  0  0  0  0
    0.6330    0.8744   -3.8834 H   0  0  0  0  0  0  0  0  0  0  0  0
    2.0258    1.9560   -3.7132 H   0  0  0  0  0  0  0  0  0  0  0  0
   -7.4761    0.8117    0.2359 H   0  0  0  0  0  0  0  0  0  0  0  0
    5.7708   -0.9566   -0.8104 H   0  0  0  0  0  0  0  0  0  0  0  0
   -7.2138    2.7108   -2.1540 H   0  0  0  0  0  0  0  0  0  0  0  0
   -7.3640    0.9522   -2.2391 H   0  0  0  0  0  0  0  0  0  0  0  0
   -8.7077    1.9227   -1.6116 H   0  0  0  0  0  0  0  0  0  0  0  0
   -6.9904    3.8351    0.2113 H   0  0  0  0  0  0  0  0  0  0  0  0
   -7.0296    2.8022    1.6438 H   0  0  0  0  0  0  0  0  0  0  0  0
   -8.5007    3.0331    0.6845 H   0  0  0  0  0  0  0  0  0  0  0  0
    5.8630    2.9593    2.2391 H   0  0  0  0  0  0  0  0  0  0  0  0
    7.8801   -0.2629    0.2572 H   0  0  0  0  0  0  0  0  0  0  0  0
    7.9261    1.6940    1.7810 H   0  0  0  0  0  0  0  0  0  0  0  0
  1 24  1  0  0  0  0
  2 19  2  0  0  0  0
  3 10  1  0  0  0  0
  3 13  1  0  0  0  0
  3 14  1  0  0  0  0
  4 15  1  0  0  0  0
  4 19  1  0  0  0  0
  4 44  1  0  0  0  0
  5 16  2  0  0  0  0
  5 20  1  0  0  0  0
  6 18  1  0  0  0  0
  6 20  2  0  0  0  0
  7 19  1  0  0  0  0
  7 23  1  0  0  0  0
  7 46  1  0  0  0  0
  8  9  1  0  0  0  0
  8 11  1  0  0  0  0
  8 12  1  0  0  0  0
  8 31  1  0  0  0  0
  9 13  1  0  0  0  0
  9 16  1  0  0  0  0
  9 32  1  0  0  0  0
 10 11  1  0  0  0  0
 10 15  1  0  0  0  0
 10 33  1  0  0  0  0
 11 34  1  0  0  0  0
 11 35  1  0  0  0  0
 12 14  1  0  0  0  0
 12 36  1  0  0  0  0
 12 37  1  0  0  0  0
 13 38  1  0  0  0  0
 13 39  1  0  0  0  0
 14 40  1  0  0  0  0
 14 41  1  0  0  0  0
 15 42  1  0  0  0  0
 15 43  1  0  0  0  0
 16 17  1  0  0  0  0
 17 18  2  0  0  0  0
 17 45  1  0  0  0  0
 18 21  1  0  0  0  0
 20 22  1  0  0  0  0
 21 24  1  0  0  0  0
 21 25  2  0  0  0  0
 22 47  1  0  0  0  0
 22 48  1  0  0  0  0
 22 49  1  0  0  0  0
 23 26  1  0  0  0  0
 23 27  1  0  0  0  0
 23 50  1  0  0  0  0
 24 28  2  0  0  0  0
 25 29  1  0  0  0  0
 25 51  1  0  0  0  0
 26 52  1  0  0  0  0
 26 53  1  0  0  0  0
 26 54  1  0  0  0  0
 27 55  1  0  0  0  0
 27 56  1  0  0  0  0
 27 57  1  0  0  0  0
 28 30  1  0  0  0  0
 28 58  1  0  0  0  0
 29 30  2  0  0  0  0
 29 59  1  0  0  0  0
 30 60  1  0  0  0  0
M  END
> <PUBCHEM_COMPOUND_CID>
40777131

> <PUBCHEM_CONFORMER_RMSD>
1

> <PUBCHEM_CONFORMER_DIVERSEORDER>
1
97
93
18
158
114
190
195
129
200
171
103
207
40
152
92
165
104
138
204
55
188
38
54
227
41
193
205
52
181
206
19
220
182
49
164
141
126
124
133
170
211
98
53
139
61
62
108
70
214
58
212
134
131
27
32
169
64
89
180
51
34
96
224
189
20
140
159
219
74
201
215
203
118
199
175
37
116
57
66
218
42
145
216
90
197
202
35
209
31
110
56
39
143
26
105
173
194
72
137
79
46
166
155
156
223
21
179
127
225
59
94
208
168
178
142
75
154
167
22
217
176
109
151
80
77
78
15
144
192
226
120
161
44
136
174
82
4
60
67
172
7
130
185
121
184
47
81
100
210
183
111
45
87
186
160
132
187
213
153
146
117
12
113
28
125
71
14
10
68
222
36
163
106
149
196
191
76
25
198
83
177
9
86
5
150
157
84
147
119
73
29
30
221
85
88
65
99
13
122
102
48
43
91
128
101
115
23
16
162
69
6
107
11
50
8
63
123
24
135
17
112
3
2
148
33
95

> <PUBCHEM_MMFF94_PARTIAL_CHARGES>
31
1 -0.11
10 0.27
13 0.27
14 0.27
15 0.3
16 0.17
17 -0.15
18 0.31
19 0.69
2 -0.57
20 0.48
22 0.14
23 0.3
24 0.11
25 -0.15
28 -0.15
29 -0.15
3 -0.81
30 -0.15
4 -0.73
44 0.37
45 0.15
46 0.37
5 -0.62
51 0.15
58 0.15
59 0.15
6 -0.62
60 0.15
7 -0.73
9 0.14

> <PUBCHEM_EFFECTIVE_ROTOR_COUNT>
8.2

> <PUBCHEM_PHARMACOPHORE_FEATURES>
11
1 1 hydrophobe
1 2 acceptor
1 3 cation
1 4 donor
1 5 acceptor
1 7 donor
3 23 26 27 hydrophobe
3 5 6 20 cation
6 21 24 25 28 29 30 rings
6 5 6 16 17 18 20 rings
8 3 8 9 10 11 12 13 14 rings

> <PUBCHEM_HEAVY_ATOM_COUNT>
30

> <PUBCHEM_ATOM_DEF_STEREO_COUNT>
3

> <PUBCHEM_ATOM_UDEF_STEREO_COUNT>
0

> <PUBCHEM_BOND_DEF_STEREO_COUNT>
0

> <PUBCHEM_BOND_UDEF_STEREO_COUNT>
0

> <PUBCHEM_ISOTOPIC_ATOM_COUNT>
0

> <PUBCHEM_COMPONENT_COUNT>
1

> <PUBCHEM_CACTVS_TAUTO_COUNT>
3

> <PUBCHEM_CONFORMER_ID>
026E35AB00000001

> <PUBCHEM_MMFF94_ENERGY>
76.64

> <PUBCHEM_FEATURE_SELFOVERLAP>
55.868

> <PUBCHEM_SHAPE_FINGERPRINT>
11069576 57 14188471243278622900
11135609 127 18049431553854047949
11370993 144 18339639040648286918
11374522 165 17242711127458492917
11961588 58 17703787020354963283
12403259 118 17749683973309818363
12553582 1 16082195455305157850
12592606 108 8574418826272722913
12633257 1 16298392404398251634
13103583 49 16153712063124416330
13150687 139 18201722808334347255
13383661 66 9295287283198632877
13402501 40 18202284714616198200
13540713 5 17170411855272870838
13583140 156 17773598415844508822
13911987 19 15338563859697317312
14040221 126 11959466607946137252
14251764 30 8574709100972570345
14767858 380 14045742625163984636
14950920 106 15936985157394300577
15238133 3 18187656829226177132
15669420 48 16487248898778925157
17492 54 15554727772044459551
17980427 23 18189617323051686694
19246450 95 16371271252455573189
20554085 129 18408324359045132249
20567600 254 18408882919636714777
20715895 44 18272370880004989272
21033648 29 18260829297610109828
21304303 282 18340480183918281687
21403212 168 17822004281495825215
21774942 28 17845096168757519921
21859007 373 18188208685009911220
23522609 53 16299535905397831806
2838139 119 18202559587964008073
33382 64 12179836204857505424
3472631 163 18131630092998447309
3737641 26 11963653518048412936
5372103 7 17846776304261093289
54728670 133 16661742424762147428
57527585 21 15983445021046504570
6009941 240 18338232769660675424
6058803 2 16953678352330673990
9981440 41 18339930410402207043

> <PUBCHEM_SHAPE_MULTIPOLES>
592.55
18.59
3.65
2.22
15
1.86
-2.04
-21.51
3.2
3.69
1.27
-0.81
-0.44
2.1

> <PUBCHEM_SHAPE_SELFOVERLAP>
1247.532

> <PUBCHEM_SHAPE_VOLUME>
342.7

> <PUBCHEM_COORDINATE_TYPE>
2
5
10

$$$$
