51136601
  -OEChem-12032416143D

 63 66  0     1  0  0  0  0  0999 V2000
   -3.9570    2.5523   -1.4851 F   0  0  0  0  0  0  0  0  0  0  0  0
    1.1252    3.2457    2.0638 O   0  0  0  0  0  0  0  0  0  0  0  0
    6.3662   -2.9264    0.3256 O   0  0  0  0  0  0  0  0  0  0  0  0
    6.7000   -0.6893    0.0721 O   0  0  0  0  0  0  0  0  0  0  0  0
   -2.7610   -2.0690    2.7780 O   0  0  0  0  0  0  0  0  0  0  0  0
   -4.9186   -1.8514    1.0450 O   0  0  0  0  0  0  0  0  0  0  0  0
    2.1248    2.0172    0.3418 N   0  0  0  0  0  0  0  0  0  0  0  0
    0.5587   -1.4027   -2.2399 N   0  0  0  0  0  0  0  0  0  0  0  0
    2.5136   -0.1533   -0.8044 C   0  0  2  0  0  0  0  0  0  0  0  0
    3.9238   -0.1952   -0.1623 C   0  0  1  0  0  0  0  0  0  0  0  0
    3.9704    0.6009    1.1530 C   0  0  0  0  0  0  0  0  0  0  0  0
    2.0431    1.3065   -0.9420 C   0  0  0  0  0  0  0  0  0  0  0  0
    3.4505    2.0224    0.9574 C   0  0  0  0  0  0  0  0  0  0  0  0
    1.4633   -0.9828   -0.0551 C   0  0  0  0  0  0  0  0  0  0  0  0
    4.4456   -1.6161    0.0492 C   0  0  0  0  0  0  0  0  0  0  0  0
    0.3103   -1.3025   -0.9758 C   0  0  0  0  0  0  0  0  0  0  0  0
    1.0625    2.6548    0.9870 C   0  0  0  0  0  0  0  0  0  0  0  0
   -1.0439   -1.4781   -0.3916 C   0  0  0  0  0  0  0  0  0  0  0  0
    5.9461   -1.6481    0.1436 C   0  0  0  0  0  0  0  0  0  0  0  0
   -2.1283   -1.3855   -1.2735 C   0  0  0  0  0  0  0  0  0  0  0  0
   -1.8572   -1.1055   -2.7218 C   0  0  0  0  0  0  0  0  0  0  0  0
   -0.5495   -1.7728   -3.1269 C   0  0  0  0  0  0  0  0  0  0  0  0
   -0.2537    2.6284    0.3392 C   0  0  0  0  0  0  0  0  0  0  0  0
   -1.2552   -1.7104    0.9687 C   0  0  0  0  0  0  0  0  0  0  0  0
   -3.4307   -1.5012   -0.7800 C   0  0  0  0  0  0  0  0  0  0  0  0
   -2.5588   -1.8401    1.4496 C   0  0  0  0  0  0  0  0  0  0  0  0
   -3.6437   -1.7332    0.5789 C   0  0  0  0  0  0  0  0  0  0  0  0
   -0.4181    3.1869   -0.9284 C   0  0  0  0  0  0  0  0  0  0  0  0
   -1.3402    2.0444    0.9903 C   0  0  0  0  0  0  0  0  0  0  0  0
   -1.6691    3.1616   -1.5447 C   0  0  0  0  0  0  0  0  0  0  0  0
   -2.5913    2.0191    0.3741 C   0  0  0  0  0  0  0  0  0  0  0  0
   -2.7556    2.5778   -0.8934 C   0  0  0  0  0  0  0  0  0  0  0  0
   -2.9012   -0.9249    3.6177 C   0  0  0  0  0  0  0  0  0  0  0  0
   -5.9710   -1.7295    0.0901 C   0  0  0  0  0  0  0  0  0  0  0  0
    2.6545   -0.5450   -1.8197 H   0  0  0  0  0  0  0  0  0  0  0  0
    4.5929    0.3168   -0.8700 H   0  0  0  0  0  0  0  0  0  0  0  0
    3.3590    0.0969    1.9123 H   0  0  0  0  0  0  0  0  0  0  0  0
    4.9907    0.6482    1.5485 H   0  0  0  0  0  0  0  0  0  0  0  0
    1.0452    1.3112   -1.3745 H   0  0  0  0  0  0  0  0  0  0  0  0
    2.6951    1.8445   -1.6414 H   0  0  0  0  0  0  0  0  0  0  0  0
    1.1243   -0.4551    0.8402 H   0  0  0  0  0  0  0  0  0  0  0  0
    1.8676   -1.9497    0.2613 H   0  0  0  0  0  0  0  0  0  0  0  0
    4.1173    2.5863    0.2944 H   0  0  0  0  0  0  0  0  0  0  0  0
    3.4302    2.5437    1.9198 H   0  0  0  0  0  0  0  0  0  0  0  0
    4.1667   -2.2437   -0.8056 H   0  0  0  0  0  0  0  0  0  0  0  0
    4.0343   -2.0559    0.9644 H   0  0  0  0  0  0  0  0  0  0  0  0
   -1.7938   -0.0203   -2.8654 H   0  0  0  0  0  0  0  0  0  0  0  0
   -2.6682   -1.4850   -3.3533 H   0  0  0  0  0  0  0  0  0  0  0  0
   -0.2945   -1.4711   -4.1486 H   0  0  0  0  0  0  0  0  0  0  0  0
   -0.6517   -2.8653   -3.1323 H   0  0  0  0  0  0  0  0  0  0  0  0
   -0.4274   -1.8083    1.6643 H   0  0  0  0  0  0  0  0  0  0  0  0
   -4.2326   -1.4002   -1.5034 H   0  0  0  0  0  0  0  0  0  0  0  0
    7.3432   -2.9842    0.3919 H   0  0  0  0  0  0  0  0  0  0  0  0
    0.4119    3.6652   -1.4424 H   0  0  0  0  0  0  0  0  0  0  0  0
   -1.2241    1.6045    1.9772 H   0  0  0  0  0  0  0  0  0  0  0  0
   -1.7985    3.5995   -2.5300 H   0  0  0  0  0  0  0  0  0  0  0  0
   -3.4379    1.5666    0.8817 H   0  0  0  0  0  0  0  0  0  0  0  0
   -1.9707   -0.3490    3.6344 H   0  0  0  0  0  0  0  0  0  0  0  0
   -3.7283   -0.2930    3.2788 H   0  0  0  0  0  0  0  0  0  0  0  0
   -3.1173   -1.2692    4.6327 H   0  0  0  0  0  0  0  0  0  0  0  0
   -5.9928   -0.7316   -0.3612 H   0  0  0  0  0  0  0  0  0  0  0  0
   -5.9310   -2.5269   -0.6597 H   0  0  0  0  0  0  0  0  0  0  0  0
   -6.9140   -1.8522    0.6333 H   0  0  0  0  0  0  0  0  0  0  0  0
  1 32  1  0  0  0  0
  2 17  2  0  0  0  0
  3 19  1  0  0  0  0
  3 53  1  0  0  0  0
  4 19  2  0  0  0  0
  5 26  1  0  0  0  0
  5 33  1  0  0  0  0
  6 27  1  0  0  0  0
  6 34  1  0  0  0  0
  7 12  1  0  0  0  0
  7 13  1  0  0  0  0
  7 17  1  0  0  0  0
  8 16  2  0  0  0  0
  8 22  1  0  0  0  0
  9 10  1  0  0  0  0
  9 12  1  0  0  0  0
  9 14  1  0  0  0  0
  9 35  1  0  0  0  0
 10 11  1  0  0  0  0
 10 15  1  0  0  0  0
 10 36  1  0  0  0  0
 11 13  1  0  0  0  0
 11 37  1  0  0  0  0
 11 38  1  0  0  0  0
 12 39  1  0  0  0  0
 12 40  1  0  0  0  0
 13 43  1  0  0  0  0
 13 44  1  0  0  0  0
 14 16  1  0  0  0  0
 14 41  1  0  0  0  0
 14 42  1  0  0  0  0
 15 19  1  0  0  0  0
 15 45  1  0  0  0  0
 15 46  1  0  0  0  0
 16 18  1  0  0  0  0
 17 23  1  0  0  0  0
 18 20  1  0  0  0  0
 18 24  2  0  0  0  0
 20 21  1  0  0  0  0
 20 25  2  0  0  0  0
 21 22  1  0  0  0  0
 21 47  1  0  0  0  0
 21 48  1  0  0  0  0
 22 49  1  0  0  0  0
 22 50  1  0  0  0  0
 23 28  2  0  0  0  0
 23 29  1  0  0  0  0
 24 26  1  0  0  0  0
 24 51  1  0  0  0  0
 25 27  1  0  0  0  0
 25 52  1  0  0  0  0
 26 27  2  0  0  0  0
 28 30  1  0  0  0  0
 28 54  1  0  0  0  0
 29 31  2  0  0  0  0
 29 55  1  0  0  0  0
 30 32  2  0  0  0  0
 30 56  1  0  0  0  0
 31 32  1  0  0  0  0
 31 57  1  0  0  0  0
 33 58  1  0  0  0  0
 33 59  1  0  0  0  0
 33 60  1  0  0  0  0
 34 61  1  0  0  0  0
 34 62  1  0  0  0  0
 34 63  1  0  0  0  0
M  END
> <PUBCHEM_COMPOUND_CID>
51136601

> <PUBCHEM_CONFORMER_RMSD>
1

> <PUBCHEM_CONFORMER_DIVERSEORDER>
1
37
75
39
47
51
6
56
40
82
3
96
83
92
58
20
98
29
10
90
43
30
60
9
28
44
33
34
15
62
80
23
5
48
72
21
77
59
97
73
45
50
84
31
70
79
19
81
17
86
65
12
42
57
41
85
93
18
54
71
88
14
38
32
46
13
74
91
52
24
94
26
22
89
49
95
36
55
35
76
67
63
8
66
64
61
53
78
87
7
11
68
69
25
16
4
27
2

> <PUBCHEM_MMFF94_PARTIAL_CHARGES>
38
1 -0.19
12 0.3
13 0.3
14 0.06
15 0.06
16 0.3
17 0.54
18 0.09
19 0.66
2 -0.57
20 -0.14
21 0.14
22 0.25
23 0.09
24 -0.15
25 -0.15
26 0.08
27 0.08
28 -0.15
29 -0.15
3 -0.65
30 -0.15
31 -0.15
32 0.19
33 0.28
34 0.28
4 -0.57
5 -0.36
51 0.15
52 0.15
53 0.5
54 0.15
55 0.15
56 0.15
57 0.15
6 -0.36
7 -0.66
8 -0.7

> <PUBCHEM_EFFECTIVE_ROTOR_COUNT>
9.6

> <PUBCHEM_PHARMACOPHORE_FEATURES>
11
1 2 acceptor
1 3 acceptor
1 4 acceptor
1 5 acceptor
1 6 acceptor
1 8 acceptor
3 3 4 19 anion
6 18 20 24 25 26 27 rings
6 23 28 29 30 31 32 rings
6 7 9 10 11 12 13 rings
6 8 16 18 20 21 22 rings

> <PUBCHEM_HEAVY_ATOM_COUNT>
34

> <PUBCHEM_ATOM_DEF_STEREO_COUNT>
2

> <PUBCHEM_ATOM_UDEF_STEREO_COUNT>
0

> <PUBCHEM_BOND_DEF_STEREO_COUNT>
0

> <PUBCHEM_BOND_UDEF_STEREO_COUNT>
0

> <PUBCHEM_ISOTOPIC_ATOM_COUNT>
0

> <PUBCHEM_COMPONENT_COUNT>
1

> <PUBCHEM_CACTVS_TAUTO_COUNT>
1

> <PUBCHEM_CONFORMER_ID>
030C485900000001

> <PUBCHEM_MMFF94_ENERGY>
110.8116

> <PUBCHEM_FEATURE_SELFOVERLAP>
55.912

> <PUBCHEM_SHAPE_FINGERPRINT>
10032420 55 17831830518124374117
10119406 146 17550391740136690406
11135609 12 18336258020575427408
12107698 1 18412261744137806487
12128747 34 18189053088508092982
12156800 1 17465147870196160729
12422481 6 18271815631223049433
13140716 1 18271808986756044736
13402501 40 18411135849090414133
13965767 371 17773054143832913026
14840074 17 17982180220349439612
16728300 4 18264762169273242814
17492 54 17981297042388248029
20764821 26 17774734082285223092
22182313 1 17773891796132720854
23559900 14 16951128520256832695
24893992 56 17894628198302708891
3380486 145 18130796611481539710
35225 105 18120356679919464277
513202 73 18198634229170782902
5951187 136 12818845836528320627
6009941 240 18115020789288359262
70251023 43 18198037356832149262

> <PUBCHEM_SHAPE_MULTIPOLES>
653.12
10.56
4.23
2.54
11.56
3.33
0.4
-8.46
2.88
-0.75
-0.07
-2.68
-0.95
1.72

> <PUBCHEM_SHAPE_SELFOVERLAP>
1404.13

> <PUBCHEM_SHAPE_VOLUME>
360.8

> <PUBCHEM_COORDINATE_TYPE>
2
5
10

$$$$
