40777226
  -OEChem-12032416173D

 72 77  0     1  0  0  0  0  0999 V2000
   -2.7538   -1.5203   -0.6481 O   0  0  0  0  0  0  0  0  0  0  0  0
    7.0001   -0.1404    1.7584 O   0  0  0  0  0  0  0  0  0  0  0  0
   -8.2948    0.0007    0.8984 O   0  0  0  0  0  0  0  0  0  0  0  0
   -8.8182   -2.3512    0.8578 O   0  0  0  0  0  0  0  0  0  0  0  0
   -0.8786    3.0944   -1.4840 N   0  0  2  0  0  0  0  0  0  0  0  0
    2.3121    0.5067    0.1269 N   0  0  0  0  0  0  0  0  0  0  0  0
   -3.6467    0.5325   -1.2493 N   0  0  0  0  0  0  0  0  0  0  0  0
    4.9176   -0.6500   -0.0544 N   0  0  0  0  0  0  0  0  0  0  0  0
   -0.6146    2.8160    1.0889 C   0  0  2  0  0  0  0  0  0  0  0  0
    0.6395    2.3005    0.3466 C   0  0  2  0  0  0  0  0  0  0  0  0
   -2.0558    2.3757   -0.9259 C   0  0  2  0  0  0  0  0  0  0  0  0
   -1.8563    2.0649    0.5742 C   0  0  0  0  0  0  0  0  0  0  0  0
    0.3696    2.3561   -1.1739 C   0  0  0  0  0  0  0  0  0  0  0  0
   -0.7853    4.2978    0.7033 C   0  0  0  0  0  0  0  0  0  0  0  0
   -0.8034    4.4238   -0.8305 C   0  0  0  0  0  0  0  0  0  0  0  0
    1.0717    0.9053    0.7913 C   0  0  0  0  0  0  0  0  0  0  0  0
   -2.4046    1.1182   -1.7255 C   0  0  0  0  0  0  0  0  0  0  0  0
    2.4847   -0.9496    0.1891 C   0  0  0  0  0  0  0  0  0  0  0  0
    3.4648    1.1731    0.7457 C   0  0  0  0  0  0  0  0  0  0  0  0
    3.7511   -1.3860   -0.5517 C   0  0  0  0  0  0  0  0  0  0  0  0
    4.7632    0.8082    0.0226 C   0  0  0  0  0  0  0  0  0  0  0  0
   -3.7076   -0.7528   -0.7467 C   0  0  0  0  0  0  0  0  0  0  0  0
    6.2024   -1.1653   -0.2591 C   0  0  0  0  0  0  0  0  0  0  0  0
   -5.0561   -1.2131   -0.3261 C   0  0  0  0  0  0  0  0  0  0  0  0
    7.2260   -0.9027    0.6512 C   0  0  0  0  0  0  0  0  0  0  0  0
    6.4547   -1.9477   -1.3859 C   0  0  0  0  0  0  0  0  0  0  0  0
   -6.0093   -0.2794    0.0876 C   0  0  0  0  0  0  0  0  0  0  0  0
   -5.3614   -2.5853   -0.3497 C   0  0  0  0  0  0  0  0  0  0  0  0
    8.5021   -1.4226    0.4347 C   0  0  0  0  0  0  0  0  0  0  0  0
    7.7309   -2.4676   -1.6024 C   0  0  0  0  0  0  0  0  0  0  0  0
    8.7546   -2.2051   -0.6921 C   0  0  0  0  0  0  0  0  0  0  0  0
   -7.2478   -0.7545    0.4678 C   0  0  0  0  0  0  0  0  0  0  0  0
   -6.6234   -3.0398    0.0403 C   0  0  0  0  0  0  0  0  0  0  0  0
   -7.5467   -2.0976    0.4447 C   0  0  0  0  0  0  0  0  0  0  0  0
    8.1060    0.0747    2.6326 C   0  0  0  0  0  0  0  0  0  0  0  0
   -9.2864   -1.0175    1.1433 C   0  0  0  0  0  0  0  0  0  0  0  0
   -0.5131    2.7090    2.1739 H   0  0  0  0  0  0  0  0  0  0  0  0
    1.4393    3.0156    0.5766 H   0  0  0  0  0  0  0  0  0  0  0  0
   -2.9247    3.0445   -1.0169 H   0  0  0  0  0  0  0  0  0  0  0  0
   -1.7515    0.9923    0.7652 H   0  0  0  0  0  0  0  0  0  0  0  0
   -2.7408    2.3965    1.1329 H   0  0  0  0  0  0  0  0  0  0  0  0
    1.2112    2.8570   -1.6705 H   0  0  0  0  0  0  0  0  0  0  0  0
    0.3349    1.3593   -1.6267 H   0  0  0  0  0  0  0  0  0  0  0  0
    0.0338    4.8978    1.1168 H   0  0  0  0  0  0  0  0  0  0  0  0
   -1.7191    4.6891    1.1249 H   0  0  0  0  0  0  0  0  0  0  0  0
   -1.6530    5.0432   -1.1439 H   0  0  0  0  0  0  0  0  0  0  0  0
    0.0909    4.9573   -1.1767 H   0  0  0  0  0  0  0  0  0  0  0  0
    0.2781    0.1957    0.5271 H   0  0  0  0  0  0  0  0  0  0  0  0
    1.1712    0.8599    1.8838 H   0  0  0  0  0  0  0  0  0  0  0  0
   -1.6073    0.3701   -1.6834 H   0  0  0  0  0  0  0  0  0  0  0  0
   -2.5661    1.3727   -2.7792 H   0  0  0  0  0  0  0  0  0  0  0  0
    1.6298   -1.4526   -0.2794 H   0  0  0  0  0  0  0  0  0  0  0  0
    2.5325   -1.2890    1.2328 H   0  0  0  0  0  0  0  0  0  0  0  0
    3.5505    0.8979    1.8057 H   0  0  0  0  0  0  0  0  0  0  0  0
    3.3716    2.2625    0.7007 H   0  0  0  0  0  0  0  0  0  0  0  0
   -4.4893    1.0802   -1.3872 H   0  0  0  0  0  0  0  0  0  0  0  0
    3.8780   -2.4651   -0.3988 H   0  0  0  0  0  0  0  0  0  0  0  0
    3.6258   -1.2063   -1.6273 H   0  0  0  0  0  0  0  0  0  0  0  0
    4.7443    1.2144   -0.9977 H   0  0  0  0  0  0  0  0  0  0  0  0
    5.5920    1.3045    0.5356 H   0  0  0  0  0  0  0  0  0  0  0  0
    5.6878   -2.1611   -2.1249 H   0  0  0  0  0  0  0  0  0  0  0  0
   -5.8101    0.7843    0.1506 H   0  0  0  0  0  0  0  0  0  0  0  0
   -4.6227   -3.3134   -0.6761 H   0  0  0  0  0  0  0  0  0  0  0  0
    9.3463   -1.2617    1.0962 H   0  0  0  0  0  0  0  0  0  0  0  0
    7.9288   -3.0739   -2.4816 H   0  0  0  0  0  0  0  0  0  0  0  0
    9.7480   -2.6099   -0.8623 H   0  0  0  0  0  0  0  0  0  0  0  0
   -6.8632   -4.0969    0.0227 H   0  0  0  0  0  0  0  0  0  0  0  0
    7.7468    0.6998    3.4569 H   0  0  0  0  0  0  0  0  0  0  0  0
    8.9089    0.6328    2.1390 H   0  0  0  0  0  0  0  0  0  0  0  0
    8.4589   -0.8624    3.0765 H   0  0  0  0  0  0  0  0  0  0  0  0
  -10.1626   -0.8117    0.5177 H   0  0  0  0  0  0  0  0  0  0  0  0
   -9.5866   -0.9688    2.1964 H   0  0  0  0  0  0  0  0  0  0  0  0
  1 22  2  0  0  0  0
  2 25  1  0  0  0  0
  2 35  1  0  0  0  0
  3 32  1  0  0  0  0
  3 36  1  0  0  0  0
  4 34  1  0  0  0  0
  4 36  1  0  0  0  0
  5 11  1  0  0  0  0
  5 13  1  0  0  0  0
  5 15  1  0  0  0  0
  6 16  1  0  0  0  0
  6 18  1  0  0  0  0
  6 19  1  0  0  0  0
  7 17  1  0  0  0  0
  7 22  1  0  0  0  0
  7 56  1  0  0  0  0
  8 20  1  0  0  0  0
  8 21  1  0  0  0  0
  8 23  1  0  0  0  0
  9 10  1  0  0  0  0
  9 12  1  0  0  0  0
  9 14  1  0  0  0  0
  9 37  1  0  0  0  0
 10 13  1  0  0  0  0
 10 16  1  0  0  0  0
 10 38  1  0  0  0  0
 11 12  1  0  0  0  0
 11 17  1  0  0  0  0
 11 39  1  0  0  0  0
 12 40  1  0  0  0  0
 12 41  1  0  0  0  0
 13 42  1  0  0  0  0
 13 43  1  0  0  0  0
 14 15  1  0  0  0  0
 14 44  1  0  0  0  0
 14 45  1  0  0  0  0
 15 46  1  0  0  0  0
 15 47  1  0  0  0  0
 16 48  1  0  0  0  0
 16 49  1  0  0  0  0
 17 50  1  0  0  0  0
 17 51  1  0  0  0  0
 18 20  1  0  0  0  0
 18 52  1  0  0  0  0
 18 53  1  0  0  0  0
 19 21  1  0  0  0  0
 19 54  1  0  0  0  0
 19 55  1  0  0  0  0
 20 57  1  0  0  0  0
 20 58  1  0  0  0  0
 21 59  1  0  0  0  0
 21 60  1  0  0  0  0
 22 24  1  0  0  0  0
 23 25  1  0  0  0  0
 23 26  2  0  0  0  0
 24 27  2  0  0  0  0
 24 28  1  0  0  0  0
 25 29  2  0  0  0  0
 26 30  1  0  0  0  0
 26 61  1  0  0  0  0
 27 32  1  0  0  0  0
 27 62  1  0  0  0  0
 28 33  2  0  0  0  0
 28 63  1  0  0  0  0
 29 31  1  0  0  0  0
 29 64  1  0  0  0  0
 30 31  2  0  0  0  0
 30 65  1  0  0  0  0
 31 66  1  0  0  0  0
 32 34  2  0  0  0  0
 33 34  1  0  0  0  0
 33 67  1  0  0  0  0
 35 68  1  0  0  0  0
 35 69  1  0  0  0  0
 35 70  1  0  0  0  0
 36 71  1  0  0  0  0
 36 72  1  0  0  0  0
M  END
> <PUBCHEM_COMPOUND_CID>
40777226

> <PUBCHEM_CONFORMER_RMSD>
1.2

> <PUBCHEM_CONFORMER_DIVERSEORDER>
3
69
54
76
78
103
86
98
97
35
44
62
91
77
28
92
93
84
67
46
24
68
80
65
43
22
58
82
55
83
101
32
60
12
38
79
21
50
90
81
87
57
10
61
51
99
26
74
29
72
88
40
16
27
85
6
15
25
4
14
75
71
31
17
70
89
19
66
64
37
9
20
41
53
34
36
42
49
100
59
96
104
52
56
48
63
45
39
73
5
30
47
102
8
1
13
18
95
23
33
7
94
2
11

> <PUBCHEM_MMFF94_PARTIAL_CHARGES>
40
1 -0.57
11 0.27
13 0.27
15 0.27
16 0.27
17 0.3
18 0.27
19 0.27
2 -0.36
20 0.37
21 0.37
22 0.54
23 0.1
24 0.09
25 0.08
26 -0.15
27 -0.15
28 -0.15
29 -0.15
3 -0.36
30 -0.15
31 -0.15
32 0.08
33 -0.15
34 0.08
35 0.28
36 0.56
4 -0.36
5 -0.81
56 0.37
6 -0.81
61 0.15
62 0.15
63 0.15
64 0.15
65 0.15
66 0.15
67 0.15
7 -0.73
8 -0.84

> <PUBCHEM_EFFECTIVE_ROTOR_COUNT>
11

> <PUBCHEM_PHARMACOPHORE_FEATURES>
13
1 1 acceptor
1 2 acceptor
1 3 acceptor
1 4 acceptor
1 5 cation
1 6 cation
1 7 donor
1 8 cation
5 3 4 32 34 36 rings
6 23 25 26 29 30 31 rings
6 24 27 28 32 33 34 rings
6 6 8 18 19 20 21 rings
8 5 9 10 11 12 13 14 15 rings

> <PUBCHEM_HEAVY_ATOM_COUNT>
36

> <PUBCHEM_ATOM_DEF_STEREO_COUNT>
3

> <PUBCHEM_ATOM_UDEF_STEREO_COUNT>
0

> <PUBCHEM_BOND_DEF_STEREO_COUNT>
0

> <PUBCHEM_BOND_UDEF_STEREO_COUNT>
0

> <PUBCHEM_ISOTOPIC_ATOM_COUNT>
0

> <PUBCHEM_COMPONENT_COUNT>
1

> <PUBCHEM_CACTVS_TAUTO_COUNT>
2

> <PUBCHEM_CONFORMER_ID>
026E360A00000003

> <PUBCHEM_MMFF94_ENERGY>
120.5078

> <PUBCHEM_FEATURE_SELFOVERLAP>
66.131

> <PUBCHEM_SHAPE_FINGERPRINT>
10100884 174 18408044000908300770
10190108 129 18411136927043036846
10625338 86 14549026463966722571
11211813 89 18335979788668063269
11672396 167 18269834380702359039
117089 54 18409454708459420559
12013929 27 18115592522767049310
12047536 79 15050631300688364693
12107183 9 18341901827336260785
12522641 68 17321819760321249261
12539747 363 18272651246690779640
12758862 56 18335700576985831731
13248334 5 17977386358638565877
13631057 29 18334857173994151904
13673619 4 18411698785626229140
13690498 29 17821721729104842221
14040222 275 18263103096789507180
14068700 675 18187368722646239212
14420673 8 18410013269604806407
14904525 67 9438244669047059314
15064986 96 17131278960871517743
15131766 46 15264777872072213906
15274700 259 10303550415394436760
15350500 55 11600012037678489883
15510800 12 18411693292383812574
15773216 30 18118129297491775508
15803439 3 13912321291496588529
16067689 302 18412545449284206044
16120349 21 18411143524634711501
16992752 21 18410586067348558364
19246450 95 17489875904401585957
19841028 212 18260269689325984672
21344244 246 18041286573315657820
21716022 299 18115321097148934197
22149856 69 17989208136277219064
23569917 315 18263646153136142522
25242607 90 18411974801984245987
25269216 80 18340499872490380740
2747138 104 18342171146991183608
3383291 50 18409164428515137579
393628 179 8862940554823996175
4107672 100 17604141529194892101
44280117 145 18263648364769298604
4461854 278 17704071802805126934
44880168 125 17988633116806865351
45266715 3 11242239724218377720
5219985 9 18334858333429762525
54039377 194 18334861614658260830
54728670 133 16056042312417931073
5776283 40 11025805318392768335
5937810 71 11747201452256747191
636775 8 18411143498738437718
999808 66 18202560657584704670

> <PUBCHEM_SHAPE_MULTIPOLES>
697.46
30.11
4.44
1.51
1.54
4.25
0.24
-35.48
8.8
-3.23
-0.87
1.99
0.3
2.86

> <PUBCHEM_SHAPE_SELFOVERLAP>
1512.71

> <PUBCHEM_SHAPE_VOLUME>
377.1

> <PUBCHEM_COORDINATE_TYPE>
2
5
10

$$$$
