11886313
  -OEChem-12032416413D

 51 55  0     1  0  0  0  0  0999 V2000
   -2.0729   -2.7986   -1.3699 S   0  0  0  0  0  0  0  0  0  0  0  0
    2.9051   -0.7873    1.6716 O   0  0  0  0  0  0  0  0  0  0  0  0
    3.7532   -1.7348   -1.2050 O   0  0  0  0  0  0  0  0  0  0  0  0
    1.1184    1.5320    0.7988 O   0  0  0  0  0  0  0  0  0  0  0  0
   -0.2476   -3.7607    1.3506 O   0  0  0  0  0  0  0  0  0  0  0  0
   -3.0148    2.2602   -1.6220 O   0  0  0  0  0  0  0  0  0  0  0  0
   -4.2981    2.3568    0.4156 O   0  0  0  0  0  0  0  0  0  0  0  0
   -4.6687   -1.2364    1.0646 O   0  0  0  0  0  0  0  0  0  0  0  0
   -4.6117   -1.3045   -1.2064 O   0  0  0  0  0  0  0  0  0  0  0  0
    3.1750    1.7715   -0.3619 N   0  0  0  0  0  0  0  0  0  0  0  0
    1.1503   -3.2123   -0.4240 N   0  0  0  0  0  0  0  0  0  0  0  0
    3.8022    2.7311   -1.0563 N   0  0  0  0  0  0  0  0  0  0  0  0
    1.8335    3.4748   -0.3204 N   0  0  0  0  0  0  0  0  0  0  0  0
    2.9768    3.7703   -1.0279 N   0  0  0  0  0  0  0  0  0  0  0  0
    2.9196   -0.6712   -0.7096 C   0  0  1  0  0  0  0  0  0  0  0  0
    2.1832   -1.2067    0.5028 C   0  0  1  0  0  0  0  0  0  0  0  0
    3.7840    0.4527   -0.1703 C   0  0  2  0  0  0  0  0  0  0  0  0
    2.2581   -2.7095    0.3519 C   0  0  2  0  0  0  0  0  0  0  0  0
    4.0042    0.0482    1.2833 C   0  0  0  0  0  0  0  0  0  0  0  0
    3.5728   -2.8959   -0.3823 C   0  0  0  0  0  0  0  0  0  0  0  0
    1.9771    2.2331    0.0822 C   0  0  0  0  0  0  0  0  0  0  0  0
   -0.0177   -3.6992    0.1438 C   0  0  0  0  0  0  0  0  0  0  0  0
   -1.0166   -4.1831   -0.8806 C   0  0  0  0  0  0  0  0  0  0  0  0
   -0.2527    1.7397    0.7364 C   0  0  0  0  0  0  0  0  0  0  0  0
   -0.8764    1.8895   -0.5047 C   0  0  0  0  0  0  0  0  0  0  0  0
   -1.0012    1.7962    1.9251 C   0  0  0  0  0  0  0  0  0  0  0  0
   -3.2030   -2.8101    0.0418 C   0  0  0  0  0  0  0  0  0  0  0  0
   -2.2409    2.0929   -0.5152 C   0  0  0  0  0  0  0  0  0  0  0  0
   -2.9737    2.1483    0.6485 C   0  0  0  0  0  0  0  0  0  0  0  0
   -2.3822    2.0031    1.8867 C   0  0  0  0  0  0  0  0  0  0  0  0
   -4.3172    2.4258   -1.0249 C   0  0  0  0  0  0  0  0  0  0  0  0
   -4.2179   -1.7156   -0.1224 C   0  0  0  0  0  0  0  0  0  0  0  0
    2.2488   -0.3796   -1.5243 H   0  0  0  0  0  0  0  0  0  0  0  0
    1.1545   -0.8533    0.5927 H   0  0  0  0  0  0  0  0  0  0  0  0
    4.7539    0.5010   -0.6814 H   0  0  0  0  0  0  0  0  0  0  0  0
    2.2767   -3.2315    1.3147 H   0  0  0  0  0  0  0  0  0  0  0  0
    4.0743    0.8968    1.9704 H   0  0  0  0  0  0  0  0  0  0  0  0
    4.9155   -0.5513    1.3839 H   0  0  0  0  0  0  0  0  0  0  0  0
    4.4129   -2.9313    0.3201 H   0  0  0  0  0  0  0  0  0  0  0  0
    3.6076   -3.7933   -1.0074 H   0  0  0  0  0  0  0  0  0  0  0  0
    1.2132   -3.1500   -1.4364 H   0  0  0  0  0  0  0  0  0  0  0  0
   -0.4948   -4.5621   -1.7651 H   0  0  0  0  0  0  0  0  0  0  0  0
   -1.6050   -5.0085   -0.4685 H   0  0  0  0  0  0  0  0  0  0  0  0
   -0.3224    1.8359   -1.4357 H   0  0  0  0  0  0  0  0  0  0  0  0
   -0.5041    1.6771    2.8845 H   0  0  0  0  0  0  0  0  0  0  0  0
   -3.7291   -3.7659    0.1127 H   0  0  0  0  0  0  0  0  0  0  0  0
   -2.6349   -2.6250    0.9575 H   0  0  0  0  0  0  0  0  0  0  0  0
   -2.9632    2.0465    2.8008 H   0  0  0  0  0  0  0  0  0  0  0  0
   -4.9808    1.6410   -1.4053 H   0  0  0  0  0  0  0  0  0  0  0  0
   -4.7185    3.4009   -1.3239 H   0  0  0  0  0  0  0  0  0  0  0  0
   -5.3317   -0.5236    0.9431 H   0  0  0  0  0  0  0  0  0  0  0  0
  1 23  1  0  0  0  0
  1 27  1  0  0  0  0
  2 16  1  0  0  0  0
  2 19  1  0  0  0  0
  3 15  1  0  0  0  0
  3 20  1  0  0  0  0
  4 21  1  0  0  0  0
  4 24  1  0  0  0  0
  5 22  2  0  0  0  0
  6 28  1  0  0  0  0
  6 31  1  0  0  0  0
  7 29  1  0  0  0  0
  7 31  1  0  0  0  0
  8 32  1  0  0  0  0
  8 51  1  0  0  0  0
  9 32  2  0  0  0  0
 10 12  1  0  0  0  0
 10 17  1  0  0  0  0
 10 21  1  0  0  0  0
 11 18  1  0  0  0  0
 11 22  1  0  0  0  0
 11 41  1  0  0  0  0
 12 14  2  0  0  0  0
 13 14  1  0  0  0  0
 13 21  2  0  0  0  0
 15 16  1  0  0  0  0
 15 17  1  0  0  0  0
 15 33  1  0  0  0  0
 16 18  1  0  0  0  0
 16 34  1  0  0  0  0
 17 19  1  0  0  0  0
 17 35  1  0  0  0  0
 18 20  1  0  0  0  0
 18 36  1  0  0  0  0
 19 37  1  0  0  0  0
 19 38  1  0  0  0  0
 20 39  1  0  0  0  0
 20 40  1  0  0  0  0
 22 23  1  0  0  0  0
 23 42  1  0  0  0  0
 23 43  1  0  0  0  0
 24 25  2  0  0  0  0
 24 26  1  0  0  0  0
 25 28  1  0  0  0  0
 25 44  1  0  0  0  0
 26 30  2  0  0  0  0
 26 45  1  0  0  0  0
 27 32  1  0  0  0  0
 27 46  1  0  0  0  0
 27 47  1  0  0  0  0
 28 29  2  0  0  0  0
 29 30  1  0  0  0  0
 30 48  1  0  0  0  0
 31 49  1  0  0  0  0
 31 50  1  0  0  0  0
M  END
> <PUBCHEM_COMPOUND_CID>
11886313

> <PUBCHEM_CONFORMER_RMSD>
1.2

> <PUBCHEM_CONFORMER_DIVERSEORDER>
1
128
179
36
51
132
82
169
137
105
15
57
158
157
72
103
104
58
175
162
66
87
77
145
100
108
88
37
151
125
83
2
181
19
127
168
161
33
131
115
90
91
98
102
123
54
64
183
46
173
18
166
94
73
76
160
136
59
182
61
165
81
170
148
147
152
140
154
26
43
106
93
49
99
35
142
89
13
111
34
85
38
156
95
122
176
27
171
107
86
65
149
124
129
20
139
41
113
134
67
138
9
178
39
141
119
163
130
84
5
53
42
31
21
135
121
55
155
80
69
146
16
50
114
118
47
14
63
112
22
117
159
6
144
23
78
143
56
7
60
174
167
17
25
172
120
74
48
150
70
8
92
177
52
96
24
79
40
32
109
62
11
29
110
10
180
45
101
44
3
12
133
30
164
71
116
97
28
4
75
68
153
126

> <PUBCHEM_MMFF94_PARTIAL_CHARGES>
36
1 -0.46
10 0.31
11 -0.73
12 -0.42
13 -0.34
15 0.28
16 0.28
17 0.26
18 0.3
19 0.28
2 -0.56
20 0.28
21 0.25
22 0.57
23 0.29
24 0.08
25 -0.15
26 -0.15
27 0.29
28 0.08
29 0.08
3 -0.56
30 -0.15
31 0.56
32 0.66
4 -0.15
41 0.37
44 0.15
45 0.15
48 0.15
5 -0.57
51 0.5
6 -0.36
7 -0.36
8 -0.65
9 -0.57

> <PUBCHEM_EFFECTIVE_ROTOR_COUNT>
10.8

> <PUBCHEM_PHARMACOPHORE_FEATURES>
15
1 11 donor
1 2 acceptor
1 3 acceptor
1 5 acceptor
1 6 acceptor
1 7 acceptor
1 8 acceptor
1 9 acceptor
3 10 13 21 cation
3 8 9 32 anion
5 10 12 13 14 21 rings
5 2 15 16 17 19 rings
5 3 15 16 18 20 rings
5 6 7 28 29 31 rings
6 24 25 26 28 29 30 rings

> <PUBCHEM_HEAVY_ATOM_COUNT>
32

> <PUBCHEM_ATOM_DEF_STEREO_COUNT>
4

> <PUBCHEM_ATOM_UDEF_STEREO_COUNT>
0

> <PUBCHEM_BOND_DEF_STEREO_COUNT>
0

> <PUBCHEM_BOND_UDEF_STEREO_COUNT>
0

> <PUBCHEM_ISOTOPIC_ATOM_COUNT>
0

> <PUBCHEM_COMPONENT_COUNT>
1

> <PUBCHEM_CACTVS_TAUTO_COUNT>
2

> <PUBCHEM_CONFORMER_ID>
00B55EE900000001

> <PUBCHEM_MMFF94_ENERGY>
72.7014

> <PUBCHEM_FEATURE_SELFOVERLAP>
77.031

> <PUBCHEM_SHAPE_FINGERPRINT>
11513181 2 18131638893323783767
12156800 1 16968652515015618191
12539773 59 16695808421626435953
12788726 201 18197497535166235979
12978246 48 18410849975745335123
13122387 1 18196086866417871663
13140716 1 18196926674358283618
1361 2 18193833743917581689
14117953 113 17619061733831006975
14840074 17 18192450764574480819
15001296 14 18336549416942143283
15210252 30 17108181842071521140
17138139 8 17843370060255871405
19930381 70 17617095807235643901
20764821 26 18340209587707803871
22113638 7 18122904226897078630
238 59 17905895768743840626
3052486 1 18338228268145273266
338550 245 18410856559650358606
354706 35 17546408608396962527
463206 1 18120940494781811523
50150288 127 17128497278131651665
5309563 4 17832993749664783169
6433294 58 18268145533965079901

> <PUBCHEM_SHAPE_MULTIPOLES>
590.53
8.81
6.26
1.49
3.1
3.02
0.32
-1.25
-1.12
0.45
-1.11
0.4
-0.39
-0.85

> <PUBCHEM_SHAPE_SELFOVERLAP>
1271.709

> <PUBCHEM_SHAPE_VOLUME>
328.8

> <PUBCHEM_COORDINATE_TYPE>
2
5
10

$$$$
