28960541
  -OEChem-12032416393D

 57 60  0     1  0  0  0  0  0999 V2000
   -7.3413    0.8697    0.2122 F   0  0  0  0  0  0  0  0  0  0  0  0
   -6.2208    0.6882    2.0668 F   0  0  0  0  0  0  0  0  0  0  0  0
   -5.6811    2.2127    0.6217 F   0  0  0  0  0  0  0  0  0  0  0  0
    3.1556   -1.4026    1.8083 O   0  0  0  0  0  0  0  0  0  0  0  0
    4.8399   -2.4978    0.6487 O   0  0  0  0  0  0  0  0  0  0  0  0
    3.3030   -2.7013   -1.7797 O   0  0  0  0  0  0  0  0  0  0  0  0
    1.2624    4.8188    0.8175 O   0  0  0  0  0  0  0  0  0  0  0  0
   -0.7321   -2.7766   -1.1712 O   0  0  0  0  0  0  0  0  0  0  0  0
    3.0004    0.5886   -0.2549 N   0  0  0  0  0  0  0  0  0  0  0  0
    0.5913   -1.7425    0.4168 N   0  0  0  0  0  0  0  0  0  0  0  0
    2.3030    5.7635   -1.0042 N   0  0  0  0  0  0  0  0  0  0  0  0
   -1.6094   -1.1250    0.2476 N   0  0  0  0  0  0  0  0  0  0  0  0
    3.6299   -0.7182   -0.4550 C   0  0  2  0  0  0  0  0  0  0  0  0
    2.5953   -1.7295   -0.9985 C   0  0  2  0  0  0  0  0  0  0  0  0
    1.8094   -2.4617    0.1113 C   0  0  1  0  0  0  0  0  0  0  0  0
    4.2273   -1.2174    0.8735 C   0  0  1  0  0  0  0  0  0  0  0  0
    2.6304   -2.6698    1.4006 C   0  0  1  0  0  0  0  0  0  0  0  0
    3.9159   -3.4495    1.1985 C   0  0  0  0  0  0  0  0  0  0  0  0
    3.8029    1.4107    0.6612 C   0  0  0  0  0  0  0  0  0  0  0  0
    2.8047    1.2674   -1.5434 C   0  0  0  0  0  0  0  0  0  0  0  0
    3.1301    2.7592    0.9241 C   0  0  0  0  0  0  0  0  0  0  0  0
    2.0986    2.6115   -1.3573 C   0  0  0  0  0  0  0  0  0  0  0  0
    2.8590    3.5064   -0.3803 C   0  0  0  0  0  0  0  0  0  0  0  0
    2.0632    4.7458   -0.1114 C   0  0  0  0  0  0  0  0  0  0  0  0
   -0.6105   -1.9595   -0.2616 C   0  0  0  0  0  0  0  0  0  0  0  0
   -2.9598   -1.0367   -0.1635 C   0  0  0  0  0  0  0  0  0  0  0  0
   -3.8231   -0.1376    0.4629 C   0  0  0  0  0  0  0  0  0  0  0  0
   -3.4284   -1.8493   -1.1961 C   0  0  0  0  0  0  0  0  0  0  0  0
   -5.1548   -0.0512    0.0568 C   0  0  0  0  0  0  0  0  0  0  0  0
   -4.7600   -1.7626   -1.6022 C   0  0  0  0  0  0  0  0  0  0  0  0
   -5.6233   -0.8638   -0.9757 C   0  0  0  0  0  0  0  0  0  0  0  0
   -6.0777    0.9099    0.7266 C   0  0  0  0  0  0  0  0  0  0  0  0
    4.4624   -0.6399   -1.1693 H   0  0  0  0  0  0  0  0  0  0  0  0
    1.8983   -1.2717   -1.7057 H   0  0  0  0  0  0  0  0  0  0  0  0
    1.5141   -3.4541   -0.2532 H   0  0  0  0  0  0  0  0  0  0  0  0
    5.0174   -0.5921    1.2959 H   0  0  0  0  0  0  0  0  0  0  0  0
    2.0120   -3.0958    2.1974 H   0  0  0  0  0  0  0  0  0  0  0  0
    4.3287   -3.7792    2.1580 H   0  0  0  0  0  0  0  0  0  0  0  0
    3.8151   -4.3154    0.5387 H   0  0  0  0  0  0  0  0  0  0  0  0
    4.8168    1.5732    0.2725 H   0  0  0  0  0  0  0  0  0  0  0  0
    3.8757    0.9842    1.6654 H   0  0  0  0  0  0  0  0  0  0  0  0
    2.1884    0.6773   -2.2276 H   0  0  0  0  0  0  0  0  0  0  0  0
    3.7678    1.4332   -2.0451 H   0  0  0  0  0  0  0  0  0  0  0  0
    2.1947    2.5857    1.4737 H   0  0  0  0  0  0  0  0  0  0  0  0
    3.7654    3.3684    1.5791 H   0  0  0  0  0  0  0  0  0  0  0  0
    2.0030    3.1108   -2.3294 H   0  0  0  0  0  0  0  0  0  0  0  0
    1.0749    2.4402   -0.9972 H   0  0  0  0  0  0  0  0  0  0  0  0
    3.8232    3.7867   -0.8251 H   0  0  0  0  0  0  0  0  0  0  0  0
    0.6334   -0.9939    1.1018 H   0  0  0  0  0  0  0  0  0  0  0  0
    2.6448   -3.3024   -2.1683 H   0  0  0  0  0  0  0  0  0  0  0  0
    2.9614    5.6722   -1.7712 H   0  0  0  0  0  0  0  0  0  0  0  0
    1.8177    6.6511   -0.9252 H   0  0  0  0  0  0  0  0  0  0  0  0
   -1.3415   -0.5028    1.0061 H   0  0  0  0  0  0  0  0  0  0  0  0
   -3.4613    0.4976    1.2683 H   0  0  0  0  0  0  0  0  0  0  0  0
   -2.8227   -2.5685   -1.7287 H   0  0  0  0  0  0  0  0  0  0  0  0
   -5.1260   -2.3948   -2.4062 H   0  0  0  0  0  0  0  0  0  0  0  0
   -6.6567   -0.8120   -1.3070 H   0  0  0  0  0  0  0  0  0  0  0  0
  1 32  1  0  0  0  0
  2 32  1  0  0  0  0
  3 32  1  0  0  0  0
  4 16  1  0  0  0  0
  4 17  1  0  0  0  0
  5 16  1  0  0  0  0
  5 18  1  0  0  0  0
  6 14  1  0  0  0  0
  6 50  1  0  0  0  0
  7 24  2  0  0  0  0
  8 25  2  0  0  0  0
  9 13  1  0  0  0  0
  9 19  1  0  0  0  0
  9 20  1  0  0  0  0
 10 15  1  0  0  0  0
 10 25  1  0  0  0  0
 10 49  1  0  0  0  0
 11 24  1  0  0  0  0
 11 51  1  0  0  0  0
 11 52  1  0  0  0  0
 12 25  1  0  0  0  0
 12 26  1  0  0  0  0
 12 53  1  0  0  0  0
 13 14  1  0  0  0  0
 13 16  1  0  0  0  0
 13 33  1  0  0  0  0
 14 15  1  0  0  0  0
 14 34  1  0  0  0  0
 15 17  1  0  0  0  0
 15 35  1  0  0  0  0
 16 36  1  0  0  0  0
 17 18  1  0  0  0  0
 17 37  1  0  0  0  0
 18 38  1  0  0  0  0
 18 39  1  0  0  0  0
 19 21  1  0  0  0  0
 19 40  1  0  0  0  0
 19 41  1  0  0  0  0
 20 22  1  0  0  0  0
 20 42  1  0  0  0  0
 20 43  1  0  0  0  0
 21 23  1  0  0  0  0
 21 44  1  0  0  0  0
 21 45  1  0  0  0  0
 22 23  1  0  0  0  0
 22 46  1  0  0  0  0
 22 47  1  0  0  0  0
 23 24  1  0  0  0  0
 23 48  1  0  0  0  0
 26 27  1  0  0  0  0
 26 28  2  0  0  0  0
 27 29  2  0  0  0  0
 27 54  1  0  0  0  0
 28 30  1  0  0  0  0
 28 55  1  0  0  0  0
 29 31  1  0  0  0  0
 29 32  1  0  0  0  0
 30 31  2  0  0  0  0
 30 56  1  0  0  0  0
 31 57  1  0  0  0  0
M  END
> <PUBCHEM_COMPOUND_CID>
28960541

> <PUBCHEM_CONFORMER_RMSD>
1

> <PUBCHEM_CONFORMER_DIVERSEORDER>
1
82
72
85
22
32
63
37
25
68
77
93
21
91
75
86
43
73
36
44
28
51
54
81
27
39
69
23
45
66
70
4
29
87
12
46
35
74
89
61
79
50
19
92
47
78
58
76
9
84
56
10
60
57
80
31
15
96
90
94
83
53
20
88
16
67
7
18
26
13
55
24
62
65
17
33
30
52
95
2
71
38
64
3
34
40
59
14
5
49
6
42
41
11
48
8

> <PUBCHEM_MMFF94_PARTIAL_CHARGES>
39
1 -0.34
10 -0.73
11 -0.8
12 -0.55
13 0.27
14 0.28
15 0.3
16 0.56
17 0.28
18 0.28
19 0.27
2 -0.34
20 0.27
23 0.06
24 0.57
25 0.69
26 0.12
27 -0.15
28 -0.15
29 -0.14
3 -0.34
30 -0.15
31 -0.15
32 1.16
4 -0.56
49 0.37
5 -0.56
50 0.4
51 0.37
52 0.37
53 0.37
54 0.15
55 0.15
56 0.15
57 0.15
6 -0.68
7 -0.57
8 -0.57
9 -0.81

> <PUBCHEM_EFFECTIVE_ROTOR_COUNT>
9.4

> <PUBCHEM_PHARMACOPHORE_FEATURES>
13
1 10 donor
1 11 donor
1 12 donor
1 4 acceptor
1 5 acceptor
1 6 acceptor
1 6 donor
1 7 acceptor
1 8 acceptor
1 9 cation
6 26 27 28 29 30 31 rings
6 9 19 20 21 22 23 rings
8 4 5 13 14 15 16 17 18 rings

> <PUBCHEM_HEAVY_ATOM_COUNT>
32

> <PUBCHEM_ATOM_DEF_STEREO_COUNT>
5

> <PUBCHEM_ATOM_UDEF_STEREO_COUNT>
0

> <PUBCHEM_BOND_DEF_STEREO_COUNT>
0

> <PUBCHEM_BOND_UDEF_STEREO_COUNT>
0

> <PUBCHEM_ISOTOPIC_ATOM_COUNT>
0

> <PUBCHEM_COMPONENT_COUNT>
1

> <PUBCHEM_CACTVS_TAUTO_COUNT>
6

> <PUBCHEM_CONFORMER_ID>
01B9E71D00000001

> <PUBCHEM_MMFF94_ENERGY>
82.6955

> <PUBCHEM_FEATURE_SELFOVERLAP>
66.075

> <PUBCHEM_SHAPE_FINGERPRINT>
10305334 12 10196291385020224380
10439779 11 18198328744962494920
10675989 125 18268717280065271713
10937287 8 17759799643298890396
11059845 2 17329124280596201176
11331351 85 18124310515533993718
12166972 35 18342451517470618811
12422481 6 18114463349867669445
12616971 3 18411696565687501135
13590594 115 18264767667073117586
13878862 14 18115848794315633927
13944108 23 18336274495864597812
13965767 371 17463104075843773892
14251764 75 18121790692422984525
14849402 71 18335136544505407304
15001296 14 18411138074031127489
15326921 28 16829521650116217800
15420108 30 18056743542249017950
17844677 252 18410014343030424715
17980427 23 18054479630437829118
19301679 30 17831291701882787554
19302320 297 18267596706640082097
21033648 144 18188760751759505823
21033648 29 16805591561120773271
21298829 104 18341045324219926128
21344244 78 17972017177235070882
21591340 35 18195246843750213976
21860390 5 18342177786857785966
22122407 14 18336559218410934497
23559900 14 17131287761423453447
245318 6 17972604556735501293
24771293 8 18270664460177192626
3103668 31 17905613199040683796
345986 75 17607225581711540730
4058900 60 17974293428123543604
474 4 18190451860730199990
508180 173 18198924641762803248
5104073 3 18261108608361822931
513532 50 17988932188823107316
5951187 136 18200609084348286277
60111433 81 17774145928852617377

> <PUBCHEM_SHAPE_MULTIPOLES>
587.45
14.34
6.23
1.53
30.12
9.03
0.05
1.41
-2.71
-9.73
0.17
0.03
-0.37
-2.86

> <PUBCHEM_SHAPE_SELFOVERLAP>
1261.445

> <PUBCHEM_SHAPE_VOLUME>
322.1

> <PUBCHEM_COORDINATE_TYPE>
2
5
10

$$$$
