56776079
  -OEChem-12032416223D

 76 80  0     1  0  0  0  0  0999 V2000
   -1.5017   -1.6019    1.7074 O   0  0  0  0  0  0  0  0  0  0  0  0
    5.5898   -0.1442   -1.3456 O   0  0  0  0  0  0  0  0  0  0  0  0
   -0.2738   -4.4686   -0.1471 O   0  0  0  0  0  0  0  0  0  0  0  0
    6.6222    4.4517    0.1617 O   0  0  0  0  0  0  0  0  0  0  0  0
   -7.5557    3.4323   -1.1218 O   0  0  0  0  0  0  0  0  0  0  0  0
    1.4031   -3.0591   -0.8985 N   0  0  0  0  0  0  0  0  0  0  0  0
    5.8345    1.7529   -0.0297 N   0  0  0  0  0  0  0  0  0  0  0  0
   -1.4814   -1.9610   -1.5640 N   0  0  0  0  0  0  0  0  0  0  0  0
   -5.6587    1.5950   -0.1600 N   0  0  0  0  0  0  0  0  0  0  0  0
    2.6652   -1.9989    0.9452 C   0  0  2  0  0  0  0  0  0  0  0  0
    3.4817   -1.1960   -0.1069 C   0  0  1  0  0  0  0  0  0  0  0  0
    2.6509   -0.9515   -1.3789 C   0  0  0  0  0  0  0  0  0  0  0  0
    2.2399   -3.3222    0.2768 C   0  0  0  0  0  0  0  0  0  0  0  0
    1.4539   -1.2009    1.4850 C   0  0  0  0  0  0  0  0  0  0  0  0
    2.0505   -2.2441   -1.9361 C   0  0  0  0  0  0  0  0  0  0  0  0
    4.0447    0.1186    0.4332 C   0  0  0  0  0  0  0  0  0  0  0  0
    0.6799   -1.8773    2.6268 C   0  0  0  0  0  0  0  0  0  0  0  0
    5.2248    0.5555   -0.3975 C   0  0  0  0  0  0  0  0  0  0  0  0
    0.1336   -3.6364   -0.9659 C   0  0  0  0  0  0  0  0  0  0  0  0
   -0.6831   -1.2012    2.8095 C   0  0  0  0  0  0  0  0  0  0  0  0
   -0.8148   -3.1686   -2.0549 C   0  0  0  0  0  0  0  0  0  0  0  0
    5.5088    2.5426    1.1628 C   0  0  0  0  0  0  0  0  0  0  0  0
    6.9830    2.2522   -0.7855 C   0  0  0  0  0  0  0  0  0  0  0  0
    5.4212    4.0217    0.8080 C   0  0  0  0  0  0  0  0  0  0  0  0
    6.8294    3.7411   -1.0619 C   0  0  0  0  0  0  0  0  0  0  0  0
   -2.6603   -2.2803   -0.7502 C   0  0  0  0  0  0  0  0  0  0  0  0
   -2.5310   -0.7881    1.3183 C   0  0  0  0  0  0  0  0  0  0  0  0
   -3.1227   -1.0969    0.0738 C   0  0  0  0  0  0  0  0  0  0  0  0
   -4.1628   -0.2892   -0.4105 C   0  0  0  0  0  0  0  0  0  0  0  0
   -4.6301    0.7890    0.3386 C   0  0  0  0  0  0  0  0  0  0  0  0
   -3.0226    0.2823    2.0722 C   0  0  0  0  0  0  0  0  0  0  0  0
   -4.0660    1.0685    1.5800 C   0  0  0  0  0  0  0  0  0  0  0  0
   -6.5779    2.2646    0.7668 C   0  0  0  0  0  0  0  0  0  0  0  0
   -5.4381    2.2916   -1.4347 C   0  0  0  0  0  0  0  0  0  0  0  0
   -7.8578    2.6511    0.0338 C   0  0  0  0  0  0  0  0  0  0  0  0
   -6.7789    2.6758   -2.0502 C   0  0  0  0  0  0  0  0  0  0  0  0
    3.3246   -2.2376    1.7898 H   0  0  0  0  0  0  0  0  0  0  0  0
    4.3205   -1.8524   -0.3814 H   0  0  0  0  0  0  0  0  0  0  0  0
    3.2531   -0.4831   -2.1648 H   0  0  0  0  0  0  0  0  0  0  0  0
    1.8374   -0.2479   -1.1633 H   0  0  0  0  0  0  0  0  0  0  0  0
    3.1204   -3.8787   -0.0682 H   0  0  0  0  0  0  0  0  0  0  0  0
    1.7287   -3.9741    0.9896 H   0  0  0  0  0  0  0  0  0  0  0  0
    0.7636   -0.9795    0.6641 H   0  0  0  0  0  0  0  0  0  0  0  0
    1.7953   -0.2276    1.8577 H   0  0  0  0  0  0  0  0  0  0  0  0
    1.3726   -1.9913   -2.7500 H   0  0  0  0  0  0  0  0  0  0  0  0
    2.8461   -2.8646   -2.3664 H   0  0  0  0  0  0  0  0  0  0  0  0
    3.2818    0.9042    0.4217 H   0  0  0  0  0  0  0  0  0  0  0  0
    4.3956   -0.0281    1.4613 H   0  0  0  0  0  0  0  0  0  0  0  0
    1.2625   -1.7992    3.5513 H   0  0  0  0  0  0  0  0  0  0  0  0
    0.5191   -2.9386    2.4189 H   0  0  0  0  0  0  0  0  0  0  0  0
   -1.1526   -1.5459    3.7369 H   0  0  0  0  0  0  0  0  0  0  0  0
   -0.5371   -0.1157    2.8503 H   0  0  0  0  0  0  0  0  0  0  0  0
   -0.2923   -2.9762   -2.9921 H   0  0  0  0  0  0  0  0  0  0  0  0
   -1.5309   -3.9679   -2.2821 H   0  0  0  0  0  0  0  0  0  0  0  0
    6.3267    2.3748    1.8736 H   0  0  0  0  0  0  0  0  0  0  0  0
    4.5817    2.2186    1.6377 H   0  0  0  0  0  0  0  0  0  0  0  0
    7.1091    1.7009   -1.7221 H   0  0  0  0  0  0  0  0  0  0  0  0
    7.8671    2.0720   -0.1627 H   0  0  0  0  0  0  0  0  0  0  0  0
   -1.7827   -1.3971   -2.3591 H   0  0  0  0  0  0  0  0  0  0  0  0
    4.5659    4.2244    0.1524 H   0  0  0  0  0  0  0  0  0  0  0  0
    5.2962    4.6191    1.7164 H   0  0  0  0  0  0  0  0  0  0  0  0
    7.7383    4.1329   -1.5289 H   0  0  0  0  0  0  0  0  0  0  0  0
    5.9910    3.9378   -1.7406 H   0  0  0  0  0  0  0  0  0  0  0  0
   -2.4710   -3.1150   -0.0649 H   0  0  0  0  0  0  0  0  0  0  0  0
   -3.4749   -2.6196   -1.4034 H   0  0  0  0  0  0  0  0  0  0  0  0
   -4.6161   -0.5244   -1.3714 H   0  0  0  0  0  0  0  0  0  0  0  0
   -2.6182    0.5282    3.0492 H   0  0  0  0  0  0  0  0  0  0  0  0
   -4.4023    1.9032    2.1889 H   0  0  0  0  0  0  0  0  0  0  0  0
   -6.8397    1.6129    1.6087 H   0  0  0  0  0  0  0  0  0  0  0  0
   -6.0989    3.1704    1.1586 H   0  0  0  0  0  0  0  0  0  0  0  0
   -4.8471    3.1950   -1.2394 H   0  0  0  0  0  0  0  0  0  0  0  0
   -4.8841    1.6780   -2.1534 H   0  0  0  0  0  0  0  0  0  0  0  0
   -8.4965    3.2519    0.6890 H   0  0  0  0  0  0  0  0  0  0  0  0
   -8.4300    1.7645   -0.2654 H   0  0  0  0  0  0  0  0  0  0  0  0
   -7.3443    1.7892   -2.3620 H   0  0  0  0  0  0  0  0  0  0  0  0
   -6.6182    3.2959   -2.9378 H   0  0  0  0  0  0  0  0  0  0  0  0
  1 20  1  0  0  0  0
  1 27  1  0  0  0  0
  2 18  2  0  0  0  0
  3 19  2  0  0  0  0
  4 24  1  0  0  0  0
  4 25  1  0  0  0  0
  5 35  1  0  0  0  0
  5 36  1  0  0  0  0
  6 13  1  0  0  0  0
  6 15  1  0  0  0  0
  6 19  1  0  0  0  0
  7 18  1  0  0  0  0
  7 22  1  0  0  0  0
  7 23  1  0  0  0  0
  8 21  1  0  0  0  0
  8 26  1  0  0  0  0
  8 59  1  0  0  0  0
  9 30  1  0  0  0  0
  9 33  1  0  0  0  0
  9 34  1  0  0  0  0
 10 11  1  0  0  0  0
 10 13  1  0  0  0  0
 10 14  1  0  0  0  0
 10 37  1  0  0  0  0
 11 12  1  0  0  0  0
 11 16  1  0  0  0  0
 11 38  1  0  0  0  0
 12 15  1  0  0  0  0
 12 39  1  0  0  0  0
 12 40  1  0  0  0  0
 13 41  1  0  0  0  0
 13 42  1  0  0  0  0
 14 17  1  0  0  0  0
 14 43  1  0  0  0  0
 14 44  1  0  0  0  0
 15 45  1  0  0  0  0
 15 46  1  0  0  0  0
 16 18  1  0  0  0  0
 16 47  1  0  0  0  0
 16 48  1  0  0  0  0
 17 20  1  0  0  0  0
 17 49  1  0  0  0  0
 17 50  1  0  0  0  0
 19 21  1  0  0  0  0
 20 51  1  0  0  0  0
 20 52  1  0  0  0  0
 21 53  1  0  0  0  0
 21 54  1  0  0  0  0
 22 24  1  0  0  0  0
 22 55  1  0  0  0  0
 22 56  1  0  0  0  0
 23 25  1  0  0  0  0
 23 57  1  0  0  0  0
 23 58  1  0  0  0  0
 24 60  1  0  0  0  0
 24 61  1  0  0  0  0
 25 62  1  0  0  0  0
 25 63  1  0  0  0  0
 26 28  1  0  0  0  0
 26 64  1  0  0  0  0
 26 65  1  0  0  0  0
 27 28  2  0  0  0  0
 27 31  1  0  0  0  0
 28 29  1  0  0  0  0
 29 30  2  0  0  0  0
 29 66  1  0  0  0  0
 30 32  1  0  0  0  0
 31 32  2  0  0  0  0
 31 67  1  0  0  0  0
 32 68  1  0  0  0  0
 33 35  1  0  0  0  0
 33 69  1  0  0  0  0
 33 70  1  0  0  0  0
 34 36  1  0  0  0  0
 34 71  1  0  0  0  0
 34 72  1  0  0  0  0
 35 73  1  0  0  0  0
 35 74  1  0  0  0  0
 36 75  1  0  0  0  0
 36 76  1  0  0  0  0
M  END
> <PUBCHEM_COMPOUND_CID>
56776079

> <PUBCHEM_CONFORMER_RMSD>
1

> <PUBCHEM_CONFORMER_DIVERSEORDER>
2
166
174
63
19
122
91
190
52
156
87
16
74
171
155
138
23
107
151
89
193
110
128
204
158
5
48
76
102
100
150
104
95
24
37
93
88
202
114
186
201
165
82
136
106
94
41
105
154
62
78
159
131
70
7
184
21
79
153
9
200
113
29
50
181
134
85
118
36
137
188
197
129
147
168
194
84
28
18
101
195
148
45
96
54
123
199
97
125
59
22
127
73
198
116
115
20
60
179
192
187
103
144
83
99
77
191
121
58
172
33
8
143
183
11
71
173
142
75
185
132
141
169
6
39
152
69
180
31
146
65
108
14
124
27
163
157
44
178
111
40
177
133
81
167
67
170
43
25
57
176
38
55
42
80
162
161
196
66
86
10
112
3
145
117
120
56
126
61
46
130
64
12
98
30
26
140
35
189
34
175
164
51
182
15
90
149
1
4
32
203
53
160
119
72
13
47
109
92
205
17
135
68
139
49

> <PUBCHEM_MMFF94_PARTIAL_CHARGES>
35
1 -0.36
13 0.3
15 0.3
16 0.06
18 0.57
19 0.57
2 -0.57
20 0.28
21 0.33
22 0.3
23 0.3
24 0.28
25 0.28
26 0.41
27 0.08
28 -0.14
29 -0.15
3 -0.57
30 0.1
31 -0.15
32 -0.15
33 0.37
34 0.37
35 0.28
36 0.28
4 -0.56
5 -0.56
59 0.36
6 -0.66
66 0.15
67 0.15
68 0.15
7 -0.66
8 -0.9
9 -0.84

> <PUBCHEM_EFFECTIVE_ROTOR_COUNT>
8.6

> <PUBCHEM_PHARMACOPHORE_FEATURES>
12
1 1 acceptor
1 2 acceptor
1 3 acceptor
1 4 acceptor
1 5 acceptor
1 8 cation
1 8 donor
1 9 cation
6 27 28 29 30 31 32 rings
6 4 7 22 23 24 25 rings
6 5 9 33 34 35 36 rings
6 6 10 11 12 13 15 rings

> <PUBCHEM_HEAVY_ATOM_COUNT>
36

> <PUBCHEM_ATOM_DEF_STEREO_COUNT>
2

> <PUBCHEM_ATOM_UDEF_STEREO_COUNT>
0

> <PUBCHEM_BOND_DEF_STEREO_COUNT>
0

> <PUBCHEM_BOND_UDEF_STEREO_COUNT>
0

> <PUBCHEM_ISOTOPIC_ATOM_COUNT>
0

> <PUBCHEM_COMPONENT_COUNT>
1

> <PUBCHEM_CACTVS_TAUTO_COUNT>
2

> <PUBCHEM_CONFORMER_ID>
0362558F00000002

> <PUBCHEM_MMFF94_ENERGY>
112.7124

> <PUBCHEM_FEATURE_SELFOVERLAP>
60.899

> <PUBCHEM_SHAPE_FINGERPRINT>
10533779 1 18339630209478952596
10556698 54 16630518501592806224
10675989 125 18196093248570027225
10864689 126 18342177787143271528
11093857 51 17561072584444565614
11135609 127 18265889173413019605
11621639 254 17910954973993489695
12166972 35 17339558194750345055
12422481 6 14490462063307442362
12633257 1 12758020974076451459
12895837 130 18264494060186518140
13383661 66 10879999064279942844
14931854 50 16988564576163174967
15082195 135 18059572430098676792
15198563 99 17412170337289857175
15513586 35 16449265376186366212
15705408 1 16480811025606056071
15773879 134 17894619371037426370
15803439 3 17275388732988650766
15950262 2 18334295370338095291
17899979 129 18340492157885585033
19304152 47 18117005591969738554
19438510 23 18260828206656722995
20156587 161 12461361681821010060
20691028 202 18339077194100761876
208703 8 9223237325364195540
21033648 29 17167872945274164994
21057603 293 18189873431398328381
23522609 53 17201369460800741257
23569914 2 16953907888927400877
27425 322 18261951856439221803
2838139 119 18338799030838962442
3680242 22 11531068252112240955
3862424 121 13829561133168501605
4112364 45 18188482484864570947
44426701 194 18115847699278568773
474113 269 10737292372791321601
484985 159 9942158492391257242
5372103 7 18409168800717764249
57527358 35 18334288786323244426
6036956 94 18342466932414647425
6201320 77 11167366418836437589
6677587 24 18193816190196073479
6700243 42 13038614099380050275
6898599 12 18271239534116369383

> <PUBCHEM_SHAPE_MULTIPOLES>
691.59
20.1
5.97
2.26
6.18
1.61
-0.68
36.62
5.54
-4.7
1.81
1.14
-0.88
1.48

> <PUBCHEM_SHAPE_SELFOVERLAP>
1446.701

> <PUBCHEM_SHAPE_VOLUME>
383.9

> <PUBCHEM_COORDINATE_TYPE>
2
5
10

$$$$
