56775474
  -OEChem-12032416323D

 48 51  0     0  0  0  0  0  0999 V2000
    6.5500    3.5053    0.5089 F   0  0  0  0  0  0  0  0  0  0  0  0
   -1.7662   -4.2649    1.2576 O   0  0  0  0  0  0  0  0  0  0  0  0
    3.2691   -1.8306    0.0483 O   0  0  0  0  0  0  0  0  0  0  0  0
   -6.1213    2.9995    0.5003 O   0  0  0  0  0  0  0  0  0  0  0  0
   -1.5387   -1.3885    0.3477 N   0  0  0  0  0  0  0  0  0  0  0  0
    2.2543   -2.7423   -0.2162 N   0  0  0  0  0  0  0  0  0  0  0  0
   -0.9981   -2.7016    0.0239 C   0  0  0  0  0  0  0  0  0  0  0  0
   -2.1438   -3.7064   -0.0214 C   0  0  0  0  0  0  0  0  0  0  0  0
   -0.6061   -3.4042    1.3187 C   0  0  0  0  0  0  0  0  0  0  0  0
    0.0049   -2.6655   -1.1369 C   0  0  0  0  0  0  0  0  0  0  0  0
   -2.1510   -0.7993   -0.8407 C   0  0  0  0  0  0  0  0  0  0  0  0
    1.2611   -2.0137   -0.7335 C   0  0  0  0  0  0  0  0  0  0  0  0
   -3.2082    0.2115   -0.4841 C   0  0  0  0  0  0  0  0  0  0  0  0
    1.5885   -0.6494   -0.8188 C   0  0  0  0  0  0  0  0  0  0  0  0
    2.8607   -0.5877   -0.3148 C   0  0  0  0  0  0  0  0  0  0  0  0
   -4.4614   -0.2148   -0.0438 C   0  0  0  0  0  0  0  0  0  0  0  0
   -2.9341    1.5749   -0.5935 C   0  0  0  0  0  0  0  0  0  0  0  0
    3.8154    0.4722   -0.1007 C   0  0  0  0  0  0  0  0  0  0  0  0
   -5.4404    0.7221    0.2866 C   0  0  0  0  0  0  0  0  0  0  0  0
   -3.9132    2.5118   -0.2631 C   0  0  0  0  0  0  0  0  0  0  0  0
   -5.1663    2.0853    0.1770 C   0  0  0  0  0  0  0  0  0  0  0  0
    3.4898    1.7843   -0.4444 C   0  0  0  0  0  0  0  0  0  0  0  0
    5.0646    0.1850    0.4495 C   0  0  0  0  0  0  0  0  0  0  0  0
    4.4134    2.8089   -0.2385 C   0  0  0  0  0  0  0  0  0  0  0  0
    5.9883    1.2095    0.6554 C   0  0  0  0  0  0  0  0  0  0  0  0
    5.6627    2.5215    0.3114 C   0  0  0  0  0  0  0  0  0  0  0  0
   -5.7739    4.3769    0.3650 C   0  0  0  0  0  0  0  0  0  0  0  0
   -2.0726   -4.4653   -0.8081 H   0  0  0  0  0  0  0  0  0  0  0  0
   -3.1713   -3.3306    0.0058 H   0  0  0  0  0  0  0  0  0  0  0  0
   -0.5981   -2.8066    2.2366 H   0  0  0  0  0  0  0  0  0  0  0  0
    0.3059   -4.0084    1.2876 H   0  0  0  0  0  0  0  0  0  0  0  0
   -0.4032   -2.2070   -2.0438 H   0  0  0  0  0  0  0  0  0  0  0  0
    0.2309   -3.6993   -1.4355 H   0  0  0  0  0  0  0  0  0  0  0  0
   -0.8713   -0.7330    0.7523 H   0  0  0  0  0  0  0  0  0  0  0  0
   -2.6342   -1.5455   -1.4859 H   0  0  0  0  0  0  0  0  0  0  0  0
   -1.3914   -0.3121   -1.4633 H   0  0  0  0  0  0  0  0  0  0  0  0
    0.9863    0.1643   -1.1950 H   0  0  0  0  0  0  0  0  0  0  0  0
   -4.6884   -1.2736    0.0449 H   0  0  0  0  0  0  0  0  0  0  0  0
   -1.9610    1.9204   -0.9326 H   0  0  0  0  0  0  0  0  0  0  0  0
   -6.4147    0.3840    0.6288 H   0  0  0  0  0  0  0  0  0  0  0  0
   -3.6333    3.5542   -0.3705 H   0  0  0  0  0  0  0  0  0  0  0  0
    2.5245    2.0386   -0.8745 H   0  0  0  0  0  0  0  0  0  0  0  0
    5.3546   -0.8244    0.7299 H   0  0  0  0  0  0  0  0  0  0  0  0
    4.1607    3.8307   -0.5060 H   0  0  0  0  0  0  0  0  0  0  0  0
    6.9612    0.9867    1.0834 H   0  0  0  0  0  0  0  0  0  0  0  0
   -6.6500    4.9620    0.6636 H   0  0  0  0  0  0  0  0  0  0  0  0
   -5.5561    4.6365   -0.6766 H   0  0  0  0  0  0  0  0  0  0  0  0
   -4.9584    4.6546    1.0414 H   0  0  0  0  0  0  0  0  0  0  0  0
  1 26  1  0  0  0  0
  2  8  1  0  0  0  0
  2  9  1  0  0  0  0
  3  6  1  0  0  0  0
  3 15  1  0  0  0  0
  4 21  1  0  0  0  0
  4 27  1  0  0  0  0
  5  7  1  0  0  0  0
  5 11  1  0  0  0  0
  5 34  1  0  0  0  0
  6 12  2  0  0  0  0
  7  8  1  0  0  0  0
  7  9  1  0  0  0  0
  7 10  1  0  0  0  0
  8 28  1  0  0  0  0
  8 29  1  0  0  0  0
  9 30  1  0  0  0  0
  9 31  1  0  0  0  0
 10 12  1  0  0  0  0
 10 32  1  0  0  0  0
 10 33  1  0  0  0  0
 11 13  1  0  0  0  0
 11 35  1  0  0  0  0
 11 36  1  0  0  0  0
 12 14  1  0  0  0  0
 13 16  2  0  0  0  0
 13 17  1  0  0  0  0
 14 15  2  0  0  0  0
 14 37  1  0  0  0  0
 15 18  1  0  0  0  0
 16 19  1  0  0  0  0
 16 38  1  0  0  0  0
 17 20  2  0  0  0  0
 17 39  1  0  0  0  0
 18 22  2  0  0  0  0
 18 23  1  0  0  0  0
 19 21  2  0  0  0  0
 19 40  1  0  0  0  0
 20 21  1  0  0  0  0
 20 41  1  0  0  0  0
 22 24  1  0  0  0  0
 22 42  1  0  0  0  0
 23 25  2  0  0  0  0
 23 43  1  0  0  0  0
 24 26  2  0  0  0  0
 24 44  1  0  0  0  0
 25 26  1  0  0  0  0
 25 45  1  0  0  0  0
 27 46  1  0  0  0  0
 27 47  1  0  0  0  0
 27 48  1  0  0  0  0
M  END
> <PUBCHEM_COMPOUND_CID>
56775474

> <PUBCHEM_CONFORMER_RMSD>
0.8

> <PUBCHEM_CONFORMER_DIVERSEORDER>
1
57
74
49
98
9
148
24
129
168
61
81
56
127
97
119
124
159
58
82
121
109
138
130
101
181
161
33
166
174
143
151
87
128
146
112
86
92
167
66
107
150
145
118
179
91
99
47
75
39
63
173
94
126
18
40
123
116
120
175
164
23
155
27
144
131
46
176
67
110
37
102
177
170
165
76
171
169
68
84
45
160
104
162
25
93
142
136
125
69
141
77
70
154
65
26
157
180
43
100
80
48
113
137
73
90
95
12
103
114
16
147
132
11
71
122
158
178
53
14
153
54
28
106
134
52
64
172
96
111
20
50
149
89
35
117
32
59
6
17
140
42
79
7
152
60
139
105
38
30
10
51
133
44
3
72
78
85
13
21
5
55
36
19
88
29
41
22
34
163
62
156
115
8
31
108
2
4
15
83
135

> <PUBCHEM_MMFF94_PARTIAL_CHARGES>
37
1 -0.19
10 0.18
11 0.41
12 0.11
13 -0.14
14 -0.15
15 0.09
16 -0.15
17 -0.15
18 0.05
19 -0.15
2 -0.52
20 -0.15
21 0.08
22 -0.15
23 -0.15
24 -0.15
25 -0.15
26 0.19
27 0.28
3 -0.02
34 0.36
37 0.15
38 0.15
39 0.15
4 -0.36
40 0.15
41 0.15
42 0.15
43 0.15
44 0.15
45 0.15
5 -0.84
6 -0.41
7 0.21
8 0.26
9 0.26

> <PUBCHEM_EFFECTIVE_ROTOR_COUNT>
7.8

> <PUBCHEM_PHARMACOPHORE_FEATURES>
9
1 2 acceptor
1 4 acceptor
1 5 cation
1 5 donor
1 6 acceptor
4 2 7 8 9 rings
5 3 6 12 14 15 rings
6 13 16 17 19 20 21 rings
6 18 22 23 24 25 26 rings

> <PUBCHEM_HEAVY_ATOM_COUNT>
27

> <PUBCHEM_ATOM_DEF_STEREO_COUNT>
0

> <PUBCHEM_ATOM_UDEF_STEREO_COUNT>
0

> <PUBCHEM_BOND_DEF_STEREO_COUNT>
0

> <PUBCHEM_BOND_UDEF_STEREO_COUNT>
0

> <PUBCHEM_ISOTOPIC_ATOM_COUNT>
0

> <PUBCHEM_COMPONENT_COUNT>
1

> <PUBCHEM_CACTVS_TAUTO_COUNT>
1

> <PUBCHEM_CONFORMER_ID>
0362533200000001

> <PUBCHEM_MMFF94_ENERGY>
73.7999

> <PUBCHEM_FEATURE_SELFOVERLAP>
45.672

> <PUBCHEM_SHAPE_FINGERPRINT>
10050765 1 18411981377674888102
10439779 11 18339353162966634000
10675989 125 18053950554200641649
11720765 8 17626960681563976806
12107183 9 18262222349653743290
12788726 201 17610081305065808279
12925494 130 18411132580161405096
13540713 4 18269574847974949174
13955234 65 17757276977505458251
13965767 371 17968091976189005294
14223995 32 18272358820275451192
14251764 30 8934993768005220969
14251764 75 18271252595418333049
14347329 18 18270673290218327632
14395042 24 17970915690375635187
14429114 114 18341892931673916729
14565420 104 18263084310702748707
14790565 3 18339364042218689993
14849402 71 18120656829562353234
15142526 21 18263929848029702555
15198563 99 17698714045630088335
15320467 1 18411418431562889644
15338160 23 18192433193499438380
17980427 26 18266164046624973287
19246450 95 17538525900595488792
19309040 13 18060420188124040117
20238998 120 17762338416043895487
20715895 44 18341048519590964384
21401589 2 18410859875782070283
22122407 14 17837222480851351361
23559900 14 18341332211214586886
23569914 2 16555616609230933592
23845131 108 18188211992821115859
245318 6 18115605840426613965
2748736 6 18341320128648494401
2838139 119 18342735226077976822
3246875 12 18411139143641215819
376196 1 18341050714177360479
4144715 1 18263370351420261634
5104073 3 18188495666635965803
5109719 28 18339935797182317585
57091435 61 18195807371658182177
5951187 136 17841440228518314773
5969126 39 17910387617647209655
633830 44 18269269063498673895
636775 72 18127122199064106008
7288768 16 18260547840077207395
7808743 9 18411132580076723242
7970288 3 8502386524506131036
9849439 229 18409172078083480677
9981440 41 18339359768315118402

> <PUBCHEM_SHAPE_MULTIPOLES>
520.8
15.47
5.9
0.93
3.94
0.85
-0.04
-23.14
-2.89
-3.53
-1.36
-0.04
0.51
0.41

> <PUBCHEM_SHAPE_SELFOVERLAP>
1132.291

> <PUBCHEM_SHAPE_VOLUME>
287.7

> <PUBCHEM_COORDINATE_TYPE>
2
5
10

$$$$
