45360628
  -OEChem-12032416293D

 64 66  0     1  0  0  0  0  0999 V2000
   -0.5969   -4.9738   -0.3992 O   0  0  0  0  0  0  0  0  0  0  0  0
   -5.2831    1.6057    1.6764 O   0  0  0  0  0  0  0  0  0  0  0  0
   -2.0706   -1.6354   -0.3161 N   0  0  1  0  0  0  0  0  0  0  0  0
   -2.1462   -4.1022    1.0193 N   0  0  0  0  0  0  0  0  0  0  0  0
    1.3407   -0.4179   -0.1891 N   0  0  0  0  0  0  0  0  0  0  0  0
   -5.2614    2.4022   -0.5040 N   0  0  0  0  0  0  0  0  0  0  0  0
    7.3761    1.5159    0.6516 N   0  0  0  0  0  0  0  0  0  0  0  0
   -1.3852   -2.7727   -0.9432 C   0  0  1  0  0  0  0  0  0  0  0  0
    0.0411   -0.8225   -0.7005 C   0  0  1  0  0  0  0  0  0  0  0  0
   -3.2641   -1.9965    0.4408 C   0  0  1  0  0  0  0  0  0  0  0  0
    0.0288   -2.2515   -1.2444 C   0  0  0  0  0  0  0  0  0  0  0  0
   -1.0511   -0.8369    0.3602 C   0  0  0  0  0  0  0  0  0  0  0  0
   -2.9292   -3.0015    1.5317 C   0  0  0  0  0  0  0  0  0  0  0  0
   -1.3231   -4.0284   -0.0783 C   0  0  0  0  0  0  0  0  0  0  0  0
   -3.9907   -0.7812    1.0183 C   0  0  0  0  0  0  0  0  0  0  0  0
   -4.2900    0.2469   -0.0640 C   0  0  0  0  0  0  0  0  0  0  0  0
    2.2344   -0.0350   -1.2748 C   0  0  0  0  0  0  0  0  0  0  0  0
   -4.9937    1.4726    0.4903 C   0  0  0  0  0  0  0  0  0  0  0  0
    3.5912    0.3742   -0.7664 C   0  0  0  0  0  0  0  0  0  0  0  0
    3.7661    1.6252   -0.1747 C   0  0  0  0  0  0  0  0  0  0  0  0
    4.6733   -0.4977   -0.8870 C   0  0  0  0  0  0  0  0  0  0  0  0
   -5.9264    3.6540   -0.2301 C   0  0  0  0  0  0  0  0  0  0  0  0
    5.0230    2.0044    0.2962 C   0  0  0  0  0  0  0  0  0  0  0  0
    5.9302   -0.1185   -0.4161 C   0  0  0  0  0  0  0  0  0  0  0  0
    6.1051    1.1325    0.1755 C   0  0  0  0  0  0  0  0  0  0  0  0
   -6.7585    4.0852   -1.4309 C   0  0  0  0  0  0  0  0  0  0  0  0
   -4.9131    4.7254    0.1527 C   0  0  0  0  0  0  0  0  0  0  0  0
    7.5681    2.8136    1.2679 C   0  0  0  0  0  0  0  0  0  0  0  0
    8.5052    0.6143    0.5379 C   0  0  0  0  0  0  0  0  0  0  0  0
   -1.9014   -3.0454   -1.8712 H   0  0  0  0  0  0  0  0  0  0  0  0
   -0.2832   -0.1321   -1.4940 H   0  0  0  0  0  0  0  0  0  0  0  0
   -3.9559   -2.4804   -0.2637 H   0  0  0  0  0  0  0  0  0  0  0  0
    0.2324   -2.2506   -2.3214 H   0  0  0  0  0  0  0  0  0  0  0  0
    0.8014   -2.8620   -0.7609 H   0  0  0  0  0  0  0  0  0  0  0  0
   -1.3797    0.1801    0.5945 H   0  0  0  0  0  0  0  0  0  0  0  0
   -0.6977   -1.3118    1.2836 H   0  0  0  0  0  0  0  0  0  0  0  0
   -2.3558   -2.5507    2.3492 H   0  0  0  0  0  0  0  0  0  0  0  0
   -3.8417   -3.4263    1.9639 H   0  0  0  0  0  0  0  0  0  0  0  0
   -4.9301   -1.1067    1.4840 H   0  0  0  0  0  0  0  0  0  0  0  0
   -3.4000   -0.3191    1.8199 H   0  0  0  0  0  0  0  0  0  0  0  0
   -2.1113   -4.9514    1.5747 H   0  0  0  0  0  0  0  0  0  0  0  0
    1.2183    0.3789    0.4364 H   0  0  0  0  0  0  0  0  0  0  0  0
   -4.9359   -0.1963   -0.8319 H   0  0  0  0  0  0  0  0  0  0  0  0
   -3.3783    0.5985   -0.5584 H   0  0  0  0  0  0  0  0  0  0  0  0
    2.3533   -0.8637   -1.9842 H   0  0  0  0  0  0  0  0  0  0  0  0
    1.8149    0.8027   -1.8477 H   0  0  0  0  0  0  0  0  0  0  0  0
   -4.9296    2.2279   -1.4486 H   0  0  0  0  0  0  0  0  0  0  0  0
    2.9304    2.3132   -0.0763 H   0  0  0  0  0  0  0  0  0  0  0  0
    4.5506   -1.4762   -1.3438 H   0  0  0  0  0  0  0  0  0  0  0  0
   -6.6030    3.5033    0.6199 H   0  0  0  0  0  0  0  0  0  0  0  0
    5.1074    2.9876    0.7482 H   0  0  0  0  0  0  0  0  0  0  0  0
    6.7397   -0.8323   -0.5329 H   0  0  0  0  0  0  0  0  0  0  0  0
   -7.2960    5.0158   -1.2212 H   0  0  0  0  0  0  0  0  0  0  0  0
   -6.1303    4.2457   -2.3142 H   0  0  0  0  0  0  0  0  0  0  0  0
   -7.4971    3.3176   -1.6870 H   0  0  0  0  0  0  0  0  0  0  0  0
   -5.4122    5.6730    0.3803 H   0  0  0  0  0  0  0  0  0  0  0  0
   -4.3400    4.4252    1.0368 H   0  0  0  0  0  0  0  0  0  0  0  0
   -4.1974    4.9022   -0.6581 H   0  0  0  0  0  0  0  0  0  0  0  0
    6.9525    2.9193    2.1681 H   0  0  0  0  0  0  0  0  0  0  0  0
    8.6072    2.9629    1.5821 H   0  0  0  0  0  0  0  0  0  0  0  0
    7.3363    3.6232    0.5669 H   0  0  0  0  0  0  0  0  0  0  0  0
    9.4184    1.0545    0.9538 H   0  0  0  0  0  0  0  0  0  0  0  0
    8.7220    0.3815   -0.5106 H   0  0  0  0  0  0  0  0  0  0  0  0
    8.3276   -0.3145    1.0915 H   0  0  0  0  0  0  0  0  0  0  0  0
  1 14  2  0  0  0  0
  2 18  2  0  0  0  0
  3  8  1  0  0  0  0
  3 10  1  0  0  0  0
  3 12  1  0  0  0  0
  4 13  1  0  0  0  0
  4 14  1  0  0  0  0
  4 41  1  0  0  0  0
  5  9  1  0  0  0  0
  5 17  1  0  0  0  0
  5 42  1  0  0  0  0
  6 18  1  0  0  0  0
  6 22  1  0  0  0  0
  6 47  1  0  0  0  0
  7 25  1  0  0  0  0
  7 28  1  0  0  0  0
  7 29  1  0  0  0  0
  8 11  1  0  0  0  0
  8 14  1  0  0  0  0
  8 30  1  0  0  0  0
  9 11  1  0  0  0  0
  9 12  1  0  0  0  0
  9 31  1  0  0  0  0
 10 13  1  0  0  0  0
 10 15  1  0  0  0  0
 10 32  1  0  0  0  0
 11 33  1  0  0  0  0
 11 34  1  0  0  0  0
 12 35  1  0  0  0  0
 12 36  1  0  0  0  0
 13 37  1  0  0  0  0
 13 38  1  0  0  0  0
 15 16  1  0  0  0  0
 15 39  1  0  0  0  0
 15 40  1  0  0  0  0
 16 18  1  0  0  0  0
 16 43  1  0  0  0  0
 16 44  1  0  0  0  0
 17 19  1  0  0  0  0
 17 45  1  0  0  0  0
 17 46  1  0  0  0  0
 19 20  2  0  0  0  0
 19 21  1  0  0  0  0
 20 23  1  0  0  0  0
 20 48  1  0  0  0  0
 21 24  2  0  0  0  0
 21 49  1  0  0  0  0
 22 26  1  0  0  0  0
 22 27  1  0  0  0  0
 22 50  1  0  0  0  0
 23 25  2  0  0  0  0
 23 51  1  0  0  0  0
 24 25  1  0  0  0  0
 24 52  1  0  0  0  0
 26 53  1  0  0  0  0
 26 54  1  0  0  0  0
 26 55  1  0  0  0  0
 27 56  1  0  0  0  0
 27 57  1  0  0  0  0
 27 58  1  0  0  0  0
 28 59  1  0  0  0  0
 28 60  1  0  0  0  0
 28 61  1  0  0  0  0
 29 62  1  0  0  0  0
 29 63  1  0  0  0  0
 29 64  1  0  0  0  0
M  END
> <PUBCHEM_COMPOUND_CID>
45360628

> <PUBCHEM_CONFORMER_RMSD>
1

> <PUBCHEM_CONFORMER_DIVERSEORDER>
1
3
84
73
22
89
51
24
85
20
16
10
13
94
61
17
108
82
53
62
12
64
42
33
37
116
59
107
86
43
39
122
69
38
97
26
57
100
91
93
32
14
120
115
114
63
40
56
68
113
95
5
65
117
4
119
111
76
60
83
112
106
70
105
21
54
30
19
78
87
6
34
103
44
66
47
11
18
35
79
88
46
101
99
8
48
23
41
52
58
55
72
96
90
36
98
45
74
50
75
121
25
67
110
102
71
15
29
109
9
28
92
31
7
77
49
80
81
118
27
2
104

> <PUBCHEM_MMFF94_PARTIAL_CHARGES>
32
1 -0.57
10 0.27
12 0.27
13 0.3
14 0.57
16 0.06
17 0.41
18 0.57
19 -0.14
2 -0.57
20 -0.15
21 -0.15
22 0.3
23 -0.15
24 -0.15
25 0.1
28 0.37
29 0.37
3 -0.81
4 -0.73
41 0.37
42 0.36
47 0.37
48 0.15
49 0.15
5 -0.9
51 0.15
52 0.15
6 -0.73
7 -0.84
8 0.33
9 0.27

> <PUBCHEM_EFFECTIVE_ROTOR_COUNT>
10.2

> <PUBCHEM_PHARMACOPHORE_FEATURES>
12
1 1 acceptor
1 2 acceptor
1 3 cation
1 4 donor
1 5 cation
1 5 donor
1 6 donor
1 7 cation
3 22 26 27 hydrophobe
5 3 8 9 11 12 rings
6 19 20 21 23 24 25 rings
6 3 4 8 10 13 14 rings

> <PUBCHEM_HEAVY_ATOM_COUNT>
29

> <PUBCHEM_ATOM_DEF_STEREO_COUNT>
3

> <PUBCHEM_ATOM_UDEF_STEREO_COUNT>
0

> <PUBCHEM_BOND_DEF_STEREO_COUNT>
0

> <PUBCHEM_BOND_UDEF_STEREO_COUNT>
0

> <PUBCHEM_ISOTOPIC_ATOM_COUNT>
0

> <PUBCHEM_COMPONENT_COUNT>
1

> <PUBCHEM_CACTVS_TAUTO_COUNT>
6

> <PUBCHEM_CONFORMER_ID>
02B425F400000001

> <PUBCHEM_MMFF94_ENERGY>
72.8073

> <PUBCHEM_FEATURE_SELFOVERLAP>
61.084

> <PUBCHEM_SHAPE_FINGERPRINT>
10554248 39 14835861603424661356
10675989 125 18053108315281437402
11059845 2 18333169475132571068
11135609 201 18340494362021238833
12107183 9 18260828190088620792
12717326 135 18267280115446464912
13673619 4 12035451644605892172
14223995 32 18410010996828810484
14950920 106 15937273212408965269
15021287 119 17095522950163236948
15326921 28 18410852166109922193
15803439 3 17060048216963236487
16120349 189 18408885105849233829
16992779 147 17620780301150968761
17980427 26 18119519935198817799
19246450 95 18336256869629291194
19304671 126 17628928833168864413
21033648 29 18408893909993899357
21133410 221 17915162731963643217
21133410 32 15768910511542943853
21196832 93 9007054673959176424
21424621 283 18411415072992500565
21792964 463 17679600088765686964
21859007 373 18337393738724605636
22288116 15 9943536228121835824
23522609 53 17386867148162458588
2838139 119 18412544284682975925
376196 1 18268719324933551279
393628 179 18342443825411694329
397638 26 18408323259354474888
4073 2 18192433185748611530
4144715 1 18264777747730587250
437795 96 18128809931504860024
4938544 92 18338517555461156094
5104073 3 18334853966002229066
58260988 114 16299237984975670099
636775 8 8430316875064507968
6371380 46 18266471905912707318
6677587 24 17483939507605211789
9896288 288 18187936135071259451
9981440 41 18335713715307114459
999808 66 11386368140455829632

> <PUBCHEM_SHAPE_MULTIPOLES>
560.16
21.16
6.31
1.25
29.89
1
-0.09
-29.6
-4
-12.96
-0.03
-0.52
0.06
3.33

> <PUBCHEM_SHAPE_SELFOVERLAP>
1155.415

> <PUBCHEM_SHAPE_VOLUME>
322.8

> <PUBCHEM_COORDINATE_TYPE>
2
5
10

$$$$
