11911997
  -OEChem-12032416413D

 52 56  0     1  0  0  0  0  0999 V2000
    1.8928   -0.7940    1.0741 O   0  0  0  0  0  0  0  0  0  0  0  0
    0.1671    1.6977    0.6079 O   0  0  0  0  0  0  0  0  0  0  0  0
    3.6260    1.0517   -0.0643 O   0  0  0  0  0  0  0  0  0  0  0  0
   -1.0326   -1.7668    0.5463 N   0  0  0  0  0  0  0  0  0  0  0  0
   -3.1063   -0.7372    0.1643 N   0  0  0  0  0  0  0  0  0  0  0  0
   -2.7279   -3.0308   -0.4709 N   0  0  0  0  0  0  0  0  0  0  0  0
    0.0718    0.3570    0.0829 C   0  0  1  0  0  0  0  0  0  0  0  0
    1.4898   -0.1309   -0.1358 C   0  0  1  0  0  0  0  0  0  0  0  0
   -0.4736   -0.5761    1.1387 C   0  0  2  0  0  0  0  0  0  0  0  0
    2.2490    1.1569   -0.3476 C   0  0  1  0  0  0  0  0  0  0  0  0
    0.7653   -0.8954    1.9575 C   0  0  0  0  0  0  0  0  0  0  0  0
    1.5439    2.1024    0.5987 C   0  0  0  0  0  0  0  0  0  0  0  0
    4.2877    0.1598   -0.9579 C   0  0  0  0  0  0  0  0  0  0  0  0
   -2.3277   -1.8473    0.0653 C   0  0  0  0  0  0  0  0  0  0  0  0
    5.7433    0.0972   -0.5990 C   0  0  0  0  0  0  0  0  0  0  0  0
   -4.3627   -0.8510   -0.3139 C   0  0  0  0  0  0  0  0  0  0  0  0
    6.6357    0.9881   -1.1849 C   0  0  0  0  0  0  0  0  0  0  0  0
    6.1865   -0.8507    0.3166 C   0  0  0  0  0  0  0  0  0  0  0  0
   -3.9960   -3.0742   -0.9297 C   0  0  0  0  0  0  0  0  0  0  0  0
   -4.8671   -2.0053   -0.8773 C   0  0  0  0  0  0  0  0  0  0  0  0
   -5.1718    0.3387   -0.2002 C   0  0  0  0  0  0  0  0  0  0  0  0
    7.9888    0.9301   -0.8511 C   0  0  0  0  0  0  0  0  0  0  0  0
    7.5397   -0.9084    0.6505 C   0  0  0  0  0  0  0  0  0  0  0  0
    8.4408   -0.0180    0.0665 C   0  0  0  0  0  0  0  0  0  0  0  0
   -6.5566    0.2330   -0.0507 C   0  0  0  0  0  0  0  0  0  0  0  0
   -4.5733    1.6001   -0.2386 C   0  0  0  0  0  0  0  0  0  0  0  0
   -7.3387    1.3826    0.0597 C   0  0  0  0  0  0  0  0  0  0  0  0
   -5.3556    2.7498   -0.1282 C   0  0  0  0  0  0  0  0  0  0  0  0
   -6.7383    2.6410    0.0210 C   0  0  0  0  0  0  0  0  0  0  0  0
   -0.5135    0.4060   -0.8406 H   0  0  0  0  0  0  0  0  0  0  0  0
    1.5766   -0.8474   -0.9579 H   0  0  0  0  0  0  0  0  0  0  0  0
   -1.2094   -0.0982    1.7964 H   0  0  0  0  0  0  0  0  0  0  0  0
    2.0988    1.5145   -1.3753 H   0  0  0  0  0  0  0  0  0  0  0  0
    0.9113   -0.1565    2.7533 H   0  0  0  0  0  0  0  0  0  0  0  0
    0.7512   -1.8907    2.4123 H   0  0  0  0  0  0  0  0  0  0  0  0
    1.9380    2.0410    1.6193 H   0  0  0  0  0  0  0  0  0  0  0  0
    1.6177    3.1452    0.2759 H   0  0  0  0  0  0  0  0  0  0  0  0
   -0.4452   -2.5835    0.4214 H   0  0  0  0  0  0  0  0  0  0  0  0
    4.1678    0.5094   -1.9911 H   0  0  0  0  0  0  0  0  0  0  0  0
    3.8633   -0.8488   -0.9004 H   0  0  0  0  0  0  0  0  0  0  0  0
    6.2941    1.7322   -1.8992 H   0  0  0  0  0  0  0  0  0  0  0  0
    5.4929   -1.5473    0.7794 H   0  0  0  0  0  0  0  0  0  0  0  0
   -4.3004   -4.0221   -1.3604 H   0  0  0  0  0  0  0  0  0  0  0  0
   -5.8646   -2.1024   -1.2860 H   0  0  0  0  0  0  0  0  0  0  0  0
    8.6904    1.6237   -1.3052 H   0  0  0  0  0  0  0  0  0  0  0  0
    7.8916   -1.6462    1.3656 H   0  0  0  0  0  0  0  0  0  0  0  0
    9.4943   -0.0628    0.3268 H   0  0  0  0  0  0  0  0  0  0  0  0
   -7.0631   -0.7266    0.0101 H   0  0  0  0  0  0  0  0  0  0  0  0
   -3.4998    1.7209   -0.3641 H   0  0  0  0  0  0  0  0  0  0  0  0
   -8.4147    1.2986    0.1816 H   0  0  0  0  0  0  0  0  0  0  0  0
   -4.8887    3.7299   -0.1604 H   0  0  0  0  0  0  0  0  0  0  0  0
   -7.3472    3.5361    0.1079 H   0  0  0  0  0  0  0  0  0  0  0  0
  1  8  1  0  0  0  0
  1 11  1  0  0  0  0
  2  7  1  0  0  0  0
  2 12  1  0  0  0  0
  3 10  1  0  0  0  0
  3 13  1  0  0  0  0
  4  9  1  0  0  0  0
  4 14  1  0  0  0  0
  4 38  1  0  0  0  0
  5 14  1  0  0  0  0
  5 16  2  0  0  0  0
  6 14  2  0  0  0  0
  6 19  1  0  0  0  0
  7  8  1  0  0  0  0
  7  9  1  0  0  0  0
  7 30  1  0  0  0  0
  8 10  1  0  0  0  0
  8 31  1  0  0  0  0
  9 11  1  0  0  0  0
  9 32  1  0  0  0  0
 10 12  1  0  0  0  0
 10 33  1  0  0  0  0
 11 34  1  0  0  0  0
 11 35  1  0  0  0  0
 12 36  1  0  0  0  0
 12 37  1  0  0  0  0
 13 15  1  0  0  0  0
 13 39  1  0  0  0  0
 13 40  1  0  0  0  0
 15 17  2  0  0  0  0
 15 18  1  0  0  0  0
 16 20  1  0  0  0  0
 16 21  1  0  0  0  0
 17 22  1  0  0  0  0
 17 41  1  0  0  0  0
 18 23  2  0  0  0  0
 18 42  1  0  0  0  0
 19 20  2  0  0  0  0
 19 43  1  0  0  0  0
 20 44  1  0  0  0  0
 21 25  2  0  0  0  0
 21 26  1  0  0  0  0
 22 24  2  0  0  0  0
 22 45  1  0  0  0  0
 23 24  1  0  0  0  0
 23 46  1  0  0  0  0
 24 47  1  0  0  0  0
 25 27  1  0  0  0  0
 25 48  1  0  0  0  0
 26 28  2  0  0  0  0
 26 49  1  0  0  0  0
 27 29  2  0  0  0  0
 27 50  1  0  0  0  0
 28 29  1  0  0  0  0
 28 51  1  0  0  0  0
 29 52  1  0  0  0  0
M  END
> <PUBCHEM_COMPOUND_CID>
11911997

> <PUBCHEM_CONFORMER_RMSD>
0.8

> <PUBCHEM_CONFORMER_DIVERSEORDER>
1
48
53
81
123
24
110
155
161
174
142
27
114
176
126
168
108
7
137
121
148
67
167
129
111
45
124
59
52
58
141
57
125
150
159
130
177
71
134
10
43
90
63
164
172
17
122
21
143
28
12
104
84
146
99
162
86
128
152
78
173
30
76
136
117
29
51
87
64
75
50
166
116
19
20
106
66
154
47
115
96
82
70
127
100
77
37
156
33
69
178
88
44
73
39
107
98
135
38
138
139
40
112
163
22
131
103
160
118
5
120
89
2
3
61
157
170
145
26
97
171
91
175
14
74
109
144
16
94
54
83
119
11
6
113
25
153
101
36
92
147
165
9
80
35
151
46
8
72
95
85
13
65
132
34
32
169
42
31
133
41
140
49
18
158
15
56
79
4
60
23
102
62
93
105
149
68
55

> <PUBCHEM_MMFF94_PARTIAL_CHARGES>
41
1 -0.56
10 0.28
11 0.28
12 0.28
13 0.42
14 0.72
15 -0.14
16 0.31
17 -0.15
18 -0.15
19 0.16
2 -0.56
20 -0.15
22 -0.15
23 -0.15
24 -0.15
25 -0.15
26 -0.15
27 -0.15
28 -0.15
29 -0.15
3 -0.56
38 0.4
4 -0.87
41 0.15
42 0.15
43 0.15
44 0.15
45 0.15
46 0.15
47 0.15
48 0.15
49 0.15
5 -0.62
50 0.15
51 0.15
52 0.15
6 -0.62
7 0.28
8 0.28
9 0.37

> <PUBCHEM_EFFECTIVE_ROTOR_COUNT>
7.2

> <PUBCHEM_PHARMACOPHORE_FEATURES>
11
1 1 acceptor
1 2 acceptor
1 3 acceptor
1 4 donor
1 5 acceptor
4 4 5 6 14 cation
5 1 7 8 9 11 rings
5 2 7 8 10 12 rings
6 15 17 18 22 23 24 rings
6 21 25 26 27 28 29 rings
6 5 6 14 16 19 20 rings

> <PUBCHEM_HEAVY_ATOM_COUNT>
29

> <PUBCHEM_ATOM_DEF_STEREO_COUNT>
4

> <PUBCHEM_ATOM_UDEF_STEREO_COUNT>
0

> <PUBCHEM_BOND_DEF_STEREO_COUNT>
0

> <PUBCHEM_BOND_UDEF_STEREO_COUNT>
0

> <PUBCHEM_ISOTOPIC_ATOM_COUNT>
0

> <PUBCHEM_COMPONENT_COUNT>
1

> <PUBCHEM_CACTVS_TAUTO_COUNT>
3

> <PUBCHEM_CONFORMER_ID>
00B5C33D00000001

> <PUBCHEM_MMFF94_ENERGY>
96.4505

> <PUBCHEM_FEATURE_SELFOVERLAP>
56.544

> <PUBCHEM_SHAPE_FINGERPRINT>
10 15 12107792921413101054
10050765 1 18196652015299674496
10299344 5 18186801379120179948
10613725 11 18187083979446991294
10670039 82 18410568497122243941
10674148 151 18187081755149817536
10730089 173 18410012126847983089
10906281 52 18113056021923171762
11103572 95 18271518699219060338
11135609 99 11023523823402245985
11135926 11 18260819372162676902
11200772 48 18410018749112787555
11273773 118 17313376799804088029
11315181 36 17346604100940080491
11475781 23 18200603505681666820
11719270 70 17989208132077697790
12082328 90 18261394476736402035
12120059 9 16988838363834430462
12144603 126 18187366533188285684
12758862 11 17988640809135016432
13761468 95 18115296783887054357
13914758 101 18407762530426178822
13947920 75 18272091569554542017
14251752 14 18409449189415245972
14257110 125 18407759223554594597
14294032 229 18042685005676568628
15021287 119 17603311461517653477
15119646 104 18186796960132147690
15183329 4 18410854373728445166
15276724 80 17822284635612445348
15297060 5 18202005392034846025
15419008 91 17846202389714828752
15444296 9 18114461159329055198
15890870 6 18338795616756985797
16087824 20 18338517418487459113
16628084 112 17751069216242830410
16992727 255 18408889503315852877
195137 175 18335711559254624132
19611394 137 17823434858673375169
21298829 104 18333733516260912286
21304303 282 17130167324888623545
21756936 100 18040157327533741443
21781051 124 11602817974690085880
21781055 127 17702946903941564379
23559900 14 17917425462304584929
249057 3 18343865528416137269
3009799 131 17989489619495684848
335352 9 18412823595170275093
3610482 184 18042140888863557453
38570 142 18040157301378744291
392239 28 8286197288345970743
4073 2 18114748252038364962
437795 51 14273732915968376296
444769 64 18334862709742883714
44555599 121 18260276269638382500
44575985 287 17169568513582229812
4461854 278 10953754257259300769
4516262 110 17894904110452635567
4625314 4 18201159945287404796
5085150 59 18060698386204688606
531348 171 18341895242270999607
559249 180 18342738545982500263
5969126 39 14548742772248544163
59755656 520 17095526210185878411
6009941 240 18202003235122454270
6126387 218 18412258450973751952
6328613 192 18334575724296738633
6523845 18 15502374560368988801
9689198 14 14418130725544926278
99344 41 18411135823632165134

> <PUBCHEM_SHAPE_MULTIPOLES>
564.26
24.11
2.8
1.07
25.68
0.61
-0.21
-7.63
4.66
-5.97
0.39
0.74
0.25
-1.57

> <PUBCHEM_SHAPE_SELFOVERLAP>
1240.762

> <PUBCHEM_SHAPE_VOLUME>
303.7

> <PUBCHEM_COORDINATE_TYPE>
2
5
10

$$$$
