25312749
  -OEChem-12032416403D

 75 79  0     1  0  0  0  0  0999 V2000
    4.1109    0.7422    2.9717 O   0  0  0  0  0  0  0  0  0  0  0  0
   -4.6017   -2.5361    0.1407 O   0  0  0  0  0  0  0  0  0  0  0  0
    3.3269   -3.6354   -1.6584 O   0  0  0  0  0  0  0  0  0  0  0  0
    2.1781   -4.4868    0.1125 O   0  0  0  0  0  0  0  0  0  0  0  0
    0.7333    1.7097   -0.6135 N   0  0  2  0  0  0  0  0  0  0  0  0
    3.5779    1.4682    0.8102 N   0  0  0  0  0  0  0  0  0  0  0  0
   -2.4581   -1.9447    0.7979 N   0  0  0  0  0  0  0  0  0  0  0  0
   -4.1862   -0.3384    0.6466 N   0  0  0  0  0  0  0  0  0  0  0  0
    2.1557    3.5445    0.3332 C   0  0  1  0  0  0  0  0  0  0  0  0
    3.0057    2.2003   -1.5299 C   0  0  2  0  0  0  0  0  0  0  0  0
    2.9589    3.6153   -0.9591 C   0  0  0  0  0  0  0  0  0  0  0  0
    0.7323    3.0229    0.0430 C   0  0  0  0  0  0  0  0  0  0  0  0
   -0.2613   -0.9347    0.2510 C   0  0  1  0  0  0  0  0  0  0  0  0
    1.5681    1.7144   -1.8243 C   0  0  0  0  0  0  0  0  0  0  0  0
    0.3074   -2.3648    0.0537 C   0  0  1  0  0  0  0  0  0  0  0  0
    2.9116    2.6658    1.3392 C   0  0  0  0  0  0  0  0  0  0  0  0
   -0.6278    1.2752   -0.9183 C   0  0  0  0  0  0  0  0  0  0  0  0
   -0.6814   -0.2445   -1.0520 C   0  0  0  0  0  0  0  0  0  0  0  0
    3.6993    1.2545   -0.5672 C   0  0  0  0  0  0  0  0  0  0  0  0
   -1.4399   -0.9803    1.2388 C   0  0  0  0  0  0  0  0  0  0  0  0
   -0.7958   -3.3725   -0.3173 C   0  0  0  0  0  0  0  0  0  0  0  0
   -1.9608   -3.3152    0.6697 C   0  0  0  0  0  0  0  0  0  0  0  0
    1.4513   -2.4213   -0.9584 C   0  0  0  0  0  0  0  0  0  0  0  0
    4.4077    0.2096   -1.0288 C   0  0  0  0  0  0  0  0  0  0  0  0
    4.1679    0.6027    1.7499 C   0  0  0  0  0  0  0  0  0  0  0  0
   -3.8033   -1.6668    0.5063 C   0  0  0  0  0  0  0  0  0  0  0  0
   -5.5351    0.1062    0.3750 C   0  0  0  0  0  0  0  0  0  0  0  0
    5.0313   -0.7130   -0.1227 C   0  0  0  0  0  0  0  0  0  0  0  0
    4.9249   -0.5564    1.1992 C   0  0  0  0  0  0  0  0  0  0  0  0
    2.3233   -3.6275   -0.7438 C   0  0  0  0  0  0  0  0  0  0  0  0
   -5.9231    1.2767    1.2848 C   0  0  0  0  0  0  0  0  0  0  0  0
   -5.7079    0.4708   -1.1034 C   0  0  0  0  0  0  0  0  0  0  0  0
   -5.2030    2.5721    0.9102 C   0  0  0  0  0  0  0  0  0  0  0  0
   -4.9882    1.7675   -1.4740 C   0  0  0  0  0  0  0  0  0  0  0  0
   -5.3989    2.9198   -0.5623 C   0  0  0  0  0  0  0  0  0  0  0  0
    2.0581    4.5506    0.7598 H   0  0  0  0  0  0  0  0  0  0  0  0
    3.5594    2.2336   -2.4775 H   0  0  0  0  0  0  0  0  0  0  0  0
    3.9698    3.9977   -0.7703 H   0  0  0  0  0  0  0  0  0  0  0  0
    2.4825    4.3011   -1.6704 H   0  0  0  0  0  0  0  0  0  0  0  0
    0.1854    2.9588    0.9921 H   0  0  0  0  0  0  0  0  0  0  0  0
    0.2063    3.7581   -0.5813 H   0  0  0  0  0  0  0  0  0  0  0  0
    0.5400   -0.3613    0.7336 H   0  0  0  0  0  0  0  0  0  0  0  0
    1.1266    2.3645   -2.5922 H   0  0  0  0  0  0  0  0  0  0  0  0
    1.6306    0.7101   -2.2577 H   0  0  0  0  0  0  0  0  0  0  0  0
    0.6999   -2.6696    1.0354 H   0  0  0  0  0  0  0  0  0  0  0  0
    3.7078    3.2672    1.7991 H   0  0  0  0  0  0  0  0  0  0  0  0
    2.2509    2.3629    2.1612 H   0  0  0  0  0  0  0  0  0  0  0  0
   -1.6999   -0.5341   -1.3369 H   0  0  0  0  0  0  0  0  0  0  0  0
   -0.0584   -0.5535   -1.8946 H   0  0  0  0  0  0  0  0  0  0  0  0
   -1.3159    1.5748   -0.1184 H   0  0  0  0  0  0  0  0  0  0  0  0
   -1.0072    1.7496   -1.8325 H   0  0  0  0  0  0  0  0  0  0  0  0
   -1.0821   -1.3354    2.2144 H   0  0  0  0  0  0  0  0  0  0  0  0
   -1.8357    0.0164    1.4246 H   0  0  0  0  0  0  0  0  0  0  0  0
   -0.4025   -4.3944   -0.3427 H   0  0  0  0  0  0  0  0  0  0  0  0
   -1.1715   -3.1514   -1.3247 H   0  0  0  0  0  0  0  0  0  0  0  0
   -2.7539   -3.9941    0.3414 H   0  0  0  0  0  0  0  0  0  0  0  0
   -1.6391   -3.6458    1.6643 H   0  0  0  0  0  0  0  0  0  0  0  0
    1.0719   -2.4554   -1.9854 H   0  0  0  0  0  0  0  0  0  0  0  0
    2.0869   -1.5393   -0.8411 H   0  0  0  0  0  0  0  0  0  0  0  0
    4.5105    0.0161   -2.0913 H   0  0  0  0  0  0  0  0  0  0  0  0
   -6.2094   -0.7297    0.5993 H   0  0  0  0  0  0  0  0  0  0  0  0
    5.5816   -1.5485   -0.5406 H   0  0  0  0  0  0  0  0  0  0  0  0
    5.3853   -1.2478    1.8949 H   0  0  0  0  0  0  0  0  0  0  0  0
   -3.4943    0.3827    0.7905 H   0  0  0  0  0  0  0  0  0  0  0  0
   -5.7089    1.0319    2.3321 H   0  0  0  0  0  0  0  0  0  0  0  0
   -7.0056    1.4418    1.2115 H   0  0  0  0  0  0  0  0  0  0  0  0
   -6.7778    0.5897   -1.3174 H   0  0  0  0  0  0  0  0  0  0  0  0
   -5.3456   -0.3405   -1.7460 H   0  0  0  0  0  0  0  0  0  0  0  0
   -4.1320    2.4846    1.1276 H   0  0  0  0  0  0  0  0  0  0  0  0
   -5.5819    3.3917    1.5317 H   0  0  0  0  0  0  0  0  0  0  0  0
   -5.2122    2.0259   -2.5152 H   0  0  0  0  0  0  0  0  0  0  0  0
   -3.9034    1.6196   -1.4115 H   0  0  0  0  0  0  0  0  0  0  0  0
   -6.4526    3.1672   -0.7409 H   0  0  0  0  0  0  0  0  0  0  0  0
   -4.8151    3.8131   -0.8112 H   0  0  0  0  0  0  0  0  0  0  0  0
    3.9181   -4.4100   -1.5460 H   0  0  0  0  0  0  0  0  0  0  0  0
  1 25  2  0  0  0  0
  2 26  2  0  0  0  0
  3 30  1  0  0  0  0
  3 75  1  0  0  0  0
  4 30  2  0  0  0  0
  5 12  1  0  0  0  0
  5 14  1  0  0  0  0
  5 17  1  0  0  0  0
  6 16  1  0  0  0  0
  6 19  1  0  0  0  0
  6 25  1  0  0  0  0
  7 20  1  0  0  0  0
  7 22  1  0  0  0  0
  7 26  1  0  0  0  0
  8 26  1  0  0  0  0
  8 27  1  0  0  0  0
  8 64  1  0  0  0  0
  9 11  1  0  0  0  0
  9 12  1  0  0  0  0
  9 16  1  0  0  0  0
  9 36  1  0  0  0  0
 10 11  1  0  0  0  0
 10 14  1  0  0  0  0
 10 19  1  0  0  0  0
 10 37  1  0  0  0  0
 11 38  1  0  0  0  0
 11 39  1  0  0  0  0
 12 40  1  0  0  0  0
 12 41  1  0  0  0  0
 13 15  1  0  0  0  0
 13 18  1  0  0  0  0
 13 20  1  0  0  0  0
 13 42  1  0  0  0  0
 14 43  1  0  0  0  0
 14 44  1  0  0  0  0
 15 21  1  0  0  0  0
 15 23  1  0  0  0  0
 15 45  1  0  0  0  0
 16 46  1  0  0  0  0
 16 47  1  0  0  0  0
 17 18  1  0  0  0  0
 17 50  1  0  0  0  0
 17 51  1  0  0  0  0
 18 48  1  0  0  0  0
 18 49  1  0  0  0  0
 19 24  2  0  0  0  0
 20 52  1  0  0  0  0
 20 53  1  0  0  0  0
 21 22  1  0  0  0  0
 21 54  1  0  0  0  0
 21 55  1  0  0  0  0
 22 56  1  0  0  0  0
 22 57  1  0  0  0  0
 23 30  1  0  0  0  0
 23 58  1  0  0  0  0
 23 59  1  0  0  0  0
 24 28  1  0  0  0  0
 24 60  1  0  0  0  0
 25 29  1  0  0  0  0
 27 31  1  0  0  0  0
 27 32  1  0  0  0  0
 27 61  1  0  0  0  0
 28 29  2  0  0  0  0
 28 62  1  0  0  0  0
 29 63  1  0  0  0  0
 31 33  1  0  0  0  0
 31 65  1  0  0  0  0
 31 66  1  0  0  0  0
 32 34  1  0  0  0  0
 32 67  1  0  0  0  0
 32 68  1  0  0  0  0
 33 35  1  0  0  0  0
 33 69  1  0  0  0  0
 33 70  1  0  0  0  0
 34 35  1  0  0  0  0
 34 71  1  0  0  0  0
 34 72  1  0  0  0  0
 35 73  1  0  0  0  0
 35 74  1  0  0  0  0
M  END
> <PUBCHEM_COMPOUND_CID>
25312749

> <PUBCHEM_CONFORMER_RMSD>
1.2

> <PUBCHEM_CONFORMER_DIVERSEORDER>
2
72
55
84
37
26
51
71
75
64
57
63
79
67
35
23
14
85
61
80
13
7
54
68
6
52
44
42
47
82
15
43
39
70
32
81
4
53
59
65
78
19
8
40
66
45
36
29
58
46
5
73
77
49
74
34
9
48
62
12
50
38
33
28
22
41
56
11
30
3
25
31
69
10
16
76
60
21
24
17
27
18
20
83
1

> <PUBCHEM_MMFF94_PARTIAL_CHARGES>
29
1 -0.57
10 0.14
12 0.27
14 0.27
16 0.3
17 0.27
19 -0.03
2 -0.57
20 0.3
22 0.3
23 0.06
24 -0.15
25 0.62
26 0.69
27 0.3
28 -0.15
29 -0.14
3 -0.65
30 0.66
4 -0.57
5 -0.81
6 -0.47
60 0.15
62 0.15
63 0.15
64 0.37
7 -0.66
75 0.5
8 -0.73

> <PUBCHEM_EFFECTIVE_ROTOR_COUNT>
11.4

> <PUBCHEM_PHARMACOPHORE_FEATURES>
12
1 1 acceptor
1 2 acceptor
1 3 acceptor
1 4 acceptor
1 5 cation
1 8 donor
3 3 4 30 anion
6 27 31 32 33 34 35 rings
6 5 9 10 11 12 14 rings
6 6 19 24 25 28 29 rings
6 6 9 10 11 16 19 rings
6 7 13 15 20 21 22 rings

> <PUBCHEM_HEAVY_ATOM_COUNT>
35

> <PUBCHEM_ATOM_DEF_STEREO_COUNT>
4

> <PUBCHEM_ATOM_UDEF_STEREO_COUNT>
0

> <PUBCHEM_BOND_DEF_STEREO_COUNT>
0

> <PUBCHEM_BOND_UDEF_STEREO_COUNT>
0

> <PUBCHEM_ISOTOPIC_ATOM_COUNT>
0

> <PUBCHEM_COMPONENT_COUNT>
1

> <PUBCHEM_CACTVS_TAUTO_COUNT>
6

> <PUBCHEM_CONFORMER_ID>
01823DED00000002

> <PUBCHEM_MMFF94_ENERGY>
62.444

> <PUBCHEM_FEATURE_SELFOVERLAP>
62.507

> <PUBCHEM_SHAPE_FINGERPRINT>
10439779 11 18411417276569108217
10864689 126 17471009177610322045
12107183 9 18334009484424853305
12422481 6 18113609067407155621
12857493 111 17259909516067160839
13692114 37 18339347669951025111
14178342 30 17114660173725913748
14466204 15 18411135874591381033
14790565 3 18192441976644391740
17818456 19 18334859475938815269
21033648 29 18058429050545098314
23559900 14 18341059527160094942
3117164 225 18261667159909374089
3298306 158 18412546539377353839
3493558 16 17986956241409764347
4093350 32 17560242393431146149
4144715 1 18187656846111420594
460360 51 18116419534981234733
508706 21 18334299807551262039
513532 50 17917717859757825174
5265222 85 17974030602126720764
550186 83 17603583006777758764
6371009 1 18265883830526437959
79837 15 18117846723003008099

> <PUBCHEM_SHAPE_MULTIPOLES>
676.88
13.04
5.5
1.7
14.55
2.82
0.44
-5.66
2.07
-1.89
-0.91
-1.3
-0.56
1.09

> <PUBCHEM_SHAPE_SELFOVERLAP>
1425.256

> <PUBCHEM_SHAPE_VOLUME>
369.9

> <PUBCHEM_COORDINATE_TYPE>
2
5
10

$$$$
