11912763
  -OEChem-12032416113D

 57 58  0     1  0  0  0  0  0999 V2000
    3.0043    1.9257    0.4557 S   0  0  0  0  0  0  0  0  0  0  0  0
    3.3468    2.3397    1.7990 O   0  0  0  0  0  0  0  0  0  0  0  0
    3.4530    2.6790   -0.6953 O   0  0  0  0  0  0  0  0  0  0  0  0
   -3.0436   -1.2510    1.1065 O   0  0  0  0  0  0  0  0  0  0  0  0
    4.7860   -3.6745   -0.2237 O   0  0  0  0  0  0  0  0  0  0  0  0
   -7.1082   -1.2868   -0.7694 O   0  0  0  0  0  0  0  0  0  0  0  0
    1.3066    1.7137    0.3527 N   0  0  1  0  0  0  0  0  0  0  0  0
   -5.0076   -0.0594    0.7542 N   0  0  0  0  0  0  0  0  0  0  0  0
   -0.7399    1.6302   -1.0549 C   0  0  2  0  0  0  0  0  0  0  0  0
   -1.4212    0.7563    0.0261 C   0  0  1  0  0  0  0  0  0  0  0  0
   -0.8020    0.9939    1.4118 C   0  0  0  0  0  0  0  0  0  0  0  0
    0.7823    1.4198   -1.0145 C   0  0  0  0  0  0  0  0  0  0  0  0
    0.7127    0.8163    1.3843 C   0  0  0  0  0  0  0  0  0  0  0  0
   -1.0799    3.1231   -0.9583 C   0  0  0  0  0  0  0  0  0  0  0  0
   -2.9384    0.9350    0.0756 C   0  0  0  0  0  0  0  0  0  0  0  0
   -0.4681    3.8978   -2.1062 C   0  0  0  0  0  0  0  0  0  0  0  0
   -3.6349   -0.2531    0.7032 C   0  0  0  0  0  0  0  0  0  0  0  0
    3.5350    0.2544    0.2532 C   0  0  0  0  0  0  0  0  0  0  0  0
    3.7970   -0.2440   -1.0230 C   0  0  0  0  0  0  0  0  0  0  0  0
    3.6937   -0.5673    1.3691 C   0  0  0  0  0  0  0  0  0  0  0  0
   -5.9229   -1.0345    1.3017 C   0  0  0  0  0  0  0  0  0  0  0  0
    4.2177   -1.5641   -1.1833 C   0  0  0  0  0  0  0  0  0  0  0  0
    4.1144   -1.8874    1.2088 C   0  0  0  0  0  0  0  0  0  0  0  0
    4.3765   -2.3859   -0.0674 C   0  0  0  0  0  0  0  0  0  0  0  0
   -6.4070   -2.0035    0.2385 C   0  0  0  0  0  0  0  0  0  0  0  0
    5.0352   -4.1194   -1.5562 C   0  0  0  0  0  0  0  0  0  0  0  0
   -7.5874   -2.1540   -1.7881 C   0  0  0  0  0  0  0  0  0  0  0  0
   -1.0946    1.2735   -2.0323 H   0  0  0  0  0  0  0  0  0  0  0  0
   -1.2051   -0.2862   -0.2505 H   0  0  0  0  0  0  0  0  0  0  0  0
   -1.0412    2.0063    1.7608 H   0  0  0  0  0  0  0  0  0  0  0  0
   -1.2230    0.3027    2.1503 H   0  0  0  0  0  0  0  0  0  0  0  0
    1.2885    2.0198   -1.7730 H   0  0  0  0  0  0  0  0  0  0  0  0
    0.9915    0.3708   -1.2582 H   0  0  0  0  0  0  0  0  0  0  0  0
    1.1091    1.0624    2.3746 H   0  0  0  0  0  0  0  0  0  0  0  0
    0.9414   -0.2311    1.1623 H   0  0  0  0  0  0  0  0  0  0  0  0
   -0.7478    3.5557   -0.0084 H   0  0  0  0  0  0  0  0  0  0  0  0
   -2.1660    3.2591   -1.0050 H   0  0  0  0  0  0  0  0  0  0  0  0
   -3.3345    1.0315   -0.9434 H   0  0  0  0  0  0  0  0  0  0  0  0
   -3.2141    1.8396    0.6305 H   0  0  0  0  0  0  0  0  0  0  0  0
    0.6109    4.0310   -1.9866 H   0  0  0  0  0  0  0  0  0  0  0  0
   -0.9026    4.9029   -2.1445 H   0  0  0  0  0  0  0  0  0  0  0  0
   -0.6619    3.4182   -3.0709 H   0  0  0  0  0  0  0  0  0  0  0  0
   -5.4016    0.8000    0.3822 H   0  0  0  0  0  0  0  0  0  0  0  0
    3.6767    0.3778   -1.9057 H   0  0  0  0  0  0  0  0  0  0  0  0
    3.4946   -0.2015    2.3723 H   0  0  0  0  0  0  0  0  0  0  0  0
   -5.4291   -1.5778    2.1138 H   0  0  0  0  0  0  0  0  0  0  0  0
   -6.7655   -0.4710    1.7156 H   0  0  0  0  0  0  0  0  0  0  0  0
    4.4026   -1.8868   -2.2022 H   0  0  0  0  0  0  0  0  0  0  0  0
    4.2355   -2.5231    2.0816 H   0  0  0  0  0  0  0  0  0  0  0  0
   -7.0771   -2.7407    0.6955 H   0  0  0  0  0  0  0  0  0  0  0  0
   -5.5573   -2.5301   -0.2121 H   0  0  0  0  0  0  0  0  0  0  0  0
    4.1248   -4.0968   -2.1649 H   0  0  0  0  0  0  0  0  0  0  0  0
    5.8578   -3.5636   -2.0189 H   0  0  0  0  0  0  0  0  0  0  0  0
    5.3518   -5.1657   -1.4937 H   0  0  0  0  0  0  0  0  0  0  0  0
   -6.7541   -2.6639   -2.2811 H   0  0  0  0  0  0  0  0  0  0  0  0
   -8.2851   -2.8869   -1.3715 H   0  0  0  0  0  0  0  0  0  0  0  0
   -8.1168   -1.5521   -2.5316 H   0  0  0  0  0  0  0  0  0  0  0  0
  1  2  2  0  0  0  0
  1  3  2  0  0  0  0
  1  7  1  0  0  0  0
  1 18  1  0  0  0  0
  4 17  2  0  0  0  0
  5 24  1  0  0  0  0
  5 26  1  0  0  0  0
  6 25  1  0  0  0  0
  6 27  1  0  0  0  0
  7 12  1  0  0  0  0
  7 13  1  0  0  0  0
  8 17  1  0  0  0  0
  8 21  1  0  0  0  0
  8 43  1  0  0  0  0
  9 10  1  0  0  0  0
  9 12  1  0  0  0  0
  9 14  1  0  0  0  0
  9 28  1  0  0  0  0
 10 11  1  0  0  0  0
 10 15  1  0  0  0  0
 10 29  1  0  0  0  0
 11 13  1  0  0  0  0
 11 30  1  0  0  0  0
 11 31  1  0  0  0  0
 12 32  1  0  0  0  0
 12 33  1  0  0  0  0
 13 34  1  0  0  0  0
 13 35  1  0  0  0  0
 14 16  1  0  0  0  0
 14 36  1  0  0  0  0
 14 37  1  0  0  0  0
 15 17  1  0  0  0  0
 15 38  1  0  0  0  0
 15 39  1  0  0  0  0
 16 40  1  0  0  0  0
 16 41  1  0  0  0  0
 16 42  1  0  0  0  0
 18 19  2  0  0  0  0
 18 20  1  0  0  0  0
 19 22  1  0  0  0  0
 19 44  1  0  0  0  0
 20 23  2  0  0  0  0
 20 45  1  0  0  0  0
 21 25  1  0  0  0  0
 21 46  1  0  0  0  0
 21 47  1  0  0  0  0
 22 24  2  0  0  0  0
 22 48  1  0  0  0  0
 23 24  1  0  0  0  0
 23 49  1  0  0  0  0
 25 50  1  0  0  0  0
 25 51  1  0  0  0  0
 26 52  1  0  0  0  0
 26 53  1  0  0  0  0
 26 54  1  0  0  0  0
 27 55  1  0  0  0  0
 27 56  1  0  0  0  0
 27 57  1  0  0  0  0
M  END
> <PUBCHEM_COMPOUND_CID>
11912763

> <PUBCHEM_CONFORMER_RMSD>
1

> <PUBCHEM_CONFORMER_DIVERSEORDER>
1
38
11
45
86
98
71
66
48
26
100
56
55
97
93
67
61
58
76
18
74
102
30
63
10
78
92
21
94
89
41
101
64
69
65
72
13
60
32
50
31
49
75
33
77
27
52
15
57
19
47
23
84
29
9
51
85
53
46
20
79
81
5
25
82
43
83
34
12
91
7
90
59
42
88
87
17
80
22
37
24
14
28
68
40
73
8
16
35
3
44
70
54
2
39
4
95
36
99
62
6
96

> <PUBCHEM_MMFF94_PARTIAL_CHARGES>
27
1 1.45
12 0.36
13 0.36
15 0.06
17 0.57
18 -0.01
19 -0.15
2 -0.65
20 -0.15
21 0.3
22 -0.15
23 -0.15
24 0.08
25 0.28
26 0.28
27 0.28
3 -0.65
4 -0.57
43 0.37
44 0.15
45 0.15
48 0.15
49 0.15
5 -0.36
6 -0.56
7 -0.85
8 -0.73

> <PUBCHEM_EFFECTIVE_ROTOR_COUNT>
11.2

> <PUBCHEM_PHARMACOPHORE_FEATURES>
9
1 16 hydrophobe
1 2 acceptor
1 3 acceptor
1 4 acceptor
1 5 acceptor
1 6 acceptor
1 8 donor
6 18 19 20 22 23 24 rings
6 7 9 10 11 12 13 rings

> <PUBCHEM_HEAVY_ATOM_COUNT>
27

> <PUBCHEM_ATOM_DEF_STEREO_COUNT>
2

> <PUBCHEM_ATOM_UDEF_STEREO_COUNT>
0

> <PUBCHEM_BOND_DEF_STEREO_COUNT>
0

> <PUBCHEM_BOND_UDEF_STEREO_COUNT>
0

> <PUBCHEM_ISOTOPIC_ATOM_COUNT>
0

> <PUBCHEM_COMPONENT_COUNT>
1

> <PUBCHEM_CACTVS_TAUTO_COUNT>
2

> <PUBCHEM_CONFORMER_ID>
00B5C63B00000001

> <PUBCHEM_MMFF94_ENERGY>
54.4072

> <PUBCHEM_FEATURE_SELFOVERLAP>
45.691

> <PUBCHEM_SHAPE_FINGERPRINT>
10498660 4 12036320237686419290
10571361 74 17916296311936766055
11796584 16 17758113705874897950
12422481 6 18059579057845247967
12623949 98 18343591728445576382
13533116 47 18343868844093590211
13690498 29 17971769782775789438
13782708 43 18273211998332133111
13835254 42 18411138056725554593
13911852 28 18412826867798093967
14211702 104 18193280913329675027
14251740 57 18411140237998299658
14251764 30 18341335496141472463
14251764 75 9150588224167547398
15183329 4 16153699939106959911
15475509 35 17846210085594525099
15475509 8 18113902633429253129
15664445 248 17896330284176409004
17492 89 18270965639772734592
17859628 70 18342741827906687512
1813 80 18259988197312043965
18222031 100 18187645838468371329
20775438 99 18263923400857244650
21307412 95 18049158861040641661
21641784 216 15719385114962199205
23559900 14 18261389988843802500
2838139 119 8646493981651053267
44062 13 18046628897902151940
4756326 101 15431184524984263870
484985 159 17548710573576376938
5372103 7 15287072660722055894
54076057 255 12829477161487987743
56616090 13 8574421007039598720
621550 34 18338509863407727720
70251023 43 18262248733162887288
7399639 24 18337379557001641328
8988823 20 18201717418076452961
9555976 147 16916519038889959531
9980921 52 17916281919379973127

> <PUBCHEM_SHAPE_MULTIPOLES>
520.19
15.93
4.52
1.78
28.24
0.55
-0.22
20.27
-2.67
-4.52
-2.69
0.11
-0.21
1.19

> <PUBCHEM_SHAPE_SELFOVERLAP>
1043.352

> <PUBCHEM_SHAPE_VOLUME>
307.1

> <PUBCHEM_COORDINATE_TYPE>
2
5
10

$$$$
