56775394
  -OEChem-12032416333D

 62 65  0     0  0  0  0  0  0999 V2000
   -1.8400    0.4556    1.9386 O   0  0  0  0  0  0  0  0  0  0  0  0
   -5.2666   -1.4932   -0.6125 O   0  0  0  0  0  0  0  0  0  0  0  0
    1.8004   -1.0508    2.1603 O   0  0  0  0  0  0  0  0  0  0  0  0
    1.6870    2.7159    0.5923 O   0  0  0  0  0  0  0  0  0  0  0  0
   -6.6188    1.3133    1.4485 O   0  0  0  0  0  0  0  0  0  0  0  0
    0.2745   -0.1015   -0.1708 N   0  0  0  0  0  0  0  0  0  0  0  0
   -3.9027   -1.7063   -0.7720 N   0  0  0  0  0  0  0  0  0  0  0  0
   -1.1910   -0.0453   -0.0323 C   0  0  0  0  0  0  0  0  0  0  0  0
   -1.5930   -0.7851    1.2386 C   0  0  0  0  0  0  0  0  0  0  0  0
   -1.5629    1.2155    0.7400 C   0  0  0  0  0  0  0  0  0  0  0  0
   -1.9102   -0.3516   -1.3101 C   0  0  0  0  0  0  0  0  0  0  0  0
    0.6784   -1.4811   -0.4393 C   0  0  0  0  0  0  0  0  0  0  0  0
    0.6870    0.7777   -1.2641 C   0  0  0  0  0  0  0  0  0  0  0  0
   -3.3973   -0.5052   -1.0671 C   0  0  0  0  0  0  0  0  0  0  0  0
    2.1314   -1.7123   -0.1199 C   0  0  0  0  0  0  0  0  0  0  0  0
    2.1424    1.1504   -1.1651 C   0  0  0  0  0  0  0  0  0  0  0  0
   -4.3851    0.4940   -1.1077 C   0  0  0  0  0  0  0  0  0  0  0  0
   -5.5415   -0.1793   -0.8150 C   0  0  0  0  0  0  0  0  0  0  0  0
    2.6234   -1.4860    1.1654 C   0  0  0  0  0  0  0  0  0  0  0  0
    2.5732    2.1023   -0.2411 C   0  0  0  0  0  0  0  0  0  0  0  0
    2.9884   -2.1572   -1.1264 C   0  0  0  0  0  0  0  0  0  0  0  0
    3.0635    0.5326   -2.0109 C   0  0  0  0  0  0  0  0  0  0  0  0
   -6.9468    0.2238   -0.6844 C   0  0  0  0  0  0  0  0  0  0  0  0
    3.9724   -1.7048    1.4444 C   0  0  0  0  0  0  0  0  0  0  0  0
    3.9252    2.4362   -0.1628 C   0  0  0  0  0  0  0  0  0  0  0  0
    4.3375   -2.3761   -0.8476 C   0  0  0  0  0  0  0  0  0  0  0  0
    4.4155    0.8665   -1.9327 C   0  0  0  0  0  0  0  0  0  0  0  0
    4.8296   -2.1499    0.4379 C   0  0  0  0  0  0  0  0  0  0  0  0
    4.8465    1.8184   -1.0087 C   0  0  0  0  0  0  0  0  0  0  0  0
   -7.4232    0.3532    0.7754 C   0  0  0  0  0  0  0  0  0  0  0  0
    2.3879   -0.8457    3.4436 C   0  0  0  0  0  0  0  0  0  0  0  0
    2.2148    3.6760    1.5053 C   0  0  0  0  0  0  0  0  0  0  0  0
   -2.4953   -1.3985    1.2396 H   0  0  0  0  0  0  0  0  0  0  0  0
   -0.8359   -1.3555    1.7857 H   0  0  0  0  0  0  0  0  0  0  0  0
   -0.7790    1.9540    0.9305 H   0  0  0  0  0  0  0  0  0  0  0  0
   -2.4528    1.7599    0.4137 H   0  0  0  0  0  0  0  0  0  0  0  0
   -1.5705   -1.2798   -1.7836 H   0  0  0  0  0  0  0  0  0  0  0  0
   -1.7862    0.4449   -2.0544 H   0  0  0  0  0  0  0  0  0  0  0  0
    0.4858   -1.7663   -1.4823 H   0  0  0  0  0  0  0  0  0  0  0  0
    0.1288   -2.2247    0.1500 H   0  0  0  0  0  0  0  0  0  0  0  0
    0.1267    1.7231   -1.2598 H   0  0  0  0  0  0  0  0  0  0  0  0
    0.4874    0.3439   -2.2541 H   0  0  0  0  0  0  0  0  0  0  0  0
   -4.2767    1.5472   -1.3209 H   0  0  0  0  0  0  0  0  0  0  0  0
    2.6168   -2.3723   -2.1252 H   0  0  0  0  0  0  0  0  0  0  0  0
    2.7342   -0.1471   -2.7920 H   0  0  0  0  0  0  0  0  0  0  0  0
   -7.5899   -0.4936   -1.2072 H   0  0  0  0  0  0  0  0  0  0  0  0
   -7.0807    1.1932   -1.1810 H   0  0  0  0  0  0  0  0  0  0  0  0
    4.4258   -1.5501    2.4173 H   0  0  0  0  0  0  0  0  0  0  0  0
    4.3331    3.1653    0.5285 H   0  0  0  0  0  0  0  0  0  0  0  0
    5.0033   -2.7296   -1.6294 H   0  0  0  0  0  0  0  0  0  0  0  0
    5.1301    0.4011   -2.6053 H   0  0  0  0  0  0  0  0  0  0  0  0
    5.8802   -2.3213    0.6539 H   0  0  0  0  0  0  0  0  0  0  0  0
    5.8990    2.0805   -0.9516 H   0  0  0  0  0  0  0  0  0  0  0  0
   -7.3344   -0.6037    1.3002 H   0  0  0  0  0  0  0  0  0  0  0  0
   -8.4662    0.6834    0.8046 H   0  0  0  0  0  0  0  0  0  0  0  0
    2.7735   -1.7799    3.8659 H   0  0  0  0  0  0  0  0  0  0  0  0
    3.1441   -0.0536    3.4189 H   0  0  0  0  0  0  0  0  0  0  0  0
    1.5903   -0.5014    4.1103 H   0  0  0  0  0  0  0  0  0  0  0  0
    2.9086    3.2166    2.2176 H   0  0  0  0  0  0  0  0  0  0  0  0
    2.6568    4.5309    0.9824 H   0  0  0  0  0  0  0  0  0  0  0  0
    1.3719    4.0619    2.0882 H   0  0  0  0  0  0  0  0  0  0  0  0
   -6.9476    1.3702    2.3618 H   0  0  0  0  0  0  0  0  0  0  0  0
  1  9  1  0  0  0  0
  1 10  1  0  0  0  0
  2  7  1  0  0  0  0
  2 18  1  0  0  0  0
  3 19  1  0  0  0  0
  3 31  1  0  0  0  0
  4 20  1  0  0  0  0
  4 32  1  0  0  0  0
  5 30  1  0  0  0  0
  5 62  1  0  0  0  0
  6  8  1  0  0  0  0
  6 12  1  0  0  0  0
  6 13  1  0  0  0  0
  7 14  2  0  0  0  0
  8  9  1  0  0  0  0
  8 10  1  0  0  0  0
  8 11  1  0  0  0  0
  9 33  1  0  0  0  0
  9 34  1  0  0  0  0
 10 35  1  0  0  0  0
 10 36  1  0  0  0  0
 11 14  1  0  0  0  0
 11 37  1  0  0  0  0
 11 38  1  0  0  0  0
 12 15  1  0  0  0  0
 12 39  1  0  0  0  0
 12 40  1  0  0  0  0
 13 16  1  0  0  0  0
 13 41  1  0  0  0  0
 13 42  1  0  0  0  0
 14 17  1  0  0  0  0
 15 19  1  0  0  0  0
 15 21  2  0  0  0  0
 16 20  1  0  0  0  0
 16 22  2  0  0  0  0
 17 18  2  0  0  0  0
 17 43  1  0  0  0  0
 18 23  1  0  0  0  0
 19 24  2  0  0  0  0
 20 25  2  0  0  0  0
 21 26  1  0  0  0  0
 21 44  1  0  0  0  0
 22 27  1  0  0  0  0
 22 45  1  0  0  0  0
 23 30  1  0  0  0  0
 23 46  1  0  0  0  0
 23 47  1  0  0  0  0
 24 28  1  0  0  0  0
 24 48  1  0  0  0  0
 25 29  1  0  0  0  0
 25 49  1  0  0  0  0
 26 28  2  0  0  0  0
 26 50  1  0  0  0  0
 27 29  2  0  0  0  0
 27 51  1  0  0  0  0
 28 52  1  0  0  0  0
 29 53  1  0  0  0  0
 30 54  1  0  0  0  0
 30 55  1  0  0  0  0
 31 56  1  0  0  0  0
 31 57  1  0  0  0  0
 31 58  1  0  0  0  0
 32 59  1  0  0  0  0
 32 60  1  0  0  0  0
 32 61  1  0  0  0  0
M  END
> <PUBCHEM_COMPOUND_CID>
56775394

> <PUBCHEM_CONFORMER_RMSD>
1.2

> <PUBCHEM_CONFORMER_DIVERSEORDER>
1
27
23
13
14
19
15
22
25
18
17
7
16
2
24
9
5
26
11
6
3
20
4
21
8
12
10

> <PUBCHEM_MMFF94_PARTIAL_CHARGES>
42
1 -0.52
10 0.26
11 0.18
12 0.41
13 0.41
14 0.11
15 -0.14
16 -0.14
17 -0.15
18 -0.04
19 0.08
2 -0.02
20 0.08
21 -0.15
22 -0.15
23 0.18
24 -0.15
25 -0.15
26 -0.15
27 -0.15
28 -0.15
29 -0.15
3 -0.36
30 0.28
31 0.28
32 0.28
4 -0.36
43 0.15
44 0.15
45 0.15
48 0.15
49 0.15
5 -0.68
50 0.15
51 0.15
52 0.15
53 0.15
6 -0.75
62 0.4
7 -0.41
8 0.21
9 0.26

> <PUBCHEM_EFFECTIVE_ROTOR_COUNT>
11.8

> <PUBCHEM_PHARMACOPHORE_FEATURES>
11
1 1 acceptor
1 3 acceptor
1 4 acceptor
1 5 acceptor
1 5 donor
1 6 cation
1 7 acceptor
4 1 8 9 10 rings
5 2 7 14 17 18 rings
6 15 19 21 24 26 28 rings
6 16 20 22 25 27 29 rings

> <PUBCHEM_HEAVY_ATOM_COUNT>
32

> <PUBCHEM_ATOM_DEF_STEREO_COUNT>
0

> <PUBCHEM_ATOM_UDEF_STEREO_COUNT>
0

> <PUBCHEM_BOND_DEF_STEREO_COUNT>
0

> <PUBCHEM_BOND_UDEF_STEREO_COUNT>
0

> <PUBCHEM_ISOTOPIC_ATOM_COUNT>
0

> <PUBCHEM_COMPONENT_COUNT>
1

> <PUBCHEM_CACTVS_TAUTO_COUNT>
1

> <PUBCHEM_CONFORMER_ID>
036252E200000001

> <PUBCHEM_MMFF94_ENERGY>
110.5028

> <PUBCHEM_FEATURE_SELFOVERLAP>
55.824

> <PUBCHEM_SHAPE_FINGERPRINT>
10675989 125 18264213685017750628
11578080 2 17604444010033506051
12166972 35 18187641337342690450
12788726 201 17346330280159437913
13533116 47 18334857207836906255
14294032 229 17129326177056189305
15183329 4 18202568372047770013
15238133 3 17632576025054130291
15664445 248 17416676037081959736
1577012 14 18343023290526075549
17980427 26 17841409717171390564
19026451 147 18413102858175524578
20554085 129 18196646509895471128
20600515 1 17395816940683821200
22149856 69 16009327405481608721
22393880 68 18269273641595960879
23559900 14 18273490182699705175
27425 322 13696452035375051526
3004659 81 18408322164090212023
3411729 13 18188481488985980844
4073 2 18192716863309854407
4093350 32 18410014316574558855
4340502 62 17458345272837236790
495365 180 17676481757090960058
5104073 3 18336548300593622195
513532 50 18334848463716177272
57527295 17 18265071166858387156
5895379 119 17845097264063649392
70251023 43 18116715114994698030

> <PUBCHEM_SHAPE_MULTIPOLES>
619.24
14.31
2.93
2.19
30.19
1.4
-1.41
-0.11
1.4
-4.99
-0.68
-1.45
-0.12
-1.26

> <PUBCHEM_SHAPE_SELFOVERLAP>
1331.238

> <PUBCHEM_SHAPE_VOLUME>
342.3

> <PUBCHEM_COORDINATE_TYPE>
2
5
10

$$$$
