40778210
  -OEChem-12032416173D

 65 68  0     1  0  0  0  0  0999 V2000
   -4.0032    0.8991    0.8336 O   0  0  0  0  0  0  0  0  0  0  0  0
   -5.5294    2.7986   -0.9877 O   0  0  0  0  0  0  0  0  0  0  0  0
   -6.1692    0.3100   -1.9703 O   0  0  0  0  0  0  0  0  0  0  0  0
   -1.5940    2.4453    1.6932 O   0  0  0  0  0  0  0  0  0  0  0  0
    4.1716   -1.3427   -0.2702 O   0  0  0  0  0  0  0  0  0  0  0  0
   -2.6077   -1.4022    2.1452 O   0  0  0  0  0  0  0  0  0  0  0  0
    0.2029    1.5928    0.4915 N   0  0  0  0  0  0  0  0  0  0  0  0
    3.0450    1.1968    0.1108 N   0  0  0  0  0  0  0  0  0  0  0  0
   -3.6923   -1.8352    0.1435 N   0  0  0  0  0  0  0  0  0  0  0  0
   -3.5076    1.9069   -0.0772 C   0  0  2  0  0  0  0  0  0  0  0  0
   -4.4527    1.9067   -1.2737 C   0  0  1  0  0  0  0  0  0  0  0  0
   -4.9457    0.4745   -1.2857 C   0  0  1  0  0  0  0  0  0  0  0  0
   -5.0802    0.1862    0.2002 C   0  0  1  0  0  0  0  0  0  0  0  0
   -2.0775    1.5379   -0.4471 C   0  0  0  0  0  0  0  0  0  0  0  0
   -4.9842   -1.2908    0.5379 C   0  0  0  0  0  0  0  0  0  0  0  0
   -1.1439    1.9048    0.6803 C   0  0  0  0  0  0  0  0  0  0  0  0
    1.1716    1.9234    1.5336 C   0  0  0  0  0  0  0  0  0  0  0  0
    0.7352    0.9509   -0.7125 C   0  0  0  0  0  0  0  0  0  0  0  0
    2.5359    2.2848    0.9506 C   0  0  0  0  0  0  0  0  0  0  0  0
    2.0789    0.2624   -0.4719 C   0  0  0  0  0  0  0  0  0  0  0  0
    4.4134    1.0378   -0.0947 C   0  0  0  0  0  0  0  0  0  0  0  0
   -2.6086   -1.8398    0.9976 C   0  0  0  0  0  0  0  0  0  0  0  0
    4.9605   -0.2312   -0.2828 C   0  0  0  0  0  0  0  0  0  0  0  0
    5.2383    2.1625   -0.1111 C   0  0  0  0  0  0  0  0  0  0  0  0
   -1.3552   -2.4059    0.4357 C   0  0  0  0  0  0  0  0  0  0  0  0
    6.3326   -0.3758   -0.4876 C   0  0  0  0  0  0  0  0  0  0  0  0
    6.6105    2.0179   -0.3159 C   0  0  0  0  0  0  0  0  0  0  0  0
    7.1578    0.7488   -0.5041 C   0  0  0  0  0  0  0  0  0  0  0  0
   -0.4073   -2.9795    1.2831 C   0  0  0  0  0  0  0  0  0  0  0  0
   -1.1274   -2.3652   -0.9397 C   0  0  0  0  0  0  0  0  0  0  0  0
    4.8184   -2.5976   -0.4711 C   0  0  0  0  0  0  0  0  0  0  0  0
    0.7687   -3.5124    0.7549 C   0  0  0  0  0  0  0  0  0  0  0  0
    0.0484   -2.8980   -1.4679 C   0  0  0  0  0  0  0  0  0  0  0  0
    0.9966   -3.4717   -0.6206 C   0  0  0  0  0  0  0  0  0  0  0  0
   -3.5566    2.8718    0.4404 H   0  0  0  0  0  0  0  0  0  0  0  0
   -4.0017    2.2195   -2.2197 H   0  0  0  0  0  0  0  0  0  0  0  0
   -4.1921   -0.1635   -1.7604 H   0  0  0  0  0  0  0  0  0  0  0  0
   -6.0270    0.5782    0.5922 H   0  0  0  0  0  0  0  0  0  0  0  0
   -1.7606    2.0951   -1.3356 H   0  0  0  0  0  0  0  0  0  0  0  0
   -2.0055    0.4678   -0.6440 H   0  0  0  0  0  0  0  0  0  0  0  0
   -5.7588   -1.8661    0.0211 H   0  0  0  0  0  0  0  0  0  0  0  0
   -5.1022   -1.4374    1.6172 H   0  0  0  0  0  0  0  0  0  0  0  0
    1.2529    1.0418    2.1814 H   0  0  0  0  0  0  0  0  0  0  0  0
    0.7958    2.7473    2.1495 H   0  0  0  0  0  0  0  0  0  0  0  0
    0.8519    1.7461   -1.4593 H   0  0  0  0  0  0  0  0  0  0  0  0
    0.0224    0.2331   -1.1174 H   0  0  0  0  0  0  0  0  0  0  0  0
    2.4508    3.1981    0.3490 H   0  0  0  0  0  0  0  0  0  0  0  0
    3.2181    2.4860    1.7856 H   0  0  0  0  0  0  0  0  0  0  0  0
    1.9238   -0.5773    0.2147 H   0  0  0  0  0  0  0  0  0  0  0  0
    2.4206   -0.1177   -1.4421 H   0  0  0  0  0  0  0  0  0  0  0  0
   -5.1629    3.6992   -0.9656 H   0  0  0  0  0  0  0  0  0  0  0  0
   -6.0402    0.6303   -2.8792 H   0  0  0  0  0  0  0  0  0  0  0  0
   -3.6400   -2.2670   -0.7727 H   0  0  0  0  0  0  0  0  0  0  0  0
    4.8435    3.1665    0.0169 H   0  0  0  0  0  0  0  0  0  0  0  0
    6.8289   -1.3272   -0.6438 H   0  0  0  0  0  0  0  0  0  0  0  0
    7.2528    2.8936   -0.3324 H   0  0  0  0  0  0  0  0  0  0  0  0
    8.2262    0.6376   -0.6649 H   0  0  0  0  0  0  0  0  0  0  0  0
   -0.5690   -3.0244    2.3568 H   0  0  0  0  0  0  0  0  0  0  0  0
   -1.8236   -1.9019   -1.6325 H   0  0  0  0  0  0  0  0  0  0  0  0
    4.0547   -3.3763   -0.4035 H   0  0  0  0  0  0  0  0  0  0  0  0
    5.5455   -2.8091    0.3205 H   0  0  0  0  0  0  0  0  0  0  0  0
    5.2586   -2.6671   -1.4716 H   0  0  0  0  0  0  0  0  0  0  0  0
    1.5061   -3.9612    1.4138 H   0  0  0  0  0  0  0  0  0  0  0  0
    0.2289   -2.8618   -2.5384 H   0  0  0  0  0  0  0  0  0  0  0  0
    1.9041   -3.8957   -1.0372 H   0  0  0  0  0  0  0  0  0  0  0  0
  1 10  1  0  0  0  0
  1 13  1  0  0  0  0
  2 11  1  0  0  0  0
  2 51  1  0  0  0  0
  3 12  1  0  0  0  0
  3 52  1  0  0  0  0
  4 16  2  0  0  0  0
  5 23  1  0  0  0  0
  5 31  1  0  0  0  0
  6 22  2  0  0  0  0
  7 16  1  0  0  0  0
  7 17  1  0  0  0  0
  7 18  1  0  0  0  0
  8 19  1  0  0  0  0
  8 20  1  0  0  0  0
  8 21  1  0  0  0  0
  9 15  1  0  0  0  0
  9 22  1  0  0  0  0
  9 53  1  0  0  0  0
 10 11  1  0  0  0  0
 10 14  1  0  0  0  0
 10 35  1  0  0  0  0
 11 12  1  0  0  0  0
 11 36  1  0  0  0  0
 12 13  1  0  0  0  0
 12 37  1  0  0  0  0
 13 15  1  0  0  0  0
 13 38  1  0  0  0  0
 14 16  1  0  0  0  0
 14 39  1  0  0  0  0
 14 40  1  0  0  0  0
 15 41  1  0  0  0  0
 15 42  1  0  0  0  0
 17 19  1  0  0  0  0
 17 43  1  0  0  0  0
 17 44  1  0  0  0  0
 18 20  1  0  0  0  0
 18 45  1  0  0  0  0
 18 46  1  0  0  0  0
 19 47  1  0  0  0  0
 19 48  1  0  0  0  0
 20 49  1  0  0  0  0
 20 50  1  0  0  0  0
 21 23  1  0  0  0  0
 21 24  2  0  0  0  0
 22 25  1  0  0  0  0
 23 26  2  0  0  0  0
 24 27  1  0  0  0  0
 24 54  1  0  0  0  0
 25 29  2  0  0  0  0
 25 30  1  0  0  0  0
 26 28  1  0  0  0  0
 26 55  1  0  0  0  0
 27 28  2  0  0  0  0
 27 56  1  0  0  0  0
 28 57  1  0  0  0  0
 29 32  1  0  0  0  0
 29 58  1  0  0  0  0
 30 33  2  0  0  0  0
 30 59  1  0  0  0  0
 31 60  1  0  0  0  0
 31 61  1  0  0  0  0
 31 62  1  0  0  0  0
 32 34  2  0  0  0  0
 32 63  1  0  0  0  0
 33 34  1  0  0  0  0
 33 64  1  0  0  0  0
 34 65  1  0  0  0  0
M  END
> <PUBCHEM_COMPOUND_CID>
40778210

> <PUBCHEM_CONFORMER_RMSD>
1.2

> <PUBCHEM_CONFORMER_DIVERSEORDER>
6
48
47
78
98
128
85
4
123
30
118
88
38
52
66
45
51
83
9
125
99
39
114
71
49
10
72
112
75
62
74
55
92
97
129
93
18
50
41
28
103
79
80
35
84
102
116
126
60
124
77
120
26
76
110
91
25
109
119
108
20
94
121
73
17
96
37
13
15
133
132
130
5
64
27
65
33
106
100
131
44
31
113
56
58
23
87
21
36
40
95
82
43
14
115
32
67
59
34
70
46
89
68
104
42
117
111
57
3
86
1
122
101
54
63
22
7
11
69
90
16
105
81
107
127
53
8
29
61
24
2
19
12

> <PUBCHEM_MMFF94_PARTIAL_CHARGES>
46
1 -0.56
10 0.28
11 0.28
12 0.28
13 0.28
14 0.06
15 0.3
16 0.57
17 0.3
18 0.3
19 0.37
2 -0.68
20 0.37
21 0.1
22 0.54
23 0.08
24 -0.15
25 0.09
26 -0.15
27 -0.15
28 -0.15
29 -0.15
3 -0.68
30 -0.15
31 0.28
32 -0.15
33 -0.15
34 -0.15
4 -0.57
5 -0.36
51 0.4
52 0.4
53 0.37
54 0.15
55 0.15
56 0.15
57 0.15
58 0.15
59 0.15
6 -0.57
63 0.15
64 0.15
65 0.15
7 -0.66
8 -0.84
9 -0.73

> <PUBCHEM_EFFECTIVE_ROTOR_COUNT>
11.2

> <PUBCHEM_PHARMACOPHORE_FEATURES>
14
1 1 acceptor
1 2 acceptor
1 2 donor
1 3 acceptor
1 3 donor
1 4 acceptor
1 5 acceptor
1 6 acceptor
1 8 cation
1 9 donor
5 1 10 11 12 13 rings
6 21 23 24 26 27 28 rings
6 25 29 30 32 33 34 rings
6 7 8 17 18 19 20 rings

> <PUBCHEM_HEAVY_ATOM_COUNT>
34

> <PUBCHEM_ATOM_DEF_STEREO_COUNT>
4

> <PUBCHEM_ATOM_UDEF_STEREO_COUNT>
0

> <PUBCHEM_BOND_DEF_STEREO_COUNT>
0

> <PUBCHEM_BOND_UDEF_STEREO_COUNT>
0

> <PUBCHEM_ISOTOPIC_ATOM_COUNT>
0

> <PUBCHEM_COMPONENT_COUNT>
1

> <PUBCHEM_CACTVS_TAUTO_COUNT>
2

> <PUBCHEM_CONFORMER_ID>
026E39E200000006

> <PUBCHEM_MMFF94_ENERGY>
115.895

> <PUBCHEM_FEATURE_SELFOVERLAP>
71.062

> <PUBCHEM_SHAPE_FINGERPRINT>
10675989 125 17397538711331889285
107951 10 17749107803040976155
11135609 187 18340482275118591280
11578080 2 17169812403030587399
12128747 34 18408888451317637646
12788726 201 17845938433688068304
13402501 40 18411986879099836194
14747281 78 17463400626214352621
14931854 50 18342453703671905908
15183329 4 18409727369972614802
15351339 4 18338510842105675699
15439362 3 17972874762034693733
16067689 134 16973090891307216968
16067689 302 18412546518683888847
16112460 7 18271541805309001120
18608769 82 18262524822498872907
19958102 18 18334294262505499996
20028762 73 17986387785820641286
20197701 30 18408321068852023454
21133410 230 17824289152848549243
21279426 13 18338240371120208430
21585483 110 18412544314684651006
21857420 4 14002620509446899436
23559900 14 18339920532008827864
249057 3 18334858355569711740
3298306 158 18411129213059616427
3383291 50 18202280312501475238
338550 245 18334864965270581580
373842 8 18267302024496718978
4015057 19 17702942676797530841
4046055 25 16907484673456005167
5085150 59 18340476816721222722
5265222 85 18263931105975377580
6009941 240 17749390390514156850
6437827 68 18410859884477233136
7226269 152 18342461469067696088

> <PUBCHEM_SHAPE_MULTIPOLES>
649.55
15.27
4.31
1.4
11.46
2.81
-0.14
-7.42
4.81
-0.26
-0.32
-1.52
0.06
1.52

> <PUBCHEM_SHAPE_SELFOVERLAP>
1386.443

> <PUBCHEM_SHAPE_VOLUME>
358.3

> <PUBCHEM_COORDINATE_TYPE>
2
5
10

$$$$
