38029820
  -OEChem-12032416363D

 54 55  0     1  0  0  0  0  0999 V2000
    3.3076   -1.0905   -1.0521 O   0  0  0  0  0  0  0  0  0  0  0  0
   -2.1846   -1.8256    0.2619 O   0  0  0  0  0  0  0  0  0  0  0  0
   -3.9599   -0.4369    0.7551 O   0  0  0  0  0  0  0  0  0  0  0  0
    2.6020    0.5252    0.4725 N   0  0  0  0  0  0  0  0  0  0  0  0
    0.0588    1.0923   -1.0289 C   0  0  1  0  0  0  0  0  0  0  0  0
    1.0314    2.1486   -0.4474 C   0  0  2  0  0  0  0  0  0  0  0  0
   -1.3915    1.4368   -0.6573 C   0  0  0  0  0  0  0  0  0  0  0  0
   -1.6015    1.5069    0.8671 C   0  0  2  0  0  0  0  0  0  0  0  0
    0.1904    0.9745   -2.5505 C   0  0  0  0  0  0  0  0  0  0  0  0
    3.0779   -1.7413    1.1969 C   0  0  0  0  0  0  0  0  0  0  0  0
    2.4720    1.6246   -0.4315 C   0  0  0  0  0  0  0  0  0  0  0  0
   -0.5176    2.3178    1.5480 C   0  0  0  0  0  0  0  0  0  0  0  0
    0.6469    2.6060    0.9401 C   0  0  0  0  0  0  0  0  0  0  0  0
    1.8335   -2.4816    1.5906 C   0  0  0  0  0  0  0  0  0  0  0  0
    2.9413   -3.2015    0.8789 C   0  0  0  0  0  0  0  0  0  0  0  0
   -1.7016    0.1039    1.4760 C   0  0  0  0  0  0  0  0  0  0  0  0
    3.0107   -0.7464    0.0860 C   0  0  0  0  0  0  0  0  0  0  0  0
   -0.2780   -0.3990   -3.0204 C   0  0  0  0  0  0  0  0  0  0  0  0
   -0.6010    2.0812   -3.2402 C   0  0  0  0  0  0  0  0  0  0  0  0
   -0.8213    2.8294    2.9287 C   0  0  0  0  0  0  0  0  0  0  0  0
   -2.7702   -0.7170    0.8046 C   0  0  0  0  0  0  0  0  0  0  0  0
   -3.0711   -2.7195   -0.4191 C   0  0  0  0  0  0  0  0  0  0  0  0
   -2.2743   -3.8880   -0.9590 C   0  0  0  0  0  0  0  0  0  0  0  0
    0.2915    0.1156   -0.5871 H   0  0  0  0  0  0  0  0  0  0  0  0
    1.0187    3.0457   -1.0791 H   0  0  0  0  0  0  0  0  0  0  0  0
   -2.1024    0.7472   -1.1219 H   0  0  0  0  0  0  0  0  0  0  0  0
   -1.6519    2.4361   -1.0316 H   0  0  0  0  0  0  0  0  0  0  0  0
   -2.5622    2.0173    1.0244 H   0  0  0  0  0  0  0  0  0  0  0  0
    1.2387    1.0696   -2.8516 H   0  0  0  0  0  0  0  0  0  0  0  0
    3.7662   -1.4828    1.9960 H   0  0  0  0  0  0  0  0  0  0  0  0
    3.1544    2.4059   -0.0752 H   0  0  0  0  0  0  0  0  0  0  0  0
    2.8160    1.3408   -1.4298 H   0  0  0  0  0  0  0  0  0  0  0  0
    1.3698    3.2323    1.4593 H   0  0  0  0  0  0  0  0  0  0  0  0
    0.9208   -2.2975    1.0371 H   0  0  0  0  0  0  0  0  0  0  0  0
    1.6849   -2.6956    2.6418 H   0  0  0  0  0  0  0  0  0  0  0  0
    3.5382   -3.8999    1.4532 H   0  0  0  0  0  0  0  0  0  0  0  0
    2.7576   -3.5110   -0.1425 H   0  0  0  0  0  0  0  0  0  0  0  0
   -1.9608    0.1486    2.5405 H   0  0  0  0  0  0  0  0  0  0  0  0
   -0.7377   -0.4160    1.4232 H   0  0  0  0  0  0  0  0  0  0  0  0
    2.4287    0.6925    1.4596 H   0  0  0  0  0  0  0  0  0  0  0  0
   -1.3342   -0.5781   -2.7963 H   0  0  0  0  0  0  0  0  0  0  0  0
    0.3076   -1.1951   -2.5478 H   0  0  0  0  0  0  0  0  0  0  0  0
   -0.1505   -0.4967   -4.1041 H   0  0  0  0  0  0  0  0  0  0  0  0
   -1.6844    1.9284   -3.1950 H   0  0  0  0  0  0  0  0  0  0  0  0
   -0.3467    2.0931   -4.3074 H   0  0  0  0  0  0  0  0  0  0  0  0
   -0.3600    3.0763   -2.8549 H   0  0  0  0  0  0  0  0  0  0  0  0
   -1.7421    3.4215    2.9203 H   0  0  0  0  0  0  0  0  0  0  0  0
   -0.0218    3.4697    3.3165 H   0  0  0  0  0  0  0  0  0  0  0  0
   -0.9467    1.9990    3.6299 H   0  0  0  0  0  0  0  0  0  0  0  0
   -3.8328   -3.0819    0.2802 H   0  0  0  0  0  0  0  0  0  0  0  0
   -3.5577   -2.1902   -1.2459 H   0  0  0  0  0  0  0  0  0  0  0  0
   -1.4964   -3.5383   -1.6460 H   0  0  0  0  0  0  0  0  0  0  0  0
   -1.7653   -4.4158   -0.1456 H   0  0  0  0  0  0  0  0  0  0  0  0
   -2.9220   -4.5928   -1.4874 H   0  0  0  0  0  0  0  0  0  0  0  0
  1 17  2  0  0  0  0
  2 21  1  0  0  0  0
  2 22  1  0  0  0  0
  3 21  2  0  0  0  0
  4 11  1  0  0  0  0
  4 17  1  0  0  0  0
  4 40  1  0  0  0  0
  5  6  1  0  0  0  0
  5  7  1  0  0  0  0
  5  9  1  0  0  0  0
  5 24  1  0  0  0  0
  6 11  1  0  0  0  0
  6 13  1  0  0  0  0
  6 25  1  0  0  0  0
  7  8  1  0  0  0  0
  7 26  1  0  0  0  0
  7 27  1  0  0  0  0
  8 12  1  0  0  0  0
  8 16  1  0  0  0  0
  8 28  1  0  0  0  0
  9 18  1  0  0  0  0
  9 19  1  0  0  0  0
  9 29  1  0  0  0  0
 10 14  1  0  0  0  0
 10 15  1  0  0  0  0
 10 17  1  0  0  0  0
 10 30  1  0  0  0  0
 11 31  1  0  0  0  0
 11 32  1  0  0  0  0
 12 13  2  0  0  0  0
 12 20  1  0  0  0  0
 13 33  1  0  0  0  0
 14 15  1  0  0  0  0
 14 34  1  0  0  0  0
 14 35  1  0  0  0  0
 15 36  1  0  0  0  0
 15 37  1  0  0  0  0
 16 21  1  0  0  0  0
 16 38  1  0  0  0  0
 16 39  1  0  0  0  0
 18 41  1  0  0  0  0
 18 42  1  0  0  0  0
 18 43  1  0  0  0  0
 19 44  1  0  0  0  0
 19 45  1  0  0  0  0
 19 46  1  0  0  0  0
 20 47  1  0  0  0  0
 20 48  1  0  0  0  0
 20 49  1  0  0  0  0
 22 23  1  0  0  0  0
 22 50  1  0  0  0  0
 22 51  1  0  0  0  0
 23 52  1  0  0  0  0
 23 53  1  0  0  0  0
 23 54  1  0  0  0  0
M  END
> <PUBCHEM_COMPOUND_CID>
38029820

> <PUBCHEM_CONFORMER_RMSD>
1

> <PUBCHEM_CONFORMER_DIVERSEORDER>
1
26
24
10
28
29
11
19
20
2
25
30
21
17
18
23
5
27
16
13
6
15
12
4
3
14
22
9
8
7

> <PUBCHEM_MMFF94_PARTIAL_CHARGES>
24
1 -0.57
10 -0.1
11 0.3
12 -0.28
13 -0.29
14 -0.2
15 -0.2
16 0.06
17 0.63
2 -0.43
20 0.14
21 0.66
22 0.28
3 -0.57
30 0.1
33 0.15
34 0.1
35 0.1
36 0.1
37 0.1
4 -0.73
40 0.37
6 0.14
8 0.14

> <PUBCHEM_EFFECTIVE_ROTOR_COUNT>
10.4

> <PUBCHEM_PHARMACOPHORE_FEATURES>
5
1 1 acceptor
1 3 acceptor
1 4 donor
3 9 18 19 hydrophobe
6 5 6 7 8 12 13 rings

> <PUBCHEM_HEAVY_ATOM_COUNT>
23

> <PUBCHEM_ATOM_DEF_STEREO_COUNT>
3

> <PUBCHEM_ATOM_UDEF_STEREO_COUNT>
0

> <PUBCHEM_BOND_DEF_STEREO_COUNT>
0

> <PUBCHEM_BOND_UDEF_STEREO_COUNT>
0

> <PUBCHEM_ISOTOPIC_ATOM_COUNT>
0

> <PUBCHEM_COMPONENT_COUNT>
1

> <PUBCHEM_CACTVS_TAUTO_COUNT>
2

> <PUBCHEM_CONFORMER_ID>
024449FC00000001

> <PUBCHEM_MMFF94_ENERGY>
37.9515

> <PUBCHEM_FEATURE_SELFOVERLAP>
25.371

> <PUBCHEM_SHAPE_FINGERPRINT>
10064457 181 16894819433079179814
11370993 70 17253701089310486959
11578080 2 18263341724830354397
12156800 1 13032700178131352842
12539773 59 18190474756942334003
12617007 42 16370732564613956861
13583140 156 17769922804106578933
14251757 17 17608047071394960519
14787075 74 17695357253931688368
19930381 70 15958637397371776627
20600515 1 17773900669361106665
22889148 1 15938918991851602676
23419403 2 17619296243113424048
238 59 17615125920063789219
3380486 77 18199484194445027945
35225 105 18047747100948558438
394222 165 16048385600904135389
81228 2 16009315288429587292

> <PUBCHEM_SHAPE_MULTIPOLES>
450.74
5.03
4.48
2.91
1.99
3.05
1.73
4.79
-1.47
-1.02
-0.83
-0.89
-1.98
-1.32

> <PUBCHEM_SHAPE_SELFOVERLAP>
903.124

> <PUBCHEM_SHAPE_VOLUME>
265.8

> <PUBCHEM_COORDINATE_TYPE>
2
5
10

$$$$
