40777123
  -OEChem-12032416373D

 71 75  0     1  0  0  0  0  0999 V2000
    4.1062   -2.2144   -2.3047 Br  0  0  0  0  0  0  0  0  0  0  0  0
   -3.5711    2.1664   -2.0691 O   0  0  0  0  0  0  0  0  0  0  0  0
    0.6798    3.2510   -0.7740 N   0  0  2  0  0  0  0  0  0  0  0  0
   -2.0729    0.7075   -1.0629 N   0  0  0  0  0  0  0  0  0  0  0  0
    2.3228   -0.0876    1.8672 N   0  0  0  0  0  0  0  0  0  0  0  0
    4.0517   -1.6838    1.3467 N   0  0  0  0  0  0  0  0  0  0  0  0
    0.9748    2.4356    1.6818 C   0  0  2  0  0  0  0  0  0  0  0  0
    2.2541    2.1366    0.8522 C   0  0  2  0  0  0  0  0  0  0  0  0
   -0.4897    2.4279   -0.3678 C   0  0  2  0  0  0  0  0  0  0  0  0
   -0.2400    1.7667    1.0048 C   0  0  0  0  0  0  0  0  0  0  0  0
    0.7479    3.9611    1.6158 C   0  0  0  0  0  0  0  0  0  0  0  0
    1.9296    2.4627   -0.6337 C   0  0  0  0  0  0  0  0  0  0  0  0
    0.7594    4.4119    0.1447 C   0  0  0  0  0  0  0  0  0  0  0  0
   -0.8779    1.4007   -1.4334 C   0  0  0  0  0  0  0  0  0  0  0  0
    2.9133    0.7743    1.0137 C   0  0  0  0  0  0  0  0  0  0  0  0
    4.0587    0.4840    0.3009 C   0  0  0  0  0  0  0  0  0  0  0  0
    4.5893   -0.7728    0.5093 C   0  0  0  0  0  0  0  0  0  0  0  0
   -3.3464    1.1513   -1.4151 C   0  0  0  0  0  0  0  0  0  0  0  0
    2.9358   -1.2811    1.9840 C   0  0  0  0  0  0  0  0  0  0  0  0
    5.7865   -1.1993   -0.1750 C   0  0  0  0  0  0  0  0  0  0  0  0
   -4.4875    0.3327   -0.9306 C   0  0  0  0  0  0  0  0  0  0  0  0
    2.3133   -2.2606    2.9204 C   0  0  0  0  0  0  0  0  0  0  0  0
   -5.7326    0.9261   -0.7220 C   0  0  0  0  0  0  0  0  0  0  0  0
   -4.3137   -1.0290   -0.6835 C   0  0  0  0  0  0  0  0  0  0  0  0
    5.7426   -1.8424   -1.4118 C   0  0  0  0  0  0  0  0  0  0  0  0
    7.0143   -0.9501    0.4384 C   0  0  0  0  0  0  0  0  0  0  0  0
   -7.7750   -2.0263    0.4681 C   0  0  0  0  0  0  0  0  0  0  0  0
   -6.6298   -1.2042   -0.0192 C   0  0  0  0  0  0  0  0  0  0  0  0
   -6.8038    0.1576   -0.2662 C   0  0  0  0  0  0  0  0  0  0  0  0
   -5.3847   -1.7975   -0.2278 C   0  0  0  0  0  0  0  0  0  0  0  0
    6.9265   -2.2363   -2.0356 C   0  0  0  0  0  0  0  0  0  0  0  0
    8.1982   -1.3440   -0.1852 C   0  0  0  0  0  0  0  0  0  0  0  0
   -8.9580   -2.0067   -0.5489 C   0  0  0  0  0  0  0  0  0  0  0  0
   -8.3165   -1.4913    1.8300 C   0  0  0  0  0  0  0  0  0  0  0  0
   -7.4597   -3.5395    0.7110 C   0  0  0  0  0  0  0  0  0  0  0  0
    8.1543   -1.9871   -1.4223 C   0  0  0  0  0  0  0  0  0  0  0  0
    1.0737    2.1086    2.7223 H   0  0  0  0  0  0  0  0  0  0  0  0
    3.0180    2.8527    1.1934 H   0  0  0  0  0  0  0  0  0  0  0  0
   -1.3513    3.1044   -0.2646 H   0  0  0  0  0  0  0  0  0  0  0  0
   -0.0652    0.6892    0.9103 H   0  0  0  0  0  0  0  0  0  0  0  0
   -1.1282    1.8922    1.6365 H   0  0  0  0  0  0  0  0  0  0  0  0
    1.5305    4.4892    2.1730 H   0  0  0  0  0  0  0  0  0  0  0  0
   -0.2114    4.2159    2.0826 H   0  0  0  0  0  0  0  0  0  0  0  0
    2.7600    3.0375   -1.0655 H   0  0  0  0  0  0  0  0  0  0  0  0
    1.8680    1.5559   -1.2465 H   0  0  0  0  0  0  0  0  0  0  0  0
   -0.0776    5.0958   -0.0421 H   0  0  0  0  0  0  0  0  0  0  0  0
    1.6661    4.9927   -0.0681 H   0  0  0  0  0  0  0  0  0  0  0  0
   -0.1034    0.6394   -1.5706 H   0  0  0  0  0  0  0  0  0  0  0  0
   -1.0345    1.8958   -2.3989 H   0  0  0  0  0  0  0  0  0  0  0  0
   -1.9615   -0.1064   -0.4679 H   0  0  0  0  0  0  0  0  0  0  0  0
    4.5158    1.1984   -0.3736 H   0  0  0  0  0  0  0  0  0  0  0  0
    2.7922   -2.1893    3.9014 H   0  0  0  0  0  0  0  0  0  0  0  0
    1.2431   -2.0633    3.0377 H   0  0  0  0  0  0  0  0  0  0  0  0
    2.4306   -3.2820    2.5449 H   0  0  0  0  0  0  0  0  0  0  0  0
   -5.8866    1.9864   -0.9043 H   0  0  0  0  0  0  0  0  0  0  0  0
   -3.3696   -1.5351   -0.8622 H   0  0  0  0  0  0  0  0  0  0  0  0
    7.0693   -0.4505    1.4030 H   0  0  0  0  0  0  0  0  0  0  0  0
   -7.7619    0.6451   -0.1114 H   0  0  0  0  0  0  0  0  0  0  0  0
   -5.1965   -2.8518   -0.0583 H   0  0  0  0  0  0  0  0  0  0  0  0
    6.9136   -2.7387   -2.9995 H   0  0  0  0  0  0  0  0  0  0  0  0
    9.1542   -1.1502    0.2922 H   0  0  0  0  0  0  0  0  0  0  0  0
   -9.7894   -2.6334   -0.2056 H   0  0  0  0  0  0  0  0  0  0  0  0
   -9.3547   -0.9961   -0.6958 H   0  0  0  0  0  0  0  0  0  0  0  0
   -8.6361   -2.3811   -1.5278 H   0  0  0  0  0  0  0  0  0  0  0  0
   -9.1396   -2.1117    2.2032 H   0  0  0  0  0  0  0  0  0  0  0  0
   -7.5256   -1.4889    2.5893 H   0  0  0  0  0  0  0  0  0  0  0  0
   -8.6967   -0.4673    1.7455 H   0  0  0  0  0  0  0  0  0  0  0  0
   -8.3477   -4.0754    1.0679 H   0  0  0  0  0  0  0  0  0  0  0  0
   -7.1360   -4.0357   -0.2115 H   0  0  0  0  0  0  0  0  0  0  0  0
   -6.6800   -3.6706    1.4704 H   0  0  0  0  0  0  0  0  0  0  0  0
    9.0762   -2.2938   -1.9077 H   0  0  0  0  0  0  0  0  0  0  0  0
  1 25  1  0  0  0  0
  2 18  2  0  0  0  0
  3  9  1  0  0  0  0
  3 12  1  0  0  0  0
  3 13  1  0  0  0  0
  4 14  1  0  0  0  0
  4 18  1  0  0  0  0
  4 50  1  0  0  0  0
  5 15  2  0  0  0  0
  5 19  1  0  0  0  0
  6 17  1  0  0  0  0
  6 19  2  0  0  0  0
  7  8  1  0  0  0  0
  7 10  1  0  0  0  0
  7 11  1  0  0  0  0
  7 37  1  0  0  0  0
  8 12  1  0  0  0  0
  8 15  1  0  0  0  0
  8 38  1  0  0  0  0
  9 10  1  0  0  0  0
  9 14  1  0  0  0  0
  9 39  1  0  0  0  0
 10 40  1  0  0  0  0
 10 41  1  0  0  0  0
 11 13  1  0  0  0  0
 11 42  1  0  0  0  0
 11 43  1  0  0  0  0
 12 44  1  0  0  0  0
 12 45  1  0  0  0  0
 13 46  1  0  0  0  0
 13 47  1  0  0  0  0
 14 48  1  0  0  0  0
 14 49  1  0  0  0  0
 15 16  1  0  0  0  0
 16 17  2  0  0  0  0
 16 51  1  0  0  0  0
 17 20  1  0  0  0  0
 18 21  1  0  0  0  0
 19 22  1  0  0  0  0
 20 25  1  0  0  0  0
 20 26  2  0  0  0  0
 21 23  2  0  0  0  0
 21 24  1  0  0  0  0
 22 52  1  0  0  0  0
 22 53  1  0  0  0  0
 22 54  1  0  0  0  0
 23 29  1  0  0  0  0
 23 55  1  0  0  0  0
 24 30  2  0  0  0  0
 24 56  1  0  0  0  0
 25 31  2  0  0  0  0
 26 32  1  0  0  0  0
 26 57  1  0  0  0  0
 27 28  1  0  0  0  0
 27 33  1  0  0  0  0
 27 34  1  0  0  0  0
 27 35  1  0  0  0  0
 28 29  2  0  0  0  0
 28 30  1  0  0  0  0
 29 58  1  0  0  0  0
 30 59  1  0  0  0  0
 31 36  1  0  0  0  0
 31 60  1  0  0  0  0
 32 36  2  0  0  0  0
 32 61  1  0  0  0  0
 33 62  1  0  0  0  0
 33 63  1  0  0  0  0
 33 64  1  0  0  0  0
 34 65  1  0  0  0  0
 34 66  1  0  0  0  0
 34 67  1  0  0  0  0
 35 68  1  0  0  0  0
 35 69  1  0  0  0  0
 35 70  1  0  0  0  0
 36 71  1  0  0  0  0
M  END
> <PUBCHEM_COMPOUND_CID>
40777123

> <PUBCHEM_CONFORMER_RMSD>
1

> <PUBCHEM_CONFORMER_DIVERSEORDER>
1
62
178
189
122
156
177
242
159
254
194
107
161
183
202
164
227
179
230
83
234
69
23
147
119
25
48
121
200
59
127
205
253
150
140
110
99
74
132
149
128
135
151
33
75
224
197
100
131
198
120
206
172
250
236
154
76
40
235
116
251
98
160
162
53
218
68
239
180
188
245
201
153
35
244
207
41
214
89
141
186
61
223
203
66
97
248
193
152
217
210
28
255
144
67
148
86
130
84
34
246
229
72
209
42
139
211
185
226
82
27
170
20
56
78
231
166
192
169
63
114
64
124
104
146
191
45
143
252
57
55
113
39
88
12
71
228
87
212
101
85
6
238
216
215
44
129
196
165
199
187
92
13
138
111
158
181
171
174
184
58
142
21
70
167
52
157
47
173
17
208
14
36
249
90
190
176
213
79
22
106
221
60
133
118
51
137
145
10
219
222
11
233
50
134
123
232
105
126
109
225
16
31
93
247
54
91
77
103
112
163
81
102
117
195
49
115
32
237
96
43
168
108
243
125
182
5
15
175
80
7
24
73
95
240
3
241
136
37
204
38
9
46
155
94
8
29
2
65
26
30
220
18
19
4

> <PUBCHEM_MMFF94_PARTIAL_CHARGES>
39
1 -0.11
12 0.27
13 0.27
14 0.3
15 0.17
16 -0.15
17 0.31
18 0.54
19 0.48
2 -0.57
21 0.09
22 0.14
23 -0.15
24 -0.15
25 0.11
26 -0.15
27 0.14
28 -0.14
29 -0.15
3 -0.81
30 -0.15
31 -0.15
32 -0.15
36 -0.15
4 -0.73
5 -0.62
50 0.37
51 0.15
55 0.15
56 0.15
57 0.15
58 0.15
59 0.15
6 -0.62
60 0.15
61 0.15
71 0.15
8 0.14
9 0.27

> <PUBCHEM_EFFECTIVE_ROTOR_COUNT>
8.2

> <PUBCHEM_PHARMACOPHORE_FEATURES>
11
1 1 hydrophobe
1 2 acceptor
1 3 cation
1 4 donor
1 5 acceptor
3 5 6 19 cation
4 27 33 34 35 hydrophobe
6 20 25 26 31 32 36 rings
6 21 23 24 28 29 30 rings
6 5 6 15 16 17 19 rings
8 3 7 8 9 10 11 12 13 rings

> <PUBCHEM_HEAVY_ATOM_COUNT>
36

> <PUBCHEM_ATOM_DEF_STEREO_COUNT>
3

> <PUBCHEM_ATOM_UDEF_STEREO_COUNT>
0

> <PUBCHEM_BOND_DEF_STEREO_COUNT>
0

> <PUBCHEM_BOND_UDEF_STEREO_COUNT>
0

> <PUBCHEM_ISOTOPIC_ATOM_COUNT>
0

> <PUBCHEM_COMPONENT_COUNT>
1

> <PUBCHEM_CACTVS_TAUTO_COUNT>
2

> <PUBCHEM_CONFORMER_ID>
026E35A300000001

> <PUBCHEM_MMFF94_ENERGY>
115.9905

> <PUBCHEM_FEATURE_SELFOVERLAP>
55.821

> <PUBCHEM_SHAPE_FINGERPRINT>
10169797 241 18199728324770121130
11399939 17 17840577416574778199
11607047 141 18200037369316328817
11621639 208 17609787748124847499
117089 54 18271253732925127766
11828532 37 18262247732124933102
12342043 65 18337947987243408381
12522641 33 17387140965138997828
12522641 68 16379759778206308893
131258 43 18186804711783642461
13150687 139 12685090346315402280
13383661 66 18271250421885182634
13533116 47 18263921219656858121
13673619 4 18334010605907306301
13690498 29 18114173112846503565
13782708 43 18337383950989568205
14040221 126 18192717735558851578
14950920 106 13900748944947195964
15289351 153 11025785501951162894
15320295 44 17242724291284860162
15350500 185 10737289068974974910
15350500 55 10159701278656234967
15361156 5 17095522856317872069
15510800 12 18342455932881258311
15669420 48 15791741788594180357
16120349 189 8574418838444903264
19246450 95 16845299277007207505
19301679 30 17988651765401759805
19302320 297 12967125060302133867
195137 95 10159699079464421422
20715895 44 11167947995566635089
208703 8 18273215292176683633
21130935 74 18124879221502772539
21585482 310 18341617018362661695
21716022 299 18337121150109954148
21792965 78 17897735263143795594
22033318 11 13542455484465827338
25269216 80 18200890478775743980
255183 451 18335983155353081469
404807 78 17313675943860244283
4330586 98 17386020485106101538
437815 12 18343019986535746752
4461854 278 17275103934108381214
44880168 125 17846206770175145975
4756326 101 12324246113599996974
5372103 7 11674883303088381550
54039377 194 18411983555222345974
57527295 17 17604424081311978224
57676310 108 18337688506224605710
57816373 69 18271238448022237959
60111433 81 13455699906339064958
6201320 77 16629692713100478652
86090 222 17531795983184772945
9962374 69 18129090286132682359

> <PUBCHEM_SHAPE_MULTIPOLES>
721.01
25.95
4.57
2.19
25.8
3.79
-0.56
-32.35
3.04
-0.15
-0.29
-1.64
-0.75
3.68

> <PUBCHEM_SHAPE_SELFOVERLAP>
1546.939

> <PUBCHEM_SHAPE_VOLUME>
410.9

> <PUBCHEM_COORDINATE_TYPE>
2
5
10

$$$$
