38030436
  -OEChem-12032416363D

 66 69  0     1  0  0  0  0  0999 V2000
   -2.7983    0.5150    0.7500 O   0  0  0  0  0  0  0  0  0  0  0  0
    3.3744   -0.8758    0.5914 N   0  0  0  0  0  0  0  0  0  0  0  0
   -3.2910    2.3038   -0.4996 N   0  0  0  0  0  0  0  0  0  0  0  0
   -4.1562    1.2849   -0.8525 N   0  0  0  0  0  0  0  0  0  0  0  0
   -6.2441   -2.5424   -0.4808 N   0  0  0  0  0  0  0  0  0  0  0  0
    1.6394    1.0540   -0.7724 C   0  0  1  0  0  0  0  0  0  0  0  0
    2.6827    1.4698    0.2907 C   0  0  2  0  0  0  0  0  0  0  0  0
    0.2185    1.1552   -0.2001 C   0  0  0  0  0  0  0  0  0  0  0  0
   -0.1264    2.5614    0.3355 C   0  0  2  0  0  0  0  0  0  0  0  0
    1.7825    1.8881   -2.0528 C   0  0  0  0  0  0  0  0  0  0  0  0
    2.9547    0.3396    1.2888 C   0  0  0  0  0  0  0  0  0  0  0  0
    2.2778    2.7105    1.0450 C   0  0  0  0  0  0  0  0  0  0  0  0
    1.0326    3.2205    1.0678 C   0  0  0  0  0  0  0  0  0  0  0  0
    3.1925   -2.0516    1.4530 C   0  0  0  0  0  0  0  0  0  0  0  0
    4.7686   -0.7566    0.1443 C   0  0  0  0  0  0  0  0  0  0  0  0
    5.0152   -3.2727    0.1953 C   0  0  0  0  0  0  0  0  0  0  0  0
   -1.3940    2.4612    1.1932 C   0  0  0  0  0  0  0  0  0  0  0  0
    3.5766   -3.3382    0.7194 C   0  0  0  0  0  0  0  0  0  0  0  0
    5.2063   -1.9988   -0.6346 C   0  0  0  0  0  0  0  0  0  0  0  0
    3.2089    1.8030   -2.5865 C   0  0  0  0  0  0  0  0  0  0  0  0
    0.7822    1.4221   -3.1058 C   0  0  0  0  0  0  0  0  0  0  0  0
    0.7565    4.5143    1.7835 C   0  0  0  0  0  0  0  0  0  0  0  0
    5.3588   -4.5158   -0.6208 C   0  0  0  0  0  0  0  0  0  0  0  0
   -2.5172    1.8098    0.4383 C   0  0  0  0  0  0  0  0  0  0  0  0
   -3.8320    0.2608   -0.0981 C   0  0  0  0  0  0  0  0  0  0  0  0
   -4.3887   -1.0592   -0.0309 C   0  0  0  0  0  0  0  0  0  0  0  0
   -3.6693   -2.1140    0.5196 C   0  0  0  0  0  0  0  0  0  0  0  0
   -5.6606   -1.3233   -0.5129 C   0  0  0  0  0  0  0  0  0  0  0  0
   -4.2358   -3.3829    0.5705 C   0  0  0  0  0  0  0  0  0  0  0  0
   -5.5145   -3.5431    0.0616 C   0  0  0  0  0  0  0  0  0  0  0  0
    1.7940    0.0074   -1.0634 H   0  0  0  0  0  0  0  0  0  0  0  0
    3.6384    1.7213   -0.1690 H   0  0  0  0  0  0  0  0  0  0  0  0
    0.1371    0.4291    0.6210 H   0  0  0  0  0  0  0  0  0  0  0  0
   -0.5181    0.8206   -0.9369 H   0  0  0  0  0  0  0  0  0  0  0  0
   -0.3559    3.2002   -0.5294 H   0  0  0  0  0  0  0  0  0  0  0  0
    1.5795    2.9476   -1.8562 H   0  0  0  0  0  0  0  0  0  0  0  0
    2.0341    0.1455    1.8555 H   0  0  0  0  0  0  0  0  0  0  0  0
    3.7018    0.6451    2.0350 H   0  0  0  0  0  0  0  0  0  0  0  0
    3.0730    3.2200    1.5855 H   0  0  0  0  0  0  0  0  0  0  0  0
    3.7858   -1.9582    2.3721 H   0  0  0  0  0  0  0  0  0  0  0  0
    2.1402   -2.1368    1.7509 H   0  0  0  0  0  0  0  0  0  0  0  0
    4.9038    0.0985   -0.5243 H   0  0  0  0  0  0  0  0  0  0  0  0
    5.4420   -0.6072    0.9989 H   0  0  0  0  0  0  0  0  0  0  0  0
    5.6966   -3.2321    1.0556 H   0  0  0  0  0  0  0  0  0  0  0  0
   -1.7379    3.4576    1.4950 H   0  0  0  0  0  0  0  0  0  0  0  0
   -1.1957    1.9003    2.1153 H   0  0  0  0  0  0  0  0  0  0  0  0
    3.4650   -4.1913    1.3993 H   0  0  0  0  0  0  0  0  0  0  0  0
    2.8806   -3.5028   -0.1139 H   0  0  0  0  0  0  0  0  0  0  0  0
    4.6280   -2.0660   -1.5657 H   0  0  0  0  0  0  0  0  0  0  0  0
    6.2595   -1.8954   -0.9219 H   0  0  0  0  0  0  0  0  0  0  0  0
    3.9048    2.4327   -2.0252 H   0  0  0  0  0  0  0  0  0  0  0  0
    3.2548    2.1690   -3.6191 H   0  0  0  0  0  0  0  0  0  0  0  0
    3.5816    0.7733   -2.5926 H   0  0  0  0  0  0  0  0  0  0  0  0
   -0.2455    1.6915   -2.8454 H   0  0  0  0  0  0  0  0  0  0  0  0
    0.8320    0.3390   -3.2605 H   0  0  0  0  0  0  0  0  0  0  0  0
    0.9851    1.9015   -4.0704 H   0  0  0  0  0  0  0  0  0  0  0  0
    0.2450    5.2157    1.1162 H   0  0  0  0  0  0  0  0  0  0  0  0
    1.6764    5.0016    2.1247 H   0  0  0  0  0  0  0  0  0  0  0  0
    0.1300    4.3438    2.6643 H   0  0  0  0  0  0  0  0  0  0  0  0
    4.7086   -4.6105   -1.4971 H   0  0  0  0  0  0  0  0  0  0  0  0
    5.2443   -5.4210   -0.0151 H   0  0  0  0  0  0  0  0  0  0  0  0
    6.3953   -4.4751   -0.9713 H   0  0  0  0  0  0  0  0  0  0  0  0
   -2.6638   -1.9795    0.9102 H   0  0  0  0  0  0  0  0  0  0  0  0
   -6.2777   -0.5458   -0.9542 H   0  0  0  0  0  0  0  0  0  0  0  0
   -3.6931   -4.2205    0.9936 H   0  0  0  0  0  0  0  0  0  0  0  0
   -6.0009   -4.5129    0.0772 H   0  0  0  0  0  0  0  0  0  0  0  0
  1 24  1  0  0  0  0
  1 25  1  0  0  0  0
  2 11  1  0  0  0  0
  2 14  1  0  0  0  0
  2 15  1  0  0  0  0
  3  4  1  0  0  0  0
  3 24  2  0  0  0  0
  4 25  2  0  0  0  0
  5 28  1  0  0  0  0
  5 30  2  0  0  0  0
  6  7  1  0  0  0  0
  6  8  1  0  0  0  0
  6 10  1  0  0  0  0
  6 31  1  0  0  0  0
  7 11  1  0  0  0  0
  7 12  1  0  0  0  0
  7 32  1  0  0  0  0
  8  9  1  0  0  0  0
  8 33  1  0  0  0  0
  8 34  1  0  0  0  0
  9 13  1  0  0  0  0
  9 17  1  0  0  0  0
  9 35  1  0  0  0  0
 10 20  1  0  0  0  0
 10 21  1  0  0  0  0
 10 36  1  0  0  0  0
 11 37  1  0  0  0  0
 11 38  1  0  0  0  0
 12 13  2  0  0  0  0
 12 39  1  0  0  0  0
 13 22  1  0  0  0  0
 14 18  1  0  0  0  0
 14 40  1  0  0  0  0
 14 41  1  0  0  0  0
 15 19  1  0  0  0  0
 15 42  1  0  0  0  0
 15 43  1  0  0  0  0
 16 18  1  0  0  0  0
 16 19  1  0  0  0  0
 16 23  1  0  0  0  0
 16 44  1  0  0  0  0
 17 24  1  0  0  0  0
 17 45  1  0  0  0  0
 17 46  1  0  0  0  0
 18 47  1  0  0  0  0
 18 48  1  0  0  0  0
 19 49  1  0  0  0  0
 19 50  1  0  0  0  0
 20 51  1  0  0  0  0
 20 52  1  0  0  0  0
 20 53  1  0  0  0  0
 21 54  1  0  0  0  0
 21 55  1  0  0  0  0
 21 56  1  0  0  0  0
 22 57  1  0  0  0  0
 22 58  1  0  0  0  0
 22 59  1  0  0  0  0
 23 60  1  0  0  0  0
 23 61  1  0  0  0  0
 23 62  1  0  0  0  0
 25 26  1  0  0  0  0
 26 27  1  0  0  0  0
 26 28  2  0  0  0  0
 27 29  2  0  0  0  0
 27 63  1  0  0  0  0
 28 64  1  0  0  0  0
 29 30  1  0  0  0  0
 29 65  1  0  0  0  0
 30 66  1  0  0  0  0
M  END
> <PUBCHEM_COMPOUND_CID>
38030436

> <PUBCHEM_CONFORMER_RMSD>
1

> <PUBCHEM_CONFORMER_DIVERSEORDER>
13
127
144
181
47
24
10
198
202
71
22
79
146
82
122
170
120
72
157
61
175
18
34
52
80
15
90
141
103
46
199
11
20
84
206
89
124
4
126
60
184
135
194
169
21
155
3
168
56
55
190
116
88
92
69
106
148
57
70
171
203
16
8
134
129
208
101
207
189
104
75
138
68
29
196
118
195
183
53
43
179
123
200
37
81
12
77
173
130
205
98
178
93
48
114
151
100
74
154
36
142
32
180
209
86
17
107
66
109
23
96
94
73
176
186
5
38
204
160
152
156
27
172
65
145
95
117
192
197
111
193
45
150
6
49
108
31
128
112
177
167
78
42
64
139
41
113
85
137
102
166
50
121
165
83
210
25
188
158
161
185
105
133
9
153
91
149
125
115
119
159
143
97
19
30
136
110
1
163
58
131
162
187
33
44
87
174
2
28
182
201
26
140
132
51
67
99
14
7
54
40
39
147
164
59
63
191
62
76
35

> <PUBCHEM_MMFF94_PARTIAL_CHARGES>
26
1 -0.28
11 0.27
12 -0.29
13 -0.28
14 0.27
15 0.27
17 0.18
2 -0.81
22 0.14
24 0.3
25 0.43
26 0.05
27 -0.15
28 0.16
29 -0.15
3 -0.34
30 0.16
39 0.15
4 -0.34
5 -0.62
63 0.15
64 0.15
65 0.15
66 0.15
7 0.14
9 0.14

> <PUBCHEM_EFFECTIVE_ROTOR_COUNT>
8

> <PUBCHEM_PHARMACOPHORE_FEATURES>
7
1 2 cation
1 5 acceptor
3 10 20 21 hydrophobe
5 1 3 4 24 25 rings
6 2 14 15 16 18 19 rings
6 5 26 27 28 29 30 rings
6 6 7 8 9 12 13 rings

> <PUBCHEM_HEAVY_ATOM_COUNT>
30

> <PUBCHEM_ATOM_DEF_STEREO_COUNT>
3

> <PUBCHEM_ATOM_UDEF_STEREO_COUNT>
0

> <PUBCHEM_BOND_DEF_STEREO_COUNT>
0

> <PUBCHEM_BOND_UDEF_STEREO_COUNT>
0

> <PUBCHEM_ISOTOPIC_ATOM_COUNT>
0

> <PUBCHEM_COMPONENT_COUNT>
1

> <PUBCHEM_CACTVS_TAUTO_COUNT>
1

> <PUBCHEM_CONFORMER_ID>
02444C640000000D

> <PUBCHEM_MMFF94_ENERGY>
53.0884

> <PUBCHEM_FEATURE_SELFOVERLAP>
35.522

> <PUBCHEM_SHAPE_FINGERPRINT>
10042902 136 18265618693420958254
10928967 22 18124894596789736759
10940486 97 17972044643202697404
11069576 57 18263084481821257590
11285246 1 17894635855058520419
11315621 136 18260552251061374454
11409948 41 17696450147843621991
11497681 19 18337115541478043182
11552529 35 17978508633850128976
117089 54 18271532983462778566
11796584 16 18339930294516678668
12107183 9 18200889400733756225
12422481 6 16271355297834235772
12633046 712 18410565189602573685
12969540 37 18335975407468890904
131258 38 18265320884488851526
13533116 47 18337668741296396423
13583140 156 18269539697804044277
14866123 147 18198908011966133193
15803439 3 16957355149631792868
17492 89 18412821408725992243
17909252 39 18338239391524754499
19301676 85 18052249593181520951
19319366 153 17979359982009534460
20775530 9 18259985946569527923
21315764 119 18113605803970482909
23559900 14 18339348730554687521
239999 70 17771075083302178797
24180151 46 14394985120542536451
25222932 49 17985541397409459653
2838139 119 8502069861231064386
3004659 81 18113891715200192363
32027 91 18340476821063402649
376196 1 14927619326568020037
4017518 198 16968581785778679796
404807 78 17030230822817193459
4435113 14 16840234788795077350
46194498 28 17458623470838258191
463206 1 18337957783588388067
484985 159 17617089210223821560
5081480 168 15575010450367950503
6201320 77 15336616435663220334
6433294 58 18194678391990802235
7970288 3 18341047398409723946
9831232 110 17613997813720675151

> <PUBCHEM_SHAPE_MULTIPOLES>
591.59
13.37
6.2
1.85
10.52
2.52
-1.43
19.67
-1.22
-2.77
1.7
-1.67
-1.73
-0.35

> <PUBCHEM_SHAPE_SELFOVERLAP>
1243.223

> <PUBCHEM_SHAPE_VOLUME>
332.4

> <PUBCHEM_COORDINATE_TYPE>
2
5
10

$$$$
