11912972
  -OEChem-12032416373D

 52 57  0     1  0  0  0  0  0999 V2000
    0.6121    1.7401    1.5994 O   0  0  0  0  0  0  0  0  0  0  0  0
    0.5587    3.8691   -0.6540 O   0  0  0  0  0  0  0  0  0  0  0  0
   -4.0481    2.5760    1.0976 O   0  0  0  0  0  0  0  0  0  0  0  0
   -4.4018   -2.6100   -1.7442 O   0  0  0  0  0  0  0  0  0  0  0  0
   -6.3412   -3.0700   -0.3896 O   0  0  0  0  0  0  0  0  0  0  0  0
    4.1092   -1.4179    1.8461 O   0  0  0  0  0  0  0  0  0  0  0  0
   -2.1516    1.5470    0.2474 N   0  0  0  0  0  0  0  0  0  0  0  0
    2.7891    1.8243   -1.3337 N   0  0  0  0  0  0  0  0  0  0  0  0
    3.7269   -0.0775   -0.3284 N   0  0  0  0  0  0  0  0  0  0  0  0
    3.9509    0.3084   -2.6966 N   0  0  0  0  0  0  0  0  0  0  0  0
   -0.0720    2.5839   -0.5135 C   0  0  1  0  0  0  0  0  0  0  0  0
    0.9147    1.6759    0.1942 C   0  0  1  0  0  0  0  0  0  0  0  0
   -1.2428    2.6751    0.4406 C   0  0  2  0  0  0  0  0  0  0  0  0
    2.2583    2.3097   -0.0787 C   0  0  2  0  0  0  0  0  0  0  0  0
   -0.5547    2.5542    1.7917 C   0  0  0  0  0  0  0  0  0  0  0  0
    1.9140    3.7842   -0.1880 C   0  0  0  0  0  0  0  0  0  0  0  0
   -3.4931    1.6005    0.5988 C   0  0  0  0  0  0  0  0  0  0  0  0
    3.5106    0.6500   -1.4564 C   0  0  0  0  0  0  0  0  0  0  0  0
   -4.2775    0.3611    0.3629 C   0  0  0  0  0  0  0  0  0  0  0  0
   -3.8686   -0.5008   -0.6368 C   0  0  0  0  0  0  0  0  0  0  0  0
   -5.3927    0.1186    1.1580 C   0  0  0  0  0  0  0  0  0  0  0  0
    4.4331   -1.2163   -0.4850 C   0  0  0  0  0  0  0  0  0  0  0  0
    4.6504   -0.8423   -2.7804 C   0  0  0  0  0  0  0  0  0  0  0  0
   -4.6286   -1.6380   -0.8192 C   0  0  0  0  0  0  0  0  0  0  0  0
   -6.1449   -1.0404    0.9527 C   0  0  0  0  0  0  0  0  0  0  0  0
    4.9245   -1.6532   -1.6982 C   0  0  0  0  0  0  0  0  0  0  0  0
   -5.7361   -1.9005   -0.0458 C   0  0  0  0  0  0  0  0  0  0  0  0
    4.6465   -1.9640    0.7256 C   0  0  0  0  0  0  0  0  0  0  0  0
   -5.4904   -3.5143   -1.4659 C   0  0  0  0  0  0  0  0  0  0  0  0
    5.2905   -3.1411    1.0178 C   0  0  0  0  0  0  0  0  0  0  0  0
    5.1402   -3.3334    2.4119 C   0  0  0  0  0  0  0  0  0  0  0  0
    4.4143   -2.2584    2.8695 C   0  0  0  0  0  0  0  0  0  0  0  0
   -0.3354    2.2339   -1.5168 H   0  0  0  0  0  0  0  0  0  0  0  0
    0.8267    0.6285   -0.1112 H   0  0  0  0  0  0  0  0  0  0  0  0
   -1.8057    3.6108    0.3652 H   0  0  0  0  0  0  0  0  0  0  0  0
    2.9847    2.1699    0.7301 H   0  0  0  0  0  0  0  0  0  0  0  0
   -1.1807    2.1094    2.5712 H   0  0  0  0  0  0  0  0  0  0  0  0
   -0.2123    3.5337    2.1433 H   0  0  0  0  0  0  0  0  0  0  0  0
    2.5654    4.3442   -0.8660 H   0  0  0  0  0  0  0  0  0  0  0  0
    1.9474    4.2667    0.7951 H   0  0  0  0  0  0  0  0  0  0  0  0
   -1.7363    0.6722   -0.0552 H   0  0  0  0  0  0  0  0  0  0  0  0
    2.5891    2.3311   -2.1886 H   0  0  0  0  0  0  0  0  0  0  0  0
   -3.0233   -0.3185   -1.2891 H   0  0  0  0  0  0  0  0  0  0  0  0
   -5.6939    0.8071    1.9426 H   0  0  0  0  0  0  0  0  0  0  0  0
    4.9957   -1.1031   -3.7751 H   0  0  0  0  0  0  0  0  0  0  0  0
   -7.0174   -1.2516    1.5603 H   0  0  0  0  0  0  0  0  0  0  0  0
    5.4911   -2.5675   -1.8212 H   0  0  0  0  0  0  0  0  0  0  0  0
   -5.0744   -4.4937   -1.2029 H   0  0  0  0  0  0  0  0  0  0  0  0
   -6.0977   -3.6216   -2.3720 H   0  0  0  0  0  0  0  0  0  0  0  0
    5.8080   -3.7903    0.3257 H   0  0  0  0  0  0  0  0  0  0  0  0
    5.5140   -4.1529    3.0086 H   0  0  0  0  0  0  0  0  0  0  0  0
    4.0523   -1.9603    3.8426 H   0  0  0  0  0  0  0  0  0  0  0  0
  1 12  1  0  0  0  0
  1 15  1  0  0  0  0
  2 11  1  0  0  0  0
  2 16  1  0  0  0  0
  3 17  2  0  0  0  0
  4 24  1  0  0  0  0
  4 29  1  0  0  0  0
  5 27  1  0  0  0  0
  5 29  1  0  0  0  0
  6 28  1  0  0  0  0
  6 32  1  0  0  0  0
  7 13  1  0  0  0  0
  7 17  1  0  0  0  0
  7 41  1  0  0  0  0
  8 14  1  0  0  0  0
  8 18  1  0  0  0  0
  8 42  1  0  0  0  0
  9 18  1  0  0  0  0
  9 22  2  0  0  0  0
 10 18  2  0  0  0  0
 10 23  1  0  0  0  0
 11 12  1  0  0  0  0
 11 13  1  0  0  0  0
 11 33  1  0  0  0  0
 12 14  1  0  0  0  0
 12 34  1  0  0  0  0
 13 15  1  0  0  0  0
 13 35  1  0  0  0  0
 14 16  1  0  0  0  0
 14 36  1  0  0  0  0
 15 37  1  0  0  0  0
 15 38  1  0  0  0  0
 16 39  1  0  0  0  0
 16 40  1  0  0  0  0
 17 19  1  0  0  0  0
 19 20  2  0  0  0  0
 19 21  1  0  0  0  0
 20 24  1  0  0  0  0
 20 43  1  0  0  0  0
 21 25  2  0  0  0  0
 21 44  1  0  0  0  0
 22 26  1  0  0  0  0
 22 28  1  0  0  0  0
 23 26  2  0  0  0  0
 23 45  1  0  0  0  0
 24 27  2  0  0  0  0
 25 27  1  0  0  0  0
 25 46  1  0  0  0  0
 26 47  1  0  0  0  0
 28 30  2  0  0  0  0
 29 48  1  0  0  0  0
 29 49  1  0  0  0  0
 30 31  1  0  0  0  0
 30 50  1  0  0  0  0
 31 32  2  0  0  0  0
 31 51  1  0  0  0  0
 32 52  1  0  0  0  0
M  END
> <PUBCHEM_COMPOUND_CID>
11912972

> <PUBCHEM_CONFORMER_RMSD>
1

> <PUBCHEM_CONFORMER_DIVERSEORDER>
1
83
105
153
294
129
71
267
394
284
90
214
328
30
299
222
317
316
101
249
332
405
22
355
204
48
173
301
33
242
340
276
152
137
264
122
358
82
177
123
312
329
166
131
228
37
378
372
186
320
136
383
323
141
14
51
360
246
143
102
357
278
219
243
55
180
194
10
398
91
350
95
387
235
199
34
330
61
404
280
255
96
335
371
349
403
206
359
213
31
178
58
165
209
118
66
132
11
275
258
285
86
388
157
247
174
270
65
211
42
185
107
374
127
382
43
287
181
183
130
50
263
232
308
393
325
305
344
70
172
297
121
400
52
128
25
62
67
201
376
244
338
279
302
47
98
138
93
283
290
140
241
167
384
409
77
364
35
273
17
339
324
60
109
144
202
72
322
292
250
407
134
277
3
162
397
318
188
230
231
408
156
406
210
7
221
170
351
106
198
133
146
259
342
21
321
356
300
238
346
63
68
295
336
197
100
99
19
265
215
94
92
184
298
293
88
262
269
205
386
252
345
268
217
104
234
155
45
191
401
9
326
361
208
303
373
158
306
15
239
126
125
313
272
375
310
212
353
119
32
369
84
225
271
8
27
334
13
189
196
253
289
251
103
315
370
76
248
261
182
179
288
114
348
390
175
18
319
12
145
81
203
392
149
343
274
385
226
192
163
26
396
368
399
148
89
200
64
377
135
381
44
257
108
139
20
327
161
54
291
256
74
402
311
36
296
236
367
207
379
362
151
337
39
195
314
286
164
190
254
341
307
75
347
176
49
16
380
2
333
281
85
159
116
395
79
24
142
389
233
282
150
5
80
365
237
304
331
120
110
216
352
363
224
117
147
354
112
240
73
124
260
53
28
187
69
4
160
78
41
245
410
111
169
59
229
23
223
218
227
46
29
56
366
391
40
97
38
220
6
171
115
87
193
266
113
57
168
309
154

> <PUBCHEM_MMFF94_PARTIAL_CHARGES>
42
1 -0.56
10 -0.62
11 0.28
12 0.28
13 0.3
14 0.37
15 0.28
16 0.28
17 0.54
18 0.72
19 0.09
2 -0.56
20 -0.15
21 -0.15
22 0.36
23 0.16
24 0.08
25 -0.15
26 -0.15
27 0.08
28 0.09
29 0.56
3 -0.57
30 -0.15
31 -0.15
32 -0.01
4 -0.36
41 0.37
42 0.4
43 0.15
44 0.15
45 0.15
46 0.15
47 0.15
5 -0.36
50 0.15
51 0.15
52 0.15
6 -0.28
7 -0.73
8 -0.87
9 -0.62

> <PUBCHEM_EFFECTIVE_ROTOR_COUNT>
7.8

> <PUBCHEM_PHARMACOPHORE_FEATURES>
16
1 1 acceptor
1 2 acceptor
1 3 acceptor
1 4 acceptor
1 5 acceptor
1 6 acceptor
1 7 donor
1 8 donor
1 9 acceptor
4 8 9 10 18 cation
5 1 11 12 13 15 rings
5 2 11 12 14 16 rings
5 4 5 24 27 29 rings
5 6 28 30 31 32 rings
6 19 20 21 24 25 27 rings
6 9 10 18 22 23 26 rings

> <PUBCHEM_HEAVY_ATOM_COUNT>
32

> <PUBCHEM_ATOM_DEF_STEREO_COUNT>
4

> <PUBCHEM_ATOM_UDEF_STEREO_COUNT>
0

> <PUBCHEM_BOND_DEF_STEREO_COUNT>
0

> <PUBCHEM_BOND_UDEF_STEREO_COUNT>
0

> <PUBCHEM_ISOTOPIC_ATOM_COUNT>
0

> <PUBCHEM_COMPONENT_COUNT>
1

> <PUBCHEM_CACTVS_TAUTO_COUNT>
6

> <PUBCHEM_CONFORMER_ID>
00B5C70C00000001

> <PUBCHEM_MMFF94_ENERGY>
82.2146

> <PUBCHEM_FEATURE_SELFOVERLAP>
82.083

> <PUBCHEM_SHAPE_FINGERPRINT>
10074138 170 17200526117422224585
10462674 125 13251092724277590117
10556698 54 13696132034384245863
10622 236 18260828150869653266
10928967 22 18335988592549120963
11135609 149 17968078833668233404
11227150 75 17387386001301984874
11607047 403 18265600156832758936
11796584 16 18271532983151197524
11973864 118 18048857870060845658
12047536 79 15698006232225045113
12107183 9 18200894915456179897
12422481 6 17132121242750073543
12559416 39 18129641063664530055
12977781 61 17901063570075527436
14347332 77 18410292532441036637
14480069 147 17967824829449846355
15001296 14 18267584787704609647
15320294 125 18194692466915096545
15684393 108 17677067810132330931
17138139 8 18335151881918205790
19315092 285 17895192169624760822
19841028 212 18126563656084746759
20691028 202 8141546604312255647
20775438 99 18042401507627194098
20775530 9 18411426137049807557
208703 8 18411704283142410670
21458453 9 16629944608347101860
21585483 132 18269546312365234911
21599406 157 16660370324302947187
25222932 49 18410290333459940484
2838139 119 11819275619597049565
3882209 13 16769257250151212063
4394409 98 18120918535315647815
44062 13 18410580544216073501
46194498 28 14275751674998455884
463206 1 18115315466614522344
50009960 94 18266716108746244746
5085150 59 18059287644635792277
59025328 239 16950847986658045636
6058803 2 18337689549954899705
613672 6 18059566923956254740
6201460 15 18117267060841897275
7970288 3 18198920110313798286

> <PUBCHEM_SHAPE_MULTIPOLES>
603.41
16.97
5.22
2.39
11.35
0.78
0.08
-20.57
0.23
0.04
-0.73
-4.05
-1.58
-5.29

> <PUBCHEM_SHAPE_SELFOVERLAP>
1352.76

> <PUBCHEM_SHAPE_VOLUME>
318.1

> <PUBCHEM_COORDINATE_TYPE>
2
5
10

$$$$
