75536879
  -OEChem-12032416343D

 31 32  0     1  0  0  0  0  0999 V2000
   -2.1643    1.8626    0.6608 O   0  0  0  0  0  0  0  0  0  0  0  0
    2.5343    1.3299   -0.6801 O   0  0  0  0  0  0  0  0  0  0  0  0
   -2.5502   -1.7221    0.2496 O   0  0  0  0  0  0  0  0  0  0  0  0
    0.3731    0.4509   -0.5641 N   0  0  0  0  0  0  0  0  0  0  0  0
    2.3820   -0.9474   -0.1728 C   0  0  0  0  0  0  0  0  0  0  0  0
    3.7275   -0.9724    0.4680 C   0  0  0  0  0  0  0  0  0  0  0  0
    2.5074   -1.3326    1.2616 C   0  0  0  0  0  0  0  0  0  0  0  0
    1.7752    0.3810   -0.5011 C   0  0  0  0  0  0  0  0  0  0  0  0
   -0.4807   -0.7189   -0.3407 C   0  0  0  0  0  0  0  0  0  0  0  0
   -0.2570    1.7384   -0.8638 C   0  0  0  0  0  0  0  0  0  0  0  0
   -1.9645   -0.4593   -0.0721 C   0  0  2  0  0  0  0  0  0  0  0  0
   -2.2022    0.5053    1.0877 C   0  0  0  0  0  0  0  0  0  0  0  0
   -0.8603    2.3634    0.3870 C   0  0  0  0  0  0  0  0  0  0  0  0
   -2.8206   -2.4790   -0.9200 C   0  0  0  0  0  0  0  0  0  0  0  0
    2.1779   -1.7371   -0.8889 H   0  0  0  0  0  0  0  0  0  0  0  0
    4.2259   -0.0442    0.7187 H   0  0  0  0  0  0  0  0  0  0  0  0
    4.4030   -1.7739    0.1932 H   0  0  0  0  0  0  0  0  0  0  0  0
    2.3628   -2.3745    1.5198 H   0  0  0  0  0  0  0  0  0  0  0  0
    2.1772   -0.6345    2.0212 H   0  0  0  0  0  0  0  0  0  0  0  0
   -0.0690   -1.3081    0.4859 H   0  0  0  0  0  0  0  0  0  0  0  0
   -0.3564   -1.3426   -1.2330 H   0  0  0  0  0  0  0  0  0  0  0  0
   -1.0008    1.5887   -1.6534 H   0  0  0  0  0  0  0  0  0  0  0  0
    0.5028    2.4206   -1.2598 H   0  0  0  0  0  0  0  0  0  0  0  0
   -2.4457   -0.0453   -0.9678 H   0  0  0  0  0  0  0  0  0  0  0  0
   -3.2049    0.3361    1.4969 H   0  0  0  0  0  0  0  0  0  0  0  0
   -1.5033    0.3383    1.9165 H   0  0  0  0  0  0  0  0  0  0  0  0
   -0.2171    2.2438    1.2667 H   0  0  0  0  0  0  0  0  0  0  0  0
   -0.9817    3.4384    0.2158 H   0  0  0  0  0  0  0  0  0  0  0  0
   -1.9023   -2.8066   -1.4132 H   0  0  0  0  0  0  0  0  0  0  0  0
   -3.4510   -1.9191   -1.6181 H   0  0  0  0  0  0  0  0  0  0  0  0
   -3.3695   -3.3759   -0.6180 H   0  0  0  0  0  0  0  0  0  0  0  0
  1 12  1  0  0  0  0
  1 13  1  0  0  0  0
  2  8  2  0  0  0  0
  3 11  1  0  0  0  0
  3 14  1  0  0  0  0
  4  8  1  0  0  0  0
  4  9  1  0  0  0  0
  4 10  1  0  0  0  0
  5  6  1  0  0  0  0
  5  7  1  0  0  0  0
  5  8  1  0  0  0  0
  5 15  1  0  0  0  0
  6  7  1  0  0  0  0
  6 16  1  0  0  0  0
  6 17  1  0  0  0  0
  7 18  1  0  0  0  0
  7 19  1  0  0  0  0
  9 11  1  0  0  0  0
  9 20  1  0  0  0  0
  9 21  1  0  0  0  0
 10 13  1  0  0  0  0
 10 22  1  0  0  0  0
 10 23  1  0  0  0  0
 11 12  1  0  0  0  0
 11 24  1  0  0  0  0
 12 25  1  0  0  0  0
 12 26  1  0  0  0  0
 13 27  1  0  0  0  0
 13 28  1  0  0  0  0
 14 29  1  0  0  0  0
 14 30  1  0  0  0  0
 14 31  1  0  0  0  0
M  END
> <PUBCHEM_COMPOUND_CID>
75536879

> <PUBCHEM_CONFORMER_RMSD>
0.6

> <PUBCHEM_CONFORMER_DIVERSEORDER>
2
10
28
12
18
48
54
55
53
67
22
25
64
61
68
60
59
38
57
62
49
41
26
3
56
66
8
43
9
23
17
45
40
29
19
50
36
15
39
51
31
65
13
5
37
6
63
16
35
32
27
46
7
21
20
42
14
33
30
52
47
4
34
1
44
58
24
11

> <PUBCHEM_MMFF94_PARTIAL_CHARGES>
19
1 -0.56
10 0.3
11 0.28
12 0.28
13 0.28
14 0.28
15 0.1
16 0.1
17 0.1
18 0.1
19 0.1
2 -0.57
3 -0.56
4 -0.66
5 -0.1
6 -0.2
7 -0.2
8 0.63
9 0.3

> <PUBCHEM_EFFECTIVE_ROTOR_COUNT>
5

> <PUBCHEM_PHARMACOPHORE_FEATURES>
4
1 1 acceptor
1 2 acceptor
1 3 acceptor
7 1 4 9 10 11 12 13 rings

> <PUBCHEM_HEAVY_ATOM_COUNT>
14

> <PUBCHEM_ATOM_DEF_STEREO_COUNT>
1

> <PUBCHEM_ATOM_UDEF_STEREO_COUNT>
0

> <PUBCHEM_BOND_DEF_STEREO_COUNT>
0

> <PUBCHEM_BOND_UDEF_STEREO_COUNT>
0

> <PUBCHEM_ISOTOPIC_ATOM_COUNT>
0

> <PUBCHEM_COMPONENT_COUNT>
1

> <PUBCHEM_CACTVS_TAUTO_COUNT>
1

> <PUBCHEM_CONFORMER_ID>
048099EF00000002

> <PUBCHEM_MMFF94_ENERGY>
40.2505

> <PUBCHEM_FEATURE_SELFOVERLAP>
20.298

> <PUBCHEM_SHAPE_FINGERPRINT>
11321824 6 17755002117162449722
12251169 10 18337959969737394680
12382932 28 18269836419776933818
12500047 106 18126841586857798080
12932764 1 18041288668736717588
13538477 17 18409455756230506524
14965852 173 18338516340027765274
15076042 46 18267314127033583144
15375462 189 18122073262700413947
15669948 3 18339371789711541868
15852999 172 17700409183137115645
16945 1 18268438927323069204
20361792 2 17095528348989751598
20442098 301 18337674101172761474
20724930 33 18410005533550840374
20871998 184 18267310841536186195
21501502 16 18409172112548557820
22112679 90 18341624753698708515
22445834 79 18115030680138917794
23388829 49 18196376037748655933
23402539 116 18129367238482293773
23419403 2 17764542807285251117
23500284 5 18335703870709139907
23552423 10 18187657954180729860
23598294 1 18271544064334996211
257057 1 18268983362078503375
3086196 2 18270949202648108026
6338986 31 18268981150070509007
81228 2 18340769252111334099

> <PUBCHEM_SHAPE_MULTIPOLES>
265.52
5.2
2.56
1.06
2.71
0.14
0.13
-2.69
0.78
-1.93
-0.23
-0.01
-0.03
-1.21

> <PUBCHEM_SHAPE_SELFOVERLAP>
529.749

> <PUBCHEM_SHAPE_VOLUME>
156.4

> <PUBCHEM_COORDINATE_TYPE>
2
5
10

$$$$
