75537079
  -OEChem-12032416333D

 46 49  0     1  0  0  0  0  0999 V2000
    2.5803    2.7620   -0.1683 O   0  0  0  0  0  0  0  0  0  0  0  0
    0.4388    1.7987   -0.2393 N   0  0  0  0  0  0  0  0  0  0  0  0
   -2.0981    0.9714    0.6499 N   0  0  2  0  0  0  0  0  0  0  0  0
    2.1418    0.6766   -1.1797 N   0  0  0  0  0  0  0  0  0  0  0  0
   -5.8732   -0.9369   -0.4414 N   0  0  0  0  0  0  0  0  0  0  0  0
    4.2254   -1.8857   -0.7959 N   0  0  0  0  0  0  0  0  0  0  0  0
   -5.3074   -2.1269   -0.1772 N   0  0  0  0  0  0  0  0  0  0  0  0
   -0.1837    0.6499   -0.8632 C   0  0  2  0  0  0  0  0  0  0  0  0
   -1.1508   -0.0246    0.1093 C   0  0  0  0  0  0  0  0  0  0  0  0
    0.9998   -0.2140   -1.2944 C   0  0  0  0  0  0  0  0  0  0  0  0
   -0.3890    2.7654    0.4516 C   0  0  0  0  0  0  0  0  0  0  0  0
   -1.3810    2.0446    1.3679 C   0  0  0  0  0  0  0  0  0  0  0  0
    1.8158    1.8626   -0.4915 C   0  0  0  0  0  0  0  0  0  0  0  0
   -3.0662    0.3249    1.5355 C   0  0  0  0  0  0  0  0  0  0  0  0
    3.4675    0.2813   -1.6016 C   0  0  0  0  0  0  0  0  0  0  0  0
   -4.1283   -0.4112    0.7628 C   0  0  0  0  0  0  0  0  0  0  0  0
    4.1609   -0.5561   -0.5600 C   0  0  0  0  0  0  0  0  0  0  0  0
   -5.2057    0.1228    0.0991 C   0  0  0  0  0  0  0  0  0  0  0  0
   -4.2420   -1.7994    0.5587 C   0  0  0  0  0  0  0  0  0  0  0  0
    4.6888    0.0590    0.5638 C   0  0  0  0  0  0  0  0  0  0  0  0
    5.3239   -0.7422    1.5061 C   0  0  0  0  0  0  0  0  0  0  0  0
   -7.0782   -0.8756   -1.2331 C   0  0  0  0  0  0  0  0  0  0  0  0
    4.8502   -2.6323    0.1422 C   0  0  0  0  0  0  0  0  0  0  0  0
    5.4105   -2.1145    1.2987 C   0  0  0  0  0  0  0  0  0  0  0  0
   -0.7222    1.0175   -1.7466 H   0  0  0  0  0  0  0  0  0  0  0  0
   -1.6760   -0.8170   -0.4352 H   0  0  0  0  0  0  0  0  0  0  0  0
   -0.5950   -0.5006    0.9287 H   0  0  0  0  0  0  0  0  0  0  0  0
    0.8979   -0.5629   -2.3264 H   0  0  0  0  0  0  0  0  0  0  0  0
    1.1601   -1.0712   -0.6324 H   0  0  0  0  0  0  0  0  0  0  0  0
   -0.9206    3.3436   -0.3128 H   0  0  0  0  0  0  0  0  0  0  0  0
    0.2459    3.4542    1.0177 H   0  0  0  0  0  0  0  0  0  0  0  0
   -0.8435    1.6267    2.2297 H   0  0  0  0  0  0  0  0  0  0  0  0
   -2.0921    2.7861    1.7512 H   0  0  0  0  0  0  0  0  0  0  0  0
   -3.5913    1.0814    2.1353 H   0  0  0  0  0  0  0  0  0  0  0  0
   -2.5780   -0.3473    2.2533 H   0  0  0  0  0  0  0  0  0  0  0  0
    3.3838   -0.2629   -2.5489 H   0  0  0  0  0  0  0  0  0  0  0  0
    4.0618    1.1828   -1.7916 H   0  0  0  0  0  0  0  0  0  0  0  0
   -5.5429    1.1424   -0.0295 H   0  0  0  0  0  0  0  0  0  0  0  0
   -3.5938   -2.5878    0.9144 H   0  0  0  0  0  0  0  0  0  0  0  0
    4.6245    1.1303    0.7170 H   0  0  0  0  0  0  0  0  0  0  0  0
    5.7520   -0.2981    2.3996 H   0  0  0  0  0  0  0  0  0  0  0  0
   -6.8673   -1.3080   -2.2143 H   0  0  0  0  0  0  0  0  0  0  0  0
   -7.8562   -1.4464   -0.7200 H   0  0  0  0  0  0  0  0  0  0  0  0
   -7.3905    0.1658   -1.3433 H   0  0  0  0  0  0  0  0  0  0  0  0
    4.8908   -3.6963   -0.0666 H   0  0  0  0  0  0  0  0  0  0  0  0
    5.9012   -2.7582    2.0196 H   0  0  0  0  0  0  0  0  0  0  0  0
  1 13  2  0  0  0  0
  2  8  1  0  0  0  0
  2 11  1  0  0  0  0
  2 13  1  0  0  0  0
  3  9  1  0  0  0  0
  3 12  1  0  0  0  0
  3 14  1  0  0  0  0
  4 10  1  0  0  0  0
  4 13  1  0  0  0  0
  4 15  1  0  0  0  0
  5  7  1  0  0  0  0
  5 18  1  0  0  0  0
  5 22  1  0  0  0  0
  6 17  1  0  0  0  0
  6 23  2  0  0  0  0
  7 19  2  0  0  0  0
  8  9  1  0  0  0  0
  8 10  1  0  0  0  0
  8 25  1  0  0  0  0
  9 26  1  0  0  0  0
  9 27  1  0  0  0  0
 10 28  1  0  0  0  0
 10 29  1  0  0  0  0
 11 12  1  0  0  0  0
 11 30  1  0  0  0  0
 11 31  1  0  0  0  0
 12 32  1  0  0  0  0
 12 33  1  0  0  0  0
 14 16  1  0  0  0  0
 14 34  1  0  0  0  0
 14 35  1  0  0  0  0
 15 17  1  0  0  0  0
 15 36  1  0  0  0  0
 15 37  1  0  0  0  0
 16 18  2  0  0  0  0
 16 19  1  0  0  0  0
 17 20  2  0  0  0  0
 18 38  1  0  0  0  0
 19 39  1  0  0  0  0
 20 21  1  0  0  0  0
 20 40  1  0  0  0  0
 21 24  2  0  0  0  0
 21 41  1  0  0  0  0
 22 42  1  0  0  0  0
 22 43  1  0  0  0  0
 22 44  1  0  0  0  0
 23 24  1  0  0  0  0
 23 45  1  0  0  0  0
 24 46  1  0  0  0  0
M  END
> <PUBCHEM_COMPOUND_CID>
75537079

> <PUBCHEM_CONFORMER_RMSD>
0.8

> <PUBCHEM_CONFORMER_DIVERSEORDER>
1
46
215
17
199
173
196
130
183
11
200
198
118
108
35
112
167
89
113
65
47
99
202
87
193
124
126
141
121
78
151
32
150
155
105
84
184
145
172
81
177
164
147
23
111
55
168
109
212
116
207
41
175
92
120
143
80
62
50
68
140
7
114
217
122
132
67
171
176
205
100
128
123
135
73
148
83
127
54
213
211
103
157
63
201
179
180
93
8
58
158
72
25
178
13
64
115
159
142
26
95
156
6
133
86
90
149
204
88
94
10
209
187
28
30
82
96
22
34
154
194
60
20
144
85
210
70
153
206
188
129
131
160
66
181
21
117
48
52
77
191
97
119
161
192
182
51
71
216
163
169
57
33
61
174
37
24
42
91
3
170
12
136
190
69
139
4
31
162
101
125
15
49
197
106
76
138
165
16
189
195
40
38
185
19
29
36
166
56
152
39
45
186
14
53
59
102
107
203
74
137
208
110
43
146
27
5
75
104
134
214
18
44
9
79
2
98

> <PUBCHEM_MMFF94_PARTIAL_CHARGES>
30
1 -0.57
10 0.3
11 0.3
12 0.27
13 0.69
14 0.45
15 0.44
16 -0.18
17 0.17
18 -0.3
19 0.14
2 -0.66
20 -0.15
21 -0.15
22 0.26
23 0.16
24 -0.15
3 -0.81
38 0.15
39 0.15
4 -0.66
40 0.15
41 0.15
45 0.15
46 0.15
5 0.31
6 -0.62
7 -0.71
8 0.3
9 0.27

> <PUBCHEM_EFFECTIVE_ROTOR_COUNT>
5.2

> <PUBCHEM_PHARMACOPHORE_FEATURES>
8
1 1 acceptor
1 3 cation
1 6 acceptor
1 7 acceptor
5 2 4 8 10 13 rings
5 5 7 16 18 19 rings
6 2 3 8 9 11 12 rings
6 6 17 20 21 23 24 rings

> <PUBCHEM_HEAVY_ATOM_COUNT>
24

> <PUBCHEM_ATOM_DEF_STEREO_COUNT>
1

> <PUBCHEM_ATOM_UDEF_STEREO_COUNT>
0

> <PUBCHEM_BOND_DEF_STEREO_COUNT>
0

> <PUBCHEM_BOND_UDEF_STEREO_COUNT>
0

> <PUBCHEM_ISOTOPIC_ATOM_COUNT>
0

> <PUBCHEM_COMPONENT_COUNT>
1

> <PUBCHEM_CACTVS_TAUTO_COUNT>
1

> <PUBCHEM_CONFORMER_ID>
04809AB700000001

> <PUBCHEM_MMFF94_ENERGY>
47.4381

> <PUBCHEM_FEATURE_SELFOVERLAP>
40.693

> <PUBCHEM_SHAPE_FINGERPRINT>
10447042 23 18408324406184011428
10613725 11 15936405628772222743
10674148 151 15213291989554137574
10753850 27 18410294718505420539
10794284 68 12173050156097900077
11796584 16 17313104189202208203
12596602 18 17775004557771528162
12839892 36 17917435293601159727
12892183 10 17774438262222867712
12895836 83 8862644812265867866
13083527 12 18343024388993672420
13533116 47 18409167727397374880
13782708 43 17750525142924233571
13885169 86 10159401150515790915
13911852 28 18263641771488077058
13914758 101 18335136458991254805
14251740 57 18059020475921396798
14251751 18 18334289872906543879
1454969 45 18336554889194546284
14848178 5 18333734606618226698
14950920 106 15051187648702520102
15163728 17 10663806508495132056
15183329 4 15864067650626445351
15188451 53 18337383851635952426
15210252 30 9655282732093390334
15342168 16 10159700170401711529
15475509 8 15140957314660457479
17349148 13 18341624710627761815
17857418 61 18408606963276358411
18222031 100 18343032081406284644
19377110 9 14549011105031756917
20028762 73 18272089383506593086
20567600 234 16128367211781018971
20621476 78 18259981548322790402
20621476 91 15697993072650984207
21315763 87 16702305654820645007
21315764 119 16660359269062213335
21458453 9 15768630148536299523
21728266 224 18340208496801831217
22061861 79 17022904562119148431
22079108 93 14477238262571371422
23559900 14 18261960772495590913
3004659 81 18335993037771460622
312425 54 17559405660102178282
339767 52 18413386544876146595
3459 110 14979656841241027927
3472631 163 9222934981468304978
376196 1 14132753741092042348
38570 142 10807933799672529792
439807 62 18264773349975103367
5085150 59 17917990552112179255
5104073 3 18058744605897626033
56616090 163 9151168775001962144
5924683 9 18340491045388679137
59682541 52 15719385114313520995
59755656 520 15719685260510476137
6034566 193 9943225087115174694
6438161 24 18342731958394023303
6443934 186 16199857488057891354
76465 3 18408609145061845928
7808743 9 9151163234340818665
8988823 20 18410009974816186292
960060 61 16443356372875565406

> <PUBCHEM_SHAPE_MULTIPOLES>
458.15
15.62
2.75
1.43
11.18
0.57
-0.05
-13.09
-0.35
-1.51
-0.4
-0.55
-0.01
-1.47

> <PUBCHEM_SHAPE_SELFOVERLAP>
980.555

> <PUBCHEM_SHAPE_VOLUME>
256

> <PUBCHEM_COORDINATE_TYPE>
2
5
10

$$$$
