71693424
  -OEChem-12032416233D

 51 53  0     1  0  0  0  0  0999 V2000
    2.0766   -1.8401   -1.7019 O   0  0  0  0  0  0  0  0  0  0  0  0
    4.1557   -1.3809    2.4978 O   0  0  0  0  0  0  0  0  0  0  0  0
    4.3754    0.6847   -1.9232 O   0  0  0  0  0  0  0  0  0  0  0  0
   -4.2624    0.5963   -1.0343 O   0  0  0  0  0  0  0  0  0  0  0  0
   -6.7852    0.6862   -0.3855 O   0  0  0  0  0  0  0  0  0  0  0  0
    3.2439   -0.0645   -0.0244 N   0  0  0  0  0  0  0  0  0  0  0  0
   -3.7775   -1.1665    0.4523 N   0  0  0  0  0  0  0  0  0  0  0  0
    1.0994    3.7126   -0.7924 N   0  0  0  0  0  0  0  0  0  0  0  0
    2.6481   -1.2217    0.6523 C   0  0  1  0  0  0  0  0  0  0  0  0
    1.7976   -2.0825   -0.3188 C   0  0  1  0  0  0  0  0  0  0  0  0
    3.7313   -2.0657    1.3372 C   0  0  0  0  0  0  0  0  0  0  0  0
    0.3144   -1.8382   -0.1134 C   0  0  0  0  0  0  0  0  0  0  0  0
    3.4268    1.1581    0.7433 C   0  0  0  0  0  0  0  0  0  0  0  0
    3.7366   -0.1764   -1.3222 C   0  0  0  0  0  0  0  0  0  0  0  0
    3.4253   -1.5088   -1.9609 C   0  0  0  0  0  0  0  0  0  0  0  0
    2.2717    2.1030    0.5787 C   0  0  0  0  0  0  0  0  0  0  0  0
   -0.3978   -2.6071    0.8071 C   0  0  0  0  0  0  0  0  0  0  0  0
   -0.3373   -0.8454   -0.8450 C   0  0  0  0  0  0  0  0  0  0  0  0
   -1.7615   -2.3834    0.9959 C   0  0  0  0  0  0  0  0  0  0  0  0
   -1.7011   -0.6216   -0.6563 C   0  0  0  0  0  0  0  0  0  0  0  0
   -2.4132   -1.3906    0.2641 C   0  0  0  0  0  0  0  0  0  0  0  0
    1.3263    2.2615    1.5859 C   0  0  0  0  0  0  0  0  0  0  0  0
    2.1143    2.8450   -0.5809 C   0  0  0  0  0  0  0  0  0  0  0  0
    0.2677    3.1447    1.4055 C   0  0  0  0  0  0  0  0  0  0  0  0
    0.2001    3.8401    0.2090 C   0  0  0  0  0  0  0  0  0  0  0  0
   -4.5955   -0.2240   -0.1846 C   0  0  0  0  0  0  0  0  0  0  0  0
   -6.0289   -0.2931    0.2957 C   0  0  0  0  0  0  0  0  0  0  0  0
   -8.1509    0.6780    0.0191 C   0  0  0  0  0  0  0  0  0  0  0  0
    1.9973   -0.8295    1.4460 H   0  0  0  0  0  0  0  0  0  0  0  0
    1.9826   -3.1514   -0.1529 H   0  0  0  0  0  0  0  0  0  0  0  0
    4.5977   -2.2380    0.6919 H   0  0  0  0  0  0  0  0  0  0  0  0
    3.3295   -3.0319    1.6586 H   0  0  0  0  0  0  0  0  0  0  0  0
    4.3401    1.6623    0.4030 H   0  0  0  0  0  0  0  0  0  0  0  0
    3.5887    0.9222    1.7996 H   0  0  0  0  0  0  0  0  0  0  0  0
    3.5470   -1.4168   -3.0444 H   0  0  0  0  0  0  0  0  0  0  0  0
    4.1044   -2.2878   -1.6017 H   0  0  0  0  0  0  0  0  0  0  0  0
    0.0996   -3.3816    1.3848 H   0  0  0  0  0  0  0  0  0  0  0  0
    0.1982   -0.2225   -1.5565 H   0  0  0  0  0  0  0  0  0  0  0  0
    4.8358   -1.9297    2.9239 H   0  0  0  0  0  0  0  0  0  0  0  0
   -2.3038   -2.9897    1.7170 H   0  0  0  0  0  0  0  0  0  0  0  0
   -2.1342    0.1668   -1.2558 H   0  0  0  0  0  0  0  0  0  0  0  0
    1.4023    1.7014    2.5138 H   0  0  0  0  0  0  0  0  0  0  0  0
    2.8201    2.7765   -1.4017 H   0  0  0  0  0  0  0  0  0  0  0  0
   -4.2260   -1.7686    1.1397 H   0  0  0  0  0  0  0  0  0  0  0  0
   -0.4816    3.2833    2.1764 H   0  0  0  0  0  0  0  0  0  0  0  0
   -0.6064    4.5405    0.0187 H   0  0  0  0  0  0  0  0  0  0  0  0
   -6.4244   -1.2927    0.0840 H   0  0  0  0  0  0  0  0  0  0  0  0
   -6.0494   -0.1048    1.3750 H   0  0  0  0  0  0  0  0  0  0  0  0
   -8.6093   -0.2903   -0.2038 H   0  0  0  0  0  0  0  0  0  0  0  0
   -8.2337    0.8984    1.0877 H   0  0  0  0  0  0  0  0  0  0  0  0
   -8.6799    1.4537   -0.5409 H   0  0  0  0  0  0  0  0  0  0  0  0
  1 10  1  0  0  0  0
  1 15  1  0  0  0  0
  2 11  1  0  0  0  0
  2 39  1  0  0  0  0
  3 14  2  0  0  0  0
  4 26  2  0  0  0  0
  5 27  1  0  0  0  0
  5 28  1  0  0  0  0
  6  9  1  0  0  0  0
  6 13  1  0  0  0  0
  6 14  1  0  0  0  0
  7 21  1  0  0  0  0
  7 26  1  0  0  0  0
  7 44  1  0  0  0  0
  8 23  1  0  0  0  0
  8 25  2  0  0  0  0
  9 10  1  0  0  0  0
  9 11  1  0  0  0  0
  9 29  1  0  0  0  0
 10 12  1  0  0  0  0
 10 30  1  0  0  0  0
 11 31  1  0  0  0  0
 11 32  1  0  0  0  0
 12 17  2  0  0  0  0
 12 18  1  0  0  0  0
 13 16  1  0  0  0  0
 13 33  1  0  0  0  0
 13 34  1  0  0  0  0
 14 15  1  0  0  0  0
 15 35  1  0  0  0  0
 15 36  1  0  0  0  0
 16 22  1  0  0  0  0
 16 23  2  0  0  0  0
 17 19  1  0  0  0  0
 17 37  1  0  0  0  0
 18 20  2  0  0  0  0
 18 38  1  0  0  0  0
 19 21  2  0  0  0  0
 19 40  1  0  0  0  0
 20 21  1  0  0  0  0
 20 41  1  0  0  0  0
 22 24  2  0  0  0  0
 22 42  1  0  0  0  0
 23 43  1  0  0  0  0
 24 25  1  0  0  0  0
 24 45  1  0  0  0  0
 25 46  1  0  0  0  0
 26 27  1  0  0  0  0
 27 47  1  0  0  0  0
 27 48  1  0  0  0  0
 28 49  1  0  0  0  0
 28 50  1  0  0  0  0
 28 51  1  0  0  0  0
M  END
> <PUBCHEM_COMPOUND_CID>
71693424

> <PUBCHEM_CONFORMER_RMSD>
1

> <PUBCHEM_CONFORMER_DIVERSEORDER>
1
23
18
45
55
51
7
14
38
33
48
53
13
17
4
29
42
43
46
54
27
50
8
25
35
52
32
5
2
19
10
11
56
37
16
3
41
26
39
47
40
22
31
20
15
28
24
36
30
6
21
44
34
9
12
49

> <PUBCHEM_MMFF94_PARTIAL_CHARGES>
38
1 -0.56
10 0.42
11 0.28
12 -0.14
13 0.44
14 0.57
15 0.34
16 -0.14
17 -0.15
18 -0.15
19 -0.15
2 -0.68
20 -0.15
21 0.12
22 -0.15
23 0.16
24 -0.15
25 0.16
26 0.57
27 0.34
28 0.28
3 -0.57
37 0.15
38 0.15
39 0.4
4 -0.57
40 0.15
41 0.15
42 0.15
43 0.15
44 0.37
45 0.15
46 0.15
5 -0.56
6 -0.66
7 -0.55
8 -0.62
9 0.3

> <PUBCHEM_EFFECTIVE_ROTOR_COUNT>
9

> <PUBCHEM_PHARMACOPHORE_FEATURES>
11
1 1 acceptor
1 2 acceptor
1 2 donor
1 3 acceptor
1 4 acceptor
1 5 acceptor
1 7 donor
1 8 acceptor
6 1 6 9 10 14 15 rings
6 12 17 18 19 20 21 rings
6 8 16 22 23 24 25 rings

> <PUBCHEM_HEAVY_ATOM_COUNT>
28

> <PUBCHEM_ATOM_DEF_STEREO_COUNT>
2

> <PUBCHEM_ATOM_UDEF_STEREO_COUNT>
0

> <PUBCHEM_BOND_DEF_STEREO_COUNT>
0

> <PUBCHEM_BOND_UDEF_STEREO_COUNT>
0

> <PUBCHEM_ISOTOPIC_ATOM_COUNT>
0

> <PUBCHEM_COMPONENT_COUNT>
1

> <PUBCHEM_CACTVS_TAUTO_COUNT>
6

> <PUBCHEM_CONFORMER_ID>
0445F47000000001

> <PUBCHEM_MMFF94_ENERGY>
82.8259

> <PUBCHEM_FEATURE_SELFOVERLAP>
55.836

> <PUBCHEM_SHAPE_FINGERPRINT>
10074138 170 15593813963562644483
10675989 125 18200597020329341201
11456790 92 18115587042198102569
11595378 159 15574981880551484863
12596602 18 14562533990262803101
12633257 1 18043510901821386050
12788726 201 18339651035864268832
128993 33 17115228620994965336
13150687 139 10735299022598003698
13402501 40 18409445908002521477
14251764 38 18122339344809566031
14537116 161 18341619175158956709
14713325 29 15736578560802169340
14931854 50 18339657654166194997
151778 21 18048038759662018413
15210252 30 18261968417832900724
15238133 3 18260828241633678682
15322687 12 18335708281735413789
15420108 30 17557116700901074968
15848702 68 18337101371626111066
15968369 153 17773015494225011569
17093844 170 18340484573036858056
17492 54 18265358233988350100
20554085 129 16950556668022422185
20567600 299 17987232424950225633
20642791 105 17682101193426880860
21475661 188 18336826515135890151
21860390 5 18272652380508507967
221357 26 18272093756067259773
22289505 5 18342465845718433902
23558518 356 17691673906767812534
23559900 14 18202009858178659503
238 59 17551777544986698326
24893992 56 18335140908588183051
3052486 1 18194122906832771064
3680242 22 18335702681224362065
4340502 62 12540703655802103407
513532 50 17632301215350108076
53794403 172 18118409668751061493
5939293 188 18270113651589680568
60111433 81 17345173696827912105
6086070 43 18408889572425616243
70251023 43 17771639948642430694
8509985 295 18261100868497867722

> <PUBCHEM_SHAPE_MULTIPOLES>
531.94
12.35
4.14
1.65
31.88
3.99
-0.06
0.27
1.23
-2.92
-0.78
-2.36
-0.34
0.23

> <PUBCHEM_SHAPE_SELFOVERLAP>
1125.294

> <PUBCHEM_SHAPE_VOLUME>
293.6

> <PUBCHEM_COORDINATE_TYPE>
2
5
10

$$$$
