25338588
  -OEChem-12032416213D

 50 52  0     1  0  0  0  0  0999 V2000
   -3.7597    1.5794   -0.3713 S   0  0  0  0  0  0  0  0  0  0  0  0
    1.1265   -2.9897   -0.8934 O   0  0  0  0  0  0  0  0  0  0  0  0
   -3.8449    1.2781   -1.7869 O   0  0  0  0  0  0  0  0  0  0  0  0
   -3.1545    2.8144    0.0891 O   0  0  0  0  0  0  0  0  0  0  0  0
    6.4038    2.4181    0.2899 O   0  0  0  0  0  0  0  0  0  0  0  0
   -1.6377   -2.2936    1.1800 N   0  0  1  0  0  0  0  0  0  0  0  0
   -3.0242    0.2875    0.4567 N   0  0  0  0  0  0  0  0  0  0  0  0
    0.9518   -0.9359   -0.0169 N   0  0  0  0  0  0  0  0  0  0  0  0
    2.4161   -2.4438   -0.9202 N   0  0  0  0  0  0  0  0  0  0  0  0
   -3.2026   -1.0918   -0.0639 C   0  0  1  0  0  0  0  0  0  0  0  0
   -1.1397   -2.3880   -0.2056 C   0  0  1  0  0  0  0  0  0  0  0  0
   -2.0548   -1.4422   -1.0075 C   0  0  0  0  0  0  0  0  0  0  0  0
   -3.0867   -2.0953    1.0717 C   0  0  0  0  0  0  0  0  0  0  0  0
    0.3259   -2.0372   -0.3474 C   0  0  0  0  0  0  0  0  0  0  0  0
   -1.3085   -3.4606    1.9897 C   0  0  0  0  0  0  0  0  0  0  0  0
   -5.4038    1.5103    0.3027 C   0  0  0  0  0  0  0  0  0  0  0  0
   -6.2908    2.5927   -0.2897 C   0  0  0  0  0  0  0  0  0  0  0  0
    2.2313   -1.2324   -0.3870 C   0  0  0  0  0  0  0  0  0  0  0  0
   -7.6908    2.5482    0.2992 C   0  0  0  0  0  0  0  0  0  0  0  0
    3.3026   -0.2948   -0.2119 C   0  0  0  0  0  0  0  0  0  0  0  0
    3.0500    0.9570    0.3493 C   0  0  0  0  0  0  0  0  0  0  0  0
    4.5973   -0.6348   -0.6044 C   0  0  0  0  0  0  0  0  0  0  0  0
    4.0919    1.8689    0.5179 C   0  0  0  0  0  0  0  0  0  0  0  0
    5.6393    0.2771   -0.4358 C   0  0  0  0  0  0  0  0  0  0  0  0
    5.3865    1.5288    0.1253 C   0  0  0  0  0  0  0  0  0  0  0  0
    6.0755    3.6796    0.8703 C   0  0  0  0  0  0  0  0  0  0  0  0
   -4.1754   -1.1800   -0.5583 H   0  0  0  0  0  0  0  0  0  0  0  0
   -1.2966   -3.4059   -0.5909 H   0  0  0  0  0  0  0  0  0  0  0  0
   -1.5345   -0.5510   -1.3772 H   0  0  0  0  0  0  0  0  0  0  0  0
   -2.4468   -1.9785   -1.8807 H   0  0  0  0  0  0  0  0  0  0  0  0
   -3.5190   -1.7310    2.0097 H   0  0  0  0  0  0  0  0  0  0  0  0
   -3.5918   -3.0291    0.7918 H   0  0  0  0  0  0  0  0  0  0  0  0
   -2.7751    0.3915    1.4476 H   0  0  0  0  0  0  0  0  0  0  0  0
   -1.7008   -3.3410    3.0055 H   0  0  0  0  0  0  0  0  0  0  0  0
   -0.2231   -3.5747    2.0817 H   0  0  0  0  0  0  0  0  0  0  0  0
   -1.7171   -4.3875    1.5715 H   0  0  0  0  0  0  0  0  0  0  0  0
   -5.3175    1.6302    1.3875 H   0  0  0  0  0  0  0  0  0  0  0  0
   -5.8129    0.5196    0.0821 H   0  0  0  0  0  0  0  0  0  0  0  0
   -5.8546    3.5813   -0.1049 H   0  0  0  0  0  0  0  0  0  0  0  0
   -6.3536    2.4751   -1.3778 H   0  0  0  0  0  0  0  0  0  0  0  0
   -8.1701    1.5844    0.0992 H   0  0  0  0  0  0  0  0  0  0  0  0
   -7.6656    2.7014    1.3829 H   0  0  0  0  0  0  0  0  0  0  0  0
   -8.3125    3.3343   -0.1405 H   0  0  0  0  0  0  0  0  0  0  0  0
    2.0516    1.2505    0.6646 H   0  0  0  0  0  0  0  0  0  0  0  0
    4.8324   -1.6002   -1.0453 H   0  0  0  0  0  0  0  0  0  0  0  0
    3.8261    2.8230    0.9600 H   0  0  0  0  0  0  0  0  0  0  0  0
    6.6459    0.0071   -0.7433 H   0  0  0  0  0  0  0  0  0  0  0  0
    7.0020    4.2604    0.9266 H   0  0  0  0  0  0  0  0  0  0  0  0
    5.7060    3.5671    1.8952 H   0  0  0  0  0  0  0  0  0  0  0  0
    5.3818    4.2448    0.2386 H   0  0  0  0  0  0  0  0  0  0  0  0
  1  3  2  0  0  0  0
  1  4  2  0  0  0  0
  1  7  1  0  0  0  0
  1 16  1  0  0  0  0
  2  9  1  0  0  0  0
  2 14  1  0  0  0  0
  5 25  1  0  0  0  0
  5 26  1  0  0  0  0
  6 11  1  0  0  0  0
  6 13  1  0  0  0  0
  6 15  1  0  0  0  0
  7 10  1  0  0  0  0
  7 33  1  0  0  0  0
  8 14  2  0  0  0  0
  8 18  1  0  0  0  0
  9 18  2  0  0  0  0
 10 12  1  0  0  0  0
 10 13  1  0  0  0  0
 10 27  1  0  0  0  0
 11 12  1  0  0  0  0
 11 14  1  0  0  0  0
 11 28  1  0  0  0  0
 12 29  1  0  0  0  0
 12 30  1  0  0  0  0
 13 31  1  0  0  0  0
 13 32  1  0  0  0  0
 15 34  1  0  0  0  0
 15 35  1  0  0  0  0
 15 36  1  0  0  0  0
 16 17  1  0  0  0  0
 16 37  1  0  0  0  0
 16 38  1  0  0  0  0
 17 19  1  0  0  0  0
 17 39  1  0  0  0  0
 17 40  1  0  0  0  0
 18 20  1  0  0  0  0
 19 41  1  0  0  0  0
 19 42  1  0  0  0  0
 19 43  1  0  0  0  0
 20 21  2  0  0  0  0
 20 22  1  0  0  0  0
 21 23  1  0  0  0  0
 21 44  1  0  0  0  0
 22 24  2  0  0  0  0
 22 45  1  0  0  0  0
 23 25  2  0  0  0  0
 23 46  1  0  0  0  0
 24 25  1  0  0  0  0
 24 47  1  0  0  0  0
 26 48  1  0  0  0  0
 26 49  1  0  0  0  0
 26 50  1  0  0  0  0
M  END
> <PUBCHEM_COMPOUND_CID>
25338588

> <PUBCHEM_CONFORMER_RMSD>
1

> <PUBCHEM_CONFORMER_DIVERSEORDER>
1
70
45
33
73
84
28
86
89
18
34
49
91
75
83
21
47
44
14
71
53
90
12
35
74
41
78
50
23
69
17
72
59
79
87
80
19
46
51
39
82
63
4
22
40
61
62
58
88
37
20
43
13
68
55
31
60
67
5
25
16
24
7
27
3
54
52
42
6
36
66
26
10
15
77
29
81
56
65
8
11
76
48
30
38
85
32
64
9
57
2

> <PUBCHEM_MMFF94_PARTIAL_CHARGES>
28
1 1.33
10 0.36
11 0.45
13 0.27
14 0.3
15 0.27
16 0.11
18 0.46
2 -0.02
20 0.05
21 -0.15
22 -0.15
23 -0.15
24 -0.15
25 0.08
26 0.28
3 -0.65
33 0.42
4 -0.65
44 0.15
45 0.15
46 0.15
47 0.15
5 -0.36
6 -0.81
7 -0.91
8 -0.57
9 -0.41

> <PUBCHEM_EFFECTIVE_ROTOR_COUNT>
8

> <PUBCHEM_PHARMACOPHORE_FEATURES>
10
1 19 hydrophobe
1 3 acceptor
1 4 acceptor
1 5 acceptor
1 6 cation
1 7 donor
3 8 9 18 cation
5 2 8 9 14 18 rings
5 6 10 11 12 13 rings
6 20 21 22 23 24 25 rings

> <PUBCHEM_HEAVY_ATOM_COUNT>
26

> <PUBCHEM_ATOM_DEF_STEREO_COUNT>
2

> <PUBCHEM_ATOM_UDEF_STEREO_COUNT>
0

> <PUBCHEM_BOND_DEF_STEREO_COUNT>
0

> <PUBCHEM_BOND_UDEF_STEREO_COUNT>
0

> <PUBCHEM_ISOTOPIC_ATOM_COUNT>
0

> <PUBCHEM_COMPONENT_COUNT>
1

> <PUBCHEM_CACTVS_TAUTO_COUNT>
1

> <PUBCHEM_CONFORMER_ID>
0182A2DC00000001

> <PUBCHEM_MMFF94_ENERGY>
49.4397

> <PUBCHEM_FEATURE_SELFOVERLAP>
50.763

> <PUBCHEM_SHAPE_FINGERPRINT>
10074138 170 17241060889591096635
11135609 187 18343299233068828025
12107183 9 18189041007308337514
12403259 415 18341060700234357686
13402501 40 18411700984728664321
13540713 4 18339380616023212350
14347329 18 18341604962890706080
14565420 104 18114745902828280811
14739800 52 18188484679487390251
14950920 106 14418140629264945828
15519825 34 16443642310587054681
18608769 82 18412265069365335139
19438510 23 18335136496675276752
20715895 44 18341894082798225512
21033648 29 18187089450797567395
21049683 118 17894628115733058019
21401589 2 18333165072806767227
23559900 14 18268712710689365318
270888 7 18411979161138576777
2838139 119 18339918212889290759
3246875 12 18408606955546052761
497634 4 16844177946181001615
5104073 3 18113892780420881386
57634706 280 18188496770774805451
59682541 35 18188505601544349929
6327066 14 18412823594811760781
7288768 16 18259703389530129203
90127 26 18339369681727059862
9981440 41 18335984254543040362

> <PUBCHEM_SHAPE_MULTIPOLES>
495.52
16.98
4.62
1.15
2.41
0.19
-0.17
23.33
-0.88
0.99
-1.23
0.48
-0.67
2.42

> <PUBCHEM_SHAPE_SELFOVERLAP>
1025.054

> <PUBCHEM_SHAPE_VOLUME>
287.6

> <PUBCHEM_COORDINATE_TYPE>
2
5
10

$$$$
