45783250
  -OEChem-12032416233D

 65 67  0     1  0  0  0  0  0999 V2000
   -4.0276    3.4067   -0.4795 S   0  0  0  0  0  0  0  0  0  0  0  0
   -2.0361   -0.8399    2.1402 O   0  0  0  0  0  0  0  0  0  0  0  0
   -3.3397    2.9509    2.7483 O   0  0  0  0  0  0  0  0  0  0  0  0
    3.5526    0.3273    1.7185 O   0  0  0  0  0  0  0  0  0  0  0  0
   -3.8561   -2.9361   -0.7154 O   0  0  0  0  0  0  0  0  0  0  0  0
   -5.9022    0.9957   -2.8725 O   0  0  0  0  0  0  0  0  0  0  0  0
   -3.7501    1.7259   -2.8911 O   0  0  0  0  0  0  0  0  0  0  0  0
   -1.8378    1.6766    1.5066 N   0  0  0  0  0  0  0  0  0  0  0  0
    2.1889    1.3821    0.1676 N   0  0  0  0  0  0  0  0  0  0  0  0
   -1.5485   -1.6261    0.0040 N   0  0  0  0  0  0  0  0  0  0  0  0
   -3.4881   -4.4408    0.9807 N   0  0  0  0  0  0  0  0  0  0  0  0
    4.3937    2.1140   -1.1996 N   0  0  0  0  0  0  0  0  0  0  0  0
    6.9778    1.4150   -0.3633 N   0  0  0  0  0  0  0  0  0  0  0  0
    0.9342    1.0785    0.8122 C   0  0  2  0  0  0  0  0  0  0  0  0
   -1.5684    0.7360    0.4068 C   0  0  1  0  0  0  0  0  0  0  0  0
   -0.1857    0.9243   -0.2211 C   0  0  0  0  0  0  0  0  0  0  0  0
    0.5737    2.1624    1.8255 C   0  0  0  0  0  0  0  0  0  0  0  0
   -0.7638    1.8626    2.4896 C   0  0  0  0  0  0  0  0  0  0  0  0
   -1.7538   -0.6467    0.9605 C   0  0  0  0  0  0  0  0  0  0  0  0
   -3.0811    2.2718    1.7509 C   0  0  0  0  0  0  0  0  0  0  0  0
   -1.6445   -3.0401    0.2868 C   0  0  2  0  0  0  0  0  0  0  0  0
   -4.1515    2.0625    0.7086 C   0  0  0  0  0  0  0  0  0  0  0  0
    3.4095    0.9740    0.6843 C   0  0  0  0  0  0  0  0  0  0  0  0
   -0.7593   -3.8786   -0.6423 C   0  0  0  0  0  0  0  0  0  0  0  0
   -3.1058   -3.4315    0.1222 C   0  0  0  0  0  0  0  0  0  0  0  0
    4.6111    1.3895   -0.0842 C   0  0  0  0  0  0  0  0  0  0  0  0
    0.7019   -3.5135   -0.5431 C   0  0  0  0  0  0  0  0  0  0  0  0
   -5.3794    2.9291   -1.5843 C   0  0  0  0  0  0  0  0  0  0  0  0
    5.8803    1.0460    0.3266 C   0  0  0  0  0  0  0  0  0  0  0  0
    1.2324   -2.5267   -1.3739 C   0  0  0  0  0  0  0  0  0  0  0  0
    1.5217   -4.1633    0.3795 C   0  0  0  0  0  0  0  0  0  0  0  0
    2.5829   -2.1895   -1.2822 C   0  0  0  0  0  0  0  0  0  0  0  0
    2.8721   -3.8263    0.4713 C   0  0  0  0  0  0  0  0  0  0  0  0
    5.4911    2.4829   -1.8896 C   0  0  0  0  0  0  0  0  0  0  0  0
    3.4027   -2.8394   -0.3596 C   0  0  0  0  0  0  0  0  0  0  0  0
   -4.9077    1.8452   -2.5104 C   0  0  0  0  0  0  0  0  0  0  0  0
    6.7604    2.1395   -1.4788 C   0  0  0  0  0  0  0  0  0  0  0  0
    1.0524    0.1259    1.3446 H   0  0  0  0  0  0  0  0  0  0  0  0
   -2.2909    0.8589   -0.4017 H   0  0  0  0  0  0  0  0  0  0  0  0
   -0.2205    1.8441   -0.8234 H   0  0  0  0  0  0  0  0  0  0  0  0
    0.0679    0.1308   -0.9295 H   0  0  0  0  0  0  0  0  0  0  0  0
    1.3535    2.2447    2.5921 H   0  0  0  0  0  0  0  0  0  0  0  0
    0.5232    3.1379    1.3237 H   0  0  0  0  0  0  0  0  0  0  0  0
   -1.0137    2.6823    3.1716 H   0  0  0  0  0  0  0  0  0  0  0  0
   -0.6897    0.9589    3.1031 H   0  0  0  0  0  0  0  0  0  0  0  0
    2.1760    1.9599   -0.6683 H   0  0  0  0  0  0  0  0  0  0  0  0
   -1.4578   -1.3512   -0.9696 H   0  0  0  0  0  0  0  0  0  0  0  0
   -1.3457   -3.1952    1.3314 H   0  0  0  0  0  0  0  0  0  0  0  0
   -5.1185    2.1382    1.2200 H   0  0  0  0  0  0  0  0  0  0  0  0
   -4.1312    1.0725    0.2530 H   0  0  0  0  0  0  0  0  0  0  0  0
   -0.8846   -4.9463   -0.4186 H   0  0  0  0  0  0  0  0  0  0  0  0
   -1.0871   -3.7651   -1.6850 H   0  0  0  0  0  0  0  0  0  0  0  0
   -6.2383    2.5923   -0.9969 H   0  0  0  0  0  0  0  0  0  0  0  0
   -5.6798    3.7899   -2.1883 H   0  0  0  0  0  0  0  0  0  0  0  0
    0.6082   -2.0190   -2.1040 H   0  0  0  0  0  0  0  0  0  0  0  0
    1.1191   -4.9321    1.0337 H   0  0  0  0  0  0  0  0  0  0  0  0
    6.0734    0.4633    1.2195 H   0  0  0  0  0  0  0  0  0  0  0  0
   -4.4346   -4.8061    0.9658 H   0  0  0  0  0  0  0  0  0  0  0  0
   -2.8508   -4.8562    1.6526 H   0  0  0  0  0  0  0  0  0  0  0  0
    2.9960   -1.4210   -1.9289 H   0  0  0  0  0  0  0  0  0  0  0  0
    3.5103   -4.3312    1.1905 H   0  0  0  0  0  0  0  0  0  0  0  0
    4.4537   -2.5753   -0.2870 H   0  0  0  0  0  0  0  0  0  0  0  0
    5.3171    3.0650   -2.7860 H   0  0  0  0  0  0  0  0  0  0  0  0
    7.6417    2.4362   -2.0338 H   0  0  0  0  0  0  0  0  0  0  0  0
   -5.5795    0.2885   -3.4709 H   0  0  0  0  0  0  0  0  0  0  0  0
  1 22  1  0  0  0  0
  1 28  1  0  0  0  0
  2 19  2  0  0  0  0
  3 20  2  0  0  0  0
  4 23  2  0  0  0  0
  5 25  2  0  0  0  0
  6 36  1  0  0  0  0
  6 65  1  0  0  0  0
  7 36  2  0  0  0  0
  8 15  1  0  0  0  0
  8 18  1  0  0  0  0
  8 20  1  0  0  0  0
  9 14  1  0  0  0  0
  9 23  1  0  0  0  0
  9 46  1  0  0  0  0
 10 19  1  0  0  0  0
 10 21  1  0  0  0  0
 10 47  1  0  0  0  0
 11 25  1  0  0  0  0
 11 58  1  0  0  0  0
 11 59  1  0  0  0  0
 12 26  2  0  0  0  0
 12 34  1  0  0  0  0
 13 29  2  0  0  0  0
 13 37  1  0  0  0  0
 14 16  1  0  0  0  0
 14 17  1  0  0  0  0
 14 38  1  0  0  0  0
 15 16  1  0  0  0  0
 15 19  1  0  0  0  0
 15 39  1  0  0  0  0
 16 40  1  0  0  0  0
 16 41  1  0  0  0  0
 17 18  1  0  0  0  0
 17 42  1  0  0  0  0
 17 43  1  0  0  0  0
 18 44  1  0  0  0  0
 18 45  1  0  0  0  0
 20 22  1  0  0  0  0
 21 24  1  0  0  0  0
 21 25  1  0  0  0  0
 21 48  1  0  0  0  0
 22 49  1  0  0  0  0
 22 50  1  0  0  0  0
 23 26  1  0  0  0  0
 24 27  1  0  0  0  0
 24 51  1  0  0  0  0
 24 52  1  0  0  0  0
 26 29  1  0  0  0  0
 27 30  2  0  0  0  0
 27 31  1  0  0  0  0
 28 36  1  0  0  0  0
 28 53  1  0  0  0  0
 28 54  1  0  0  0  0
 29 57  1  0  0  0  0
 30 32  1  0  0  0  0
 30 55  1  0  0  0  0
 31 33  2  0  0  0  0
 31 56  1  0  0  0  0
 32 35  2  0  0  0  0
 32 60  1  0  0  0  0
 33 35  1  0  0  0  0
 33 61  1  0  0  0  0
 34 37  2  0  0  0  0
 34 63  1  0  0  0  0
 35 62  1  0  0  0  0
 37 64  1  0  0  0  0
M  END
> <PUBCHEM_COMPOUND_CID>
45783250

> <PUBCHEM_CONFORMER_RMSD>
1.2

> <PUBCHEM_CONFORMER_DIVERSEORDER>
1
23
32
17
15
21
19
16
26
13
6
25
5
22
10
31
9
24
29
14
12
30
28
20
4
7
18
2
11
33
27
8
3

> <PUBCHEM_MMFF94_PARTIAL_CHARGES>
48
1 -0.46
10 -0.73
11 -0.8
12 -0.62
13 -0.62
14 0.3
15 0.36
18 0.3
19 0.57
2 -0.57
20 0.57
21 0.36
22 0.29
23 0.54
24 0.14
25 0.57
26 0.4
27 -0.14
28 0.29
29 0.16
3 -0.57
30 -0.15
31 -0.15
32 -0.15
33 -0.15
34 0.16
35 -0.15
36 0.66
37 0.16
4 -0.57
46 0.37
47 0.37
5 -0.57
55 0.15
56 0.15
57 0.15
58 0.37
59 0.37
6 -0.65
60 0.15
61 0.15
62 0.15
63 0.15
64 0.15
65 0.5
7 -0.57
8 -0.66
9 -0.73

> <PUBCHEM_EFFECTIVE_ROTOR_COUNT>
15.2

> <PUBCHEM_PHARMACOPHORE_FEATURES>
15
1 10 donor
1 11 donor
1 12 acceptor
1 13 acceptor
1 2 acceptor
1 3 acceptor
1 4 acceptor
1 5 acceptor
1 6 acceptor
1 7 acceptor
1 9 donor
3 6 7 36 anion
6 12 13 26 29 34 37 rings
6 27 30 31 32 33 35 rings
6 8 14 15 16 17 18 rings

> <PUBCHEM_HEAVY_ATOM_COUNT>
37

> <PUBCHEM_ATOM_DEF_STEREO_COUNT>
3

> <PUBCHEM_ATOM_UDEF_STEREO_COUNT>
0

> <PUBCHEM_BOND_DEF_STEREO_COUNT>
0

> <PUBCHEM_BOND_UDEF_STEREO_COUNT>
0

> <PUBCHEM_ISOTOPIC_ATOM_COUNT>
0

> <PUBCHEM_COMPONENT_COUNT>
1

> <PUBCHEM_CACTVS_TAUTO_COUNT>
8

> <PUBCHEM_CONFORMER_ID>
02BA98D200000001

> <PUBCHEM_MMFF94_ENERGY>
88.7195

> <PUBCHEM_FEATURE_SELFOVERLAP>
76.19

> <PUBCHEM_SHAPE_FINGERPRINT>
10032420 55 18269831093912362218
1100329 8 18126297346025290666
11285246 1 17914025837219681525
11578080 2 18259983751651647631
12788726 201 18053397775430708458
13111901 51 18408044004674993957
14040221 97 18262250992399866573
14114206 34 17907849957810670854
144659 39 17748830700430805644
14725015 67 18056202620724065138
15274700 147 16382294174384153916
15439362 3 18192710042643799620
15927050 60 18129680607416873459
17138139 8 17702925007438757140
20764821 26 18271247097200616418
20771845 165 18115590318462233212
21796203 349 16829307846701725986
25223398 141 18263922314388215436

> <PUBCHEM_SHAPE_MULTIPOLES>
700.19
13.17
6.51
2.41
10.15
7.61
0.42
-13.92
7.92
-1.72
0.3
-3.04
-2.21
-0.08

> <PUBCHEM_SHAPE_SELFOVERLAP>
1456.818

> <PUBCHEM_SHAPE_VOLUME>
396.4

> <PUBCHEM_COORDINATE_TYPE>
2
5
10

$$$$
