7144228
  -OEChem-12032416233D

 54 57  0     1  0  0  0  0  0999 V2000
    5.3927   -3.4590   -0.3103 S   0  0  0  0  0  0  0  0  0  0  0  0
   -1.1702    3.7563    2.3555 O   0  0  0  0  0  0  0  0  0  0  0  0
   -3.5905    0.7707   -1.2462 O   0  0  0  0  0  0  0  0  0  0  0  0
   -3.4603   -1.5712   -0.3035 O   0  0  0  0  0  0  0  0  0  0  0  0
   -4.6535   -4.6171    1.1685 O   0  0  0  0  0  0  0  0  0  0  0  0
   -5.7440   -2.6755    0.6903 O   0  0  0  0  0  0  0  0  0  0  0  0
   -1.3390    0.9734   -1.7813 N   0  0  0  0  0  0  0  0  0  0  0  0
   -0.0707    2.6449    0.6113 N   0  0  0  0  0  0  0  0  0  0  0  0
   -0.4439    3.2969   -1.8397 C   0  0  1  0  0  0  0  0  0  0  0  0
    1.0562    1.4317   -1.2807 C   0  0  2  0  0  0  0  0  0  0  0  0
    0.9590    2.7489   -2.0486 C   0  0  0  0  0  0  0  0  0  0  0  0
   -1.4997    2.3074   -2.3595 C   0  0  0  0  0  0  0  0  0  0  0  0
   -0.6297    3.6024   -0.3530 C   0  0  0  0  0  0  0  0  0  0  0  0
    0.0248    0.4318   -1.8443 C   0  0  0  0  0  0  0  0  0  0  0  0
    0.8308    1.6350    0.2202 C   0  0  0  0  0  0  0  0  0  0  0  0
    1.4398    0.8696    1.1631 C   0  0  0  0  0  0  0  0  0  0  0  0
   -0.4012    2.8808    1.9578 C   0  0  0  0  0  0  0  0  0  0  0  0
   -2.4531    0.2944   -1.2890 C   0  0  0  0  0  0  0  0  0  0  0  0
    1.1207    1.0818    2.5622 C   0  0  0  0  0  0  0  0  0  0  0  0
    0.2499    2.0085    2.9611 C   0  0  0  0  0  0  0  0  0  0  0  0
    2.4073   -0.1896    0.8017 C   0  0  0  0  0  0  0  0  0  0  0  0
   -2.2201   -1.1040   -0.7756 C   0  0  0  0  0  0  0  0  0  0  0  0
    1.9548   -1.4806    0.5476 C   0  0  0  0  0  0  0  0  0  0  0  0
    3.7633    0.1122    0.7189 C   0  0  0  0  0  0  0  0  0  0  0  0
    2.8671   -2.4796    0.2074 C   0  0  0  0  0  0  0  0  0  0  0  0
    4.6754   -0.8867    0.3786 C   0  0  0  0  0  0  0  0  0  0  0  0
    4.2274   -2.1826    0.1229 C   0  0  0  0  0  0  0  0  0  0  0  0
   -3.3718   -2.8977    0.2137 C   0  0  0  0  0  0  0  0  0  0  0  0
   -4.7217   -3.3446    0.7027 C   0  0  0  0  0  0  0  0  0  0  0  0
    4.8002   -3.9588   -1.9517 C   0  0  0  0  0  0  0  0  0  0  0  0
   -0.5615    4.2315   -2.4020 H   0  0  0  0  0  0  0  0  0  0  0  0
    2.0583    1.0309   -1.4695 H   0  0  0  0  0  0  0  0  0  0  0  0
    1.1505    2.5852   -3.1161 H   0  0  0  0  0  0  0  0  0  0  0  0
    1.7127    3.4629   -1.6932 H   0  0  0  0  0  0  0  0  0  0  0  0
   -1.4001    2.1941   -3.4462 H   0  0  0  0  0  0  0  0  0  0  0  0
   -2.5067    2.6942   -2.1703 H   0  0  0  0  0  0  0  0  0  0  0  0
   -1.6931    3.7497   -0.1245 H   0  0  0  0  0  0  0  0  0  0  0  0
   -0.1408    4.5612   -0.1308 H   0  0  0  0  0  0  0  0  0  0  0  0
    0.0976   -0.5300   -1.3384 H   0  0  0  0  0  0  0  0  0  0  0  0
    0.2356    0.2399   -2.9040 H   0  0  0  0  0  0  0  0  0  0  0  0
    1.6043    0.4498    3.3013 H   0  0  0  0  0  0  0  0  0  0  0  0
    0.0133    2.1563    4.0080 H   0  0  0  0  0  0  0  0  0  0  0  0
   -1.8591   -1.7389   -1.5912 H   0  0  0  0  0  0  0  0  0  0  0  0
   -1.5029   -1.0736    0.0504 H   0  0  0  0  0  0  0  0  0  0  0  0
    0.9002   -1.7317    0.6217 H   0  0  0  0  0  0  0  0  0  0  0  0
    4.1265    1.1180    0.9150 H   0  0  0  0  0  0  0  0  0  0  0  0
    2.4958   -3.4843    0.0219 H   0  0  0  0  0  0  0  0  0  0  0  0
    5.7317   -0.6361    0.3174 H   0  0  0  0  0  0  0  0  0  0  0  0
   -2.6707   -2.9156    1.0547 H   0  0  0  0  0  0  0  0  0  0  0  0
   -3.0439   -3.5761   -0.5809 H   0  0  0  0  0  0  0  0  0  0  0  0
    5.4964   -4.6864   -2.3770 H   0  0  0  0  0  0  0  0  0  0  0  0
    3.8131   -4.4231   -1.8825 H   0  0  0  0  0  0  0  0  0  0  0  0
    4.7495   -3.0930   -2.6176 H   0  0  0  0  0  0  0  0  0  0  0  0
   -5.5227   -4.9348    1.4941 H   0  0  0  0  0  0  0  0  0  0  0  0
  1 27  1  0  0  0  0
  1 30  1  0  0  0  0
  2 17  2  0  0  0  0
  3 18  2  0  0  0  0
  4 22  1  0  0  0  0
  4 28  1  0  0  0  0
  5 29  1  0  0  0  0
  5 54  1  0  0  0  0
  6 29  2  0  0  0  0
  7 12  1  0  0  0  0
  7 14  1  0  0  0  0
  7 18  1  0  0  0  0
  8 13  1  0  0  0  0
  8 15  1  0  0  0  0
  8 17  1  0  0  0  0
  9 11  1  0  0  0  0
  9 12  1  0  0  0  0
  9 13  1  0  0  0  0
  9 31  1  0  0  0  0
 10 11  1  0  0  0  0
 10 14  1  0  0  0  0
 10 15  1  0  0  0  0
 10 32  1  0  0  0  0
 11 33  1  0  0  0  0
 11 34  1  0  0  0  0
 12 35  1  0  0  0  0
 12 36  1  0  0  0  0
 13 37  1  0  0  0  0
 13 38  1  0  0  0  0
 14 39  1  0  0  0  0
 14 40  1  0  0  0  0
 15 16  2  0  0  0  0
 16 19  1  0  0  0  0
 16 21  1  0  0  0  0
 17 20  1  0  0  0  0
 18 22  1  0  0  0  0
 19 20  2  0  0  0  0
 19 41  1  0  0  0  0
 20 42  1  0  0  0  0
 21 23  2  0  0  0  0
 21 24  1  0  0  0  0
 22 43  1  0  0  0  0
 22 44  1  0  0  0  0
 23 25  1  0  0  0  0
 23 45  1  0  0  0  0
 24 26  2  0  0  0  0
 24 46  1  0  0  0  0
 25 27  2  0  0  0  0
 25 47  1  0  0  0  0
 26 27  1  0  0  0  0
 26 48  1  0  0  0  0
 28 29  1  0  0  0  0
 28 49  1  0  0  0  0
 28 50  1  0  0  0  0
 30 51  1  0  0  0  0
 30 52  1  0  0  0  0
 30 53  1  0  0  0  0
M  END
> <PUBCHEM_COMPOUND_CID>
7144228

> <PUBCHEM_CONFORMER_RMSD>
1

> <PUBCHEM_CONFORMER_DIVERSEORDER>
1
12
6
8
11
9
10
5
2
3
4
7

> <PUBCHEM_MMFF94_PARTIAL_CHARGES>
35
1 -0.33
10 0.14
12 0.3
13 0.3
14 0.3
15 -0.03
16 -0.03
17 0.62
18 0.57
19 -0.15
2 -0.57
20 -0.14
21 0.03
22 0.34
23 -0.15
24 -0.15
25 -0.15
26 -0.15
27 0.1
28 0.34
29 0.66
3 -0.57
30 0.23
4 -0.56
41 0.15
42 0.15
45 0.15
46 0.15
47 0.15
48 0.15
5 -0.65
54 0.5
6 -0.57
7 -0.66
8 -0.47

> <PUBCHEM_EFFECTIVE_ROTOR_COUNT>
8

> <PUBCHEM_PHARMACOPHORE_FEATURES>
11
1 2 acceptor
1 3 acceptor
1 30 hydrophobe
1 4 acceptor
1 5 acceptor
1 6 acceptor
3 5 6 29 anion
6 21 23 24 25 26 27 rings
6 7 9 10 11 12 14 rings
6 8 15 16 17 19 20 rings
6 8 9 10 11 13 15 rings

> <PUBCHEM_HEAVY_ATOM_COUNT>
30

> <PUBCHEM_ATOM_DEF_STEREO_COUNT>
2

> <PUBCHEM_ATOM_UDEF_STEREO_COUNT>
0

> <PUBCHEM_BOND_DEF_STEREO_COUNT>
0

> <PUBCHEM_BOND_UDEF_STEREO_COUNT>
0

> <PUBCHEM_ISOTOPIC_ATOM_COUNT>
0

> <PUBCHEM_COMPONENT_COUNT>
1

> <PUBCHEM_CACTVS_TAUTO_COUNT>
1

> <PUBCHEM_CONFORMER_ID>
006D032400000001

> <PUBCHEM_MMFF94_ENERGY>
78.1275

> <PUBCHEM_FEATURE_SELFOVERLAP>
57.466

> <PUBCHEM_SHAPE_FINGERPRINT>
10764073 3 12534256064088646628
107951 10 17620463611029853740
11387372 6 17411356316654427366
11421498 54 17977963602432435193
11582403 64 8718825409729071860
12156800 1 17556339160752753981
12422481 6 15338572530524533742
13135754 10 17630626521775741838
13965767 371 13901649427563316335
14844126 61 15908789036709583110
150020 26 18269836583134053099
15484559 13 14712271217346180127
15664445 248 15432272018701961045
17492 54 11675466044578085313
17909252 39 18261396710525227420
17974551 9 17917419935388875217
19315092 285 17341530014330766939
1979834 28 17542216209516086283
20771845 140 17686900926686115772
20775530 9 18336255812619547187
22907989 373 14491626403504029772
23428019 142 17763175844050211958
23466295 7 18266180522108463710
23559900 14 18043797896506545663
3380486 145 17772155787515721806
3737641 26 18341893008977643902
4058900 60 16686547144949882176
437815 12 18342730789698610823
469060 322 17753352879970380890
484985 159 18051979112735285138
4921388 177 17981040813466231438
57359948 33 12833093553716011215
57527585 103 17911812266761931926
58260988 521 17905024195868977488
59755656 520 17480022986940901112
621550 5 18410570708181387043
6287921 2 17832416871523207507
6823239 73 17460298083335824027

> <PUBCHEM_SHAPE_MULTIPOLES>
581.93
9.18
6.16
2.59
7.14
4.75
-0.53
16.4
0.86
-6.75
-1.01
-0.65
-2.45
2.79

> <PUBCHEM_SHAPE_SELFOVERLAP>
1237.384

> <PUBCHEM_SHAPE_VOLUME>
325

> <PUBCHEM_COORDINATE_TYPE>
2
5
10

$$$$
