7134532
  -OEChem-12032416313D

 72 74  0     1  0  0  0  0  0999 V2000
    1.6115   -2.1671   -2.5534 O   0  0  0  0  0  0  0  0  0  0  0  0
   -1.1021   -4.9293   -0.2054 O   0  0  0  0  0  0  0  0  0  0  0  0
    1.6612   -5.3685    0.3226 O   0  0  0  0  0  0  0  0  0  0  0  0
   -2.8858   -1.2288   -1.9670 O   0  0  0  0  0  0  0  0  0  0  0  0
   -1.6122   -0.0687    2.2122 O   0  0  0  0  0  0  0  0  0  0  0  0
    3.2811   -0.3317   -2.0140 O   0  0  0  0  0  0  0  0  0  0  0  0
   -3.6132    0.4395    3.1707 O   0  0  0  0  0  0  0  0  0  0  0  0
    4.6416   -0.9438    2.3283 O   0  0  0  0  0  0  0  0  0  0  0  0
    0.4720    5.3886   -2.0233 O   0  0  0  0  0  0  0  0  0  0  0  0
   -1.9338   -2.1439   -0.0548 N   0  0  0  0  0  0  0  0  0  0  0  0
    2.8903   -0.4015    0.2798 N   0  0  0  0  0  0  0  0  0  0  0  0
    6.1397    0.4894    1.3390 N   0  0  0  0  0  0  0  0  0  0  0  0
   -4.3628    0.3595    0.1962 C   0  0  0  0  0  0  0  0  0  0  0  0
   -5.6598    0.6768    0.9531 C   0  0  0  0  0  0  0  0  0  0  0  0
   -4.6561    0.9574   -1.1866 C   0  0  0  0  0  0  0  0  0  0  0  0
   -6.0732    2.0643    0.4677 C   0  0  0  0  0  0  0  0  0  0  0  0
   -5.4295    2.2440   -0.9069 C   0  0  0  0  0  0  0  0  0  0  0  0
   -4.1115   -1.1477    0.1165 C   0  0  0  0  0  0  0  0  0  0  0  0
   -0.6959   -2.5913   -0.6550 C   0  0  1  0  0  0  0  0  0  0  0  0
   -3.1517    1.0410    0.8536 C   0  0  0  0  0  0  0  0  0  0  0  0
    1.6977   -1.9021   -1.1581 C   0  0  1  0  0  0  0  0  0  0  0  0
    0.3384   -1.4613   -0.6118 C   0  0  0  0  0  0  0  0  0  0  0  0
   -0.1854   -3.8596    0.0417 C   0  0  2  0  0  0  0  0  0  0  0  0
    1.1845   -4.2928   -0.4862 C   0  0  1  0  0  0  0  0  0  0  0  0
    2.2036   -3.1530   -0.4427 C   0  0  0  0  0  0  0  0  0  0  0  0
   -2.9295   -1.4960   -0.7692 C   0  0  0  0  0  0  0  0  0  0  0  0
    2.7019   -0.7937   -1.0345 C   0  0  0  0  0  0  0  0  0  0  0  0
   -2.8640    0.4572    2.2056 C   0  0  0  0  0  0  0  0  0  0  0  0
    3.8213    0.6324    0.6704 C   0  0  1  0  0  0  0  0  0  0  0  0
    3.1343    1.7757    1.4257 C   0  0  0  0  0  0  0  0  0  0  0  0
    4.8768   -0.0239    1.5484 C   0  0  0  0  0  0  0  0  0  0  0  0
    2.4247    2.7396    0.5062 C   0  0  0  0  0  0  0  0  0  0  0  0
    3.1038    3.8462   -0.0038 C   0  0  0  0  0  0  0  0  0  0  0  0
    1.0894    2.5232    0.1661 C   0  0  0  0  0  0  0  0  0  0  0  0
    2.4476    4.7364   -0.8536 C   0  0  0  0  0  0  0  0  0  0  0  0
    0.4330    3.4135   -0.6837 C   0  0  0  0  0  0  0  0  0  0  0  0
    1.1121    4.5201   -1.1936 C   0  0  0  0  0  0  0  0  0  0  0  0
   -5.6094    0.6340    2.0409 H   0  0  0  0  0  0  0  0  0  0  0  0
   -6.4433   -0.0347    0.6580 H   0  0  0  0  0  0  0  0  0  0  0  0
   -5.2909    0.2845   -1.7773 H   0  0  0  0  0  0  0  0  0  0  0  0
   -3.7560    1.1693   -1.7727 H   0  0  0  0  0  0  0  0  0  0  0  0
   -7.1628    2.1596    0.4200 H   0  0  0  0  0  0  0  0  0  0  0  0
   -5.7078    2.8363    1.1545 H   0  0  0  0  0  0  0  0  0  0  0  0
   -6.1776    2.4335   -1.6836 H   0  0  0  0  0  0  0  0  0  0  0  0
   -4.7512    3.1049   -0.8915 H   0  0  0  0  0  0  0  0  0  0  0  0
   -4.9788   -1.6513   -0.3323 H   0  0  0  0  0  0  0  0  0  0  0  0
   -4.0120   -1.5935    1.1127 H   0  0  0  0  0  0  0  0  0  0  0  0
   -0.9163   -2.8275   -1.7046 H   0  0  0  0  0  0  0  0  0  0  0  0
   -2.2642    0.9540    0.2141 H   0  0  0  0  0  0  0  0  0  0  0  0
   -3.3040    2.1174    0.9950 H   0  0  0  0  0  0  0  0  0  0  0  0
    0.4152   -1.1019    0.4215 H   0  0  0  0  0  0  0  0  0  0  0  0
   -0.0369   -0.6125   -1.1998 H   0  0  0  0  0  0  0  0  0  0  0  0
   -0.1469   -3.7233    1.1293 H   0  0  0  0  0  0  0  0  0  0  0  0
    1.0898   -4.6810   -1.5076 H   0  0  0  0  0  0  0  0  0  0  0  0
    2.4518   -2.9532    0.6074 H   0  0  0  0  0  0  0  0  0  0  0  0
    3.1409   -3.5045   -0.8954 H   0  0  0  0  0  0  0  0  0  0  0  0
   -2.0351   -2.2574    0.9495 H   0  0  0  0  0  0  0  0  0  0  0  0
    2.4603   -2.5384   -2.8493 H   0  0  0  0  0  0  0  0  0  0  0  0
   -1.1658   -5.0558   -1.1675 H   0  0  0  0  0  0  0  0  0  0  0  0
    2.5248   -5.6409   -0.0318 H   0  0  0  0  0  0  0  0  0  0  0  0
    2.3951   -0.8741    1.0288 H   0  0  0  0  0  0  0  0  0  0  0  0
    4.3132    1.0210   -0.2301 H   0  0  0  0  0  0  0  0  0  0  0  0
   -1.3858   -0.4651    3.0804 H   0  0  0  0  0  0  0  0  0  0  0  0
    3.8726    2.3387    2.0128 H   0  0  0  0  0  0  0  0  0  0  0  0
    2.4234    1.3804    2.1640 H   0  0  0  0  0  0  0  0  0  0  0  0
    6.3209    1.2480    0.6896 H   0  0  0  0  0  0  0  0  0  0  0  0
    6.9387    0.1287    1.8500 H   0  0  0  0  0  0  0  0  0  0  0  0
    4.1451    4.0238    0.2519 H   0  0  0  0  0  0  0  0  0  0  0  0
    0.5485    1.6658    0.5575 H   0  0  0  0  0  0  0  0  0  0  0  0
    2.9821    5.5962   -1.2483 H   0  0  0  0  0  0  0  0  0  0  0  0
   -0.6076    3.2331   -0.9405 H   0  0  0  0  0  0  0  0  0  0  0  0
   -0.4436    5.0858   -2.1506 H   0  0  0  0  0  0  0  0  0  0  0  0
  1 21  1  0  0  0  0
  1 58  1  0  0  0  0
  2 23  1  0  0  0  0
  2 59  1  0  0  0  0
  3 24  1  0  0  0  0
  3 60  1  0  0  0  0
  4 26  2  0  0  0  0
  5 28  1  0  0  0  0
  5 63  1  0  0  0  0
  6 27  2  0  0  0  0
  7 28  2  0  0  0  0
  8 31  2  0  0  0  0
  9 37  1  0  0  0  0
  9 72  1  0  0  0  0
 10 19  1  0  0  0  0
 10 26  1  0  0  0  0
 10 57  1  0  0  0  0
 11 27  1  0  0  0  0
 11 29  1  0  0  0  0
 11 61  1  0  0  0  0
 12 31  1  0  0  0  0
 12 66  1  0  0  0  0
 12 67  1  0  0  0  0
 13 14  1  0  0  0  0
 13 15  1  0  0  0  0
 13 18  1  0  0  0  0
 13 20  1  0  0  0  0
 14 16  1  0  0  0  0
 14 38  1  0  0  0  0
 14 39  1  0  0  0  0
 15 17  1  0  0  0  0
 15 40  1  0  0  0  0
 15 41  1  0  0  0  0
 16 17  1  0  0  0  0
 16 42  1  0  0  0  0
 16 43  1  0  0  0  0
 17 44  1  0  0  0  0
 17 45  1  0  0  0  0
 18 26  1  0  0  0  0
 18 46  1  0  0  0  0
 18 47  1  0  0  0  0
 19 22  1  0  0  0  0
 19 23  1  0  0  0  0
 19 48  1  0  0  0  0
 20 28  1  0  0  0  0
 20 49  1  0  0  0  0
 20 50  1  0  0  0  0
 21 22  1  0  0  0  0
 21 25  1  0  0  0  0
 21 27  1  0  0  0  0
 22 51  1  0  0  0  0
 22 52  1  0  0  0  0
 23 24  1  0  0  0  0
 23 53  1  0  0  0  0
 24 25  1  0  0  0  0
 24 54  1  0  0  0  0
 25 55  1  0  0  0  0
 25 56  1  0  0  0  0
 29 30  1  0  0  0  0
 29 31  1  0  0  0  0
 29 62  1  0  0  0  0
 30 32  1  0  0  0  0
 30 64  1  0  0  0  0
 30 65  1  0  0  0  0
 32 33  2  0  0  0  0
 32 34  1  0  0  0  0
 33 35  1  0  0  0  0
 33 68  1  0  0  0  0
 34 36  2  0  0  0  0
 34 69  1  0  0  0  0
 35 37  2  0  0  0  0
 35 70  1  0  0  0  0
 36 37  1  0  0  0  0
 36 71  1  0  0  0  0
M  END
> <PUBCHEM_COMPOUND_CID>
7134532

> <PUBCHEM_CONFORMER_RMSD>
1.2

> <PUBCHEM_CONFORMER_DIVERSEORDER>
1
135
107
185
116
202
17
22
122
112
62
86
200
85
172
201
42
11
221
174
149
25
220
61
140
43
208
129
152
190
158
94
162
67
137
120
159
153
47
187
89
157
128
150
60
31
92
68
207
194
63
216
136
222
45
50
186
196
59
65
219
199
75
37
206
169
105
189
130
111
138
21
24
40
48
71
127
205
93
218
73
188
32
163
209
147
51
57
180
19
197
139
131
34
191
108
164
175
20
14
121
78
117
134
182
119
104
35
204
9
66
146
18
55
91
168
64
177
53
214
126
4
155
44
39
192
141
210
165
96
72
87
56
142
151
27
12
70
54
82
167
211
83
114
33
26
101
212
36
179
28
74
2
124
132
133
106
213
97
23
5
46
13
49
16
90
145
154
81
195
109
125
38
171
203
183
88
80
102
10
3
215
198
143
178
170
52
77
184
103
173
95
79
58
113
193
118
6
15
76
115
123
217
148
99
166
144
160
176
69
100
7
84
110
41
8
156
98
161
29
181
30

> <PUBCHEM_MMFF94_PARTIAL_CHARGES>
43
1 -0.68
10 -0.73
11 -0.73
12 -0.8
18 0.06
19 0.3
2 -0.68
20 0.06
21 0.34
23 0.28
24 0.28
26 0.57
27 0.57
28 0.66
29 0.36
3 -0.68
30 0.14
31 0.57
32 -0.14
33 -0.15
34 -0.15
35 -0.15
36 -0.15
37 0.08
4 -0.57
5 -0.65
57 0.37
58 0.4
59 0.4
6 -0.57
60 0.4
61 0.37
63 0.5
66 0.37
67 0.37
68 0.15
69 0.15
7 -0.57
70 0.15
71 0.15
72 0.45
8 -0.57
9 -0.53

> <PUBCHEM_EFFECTIVE_ROTOR_COUNT>
14.2

> <PUBCHEM_PHARMACOPHORE_FEATURES>
19
1 1 acceptor
1 1 donor
1 10 donor
1 11 donor
1 12 donor
1 2 acceptor
1 2 donor
1 3 acceptor
1 3 donor
1 4 acceptor
1 5 acceptor
1 6 acceptor
1 7 acceptor
1 8 acceptor
1 9 donor
3 5 7 28 anion
5 13 14 15 16 17 rings
6 19 21 22 23 24 25 rings
6 32 33 34 35 36 37 rings

> <PUBCHEM_HEAVY_ATOM_COUNT>
37

> <PUBCHEM_ATOM_DEF_STEREO_COUNT>
5

> <PUBCHEM_ATOM_UDEF_STEREO_COUNT>
0

> <PUBCHEM_BOND_DEF_STEREO_COUNT>
0

> <PUBCHEM_BOND_UDEF_STEREO_COUNT>
0

> <PUBCHEM_ISOTOPIC_ATOM_COUNT>
0

> <PUBCHEM_COMPONENT_COUNT>
1

> <PUBCHEM_CACTVS_TAUTO_COUNT>
16

> <PUBCHEM_CONFORMER_ID>
006CDD4400000001

> <PUBCHEM_MMFF94_ENERGY>
91.693

> <PUBCHEM_FEATURE_SELFOVERLAP>
96.514

> <PUBCHEM_SHAPE_FINGERPRINT>
10439779 11 18340476850706570250
11513181 2 17771071780724932894
12633257 1 18336816593650666916
12786520 15 17968385563163660849
12788726 201 17552074425763731855
14117953 113 18339920424808478388
15274700 34 17971766716839592683
15444296 121 18190733331944479426
15475509 84 17688588256170447446
16993438 75 16968023237902856161
20739085 24 18337668715437175340
20764821 26 18336824281531961589
340366 18 18336825402528877528
3493558 16 17614260587470140015
4066623 53 17613707125395088589
513202 73 18119232988591547018
6371009 1 18196070352284202887
66674814 147 18196907046209768661

> <PUBCHEM_SHAPE_MULTIPOLES>
693.68
11.11
7.3
2.08
8.38
0.21
0.69
-5.85
4.23
-5.04
-3.42
-0.06
-0.42
-0.3

> <PUBCHEM_SHAPE_SELFOVERLAP>
1459.201

> <PUBCHEM_SHAPE_VOLUME>
387.6

> <PUBCHEM_COORDINATE_TYPE>
2
5
10

$$$$
