45361529
  -OEChem-12032416313D

 72 75  0     1  0  0  0  0  0999 V2000
   -8.1433   -1.8451   -0.3047 S   0  0  0  0  0  0  0  0  0  0  0  0
   -0.7856    1.2833   -1.8274 O   0  0  0  0  0  0  0  0  0  0  0  0
   -5.6727    1.7700    0.1419 O   0  0  0  0  0  0  0  0  0  0  0  0
    4.6319   -1.7716    1.0961 O   0  0  0  0  0  0  0  0  0  0  0  0
    3.7260    0.3642    1.0262 N   0  0  0  0  0  0  0  0  0  0  0  0
   -5.3143    0.5213   -1.7797 N   0  0  0  0  0  0  0  0  0  0  0  0
   -0.4892    0.4870    1.8946 C   0  0  1  0  0  0  0  0  0  0  0  0
   -0.0724    0.5556    0.3878 C   0  0  2  0  0  0  0  0  0  0  0  0
    1.4407    0.9523    0.2438 C   0  0  1  0  0  0  0  0  0  0  0  0
   -1.0712    1.4199   -0.4346 C   0  0  2  0  0  0  0  0  0  0  0  0
   -1.9485   -0.0147    2.0041 C   0  0  0  0  0  0  0  0  0  0  0  0
    0.4153   -0.5344    2.6220 C   0  0  0  0  0  0  0  0  0  0  0  0
   -2.5404    0.9785   -0.2393 C   0  0  1  0  0  0  0  0  0  0  0  0
    2.3353   -0.0382    1.0411 C   0  0  2  0  0  0  0  0  0  0  0  0
   -2.9345    0.8522    1.2322 C   0  0  0  0  0  0  0  0  0  0  0  0
    1.8983   -0.2163    2.4949 C   0  0  0  0  0  0  0  0  0  0  0  0
   -0.3807    1.8606    2.6041 C   0  0  0  0  0  0  0  0  0  0  0  0
   -3.5174    1.9214   -0.9523 C   0  0  2  0  0  0  0  0  0  0  0  0
    1.9261    1.0104   -1.2145 C   0  0  0  0  0  0  0  0  0  0  0  0
   -3.3642    3.3400   -0.4150 C   0  0  0  0  0  0  0  0  0  0  0  0
   -4.9462    1.4141   -0.7836 C   0  0  0  0  0  0  0  0  0  0  0  0
    4.7658   -0.5513    1.0555 C   0  0  0  0  0  0  0  0  0  0  0  0
    6.1142    0.1422    1.0250 C   0  0  0  0  0  0  0  0  0  0  0  0
   -6.6192   -0.0960   -1.8324 C   0  0  0  0  0  0  0  0  0  0  0  0
    6.9541   -0.2386   -0.1655 C   0  0  0  0  0  0  0  0  0  0  0  0
   -6.6710   -1.3690   -1.0382 C   0  0  0  0  0  0  0  0  0  0  0  0
    7.8253   -1.3249   -0.0854 C   0  0  0  0  0  0  0  0  0  0  0  0
    6.8611    0.4950   -1.3483 C   0  0  0  0  0  0  0  0  0  0  0  0
   -5.6566   -2.2680   -0.7924 C   0  0  0  0  0  0  0  0  0  0  0  0
    8.6035   -1.6779   -1.1880 C   0  0  0  0  0  0  0  0  0  0  0  0
    7.6391    0.1422   -2.4508 C   0  0  0  0  0  0  0  0  0  0  0  0
    8.5104   -0.9443   -2.3707 C   0  0  0  0  0  0  0  0  0  0  0  0
   -6.0940   -3.3621    0.0087 C   0  0  0  0  0  0  0  0  0  0  0  0
   -7.4258   -3.2577    0.3446 C   0  0  0  0  0  0  0  0  0  0  0  0
   -0.1470   -0.4650   -0.0211 H   0  0  0  0  0  0  0  0  0  0  0  0
    1.5834    1.9603    0.6533 H   0  0  0  0  0  0  0  0  0  0  0  0
   -0.9068    2.4660   -0.1698 H   0  0  0  0  0  0  0  0  0  0  0  0
   -2.2573   -0.0597    3.0564 H   0  0  0  0  0  0  0  0  0  0  0  0
   -2.0149   -1.0426    1.6222 H   0  0  0  0  0  0  0  0  0  0  0  0
    0.1506   -0.5869    3.6858 H   0  0  0  0  0  0  0  0  0  0  0  0
    0.2406   -1.5387    2.2129 H   0  0  0  0  0  0  0  0  0  0  0  0
   -2.6544   -0.0167   -0.6947 H   0  0  0  0  0  0  0  0  0  0  0  0
    2.2691   -1.0199    0.5518 H   0  0  0  0  0  0  0  0  0  0  0  0
   -3.9154    0.3730    1.3292 H   0  0  0  0  0  0  0  0  0  0  0  0
   -3.0136    1.8158    1.7388 H   0  0  0  0  0  0  0  0  0  0  0  0
    2.1420    0.6817    3.0757 H   0  0  0  0  0  0  0  0  0  0  0  0
    2.4743   -1.0271    2.9593 H   0  0  0  0  0  0  0  0  0  0  0  0
    0.6426    2.2434    2.6338 H   0  0  0  0  0  0  0  0  0  0  0  0
   -0.7229    1.7854    3.6430 H   0  0  0  0  0  0  0  0  0  0  0  0
   -0.9854    2.6315    2.1185 H   0  0  0  0  0  0  0  0  0  0  0  0
   -3.2924    1.9485   -2.0263 H   0  0  0  0  0  0  0  0  0  0  0  0
    1.4976    1.8689   -1.7393 H   0  0  0  0  0  0  0  0  0  0  0  0
    3.0112    1.1410   -1.2799 H   0  0  0  0  0  0  0  0  0  0  0  0
    1.6700    0.0937   -1.7556 H   0  0  0  0  0  0  0  0  0  0  0  0
    3.9289    1.3589    1.0584 H   0  0  0  0  0  0  0  0  0  0  0  0
   -0.8789    0.3448   -2.0643 H   0  0  0  0  0  0  0  0  0  0  0  0
   -2.3980    3.7863   -0.6624 H   0  0  0  0  0  0  0  0  0  0  0  0
   -4.1162    3.9831   -0.8909 H   0  0  0  0  0  0  0  0  0  0  0  0
   -3.5371    3.4405    0.6585 H   0  0  0  0  0  0  0  0  0  0  0  0
   -4.6392    0.2633   -2.4936 H   0  0  0  0  0  0  0  0  0  0  0  0
    6.0070    1.2333    1.0575 H   0  0  0  0  0  0  0  0  0  0  0  0
    6.6371   -0.1228    1.9530 H   0  0  0  0  0  0  0  0  0  0  0  0
   -6.8331   -0.3126   -2.8846 H   0  0  0  0  0  0  0  0  0  0  0  0
   -7.3608    0.6268   -1.4737 H   0  0  0  0  0  0  0  0  0  0  0  0
    7.9056   -1.9054    0.8299 H   0  0  0  0  0  0  0  0  0  0  0  0
    6.1840    1.3418   -1.4232 H   0  0  0  0  0  0  0  0  0  0  0  0
   -4.6464   -2.1576   -1.1660 H   0  0  0  0  0  0  0  0  0  0  0  0
    9.2815   -2.5241   -1.1258 H   0  0  0  0  0  0  0  0  0  0  0  0
    7.5662    0.7128   -3.3720 H   0  0  0  0  0  0  0  0  0  0  0  0
    9.1160   -1.2192   -3.2293 H   0  0  0  0  0  0  0  0  0  0  0  0
   -5.4638   -4.1841    0.3224 H   0  0  0  0  0  0  0  0  0  0  0  0
   -8.0117   -3.9434    0.9403 H   0  0  0  0  0  0  0  0  0  0  0  0
  1 26  1  0  0  0  0
  1 34  1  0  0  0  0
  2 10  1  0  0  0  0
  2 56  1  0  0  0  0
  3 21  2  0  0  0  0
  4 22  2  0  0  0  0
  5 14  1  0  0  0  0
  5 22  1  0  0  0  0
  5 55  1  0  0  0  0
  6 21  1  0  0  0  0
  6 24  1  0  0  0  0
  6 60  1  0  0  0  0
  7  8  1  0  0  0  0
  7 11  1  0  0  0  0
  7 12  1  0  0  0  0
  7 17  1  0  0  0  0
  8  9  1  0  0  0  0
  8 10  1  0  0  0  0
  8 35  1  0  0  0  0
  9 14  1  0  0  0  0
  9 19  1  0  0  0  0
  9 36  1  0  0  0  0
 10 13  1  0  0  0  0
 10 37  1  0  0  0  0
 11 15  1  0  0  0  0
 11 38  1  0  0  0  0
 11 39  1  0  0  0  0
 12 16  1  0  0  0  0
 12 40  1  0  0  0  0
 12 41  1  0  0  0  0
 13 15  1  0  0  0  0
 13 18  1  0  0  0  0
 13 42  1  0  0  0  0
 14 16  1  0  0  0  0
 14 43  1  0  0  0  0
 15 44  1  0  0  0  0
 15 45  1  0  0  0  0
 16 46  1  0  0  0  0
 16 47  1  0  0  0  0
 17 48  1  0  0  0  0
 17 49  1  0  0  0  0
 17 50  1  0  0  0  0
 18 20  1  0  0  0  0
 18 21  1  0  0  0  0
 18 51  1  0  0  0  0
 19 52  1  0  0  0  0
 19 53  1  0  0  0  0
 19 54  1  0  0  0  0
 20 57  1  0  0  0  0
 20 58  1  0  0  0  0
 20 59  1  0  0  0  0
 22 23  1  0  0  0  0
 23 25  1  0  0  0  0
 23 61  1  0  0  0  0
 23 62  1  0  0  0  0
 24 26  1  0  0  0  0
 24 63  1  0  0  0  0
 24 64  1  0  0  0  0
 25 27  2  0  0  0  0
 25 28  1  0  0  0  0
 26 29  2  0  0  0  0
 27 30  1  0  0  0  0
 27 65  1  0  0  0  0
 28 31  2  0  0  0  0
 28 66  1  0  0  0  0
 29 33  1  0  0  0  0
 29 67  1  0  0  0  0
 30 32  2  0  0  0  0
 30 68  1  0  0  0  0
 31 32  1  0  0  0  0
 31 69  1  0  0  0  0
 32 70  1  0  0  0  0
 33 34  2  0  0  0  0
 33 71  1  0  0  0  0
 34 72  1  0  0  0  0
M  END
> <PUBCHEM_COMPOUND_CID>
45361529

> <PUBCHEM_CONFORMER_RMSD>
1.4

> <PUBCHEM_CONFORMER_DIVERSEORDER>
1
55
96
15
103
54
39
19
48
7
42
21
43
95
102
18
80
49
67
93
98
28
66
12
45
9
20
84
99
23
65
10
62
47
100
83
97
81
50
69
72
41
64
38
24
58
75
51
90
11
76
57
101
52
17
30
92
60
5
59
89
37
82
73
79
32
106
87
68
8
104
25
91
31
35
29
34
6
46
40
3
94
78
105
53
77
27
14
86
2
74
26
22
33
63
44
71
36
88
56
13
70
61
4
85
16

> <PUBCHEM_MMFF94_PARTIAL_CHARGES>
34
1 -0.08
10 0.28
14 0.3
18 0.06
2 -0.68
21 0.57
22 0.57
23 0.2
24 0.48
25 -0.14
26 -0.14
27 -0.15
28 -0.15
29 -0.15
3 -0.57
30 -0.15
31 -0.15
32 -0.15
33 -0.15
34 -0.11
4 -0.57
5 -0.73
55 0.37
56 0.4
6 -0.73
60 0.37
65 0.15
66 0.15
67 0.15
68 0.15
69 0.15
70 0.15
71 0.15
72 0.15

> <PUBCHEM_EFFECTIVE_ROTOR_COUNT>
10.6

> <PUBCHEM_PHARMACOPHORE_FEATURES>
11
1 2 acceptor
1 2 donor
1 20 hydrophobe
1 3 acceptor
1 4 acceptor
1 5 donor
1 6 donor
5 1 26 29 33 34 rings
6 25 27 28 30 31 32 rings
6 7 8 10 11 13 15 rings
6 7 8 9 12 14 16 rings

> <PUBCHEM_HEAVY_ATOM_COUNT>
34

> <PUBCHEM_ATOM_DEF_STEREO_COUNT>
6

> <PUBCHEM_ATOM_UDEF_STEREO_COUNT>
1

> <PUBCHEM_BOND_DEF_STEREO_COUNT>
0

> <PUBCHEM_BOND_UDEF_STEREO_COUNT>
0

> <PUBCHEM_ISOTOPIC_ATOM_COUNT>
0

> <PUBCHEM_COMPONENT_COUNT>
1

> <PUBCHEM_CACTVS_TAUTO_COUNT>
4

> <PUBCHEM_CONFORMER_ID>
02B4297900000001

> <PUBCHEM_MMFF94_ENERGY>
86.7891

> <PUBCHEM_FEATURE_SELFOVERLAP>
55.836

> <PUBCHEM_SHAPE_FINGERPRINT>
10 15 14635164391020058360
10190108 129 15769783455129864550
10280341 67 9799154941332841807
10554248 39 16298657297086540138
11374522 81 17489869333412833663
11456790 92 12031782583158299534
11621639 254 16805325496560067213
117089 54 17826796134398096571
11973864 196 15648191869833435158
12144603 126 17603863357053364965
12655364 131 13758089501576088455
13165053 182 15504364775321409214
13627175 4 16199884882324780390
13668630 136 17917990560353628856
13673619 4 18131344246198814153
13782708 43 17703492389988065381
14040221 275 15553350063207272683
14415360 78 15213303079354893702
14747282 305 14332585358203043598
14856354 85 18201434749732167765
15064986 266 17203615874208368456
15461852 350 18187366523364143822
15684393 108 17632581583016521300
16991971 28 18410853282601232173
16993089 31 17704078390936356854
19246450 95 13254810018767500651
20982279 24 17274840042727857886
21756936 100 9511464425257258849
21781051 124 17846780719919496862
21867018 265 18334580182647424214
21927370 108 17847067683827781153
22149856 69 11887960948081644526
22288116 15 17894912949310844339
23576562 1 15792589589168452662
25269216 80 18186523228633357211
3178227 256 15913325823174800828
3383291 50 16200143284193910182
393628 179 11314297370075754111
4169191 19 15430320204699531044
4516262 110 14562535086012252386
4938544 92 7781510417515525601
49967989 163 17895198860889084571
504579 68 17749111114618808558
54039377 194 18113338652931711171
5470011 282 18131069359770688868
57366028 249 16443924880748809397
58083652 198 14548725201721913315
6009941 240 17632581501259259225
6058803 2 16954197021171273713
9980921 7 14490485226472303790
999808 66 17060337435502294783

> <PUBCHEM_SHAPE_MULTIPOLES>
675.98
27.01
2.8
2.5
24.57
0.95
-0.48
23.56
14.67
-6.49
0.1
1.99
-0.44
1.97

> <PUBCHEM_SHAPE_SELFOVERLAP>
1409.352

> <PUBCHEM_SHAPE_VOLUME>
385.6

> <PUBCHEM_COORDINATE_TYPE>
2
5
10

$$$$
