75536720
  -OEChem-12032416343D

 40 40  0     1  0  0  0  0  0999 V2000
   -1.0187    1.3250   -0.3771 O   0  0  0  0  0  0  0  0  0  0  0  0
   -2.2035   -1.9552    0.4844 O   0  0  0  0  0  0  0  0  0  0  0  0
    2.4257   -1.3898    0.5523 O   0  0  0  0  0  0  0  0  0  0  0  0
   -4.4533    0.1748   -0.0423 N   0  0  0  0  0  0  0  0  0  0  0  0
    1.4870    0.0591   -1.0021 N   0  0  0  0  0  0  0  0  0  0  0  0
    3.6236    0.4420   -0.2180 N   0  0  0  0  0  0  0  0  0  0  0  0
   -3.0557    0.3272    0.3279 C   0  0  1  0  0  0  0  0  0  0  0  0
   -2.1522   -0.7469   -0.2490 C   0  0  1  0  0  0  0  0  0  0  0  0
   -0.7905   -0.0742   -0.1402 C   0  0  1  0  0  0  0  0  0  0  0  0
   -2.4265    1.5877   -0.2425 C   0  0  0  0  0  0  0  0  0  0  0  0
    0.2229   -0.6052   -1.1385 C   0  0  0  0  0  0  0  0  0  0  0  0
   -4.9967   -1.0820    0.4813 C   0  0  0  0  0  0  0  0  0  0  0  0
   -5.2473    1.3072    0.4432 C   0  0  0  0  0  0  0  0  0  0  0  0
    2.5067   -0.3876   -0.1567 C   0  0  0  0  0  0  0  0  0  0  0  0
    4.8180    0.2049    0.5581 C   0  0  0  0  0  0  0  0  0  0  0  0
    5.7726   -0.7122   -0.1963 C   0  0  0  0  0  0  0  0  0  0  0  0
    5.4878    1.5253    0.9154 C   0  0  0  0  0  0  0  0  0  0  0  0
   -2.9509    0.3372    1.4233 H   0  0  0  0  0  0  0  0  0  0  0  0
   -2.4044   -0.9567   -1.2961 H   0  0  0  0  0  0  0  0  0  0  0  0
   -0.3892   -0.1721    0.8771 H   0  0  0  0  0  0  0  0  0  0  0  0
   -2.8010    1.8278   -1.2445 H   0  0  0  0  0  0  0  0  0  0  0  0
   -2.5658    2.4623    0.4003 H   0  0  0  0  0  0  0  0  0  0  0  0
    0.3650   -1.6833   -1.0085 H   0  0  0  0  0  0  0  0  0  0  0  0
   -0.1126   -0.4190   -2.1646 H   0  0  0  0  0  0  0  0  0  0  0  0
   -1.9864   -1.7591    1.4115 H   0  0  0  0  0  0  0  0  0  0  0  0
   -6.0774   -1.1351    0.3019 H   0  0  0  0  0  0  0  0  0  0  0  0
   -4.8319   -1.1936    1.5591 H   0  0  0  0  0  0  0  0  0  0  0  0
   -4.5807   -1.9478   -0.0422 H   0  0  0  0  0  0  0  0  0  0  0  0
   -6.3032    1.1748    0.1795 H   0  0  0  0  0  0  0  0  0  0  0  0
   -4.9418    2.2476   -0.0267 H   0  0  0  0  0  0  0  0  0  0  0  0
   -5.1813    1.4213    1.5315 H   0  0  0  0  0  0  0  0  0  0  0  0
    1.6435    0.9072   -1.5381 H   0  0  0  0  0  0  0  0  0  0  0  0
    4.5257   -0.2959    1.4890 H   0  0  0  0  0  0  0  0  0  0  0  0
    3.6232    1.2027   -0.8909 H   0  0  0  0  0  0  0  0  0  0  0  0
    6.0813   -0.2664   -1.1485 H   0  0  0  0  0  0  0  0  0  0  0  0
    6.6723   -0.9122    0.3947 H   0  0  0  0  0  0  0  0  0  0  0  0
    5.2970   -1.6728   -0.4222 H   0  0  0  0  0  0  0  0  0  0  0  0
    6.3755    1.3595    1.5345 H   0  0  0  0  0  0  0  0  0  0  0  0
    4.8007    2.1703    1.4741 H   0  0  0  0  0  0  0  0  0  0  0  0
    5.7956    2.0720    0.0170 H   0  0  0  0  0  0  0  0  0  0  0  0
  1  9  1  0  0  0  0
  1 10  1  0  0  0  0
  2  8  1  0  0  0  0
  2 25  1  0  0  0  0
  3 14  2  0  0  0  0
  4  7  1  0  0  0  0
  4 12  1  0  0  0  0
  4 13  1  0  0  0  0
  5 11  1  0  0  0  0
  5 14  1  0  0  0  0
  5 32  1  0  0  0  0
  6 14  1  0  0  0  0
  6 15  1  0  0  0  0
  6 34  1  0  0  0  0
  7  8  1  0  0  0  0
  7 10  1  0  0  0  0
  7 18  1  0  0  0  0
  8  9  1  0  0  0  0
  8 19  1  0  0  0  0
  9 11  1  0  0  0  0
  9 20  1  0  0  0  0
 10 21  1  0  0  0  0
 10 22  1  0  0  0  0
 11 23  1  0  0  0  0
 11 24  1  0  0  0  0
 12 26  1  0  0  0  0
 12 27  1  0  0  0  0
 12 28  1  0  0  0  0
 13 29  1  0  0  0  0
 13 30  1  0  0  0  0
 13 31  1  0  0  0  0
 15 16  1  0  0  0  0
 15 17  1  0  0  0  0
 15 33  1  0  0  0  0
 16 35  1  0  0  0  0
 16 36  1  0  0  0  0
 16 37  1  0  0  0  0
 17 38  1  0  0  0  0
 17 39  1  0  0  0  0
 17 40  1  0  0  0  0
M  END
> <PUBCHEM_COMPOUND_CID>
75536720

> <PUBCHEM_CONFORMER_RMSD>
0.8

> <PUBCHEM_CONFORMER_DIVERSEORDER>
1
22
79
13
40
11
44
8
82
47
59
48
15
54
35
38
26
68
53
46
58
83
37
5
29
27
50
81
77
73
42
12
71
76
45
88
64
18
52
21
7
32
61
3
23
60
31
41
66
36
14
25
2
84
80
49
51
28
74
17
33
75
43
72
55
30
85
6
78
62
24
56
86
16
10
87
19
39
57
67
34
63
9
89
65
70
20
69
4

> <PUBCHEM_MMFF94_PARTIAL_CHARGES>
18
1 -0.56
10 0.28
11 0.3
12 0.27
13 0.27
14 0.69
15 0.3
2 -0.68
25 0.4
3 -0.57
32 0.37
34 0.37
4 -0.81
5 -0.73
6 -0.73
7 0.27
8 0.28
9 0.28

> <PUBCHEM_EFFECTIVE_ROTOR_COUNT>
7

> <PUBCHEM_PHARMACOPHORE_FEATURES>
9
1 1 acceptor
1 2 acceptor
1 2 donor
1 3 acceptor
1 4 cation
1 5 donor
1 6 donor
3 15 16 17 hydrophobe
5 1 7 8 9 10 rings

> <PUBCHEM_HEAVY_ATOM_COUNT>
17

> <PUBCHEM_ATOM_DEF_STEREO_COUNT>
3

> <PUBCHEM_ATOM_UDEF_STEREO_COUNT>
0

> <PUBCHEM_BOND_DEF_STEREO_COUNT>
0

> <PUBCHEM_BOND_UDEF_STEREO_COUNT>
0

> <PUBCHEM_ISOTOPIC_ATOM_COUNT>
0

> <PUBCHEM_COMPONENT_COUNT>
1

> <PUBCHEM_CACTVS_TAUTO_COUNT>
3

> <PUBCHEM_CONFORMER_ID>
0480995000000001

> <PUBCHEM_MMFF94_ENERGY>
30.7073

> <PUBCHEM_FEATURE_SELFOVERLAP>
45.72

> <PUBCHEM_SHAPE_FINGERPRINT>
11045977 3 18413107290265217696
11401426 45 18408323268497784205
117890 112 18272090465927359409
12107183 9 17541935391299652336
12236239 1 17675928698452242806
12251169 10 18260831496712370076
12507560 40 18337669703162920502
12596602 18 18408039628351213168
12670543 26 8358269128705529355
13081056 2 18272368664176215572
13214271 11 18272370867546984933
13533116 47 18115020797715056322
13668630 136 13479129065393747488
14251752 14 9295022249013079359
14251764 18 18411987975197406473
14341114 176 18410858767891471696
15048467 5 16773520984634269473
15183329 4 9871483010117524976
17834072 8 9655579591425807011
1813 80 16226051055178004854
18222031 100 16515685542233011102
19050596 39 18187085091664088540
200 152 13551472561802074013
20374829 77 11025795409591589613
204376 136 17131834274172775878
20510252 161 18269839722696780033
20645477 56 18060136544151570380
20645477 70 16916796119972409134
212847 35 17418089932532391512
21637258 2 15357988914566842073
21652331 79 18343297076825946144
2297311 6 18339653260941976612
23402539 116 18410007737285587175
23402655 69 12175626161417001830
23557571 272 18339086990710128476
23559900 14 18410856538180790358
26918003 58 17240485818596081577
300161 21 18335134268135836709
3009799 131 18040985247025555957
351380 180 18413669123543037520
3545911 37 18410013213268779398
42788 4 18273214196690769804
449060 50 18411697673587947470
5104073 3 18336550400220518867
542803 24 15195287529588253096

> <PUBCHEM_SHAPE_MULTIPOLES>
317.3
13.62
1.56
0.87
8.67
0.12
-0.06
2.34
3.43
-0.54
0.23
0.24
-0.02
0.66

> <PUBCHEM_SHAPE_SELFOVERLAP>
620.926

> <PUBCHEM_SHAPE_VOLUME>
193.9

> <PUBCHEM_COORDINATE_TYPE>
2
5
10

$$$$
