11887632
  -OEChem-12032416123D

 52 56  0     1  0  0  0  0  0999 V2000
   -7.6274    3.2547    0.6305 F   0  0  0  0  0  0  0  0  0  0  0  0
   -2.0344    0.9453   -0.3895 O   0  0  0  0  0  0  0  0  0  0  0  0
    0.3395    0.3207   -2.3377 O   0  0  0  0  0  0  0  0  0  0  0  0
   -5.2722   -2.4062    0.2545 O   0  0  0  0  0  0  0  0  0  0  0  0
   -0.1105   -0.9545   -0.4426 N   0  0  0  0  0  0  0  0  0  0  0  0
   -3.0773   -2.9301    0.1482 N   0  0  0  0  0  0  0  0  0  0  0  0
   -3.7264   -0.6550   -0.0540 N   0  0  0  0  0  0  0  0  0  0  0  0
   -1.6895   -2.6101   -0.0085 C   0  0  1  0  0  0  0  0  0  0  0  0
   -1.4700   -1.3471   -0.8128 C   0  0  1  0  0  0  0  0  0  0  0  0
   -0.9502   -2.3264    1.2979 C   0  0  0  0  0  0  0  0  0  0  0  0
    0.2936   -1.5885    0.8159 C   0  0  0  0  0  0  0  0  0  0  0  0
   -2.4187   -0.2268   -0.3969 C   0  0  0  0  0  0  0  0  0  0  0  0
    0.6974   -0.2034   -1.2853 C   0  0  0  0  0  0  0  0  0  0  0  0
   -4.1076   -2.0100    0.1420 C   0  0  0  0  0  0  0  0  0  0  0  0
   -4.7431    0.3626    0.1231 C   0  0  0  0  0  0  0  0  0  0  0  0
    2.1011   -0.0273   -0.8888 C   0  0  0  0  0  0  0  0  0  0  0  0
    3.0588   -0.9455   -1.3095 C   0  0  0  0  0  0  0  0  0  0  0  0
    2.4647    1.0568   -0.0952 C   0  0  0  0  0  0  0  0  0  0  0  0
   -4.6597    1.5461   -0.5978 C   0  0  0  0  0  0  0  0  0  0  0  0
   -5.7858    0.1406    1.0127 C   0  0  0  0  0  0  0  0  0  0  0  0
    4.3917   -0.7782   -0.9334 C   0  0  0  0  0  0  0  0  0  0  0  0
    3.7974    1.2243    0.2807 C   0  0  0  0  0  0  0  0  0  0  0  0
    4.7609    0.3068   -0.1383 C   0  0  0  0  0  0  0  0  0  0  0  0
   -5.6374    2.5261   -0.4259 C   0  0  0  0  0  0  0  0  0  0  0  0
   -6.7633    1.1207    1.1845 C   0  0  0  0  0  0  0  0  0  0  0  0
   -6.6892    2.3134    0.4652 C   0  0  0  0  0  0  0  0  0  0  0  0
    6.1434    0.4809    0.2514 C   0  0  0  0  0  0  0  0  0  0  0  0
    6.6134   -0.0957    1.4312 C   0  0  0  0  0  0  0  0  0  0  0  0
    7.0062    1.2250   -0.5531 C   0  0  0  0  0  0  0  0  0  0  0  0
    7.9463    0.0719    1.8069 C   0  0  0  0  0  0  0  0  0  0  0  0
    8.3392    1.3927   -0.1777 C   0  0  0  0  0  0  0  0  0  0  0  0
    8.8091    0.8162    1.0023 C   0  0  0  0  0  0  0  0  0  0  0  0
   -1.2138   -3.4628   -0.5101 H   0  0  0  0  0  0  0  0  0  0  0  0
   -1.5618   -1.4961   -1.8939 H   0  0  0  0  0  0  0  0  0  0  0  0
   -0.7081   -3.2351    1.8572 H   0  0  0  0  0  0  0  0  0  0  0  0
   -1.5441   -1.6810    1.9570 H   0  0  0  0  0  0  0  0  0  0  0  0
    0.6401   -0.8349    1.5287 H   0  0  0  0  0  0  0  0  0  0  0  0
    1.1105   -2.2863    0.6043 H   0  0  0  0  0  0  0  0  0  0  0  0
   -3.3232   -3.9046    0.2932 H   0  0  0  0  0  0  0  0  0  0  0  0
    2.7806   -1.7940   -1.9289 H   0  0  0  0  0  0  0  0  0  0  0  0
    1.7209    1.7765    0.2365 H   0  0  0  0  0  0  0  0  0  0  0  0
   -3.9114    1.7324   -1.3606 H   0  0  0  0  0  0  0  0  0  0  0  0
   -5.8508   -0.7308    1.6552 H   0  0  0  0  0  0  0  0  0  0  0  0
    5.1300   -1.5027   -1.2688 H   0  0  0  0  0  0  0  0  0  0  0  0
    4.0681    2.0755    0.9010 H   0  0  0  0  0  0  0  0  0  0  0  0
   -5.5901    3.4481   -0.9981 H   0  0  0  0  0  0  0  0  0  0  0  0
   -7.5732    0.9635    1.8908 H   0  0  0  0  0  0  0  0  0  0  0  0
    5.9542   -0.6789    2.0700 H   0  0  0  0  0  0  0  0  0  0  0  0
    6.6563    1.6812   -1.4761 H   0  0  0  0  0  0  0  0  0  0  0  0
    8.3124   -0.3770    2.7255 H   0  0  0  0  0  0  0  0  0  0  0  0
    9.0112    1.9721   -0.8040 H   0  0  0  0  0  0  0  0  0  0  0  0
    9.8469    0.9467    1.2947 H   0  0  0  0  0  0  0  0  0  0  0  0
  1 26  1  0  0  0  0
  2 12  2  0  0  0  0
  3 13  2  0  0  0  0
  4 14  2  0  0  0  0
  5  9  1  0  0  0  0
  5 11  1  0  0  0  0
  5 13  1  0  0  0  0
  6  8  1  0  0  0  0
  6 14  1  0  0  0  0
  6 39  1  0  0  0  0
  7 12  1  0  0  0  0
  7 14  1  0  0  0  0
  7 15  1  0  0  0  0
  8  9  1  0  0  0  0
  8 10  1  0  0  0  0
  8 33  1  0  0  0  0
  9 12  1  0  0  0  0
  9 34  1  0  0  0  0
 10 11  1  0  0  0  0
 10 35  1  0  0  0  0
 10 36  1  0  0  0  0
 11 37  1  0  0  0  0
 11 38  1  0  0  0  0
 13 16  1  0  0  0  0
 15 19  2  0  0  0  0
 15 20  1  0  0  0  0
 16 17  2  0  0  0  0
 16 18  1  0  0  0  0
 17 21  1  0  0  0  0
 17 40  1  0  0  0  0
 18 22  2  0  0  0  0
 18 41  1  0  0  0  0
 19 24  1  0  0  0  0
 19 42  1  0  0  0  0
 20 25  2  0  0  0  0
 20 43  1  0  0  0  0
 21 23  2  0  0  0  0
 21 44  1  0  0  0  0
 22 23  1  0  0  0  0
 22 45  1  0  0  0  0
 23 27  1  0  0  0  0
 24 26  2  0  0  0  0
 24 46  1  0  0  0  0
 25 26  1  0  0  0  0
 25 47  1  0  0  0  0
 27 28  2  0  0  0  0
 27 29  1  0  0  0  0
 28 30  1  0  0  0  0
 28 48  1  0  0  0  0
 29 31  2  0  0  0  0
 29 49  1  0  0  0  0
 30 32  2  0  0  0  0
 30 50  1  0  0  0  0
 31 32  1  0  0  0  0
 31 51  1  0  0  0  0
 32 52  1  0  0  0  0
M  END
> <PUBCHEM_COMPOUND_CID>
11887632

> <PUBCHEM_CONFORMER_RMSD>
0.8

> <PUBCHEM_CONFORMER_DIVERSEORDER>
1
7
8
12
22
6
17
21
15
14
9
4
20
16
13
10
18
3
2
5
11
19

> <PUBCHEM_MMFF94_PARTIAL_CHARGES>
43
1 -0.19
11 0.3
12 0.57
13 0.54
14 0.69
15 0.12
16 0.09
17 -0.15
18 -0.15
19 -0.15
2 -0.57
20 -0.15
21 -0.15
22 -0.15
24 -0.15
25 -0.15
26 0.19
28 -0.15
29 -0.15
3 -0.57
30 -0.15
31 -0.15
32 -0.15
39 0.37
4 -0.57
40 0.15
41 0.15
42 0.15
43 0.15
44 0.15
45 0.15
46 0.15
47 0.15
48 0.15
49 0.15
5 -0.66
50 0.15
51 0.15
52 0.15
6 -0.73
7 -0.24
8 0.3
9 0.36

> <PUBCHEM_EFFECTIVE_ROTOR_COUNT>
5

> <PUBCHEM_PHARMACOPHORE_FEATURES>
9
1 2 acceptor
1 3 acceptor
1 4 acceptor
1 6 donor
5 5 8 9 10 11 rings
6 15 19 20 24 25 26 rings
6 16 17 18 21 22 23 rings
6 27 28 29 30 31 32 rings
6 6 7 8 9 12 14 rings

> <PUBCHEM_HEAVY_ATOM_COUNT>
32

> <PUBCHEM_ATOM_DEF_STEREO_COUNT>
2

> <PUBCHEM_ATOM_UDEF_STEREO_COUNT>
0

> <PUBCHEM_BOND_DEF_STEREO_COUNT>
0

> <PUBCHEM_BOND_UDEF_STEREO_COUNT>
0

> <PUBCHEM_ISOTOPIC_ATOM_COUNT>
0

> <PUBCHEM_COMPONENT_COUNT>
1

> <PUBCHEM_CACTVS_TAUTO_COUNT>
2

> <PUBCHEM_CONFORMER_ID>
00B5641000000001

> <PUBCHEM_MMFF94_ENERGY>
119.2059

> <PUBCHEM_FEATURE_SELFOVERLAP>
45.863

> <PUBCHEM_SHAPE_FINGERPRINT>
10 15 18259989270863814476
10100884 174 17461449302197145611
10190206 1 18201142331442311199
10299344 5 17894344515269287034
10319926 262 18339632460283337490
10411042 1 17834115621937729359
10674148 151 18259983782929195784
10835480 77 18060140916301754820
11135609 201 18058180415179015945
11297750 10 16340304808792824471
11315181 36 18040995206153076758
11475781 23 18272941500959509020
12107183 9 18259702315682927004
12838862 33 18261949653727484869
13540713 5 17315935521806682126
13668630 136 12757142468881135288
13673619 4 11963394046120204566
13690498 29 9151174229863408475
13911987 19 15698001825172023111
14028597 1 18040991805203682160
14251764 18 18114178679371960398
14394314 77 18259702289733989528
14444916 359 17167860830021126242
14767858 380 12895352192161153452
14849402 71 17677902408378367700
15021287 119 16588023536756694444
15183329 4 17676756665737889090
15238133 3 18409737291806375020
15461852 350 17560515209062828293
1577012 14 18333447656122345530
16993089 31 13479403908956641392
18603816 31 13984672490279495097
19302320 297 18261402160343529228
20105231 36 14995999927011641848
2026 5 11891325440124467664
21033648 29 17917137395249309418
21130935 74 18408318900559106402
21267235 1 9727626212038473997
21756936 100 18412822491558995223
21781055 127 18042140782307149622
22288116 15 11384113063529031493
23522609 53 17605012445261649340
23559900 14 18271816696206536654
23569943 247 16444444846716726418
23576562 1 15338252671425410961
24771293 8 18335422374114986468
249057 25 17895481452482964999
2838139 119 18059849593065742013
3525247 154 17702656632013184240
3633792 109 15769501941672554044
4073 2 18335427889254342762
4093350 32 18059855027048879462
4403749 210 17488453252114081078
44802255 64 16845851287583929309
504843 32 16988558052013116166
5104073 3 17750805517623781576
5385378 56 18187646838715976538
54039377 194 14273453653189706394
563151 97 14620251710132157335
57527293 21 13913480194855110475
58083652 198 16371001970521550436
58260988 114 15720247239584842643
58260988 521 13695592126370568464
6009941 240 18342457058595089426
6058803 2 17389683095318202742
636775 72 18272932709088530113
636775 8 11314310521243930792
6691757 9 17967810578674809883
6698420 124 18057904454618293267
7226269 152 18341894090844984168
999808 66 14418129617211157762

> <PUBCHEM_SHAPE_MULTIPOLES>
618.72
24.65
2.73
1.35
24.83
0.35
0.06
-17.12
-9.63
-6.37
-0.37
1.17
0.07
-0.21

> <PUBCHEM_SHAPE_SELFOVERLAP>
1380.807

> <PUBCHEM_SHAPE_VOLUME>
328.2

> <PUBCHEM_COORDINATE_TYPE>
2
5
10

$$$$
