86769126
  -OEChem-12032416413D

 63 67  0     1  0  0  0  0  0999 V2000
    4.4038    2.2133    0.2749 O   0  0  0  0  0  0  0  0  0  0  0  0
    2.4314    1.3463    2.4103 O   0  0  0  0  0  0  0  0  0  0  0  0
    0.1773    0.8875    0.6257 O   0  0  0  0  0  0  0  0  0  0  0  0
    6.2025    2.9682   -0.8947 O   0  0  0  0  0  0  0  0  0  0  0  0
    2.0277   -4.3862   -0.2783 O   0  0  0  0  0  0  0  0  0  0  0  0
   -8.0029    0.0701   -0.9887 O   0  0  0  0  0  0  0  0  0  0  0  0
    2.9440   -2.2791    0.0838 N   0  0  0  0  0  0  0  0  0  0  0  0
   -0.0911   -2.1246    0.5168 N   0  0  0  0  0  0  0  0  0  0  0  0
   -5.2991    0.3270   -0.2658 N   0  0  0  0  0  0  0  0  0  0  0  0
    3.1694    0.1534   -0.3169 C   0  0  2  0  0  0  0  0  0  0  0  0
    4.5486   -0.1390   -0.9459 C   0  0  1  0  0  0  0  0  0  0  0  0
    3.0770    1.6508    0.0702 C   0  0  1  0  0  0  0  0  0  0  0  0
    2.9311   -0.9418    0.7325 C   0  0  0  0  0  0  0  0  0  0  0  0
    4.4815   -1.4576   -1.7097 C   0  0  0  0  0  0  0  0  0  0  0  0
    5.0150    1.0570   -1.7596 C   0  0  0  0  0  0  0  0  0  0  0  0
    4.1252   -2.5849   -0.7371 C   0  0  0  0  0  0  0  0  0  0  0  0
    2.1964    2.1211    1.2427 C   0  0  1  0  0  0  0  0  0  0  0  0
    5.2750    2.1757   -0.7765 C   0  0  0  0  0  0  0  0  0  0  0  0
    1.9855   -3.2823    0.2747 C   0  0  0  0  0  0  0  0  0  0  0  0
    0.6958    2.1840    0.9170 C   0  0  0  0  0  0  0  0  0  0  0  0
    0.8440   -2.9880    1.2242 C   0  0  0  0  0  0  0  0  0  0  0  0
   -1.1806    0.8148    0.4173 C   0  0  0  0  0  0  0  0  0  0  0  0
   -1.0541   -1.5225    1.4341 C   0  0  0  0  0  0  0  0  0  0  0  0
   -1.8150   -0.3937    0.7756 C   0  0  0  0  0  0  0  0  0  0  0  0
   -3.1911   -0.5423    0.5411 C   0  0  0  0  0  0  0  0  0  0  0  0
   -3.9284    0.4884   -0.0384 C   0  0  0  0  0  0  0  0  0  0  0  0
   -1.9301    1.8409   -0.1707 C   0  0  0  0  0  0  0  0  0  0  0  0
   -3.2987    1.6771   -0.3925 C   0  0  0  0  0  0  0  0  0  0  0  0
   -5.7321   -0.7679   -1.1449 C   0  0  0  0  0  0  0  0  0  0  0  0
   -6.1877    1.4939   -0.2375 C   0  0  0  0  0  0  0  0  0  0  0  0
   -7.1944   -1.1004   -0.8709 C   0  0  0  0  0  0  0  0  0  0  0  0
   -7.6260    1.0408   -0.0127 C   0  0  0  0  0  0  0  0  0  0  0  0
    2.3914    0.0091   -1.0827 H   0  0  0  0  0  0  0  0  0  0  0  0
    5.2814   -0.2746   -0.1340 H   0  0  0  0  0  0  0  0  0  0  0  0
    2.6957    2.1836   -0.8142 H   0  0  0  0  0  0  0  0  0  0  0  0
    3.7198   -0.9456    1.4941 H   0  0  0  0  0  0  0  0  0  0  0  0
    1.9885   -0.7770    1.2444 H   0  0  0  0  0  0  0  0  0  0  0  0
    5.4429   -1.6773   -2.1874 H   0  0  0  0  0  0  0  0  0  0  0  0
    3.7280   -1.3973   -2.5044 H   0  0  0  0  0  0  0  0  0  0  0  0
    4.2838    1.3774   -2.5078 H   0  0  0  0  0  0  0  0  0  0  0  0
    5.9573    0.8209   -2.2659 H   0  0  0  0  0  0  0  0  0  0  0  0
    3.9821   -3.5155   -1.2954 H   0  0  0  0  0  0  0  0  0  0  0  0
    4.9543   -2.7540   -0.0391 H   0  0  0  0  0  0  0  0  0  0  0  0
    2.5070    3.1422    1.5007 H   0  0  0  0  0  0  0  0  0  0  0  0
    0.1587    2.5942    1.7814 H   0  0  0  0  0  0  0  0  0  0  0  0
    0.5681    2.8506    0.0572 H   0  0  0  0  0  0  0  0  0  0  0  0
    0.3598   -3.9308    1.5041 H   0  0  0  0  0  0  0  0  0  0  0  0
    1.2416   -2.5451    2.1436 H   0  0  0  0  0  0  0  0  0  0  0  0
    1.8650    1.6974    3.1182 H   0  0  0  0  0  0  0  0  0  0  0  0
   -0.5776   -2.6503   -0.2087 H   0  0  0  0  0  0  0  0  0  0  0  0
   -0.5532   -1.1057    2.3179 H   0  0  0  0  0  0  0  0  0  0  0  0
   -1.7441   -2.2914    1.8031 H   0  0  0  0  0  0  0  0  0  0  0  0
   -3.6848   -1.4671    0.8329 H   0  0  0  0  0  0  0  0  0  0  0  0
   -1.4756    2.7740   -0.4874 H   0  0  0  0  0  0  0  0  0  0  0  0
   -3.8378    2.4938   -0.8649 H   0  0  0  0  0  0  0  0  0  0  0  0
   -5.6140   -0.4446   -2.1867 H   0  0  0  0  0  0  0  0  0  0  0  0
   -5.1332   -1.6743   -1.0058 H   0  0  0  0  0  0  0  0  0  0  0  0
   -5.9092    2.1872    0.5649 H   0  0  0  0  0  0  0  0  0  0  0  0
   -6.1213    2.0214   -1.1970 H   0  0  0  0  0  0  0  0  0  0  0  0
   -7.5541   -1.8321   -1.6013 H   0  0  0  0  0  0  0  0  0  0  0  0
   -7.3252   -1.5352    0.1274 H   0  0  0  0  0  0  0  0  0  0  0  0
   -7.7596    0.6190    0.9909 H   0  0  0  0  0  0  0  0  0  0  0  0
   -8.3052    1.8941   -0.1064 H   0  0  0  0  0  0  0  0  0  0  0  0
  1 12  1  0  0  0  0
  1 18  1  0  0  0  0
  2 17  1  0  0  0  0
  2 49  1  0  0  0  0
  3 20  1  0  0  0  0
  3 22  1  0  0  0  0
  4 18  2  0  0  0  0
  5 19  2  0  0  0  0
  6 31  1  0  0  0  0
  6 32  1  0  0  0  0
  7 13  1  0  0  0  0
  7 16  1  0  0  0  0
  7 19  1  0  0  0  0
  8 21  1  0  0  0  0
  8 23  1  0  0  0  0
  8 50  1  0  0  0  0
  9 26  1  0  0  0  0
  9 29  1  0  0  0  0
  9 30  1  0  0  0  0
 10 11  1  0  0  0  0
 10 12  1  0  0  0  0
 10 13  1  0  0  0  0
 10 33  1  0  0  0  0
 11 14  1  0  0  0  0
 11 15  1  0  0  0  0
 11 34  1  0  0  0  0
 12 17  1  0  0  0  0
 12 35  1  0  0  0  0
 13 36  1  0  0  0  0
 13 37  1  0  0  0  0
 14 16  1  0  0  0  0
 14 38  1  0  0  0  0
 14 39  1  0  0  0  0
 15 18  1  0  0  0  0
 15 40  1  0  0  0  0
 15 41  1  0  0  0  0
 16 42  1  0  0  0  0
 16 43  1  0  0  0  0
 17 20  1  0  0  0  0
 17 44  1  0  0  0  0
 19 21  1  0  0  0  0
 20 45  1  0  0  0  0
 20 46  1  0  0  0  0
 21 47  1  0  0  0  0
 21 48  1  0  0  0  0
 22 24  2  0  0  0  0
 22 27  1  0  0  0  0
 23 24  1  0  0  0  0
 23 51  1  0  0  0  0
 23 52  1  0  0  0  0
 24 25  1  0  0  0  0
 25 26  2  0  0  0  0
 25 53  1  0  0  0  0
 26 28  1  0  0  0  0
 27 28  2  0  0  0  0
 27 54  1  0  0  0  0
 28 55  1  0  0  0  0
 29 31  1  0  0  0  0
 29 56  1  0  0  0  0
 29 57  1  0  0  0  0
 30 32  1  0  0  0  0
 30 58  1  0  0  0  0
 30 59  1  0  0  0  0
 31 60  1  0  0  0  0
 31 61  1  0  0  0  0
 32 62  1  0  0  0  0
 32 63  1  0  0  0  0
M  END
> <PUBCHEM_COMPOUND_CID>
86769126

> <PUBCHEM_CONFORMER_RMSD>
0.8

> <PUBCHEM_CONFORMER_DIVERSEORDER>
1
17
9
14
4
6
11
3
5
12
10
15
16
8
13
2
7

> <PUBCHEM_MMFF94_PARTIAL_CHARGES>
34
1 -0.43
12 0.28
13 0.3
15 0.06
16 0.3
17 0.28
18 0.66
19 0.57
2 -0.68
20 0.28
21 0.33
22 0.08
23 0.41
24 -0.14
25 -0.15
26 0.1
27 -0.15
28 -0.15
29 0.37
3 -0.36
30 0.37
31 0.28
32 0.28
4 -0.57
49 0.4
5 -0.57
50 0.36
53 0.15
54 0.15
55 0.15
6 -0.56
7 -0.66
8 -0.9
9 -0.84

> <PUBCHEM_EFFECTIVE_ROTOR_COUNT>
4.4

> <PUBCHEM_PHARMACOPHORE_FEATURES>
13
1 2 acceptor
1 2 donor
1 3 acceptor
1 4 acceptor
1 5 acceptor
1 6 acceptor
1 8 cation
1 8 donor
1 9 cation
6 1 10 11 12 15 18 rings
6 22 24 25 26 27 28 rings
6 6 9 29 30 31 32 rings
6 7 10 11 13 14 16 rings

> <PUBCHEM_HEAVY_ATOM_COUNT>
32

> <PUBCHEM_ATOM_DEF_STEREO_COUNT>
4

> <PUBCHEM_ATOM_UDEF_STEREO_COUNT>
0

> <PUBCHEM_BOND_DEF_STEREO_COUNT>
0

> <PUBCHEM_BOND_UDEF_STEREO_COUNT>
0

> <PUBCHEM_ISOTOPIC_ATOM_COUNT>
0

> <PUBCHEM_COMPONENT_COUNT>
1

> <PUBCHEM_CACTVS_TAUTO_COUNT>
2

> <PUBCHEM_CONFORMER_ID>
052BFDE600000001

> <PUBCHEM_MMFF94_ENERGY>
117.0993

> <PUBCHEM_FEATURE_SELFOVERLAP>
65.999

> <PUBCHEM_SHAPE_FINGERPRINT>
10675989 125 18337115579489241872
10692045 39 10087640421149868967
10693767 8 18131069290360479950
11135609 187 18410012165107433441
11211813 74 18115302277598664037
11370993 70 18334303093369730060
11408170 132 18191008034185396325
12124843 1 18194987166164613206
12166972 35 18118114771885610346
12838863 1 18265608785359362922
13150687 139 18261684753076594092
13533116 47 18272649026555988665
1361 2 18335703853470975637
13617811 41 18187364350644215229
13782708 43 14260769755924367693
13947947 74 18271815669767641248
14068700 675 18125443000105469442
14117953 113 18187654630709805116
14528608 73 18408886209529221247
14675020 138 18270384075773729976
14681490 219 18412545375573468465
14931854 50 18340505386901321430
15183329 4 17847066575910691265
15276724 80 18264488383184219621
15322687 12 18408609158426620554
15348495 7 10807923899878823781
16067689 302 18411989092100523471
17909252 39 18129936767856237779
1813 80 14405179556290271827
18608769 82 18190469440295119531
19026451 147 18267864974217895226
19319366 153 18411133632734653326
20554085 129 18200863089584746232
20715895 44 18187932815472073100
20775438 99 18057300950777347191
21285901 2 17894625916319353373
21304303 94 18342179973075156330
21360443 126 18040715930837924979
221357 26 18340770338416176741
23516275 137 17630635408216792983
23522609 53 17987535731963081665
23559900 14 18336265742705085849
24771750 20 17317064750983618597
255183 451 17840312112113935790
27425 322 16878793854179465892
3004659 81 18335140843762428392
3117164 225 10159685920264531133
3472631 163 16515691095093156724
3886686 26 11377994161309918068
4073 2 18260551139329424939
437795 51 18334305262497403291
44317340 157 18189048695325696519
46194498 28 18335981956771868910
484989 97 18336559286287002730
513532 50 17917703617661959282
552612 73 17971187037714435093
59755656 215 18411134758226561293
6327066 14 18189903200570751244
70251023 43 17915469294270986158

> <PUBCHEM_SHAPE_MULTIPOLES>
608.39
17.44
3.81
1.41
30.2
2.71
0.15
-5.55
-9.06
-5.78
0.3
-1.1
-0.04
-0.15

> <PUBCHEM_SHAPE_SELFOVERLAP>
1295.945

> <PUBCHEM_SHAPE_VOLUME>
331.4

> <PUBCHEM_COORDINATE_TYPE>
2
5
10

$$$$
