51138039
  -OEChem-12032416223D

 66 70  0     1  0  0  0  0  0999 V2000
   -2.4392    2.5719   -0.4434 O   0  0  0  0  0  0  0  0  0  0  0  0
   -1.2523   -0.2564   -0.1637 N   0  0  0  0  0  0  0  0  0  0  0  0
    3.5487    0.8152    0.9795 N   0  0  0  0  0  0  0  0  0  0  0  0
   -3.4265    1.3578    1.2801 N   0  0  0  0  0  0  0  0  0  0  0  0
    7.4100    0.4152   -2.2585 N   0  0  0  0  0  0  0  0  0  0  0  0
   -0.6960   -1.4877    0.4130 C   0  0  2  0  0  0  0  0  0  0  0  0
    0.8130   -1.4807    0.6773 C   0  0  0  0  0  0  0  0  0  0  0  0
    1.6306   -0.3151    0.7335 C   0  0  0  0  0  0  0  0  0  0  0  0
   -1.1480    0.9169    0.6919 C   0  0  1  0  0  0  0  0  0  0  0  0
   -1.1189   -2.6003   -0.5631 C   0  0  0  0  0  0  0  0  0  0  0  0
    1.3750    1.0932    0.5954 C   0  0  0  0  0  0  0  0  0  0  0  0
    0.0696    1.7665    0.3332 C   0  0  0  0  0  0  0  0  0  0  0  0
    2.9991   -0.4449    0.9977 C   0  0  0  0  0  0  0  0  0  0  0  0
   -2.5909   -2.9979   -0.4157 C   0  0  0  0  0  0  0  0  0  0  0  0
    2.5814    1.7471    0.7446 C   0  0  0  0  0  0  0  0  0  0  0  0
    1.4568   -2.7106    0.9677 C   0  0  0  0  0  0  0  0  0  0  0  0
   -2.3930    1.7075    0.4279 C   0  0  0  0  0  0  0  0  0  0  0  0
    3.6233   -1.6706    1.2352 C   0  0  0  0  0  0  0  0  0  0  0  0
    4.9449    1.1287    1.1964 C   0  0  0  0  0  0  0  0  0  0  0  0
    2.8224   -2.8053    1.2285 C   0  0  0  0  0  0  0  0  0  0  0  0
   -2.9037   -4.1427   -1.3821 C   0  0  0  0  0  0  0  0  0  0  0  0
   -3.5450   -1.8304   -0.6716 C   0  0  0  0  0  0  0  0  0  0  0  0
    5.8089    0.8782   -0.0145 C   0  0  0  0  0  0  0  0  0  0  0  0
   -4.7265    1.9878    1.2464 C   0  0  0  0  0  0  0  0  0  0  0  0
    6.8978    0.0177    0.0705 C   0  0  0  0  0  0  0  0  0  0  0  0
    5.5196    1.5074   -1.2204 C   0  0  0  0  0  0  0  0  0  0  0  0
   -5.6686    1.2826    0.3140 C   0  0  0  0  0  0  0  0  0  0  0  0
    7.6600   -0.1783   -1.0698 C   0  0  0  0  0  0  0  0  0  0  0  0
    6.3434    1.2446   -2.3030 C   0  0  0  0  0  0  0  0  0  0  0  0
   -5.7396    1.6638   -1.0259 C   0  0  0  0  0  0  0  0  0  0  0  0
   -6.4731    0.2464    0.7878 C   0  0  0  0  0  0  0  0  0  0  0  0
   -6.6150    1.0087   -1.8921 C   0  0  0  0  0  0  0  0  0  0  0  0
   -7.3485   -0.4088   -0.0783 C   0  0  0  0  0  0  0  0  0  0  0  0
   -7.4196   -0.0276   -1.4182 C   0  0  0  0  0  0  0  0  0  0  0  0
   -1.1753   -1.6755    1.3836 H   0  0  0  0  0  0  0  0  0  0  0  0
   -1.1169    0.6478    1.7563 H   0  0  0  0  0  0  0  0  0  0  0  0
   -0.9041   -2.3037   -1.6005 H   0  0  0  0  0  0  0  0  0  0  0  0
   -0.5374   -3.5152   -0.4182 H   0  0  0  0  0  0  0  0  0  0  0  0
    0.0467    2.0603   -0.7258 H   0  0  0  0  0  0  0  0  0  0  0  0
    0.0327    2.7031    0.9068 H   0  0  0  0  0  0  0  0  0  0  0  0
   -0.8581   -0.0760   -1.0862 H   0  0  0  0  0  0  0  0  0  0  0  0
   -2.7637   -3.3675    0.6032 H   0  0  0  0  0  0  0  0  0  0  0  0
    2.8167    2.8027    0.7037 H   0  0  0  0  0  0  0  0  0  0  0  0
    0.8845   -3.6333    1.0294 H   0  0  0  0  0  0  0  0  0  0  0  0
    4.6841   -1.7491    1.4448 H   0  0  0  0  0  0  0  0  0  0  0  0
    5.2829    0.5488    2.0634 H   0  0  0  0  0  0  0  0  0  0  0  0
    5.0224    2.1852    1.4821 H   0  0  0  0  0  0  0  0  0  0  0  0
    3.2634   -3.7758    1.4401 H   0  0  0  0  0  0  0  0  0  0  0  0
   -2.2531   -5.0034   -1.1938 H   0  0  0  0  0  0  0  0  0  0  0  0
   -3.9391   -4.4800   -1.2644 H   0  0  0  0  0  0  0  0  0  0  0  0
   -2.7655   -3.8333   -2.4239 H   0  0  0  0  0  0  0  0  0  0  0  0
   -4.5715   -2.1989   -0.7846 H   0  0  0  0  0  0  0  0  0  0  0  0
   -3.5708   -1.1474    0.1783 H   0  0  0  0  0  0  0  0  0  0  0  0
   -3.2976   -1.2853   -1.5881 H   0  0  0  0  0  0  0  0  0  0  0  0
   -3.2875    0.6081    1.9514 H   0  0  0  0  0  0  0  0  0  0  0  0
   -5.1215    1.9836    2.2687 H   0  0  0  0  0  0  0  0  0  0  0  0
   -4.6143    3.0382    0.9525 H   0  0  0  0  0  0  0  0  0  0  0  0
    7.1537   -0.4900    0.9940 H   0  0  0  0  0  0  0  0  0  0  0  0
    4.6866    2.1930   -1.3274 H   0  0  0  0  0  0  0  0  0  0  0  0
    8.5200   -0.8398   -1.0560 H   0  0  0  0  0  0  0  0  0  0  0  0
    6.1621    1.7120   -3.2653 H   0  0  0  0  0  0  0  0  0  0  0  0
   -5.1207    2.4707   -1.4085 H   0  0  0  0  0  0  0  0  0  0  0  0
   -6.4249   -0.0617    1.8288 H   0  0  0  0  0  0  0  0  0  0  0  0
   -6.6703    1.3054   -2.9354 H   0  0  0  0  0  0  0  0  0  0  0  0
   -7.9740   -1.2165    0.2903 H   0  0  0  0  0  0  0  0  0  0  0  0
   -8.1008   -0.5381   -2.0926 H   0  0  0  0  0  0  0  0  0  0  0  0
  1 17  2  0  0  0  0
  2  6  1  0  0  0  0
  2  9  1  0  0  0  0
  2 41  1  0  0  0  0
  3 13  1  0  0  0  0
  3 15  1  0  0  0  0
  3 19  1  0  0  0  0
  4 17  1  0  0  0  0
  4 24  1  0  0  0  0
  4 55  1  0  0  0  0
  5 28  2  0  0  0  0
  5 29  1  0  0  0  0
  6  7  1  0  0  0  0
  6 10  1  0  0  0  0
  6 35  1  0  0  0  0
  7  8  2  0  0  0  0
  7 16  1  0  0  0  0
  8 11  1  0  0  0  0
  8 13  1  0  0  0  0
  9 12  1  0  0  0  0
  9 17  1  0  0  0  0
  9 36  1  0  0  0  0
 10 14  1  0  0  0  0
 10 37  1  0  0  0  0
 10 38  1  0  0  0  0
 11 12  1  0  0  0  0
 11 15  2  0  0  0  0
 12 39  1  0  0  0  0
 12 40  1  0  0  0  0
 13 18  2  0  0  0  0
 14 21  1  0  0  0  0
 14 22  1  0  0  0  0
 14 42  1  0  0  0  0
 15 43  1  0  0  0  0
 16 20  2  0  0  0  0
 16 44  1  0  0  0  0
 18 20  1  0  0  0  0
 18 45  1  0  0  0  0
 19 23  1  0  0  0  0
 19 46  1  0  0  0  0
 19 47  1  0  0  0  0
 20 48  1  0  0  0  0
 21 49  1  0  0  0  0
 21 50  1  0  0  0  0
 21 51  1  0  0  0  0
 22 52  1  0  0  0  0
 22 53  1  0  0  0  0
 22 54  1  0  0  0  0
 23 25  2  0  0  0  0
 23 26  1  0  0  0  0
 24 27  1  0  0  0  0
 24 56  1  0  0  0  0
 24 57  1  0  0  0  0
 25 28  1  0  0  0  0
 25 58  1  0  0  0  0
 26 29  2  0  0  0  0
 26 59  1  0  0  0  0
 27 30  2  0  0  0  0
 27 31  1  0  0  0  0
 28 60  1  0  0  0  0
 29 61  1  0  0  0  0
 30 32  1  0  0  0  0
 30 62  1  0  0  0  0
 31 33  2  0  0  0  0
 31 63  1  0  0  0  0
 32 34  2  0  0  0  0
 32 64  1  0  0  0  0
 33 34  1  0  0  0  0
 33 65  1  0  0  0  0
 34 66  1  0  0  0  0
M  END
> <PUBCHEM_COMPOUND_CID>
51138039

> <PUBCHEM_CONFORMER_RMSD>
1

> <PUBCHEM_CONFORMER_DIVERSEORDER>
1
131
79
58
102
75
105
132
92
83
71
110
128
130
68
107
104
129
8
94
87
95
97
126
49
119
62
141
10
134
29
78
117
90
109
111
60
143
57
55
133
42
17
50
31
89
138
44
106
28
61
74
91
66
122
38
100
114
6
144
118
96
135
52
47
86
116
34
101
136
80
23
103
72
112
123
27
51
54
98
82
85
35
15
67
21
121
65
53
45
36
93
11
120
139
40
9
69
33
142
88
2
137
70
20
124
81
30
32
25
4
5
12
26
115
22
43
125
140
77
13
41
108
3
59
18
56
46
99
48
64
37
84
113
39
127
76
16
73
7
19
63
24
14

> <PUBCHEM_MMFF94_PARTIAL_CHARGES>
44
1 -0.57
11 -0.18
12 0.18
13 -0.15
15 -0.3
16 -0.15
17 0.57
18 -0.15
19 0.4
2 -0.9
20 -0.15
23 -0.14
24 0.44
25 -0.15
26 -0.15
27 -0.14
28 0.16
29 0.16
3 0.05
30 -0.15
31 -0.15
32 -0.15
33 -0.15
34 -0.15
4 -0.73
41 0.36
43 0.15
44 0.15
45 0.15
48 0.15
5 -0.62
55 0.37
58 0.15
59 0.15
6 0.41
60 0.15
61 0.15
62 0.15
63 0.15
64 0.15
65 0.15
66 0.15
7 -0.14
9 0.33

> <PUBCHEM_EFFECTIVE_ROTOR_COUNT>
8.8

> <PUBCHEM_PHARMACOPHORE_FEATURES>
12
1 1 acceptor
1 2 cation
1 2 donor
1 3 cation
1 4 donor
1 5 acceptor
3 14 21 22 hydrophobe
5 3 8 11 13 15 rings
6 27 30 31 32 33 34 rings
6 5 23 25 26 28 29 rings
6 7 8 13 16 18 20 rings
7 2 6 7 8 9 11 12 rings

> <PUBCHEM_HEAVY_ATOM_COUNT>
34

> <PUBCHEM_ATOM_DEF_STEREO_COUNT>
2

> <PUBCHEM_ATOM_UDEF_STEREO_COUNT>
0

> <PUBCHEM_BOND_DEF_STEREO_COUNT>
0

> <PUBCHEM_BOND_UDEF_STEREO_COUNT>
0

> <PUBCHEM_ISOTOPIC_ATOM_COUNT>
0

> <PUBCHEM_COMPONENT_COUNT>
1

> <PUBCHEM_CACTVS_TAUTO_COUNT>
2

> <PUBCHEM_CONFORMER_ID>
030C4DF700000001

> <PUBCHEM_MMFF94_ENERGY>
83.0828

> <PUBCHEM_FEATURE_SELFOVERLAP>
61.028

> <PUBCHEM_SHAPE_FINGERPRINT>
10119406 146 17989214737230743415
11007060 377 18344148094388265009
11135609 12 10087638195681920258
11136131 41 18117546349806497379
11991303 11 18187648050033942571
12522641 126 18262802835732202414
12788726 201 17774997960881044521
13782708 43 13830121785245750133
14294032 229 18334011653489443244
14400156 162 13686302396595013591
1454969 45 18259706687743512317
14840074 17 18260828185688509437
14931854 50 18202271499539527909
15131766 46 16299810830928931948
15183329 4 18060419109854912086
15328829 1 18040723601185207932
15352257 5 15913326892395324581
15629462 23 16200167464527165299
1577012 14 18271242716998541401
15849732 13 17967253108814588133
19319366 153 18186800236575133226
20028762 73 17915444027115904215
21026386 80 15936406716084946050
21583282 1 18041572347058337294
21792938 79 15576119995393472295
23559900 14 17988073529712616536
23569943 247 16771007397905731414
23576562 1 18116437122841261565
24771293 8 10737583751688062872
25147074 1 18334283263411338050
27425 322 16661221351166836714
3103668 31 18047197624471614043
4058900 60 18113897165192626570
4173938 77 17895480357071645661
4258327 124 17895203228579783917
45377200 153 17059765745855247999
504579 68 18411417301985477612
563151 40 18409456898697550042
59755656 215 18202286896490557094

> <PUBCHEM_SHAPE_MULTIPOLES>
673.91
20.86
3.42
1.67
1.26
3.34
0.77
-8.39
10.42
-2.4
0.27
1.24
-0.19
-2.06

> <PUBCHEM_SHAPE_SELFOVERLAP>
1465.285

> <PUBCHEM_SHAPE_VOLUME>
365.8

> <PUBCHEM_COORDINATE_TYPE>
2
5
10

$$$$
