45361633
  -OEChem-12032416143D

 67 69  0     1  0  0  0  0  0999 V2000
    1.3085   -1.9023   -1.5044 O   0  0  0  0  0  0  0  0  0  0  0  0
    6.1324   -1.6409    0.7830 O   0  0  0  0  0  0  0  0  0  0  0  0
   -4.3457    1.9622   -1.0226 O   0  0  0  0  0  0  0  0  0  0  0  0
    5.8383    2.4037   -1.0839 O   0  0  0  0  0  0  0  0  0  0  0  0
   -3.4811    0.0960    0.0476 N   0  0  0  0  0  0  0  0  0  0  0  0
    5.5682   -0.4535   -1.1279 N   0  0  0  0  0  0  0  0  0  0  0  0
   -8.2475    0.6529   -0.1733 N   0  0  0  0  0  0  0  0  0  0  0  0
   -7.3399   -1.5788   -0.1266 N   0  0  0  0  0  0  0  0  0  0  0  0
    0.6066    0.5801    1.3099 C   0  0  1  0  0  0  0  0  0  0  0  0
    0.3616   -0.2248   -0.0096 C   0  0  2  0  0  0  0  0  0  0  0  0
   -1.1318   -0.7031   -0.1035 C   0  0  1  0  0  0  0  0  0  0  0  0
    1.4328   -1.3373   -0.1985 C   0  0  2  0  0  0  0  0  0  0  0  0
    2.0520    1.1314    1.3172 C   0  0  0  0  0  0  0  0  0  0  0  0
   -0.3578    1.7880    1.3502 C   0  0  0  0  0  0  0  0  0  0  0  0
    2.8774   -0.7969   -0.0864 C   0  0  1  0  0  0  0  0  0  0  0  0
   -2.0947    0.5119    0.0136 C   0  0  2  0  0  0  0  0  0  0  0  0
    3.1049    0.0406    1.1720 C   0  0  0  0  0  0  0  0  0  0  0  0
   -1.8218    1.3878    1.2361 C   0  0  0  0  0  0  0  0  0  0  0  0
    0.3967   -0.2829    2.5799 C   0  0  0  0  0  0  0  0  0  0  0  0
    3.9135   -1.9262   -0.1445 C   0  0  2  0  0  0  0  0  0  0  0  0
   -1.4503   -1.4782   -1.3932 C   0  0  0  0  0  0  0  0  0  0  0  0
    3.6779   -2.9136    0.9931 C   0  0  0  0  0  0  0  0  0  0  0  0
    5.3220   -1.3427   -0.0918 C   0  0  0  0  0  0  0  0  0  0  0  0
   -4.4994    0.8702   -0.4817 C   0  0  0  0  0  0  0  0  0  0  0  0
   -5.8706    0.3153   -0.3438 C   0  0  0  0  0  0  0  0  0  0  0  0
    6.8313    0.2286   -1.2885 C   0  0  0  0  0  0  0  0  0  0  0  0
   -6.9887    1.1224   -0.2980 C   0  0  0  0  0  0  0  0  0  0  0  0
   -6.1090   -1.0409   -0.2527 C   0  0  0  0  0  0  0  0  0  0  0  0
    6.8466    1.5549   -0.5506 C   0  0  0  0  0  0  0  0  0  0  0  0
   -8.3487   -0.6876   -0.0940 C   0  0  0  0  0  0  0  0  0  0  0  0
    5.8165    3.6636   -0.4269 C   0  0  0  0  0  0  0  0  0  0  0  0
    0.4978    0.4734   -0.8512 H   0  0  0  0  0  0  0  0  0  0  0  0
   -1.3360   -1.3927    0.7253 H   0  0  0  0  0  0  0  0  0  0  0  0
    1.2203   -2.1301    0.5206 H   0  0  0  0  0  0  0  0  0  0  0  0
    2.1783    1.8491    0.4952 H   0  0  0  0  0  0  0  0  0  0  0  0
    2.2407    1.6911    2.2423 H   0  0  0  0  0  0  0  0  0  0  0  0
   -0.2140    2.3585    2.2766 H   0  0  0  0  0  0  0  0  0  0  0  0
   -0.1219    2.4758    0.5270 H   0  0  0  0  0  0  0  0  0  0  0  0
    3.0263   -0.1326   -0.9482 H   0  0  0  0  0  0  0  0  0  0  0  0
   -1.9572    1.1368   -0.8798 H   0  0  0  0  0  0  0  0  0  0  0  0
    4.0825    0.5353    1.1394 H   0  0  0  0  0  0  0  0  0  0  0  0
    3.1028   -0.5592    2.0844 H   0  0  0  0  0  0  0  0  0  0  0  0
   -2.4335    2.2979    1.1851 H   0  0  0  0  0  0  0  0  0  0  0  0
   -2.1440    0.8732    2.1496 H   0  0  0  0  0  0  0  0  0  0  0  0
   -0.6299   -0.6436    2.6830 H   0  0  0  0  0  0  0  0  0  0  0  0
    0.6221    0.2983    3.4819 H   0  0  0  0  0  0  0  0  0  0  0  0
    1.0384   -1.1682    2.5957 H   0  0  0  0  0  0  0  0  0  0  0  0
    3.8296   -2.4667   -1.0961 H   0  0  0  0  0  0  0  0  0  0  0  0
   -1.1207   -0.9272   -2.2800 H   0  0  0  0  0  0  0  0  0  0  0  0
   -2.5230   -1.6688   -1.5015 H   0  0  0  0  0  0  0  0  0  0  0  0
   -0.9788   -2.4649   -1.3875 H   0  0  0  0  0  0  0  0  0  0  0  0
   -3.6981   -0.7474    0.5687 H   0  0  0  0  0  0  0  0  0  0  0  0
    1.4397   -1.1919   -2.1552 H   0  0  0  0  0  0  0  0  0  0  0  0
    3.7683   -2.4786    1.9910 H   0  0  0  0  0  0  0  0  0  0  0  0
    4.4427   -3.7001    0.9484 H   0  0  0  0  0  0  0  0  0  0  0  0
    2.7224   -3.4371    0.9171 H   0  0  0  0  0  0  0  0  0  0  0  0
    4.8652   -0.3035   -1.8443 H   0  0  0  0  0  0  0  0  0  0  0  0
    7.6403   -0.4156   -0.9294 H   0  0  0  0  0  0  0  0  0  0  0  0
    6.9621    0.3906   -2.3636 H   0  0  0  0  0  0  0  0  0  0  0  0
   -6.9154    2.2038   -0.3578 H   0  0  0  0  0  0  0  0  0  0  0  0
   -5.3159   -1.7795   -0.3006 H   0  0  0  0  0  0  0  0  0  0  0  0
    6.6635    1.3978    0.5190 H   0  0  0  0  0  0  0  0  0  0  0  0
    7.8266    2.0294   -0.6749 H   0  0  0  0  0  0  0  0  0  0  0  0
   -9.3484   -1.0920    0.0067 H   0  0  0  0  0  0  0  0  0  0  0  0
    5.5940    3.5369    0.6371 H   0  0  0  0  0  0  0  0  0  0  0  0
    6.7729    4.1799   -0.5540 H   0  0  0  0  0  0  0  0  0  0  0  0
    5.0283    4.2727   -0.8774 H   0  0  0  0  0  0  0  0  0  0  0  0
  1 12  1  0  0  0  0
  1 53  1  0  0  0  0
  2 23  2  0  0  0  0
  3 24  2  0  0  0  0
  4 29  1  0  0  0  0
  4 31  1  0  0  0  0
  5 16  1  0  0  0  0
  5 24  1  0  0  0  0
  5 52  1  0  0  0  0
  6 23  1  0  0  0  0
  6 26  1  0  0  0  0
  6 57  1  0  0  0  0
  7 27  2  0  0  0  0
  7 30  1  0  0  0  0
  8 28  1  0  0  0  0
  8 30  2  0  0  0  0
  9 10  1  0  0  0  0
  9 13  1  0  0  0  0
  9 14  1  0  0  0  0
  9 19  1  0  0  0  0
 10 11  1  0  0  0  0
 10 12  1  0  0  0  0
 10 32  1  0  0  0  0
 11 16  1  0  0  0  0
 11 21  1  0  0  0  0
 11 33  1  0  0  0  0
 12 15  1  0  0  0  0
 12 34  1  0  0  0  0
 13 17  1  0  0  0  0
 13 35  1  0  0  0  0
 13 36  1  0  0  0  0
 14 18  1  0  0  0  0
 14 37  1  0  0  0  0
 14 38  1  0  0  0  0
 15 17  1  0  0  0  0
 15 20  1  0  0  0  0
 15 39  1  0  0  0  0
 16 18  1  0  0  0  0
 16 40  1  0  0  0  0
 17 41  1  0  0  0  0
 17 42  1  0  0  0  0
 18 43  1  0  0  0  0
 18 44  1  0  0  0  0
 19 45  1  0  0  0  0
 19 46  1  0  0  0  0
 19 47  1  0  0  0  0
 20 22  1  0  0  0  0
 20 23  1  0  0  0  0
 20 48  1  0  0  0  0
 21 49  1  0  0  0  0
 21 50  1  0  0  0  0
 21 51  1  0  0  0  0
 22 54  1  0  0  0  0
 22 55  1  0  0  0  0
 22 56  1  0  0  0  0
 24 25  1  0  0  0  0
 25 27  1  0  0  0  0
 25 28  2  0  0  0  0
 26 29  1  0  0  0  0
 26 58  1  0  0  0  0
 26 59  1  0  0  0  0
 27 60  1  0  0  0  0
 28 61  1  0  0  0  0
 29 62  1  0  0  0  0
 29 63  1  0  0  0  0
 30 64  1  0  0  0  0
 31 65  1  0  0  0  0
 31 66  1  0  0  0  0
 31 67  1  0  0  0  0
M  END
> <PUBCHEM_COMPOUND_CID>
45361633

> <PUBCHEM_CONFORMER_RMSD>
1

> <PUBCHEM_CONFORMER_DIVERSEORDER>
1
38
81
85
69
91
63
75
88
106
68
101
54
41
48
86
76
35
111
64
98
53
74
103
22
60
102
19
95
80
104
57
112
45
82
96
87
47
66
49
90
108
105
56
77
72
36
21
71
51
61
89
43
17
92
20
62
78
83
14
84
27
4
28
109
50
9
37
79
52
30
93
73
94
100
42
33
59
8
70
23
46
5
40
26
6
67
34
11
29
12
44
65
110
32
25
31
13
97
10
58
99
39
18
2
7
24
55
107
16
15
3

> <PUBCHEM_MMFF94_PARTIAL_CHARGES>
26
1 -0.68
12 0.28
16 0.3
2 -0.57
20 0.06
23 0.57
24 0.54
25 0.09
26 0.3
27 0.16
28 0.16
29 0.28
3 -0.57
30 0.47
31 0.28
4 -0.56
5 -0.73
52 0.37
53 0.4
57 0.37
6 -0.73
60 0.15
61 0.15
64 0.15
7 -0.62
8 -0.62

> <PUBCHEM_EFFECTIVE_ROTOR_COUNT>
10.6

> <PUBCHEM_PHARMACOPHORE_FEATURES>
13
1 1 acceptor
1 1 donor
1 2 acceptor
1 22 hydrophobe
1 3 acceptor
1 4 acceptor
1 5 donor
1 6 donor
1 7 acceptor
3 7 8 30 cation
6 7 8 25 27 28 30 rings
6 9 10 11 14 16 18 rings
6 9 10 12 13 15 17 rings

> <PUBCHEM_HEAVY_ATOM_COUNT>
31

> <PUBCHEM_ATOM_DEF_STEREO_COUNT>
6

> <PUBCHEM_ATOM_UDEF_STEREO_COUNT>
1

> <PUBCHEM_BOND_DEF_STEREO_COUNT>
0

> <PUBCHEM_BOND_UDEF_STEREO_COUNT>
0

> <PUBCHEM_ISOTOPIC_ATOM_COUNT>
0

> <PUBCHEM_COMPONENT_COUNT>
1

> <PUBCHEM_CACTVS_TAUTO_COUNT>
4

> <PUBCHEM_CONFORMER_ID>
02B429E100000001

> <PUBCHEM_MMFF94_ENERGY>
88.4775

> <PUBCHEM_FEATURE_SELFOVERLAP>
65.986

> <PUBCHEM_SHAPE_FINGERPRINT>
10299344 5 18343303656942190107
10533779 47 11239728517386478885
10673678 19 18339930415271290820
10677351 14 18411131460308700989
10906281 52 17917163714297572947
11315181 36 18411140217805071849
11331351 85 14189575230430639177
11646440 116 16702014262637912235
11963148 33 18059564768263182327
12166972 35 18408041793099489661
13165053 68 17973168610627431671
13617811 41 18343580776738661224
13685833 64 18060414695134999155
13899415 154 17346597465215712154
15183329 4 17346600772546134613
15301273 46 13830133875615085489
15361156 5 18341047506579991327
15840311 113 18335987536646562876
16120349 18 18335135405748483925
19319366 153 18411976936900126654
20105231 36 17346602975880682815
20157964 124 18260832588245901774
2026 5 15696610849518099126
20554085 129 15864067693645223256
20771845 171 17917722275184802446
21049683 271 18343303695064932193
21150785 3 18259987067619132805
21267235 1 17703791388141342699
21521721 280 18335426767972038123
21781051 124 18130791199986666687
21781055 127 15769235915967377059
22149856 69 17417820474014734987
22224240 67 15502376729385333395
23522609 53 17916329197741436401
23569914 2 17100539978882883364
23569917 315 18129105524809582590
23569943 247 14979126747676860567
24771750 20 18056760060139746556
3178227 256 17846779603201898387
335352 9 17846774118538678551
34797466 226 18335140868994207566
4073 2 18187929521248468939
4098825 35 18335137562360409221
4149490 64 18113054931144033362
439807 62 18337388241519887763
445580 167 18334289907619671741
46194498 28 18410289173175465300
4625314 4 18335422335507883335
465052 167 18059288777652959987
5265222 85 18340768238699960807

> <PUBCHEM_SHAPE_MULTIPOLES>
594.56
22.13
2.66
1.46
25.05
0.89
-0.57
3.12
7.36
-4.64
0.26
-1.17
0.08
-1.18

> <PUBCHEM_SHAPE_SELFOVERLAP>
1230.064

> <PUBCHEM_SHAPE_VOLUME>
334.4

> <PUBCHEM_COORDINATE_TYPE>
2
5
10

$$$$
