45784060
  -OEChem-12032416243D

 48 51  0     1  0  0  0  0  0999 V2000
    6.4626    2.0771   -0.3013 F   0  0  0  0  0  0  0  0  0  0  0  0
    6.5014    0.7358    1.4096 F   0  0  0  0  0  0  0  0  0  0  0  0
    6.8692   -0.0405   -0.5818 F   0  0  0  0  0  0  0  0  0  0  0  0
   -3.9581   -0.7976   -1.9468 O   0  0  0  0  0  0  0  0  0  0  0  0
   -2.6555   -1.3084   -0.1079 N   0  0  0  0  0  0  0  0  0  0  0  0
    1.8656   -1.8612    0.3834 N   0  0  0  0  0  0  0  0  0  0  0  0
    0.5813   -0.2643   -0.4769 N   0  0  0  0  0  0  0  0  0  0  0  0
   -4.5289    0.2360    0.1116 C   0  0  0  0  0  0  0  0  0  0  0  0
   -0.5753   -2.4295    0.1521 C   0  0  2  0  0  0  0  0  0  0  0  0
   -1.7512   -2.2120   -0.8085 C   0  0  0  0  0  0  0  0  0  0  0  0
   -1.2519   -2.2776    1.5234 C   0  0  0  0  0  0  0  0  0  0  0  0
   -2.2971   -1.1911    1.3011 C   0  0  0  0  0  0  0  0  0  0  0  0
   -5.9698    0.2351   -0.4019 C   0  0  0  0  0  0  0  0  0  0  0  0
   -3.9362    1.6458    0.1168 C   0  0  0  0  0  0  0  0  0  0  0  0
   -3.6970   -0.6634   -0.7500 C   0  0  0  0  0  0  0  0  0  0  0  0
   -6.8444    1.2119    0.3798 C   0  0  0  0  0  0  0  0  0  0  0  0
   -4.8132    2.6187    0.9007 C   0  0  0  0  0  0  0  0  0  0  0  0
   -6.2505    2.6179    0.3876 C   0  0  0  0  0  0  0  0  0  0  0  0
    0.6065   -1.4869    0.0043 C   0  0  0  0  0  0  0  0  0  0  0  0
    2.7091   -0.8101    0.1298 C   0  0  0  0  0  0  0  0  0  0  0  0
    1.8837    0.1741   -0.4067 C   0  0  0  0  0  0  0  0  0  0  0  0
    4.0812   -0.6411    0.3178 C   0  0  0  0  0  0  0  0  0  0  0  0
    2.4433    1.4068   -0.7834 C   0  0  0  0  0  0  0  0  0  0  0  0
    4.6214    0.5918   -0.0627 C   0  0  0  0  0  0  0  0  0  0  0  0
    3.8188    1.5989   -0.6036 C   0  0  0  0  0  0  0  0  0  0  0  0
    6.0848    0.8339    0.1135 C   0  0  0  0  0  0  0  0  0  0  0  0
   -4.5746   -0.1331    1.1392 H   0  0  0  0  0  0  0  0  0  0  0  0
   -0.1934   -3.4510    0.0277 H   0  0  0  0  0  0  0  0  0  0  0  0
   -1.4639   -1.7948   -1.7788 H   0  0  0  0  0  0  0  0  0  0  0  0
   -2.3001   -3.1458   -0.9770 H   0  0  0  0  0  0  0  0  0  0  0  0
   -0.5664   -2.0315    2.3404 H   0  0  0  0  0  0  0  0  0  0  0  0
   -1.7577   -3.2173    1.7800 H   0  0  0  0  0  0  0  0  0  0  0  0
   -3.1596   -1.3430    1.9540 H   0  0  0  0  0  0  0  0  0  0  0  0
   -1.8790   -0.1946    1.4717 H   0  0  0  0  0  0  0  0  0  0  0  0
   -6.0049    0.5151   -1.4631 H   0  0  0  0  0  0  0  0  0  0  0  0
   -6.3951   -0.7738   -0.3327 H   0  0  0  0  0  0  0  0  0  0  0  0
   -2.9283    1.6431    0.5461 H   0  0  0  0  0  0  0  0  0  0  0  0
   -3.8261    2.0087   -0.9138 H   0  0  0  0  0  0  0  0  0  0  0  0
   -6.9547    0.8570    1.4119 H   0  0  0  0  0  0  0  0  0  0  0  0
   -7.8490    1.2386   -0.0571 H   0  0  0  0  0  0  0  0  0  0  0  0
   -4.3972    3.6300    0.8286 H   0  0  0  0  0  0  0  0  0  0  0  0
   -4.8038    2.3441    1.9627 H   0  0  0  0  0  0  0  0  0  0  0  0
   -6.8657    3.2745    1.0131 H   0  0  0  0  0  0  0  0  0  0  0  0
   -6.2749    3.0295   -0.6289 H   0  0  0  0  0  0  0  0  0  0  0  0
    2.1303   -2.7527    0.7812 H   0  0  0  0  0  0  0  0  0  0  0  0
    4.6954   -1.4297    0.7388 H   0  0  0  0  0  0  0  0  0  0  0  0
    1.8277    2.1952   -1.2046 H   0  0  0  0  0  0  0  0  0  0  0  0
    4.2463    2.5547   -0.8970 H   0  0  0  0  0  0  0  0  0  0  0  0
  1 26  1  0  0  0  0
  2 26  1  0  0  0  0
  3 26  1  0  0  0  0
  4 15  2  0  0  0  0
  5 10  1  0  0  0  0
  5 12  1  0  0  0  0
  5 15  1  0  0  0  0
  6 19  1  0  0  0  0
  6 20  1  0  0  0  0
  6 45  1  0  0  0  0
  7 19  2  0  0  0  0
  7 21  1  0  0  0  0
  8 13  1  0  0  0  0
  8 14  1  0  0  0  0
  8 15  1  0  0  0  0
  8 27  1  0  0  0  0
  9 10  1  0  0  0  0
  9 11  1  0  0  0  0
  9 19  1  0  0  0  0
  9 28  1  0  0  0  0
 10 29  1  0  0  0  0
 10 30  1  0  0  0  0
 11 12  1  0  0  0  0
 11 31  1  0  0  0  0
 11 32  1  0  0  0  0
 12 33  1  0  0  0  0
 12 34  1  0  0  0  0
 13 16  1  0  0  0  0
 13 35  1  0  0  0  0
 13 36  1  0  0  0  0
 14 17  1  0  0  0  0
 14 37  1  0  0  0  0
 14 38  1  0  0  0  0
 16 18  1  0  0  0  0
 16 39  1  0  0  0  0
 16 40  1  0  0  0  0
 17 18  1  0  0  0  0
 17 41  1  0  0  0  0
 17 42  1  0  0  0  0
 18 43  1  0  0  0  0
 18 44  1  0  0  0  0
 20 21  2  0  0  0  0
 20 22  1  0  0  0  0
 21 23  1  0  0  0  0
 22 24  2  0  0  0  0
 22 46  1  0  0  0  0
 23 25  2  0  0  0  0
 23 47  1  0  0  0  0
 24 25  1  0  0  0  0
 24 26  1  0  0  0  0
 25 48  1  0  0  0  0
M  END
> <PUBCHEM_COMPOUND_CID>
45784060

> <PUBCHEM_CONFORMER_RMSD>
0.8

> <PUBCHEM_CONFORMER_DIVERSEORDER>
3
24
30
10
60
54
57
37
22
25
35
53
46
51
29
13
59
6
48
14
8
55
52
40
28
34
39
36
12
9
41
5
43
47
42
44
27
26
21
33
20
61
4
50
56
18
19
49
15
23
38
45
16
31
58
7
17
11
2
32
1

> <PUBCHEM_MMFF94_PARTIAL_CHARGES>
24
1 -0.34
10 0.3
12 0.3
15 0.57
19 0.01
2 -0.34
20 -0.15
21 0.23
22 -0.15
23 -0.15
24 -0.14
25 -0.15
26 1.16
3 -0.34
4 -0.57
45 0.27
46 0.15
47 0.15
48 0.15
5 -0.66
6 0.03
7 -0.57
8 0.06
9 0.18

> <PUBCHEM_EFFECTIVE_ROTOR_COUNT>
6.2

> <PUBCHEM_PHARMACOPHORE_FEATURES>
7
1 4 acceptor
1 6 donor
3 6 7 19 cation
5 5 9 10 11 12 rings
5 6 7 19 20 21 rings
6 20 21 22 23 24 25 rings
6 8 13 14 16 17 18 rings

> <PUBCHEM_HEAVY_ATOM_COUNT>
26

> <PUBCHEM_ATOM_DEF_STEREO_COUNT>
1

> <PUBCHEM_ATOM_UDEF_STEREO_COUNT>
0

> <PUBCHEM_BOND_DEF_STEREO_COUNT>
0

> <PUBCHEM_BOND_UDEF_STEREO_COUNT>
0

> <PUBCHEM_ISOTOPIC_ATOM_COUNT>
0

> <PUBCHEM_COMPONENT_COUNT>
1

> <PUBCHEM_CACTVS_TAUTO_COUNT>
2

> <PUBCHEM_CONFORMER_ID>
02BA9BFC00000003

> <PUBCHEM_MMFF94_ENERGY>
41.7295

> <PUBCHEM_FEATURE_SELFOVERLAP>
35.629

> <PUBCHEM_SHAPE_FINGERPRINT>
10 15 17168146749460195085
10042902 136 8718531810249374441
10674148 151 18260268547977488010
10730089 173 18202283589656090657
10906281 52 18114472240439415742
11069576 57 14116972205347666012
11089746 13 18271238426294115374
12107183 9 18262791861969267074
12293681 160 17632297852443593123
12633257 1 15936705830117411379
12788726 201 17632018529308586921
12838862 33 18338500972909658461
12895836 83 17775280552643969823
12895837 130 18200876278959871685
13167372 99 18411135827493959552
13177829 73 18411699889464225796
13690498 29 16844712275294964679
13785724 45 17688868640357912162
13914758 101 18202563960831572066
14123256 34 9511453442614822269
14251764 18 17967812777349593915
14257110 125 18411420596926877053
14394314 77 18340492162835362121
14576447 43 10735881660090041502
14931854 50 18130786707899384833
14950920 106 13262401063745247511
15183329 4 18187639220060710366
15238133 3 18113910372400788084
15475509 8 18335714810702577558
1577012 14 18341326709154940367
17780758 139 12107503732870364335
18608769 82 18339928225180984635
20621476 66 18410015446351307308
21033648 144 18114175307828194111
21033648 29 18200864188916603488
21298829 104 18412546487695652649
21421861 104 17604415320533054322
21424621 283 18410011022450440771
21623969 137 14201391669220636984
21637258 2 10737290160318635027
21756936 100 18411697708164450671
21774942 28 17703232806560357312
23522609 53 17458925837321938884
270888 7 18340206289621313497
2838139 119 18342736338585230597
351380 3 9223226343496588717
397830 11 12107791856398583286
4098825 35 17918277519734909111
445580 204 18343300358038288569
465052 167 7925621220271003875
474 4 18261957350028888323
5104073 3 17604987203770407744
5385378 56 18187080612103480482
57724786 102 17822580520194216076
5969126 39 18196089070359021967
59755656 520 18187362142898850363
6299153 45 18337670798469479298
6328613 192 18188496895155303172
636775 72 18271519909861742144
7288768 16 18113341895141247243
7808743 9 18341891883933166915
7970288 3 8862949363611671728
9981440 41 18408891741473778195

> <PUBCHEM_SHAPE_MULTIPOLES>
492.43
17.91
2.77
1.11
6.74
0.07
0.02
14.45
1.01
-2.09
0.45
-0.51
-0.28
-1.11

> <PUBCHEM_SHAPE_SELFOVERLAP>
1068.195

> <PUBCHEM_SHAPE_VOLUME>
272.9

> <PUBCHEM_COORDINATE_TYPE>
2
5
10

$$$$
