7050142
  -OEChem-12032416373D

 59 61  0     1  0  0  0  0  0999 V2000
   -1.7785    3.4839    1.2996 O   0  0  0  0  0  0  0  0  0  0  0  0
    0.2040    4.3000   -1.6646 O   0  0  0  0  0  0  0  0  0  0  0  0
    2.7283    1.6026    2.1121 O   0  0  0  0  0  0  0  0  0  0  0  0
   -3.6100    1.3340   -1.8825 O   0  0  0  0  0  0  0  0  0  0  0  0
    5.2986    1.7101   -0.9311 O   0  0  0  0  0  0  0  0  0  0  0  0
   -0.1015   -4.8978    0.1138 O   0  0  0  0  0  0  0  0  0  0  0  0
   -2.2770    1.0931   -0.0003 N   0  0  0  0  0  0  0  0  0  0  0  0
    2.9271    0.6654   -0.0131 N   0  0  0  0  0  0  0  0  0  0  0  0
    6.3630    0.6474    0.8050 N   0  0  0  0  0  0  0  0  0  0  0  0
   -6.7904   -0.5931    0.0418 N   0  0  0  0  0  0  0  0  0  0  0  0
   -1.3902    3.3958   -0.0730 C   0  0  1  0  0  0  0  0  0  0  0  0
   -0.1078    4.2122   -0.2757 C   0  0  1  0  0  0  0  0  0  0  0  0
   -1.1862    1.9182   -0.4588 C   0  0  1  0  0  0  0  0  0  0  0  0
    1.0838    3.6196    0.4960 C   0  0  0  0  0  0  0  0  0  0  0  0
    1.1132    2.1175    0.4854 C   0  0  0  0  0  0  0  0  0  0  0  0
    0.1070    1.3432    0.0524 C   0  0  0  0  0  0  0  0  0  0  0  0
    2.3279    1.4474    0.9589 C   0  0  0  0  0  0  0  0  0  0  0  0
    4.1377   -0.0901    0.2166 C   0  0  1  0  0  0  0  0  0  0  0  0
   -3.4135    0.8679   -0.7633 C   0  0  0  0  0  0  0  0  0  0  0  0
    4.2233   -1.3331   -0.6763 C   0  0  0  0  0  0  0  0  0  0  0  0
    3.0704   -2.2841   -0.4654 C   0  0  0  0  0  0  0  0  0  0  0  0
    5.3072    0.8431   -0.0604 C   0  0  0  0  0  0  0  0  0  0  0  0
   -4.4578    0.0162   -0.1382 C   0  0  0  0  0  0  0  0  0  0  0  0
    3.1661   -3.2962    0.4896 C   0  0  0  0  0  0  0  0  0  0  0  0
    1.9087   -2.1504   -1.2259 C   0  0  0  0  0  0  0  0  0  0  0  0
   -4.1270   -0.9394    0.8162 C   0  0  0  0  0  0  0  0  0  0  0  0
   -5.7920    0.1488   -0.4876 C   0  0  0  0  0  0  0  0  0  0  0  0
    2.1002   -4.1746    0.6842 C   0  0  0  0  0  0  0  0  0  0  0  0
    0.8429   -3.0288   -1.0314 C   0  0  0  0  0  0  0  0  0  0  0  0
    0.9387   -4.0409   -0.0764 C   0  0  0  0  0  0  0  0  0  0  0  0
   -5.1264   -1.7221    1.3838 C   0  0  0  0  0  0  0  0  0  0  0  0
   -6.4307   -1.5116    0.9662 C   0  0  0  0  0  0  0  0  0  0  0  0
   -1.2590   -4.7045   -0.6976 C   0  0  0  0  0  0  0  0  0  0  0  0
   -2.2079    3.8103   -0.6752 H   0  0  0  0  0  0  0  0  0  0  0  0
   -0.2685    5.2379    0.0781 H   0  0  0  0  0  0  0  0  0  0  0  0
   -1.1490    1.8485   -1.5540 H   0  0  0  0  0  0  0  0  0  0  0  0
    2.0230    4.0034    0.0797 H   0  0  0  0  0  0  0  0  0  0  0  0
    1.0282    3.9461    1.5422 H   0  0  0  0  0  0  0  0  0  0  0  0
    0.2035    0.2597    0.0527 H   0  0  0  0  0  0  0  0  0  0  0  0
   -2.2280    0.7481    0.9531 H   0  0  0  0  0  0  0  0  0  0  0  0
   -1.9274    4.4233    1.5017 H   0  0  0  0  0  0  0  0  0  0  0  0
    0.9945    4.8590   -1.7540 H   0  0  0  0  0  0  0  0  0  0  0  0
    4.1515   -0.3867    1.2731 H   0  0  0  0  0  0  0  0  0  0  0  0
    2.5559    0.6821   -0.9592 H   0  0  0  0  0  0  0  0  0  0  0  0
    5.1696   -1.8600   -0.4953 H   0  0  0  0  0  0  0  0  0  0  0  0
    4.2576   -1.0400   -1.7348 H   0  0  0  0  0  0  0  0  0  0  0  0
    4.0653   -3.4087    1.0895 H   0  0  0  0  0  0  0  0  0  0  0  0
    1.8221   -1.3697   -1.9769 H   0  0  0  0  0  0  0  0  0  0  0  0
   -3.1013   -1.1229    1.1219 H   0  0  0  0  0  0  0  0  0  0  0  0
   -6.1190    0.8779   -1.2228 H   0  0  0  0  0  0  0  0  0  0  0  0
    7.2014    1.2150    0.7394 H   0  0  0  0  0  0  0  0  0  0  0  0
    6.3550   -0.0701    1.5229 H   0  0  0  0  0  0  0  0  0  0  0  0
    2.1802   -4.9606    1.4301 H   0  0  0  0  0  0  0  0  0  0  0  0
   -0.0293   -2.8680   -1.6558 H   0  0  0  0  0  0  0  0  0  0  0  0
   -4.8913   -2.4779    2.1245 H   0  0  0  0  0  0  0  0  0  0  0  0
   -7.2465   -2.0973    1.3770 H   0  0  0  0  0  0  0  0  0  0  0  0
   -1.9854   -5.4729   -0.4132 H   0  0  0  0  0  0  0  0  0  0  0  0
   -1.0355   -4.8530   -1.7595 H   0  0  0  0  0  0  0  0  0  0  0  0
   -1.7285   -3.7338   -0.5040 H   0  0  0  0  0  0  0  0  0  0  0  0
  1 11  1  0  0  0  0
  1 41  1  0  0  0  0
  2 12  1  0  0  0  0
  2 42  1  0  0  0  0
  3 17  2  0  0  0  0
  4 19  2  0  0  0  0
  5 22  2  0  0  0  0
  6 30  1  0  0  0  0
  6 33  1  0  0  0  0
  7 13  1  0  0  0  0
  7 19  1  0  0  0  0
  7 40  1  0  0  0  0
  8 17  1  0  0  0  0
  8 18  1  0  0  0  0
  8 44  1  0  0  0  0
  9 22  1  0  0  0  0
  9 51  1  0  0  0  0
  9 52  1  0  0  0  0
 10 27  1  0  0  0  0
 10 32  2  0  0  0  0
 11 12  1  0  0  0  0
 11 13  1  0  0  0  0
 11 34  1  0  0  0  0
 12 14  1  0  0  0  0
 12 35  1  0  0  0  0
 13 16  1  0  0  0  0
 13 36  1  0  0  0  0
 14 15  1  0  0  0  0
 14 37  1  0  0  0  0
 14 38  1  0  0  0  0
 15 16  2  0  0  0  0
 15 17  1  0  0  0  0
 16 39  1  0  0  0  0
 18 20  1  0  0  0  0
 18 22  1  0  0  0  0
 18 43  1  0  0  0  0
 19 23  1  0  0  0  0
 20 21  1  0  0  0  0
 20 45  1  0  0  0  0
 20 46  1  0  0  0  0
 21 24  2  0  0  0  0
 21 25  1  0  0  0  0
 23 26  1  0  0  0  0
 23 27  2  0  0  0  0
 24 28  1  0  0  0  0
 24 47  1  0  0  0  0
 25 29  2  0  0  0  0
 25 48  1  0  0  0  0
 26 31  2  0  0  0  0
 26 49  1  0  0  0  0
 27 50  1  0  0  0  0
 28 30  2  0  0  0  0
 28 53  1  0  0  0  0
 29 30  1  0  0  0  0
 29 54  1  0  0  0  0
 31 32  1  0  0  0  0
 31 55  1  0  0  0  0
 32 56  1  0  0  0  0
 33 57  1  0  0  0  0
 33 58  1  0  0  0  0
 33 59  1  0  0  0  0
M  END
> <PUBCHEM_COMPOUND_CID>
7050142

> <PUBCHEM_CONFORMER_RMSD>
1

> <PUBCHEM_CONFORMER_DIVERSEORDER>
1
183
32
219
98
33
148
14
167
157
215
129
101
88
93
124
34
209
37
171
115
75
29
105
142
47
81
134
223
163
131
89
110
190
55
70
182
74
103
143
195
82
128
23
80
53
120
160
102
85
48
169
104
155
176
35
187
16
118
86
156
153
149
19
203
207
87
50
133
64
164
59
173
194
198
106
62
15
205
144
226
72
28
188
214
212
84
200
137
99
211
94
68
26
141
146
181
20
140
111
43
56
132
201
145
65
165
67
122
21
79
174
177
172
96
178
208
69
121
189
109
113
159
224
40
54
180
135
17
139
225
52
7
186
44
31
125
116
18
39
217
213
63
36
49
130
126
166
108
119
192
71
220
175
92
138
51
76
107
147
46
97
25
78
202
123
38
13
91
210
162
24
185
45
204
2
112
114
11
196
9
222
218
22
152
136
168
10
193
8
41
191
30
12
206
27
127
150
6
221
216
151
227
161
3
158
42
184
170
95
61
73
57
197
90
4
77
199
60
100
66
58
179
5
117
83
154

> <PUBCHEM_MMFF94_PARTIAL_CHARGES>
48
1 -0.68
10 -0.62
11 0.28
12 0.28
13 0.44
14 0.14
15 -0.12
16 -0.29
17 0.62
18 0.36
19 0.54
2 -0.68
20 0.14
21 -0.14
22 0.57
23 0.09
24 -0.15
25 -0.15
26 -0.15
27 0.16
28 -0.15
29 -0.15
3 -0.57
30 0.08
31 -0.15
32 0.16
33 0.28
39 0.15
4 -0.57
40 0.37
41 0.4
42 0.4
44 0.37
47 0.15
48 0.15
49 0.15
5 -0.57
50 0.15
51 0.37
52 0.37
53 0.15
54 0.15
55 0.15
56 0.15
6 -0.36
7 -0.73
8 -0.73
9 -0.8

> <PUBCHEM_EFFECTIVE_ROTOR_COUNT>
10.8

> <PUBCHEM_PHARMACOPHORE_FEATURES>
15
1 1 acceptor
1 1 donor
1 10 acceptor
1 2 acceptor
1 2 donor
1 3 acceptor
1 4 acceptor
1 5 acceptor
1 6 acceptor
1 7 donor
1 8 donor
1 9 donor
6 10 23 26 27 31 32 rings
6 11 12 13 14 15 16 rings
6 21 24 25 28 29 30 rings

> <PUBCHEM_HEAVY_ATOM_COUNT>
33

> <PUBCHEM_ATOM_DEF_STEREO_COUNT>
4

> <PUBCHEM_ATOM_UDEF_STEREO_COUNT>
0

> <PUBCHEM_BOND_DEF_STEREO_COUNT>
0

> <PUBCHEM_BOND_UDEF_STEREO_COUNT>
0

> <PUBCHEM_ISOTOPIC_ATOM_COUNT>
0

> <PUBCHEM_COMPONENT_COUNT>
1

> <PUBCHEM_CACTVS_TAUTO_COUNT>
8

> <PUBCHEM_CONFORMER_ID>
006B939E00000001

> <PUBCHEM_MMFF94_ENERGY>
89.1241

> <PUBCHEM_FEATURE_SELFOVERLAP>
76.134

> <PUBCHEM_SHAPE_FINGERPRINT>
10316853 100 18339645662754790215
10864689 126 18340495465131897735
1100329 8 18195810893188259150
11374522 301 18191612850784323323
13383661 66 17701559311282400006
13402501 40 18408889550792354987
1361 2 18339078314912626473
14068700 686 18339357462181268468
14840074 17 17917991672570687671
15320467 1 18410857698154899779
15537594 2 18059850679544307637
15927050 60 17546734106678511676
15968369 26 17974819827508974352
16112460 7 17982448496970218761
17492 89 18122341277355146406
20764821 26 18409727326976079547
21133410 62 18262219076625192735
21315759 227 18047464530818269702
21623969 137 18412265042709431246
23559900 14 17548402719253639824
3737641 26 18270407078911717192
3882209 13 17253676436610567547
437795 96 18262805193690354003
445580 102 18195245503604223607
463206 1 18341610485975970847
5309563 4 18412266099677541967
5912855 24 18127982905492356280
86090 222 18343020016669187258

> <PUBCHEM_SHAPE_MULTIPOLES>
623.98
12.72
7.03
1.27
10.78
3.04
0.03
2.87
1.81
-2.25
-0.5
0.24
-0.33
1.24

> <PUBCHEM_SHAPE_SELFOVERLAP>
1326.219

> <PUBCHEM_SHAPE_VOLUME>
342.6

> <PUBCHEM_COORDINATE_TYPE>
2
5
10

$$$$
