11911799
  -OEChem-12032416253D

 42 45  0     1  0  0  0  0  0999 V2000
    0.6401    0.4107    1.4809 O   0  0  0  0  0  0  0  0  0  0  0  0
    0.3746    2.5938   -0.9832 O   0  0  0  0  0  0  0  0  0  0  0  0
    6.0898   -0.1812   -0.0658 O   0  0  0  0  0  0  0  0  0  0  0  0
   -6.0087   -1.9094   -0.3094 O   0  0  0  0  0  0  0  0  0  0  0  0
   -6.5358    0.3216   -0.2830 O   0  0  0  0  0  0  0  0  0  0  0  0
   -2.3511    0.5645    0.2759 N   0  0  0  0  0  0  0  0  0  0  0  0
    3.4028    0.7370   -0.4179 N   0  0  0  0  0  0  0  0  0  0  0  0
   -2.1537   -0.7601    0.2450 N   0  0  0  0  0  0  0  0  0  0  0  0
   -3.3421   -1.3263    0.0650 N   0  0  0  0  0  0  0  0  0  0  0  0
   -0.1402    1.3132   -0.5896 C   0  0  1  0  0  0  0  0  0  0  0  0
    0.9960    0.5750    0.1018 C   0  0  1  0  0  0  0  0  0  0  0  0
   -1.2211    1.4796    0.4633 C   0  0  2  0  0  0  0  0  0  0  0  0
    2.1977    1.4930   -0.0250 C   0  0  2  0  0  0  0  0  0  0  0  0
   -0.4713    1.2669    1.7727 C   0  0  0  0  0  0  0  0  0  0  0  0
    1.7913    2.4538   -1.1189 C   0  0  0  0  0  0  0  0  0  0  0  0
    3.7896   -0.1955    0.6291 C   0  0  0  0  0  0  0  0  0  0  0  0
   -3.6590    0.8895    0.1184 C   0  0  0  0  0  0  0  0  0  0  0  0
   -4.2746   -0.3296   -0.0146 C   0  0  0  0  0  0  0  0  0  0  0  0
    5.0096   -0.9431    0.1967 C   0  0  0  0  0  0  0  0  0  0  0  0
    5.2540   -2.2661    0.0106 C   0  0  0  0  0  0  0  0  0  0  0  0
   -5.6694   -0.5722   -0.2078 C   0  0  0  0  0  0  0  0  0  0  0  0
    6.6048   -2.3426   -0.4048 C   0  0  0  0  0  0  0  0  0  0  0  0
    7.0688   -1.0482   -0.4355 C   0  0  0  0  0  0  0  0  0  0  0  0
   -7.3922   -2.2241   -0.5039 C   0  0  0  0  0  0  0  0  0  0  0  0
   -0.4746    0.8033   -1.4999 H   0  0  0  0  0  0  0  0  0  0  0  0
    1.1276   -0.4200   -0.3373 H   0  0  0  0  0  0  0  0  0  0  0  0
   -1.6561    2.4865    0.4503 H   0  0  0  0  0  0  0  0  0  0  0  0
    2.3812    2.0460    0.9053 H   0  0  0  0  0  0  0  0  0  0  0  0
   -0.0645    2.2151    2.1422 H   0  0  0  0  0  0  0  0  0  0  0  0
   -1.0781    0.8189    2.5653 H   0  0  0  0  0  0  0  0  0  0  0  0
    2.2724    3.4319   -1.0241 H   0  0  0  0  0  0  0  0  0  0  0  0
    1.9951    2.0645   -2.1240 H   0  0  0  0  0  0  0  0  0  0  0  0
    4.1616    1.3971   -0.5902 H   0  0  0  0  0  0  0  0  0  0  0  0
    3.0029   -0.9267    0.8423 H   0  0  0  0  0  0  0  0  0  0  0  0
    4.0146    0.3362    1.5616 H   0  0  0  0  0  0  0  0  0  0  0  0
   -4.0233    1.9073    0.1143 H   0  0  0  0  0  0  0  0  0  0  0  0
    4.5619   -3.0838    0.1505 H   0  0  0  0  0  0  0  0  0  0  0  0
    7.1695   -3.2302   -0.6511 H   0  0  0  0  0  0  0  0  0  0  0  0
    8.0195   -0.6005   -0.6855 H   0  0  0  0  0  0  0  0  0  0  0  0
   -7.9831   -1.8627    0.3428 H   0  0  0  0  0  0  0  0  0  0  0  0
   -7.4890   -3.3113   -0.5630 H   0  0  0  0  0  0  0  0  0  0  0  0
   -7.7497   -1.7864   -1.4406 H   0  0  0  0  0  0  0  0  0  0  0  0
  1 11  1  0  0  0  0
  1 14  1  0  0  0  0
  2 10  1  0  0  0  0
  2 15  1  0  0  0  0
  3 19  1  0  0  0  0
  3 23  1  0  0  0  0
  4 21  1  0  0  0  0
  4 24  1  0  0  0  0
  5 21  2  0  0  0  0
  6  8  1  0  0  0  0
  6 12  1  0  0  0  0
  6 17  1  0  0  0  0
  7 13  1  0  0  0  0
  7 16  1  0  0  0  0
  7 33  1  0  0  0  0
  8  9  2  0  0  0  0
  9 18  1  0  0  0  0
 10 11  1  0  0  0  0
 10 12  1  0  0  0  0
 10 25  1  0  0  0  0
 11 13  1  0  0  0  0
 11 26  1  0  0  0  0
 12 14  1  0  0  0  0
 12 27  1  0  0  0  0
 13 15  1  0  0  0  0
 13 28  1  0  0  0  0
 14 29  1  0  0  0  0
 14 30  1  0  0  0  0
 15 31  1  0  0  0  0
 15 32  1  0  0  0  0
 16 19  1  0  0  0  0
 16 34  1  0  0  0  0
 16 35  1  0  0  0  0
 17 18  2  0  0  0  0
 17 36  1  0  0  0  0
 18 21  1  0  0  0  0
 19 20  2  0  0  0  0
 20 22  1  0  0  0  0
 20 37  1  0  0  0  0
 22 23  2  0  0  0  0
 22 38  1  0  0  0  0
 23 39  1  0  0  0  0
 24 40  1  0  0  0  0
 24 41  1  0  0  0  0
 24 42  1  0  0  0  0
M  END
> <PUBCHEM_COMPOUND_CID>
11911799

> <PUBCHEM_CONFORMER_RMSD>
0.8

> <PUBCHEM_CONFORMER_DIVERSEORDER>
1
64
120
78
48
110
12
59
129
94
23
126
71
31
16
55
30
135
128
24
74
75
73
112
104
41
88
127
137
118
122
2
50
21
32
13
93
61
142
60
80
34
131
103
17
7
119
33
54
97
134
109
5
27
82
95
15
45
76
89
28
65
47
115
29
92
121
136
84
66
51
83
8
139
99
9
138
108
72
107
37
39
113
141
18
111
77
6
70
42
140
40
116
86
63
101
22
90
69
43
96
105
62
36
114
19
20
81
117
58
91
98
44
35
26
85
143
106
87
4
52
133
38
46
79
67
132
130
102
57
100
56
14
124
49
10
53
25
125
11
144
123
68
3

> <PUBCHEM_MMFF94_PARTIAL_CHARGES>
29
1 -0.56
10 0.28
11 0.28
12 0.26
13 0.27
14 0.28
15 0.28
16 0.45
17 -0.3
18 0.14
19 -0.04
2 -0.56
20 -0.15
21 0.81
22 -0.15
23 -0.01
24 0.28
3 -0.28
33 0.36
36 0.15
37 0.15
38 0.15
39 0.15
4 -0.43
5 -0.57
6 0.31
7 -0.9
8 -0.42
9 -0.23

> <PUBCHEM_EFFECTIVE_ROTOR_COUNT>
7.2

> <PUBCHEM_PHARMACOPHORE_FEATURES>
10
1 1 acceptor
1 2 acceptor
1 3 acceptor
1 5 acceptor
1 7 cation
1 7 donor
5 1 10 11 12 14 rings
5 2 10 11 13 15 rings
5 3 19 20 22 23 rings
5 6 8 9 17 18 rings

> <PUBCHEM_HEAVY_ATOM_COUNT>
24

> <PUBCHEM_ATOM_DEF_STEREO_COUNT>
4

> <PUBCHEM_ATOM_UDEF_STEREO_COUNT>
0

> <PUBCHEM_BOND_DEF_STEREO_COUNT>
0

> <PUBCHEM_BOND_UDEF_STEREO_COUNT>
0

> <PUBCHEM_ISOTOPIC_ATOM_COUNT>
0

> <PUBCHEM_COMPONENT_COUNT>
1

> <PUBCHEM_CACTVS_TAUTO_COUNT>
1

> <PUBCHEM_CONFORMER_ID>
00B5C27700000001

> <PUBCHEM_MMFF94_ENERGY>
39.6892

> <PUBCHEM_FEATURE_SELFOVERLAP>
51.254

> <PUBCHEM_SHAPE_FINGERPRINT>
10 15 12535339112847918030
10493431 412 11023819570222640648
106641 1 14261341470819057356
10670039 82 14779536868763160983
10693767 8 18259978263031797674
10753850 27 18335698334612106090
117089 54 18047197624851604035
12166972 35 18341895216173940497
12236239 1 18413673521399859001
12592606 108 18411979174804388991
12623949 98 17845382055472622574
12633257 1 15841544206629278080
12760667 363 18413111658484334571
12895836 83 12685101401107391648
13288520 33 18412545379530552833
13533116 47 18343301504984655840
13540713 4 16445057424300548376
13668630 136 18409729560237533295
13685833 64 18342175574469469594
14178184 131 17845087549349514071
14251757 52 10953730102024695127
14556957 393 16661226732370625518
15183329 4 17894344462980703659
15475509 35 17917986179482076386
15510800 12 18130241401233967670
15728490 51 18201996677556725718
1768 124 18060701688939574454
18222031 100 18261110756050640256
19784866 240 18410860949117763976
20028762 73 18272370867189146350
2026 5 18413105044304310007
20526848 3 8430316844060622855
21130935 74 18272369810711028779
21267235 1 18335143102952188467
21304304 249 18343866627622096447
21344244 78 14620523388858191971
21521239 73 18113898290272805266
21585483 132 18268972349931394703
21637258 2 18272927219702801380
21641784 216 15213289794788816229
21756936 100 8646476397859816336
22079108 93 10952044555105012600
22224240 67 12535341290322666149
23522609 53 18124912068311054320
23559900 14 18338231677795307961
2838139 119 11097861812792415458
3004659 81 18260263066243509376
3014063 24 18341892995765460726
3472631 163 7781509326530165474
4325135 7 18333736815333599868
437815 12 18260828202673102621
46194498 28 17385722555835120660
465052 167 18202566185471313022
5104073 3 17346604105651935841
543368 44 8214145157912436367
559249 180 18341050736010236749
5718773 13 18130500946698216079
5758199 1 10735876183642891613
59682541 35 10735871820968729077
6138700 20 18409167693096048307

> <PUBCHEM_SHAPE_MULTIPOLES>
444.64
18.99
2.57
0.98
3.1
0.2
0.24
18.83
-3.4
-0.59
-0.65
-0.14
-0.44
-0.58

> <PUBCHEM_SHAPE_SELFOVERLAP>
960.249

> <PUBCHEM_SHAPE_VOLUME>
248

> <PUBCHEM_COORDINATE_TYPE>
2
5
10

$$$$
