26742275
  -OEChem-12032416183D

 61 63  0     1  0  0  0  0  0999 V2000
   -4.1111   -3.0347    1.3900 O   0  0  0  0  0  0  0  0  0  0  0  0
   -3.3545    2.8124    0.6866 O   0  0  0  0  0  0  0  0  0  0  0  0
   -1.4512   -2.6718   -2.0861 O   0  0  0  0  0  0  0  0  0  0  0  0
    4.3171   -2.0874    0.4496 O   0  0  0  0  0  0  0  0  0  0  0  0
    6.1359    0.0201    0.4696 O   0  0  0  0  0  0  0  0  0  0  0  0
   -4.0443    0.9163   -0.4418 N   0  0  0  0  0  0  0  0  0  0  0  0
   -1.9929   -1.5648   -0.1227 N   0  0  0  0  0  0  0  0  0  0  0  0
   -1.7717    1.5655   -0.4695 N   0  0  0  0  0  0  0  0  0  0  0  0
    4.0496    1.7882   -1.5032 N   0  0  0  0  0  0  0  0  0  0  0  0
   -3.4250   -1.5234   -0.3472 C   0  0  1  0  0  0  0  0  0  0  0  0
   -4.1473   -1.6532    1.0065 C   0  0  1  0  0  0  0  0  0  0  0  0
   -5.6171   -1.2223    1.0208 C   0  0  0  0  0  0  0  0  0  0  0  0
   -3.8015   -0.3123   -1.2099 C   0  0  0  0  0  0  0  0  0  0  0  0
   -5.8044    0.2860    1.1994 C   0  0  0  0  0  0  0  0  0  0  0  0
   -5.4325    1.1177   -0.0220 C   0  0  0  0  0  0  0  0  0  0  0  0
   -3.0623    1.8453   -0.0211 C   0  0  0  0  0  0  0  0  0  0  0  0
   -1.1224   -2.1444   -1.0267 C   0  0  0  0  0  0  0  0  0  0  0  0
    0.3113   -2.1291   -0.6379 C   0  0  0  0  0  0  0  0  0  0  0  0
   -0.5845    2.2997   -0.2203 C   0  0  0  0  0  0  0  0  0  0  0  0
    1.3010   -2.1438   -1.6208 C   0  0  0  0  0  0  0  0  0  0  0  0
    0.6679   -2.1004    0.7105 C   0  0  0  0  0  0  0  0  0  0  0  0
    0.6290    1.8673   -0.7555 C   0  0  0  0  0  0  0  0  0  0  0  0
   -0.6304    3.4551    0.5599 C   0  0  0  0  0  0  0  0  0  0  0  0
    2.6471   -2.1293   -1.2555 C   0  0  0  0  0  0  0  0  0  0  0  0
    2.0140   -2.0861    1.0757 C   0  0  0  0  0  0  0  0  0  0  0  0
    3.0037   -2.1005    0.0928 C   0  0  0  0  0  0  0  0  0  0  0  0
    1.7965    2.5902   -0.5104 C   0  0  0  0  0  0  0  0  0  0  0  0
    0.5371    4.1782    0.8046 C   0  0  0  0  0  0  0  0  0  0  0  0
    1.7506    3.7457    0.2697 C   0  0  0  0  0  0  0  0  0  0  0  0
    4.6519   -1.4259    1.6688 C   0  0  0  0  0  0  0  0  0  0  0  0
    3.0398    2.1476   -1.0582 C   0  0  0  0  0  0  0  0  0  0  0  0
    6.0644   -0.8836    1.5658 C   0  0  0  0  0  0  0  0  0  0  0  0
    7.4360    0.5778    0.3386 C   0  0  0  0  0  0  0  0  0  0  0  0
   -3.6604   -2.4152   -0.9444 H   0  0  0  0  0  0  0  0  0  0  0  0
   -3.6004   -1.1036    1.7832 H   0  0  0  0  0  0  0  0  0  0  0  0
   -6.1263   -1.7170    1.8586 H   0  0  0  0  0  0  0  0  0  0  0  0
   -6.1321   -1.5763    0.1192 H   0  0  0  0  0  0  0  0  0  0  0  0
   -3.0528   -0.1229   -1.9861 H   0  0  0  0  0  0  0  0  0  0  0  0
   -4.7222   -0.5438   -1.7605 H   0  0  0  0  0  0  0  0  0  0  0  0
   -6.8584    0.4793    1.4339 H   0  0  0  0  0  0  0  0  0  0  0  0
   -5.2256    0.6247    2.0677 H   0  0  0  0  0  0  0  0  0  0  0  0
   -6.0933    0.8856   -0.8654 H   0  0  0  0  0  0  0  0  0  0  0  0
   -5.5957    2.1757    0.2120 H   0  0  0  0  0  0  0  0  0  0  0  0
   -1.6336   -1.0500    0.6747 H   0  0  0  0  0  0  0  0  0  0  0  0
   -4.4491   -3.0971    2.2997 H   0  0  0  0  0  0  0  0  0  0  0  0
   -1.6262    0.7322   -1.0275 H   0  0  0  0  0  0  0  0  0  0  0  0
    1.0427   -2.1605   -2.6763 H   0  0  0  0  0  0  0  0  0  0  0  0
   -0.0712   -2.1238    1.5060 H   0  0  0  0  0  0  0  0  0  0  0  0
    0.6621    0.9698   -1.3689 H   0  0  0  0  0  0  0  0  0  0  0  0
   -1.5240    3.8596    1.0114 H   0  0  0  0  0  0  0  0  0  0  0  0
    3.4139   -2.1384   -2.0254 H   0  0  0  0  0  0  0  0  0  0  0  0
    2.2492   -2.0973    2.1359 H   0  0  0  0  0  0  0  0  0  0  0  0
    0.5028    5.0782    1.4120 H   0  0  0  0  0  0  0  0  0  0  0  0
    2.6521    4.3199    0.4698 H   0  0  0  0  0  0  0  0  0  0  0  0
    3.9844   -0.5728    1.8477 H   0  0  0  0  0  0  0  0  0  0  0  0
    4.5829   -2.1353    2.5005 H   0  0  0  0  0  0  0  0  0  0  0  0
    6.7647   -1.7080    1.3882 H   0  0  0  0  0  0  0  0  0  0  0  0
    6.3374   -0.3703    2.4945 H   0  0  0  0  0  0  0  0  0  0  0  0
    7.4334    1.2592   -0.5163 H   0  0  0  0  0  0  0  0  0  0  0  0
    8.1746   -0.2086    0.1558 H   0  0  0  0  0  0  0  0  0  0  0  0
    7.7025    1.1448    1.2358 H   0  0  0  0  0  0  0  0  0  0  0  0
  1 11  1  0  0  0  0
  1 45  1  0  0  0  0
  2 16  2  0  0  0  0
  3 17  2  0  0  0  0
  4 26  1  0  0  0  0
  4 30  1  0  0  0  0
  5 32  1  0  0  0  0
  5 33  1  0  0  0  0
  6 13  1  0  0  0  0
  6 15  1  0  0  0  0
  6 16  1  0  0  0  0
  7 10  1  0  0  0  0
  7 17  1  0  0  0  0
  7 44  1  0  0  0  0
  8 16  1  0  0  0  0
  8 19  1  0  0  0  0
  8 46  1  0  0  0  0
  9 31  3  0  0  0  0
 10 11  1  0  0  0  0
 10 13  1  0  0  0  0
 10 34  1  0  0  0  0
 11 12  1  0  0  0  0
 11 35  1  0  0  0  0
 12 14  1  0  0  0  0
 12 36  1  0  0  0  0
 12 37  1  0  0  0  0
 13 38  1  0  0  0  0
 13 39  1  0  0  0  0
 14 15  1  0  0  0  0
 14 40  1  0  0  0  0
 14 41  1  0  0  0  0
 15 42  1  0  0  0  0
 15 43  1  0  0  0  0
 17 18  1  0  0  0  0
 18 20  2  0  0  0  0
 18 21  1  0  0  0  0
 19 22  1  0  0  0  0
 19 23  2  0  0  0  0
 20 24  1  0  0  0  0
 20 47  1  0  0  0  0
 21 25  2  0  0  0  0
 21 48  1  0  0  0  0
 22 27  2  0  0  0  0
 22 49  1  0  0  0  0
 23 28  1  0  0  0  0
 23 50  1  0  0  0  0
 24 26  2  0  0  0  0
 24 51  1  0  0  0  0
 25 26  1  0  0  0  0
 25 52  1  0  0  0  0
 27 29  1  0  0  0  0
 27 31  1  0  0  0  0
 28 29  2  0  0  0  0
 28 53  1  0  0  0  0
 29 54  1  0  0  0  0
 30 32  1  0  0  0  0
 30 55  1  0  0  0  0
 30 56  1  0  0  0  0
 32 57  1  0  0  0  0
 32 58  1  0  0  0  0
 33 59  1  0  0  0  0
 33 60  1  0  0  0  0
 33 61  1  0  0  0  0
M  END
> <PUBCHEM_COMPOUND_CID>
26742275

> <PUBCHEM_CONFORMER_RMSD>
1.2

> <PUBCHEM_CONFORMER_DIVERSEORDER>
1
44
40
20
55
50
34
11
25
49
14
12
31
43
54
17
8
39
28
52
18
5
51
46
37
15
32
2
24
38
53
33
21
42
16
13
48
4
19
10
27
6
35
36
26
30
29
9
47
3
41
23
45
7
22

> <PUBCHEM_MMFF94_PARTIAL_CHARGES>
42
1 -0.68
10 0.3
11 0.28
13 0.3
15 0.3
16 0.69
17 0.54
18 0.09
19 0.12
2 -0.57
20 -0.15
21 -0.15
22 -0.15
23 -0.15
24 -0.15
25 -0.15
26 0.08
27 0.07
28 -0.15
29 -0.15
3 -0.57
30 0.28
31 0.48
32 0.28
33 0.28
4 -0.36
44 0.37
45 0.4
46 0.37
47 0.15
48 0.15
49 0.15
5 -0.56
50 0.15
51 0.15
52 0.15
53 0.15
54 0.15
6 -0.66
7 -0.73
8 -0.55
9 -0.56

> <PUBCHEM_EFFECTIVE_ROTOR_COUNT>
11.4

> <PUBCHEM_PHARMACOPHORE_FEATURES>
12
1 1 acceptor
1 1 donor
1 2 acceptor
1 3 acceptor
1 4 acceptor
1 5 acceptor
1 7 donor
1 8 donor
1 9 acceptor
6 18 20 21 24 25 26 rings
6 19 22 23 27 28 29 rings
7 6 10 11 12 13 14 15 rings

> <PUBCHEM_HEAVY_ATOM_COUNT>
33

> <PUBCHEM_ATOM_DEF_STEREO_COUNT>
2

> <PUBCHEM_ATOM_UDEF_STEREO_COUNT>
0

> <PUBCHEM_BOND_DEF_STEREO_COUNT>
0

> <PUBCHEM_BOND_UDEF_STEREO_COUNT>
0

> <PUBCHEM_ISOTOPIC_ATOM_COUNT>
0

> <PUBCHEM_COMPONENT_COUNT>
1

> <PUBCHEM_CACTVS_TAUTO_COUNT>
4

> <PUBCHEM_CONFORMER_ID>
01980E0300000001

> <PUBCHEM_MMFF94_ENERGY>
92.825

> <PUBCHEM_FEATURE_SELFOVERLAP>
60.905

> <PUBCHEM_SHAPE_FINGERPRINT>
10675989 125 16460496337429456085
10939801 23 18338516473815777864
1100329 8 18410850005973565068
11513181 2 17916301637083620990
11578080 2 13254249207644528601
12107698 1 18335416898417084987
12422481 6 18340194271996546192
12596602 18 17603579695574362226
13111901 25 18409455790432073944
13140716 1 18339649914967429749
14394314 77 18339361971944642432
15001296 14 18334575750863549628
15264996 154 18188225268491428174
15927050 60 17835802272489232180
15968369 153 18271810155166302412
18336668 15 18187078430201727524
19611394 137 18261964041087412914
20567600 70 18334576841141353104
21033648 29 17702365291791265547
21796203 349 18266484124540523392
24771293 8 18059008377193390593
3298306 158 18266184009922478261
338550 245 18334858359405541644
3680242 22 18263370200251731208
373842 8 18410294679518379442
392239 28 18187653513427438003
4144715 1 18334303041350977850
42626532 9 17905075584467403875
463206 1 18410011061179291520
469060 322 17023467418057932982
5265222 85 17687201089161198660
57091435 65 18266456688357604793
6287921 2 17695914328580267284
9896288 288 17985269569631519792

> <PUBCHEM_SHAPE_MULTIPOLES>
629.85
13.46
5.06
1.51
7.14
3.65
-0.13
-2.9
5.54
0.64
0.16
0.44
-0.83
-0.65

> <PUBCHEM_SHAPE_SELFOVERLAP>
1320.462

> <PUBCHEM_SHAPE_VOLUME>
349.4

> <PUBCHEM_COORDINATE_TYPE>
2
5
10

$$$$
