45784210
  -OEChem-12032416283D

 43 46  0     1  0  0  0  0  0999 V2000
   -2.1946    1.2729    0.0403 N   0  0  1  0  0  0  0  0  0  0  0  0
    2.2354   -0.0353    1.3143 N   0  0  0  0  0  0  0  0  0  0  0  0
    1.9264    0.7423   -0.7447 N   0  0  0  0  0  0  0  0  0  0  0  0
   -0.0159    0.9753    0.8551 C   0  0  1  0  0  0  0  0  0  0  0  0
   -0.3191    2.4788    0.7337 C   0  0  0  0  0  0  0  0  0  0  0  0
   -1.1090    0.2902    0.0239 C   0  0  0  0  0  0  0  0  0  0  0  0
   -1.5389    2.5628   -0.1747 C   0  0  0  0  0  0  0  0  0  0  0  0
    1.3801    0.5733    0.4385 C   0  0  0  0  0  0  0  0  0  0  0  0
   -3.2112    0.9940   -0.9633 C   0  0  0  0  0  0  0  0  0  0  0  0
   -4.1904   -0.0492   -0.4945 C   0  0  0  0  0  0  0  0  0  0  0  0
    3.4120   -0.2753    0.6520 C   0  0  0  0  0  0  0  0  0  0  0  0
    3.1939    0.2192   -0.6309 C   0  0  0  0  0  0  0  0  0  0  0  0
    4.6115   -0.8643    1.0527 C   0  0  0  0  0  0  0  0  0  0  0  0
    4.2229    0.1291   -1.5836 C   0  0  0  0  0  0  0  0  0  0  0  0
   -3.9448   -1.3992   -0.7450 C   0  0  0  0  0  0  0  0  0  0  0  0
   -5.3434    0.3346    0.1903 C   0  0  0  0  0  0  0  0  0  0  0  0
    5.6247   -0.9458    0.0919 C   0  0  0  0  0  0  0  0  0  0  0  0
    5.4360   -0.4584   -1.2035 C   0  0  0  0  0  0  0  0  0  0  0  0
   -4.8523   -2.3656   -0.3108 C   0  0  0  0  0  0  0  0  0  0  0  0
   -6.2508   -0.6315    0.6245 C   0  0  0  0  0  0  0  0  0  0  0  0
    6.9327   -1.5662    0.4599 C   0  0  0  0  0  0  0  0  0  0  0  0
   -6.0053   -1.9816    0.3740 C   0  0  0  0  0  0  0  0  0  0  0  0
   -0.1580    0.6972    1.9097 H   0  0  0  0  0  0  0  0  0  0  0  0
    0.5174    3.0604    0.3321 H   0  0  0  0  0  0  0  0  0  0  0  0
   -0.5594    2.8829    1.7251 H   0  0  0  0  0  0  0  0  0  0  0  0
   -0.7599    0.0851   -0.9968 H   0  0  0  0  0  0  0  0  0  0  0  0
   -1.4004   -0.6595    0.4848 H   0  0  0  0  0  0  0  0  0  0  0  0
   -2.1828    3.4054    0.0961 H   0  0  0  0  0  0  0  0  0  0  0  0
   -1.2191    2.6849   -1.2177 H   0  0  0  0  0  0  0  0  0  0  0  0
   -2.7772    0.7071   -1.9310 H   0  0  0  0  0  0  0  0  0  0  0  0
   -3.7856    1.9077   -1.1723 H   0  0  0  0  0  0  0  0  0  0  0  0
    2.0393   -0.2688    2.2786 H   0  0  0  0  0  0  0  0  0  0  0  0
    4.7453   -1.2371    2.0625 H   0  0  0  0  0  0  0  0  0  0  0  0
    4.0859    0.5052   -2.5925 H   0  0  0  0  0  0  0  0  0  0  0  0
   -3.0532   -1.7122   -1.2817 H   0  0  0  0  0  0  0  0  0  0  0  0
   -5.5459    1.3828    0.3941 H   0  0  0  0  0  0  0  0  0  0  0  0
    6.2357   -0.5284   -1.9375 H   0  0  0  0  0  0  0  0  0  0  0  0
   -4.6617   -3.4167   -0.5067 H   0  0  0  0  0  0  0  0  0  0  0  0
   -7.1483   -0.3329    1.1582 H   0  0  0  0  0  0  0  0  0  0  0  0
    7.3615   -2.1105   -0.3885 H   0  0  0  0  0  0  0  0  0  0  0  0
    6.8156   -2.2871    1.2762 H   0  0  0  0  0  0  0  0  0  0  0  0
    7.6391   -0.7923    0.7762 H   0  0  0  0  0  0  0  0  0  0  0  0
   -6.7120   -2.7339    0.7121 H   0  0  0  0  0  0  0  0  0  0  0  0
  1  6  1  0  0  0  0
  1  7  1  0  0  0  0
  1  9  1  0  0  0  0
  2  8  1  0  0  0  0
  2 11  1  0  0  0  0
  2 32  1  0  0  0  0
  3  8  2  0  0  0  0
  3 12  1  0  0  0  0
  4  5  1  0  0  0  0
  4  6  1  0  0  0  0
  4  8  1  0  0  0  0
  4 23  1  0  0  0  0
  5  7  1  0  0  0  0
  5 24  1  0  0  0  0
  5 25  1  0  0  0  0
  6 26  1  0  0  0  0
  6 27  1  0  0  0  0
  7 28  1  0  0  0  0
  7 29  1  0  0  0  0
  9 10  1  0  0  0  0
  9 30  1  0  0  0  0
  9 31  1  0  0  0  0
 10 15  2  0  0  0  0
 10 16  1  0  0  0  0
 11 12  2  0  0  0  0
 11 13  1  0  0  0  0
 12 14  1  0  0  0  0
 13 17  2  0  0  0  0
 13 33  1  0  0  0  0
 14 18  2  0  0  0  0
 14 34  1  0  0  0  0
 15 19  1  0  0  0  0
 15 35  1  0  0  0  0
 16 20  2  0  0  0  0
 16 36  1  0  0  0  0
 17 18  1  0  0  0  0
 17 21  1  0  0  0  0
 18 37  1  0  0  0  0
 19 22  2  0  0  0  0
 19 38  1  0  0  0  0
 20 22  1  0  0  0  0
 20 39  1  0  0  0  0
 21 40  1  0  0  0  0
 21 41  1  0  0  0  0
 21 42  1  0  0  0  0
 22 43  1  0  0  0  0
M  END
> <PUBCHEM_COMPOUND_CID>
45784210

> <PUBCHEM_CONFORMER_RMSD>
0.6

> <PUBCHEM_CONFORMER_DIVERSEORDER>
2
77
42
114
111
80
97
89
108
72
78
20
54
69
79
118
35
90
106
76
95
101
85
109
15
98
53
88
27
105
55
84
99
117
73
12
93
96
112
107
62
71
26
113
33
13
75
66
87
25
115
81
94
31
16
110
100
7
32
41
83
91
63
67
8
44
36
9
43
102
19
3
86
22
52
103
48
21
49
24
14
60
74
47
34
28
10
65
29
11
18
51
59
4
64
1
38
70
23
39
46
56
104
58
37
17
82
92
30
6
61
50
57
5
68
40
45
116

> <PUBCHEM_MMFF94_PARTIAL_CHARGES>
30
1 -0.81
10 -0.14
11 -0.15
12 0.23
13 -0.15
14 -0.15
15 -0.15
16 -0.15
17 -0.14
18 -0.15
19 -0.15
2 0.03
20 -0.15
21 0.14
22 -0.15
3 -0.57
32 0.27
33 0.15
34 0.15
35 0.15
36 0.15
37 0.15
38 0.15
39 0.15
4 0.18
43 0.15
6 0.27
7 0.27
8 0.01
9 0.41

> <PUBCHEM_EFFECTIVE_ROTOR_COUNT>
4

> <PUBCHEM_PHARMACOPHORE_FEATURES>
7
1 1 cation
1 2 donor
3 2 3 8 cation
5 1 4 5 6 7 rings
5 2 3 8 11 12 rings
6 10 15 16 19 20 22 rings
6 11 12 13 14 17 18 rings

> <PUBCHEM_HEAVY_ATOM_COUNT>
22

> <PUBCHEM_ATOM_DEF_STEREO_COUNT>
1

> <PUBCHEM_ATOM_UDEF_STEREO_COUNT>
0

> <PUBCHEM_BOND_DEF_STEREO_COUNT>
0

> <PUBCHEM_BOND_UDEF_STEREO_COUNT>
0

> <PUBCHEM_ISOTOPIC_ATOM_COUNT>
0

> <PUBCHEM_COMPONENT_COUNT>
1

> <PUBCHEM_CACTVS_TAUTO_COUNT>
2

> <PUBCHEM_CONFORMER_ID>
02BA9C9200000002

> <PUBCHEM_MMFF94_ENERGY>
47.1636

> <PUBCHEM_FEATURE_SELFOVERLAP>
35.63

> <PUBCHEM_SHAPE_FINGERPRINT>
10 15 11239997889013103255
10299344 5 18186807980748787883
10622 236 17461418270688484322
10670039 82 12396569703257263942
10693767 8 17314502623019640122
11045515 52 17894909611916008205
11089746 13 9439395813810779370
11128504 68 17240483636805468813
11524674 6 17275384313836749927
11796584 16 18339637832939355742
12166972 35 17822014215987452492
12236239 1 18113339682879557668
12592606 108 18337390539696805467
12633257 1 15123504835043102925
12760667 363 18272082795463545165
12788726 201 18262795160319059945
12969540 114 13912320204979929865
13288520 33 18409448077277289545
13402501 40 18131638884823435047
13668630 136 18187085014697977742
13673619 4 18335421305422516097
13690498 29 17967808371667632005
13740256 8 18412262869830590841
13785724 45 9941323963229929324
13862211 1 18341610443142270839
14123256 34 18412550928765475323
14211702 104 18269558243784253006
14251751 18 18411978070195615798
14251752 14 18186516580002448957
14251764 18 13183016328862920361
14251764 30 18410856603117353583
14347332 77 18187642462244002228
14420673 8 18411985780490567867
14466204 15 10231762180040780227
14576447 43 18040713654351907104
14765038 42 14908173166956364668
15003188 100 14346085260204628446
15142383 8 15195290785358197226
15183329 4 16298384656414282890
15348495 7 16701732860591203763
15461852 350 18334297531851331302
15537594 2 18334011684044415523
16110190 28 17988075711655651127
17138139 8 18041270075523146114
17780758 139 17846780707060689225
17844677 252 18342459244296268729
1813 80 18341337768522193549
190975 80 17846206817382634866
19141452 34 16917062291605863695
193927 3 18060422421301278933
200 152 17749390342969141312
20281389 69 8790881883001769950
20374829 77 18413670218891417381
21054139 6 18040713637336010202
21150785 3 18113344111607882110
21267235 1 18335704953430937763
21315763 191 18410298012555367453
21403212 168 18131075910233859123
21521239 73 17095241415225853970
21623969 137 17060340712689098534
221357 26 15936406740894297206
22950370 63 18410014372999717437
23035841 295 18409451379975258467
23402539 116 18334011653372943740
23522609 53 18119561844846275861
23559900 14 18337664321231879497
25122255 55 18270688571548968886
2748736 6 9295299322039293043
2767999 5 8574716788795082199
2838139 119 13767918022789029615
29717793 49 17895198766731294406
3004659 81 18113052748862185722
314173 85 17775565334244747593
335352 9 18410852162812058413
3418910 222 18202003240441769944
34797466 226 17847067697250720092
351380 3 18334856130159038291
4107672 100 17458336417785525221
439807 62 18114181947694633075
465052 167 18343025522674718950
5104073 3 17989201530248584432
5283156 175 18114463379098710792
56616090 284 18259705601137502553
59682541 52 14707193397554632906
59755656 215 18342458097450310487
636775 8 18271816688270833798
6700243 42 18125748723887519844
7495541 125 18131629002530655704
7970288 3 18411133671305105439
8863177 126 18119254102360779387

> <PUBCHEM_SHAPE_MULTIPOLES>
437.81
17.37
2.16
1.16
2.25
0.41
-0.14
-12.61
-0.09
-2.36
0.16
1.02
0.01
-0.33

> <PUBCHEM_SHAPE_SELFOVERLAP>
958.287

> <PUBCHEM_SHAPE_VOLUME>
238.3

> <PUBCHEM_COORDINATE_TYPE>
2
5
10

$$$$
