75367749
  -OEChem-12032416383D

 48 50  0     1  0  0  0  0  0999 V2000
    2.6908    3.4422    0.1442 O   0  0  0  0  0  0  0  0  0  0  0  0
   -0.3333    1.7672    1.3705 O   0  0  0  0  0  0  0  0  0  0  0  0
    3.3147   -1.1450   -1.7803 O   0  0  0  0  0  0  0  0  0  0  0  0
   -5.1146    0.3012   -0.9624 O   0  0  0  0  0  0  0  0  0  0  0  0
    2.7157    0.4132   -0.1342 N   0  0  0  0  0  0  0  0  0  0  0  0
    1.7532   -2.7377    0.5255 N   0  0  0  0  0  0  0  0  0  0  0  0
    0.6543   -3.4830    0.7332 N   0  0  0  0  0  0  0  0  0  0  0  0
    0.8017    1.8355    0.5090 C   0  0  2  0  0  0  0  0  0  0  0  0
    1.8373    0.8147    0.9762 C   0  0  0  0  0  0  0  0  0  0  0  0
    3.7342    1.3839   -0.5427 C   0  0  0  0  0  0  0  0  0  0  0  0
    1.3201    3.2766    0.4844 C   0  0  0  0  0  0  0  0  0  0  0  0
    3.1287    2.7092   -0.9943 C   0  0  0  0  0  0  0  0  0  0  0  0
    2.6144   -0.7989   -0.8301 C   0  0  0  0  0  0  0  0  0  0  0  0
    1.5853   -1.7565   -0.4071 C   0  0  0  0  0  0  0  0  0  0  0  0
   -1.5181    1.4039    0.7923 C   0  0  0  0  0  0  0  0  0  0  0  0
    0.2865   -1.8679   -0.8396 C   0  0  0  0  0  0  0  0  0  0  0  0
   -0.2383   -2.9469   -0.1033 C   0  0  0  0  0  0  0  0  0  0  0  0
    2.9552   -3.0284    1.2721 C   0  0  0  0  0  0  0  0  0  0  0  0
   -2.1869    0.2611    1.2311 C   0  0  0  0  0  0  0  0  0  0  0  0
   -2.0580    2.1759   -0.2364 C   0  0  0  0  0  0  0  0  0  0  0  0
   -1.6010   -3.5008   -0.1717 C   0  0  0  0  0  0  0  0  0  0  0  0
   -3.3954   -0.1094    0.6416 C   0  0  0  0  0  0  0  0  0  0  0  0
   -3.2665    1.8054   -0.8260 C   0  0  0  0  0  0  0  0  0  0  0  0
   -3.9352    0.6628   -0.3871 C   0  0  0  0  0  0  0  0  0  0  0  0
   -5.7448   -0.8784   -0.4648 C   0  0  0  0  0  0  0  0  0  0  0  0
    0.5174    1.5626   -0.5178 H   0  0  0  0  0  0  0  0  0  0  0  0
    2.4590    1.2159    1.7859 H   0  0  0  0  0  0  0  0  0  0  0  0
    1.3337   -0.0593    1.3978 H   0  0  0  0  0  0  0  0  0  0  0  0
    4.3352    0.9693   -1.3581 H   0  0  0  0  0  0  0  0  0  0  0  0
    4.3958    1.5337    0.3184 H   0  0  0  0  0  0  0  0  0  0  0  0
    1.1828    3.7368    1.4700 H   0  0  0  0  0  0  0  0  0  0  0  0
    0.7162    3.8787   -0.2048 H   0  0  0  0  0  0  0  0  0  0  0  0
    3.9178    3.3078   -1.4616 H   0  0  0  0  0  0  0  0  0  0  0  0
    2.3283    2.5859   -1.7329 H   0  0  0  0  0  0  0  0  0  0  0  0
   -0.2084   -1.2546   -1.5791 H   0  0  0  0  0  0  0  0  0  0  0  0
    3.0335   -2.3018    2.0844 H   0  0  0  0  0  0  0  0  0  0  0  0
    2.8945   -4.0423    1.6763 H   0  0  0  0  0  0  0  0  0  0  0  0
    3.8165   -2.9541    0.6039 H   0  0  0  0  0  0  0  0  0  0  0  0
   -1.7688   -0.3447    2.0306 H   0  0  0  0  0  0  0  0  0  0  0  0
   -1.5570    3.0749   -0.5832 H   0  0  0  0  0  0  0  0  0  0  0  0
   -1.5762   -4.5560   -0.4627 H   0  0  0  0  0  0  0  0  0  0  0  0
   -2.0994   -3.4231    0.8001 H   0  0  0  0  0  0  0  0  0  0  0  0
   -2.2126   -2.9653   -0.9053 H   0  0  0  0  0  0  0  0  0  0  0  0
   -3.8607   -1.0089    1.0300 H   0  0  0  0  0  0  0  0  0  0  0  0
   -3.6834    2.4121   -1.6253 H   0  0  0  0  0  0  0  0  0  0  0  0
   -6.6692   -1.0162   -1.0352 H   0  0  0  0  0  0  0  0  0  0  0  0
   -6.0311   -0.7685    0.5867 H   0  0  0  0  0  0  0  0  0  0  0  0
   -5.1277   -1.7670   -0.6363 H   0  0  0  0  0  0  0  0  0  0  0  0
  1 11  1  0  0  0  0
  1 12  1  0  0  0  0
  2  8  1  0  0  0  0
  2 15  1  0  0  0  0
  3 13  2  0  0  0  0
  4 24  1  0  0  0  0
  4 25  1  0  0  0  0
  5  9  1  0  0  0  0
  5 10  1  0  0  0  0
  5 13  1  0  0  0  0
  6  7  1  0  0  0  0
  6 14  1  0  0  0  0
  6 18  1  0  0  0  0
  7 17  2  0  0  0  0
  8  9  1  0  0  0  0
  8 11  1  0  0  0  0
  8 26  1  0  0  0  0
  9 27  1  0  0  0  0
  9 28  1  0  0  0  0
 10 12  1  0  0  0  0
 10 29  1  0  0  0  0
 10 30  1  0  0  0  0
 11 31  1  0  0  0  0
 11 32  1  0  0  0  0
 12 33  1  0  0  0  0
 12 34  1  0  0  0  0
 13 14  1  0  0  0  0
 14 16  2  0  0  0  0
 15 19  2  0  0  0  0
 15 20  1  0  0  0  0
 16 17  1  0  0  0  0
 16 35  1  0  0  0  0
 17 21  1  0  0  0  0
 18 36  1  0  0  0  0
 18 37  1  0  0  0  0
 18 38  1  0  0  0  0
 19 22  1  0  0  0  0
 19 39  1  0  0  0  0
 20 23  2  0  0  0  0
 20 40  1  0  0  0  0
 21 41  1  0  0  0  0
 21 42  1  0  0  0  0
 21 43  1  0  0  0  0
 22 24  2  0  0  0  0
 22 44  1  0  0  0  0
 23 24  1  0  0  0  0
 23 45  1  0  0  0  0
 25 46  1  0  0  0  0
 25 47  1  0  0  0  0
 25 48  1  0  0  0  0
M  END
> <PUBCHEM_COMPOUND_CID>
75367749

> <PUBCHEM_CONFORMER_RMSD>
0.8

> <PUBCHEM_CONFORMER_DIVERSEORDER>
8
245
276
293
74
203
297
126
91
76
79
267
189
198
53
102
295
284
302
275
123
70
212
32
250
167
222
10
92
271
194
258
280
235
157
149
168
34
213
232
125
78
308
164
104
142
61
170
25
218
191
1
257
23
43
163
192
146
107
303
114
260
200
59
177
166
244
237
240
183
127
124
29
105
231
64
299
291
158
238
181
121
304
234
131
185
165
89
31
145
205
178
81
243
223
248
11
184
46
255
307
242
128
236
298
156
50
20
264
72
154
66
300
58
220
60
214
207
120
148
209
301
160
56
263
290
153
256
113
7
261
221
201
180
285
132
62
287
279
52
174
71
161
262
252
115
24
143
215
130
93
144
86
277
21
206
159
129
6
224
239
274
42
193
186
48
147
63
187
111
30
47
54
39
101
136
172
199
281
296
253
87
169
98
289
195
27
196
140
259
268
228
4
249
80
12
117
197
204
96
97
266
202
18
305
138
282
3
110
100
88
216
226
217
211
229
288
139
247
2
67
106
19
35
292
9
219
85
141
286
49
230
190
171
246
265
251
55
108
208
173
13
73
135
162
225
112
45
38
283
90
241
122
109
94
82
294
57
26
68
95
176
227
17
5
182
84
210
51
118
152
65
83
37
103
116
22
137
133
16
175
134
150
278
28
269
41
99
188
270
233
151
272
155
254
119
15
44
69
179
75
306
273
33
36
14
40
77

> <PUBCHEM_MMFF94_PARTIAL_CHARGES>
30
1 -0.56
10 0.3
11 0.28
12 0.28
13 0.71
14 -0.24
15 0.08
16 -0.15
17 0.11
18 0.26
19 -0.15
2 -0.36
20 -0.15
21 0.18
22 -0.15
23 -0.15
24 0.08
25 0.28
3 -0.57
35 0.15
39 0.15
4 -0.36
40 0.15
44 0.15
45 0.15
5 -0.66
6 0.31
7 -0.71
8 0.28
9 0.3

> <PUBCHEM_EFFECTIVE_ROTOR_COUNT>
6.4

> <PUBCHEM_PHARMACOPHORE_FEATURES>
8
1 1 acceptor
1 2 acceptor
1 3 acceptor
1 4 acceptor
1 7 acceptor
5 6 7 14 16 17 rings
6 15 19 20 22 23 24 rings
7 1 5 8 9 10 11 12 rings

> <PUBCHEM_HEAVY_ATOM_COUNT>
25

> <PUBCHEM_ATOM_DEF_STEREO_COUNT>
1

> <PUBCHEM_ATOM_UDEF_STEREO_COUNT>
0

> <PUBCHEM_BOND_DEF_STEREO_COUNT>
0

> <PUBCHEM_BOND_UDEF_STEREO_COUNT>
0

> <PUBCHEM_ISOTOPIC_ATOM_COUNT>
0

> <PUBCHEM_COMPONENT_COUNT>
1

> <PUBCHEM_CACTVS_TAUTO_COUNT>
1

> <PUBCHEM_CONFORMER_ID>
047E054500000008

> <PUBCHEM_MMFF94_ENERGY>
82.5849

> <PUBCHEM_FEATURE_SELFOVERLAP>
40.6

> <PUBCHEM_SHAPE_FINGERPRINT>
104564 63 17548987010282291800
108634 29 18342749549873225374
10930396 42 18265309778752372800
1100329 8 18410854382719390946
11370993 70 18335983163726367709
12553582 1 17690859864536332016
12596599 1 17344079467750523391
13004483 165 16892850727508082051
13140716 1 18053653956664719664
1361 2 18192145126233699261
14117953 113 17693653719672522871
14178342 30 17912077244452721569
14931854 50 18341620308222980701
17138139 8 17628617950481616591
17492 54 18338247019407504382
19026451 147 18339351951564005035
192875 21 18048312249972558355
19930381 70 18409163282238293581
20626108 58 18119515540734253386
20775438 99 17916000530033374999
22113638 7 18267291037247377163
22393880 68 18268153050036496621
23559900 14 18265319617657731953
238 59 18408889512073884563
3052486 1 18194954378057031954
3298306 158 18339073895502366693
463206 1 18272080647869114413
484989 97 18265626548631656719
81228 2 17260188216494036824

> <PUBCHEM_SHAPE_MULTIPOLES>
476.07
8.04
4.88
1.22
9.41
1.94
0.01
-1.47
-2.41
-3.35
0.54
-0.36
0.07
-0.43

> <PUBCHEM_SHAPE_SELFOVERLAP>
1005.448

> <PUBCHEM_SHAPE_VOLUME>
267

> <PUBCHEM_COORDINATE_TYPE>
2
5
10

$$$$
