75536894
  -OEChem-12032416333D

 40 42  0     1  0  0  0  0  0999 V2000
    0.3021    2.9612   -1.1138 O   0  0  0  0  0  0  0  0  0  0  0  0
    1.5900   -1.4525    1.2946 O   0  0  0  0  0  0  0  0  0  0  0  0
   -2.1018    0.9741    0.8358 O   0  0  0  0  0  0  0  0  0  0  0  0
    1.5562    0.7685    0.5967 N   0  0  0  0  0  0  0  0  0  0  0  0
   -4.9176   -0.8172   -0.6560 N   0  0  0  0  0  0  0  0  0  0  0  0
    3.4835   -0.7162   -0.0028 C   0  0  0  0  0  0  0  0  0  0  0  0
    4.3695   -1.9014    0.4630 C   0  0  0  0  0  0  0  0  0  0  0  0
    3.4813   -1.3872   -1.4012 C   0  0  0  0  0  0  0  0  0  0  0  0
    4.8038   -2.0704   -1.0052 C   0  0  0  0  0  0  0  0  0  0  0  0
    2.1317   -0.5167    0.6878 C   0  0  0  0  0  0  0  0  0  0  0  0
    0.2555    1.0162    1.2227 C   0  0  0  0  0  0  0  0  0  0  0  0
    2.2223    1.8561   -0.1290 C   0  0  0  0  0  0  0  0  0  0  0  0
   -0.8531    1.2191    0.1905 C   0  0  2  0  0  0  0  0  0  0  0  0
    1.4409    3.1542   -0.2813 C   0  0  0  0  0  0  0  0  0  0  0  0
   -0.8784    2.6288   -0.3947 C   0  0  0  0  0  0  0  0  0  0  0  0
   -2.8513   -0.0584    0.3438 C   0  0  0  0  0  0  0  0  0  0  0  0
   -2.3592   -1.3588    0.3314 C   0  0  0  0  0  0  0  0  0  0  0  0
   -4.1251    0.1577   -0.1569 C   0  0  0  0  0  0  0  0  0  0  0  0
   -3.1448   -2.3888   -0.1741 C   0  0  0  0  0  0  0  0  0  0  0  0
   -4.4055   -2.0684   -0.6515 C   0  0  0  0  0  0  0  0  0  0  0  0
    4.1035    0.1902    0.0073 H   0  0  0  0  0  0  0  0  0  0  0  0
    5.1713   -1.6480    1.1620 H   0  0  0  0  0  0  0  0  0  0  0  0
    3.8199   -2.7648    0.8556 H   0  0  0  0  0  0  0  0  0  0  0  0
    3.5434   -0.7061   -2.2541 H   0  0  0  0  0  0  0  0  0  0  0  0
    2.6528   -2.0864   -1.5645 H   0  0  0  0  0  0  0  0  0  0  0  0
    4.9298   -3.0997   -1.3495 H   0  0  0  0  0  0  0  0  0  0  0  0
    5.6958   -1.4915   -1.2707 H   0  0  0  0  0  0  0  0  0  0  0  0
    0.3447    1.8739    1.8997 H   0  0  0  0  0  0  0  0  0  0  0  0
   -0.0024    0.1716    1.8716 H   0  0  0  0  0  0  0  0  0  0  0  0
    2.4777    1.4737   -1.1238 H   0  0  0  0  0  0  0  0  0  0  0  0
    3.1536    2.0754    0.4048 H   0  0  0  0  0  0  0  0  0  0  0  0
   -0.6886    0.5190   -0.6416 H   0  0  0  0  0  0  0  0  0  0  0  0
    1.1698    3.6048    0.6802 H   0  0  0  0  0  0  0  0  0  0  0  0
    2.0817    3.8788   -0.7961 H   0  0  0  0  0  0  0  0  0  0  0  0
   -1.7160    2.7045   -1.0982 H   0  0  0  0  0  0  0  0  0  0  0  0
   -1.0789    3.3810    0.3789 H   0  0  0  0  0  0  0  0  0  0  0  0
   -1.3708   -1.5872    0.7188 H   0  0  0  0  0  0  0  0  0  0  0  0
   -4.5590    1.1526   -0.1721 H   0  0  0  0  0  0  0  0  0  0  0  0
   -2.7825   -3.4102   -0.1921 H   0  0  0  0  0  0  0  0  0  0  0  0
   -5.0576   -2.8356   -1.0558 H   0  0  0  0  0  0  0  0  0  0  0  0
  1 14  1  0  0  0  0
  1 15  1  0  0  0  0
  2 10  2  0  0  0  0
  3 13  1  0  0  0  0
  3 16  1  0  0  0  0
  4 10  1  0  0  0  0
  4 11  1  0  0  0  0
  4 12  1  0  0  0  0
  5 18  1  0  0  0  0
  5 20  2  0  0  0  0
  6  7  1  0  0  0  0
  6  8  1  0  0  0  0
  6 10  1  0  0  0  0
  6 21  1  0  0  0  0
  7  9  1  0  0  0  0
  7 22  1  0  0  0  0
  7 23  1  0  0  0  0
  8  9  1  0  0  0  0
  8 24  1  0  0  0  0
  8 25  1  0  0  0  0
  9 26  1  0  0  0  0
  9 27  1  0  0  0  0
 11 13  1  0  0  0  0
 11 28  1  0  0  0  0
 11 29  1  0  0  0  0
 12 14  1  0  0  0  0
 12 30  1  0  0  0  0
 12 31  1  0  0  0  0
 13 15  1  0  0  0  0
 13 32  1  0  0  0  0
 14 33  1  0  0  0  0
 14 34  1  0  0  0  0
 15 35  1  0  0  0  0
 15 36  1  0  0  0  0
 16 17  1  0  0  0  0
 16 18  2  0  0  0  0
 17 19  2  0  0  0  0
 17 37  1  0  0  0  0
 18 38  1  0  0  0  0
 19 20  1  0  0  0  0
 19 39  1  0  0  0  0
 20 40  1  0  0  0  0
M  END
> <PUBCHEM_COMPOUND_CID>
75536894

> <PUBCHEM_CONFORMER_RMSD>
0.8

> <PUBCHEM_CONFORMER_DIVERSEORDER>
4
7
135
172
31
206
147
2
72
69
138
207
87
107
186
163
67
71
102
56
182
84
62
214
34
68
208
12
201
216
52
24
137
55
181
195
59
17
136
171
127
73
44
20
162
218
198
23
70
76
153
128
57
158
53
90
77
120
168
74
154
119
94
1
202
217
80
95
49
166
38
132
149
63
174
196
213
169
39
215
155
160
75
25
161
113
184
14
29
104
193
122
79
133
106
159
124
173
105
50
37
151
101
11
204
78
30
98
146
188
187
178
35
97
165
85
199
48
43
8
19
156
203
16
175
139
6
109
170
27
60
103
5
3
66
179
164
177
142
118
134
36
21
83
111
129
91
140
180
145
176
32
150
115
167
197
130
18
13
26
112
143
144
22
205
10
86
123
46
40
212
157
108
211
125
82
42
88
65
81
200
141
116
9
51
58
47
185
121
99
192
114
64
117
54
189
183
110
33
190
45
209
152
131
92
148
41
126
100
28
194
61
89
15
93
191
210
96

> <PUBCHEM_MMFF94_PARTIAL_CHARGES>
21
1 -0.56
10 0.58
11 0.3
12 0.3
13 0.28
14 0.28
15 0.28
16 0.08
17 -0.15
18 0.16
19 -0.15
2 -0.57
20 0.16
3 -0.36
37 0.15
38 0.15
39 0.15
4 -0.66
40 0.15
5 -0.62
6 0.05

> <PUBCHEM_EFFECTIVE_ROTOR_COUNT>
6.2

> <PUBCHEM_PHARMACOPHORE_FEATURES>
7
1 1 acceptor
1 2 acceptor
1 3 acceptor
1 5 acceptor
4 6 7 8 9 rings
6 5 16 17 18 19 20 rings
7 1 4 11 12 13 14 15 rings

> <PUBCHEM_HEAVY_ATOM_COUNT>
20

> <PUBCHEM_ATOM_DEF_STEREO_COUNT>
1

> <PUBCHEM_ATOM_UDEF_STEREO_COUNT>
0

> <PUBCHEM_BOND_DEF_STEREO_COUNT>
0

> <PUBCHEM_BOND_UDEF_STEREO_COUNT>
0

> <PUBCHEM_ISOTOPIC_ATOM_COUNT>
0

> <PUBCHEM_COMPONENT_COUNT>
1

> <PUBCHEM_CACTVS_TAUTO_COUNT>
1

> <PUBCHEM_CONFORMER_ID>
048099FE00000004

> <PUBCHEM_MMFF94_ENERGY>
63.7259

> <PUBCHEM_FEATURE_SELFOVERLAP>
35.524

> <PUBCHEM_SHAPE_FINGERPRINT>
10042902 136 17989211468618238926
10968037 57 18272375252381844999
116883 192 18409442583671590485
12363563 72 18411426093947166614
12403259 327 15554443045867533767
12553582 1 18261393299878057003
12596599 1 18200889391215217634
12596602 18 13398331474189652134
13009979 54 18130240306185339161
13533116 47 18200310073900917403
13583140 156 15482097259497268106
14178000 29 18411699898032977069
14790565 3 17474108696141296504
14863182 85 17981042230431106848
15052358 14 18262785260873038893
15342816 4 18409731716928242310
15352361 1 18413671296675397430
17357779 13 18200298940496483999
17492 89 18195526115698949519
1813 80 18411145718318313263
19141452 34 18199194979409430073
193927 3 18272378576523131739
20291156 8 18411418414466357659
20374829 77 18411413982223839939
20388580 30 18411983584886196448
20403669 9 18272371944898623495
20645477 70 18265327490311472103
20671657 53 18408603664619999857
20871999 31 18188772725716402196
21634736 98 18409731806689941578
21728266 224 17971461906978307146
221490 88 18190748728579439019
23379529 103 18272098218217267566
23557571 272 18269267977072108936
23559900 14 18341886428934395497
23598288 3 17536311431946411120
23598291 2 18339655494029798585
26353 1 17676209065227652356
2838139 119 13046236017137127814
3286 77 17274818069115579611
4280585 95 18335695036256694082
4463277 69 18272929435921809093
46194498 28 17677884833192110253
5207 123 18341889689067534085
7364860 26 18268428121264850560
9709674 26 18191022516018435323

> <PUBCHEM_SHAPE_MULTIPOLES>
384.02
9.42
3.52
1.09
1.78
1.95
0.02
-9.13
2.26
-0.92
0.93
-0.57
-0.11
-0.08

> <PUBCHEM_SHAPE_SELFOVERLAP>
800.066

> <PUBCHEM_SHAPE_VOLUME>
214.1

> <PUBCHEM_COORDINATE_TYPE>
2
5
10

$$$$
