45784114
  -OEChem-12032416273D

 60 62  0     1  0  0  0  0  0999 V2000
   -3.6605    2.0014   -0.0293 O   0  0  0  0  0  0  0  0  0  0  0  0
    7.3719   -0.0780    0.9496 O   0  0  0  0  0  0  0  0  0  0  0  0
    1.0173   -0.8073   -0.1856 N   0  0  0  0  0  0  0  0  0  0  0  0
   -5.3479    1.2510   -1.2918 N   0  0  0  0  0  0  0  0  0  0  0  0
   -5.8391    2.2499   -0.4720 N   0  0  0  0  0  0  0  0  0  0  0  0
    4.6146   -0.3120    0.3888 N   0  0  0  0  0  0  0  0  0  0  0  0
    6.1180    1.2712   -0.5204 N   0  0  0  0  0  0  0  0  0  0  0  0
   -1.6841   -1.0821    1.0431 C   0  0  1  0  0  0  0  0  0  0  0  0
   -0.8094   -2.2445    0.5106 C   0  0  1  0  0  0  0  0  0  0  0  0
   -3.1232   -1.2114    0.5214 C   0  0  0  0  0  0  0  0  0  0  0  0
   -3.1878   -1.2054   -1.0176 C   0  0  2  0  0  0  0  0  0  0  0  0
   -1.6901   -1.0299    2.5741 C   0  0  0  0  0  0  0  0  0  0  0  0
   -2.1605   -2.1373   -1.6279 C   0  0  0  0  0  0  0  0  0  0  0  0
   -1.1118   -2.6019   -0.9257 C   0  0  0  0  0  0  0  0  0  0  0  0
    0.6830   -1.9245    0.6538 C   0  0  0  0  0  0  0  0  0  0  0  0
   -3.0370    0.2158   -1.5712 C   0  0  0  0  0  0  0  0  0  0  0  0
   -2.0139    0.3803    3.0573 C   0  0  0  0  0  0  0  0  0  0  0  0
   -2.6879   -2.0370    3.1368 C   0  0  0  0  0  0  0  0  0  0  0  0
   -2.3911   -2.5597   -3.0521 C   0  0  0  0  0  0  0  0  0  0  0  0
   -4.0731    1.1403   -0.9992 C   0  0  0  0  0  0  0  0  0  0  0  0
    2.2935   -0.2668   -0.2862 C   0  0  0  0  0  0  0  0  0  0  0  0
   -4.8199    2.6585    0.2472 C   0  0  0  0  0  0  0  0  0  0  0  0
    2.5493    0.8168   -1.1192 C   0  0  0  0  0  0  0  0  0  0  0  0
    3.3510   -0.7900    0.4402 C   0  0  0  0  0  0  0  0  0  0  0  0
    3.8365    1.3365   -1.1992 C   0  0  0  0  0  0  0  0  0  0  0  0
   -4.7618    3.6986    1.2818 C   0  0  0  0  0  0  0  0  0  0  0  0
    4.8250    0.7416   -0.4318 C   0  0  0  0  0  0  0  0  0  0  0  0
    7.2695    0.8463    0.1495 C   0  0  0  0  0  0  0  0  0  0  0  0
    8.4693    1.6797   -0.2251 C   0  0  0  0  0  0  0  0  0  0  0  0
   -1.2823   -0.1304    0.6752 H   0  0  0  0  0  0  0  0  0  0  0  0
   -1.0065   -3.1499    1.0985 H   0  0  0  0  0  0  0  0  0  0  0  0
   -3.5451   -2.1805    0.8215 H   0  0  0  0  0  0  0  0  0  0  0  0
   -3.7844   -0.4568    0.9556 H   0  0  0  0  0  0  0  0  0  0  0  0
   -4.1868   -1.5771   -1.2879 H   0  0  0  0  0  0  0  0  0  0  0  0
   -0.7004   -1.2780    2.9704 H   0  0  0  0  0  0  0  0  0  0  0  0
   -0.4312   -3.3055   -1.4013 H   0  0  0  0  0  0  0  0  0  0  0  0
    0.9347   -1.7120    1.6976 H   0  0  0  0  0  0  0  0  0  0  0  0
    1.2676   -2.8046    0.3550 H   0  0  0  0  0  0  0  0  0  0  0  0
   -3.1614    0.2166   -2.6609 H   0  0  0  0  0  0  0  0  0  0  0  0
   -2.0359    0.6183   -1.3750 H   0  0  0  0  0  0  0  0  0  0  0  0
   -3.0101    0.7086    2.7454 H   0  0  0  0  0  0  0  0  0  0  0  0
   -1.2840    1.1027    2.6763 H   0  0  0  0  0  0  0  0  0  0  0  0
   -1.9808    0.4263    4.1514 H   0  0  0  0  0  0  0  0  0  0  0  0
   -2.5451   -3.0440    2.7337 H   0  0  0  0  0  0  0  0  0  0  0  0
   -3.7311   -1.7356    2.9952 H   0  0  0  0  0  0  0  0  0  0  0  0
   -2.5461   -2.1156    4.2219 H   0  0  0  0  0  0  0  0  0  0  0  0
   -3.3823   -3.0125   -3.1584 H   0  0  0  0  0  0  0  0  0  0  0  0
   -1.6549   -3.2981   -3.3874 H   0  0  0  0  0  0  0  0  0  0  0  0
   -2.3255   -1.7010   -3.7268 H   0  0  0  0  0  0  0  0  0  0  0  0
    0.3051   -0.3922   -0.7765 H   0  0  0  0  0  0  0  0  0  0  0  0
    1.7547    1.2646   -1.7103 H   0  0  0  0  0  0  0  0  0  0  0  0
    3.2404   -1.6342    1.1126 H   0  0  0  0  0  0  0  0  0  0  0  0
    4.0407    2.1820   -1.8482 H   0  0  0  0  0  0  0  0  0  0  0  0
   -4.4271    3.2759    2.2338 H   0  0  0  0  0  0  0  0  0  0  0  0
   -4.0666    4.4917    0.9912 H   0  0  0  0  0  0  0  0  0  0  0  0
   -5.7472    4.1482    1.4361 H   0  0  0  0  0  0  0  0  0  0  0  0
    6.2242    2.0621   -1.1524 H   0  0  0  0  0  0  0  0  0  0  0  0
    8.2831    2.7295    0.0183 H   0  0  0  0  0  0  0  0  0  0  0  0
    8.6676    1.5820   -1.2961 H   0  0  0  0  0  0  0  0  0  0  0  0
    9.3464    1.3376    0.3313 H   0  0  0  0  0  0  0  0  0  0  0  0
  1 20  1  0  0  0  0
  1 22  1  0  0  0  0
  2 28  2  0  0  0  0
  3 15  1  0  0  0  0
  3 21  1  0  0  0  0
  3 50  1  0  0  0  0
  4  5  1  0  0  0  0
  4 20  2  0  0  0  0
  5 22  2  0  0  0  0
  6 24  1  0  0  0  0
  6 27  2  0  0  0  0
  7 27  1  0  0  0  0
  7 28  1  0  0  0  0
  7 57  1  0  0  0  0
  8  9  1  0  0  0  0
  8 10  1  0  0  0  0
  8 12  1  0  0  0  0
  8 30  1  0  0  0  0
  9 14  1  0  0  0  0
  9 15  1  0  0  0  0
  9 31  1  0  0  0  0
 10 11  1  0  0  0  0
 10 32  1  0  0  0  0
 10 33  1  0  0  0  0
 11 13  1  0  0  0  0
 11 16  1  0  0  0  0
 11 34  1  0  0  0  0
 12 17  1  0  0  0  0
 12 18  1  0  0  0  0
 12 35  1  0  0  0  0
 13 14  2  0  0  0  0
 13 19  1  0  0  0  0
 14 36  1  0  0  0  0
 15 37  1  0  0  0  0
 15 38  1  0  0  0  0
 16 20  1  0  0  0  0
 16 39  1  0  0  0  0
 16 40  1  0  0  0  0
 17 41  1  0  0  0  0
 17 42  1  0  0  0  0
 17 43  1  0  0  0  0
 18 44  1  0  0  0  0
 18 45  1  0  0  0  0
 18 46  1  0  0  0  0
 19 47  1  0  0  0  0
 19 48  1  0  0  0  0
 19 49  1  0  0  0  0
 21 23  1  0  0  0  0
 21 24  2  0  0  0  0
 22 26  1  0  0  0  0
 23 25  2  0  0  0  0
 23 51  1  0  0  0  0
 24 52  1  0  0  0  0
 25 27  1  0  0  0  0
 25 53  1  0  0  0  0
 26 54  1  0  0  0  0
 26 55  1  0  0  0  0
 26 56  1  0  0  0  0
 28 29  1  0  0  0  0
 29 58  1  0  0  0  0
 29 59  1  0  0  0  0
 29 60  1  0  0  0  0
M  END
> <PUBCHEM_COMPOUND_CID>
45784114

> <PUBCHEM_CONFORMER_RMSD>
1.2

> <PUBCHEM_CONFORMER_DIVERSEORDER>
1
59
44
66
41
17
125
123
139
53
11
36
3
12
97
82
16
24
89
7
63
15
100
94
60
49
135
29
90
76
33
4
120
109
13
127
47
70
75
10
117
67
61
2
50
83
85
79
81
56
65
38
14
103
22
130
140
34
105
129
51
137
28
108
46
107
35
39
114
93
72
119
62
98
86
37
115
68
21
136
122
71
5
113
121
69
6
40
126
92
48
99
25
19
74
30
91
88
58
77
111
52
32
84
42
116
73
27
54
8
78
112
110
96
55
132
80
31
45
18
95
101
43
106
64
57
20
131
104
133
128
102
26
9
134
87
124
23
138
118

> <PUBCHEM_MMFF94_PARTIAL_CHARGES>
30
1 -0.28
11 0.14
13 -0.28
14 -0.29
15 0.37
16 0.18
19 0.14
2 -0.57
20 0.3
21 0.1
22 0.3
23 -0.15
24 0.16
25 -0.15
26 0.18
27 0.43
28 0.57
29 0.06
3 -0.87
36 0.15
4 -0.34
5 -0.34
50 0.4
51 0.15
52 0.15
53 0.15
57 0.37
6 -0.62
7 -0.55
9 0.14

> <PUBCHEM_EFFECTIVE_ROTOR_COUNT>
8.8

> <PUBCHEM_PHARMACOPHORE_FEATURES>
8
1 2 acceptor
1 3 cation
1 3 donor
1 7 donor
3 12 17 18 hydrophobe
5 1 4 5 20 22 rings
6 6 21 23 24 25 27 rings
6 8 9 10 11 13 14 rings

> <PUBCHEM_HEAVY_ATOM_COUNT>
29

> <PUBCHEM_ATOM_DEF_STEREO_COUNT>
3

> <PUBCHEM_ATOM_UDEF_STEREO_COUNT>
0

> <PUBCHEM_BOND_DEF_STEREO_COUNT>
0

> <PUBCHEM_BOND_UDEF_STEREO_COUNT>
0

> <PUBCHEM_ISOTOPIC_ATOM_COUNT>
0

> <PUBCHEM_COMPONENT_COUNT>
1

> <PUBCHEM_CACTVS_TAUTO_COUNT>
3

> <PUBCHEM_CONFORMER_ID>
02BA9C3200000001

> <PUBCHEM_MMFF94_ENERGY>
67.0906

> <PUBCHEM_FEATURE_SELFOVERLAP>
40.596

> <PUBCHEM_SHAPE_FINGERPRINT>
10165383 225 17704073998118450335
10291535 26 18409171012905107113
10577160 103 15266763491177147786
10906281 52 17967539004441332718
12633257 1 16153718638708829463
12895836 83 18131062706823824725
12895837 130 18413388760746903876
131258 38 7922193978214285553
14713325 29 18412829093034654607
14856354 85 14562532916553140930
14950920 106 13262686932246811117
15163728 17 17987525806113890047
15513586 35 17461454799248206244
15799311 1 14129326426299564176
19438510 23 18335986372172316233
20771845 165 17987809505461810252
21033648 29 18335975480604784424
21033650 10 18201708596081952923
21401589 2 18041005003590560193
21756936 100 18186516622582895603
22122407 14 18261117430171491644
23559900 14 16415191334611161514
3027735 51 12679191453605510845
328310 18 17132122337576616337
4169191 19 17606397903460295668
46194498 28 15048871081704917037
5104073 3 17168984646916042296
531348 171 18201436991509846638
563151 74 17749676186048749882
6086070 43 17988633134819664480
7288768 16 17822013069315151299
9981440 41 18333454239996507019
999808 66 11818989678244598336

> <PUBCHEM_SHAPE_MULTIPOLES>
560.16
17.06
3.35
2.52
40.33
1.32
1.38
15.57
-1.59
-6.01
-0.28
-3.62
-1.51
-1.02

> <PUBCHEM_SHAPE_SELFOVERLAP>
1169.041

> <PUBCHEM_SHAPE_VOLUME>
316.6

> <PUBCHEM_COORDINATE_TYPE>
2
5
10

$$$$
