56775967
  -OEChem-12032416383D

 46 49  0     1  0  0  0  0  0999 V2000
   -7.6560   -0.3927   -0.3267 F   0  0  0  0  0  0  0  0  0  0  0  0
   -6.1051   -0.1754    1.1973 F   0  0  0  0  0  0  0  0  0  0  0  0
   -6.7102    1.5559   -0.0360 F   0  0  0  0  0  0  0  0  0  0  0  0
    5.1919   -2.6514   -0.2073 O   0  0  0  0  0  0  0  0  0  0  0  0
   -5.5213   -0.1360   -1.0137 O   0  0  0  0  0  0  0  0  0  0  0  0
    4.3366    0.0814   -0.1942 N   0  0  1  0  0  0  0  0  0  0  0  0
    0.8556   -0.7474   -0.3231 N   0  0  0  0  0  0  0  0  0  0  0  0
    1.8173   -0.3840    1.6453 N   0  0  0  0  0  0  0  0  0  0  0  0
    4.5202    2.5118   -0.3938 C   0  0  0  0  0  0  0  0  0  0  0  0
    3.8820    3.2524    0.7448 C   0  0  0  0  0  0  0  0  0  0  0  0
    3.8659    3.8403   -0.6358 C   0  0  0  0  0  0  0  0  0  0  0  0
    3.8691    1.2716   -0.9142 C   0  0  0  0  0  0  0  0  0  0  0  0
    3.3589   -1.0343   -0.2634 C   0  0  1  0  0  0  0  0  0  0  0  0
    5.6335   -0.3419   -0.7520 C   0  0  0  0  0  0  0  0  0  0  0  0
    3.9483   -2.2962    0.3968 C   0  0  0  0  0  0  0  0  0  0  0  0
    6.1388   -1.5969   -0.0533 C   0  0  0  0  0  0  0  0  0  0  0  0
    2.0218   -0.7145    0.3896 C   0  0  0  0  0  0  0  0  0  0  0  0
   -0.1571   -0.4167    0.5328 C   0  0  0  0  0  0  0  0  0  0  0  0
    0.4611   -0.1970    1.7412 C   0  0  0  0  0  0  0  0  0  0  0  0
   -1.5384   -0.3453    0.1355 C   0  0  0  0  0  0  0  0  0  0  0  0
   -2.4032    0.5427    0.7754 C   0  0  0  0  0  0  0  0  0  0  0  0
   -2.0124   -1.1633   -0.8902 C   0  0  0  0  0  0  0  0  0  0  0  0
   -3.7419    0.6124    0.3900 C   0  0  0  0  0  0  0  0  0  0  0  0
   -3.3511   -1.0938   -1.2755 C   0  0  0  0  0  0  0  0  0  0  0  0
   -4.2158   -0.2059   -0.6355 C   0  0  0  0  0  0  0  0  0  0  0  0
   -6.4887    0.2242   -0.0338 C   0  0  0  0  0  0  0  0  0  0  0  0
    5.6010    2.4997   -0.4577 H   0  0  0  0  0  0  0  0  0  0  0  0
    4.5365    3.7059    1.4792 H   0  0  0  0  0  0  0  0  0  0  0  0
    2.9456    2.8864    1.1476 H   0  0  0  0  0  0  0  0  0  0  0  0
    2.9191    3.8675   -1.1610 H   0  0  0  0  0  0  0  0  0  0  0  0
    4.5075    4.6916   -0.8279 H   0  0  0  0  0  0  0  0  0  0  0  0
    4.0458    1.1837   -1.9943 H   0  0  0  0  0  0  0  0  0  0  0  0
    2.7851    1.3961   -0.8101 H   0  0  0  0  0  0  0  0  0  0  0  0
    3.1872   -1.2669   -1.3250 H   0  0  0  0  0  0  0  0  0  0  0  0
    6.3893    0.4407   -0.6297 H   0  0  0  0  0  0  0  0  0  0  0  0
    5.5343   -0.5513   -1.8255 H   0  0  0  0  0  0  0  0  0  0  0  0
    4.0942   -2.1659    1.4773 H   0  0  0  0  0  0  0  0  0  0  0  0
    3.2674   -3.1450    0.2654 H   0  0  0  0  0  0  0  0  0  0  0  0
    6.3306   -1.4215    1.0123 H   0  0  0  0  0  0  0  0  0  0  0  0
    7.0785   -1.9248   -0.5092 H   0  0  0  0  0  0  0  0  0  0  0  0
    0.7692   -0.9652   -1.3072 H   0  0  0  0  0  0  0  0  0  0  0  0
    0.0072    0.0840    2.6811 H   0  0  0  0  0  0  0  0  0  0  0  0
   -2.0551    1.2012    1.5675 H   0  0  0  0  0  0  0  0  0  0  0  0
   -1.3667   -1.8732   -1.4011 H   0  0  0  0  0  0  0  0  0  0  0  0
   -4.3711    1.3450    0.8865 H   0  0  0  0  0  0  0  0  0  0  0  0
   -3.7155   -1.7348   -2.0736 H   0  0  0  0  0  0  0  0  0  0  0  0
  1 26  1  0  0  0  0
  2 26  1  0  0  0  0
  3 26  1  0  0  0  0
  4 15  1  0  0  0  0
  4 16  1  0  0  0  0
  5 25  1  0  0  0  0
  5 26  1  0  0  0  0
  6 12  1  0  0  0  0
  6 13  1  0  0  0  0
  6 14  1  0  0  0  0
  7 17  1  0  0  0  0
  7 18  1  0  0  0  0
  7 41  1  0  0  0  0
  8 17  2  0  0  0  0
  8 19  1  0  0  0  0
  9 10  1  0  0  0  0
  9 11  1  0  0  0  0
  9 12  1  0  0  0  0
  9 27  1  0  0  0  0
 10 11  1  0  0  0  0
 10 28  1  0  0  0  0
 10 29  1  0  0  0  0
 11 30  1  0  0  0  0
 11 31  1  0  0  0  0
 12 32  1  0  0  0  0
 12 33  1  0  0  0  0
 13 15  1  0  0  0  0
 13 17  1  0  0  0  0
 13 34  1  0  0  0  0
 14 16  1  0  0  0  0
 14 35  1  0  0  0  0
 14 36  1  0  0  0  0
 15 37  1  0  0  0  0
 15 38  1  0  0  0  0
 16 39  1  0  0  0  0
 16 40  1  0  0  0  0
 18 19  2  0  0  0  0
 18 20  1  0  0  0  0
 19 42  1  0  0  0  0
 20 21  2  0  0  0  0
 20 22  1  0  0  0  0
 21 23  1  0  0  0  0
 21 43  1  0  0  0  0
 22 24  2  0  0  0  0
 22 44  1  0  0  0  0
 23 25  2  0  0  0  0
 23 45  1  0  0  0  0
 24 25  1  0  0  0  0
 24 46  1  0  0  0  0
M  END
> <PUBCHEM_COMPOUND_CID>
56775967

> <PUBCHEM_CONFORMER_RMSD>
0.8

> <PUBCHEM_CONFORMER_DIVERSEORDER>
3
72
130
25
111
27
36
117
112
13
88
107
115
91
5
35
70
40
6
4
11
54
53
133
37
50
46
116
23
22
78
80
58
105
28
96
85
104
127
33
132
38
92
99
66
34
125
76
18
48
100
68
108
41
84
97
14
49
89
122
7
39
59
126
1
60
101
81
69
109
124
106
94
67
79
113
21
83
2
118
120
19
131
123
65
45
8
82
29
98
95
44
103
62
31
90
93
26
24
64
121
17
56
75
32
74
55
52
57
110
77
43
129
12
42
30
16
47
10
20
71
51
9
73
61
102
119
15
114
87
63
128
86

> <PUBCHEM_MMFF94_PARTIAL_CHARGES>
37
1 -0.34
10 -0.2
11 -0.2
12 0.37
13 0.45
14 0.27
15 0.28
16 0.28
17 0.01
18 -0.2
19 0.08
2 -0.34
20 0.05
21 -0.15
22 -0.15
23 -0.15
24 -0.15
25 0.08
26 1.3
27 0.1
28 0.1
29 0.1
3 -0.34
30 0.1
31 0.1
4 -0.56
41 0.27
42 0.15
43 0.15
44 0.15
45 0.15
46 0.15
5 -0.36
6 -0.81
7 0.03
8 -0.57
9 -0.19

> <PUBCHEM_EFFECTIVE_ROTOR_COUNT>
7.8

> <PUBCHEM_PHARMACOPHORE_FEATURES>
8
1 4 acceptor
1 5 acceptor
1 6 cation
1 7 donor
3 7 8 17 cation
5 7 8 17 18 19 rings
6 20 21 22 23 24 25 rings
6 4 6 13 14 15 16 rings

> <PUBCHEM_HEAVY_ATOM_COUNT>
26

> <PUBCHEM_ATOM_DEF_STEREO_COUNT>
1

> <PUBCHEM_ATOM_UDEF_STEREO_COUNT>
0

> <PUBCHEM_BOND_DEF_STEREO_COUNT>
0

> <PUBCHEM_BOND_UDEF_STEREO_COUNT>
0

> <PUBCHEM_ISOTOPIC_ATOM_COUNT>
0

> <PUBCHEM_COMPONENT_COUNT>
1

> <PUBCHEM_CACTVS_TAUTO_COUNT>
2

> <PUBCHEM_CONFORMER_ID>
0362551F00000003

> <PUBCHEM_MMFF94_ENERGY>
63.4791

> <PUBCHEM_FEATURE_SELFOVERLAP>
40.597

> <PUBCHEM_SHAPE_FINGERPRINT>
10411042 1 18120936106491728222
10638233 991 18343023311363004625
11135609 127 18200865275063975880
11796584 16 13542458778747493295
12166972 35 18130788919875425912
12236239 1 18410856547377464447
12616971 3 18342731927326744399
12730499 353 17603589608105673666
13533116 47 18409731768209328844
13955234 65 18040705936037785642
14170010 4 18410009940994264848
14251752 14 18130504133283750739
14294032 229 16914560773624950201
14461889 52 17677335051460705995
14933364 13 18187649081210546591
15081414 286 18113615728770265140
15183329 4 17418102048213517001
15840311 113 18333733512261773405
17844677 252 18409452449353608293
18335252 114 18337101285320733092
18681886 176 18131910469318527038
20157964 124 18410575119714102132
20612939 158 18412547630325466184
21033648 29 17095231532147273476
21315759 40 17847059974318974135
21344244 78 18192131730473037002
22079108 93 17531246201337108963
221357 26 18260548888323476044
23081809 10 17917989499639105735
23424782 7 18041286577436096587
23522609 53 17774182191978278713
23559900 14 18130212831142740578
23569914 2 17392427348031034189
249057 3 18412827989043443550
29717793 49 18060704979015735510
3004659 81 17917994962616168038
397830 11 17823710839880544235
4073 2 18041847327939124266
44317340 157 18337113465932133211
44555599 121 18270691870310874721
46194498 28 18410012109467329644
474 4 18189334748627086324
495365 180 18262517113279950392
54446538 1 18411702062796922233
67856867 119 18271801372037043408
7471813 234 18272370846346695224
9658208 31 17023192664393811066
9981440 41 17834110132894925800

> <PUBCHEM_SHAPE_MULTIPOLES>
486.56
17.99
2.85
1.17
23.42
2.74
-0.24
1.15
2.85
-7.16
0.25
0.22
-0.01
-0.72

> <PUBCHEM_SHAPE_SELFOVERLAP>
1045.943

> <PUBCHEM_SHAPE_VOLUME>
271

> <PUBCHEM_COORDINATE_TYPE>
2
5
10

$$$$
