7142828
  -OEChem-12032416293D

 52 56  0     1  0  0  0  0  0999 V2000
    9.2121    1.8862    0.4194 Cl  0  0  0  0  0  0  0  0  0  0  0  0
   -0.3068   -1.8722   -2.1232 O   0  0  0  0  0  0  0  0  0  0  0  0
    2.6630    0.0965    1.1353 O   0  0  0  0  0  0  0  0  0  0  0  0
   -4.2607    0.2695    0.1335 N   0  0  0  0  0  0  0  0  0  0  0  0
   -1.8635   -1.7850   -0.3826 N   0  0  0  0  0  0  0  0  0  0  0  0
   -4.1478    2.4514    1.0245 N   0  0  0  0  0  0  0  0  0  0  0  0
   -4.4012    2.1020   -1.3463 N   0  0  0  0  0  0  0  0  0  0  0  0
    1.8150   -1.3662   -0.4517 N   0  0  0  0  0  0  0  0  0  0  0  0
    4.0081   -0.7092   -0.6112 N   0  0  0  0  0  0  0  0  0  0  0  0
   -4.3808   -2.0498   -0.7591 C   0  0  1  0  0  0  0  0  0  0  0  0
   -3.5249   -1.6566    1.5063 C   0  0  2  0  0  0  0  0  0  0  0  0
   -4.4046   -2.5783    0.6677 C   0  0  0  0  0  0  0  0  0  0  0  0
   -4.9350   -0.6137   -0.8237 C   0  0  0  0  0  0  0  0  0  0  0  0
   -2.9495   -2.1452   -1.3021 C   0  0  0  0  0  0  0  0  0  0  0  0
   -4.1192   -0.2344    1.5076 C   0  0  0  0  0  0  0  0  0  0  0  0
   -2.1001   -1.6231    0.9854 C   0  0  0  0  0  0  0  0  0  0  0  0
   -1.0750   -1.4110    1.8279 C   0  0  0  0  0  0  0  0  0  0  0  0
   -0.5657   -1.7180   -0.9288 C   0  0  0  0  0  0  0  0  0  0  0  0
   -4.2705    1.6522   -0.0692 C   0  0  0  0  0  0  0  0  0  0  0  0
    0.5457   -1.4540    0.0393 C   0  0  0  0  0  0  0  0  0  0  0  0
    0.2732   -1.3234    1.3419 C   0  0  0  0  0  0  0  0  0  0  0  0
   -4.1605    3.7805    0.7925 C   0  0  0  0  0  0  0  0  0  0  0  0
   -4.4061    3.4417   -1.5055 C   0  0  0  0  0  0  0  0  0  0  0  0
    2.8254   -0.5859    0.1260 C   0  0  0  0  0  0  0  0  0  0  0  0
   -4.2884    4.3383   -0.4631 C   0  0  0  0  0  0  0  0  0  0  0  0
    5.2547   -0.0880   -0.3640 C   0  0  0  0  0  0  0  0  0  0  0  0
    6.3178   -0.3380   -1.2163 C   0  0  0  0  0  0  0  0  0  0  0  0
    5.3867    0.7580    0.7248 C   0  0  0  0  0  0  0  0  0  0  0  0
    7.5469    0.2750   -0.9730 C   0  0  0  0  0  0  0  0  0  0  0  0
    6.6159    1.3711    0.9683 C   0  0  0  0  0  0  0  0  0  0  0  0
    7.6959    1.1296    0.1194 C   0  0  0  0  0  0  0  0  0  0  0  0
   -5.0239   -2.6762   -1.3904 H   0  0  0  0  0  0  0  0  0  0  0  0
   -3.5278   -2.0307    2.5387 H   0  0  0  0  0  0  0  0  0  0  0  0
   -4.0339   -3.6103    0.7045 H   0  0  0  0  0  0  0  0  0  0  0  0
   -5.4301   -2.5904    1.0562 H   0  0  0  0  0  0  0  0  0  0  0  0
   -4.8278   -0.2527   -1.8535 H   0  0  0  0  0  0  0  0  0  0  0  0
   -6.0090   -0.6239   -0.5980 H   0  0  0  0  0  0  0  0  0  0  0  0
   -2.7543   -3.1860   -1.5953 H   0  0  0  0  0  0  0  0  0  0  0  0
   -2.8445   -1.5508   -2.2185 H   0  0  0  0  0  0  0  0  0  0  0  0
   -5.1031   -0.2383    1.9939 H   0  0  0  0  0  0  0  0  0  0  0  0
   -3.4627    0.4077    2.1089 H   0  0  0  0  0  0  0  0  0  0  0  0
   -1.2338   -1.2758    2.8928 H   0  0  0  0  0  0  0  0  0  0  0  0
    1.0264   -1.1905    2.1091 H   0  0  0  0  0  0  0  0  0  0  0  0
    1.9621   -1.6821   -1.4065 H   0  0  0  0  0  0  0  0  0  0  0  0
   -4.0618    4.4056    1.6735 H   0  0  0  0  0  0  0  0  0  0  0  0
   -4.5111    3.7863   -2.5287 H   0  0  0  0  0  0  0  0  0  0  0  0
   -4.2955    5.4084   -0.6201 H   0  0  0  0  0  0  0  0  0  0  0  0
    3.9762   -1.3207   -1.4232 H   0  0  0  0  0  0  0  0  0  0  0  0
    6.2123   -1.0017   -2.0700 H   0  0  0  0  0  0  0  0  0  0  0  0
    4.6008    0.9954    1.4262 H   0  0  0  0  0  0  0  0  0  0  0  0
    8.3797    0.0776   -1.6430 H   0  0  0  0  0  0  0  0  0  0  0  0
    6.7187    2.0351    1.8230 H   0  0  0  0  0  0  0  0  0  0  0  0
  1 31  1  0  0  0  0
  2 18  2  0  0  0  0
  3 24  2  0  0  0  0
  4 13  1  0  0  0  0
  4 15  1  0  0  0  0
  4 19  1  0  0  0  0
  5 14  1  0  0  0  0
  5 16  1  0  0  0  0
  5 18  1  0  0  0  0
  6 19  2  0  0  0  0
  6 22  1  0  0  0  0
  7 19  1  0  0  0  0
  7 23  2  0  0  0  0
  8 20  1  0  0  0  0
  8 24  1  0  0  0  0
  8 44  1  0  0  0  0
  9 24  1  0  0  0  0
  9 26  1  0  0  0  0
  9 48  1  0  0  0  0
 10 12  1  0  0  0  0
 10 13  1  0  0  0  0
 10 14  1  0  0  0  0
 10 32  1  0  0  0  0
 11 12  1  0  0  0  0
 11 15  1  0  0  0  0
 11 16  1  0  0  0  0
 11 33  1  0  0  0  0
 12 34  1  0  0  0  0
 12 35  1  0  0  0  0
 13 36  1  0  0  0  0
 13 37  1  0  0  0  0
 14 38  1  0  0  0  0
 14 39  1  0  0  0  0
 15 40  1  0  0  0  0
 15 41  1  0  0  0  0
 16 17  2  0  0  0  0
 17 21  1  0  0  0  0
 17 42  1  0  0  0  0
 18 20  1  0  0  0  0
 20 21  2  0  0  0  0
 21 43  1  0  0  0  0
 22 25  2  0  0  0  0
 22 45  1  0  0  0  0
 23 25  1  0  0  0  0
 23 46  1  0  0  0  0
 25 47  1  0  0  0  0
 26 27  2  0  0  0  0
 26 28  1  0  0  0  0
 27 29  1  0  0  0  0
 27 49  1  0  0  0  0
 28 30  2  0  0  0  0
 28 50  1  0  0  0  0
 29 31  2  0  0  0  0
 29 51  1  0  0  0  0
 30 31  1  0  0  0  0
 30 52  1  0  0  0  0
M  END
> <PUBCHEM_COMPOUND_CID>
7142828

> <PUBCHEM_CONFORMER_RMSD>
0.8

> <PUBCHEM_CONFORMER_DIVERSEORDER>
1
8
7
3
6
2
9
5
4
10

> <PUBCHEM_MMFF94_PARTIAL_CHARGES>
40
1 -0.18
11 0.14
13 0.37
14 0.3
15 0.37
16 -0.03
17 -0.15
18 0.62
19 0.72
2 -0.57
20 0.12
21 -0.15
22 0.16
23 0.16
24 0.69
25 -0.15
26 0.12
27 -0.15
28 -0.15
29 -0.15
3 -0.57
30 -0.15
31 0.18
4 -0.84
42 0.15
43 0.15
44 0.37
45 0.15
46 0.15
47 0.15
48 0.37
49 0.15
5 -0.47
50 0.15
51 0.15
52 0.15
6 -0.62
7 -0.62
8 -0.54
9 -0.55

> <PUBCHEM_EFFECTIVE_ROTOR_COUNT>
6

> <PUBCHEM_PHARMACOPHORE_FEATURES>
11
1 2 acceptor
1 3 acceptor
1 7 acceptor
1 8 donor
1 9 donor
4 4 6 7 19 cation
6 26 27 28 29 30 31 rings
6 4 10 11 12 13 15 rings
6 5 10 11 12 14 16 rings
6 5 16 17 18 20 21 rings
6 6 7 19 22 23 25 rings

> <PUBCHEM_HEAVY_ATOM_COUNT>
31

> <PUBCHEM_ATOM_DEF_STEREO_COUNT>
2

> <PUBCHEM_ATOM_UDEF_STEREO_COUNT>
0

> <PUBCHEM_BOND_DEF_STEREO_COUNT>
0

> <PUBCHEM_BOND_UDEF_STEREO_COUNT>
0

> <PUBCHEM_ISOTOPIC_ATOM_COUNT>
0

> <PUBCHEM_COMPONENT_COUNT>
1

> <PUBCHEM_CACTVS_TAUTO_COUNT>
3

> <PUBCHEM_CONFORMER_ID>
006CFDAC00000001

> <PUBCHEM_MMFF94_ENERGY>
101.018

> <PUBCHEM_FEATURE_SELFOVERLAP>
57.43

> <PUBCHEM_SHAPE_FINGERPRINT>
100830 39 18411980269604369880
10087517 78 18260828206725502596
10165383 225 17561090207418158611
10291535 26 18334579049345354403
10369192 42 17916880032377377537
10554248 39 16773807961727746364
10670039 82 18411694409149266225
10930396 42 18187655730331579025
11135609 201 18267029345839656785
11135926 11 16702032958941833766
11477941 20 18200018664453965629
11578080 2 18199761241030686647
11607047 191 11387181719986013727
12988421 55 16877941620466040611
13257819 101 18272935985847227630
13690498 29 17488449952930598551
13726171 33 18198065785880103865
13782708 43 9727626199169435446
13911987 19 16988563489932263535
14068700 675 17170123788022884379
14118638 360 18333728018112443106
14251764 75 17906454321321209321
14347329 18 18270673169410786088
14598715 104 18272078423424721896
14904525 67 18188494692037982564
14950920 106 14274325573936426373
15163728 17 18197218045203251727
15183329 4 17203615904378822146
15328684 2 17968360296308643072
15348495 7 10881405352626330366
155225 5 18265614286278896252
15604295 49 18128530656659232648
15876981 60 18188775075606982175
16728433 281 18270412590337050760
19304152 47 17823146640071274545
19309040 13 17415283824108330109
21223535 225 18409162226056211836
21307412 95 10231457568755956081
21424621 283 18261110773367555626
21756936 100 18187081767032678714
21859007 373 18272640252323029064
21927370 108 18191880122757489875
22122407 14 18041853921183304680
22956985 138 17035583284809440995
23522609 53 16298972908631988270
23559900 14 15841268268267027858
23569914 2 17483911079217114480
2838139 119 18341045199275198276
3418910 222 17970645201155303764
3525247 154 18130499756887449808
392239 28 16008753523902567598
4015057 19 14907888431862885682
4112364 45 17244417496616840185
437795 83 18343861126106599828
44249763 50 18058996372390266840
44802255 64 18131350838657486174
484985 159 9367341527620511569
531348 171 18271807886785864367
54039377 194 12751231554257342781
6201320 215 18339917131048753344
636775 72 18336263544262286872
6376802 90 18341338829152717486
9953998 17 8214149559583982422

> <PUBCHEM_SHAPE_MULTIPOLES>
598.21
21.29
4.05
1.6
55.45
5.14
-0.03
14.28
-0.81
-9.47
-0.47
-0.95
-0.34
1.49

> <PUBCHEM_SHAPE_SELFOVERLAP>
1306.168

> <PUBCHEM_SHAPE_VOLUME>
320.1

> <PUBCHEM_COORDINATE_TYPE>
2
5
10

$$$$
