26744178
  -OEChem-12032416353D

 50 54  0     1  0  0  0  0  0999 V2000
    5.8387   -2.2967    1.4281 O   0  0  0  0  0  0  0  0  0  0  0  0
    1.4697   -1.4408   -2.1311 O   0  0  0  0  0  0  0  0  0  0  0  0
    1.0931    1.9503    1.0056 O   0  0  0  0  0  0  0  0  0  0  0  0
   -5.6262   -1.6760    0.7122 O   0  0  0  0  0  0  0  0  0  0  0  0
    3.3688    0.1452    0.5868 N   0  0  1  0  0  0  0  0  0  0  0  0
    0.7010   -1.0251   -0.0689 N   0  0  0  0  0  0  0  0  0  0  0  0
    0.0841   -1.6378   -2.1850 N   0  0  0  0  0  0  0  0  0  0  0  0
    3.2034   -0.8087   -0.5287 C   0  0  1  0  0  0  0  0  0  0  0  0
    3.9630   -2.0719   -0.0825 C   0  0  0  0  0  0  0  0  0  0  0  0
    4.5586   -1.7155    1.2739 C   0  0  2  0  0  0  0  0  0  0  0  0
    4.6278   -0.2005    1.2439 C   0  0  0  0  0  0  0  0  0  0  0  0
    3.3371    1.5382    0.1608 C   0  0  0  0  0  0  0  0  0  0  0  0
    1.7495   -1.0828   -0.8506 C   0  0  0  0  0  0  0  0  0  0  0  0
    1.9297    2.0244   -0.0622 C   0  0  0  0  0  0  0  0  0  0  0  0
    1.2795    2.5488   -1.1553 C   0  0  0  0  0  0  0  0  0  0  0  0
   -0.0508    2.8183   -0.7385 C   0  0  0  0  0  0  0  0  0  0  0  0
   -0.2970   -1.3736   -0.9317 C   0  0  0  0  0  0  0  0  0  0  0  0
   -0.1139    2.4332    0.5967 C   0  0  0  0  0  0  0  0  0  0  0  0
   -1.6657   -1.4501   -0.5091 C   0  0  0  0  0  0  0  0  0  0  0  0
   -1.2068    3.3443   -1.3413 C   0  0  0  0  0  0  0  0  0  0  0  0
   -1.2580    2.5348    1.3860 C   0  0  0  0  0  0  0  0  0  0  0  0
   -2.3734    3.4583   -0.5727 C   0  0  0  0  0  0  0  0  0  0  0  0
   -2.3959    3.0604    0.7665 C   0  0  0  0  0  0  0  0  0  0  0  0
   -2.0049   -1.1646    0.8135 C   0  0  0  0  0  0  0  0  0  0  0  0
   -2.6574   -1.8113   -1.4210 C   0  0  0  0  0  0  0  0  0  0  0  0
   -3.3356   -1.2405    1.2242 C   0  0  0  0  0  0  0  0  0  0  0  0
   -3.9883   -1.8874   -1.0104 C   0  0  0  0  0  0  0  0  0  0  0  0
   -4.3274   -1.6020    0.3122 C   0  0  0  0  0  0  0  0  0  0  0  0
   -5.9030   -1.3709    2.0784 C   0  0  0  0  0  0  0  0  0  0  0  0
    3.6945   -0.4320   -1.4369 H   0  0  0  0  0  0  0  0  0  0  0  0
    3.3213   -2.9562    0.0053 H   0  0  0  0  0  0  0  0  0  0  0  0
    4.7527   -2.3148   -0.8045 H   0  0  0  0  0  0  0  0  0  0  0  0
    3.9068   -2.0595    2.0864 H   0  0  0  0  0  0  0  0  0  0  0  0
    4.6958    0.2140    2.2552 H   0  0  0  0  0  0  0  0  0  0  0  0
    5.5053    0.1396    0.6780 H   0  0  0  0  0  0  0  0  0  0  0  0
    3.9508    1.7135   -0.7317 H   0  0  0  0  0  0  0  0  0  0  0  0
    3.7546    2.1757    0.9523 H   0  0  0  0  0  0  0  0  0  0  0  0
    5.7316   -3.2609    1.3624 H   0  0  0  0  0  0  0  0  0  0  0  0
    1.7085    2.7157   -2.1334 H   0  0  0  0  0  0  0  0  0  0  0  0
   -1.2044    3.6574   -2.3809 H   0  0  0  0  0  0  0  0  0  0  0  0
   -1.2683    2.2221    2.4233 H   0  0  0  0  0  0  0  0  0  0  0  0
   -3.2745    3.8625   -1.0270 H   0  0  0  0  0  0  0  0  0  0  0  0
   -3.3157    3.1593    1.3378 H   0  0  0  0  0  0  0  0  0  0  0  0
   -1.2539   -0.8810    1.5469 H   0  0  0  0  0  0  0  0  0  0  0  0
   -2.4313   -2.0406   -2.4593 H   0  0  0  0  0  0  0  0  0  0  0  0
   -3.5293   -1.0053    2.2651 H   0  0  0  0  0  0  0  0  0  0  0  0
   -4.7568   -2.1692   -1.7249 H   0  0  0  0  0  0  0  0  0  0  0  0
   -6.9830   -1.4797    2.2215 H   0  0  0  0  0  0  0  0  0  0  0  0
   -5.6519   -0.3318    2.3173 H   0  0  0  0  0  0  0  0  0  0  0  0
   -5.4173   -2.0816    2.7558 H   0  0  0  0  0  0  0  0  0  0  0  0
  1 10  1  0  0  0  0
  1 38  1  0  0  0  0
  2  7  1  0  0  0  0
  2 13  1  0  0  0  0
  3 14  1  0  0  0  0
  3 18  1  0  0  0  0
  4 28  1  0  0  0  0
  4 29  1  0  0  0  0
  5  8  1  0  0  0  0
  5 11  1  0  0  0  0
  5 12  1  0  0  0  0
  6 13  2  0  0  0  0
  6 17  1  0  0  0  0
  7 17  2  0  0  0  0
  8  9  1  0  0  0  0
  8 13  1  0  0  0  0
  8 30  1  0  0  0  0
  9 10  1  0  0  0  0
  9 31  1  0  0  0  0
  9 32  1  0  0  0  0
 10 11  1  0  0  0  0
 10 33  1  0  0  0  0
 11 34  1  0  0  0  0
 11 35  1  0  0  0  0
 12 14  1  0  0  0  0
 12 36  1  0  0  0  0
 12 37  1  0  0  0  0
 14 15  2  0  0  0  0
 15 16  1  0  0  0  0
 15 39  1  0  0  0  0
 16 18  1  0  0  0  0
 16 20  2  0  0  0  0
 17 19  1  0  0  0  0
 18 21  2  0  0  0  0
 19 24  2  0  0  0  0
 19 25  1  0  0  0  0
 20 22  1  0  0  0  0
 20 40  1  0  0  0  0
 21 23  1  0  0  0  0
 21 41  1  0  0  0  0
 22 23  2  0  0  0  0
 22 42  1  0  0  0  0
 23 43  1  0  0  0  0
 24 26  1  0  0  0  0
 24 44  1  0  0  0  0
 25 27  2  0  0  0  0
 25 45  1  0  0  0  0
 26 28  2  0  0  0  0
 26 46  1  0  0  0  0
 27 28  1  0  0  0  0
 27 47  1  0  0  0  0
 29 48  1  0  0  0  0
 29 49  1  0  0  0  0
 29 50  1  0  0  0  0
M  END
> <PUBCHEM_COMPOUND_CID>
26744178

> <PUBCHEM_CONFORMER_RMSD>
0.8

> <PUBCHEM_CONFORMER_DIVERSEORDER>
1
52
14
144
123
160
72
20
111
162
115
151
155
159
11
137
42
163
64
146
9
165
104
120
125
99
27
4
17
74
126
54
138
35
161
25
55
128
18
93
97
89
5
127
113
83
148
131
10
109
100
94
154
102
63
103
157
149
122
81
31
101
58
147
43
121
78
38
62
3
150
66
30
77
68
136
80
119
32
15
69
79
117
110
51
19
135
2
124
56
164
53
34
130
7
112
26
116
139
40
48
91
85
46
65
22
158
141
98
73
12
106
143
50
47
41
129
90
37
114
86
118
76
57
105
49
87
24
140
16
75
60
133
44
13
134
92
67
6
132
33
152
8
23
36
21
59
108
61
84
45
156
88
142
95
82
39
153
107
71
96
28
145
70
29

> <PUBCHEM_MMFF94_PARTIAL_CHARGES>
37
1 -0.68
10 0.28
11 0.27
12 0.45
13 0.3
14 -0.04
15 -0.15
17 0.46
18 0.14
19 0.05
2 -0.02
20 -0.15
21 -0.15
22 -0.15
23 -0.15
24 -0.15
25 -0.15
26 -0.15
27 -0.15
28 0.08
29 0.28
3 -0.28
38 0.4
39 0.15
4 -0.36
40 0.15
41 0.15
42 0.15
43 0.15
44 0.15
45 0.15
46 0.15
47 0.15
5 -0.81
6 -0.57
7 -0.41
8 0.45

> <PUBCHEM_EFFECTIVE_ROTOR_COUNT>
6

> <PUBCHEM_PHARMACOPHORE_FEATURES>
11
1 1 acceptor
1 1 donor
1 3 acceptor
1 4 acceptor
1 5 cation
3 6 7 17 cation
5 2 6 7 13 17 rings
5 3 14 15 16 18 rings
5 5 8 9 10 11 rings
6 16 18 20 21 22 23 rings
6 19 24 25 26 27 28 rings

> <PUBCHEM_HEAVY_ATOM_COUNT>
29

> <PUBCHEM_ATOM_DEF_STEREO_COUNT>
2

> <PUBCHEM_ATOM_UDEF_STEREO_COUNT>
0

> <PUBCHEM_BOND_DEF_STEREO_COUNT>
0

> <PUBCHEM_BOND_UDEF_STEREO_COUNT>
0

> <PUBCHEM_ISOTOPIC_ATOM_COUNT>
0

> <PUBCHEM_COMPONENT_COUNT>
1

> <PUBCHEM_CACTVS_TAUTO_COUNT>
1

> <PUBCHEM_CONFORMER_ID>
0198157200000001

> <PUBCHEM_MMFF94_ENERGY>
63.6482

> <PUBCHEM_FEATURE_SELFOVERLAP>
55.925

> <PUBCHEM_SHAPE_FINGERPRINT>
10190108 129 18336269050425697712
104564 63 18341901826239502244
10688039 33 18260546753555963717
11387372 6 17254255840868862090
12156800 1 18053136988863356389
12166972 35 17458351861581092215
12422481 6 18200607908133758953
12788726 201 18409172108343176850
13140716 1 18340481154622497096
13692114 37 17984152457475671969
13965767 371 17845930865897403626
14790565 3 17472697408711400268
14840074 17 18125722533314026104
15420108 30 17342651494435914292
17357779 13 18270665533053840213
17980427 23 17417527038086822287
21304253 335 17274000020202195427
21304304 249 17832982742011607356
21421861 104 18340216287777638448
22149856 69 16484757457477687291
22182313 1 17773881891980288574
24893992 56 18114178628581107789
3052486 1 18337123258731940084
469060 322 18042423356162504457
484985 159 17461983394085319402
513202 73 18267018363212849418
5283268 108 18411709797858637270
56638632 10 16555338449615040752
57527293 21 18191323593262808456
7064713 232 17346330305660534571

> <PUBCHEM_SHAPE_MULTIPOLES>
558.39
9.99
4.49
1.75
0.81
4.29
0.15
-9.7
-5.93
1.58
0.49
0.54
-0.55
-0.28

> <PUBCHEM_SHAPE_SELFOVERLAP>
1236.53

> <PUBCHEM_SHAPE_VOLUME>
303

> <PUBCHEM_COORDINATE_TYPE>
2
5
10

$$$$
