25313352
  -OEChem-12032416193D

 58 60  0     1  0  0  0  0  0999 V2000
    8.6960   -0.0104    0.9204 F   0  0  0  0  0  0  0  0  0  0  0  0
   -3.0240   -3.9706    1.2198 O   0  0  0  0  0  0  0  0  0  0  0  0
   -5.5619    3.9128    0.9997 O   0  0  0  0  0  0  0  0  0  0  0  0
   -6.7616    2.0270    0.5694 O   0  0  0  0  0  0  0  0  0  0  0  0
   -3.5882   -2.1871   -0.1579 N   0  0  0  0  0  0  0  0  0  0  0  0
    0.5186    0.7372   -0.7361 N   0  0  0  0  0  0  0  0  0  0  0  0
    3.3236    0.3956   -0.3184 N   0  0  0  0  0  0  0  0  0  0  0  0
   -3.2264    0.1230   -0.9982 C   0  0  2  0  0  0  0  0  0  0  0  0
   -4.4349    0.5834   -0.1436 C   0  0  1  0  0  0  0  0  0  0  0  0
   -3.3773   -1.3663   -1.3572 C   0  0  0  0  0  0  0  0  0  0  0  0
   -1.8647    0.3768   -0.3394 C   0  0  0  0  0  0  0  0  0  0  0  0
   -4.6494   -0.3334    1.0727 C   0  0  0  0  0  0  0  0  0  0  0  0
   -4.7413   -1.7984    0.6537 C   0  0  0  0  0  0  0  0  0  0  0  0
   -0.7709    0.5135   -1.3888 C   0  0  0  0  0  0  0  0  0  0  0  0
   -4.3398    2.0449    0.2933 C   0  0  0  0  0  0  0  0  0  0  0  0
    1.4855    1.3011   -1.6857 C   0  0  0  0  0  0  0  0  0  0  0  0
    1.0387   -0.5180   -0.1799 C   0  0  0  0  0  0  0  0  0  0  0  0
    2.8232    1.5927   -1.0012 C   0  0  0  0  0  0  0  0  0  0  0  0
    2.3607   -0.2864    0.5555 C   0  0  0  0  0  0  0  0  0  0  0  0
   -2.8096   -3.2805    0.2198 C   0  0  0  0  0  0  0  0  0  0  0  0
   -5.6919    2.6149    0.6225 C   0  0  0  0  0  0  0  0  0  0  0  0
    4.6834    0.2926   -0.0051 C   0  0  0  0  0  0  0  0  0  0  0  0
   -1.6377   -3.6148   -0.6680 C   0  0  0  0  0  0  0  0  0  0  0  0
    5.4270    1.4430    0.2583 C   0  0  0  0  0  0  0  0  0  0  0  0
    5.2953   -0.9599    0.0448 C   0  0  0  0  0  0  0  0  0  0  0  0
    6.7825    1.3411    0.5711 C   0  0  0  0  0  0  0  0  0  0  0  0
    6.6508   -1.0620    0.3576 C   0  0  0  0  0  0  0  0  0  0  0  0
    7.3944    0.0884    0.6207 C   0  0  0  0  0  0  0  0  0  0  0  0
   -3.2671    0.6953   -1.9355 H   0  0  0  0  0  0  0  0  0  0  0  0
   -5.3191    0.4727   -0.7889 H   0  0  0  0  0  0  0  0  0  0  0  0
   -4.2642   -1.5043   -1.9886 H   0  0  0  0  0  0  0  0  0  0  0  0
   -2.5284   -1.7147   -1.9467 H   0  0  0  0  0  0  0  0  0  0  0  0
   -1.6527   -0.4138    0.3858 H   0  0  0  0  0  0  0  0  0  0  0  0
   -1.8794    1.3098    0.2341 H   0  0  0  0  0  0  0  0  0  0  0  0
   -5.5619   -0.0619    1.6142 H   0  0  0  0  0  0  0  0  0  0  0  0
   -3.8157   -0.2144    1.7766 H   0  0  0  0  0  0  0  0  0  0  0  0
   -4.8238   -2.4309    1.5432 H   0  0  0  0  0  0  0  0  0  0  0  0
   -5.6398   -1.9679    0.0486 H   0  0  0  0  0  0  0  0  0  0  0  0
   -1.0220    1.3804   -2.0145 H   0  0  0  0  0  0  0  0  0  0  0  0
   -0.7306   -0.3541   -2.0579 H   0  0  0  0  0  0  0  0  0  0  0  0
   -3.7017    2.1540    1.1770 H   0  0  0  0  0  0  0  0  0  0  0  0
   -3.9280    2.6498   -0.5233 H   0  0  0  0  0  0  0  0  0  0  0  0
    1.1050    2.2432   -2.0990 H   0  0  0  0  0  0  0  0  0  0  0  0
    1.6446    0.6149   -2.5286 H   0  0  0  0  0  0  0  0  0  0  0  0
    1.1921   -1.2603   -0.9751 H   0  0  0  0  0  0  0  0  0  0  0  0
    0.3464   -0.9574    0.5445 H   0  0  0  0  0  0  0  0  0  0  0  0
    3.5317    1.9262   -1.7697 H   0  0  0  0  0  0  0  0  0  0  0  0
    2.6954    2.4091   -0.2786 H   0  0  0  0  0  0  0  0  0  0  0  0
    2.1922    0.3244    1.4520 H   0  0  0  0  0  0  0  0  0  0  0  0
    2.7367   -1.2588    0.8939 H   0  0  0  0  0  0  0  0  0  0  0  0
   -0.9506   -2.7686   -0.7286 H   0  0  0  0  0  0  0  0  0  0  0  0
   -1.9885   -3.8952   -1.6647 H   0  0  0  0  0  0  0  0  0  0  0  0
   -1.0926   -4.4649   -0.2462 H   0  0  0  0  0  0  0  0  0  0  0  0
   -6.4274    4.3172    1.2226 H   0  0  0  0  0  0  0  0  0  0  0  0
    4.9808    2.4332    0.2428 H   0  0  0  0  0  0  0  0  0  0  0  0
    4.7369   -1.8671   -0.1710 H   0  0  0  0  0  0  0  0  0  0  0  0
    7.3615    2.2361    0.7792 H   0  0  0  0  0  0  0  0  0  0  0  0
    7.1284   -2.0366    0.3932 H   0  0  0  0  0  0  0  0  0  0  0  0
  1 28  1  0  0  0  0
  2 20  2  0  0  0  0
  3 21  1  0  0  0  0
  3 54  1  0  0  0  0
  4 21  2  0  0  0  0
  5 10  1  0  0  0  0
  5 13  1  0  0  0  0
  5 20  1  0  0  0  0
  6 14  1  0  0  0  0
  6 16  1  0  0  0  0
  6 17  1  0  0  0  0
  7 18  1  0  0  0  0
  7 19  1  0  0  0  0
  7 22  1  0  0  0  0
  8  9  1  0  0  0  0
  8 10  1  0  0  0  0
  8 11  1  0  0  0  0
  8 29  1  0  0  0  0
  9 12  1  0  0  0  0
  9 15  1  0  0  0  0
  9 30  1  0  0  0  0
 10 31  1  0  0  0  0
 10 32  1  0  0  0  0
 11 14  1  0  0  0  0
 11 33  1  0  0  0  0
 11 34  1  0  0  0  0
 12 13  1  0  0  0  0
 12 35  1  0  0  0  0
 12 36  1  0  0  0  0
 13 37  1  0  0  0  0
 13 38  1  0  0  0  0
 14 39  1  0  0  0  0
 14 40  1  0  0  0  0
 15 21  1  0  0  0  0
 15 41  1  0  0  0  0
 15 42  1  0  0  0  0
 16 18  1  0  0  0  0
 16 43  1  0  0  0  0
 16 44  1  0  0  0  0
 17 19  1  0  0  0  0
 17 45  1  0  0  0  0
 17 46  1  0  0  0  0
 18 47  1  0  0  0  0
 18 48  1  0  0  0  0
 19 49  1  0  0  0  0
 19 50  1  0  0  0  0
 20 23  1  0  0  0  0
 22 24  2  0  0  0  0
 22 25  1  0  0  0  0
 23 51  1  0  0  0  0
 23 52  1  0  0  0  0
 23 53  1  0  0  0  0
 24 26  1  0  0  0  0
 24 55  1  0  0  0  0
 25 27  2  0  0  0  0
 25 56  1  0  0  0  0
 26 28  2  0  0  0  0
 26 57  1  0  0  0  0
 27 28  1  0  0  0  0
 27 58  1  0  0  0  0
M  END
> <PUBCHEM_COMPOUND_CID>
25313352

> <PUBCHEM_CONFORMER_RMSD>
1

> <PUBCHEM_CONFORMER_DIVERSEORDER>
1
44
67
16
26
19
58
49
73
68
61
18
56
41
57
22
66
60
46
74
36
13
45
59
82
28
85
4
75
12
8
30
65
54
32
64
86
63
52
31
84
51
43
20
83
69
81
35
55
62
17
34
9
40
48
70
37
7
71
21
14
50
2
10
76
11
27
80
33
77
25
3
47
72
53
39
42
24
78
79
15
6
29
38
23
5

> <PUBCHEM_MMFF94_PARTIAL_CHARGES>
29
1 -0.19
10 0.3
13 0.3
14 0.27
15 0.06
16 0.27
17 0.27
18 0.37
19 0.37
2 -0.57
20 0.57
21 0.66
22 0.1
23 0.06
24 -0.15
25 -0.15
26 -0.15
27 -0.15
28 0.19
3 -0.65
4 -0.57
5 -0.66
54 0.5
55 0.15
56 0.15
57 0.15
58 0.15
6 -0.81
7 -0.84

> <PUBCHEM_EFFECTIVE_ROTOR_COUNT>
9.4

> <PUBCHEM_PHARMACOPHORE_FEATURES>
9
1 2 acceptor
1 3 acceptor
1 4 acceptor
1 6 cation
1 7 cation
3 3 4 21 anion
6 22 24 25 26 27 28 rings
6 5 8 9 10 12 13 rings
6 6 7 16 17 18 19 rings

> <PUBCHEM_HEAVY_ATOM_COUNT>
28

> <PUBCHEM_ATOM_DEF_STEREO_COUNT>
2

> <PUBCHEM_ATOM_UDEF_STEREO_COUNT>
0

> <PUBCHEM_BOND_DEF_STEREO_COUNT>
0

> <PUBCHEM_BOND_UDEF_STEREO_COUNT>
0

> <PUBCHEM_ISOTOPIC_ATOM_COUNT>
0

> <PUBCHEM_COMPONENT_COUNT>
1

> <PUBCHEM_CACTVS_TAUTO_COUNT>
1

> <PUBCHEM_CONFORMER_ID>
0182404800000001

> <PUBCHEM_MMFF94_ENERGY>
71.5022

> <PUBCHEM_FEATURE_SELFOVERLAP>
45.731

> <PUBCHEM_SHAPE_FINGERPRINT>
10554248 39 13901915514406181752
11315181 36 18334572473454927653
12107183 9 18334579018621395052
12422481 6 18341895216891644910
12616971 3 17240768401853826620
13540713 5 17751656565245973717
13668630 136 13045942366286484832
13673619 4 12757162276848779445
13782708 43 13045943504009966392
14844126 61 18267868457578790491
14849402 71 18116157851884692356
15021287 119 17167865278741814988
15142383 8 17703785891538187312
15183329 4 17822560699358234970
15326921 28 18118105984245846517
15348495 7 18341610468922708656
15461852 350 17275096254400815749
15537594 2 17312816057284651274
16110190 28 18261112988879493014
16994733 274 16271377275930742065
17093844 174 17846210072835794536
17780758 139 18408321111959997341
17844677 252 18341053033533195828
18927931 339 15285352925392931197
21033648 29 17702929423039534416
21130935 74 18409443714028601010
21150785 3 9727626211880744380
21315763 191 18260551147312509702
21403212 168 18041561339700520765
21756936 100 18343298159241704591
220451 1 17967811635716247310
229767 44 18334581218045382549
23522609 53 17751103429889416588
23559900 14 18191292986861529285
24771293 8 18042402595119492188
255183 451 8717098013450274513
312425 54 18409724059090938760
3383291 50 18335143137581848931
3633792 109 18189037756281241039
3663271 9 18410008866967825192
397830 11 18057313097756282064
4073 2 18409730686289046226
4938544 92 18343301474719112701
5104073 3 18336254739425784544
5364581 5 18056189421973183520
559249 180 18259981595957671287
58260988 114 16733559333407420875
6009941 240 18343582928236843632
68570916 9 18189054351940459204
7226269 152 17917994940940956265
9953998 17 18410005546820929248

> <PUBCHEM_SHAPE_MULTIPOLES>
536.4
20.59
3.69
1.19
30.09
1.88
0.26
-7.49
-8.13
-8.49
-0.91
-0.49
-0.08
-1.11

> <PUBCHEM_SHAPE_SELFOVERLAP>
1110.914

> <PUBCHEM_SHAPE_VOLUME>
305.8

> <PUBCHEM_COORDINATE_TYPE>
2
5
10

$$$$
