38345773
  -OEChem-12032416133D

 52 57  0     1  0  0  0  0  0999 V2000
   -3.1074    0.8261    2.1668 O   0  0  0  0  0  0  0  0  0  0  0  0
   -4.1531    2.1953   -0.4119 O   0  0  0  0  0  0  0  0  0  0  0  0
    1.0034    0.9534    0.4394 O   0  0  0  0  0  0  0  0  0  0  0  0
   -5.2539   -1.0325    0.9707 N   0  0  0  0  0  0  0  0  0  0  0  0
   -0.9505    1.5667   -0.7608 N   0  0  0  0  0  0  0  0  0  0  0  0
   -1.3242    1.6554   -2.0449 N   0  0  0  0  0  0  0  0  0  0  0  0
    0.7898    0.9615   -1.9042 N   0  0  0  0  0  0  0  0  0  0  0  0
   -0.2556    1.2844   -2.7396 N   0  0  0  0  0  0  0  0  0  0  0  0
    6.2920   -0.8015    0.2039 N   0  0  0  0  0  0  0  0  0  0  0  0
    7.3204    0.0580    0.1428 N   0  0  0  0  0  0  0  0  0  0  0  0
    8.0376   -2.1140    0.1297 N   0  0  0  0  0  0  0  0  0  0  0  0
   -4.0071    0.8165   -0.0311 C   0  0  1  0  0  0  0  0  0  0  0  0
   -2.7315    0.7072    0.7811 C   0  0  1  0  0  0  0  0  0  0  0  0
   -5.1007    0.4202    0.9363 C   0  0  2  0  0  0  0  0  0  0  0  0
   -6.3513   -2.9619   -0.0309 C   0  0  0  0  0  0  0  0  0  0  0  0
   -1.9103    1.9139    0.3623 C   0  0  2  0  0  0  0  0  0  0  0  0
   -5.2991   -3.8258   -0.6619 C   0  0  0  0  0  0  0  0  0  0  0  0
   -6.6440   -3.6857   -1.3125 C   0  0  0  0  0  0  0  0  0  0  0  0
   -6.1871   -1.4768   -0.0530 C   0  0  0  0  0  0  0  0  0  0  0  0
   -4.5374    0.9082    2.2614 C   0  0  0  0  0  0  0  0  0  0  0  0
   -2.9956    2.9288    0.0131 C   0  0  0  0  0  0  0  0  0  0  0  0
    0.3380    1.1433   -0.6847 C   0  0  0  0  0  0  0  0  0  0  0  0
    2.3352    0.5115    0.3805 C   0  0  0  0  0  0  0  0  0  0  0  0
    2.6174   -0.8546    0.3818 C   0  0  0  0  0  0  0  0  0  0  0  0
    3.3757    1.4387    0.3208 C   0  0  0  0  0  0  0  0  0  0  0  0
    3.9400   -1.2935    0.3234 C   0  0  0  0  0  0  0  0  0  0  0  0
    4.6983    0.9997    0.2625 C   0  0  0  0  0  0  0  0  0  0  0  0
    4.9806   -0.3664    0.2636 C   0  0  0  0  0  0  0  0  0  0  0  0
    6.7268   -2.0903    0.1955 C   0  0  0  0  0  0  0  0  0  0  0  0
    8.3535   -0.7859    0.0998 C   0  0  0  0  0  0  0  0  0  0  0  0
   -3.9740    0.2344   -0.9572 H   0  0  0  0  0  0  0  0  0  0  0  0
   -2.2232   -0.2544    0.6585 H   0  0  0  0  0  0  0  0  0  0  0  0
   -6.0589    0.9198    0.7510 H   0  0  0  0  0  0  0  0  0  0  0  0
   -6.8315   -3.3223    0.8710 H   0  0  0  0  0  0  0  0  0  0  0  0
   -1.2649    2.3027    1.1583 H   0  0  0  0  0  0  0  0  0  0  0  0
   -5.0668   -4.7686   -0.1817 H   0  0  0  0  0  0  0  0  0  0  0  0
   -4.4546   -3.3505   -1.1457 H   0  0  0  0  0  0  0  0  0  0  0  0
   -6.7017   -3.1181   -2.2330 H   0  0  0  0  0  0  0  0  0  0  0  0
   -7.3153   -4.5348   -1.2695 H   0  0  0  0  0  0  0  0  0  0  0  0
   -7.1740   -1.0266    0.1114 H   0  0  0  0  0  0  0  0  0  0  0  0
   -5.8468   -1.1534   -1.0440 H   0  0  0  0  0  0  0  0  0  0  0  0
   -4.7945    1.9610    2.4269 H   0  0  0  0  0  0  0  0  0  0  0  0
   -4.8799    0.3461    3.1361 H   0  0  0  0  0  0  0  0  0  0  0  0
   -5.6179   -1.3154    1.8808 H   0  0  0  0  0  0  0  0  0  0  0  0
   -3.2855    3.5016    0.9010 H   0  0  0  0  0  0  0  0  0  0  0  0
   -2.7057    3.6378   -0.7677 H   0  0  0  0  0  0  0  0  0  0  0  0
    1.8106   -1.5809    0.4290 H   0  0  0  0  0  0  0  0  0  0  0  0
    3.1618    2.5040    0.3204 H   0  0  0  0  0  0  0  0  0  0  0  0
    4.1001   -2.3665    0.3274 H   0  0  0  0  0  0  0  0  0  0  0  0
    5.4797    1.7539    0.2170 H   0  0  0  0  0  0  0  0  0  0  0  0
    6.1027   -2.9718    0.2361 H   0  0  0  0  0  0  0  0  0  0  0  0
    9.3685   -0.4215    0.0448 H   0  0  0  0  0  0  0  0  0  0  0  0
  1 13  1  0  0  0  0
  1 20  1  0  0  0  0
  2 12  1  0  0  0  0
  2 21  1  0  0  0  0
  3 22  1  0  0  0  0
  3 23  1  0  0  0  0
  4 14  1  0  0  0  0
  4 19  1  0  0  0  0
  4 44  1  0  0  0  0
  5  6  1  0  0  0  0
  5 16  1  0  0  0  0
  5 22  1  0  0  0  0
  6  8  2  0  0  0  0
  7  8  1  0  0  0  0
  7 22  2  0  0  0  0
  9 10  1  0  0  0  0
  9 28  1  0  0  0  0
  9 29  1  0  0  0  0
 10 30  2  0  0  0  0
 11 29  2  0  0  0  0
 11 30  1  0  0  0  0
 12 13  1  0  0  0  0
 12 14  1  0  0  0  0
 12 31  1  0  0  0  0
 13 16  1  0  0  0  0
 13 32  1  0  0  0  0
 14 20  1  0  0  0  0
 14 33  1  0  0  0  0
 15 17  1  0  0  0  0
 15 18  1  0  0  0  0
 15 19  1  0  0  0  0
 15 34  1  0  0  0  0
 16 21  1  0  0  0  0
 16 35  1  0  0  0  0
 17 18  1  0  0  0  0
 17 36  1  0  0  0  0
 17 37  1  0  0  0  0
 18 38  1  0  0  0  0
 18 39  1  0  0  0  0
 19 40  1  0  0  0  0
 19 41  1  0  0  0  0
 20 42  1  0  0  0  0
 20 43  1  0  0  0  0
 21 45  1  0  0  0  0
 21 46  1  0  0  0  0
 23 24  2  0  0  0  0
 23 25  1  0  0  0  0
 24 26  1  0  0  0  0
 24 47  1  0  0  0  0
 25 27  2  0  0  0  0
 25 48  1  0  0  0  0
 26 28  2  0  0  0  0
 26 49  1  0  0  0  0
 27 28  1  0  0  0  0
 27 50  1  0  0  0  0
 29 51  1  0  0  0  0
 30 52  1  0  0  0  0
M  END
> <PUBCHEM_COMPOUND_CID>
38345773

> <PUBCHEM_CONFORMER_RMSD>
1

> <PUBCHEM_CONFORMER_DIVERSEORDER>
1
20
34
58
44
46
38
55
48
3
83
22
49
80
40
45
33
84
9
61
36
68
8
56
37
18
57
27
73
28
71
14
19
41
59
29
11
70
54
35
10
63
77
52
23
39
4
74
31
26
53
67
25
79
78
65
82
5
42
13
69
6
7
76
47
15
30
51
24
75
72
64
62
81
17
21
2
50
43
12
66
60
32
16

> <PUBCHEM_MMFF94_PARTIAL_CHARGES>
41
1 -0.56
10 -0.71
11 -0.57
12 0.28
13 0.28
14 0.27
15 -0.19
16 0.26
17 -0.2
18 -0.2
19 0.37
2 -0.56
20 0.28
21 0.28
22 0.25
23 0.08
24 -0.15
25 -0.15
26 -0.15
27 -0.15
28 -0.02
29 0.04
3 -0.15
30 0.37
34 0.1
36 0.1
37 0.1
38 0.1
39 0.1
4 -0.9
44 0.36
47 0.15
48 0.15
49 0.15
5 0.31
50 0.15
51 0.15
52 0.15
6 -0.42
7 -0.34
9 0.59

> <PUBCHEM_EFFECTIVE_ROTOR_COUNT>
8.8

> <PUBCHEM_PHARMACOPHORE_FEATURES>
12
1 1 acceptor
1 2 acceptor
1 4 cation
1 4 donor
3 10 11 30 cation
3 5 7 22 cation
3 9 11 29 cation
5 1 12 13 14 20 rings
5 2 12 13 16 21 rings
5 5 6 7 8 22 rings
5 9 10 11 29 30 rings
6 23 24 25 26 27 28 rings

> <PUBCHEM_HEAVY_ATOM_COUNT>
30

> <PUBCHEM_ATOM_DEF_STEREO_COUNT>
4

> <PUBCHEM_ATOM_UDEF_STEREO_COUNT>
0

> <PUBCHEM_BOND_DEF_STEREO_COUNT>
0

> <PUBCHEM_BOND_UDEF_STEREO_COUNT>
0

> <PUBCHEM_ISOTOPIC_ATOM_COUNT>
0

> <PUBCHEM_COMPONENT_COUNT>
1

> <PUBCHEM_CACTVS_TAUTO_COUNT>
1

> <PUBCHEM_CONFORMER_ID>
02491C2D00000001

> <PUBCHEM_MMFF94_ENERGY>
75.446

> <PUBCHEM_FEATURE_SELFOVERLAP>
64.354

> <PUBCHEM_SHAPE_FINGERPRINT>
11135609 99 18271524298901021871
11200772 71 11169899598668138287
11315181 36 18260833652733971489
11475781 23 10737278018551545882
11497681 19 18335138743391597612
12522641 126 18043255828610758524
12596602 18 18131634508230239297
12838863 1 17774150366719482727
1361 4 18339078182249629970
13782708 43 18040715823621628232
13914758 101 8502657009056468748
14068700 675 18409730698952414921
14344974 204 18201721794543380159
14556957 393 14707786000036632430
14671636 106 18341050817620234414
14950920 106 17989490736229633833
15021287 119 17489296469921233488
15361156 5 17676776378852060708
16120349 67 10809611607356700207
16126227 98 8790614723457447087
16992727 255 10809332334928592287
16994733 274 8646774374222081006
17324776 126 17770484645965012767
17913733 40 14404915695232560709
19304152 47 14476696182402703307
19438510 23 10591771995394908791
20028762 73 18412262861035583986
20771845 35 18127958910116683081
208703 8 18337946926407695347
21095123 145 18408324377021359070
21130935 74 18272369733892377418
21623969 137 18340771417407932046
21756936 100 13758064169680218821
21792938 324 9117300896715573342
23389318 12 18041000695991407574
23522609 53 18122378798084683408
23559900 14 18186517679019035960
328310 18 11530478913822010319
397830 11 18201709696120764104
406291 66 18268146629815633039
4339292 15 17749661931838439746
45377200 153 18272944830003327430
4760202 70 18265900353202614876
5385378 56 13470417647372348236
5718773 13 18340484568941941371
5969126 39 17385438804293712380
6691757 9 14836111161607741884
7226269 152 12751230372982911834
96874 4 18269833284957963519
9953998 17 18060140925466670379

> <PUBCHEM_SHAPE_MULTIPOLES>
559.93
22.56
3.55
1.55
27.53
3.02
0.48
21.98
-3.27
-7.3
0.95
-1.94
-0.75
-1.97

> <PUBCHEM_SHAPE_SELFOVERLAP>
1224.374

> <PUBCHEM_SHAPE_VOLUME>
305.8

> <PUBCHEM_COORDINATE_TYPE>
2
5
10

$$$$
