11887578
  -OEChem-12032416133D

 65 66  0     1  0  0  0  0  0999 V2000
    4.5175    2.8164    0.7615 S   0  0  0  0  0  0  0  0  0  0  0  0
    3.5651    3.8524    1.0953 O   0  0  0  0  0  0  0  0  0  0  0  0
    5.5571    3.0262   -0.2218 O   0  0  0  0  0  0  0  0  0  0  0  0
    1.3475    0.4191   -1.7461 O   0  0  0  0  0  0  0  0  0  0  0  0
    0.7296   -2.6454    0.8070 O   0  0  0  0  0  0  0  0  0  0  0  0
   -2.7686    3.4387   -1.6328 O   0  0  0  0  0  0  0  0  0  0  0  0
   -1.9031    3.1917    0.4834 O   0  0  0  0  0  0  0  0  0  0  0  0
   -5.7361   -1.7302    1.9431 O   0  0  0  0  0  0  0  0  0  0  0  0
    3.6600    1.3892    0.3599 N   0  0  2  0  0  0  0  0  0  0  0  0
    2.3993   -1.1733    0.1307 N   0  0  0  0  0  0  0  0  0  0  0  0
   -0.3383    1.0561   -0.2726 N   0  0  0  0  0  0  0  0  0  0  0  0
    2.4908   -3.4793   -0.4053 N   0  0  0  0  0  0  0  0  0  0  0  0
    1.6294   -0.0089    0.5882 C   0  0  1  0  0  0  0  0  0  0  0  0
    2.4820    1.0859    1.2219 C   0  0  0  0  0  0  0  0  0  0  0  0
    4.4949    0.1765    0.1547 C   0  0  0  0  0  0  0  0  0  0  0  0
    3.6727   -0.8921   -0.5555 C   0  0  0  0  0  0  0  0  0  0  0  0
    0.8814    0.4966   -0.6124 C   0  0  0  0  0  0  0  0  0  0  0  0
    1.7999   -2.4484    0.2223 C   0  0  0  0  0  0  0  0  0  0  0  0
   -1.2398    1.6353   -1.2421 C   0  0  1  0  0  0  0  0  0  0  0  0
    5.2856    2.2717    2.2652 C   0  0  0  0  0  0  0  0  0  0  0  0
   -2.1913    0.5781   -1.8215 C   0  0  0  0  0  0  0  0  0  0  0  0
    2.0020   -4.8400   -0.4128 C   0  0  0  0  0  0  0  0  0  0  0  0
   -1.9924    2.8379   -0.6879 C   0  0  0  0  0  0  0  0  0  0  0  0
   -3.1376   -0.0387   -0.8163 C   0  0  0  0  0  0  0  0  0  0  0  0
    1.0770   -5.0692   -1.6017 C   0  0  0  0  0  0  0  0  0  0  0  0
    3.1671   -5.8210   -0.4228 C   0  0  0  0  0  0  0  0  0  0  0  0
   -2.7616   -1.1847   -0.1154 C   0  0  0  0  0  0  0  0  0  0  0  0
   -4.3870    0.5386   -0.5901 C   0  0  0  0  0  0  0  0  0  0  0  0
   -3.6348   -1.7531    0.8117 C   0  0  0  0  0  0  0  0  0  0  0  0
   -5.2604   -0.0299    0.3370 C   0  0  0  0  0  0  0  0  0  0  0  0
   -4.8844   -1.1757    1.0380 C   0  0  0  0  0  0  0  0  0  0  0  0
   -3.5259    4.5687   -1.1881 C   0  0  0  0  0  0  0  0  0  0  0  0
   -6.9976   -1.0889    2.1253 C   0  0  0  0  0  0  0  0  0  0  0  0
    0.8987   -0.3439    1.3345 H   0  0  0  0  0  0  0  0  0  0  0  0
    1.8756    1.9862    1.3652 H   0  0  0  0  0  0  0  0  0  0  0  0
    2.8273    0.7430    2.2036 H   0  0  0  0  0  0  0  0  0  0  0  0
    4.8336   -0.2152    1.1202 H   0  0  0  0  0  0  0  0  0  0  0  0
    5.3729    0.4110   -0.4554 H   0  0  0  0  0  0  0  0  0  0  0  0
    4.2953   -1.7886   -0.5982 H   0  0  0  0  0  0  0  0  0  0  0  0
    3.4603   -0.6047   -1.5891 H   0  0  0  0  0  0  0  0  0  0  0  0
   -0.6258    1.0670    0.7018 H   0  0  0  0  0  0  0  0  0  0  0  0
   -0.6189    2.0227   -2.0605 H   0  0  0  0  0  0  0  0  0  0  0  0
    5.9931    1.4680    2.0604 H   0  0  0  0  0  0  0  0  0  0  0  0
    4.5303    1.9720    2.9913 H   0  0  0  0  0  0  0  0  0  0  0  0
    5.8384    3.1243    2.6700 H   0  0  0  0  0  0  0  0  0  0  0  0
    3.2541   -3.2736   -1.0367 H   0  0  0  0  0  0  0  0  0  0  0  0
   -2.7832    1.0131   -2.6378 H   0  0  0  0  0  0  0  0  0  0  0  0
   -1.6065   -0.2251   -2.2906 H   0  0  0  0  0  0  0  0  0  0  0  0
    1.4262   -5.0051    0.5059 H   0  0  0  0  0  0  0  0  0  0  0  0
    1.6005   -4.9009   -2.5495 H   0  0  0  0  0  0  0  0  0  0  0  0
    0.2229   -4.3838   -1.5722 H   0  0  0  0  0  0  0  0  0  0  0  0
    0.6880   -6.0927   -1.6035 H   0  0  0  0  0  0  0  0  0  0  0  0
    3.7831   -5.6989   -1.3207 H   0  0  0  0  0  0  0  0  0  0  0  0
    3.8158   -5.6615    0.4456 H   0  0  0  0  0  0  0  0  0  0  0  0
    2.8090   -6.8553   -0.3929 H   0  0  0  0  0  0  0  0  0  0  0  0
   -1.7925   -1.6459   -0.2845 H   0  0  0  0  0  0  0  0  0  0  0  0
   -4.6971    1.4267   -1.1338 H   0  0  0  0  0  0  0  0  0  0  0  0
   -3.3363   -2.6458    1.3544 H   0  0  0  0  0  0  0  0  0  0  0  0
   -6.2155    0.4687    0.4625 H   0  0  0  0  0  0  0  0  0  0  0  0
   -4.2221    4.2708   -0.3982 H   0  0  0  0  0  0  0  0  0  0  0  0
   -2.8558    5.3589   -0.8362 H   0  0  0  0  0  0  0  0  0  0  0  0
   -4.1005    4.9480   -2.0372 H   0  0  0  0  0  0  0  0  0  0  0  0
   -6.8797   -0.0737    2.5190 H   0  0  0  0  0  0  0  0  0  0  0  0
   -7.5967   -1.1118    1.2086 H   0  0  0  0  0  0  0  0  0  0  0  0
   -7.5459   -1.6626    2.8797 H   0  0  0  0  0  0  0  0  0  0  0  0
  1  2  2  0  0  0  0
  1  3  2  0  0  0  0
  1  9  1  0  0  0  0
  1 20  1  0  0  0  0
  4 17  2  0  0  0  0
  5 18  2  0  0  0  0
  6 23  1  0  0  0  0
  6 32  1  0  0  0  0
  7 23  2  0  0  0  0
  8 31  1  0  0  0  0
  8 33  1  0  0  0  0
  9 14  1  0  0  0  0
  9 15  1  0  0  0  0
 10 13  1  0  0  0  0
 10 16  1  0  0  0  0
 10 18  1  0  0  0  0
 11 17  1  0  0  0  0
 11 19  1  0  0  0  0
 11 41  1  0  0  0  0
 12 18  1  0  0  0  0
 12 22  1  0  0  0  0
 12 46  1  0  0  0  0
 13 14  1  0  0  0  0
 13 17  1  0  0  0  0
 13 34  1  0  0  0  0
 14 35  1  0  0  0  0
 14 36  1  0  0  0  0
 15 16  1  0  0  0  0
 15 37  1  0  0  0  0
 15 38  1  0  0  0  0
 16 39  1  0  0  0  0
 16 40  1  0  0  0  0
 19 21  1  0  0  0  0
 19 23  1  0  0  0  0
 19 42  1  0  0  0  0
 20 43  1  0  0  0  0
 20 44  1  0  0  0  0
 20 45  1  0  0  0  0
 21 24  1  0  0  0  0
 21 47  1  0  0  0  0
 21 48  1  0  0  0  0
 22 25  1  0  0  0  0
 22 26  1  0  0  0  0
 22 49  1  0  0  0  0
 24 27  2  0  0  0  0
 24 28  1  0  0  0  0
 25 50  1  0  0  0  0
 25 51  1  0  0  0  0
 25 52  1  0  0  0  0
 26 53  1  0  0  0  0
 26 54  1  0  0  0  0
 26 55  1  0  0  0  0
 27 29  1  0  0  0  0
 27 56  1  0  0  0  0
 28 30  2  0  0  0  0
 28 57  1  0  0  0  0
 29 31  2  0  0  0  0
 29 58  1  0  0  0  0
 30 31  1  0  0  0  0
 30 59  1  0  0  0  0
 32 60  1  0  0  0  0
 32 61  1  0  0  0  0
 32 62  1  0  0  0  0
 33 63  1  0  0  0  0
 33 64  1  0  0  0  0
 33 65  1  0  0  0  0
M  END
> <PUBCHEM_COMPOUND_CID>
11887578

> <PUBCHEM_CONFORMER_RMSD>
1.2

> <PUBCHEM_CONFORMER_DIVERSEORDER>
1
48
22
52
107
115
102
100
58
109
89
125
34
73
128
75
20
123
60
80
103
82
135
50
68
56
23
131
136
132
101
62
96
111
9
51
121
15
40
5
126
26
37
98
112
94
29
120
138
117
71
65
139
25
84
114
10
97
36
133
119
33
2
129
87
43
41
18
79
127
64
78
49
38
81
130
99
85
105
55
46
104
118
92
83
106
72
88
63
116
12
76
30
54
53
32
61
95
66
93
67
21
59
74
137
19
39
24
47
86
70
113
77
14
45
108
57
13
11
42
124
91
31
44
69
90
3
28
27
4
134
122
35
110
7
17
8
16
6

> <PUBCHEM_MMFF94_PARTIAL_CHARGES>
37
1 1.33
10 -0.66
11 -0.73
12 -0.73
13 0.36
14 0.36
15 0.36
16 0.3
17 0.57
18 0.69
19 0.36
2 -0.65
20 0.11
21 0.14
22 0.3
23 0.66
24 -0.14
27 -0.15
28 -0.15
29 -0.15
3 -0.65
30 -0.15
31 0.08
32 0.28
33 0.28
4 -0.57
41 0.37
46 0.37
5 -0.57
56 0.15
57 0.15
58 0.15
59 0.15
6 -0.43
7 -0.57
8 -0.36
9 -0.85

> <PUBCHEM_EFFECTIVE_ROTOR_COUNT>
13.2

> <PUBCHEM_PHARMACOPHORE_FEATURES>
11
1 11 donor
1 12 donor
1 2 acceptor
1 3 acceptor
1 4 acceptor
1 5 acceptor
1 7 acceptor
1 8 acceptor
3 22 25 26 hydrophobe
6 24 27 28 29 30 31 rings
6 9 10 13 14 15 16 rings

> <PUBCHEM_HEAVY_ATOM_COUNT>
33

> <PUBCHEM_ATOM_DEF_STEREO_COUNT>
2

> <PUBCHEM_ATOM_UDEF_STEREO_COUNT>
0

> <PUBCHEM_BOND_DEF_STEREO_COUNT>
0

> <PUBCHEM_BOND_UDEF_STEREO_COUNT>
0

> <PUBCHEM_ISOTOPIC_ATOM_COUNT>
0

> <PUBCHEM_COMPONENT_COUNT>
1

> <PUBCHEM_CACTVS_TAUTO_COUNT>
4

> <PUBCHEM_CONFORMER_ID>
00B563DA00000001

> <PUBCHEM_MMFF94_ENERGY>
80.7218

> <PUBCHEM_FEATURE_SELFOVERLAP>
55.841

> <PUBCHEM_SHAPE_FINGERPRINT>
10074138 170 17691936660688884442
10290309 65 18411694383268757732
11488393 25 18337392630728908562
12166972 35 12179836238874586331
12202916 173 17969774379910305595
12596602 18 17703240619422308315
12633046 712 18049161060084951014
12930653 34 18336536149229230676
13540713 4 18189048699372613967
13583140 156 18269265772973573869
13757389 114 17906179803990291892
14068700 686 18335420162323263061
14178342 30 18041269972464906036
14363568 33 18269844129217727038
14863182 85 18262249918257583726
15219462 58 18338229358570932565
15351339 4 16389293046740230181
17349148 13 13768193966011886600
17909252 39 18264786384066359434
19319366 153 18130782403951199058
1979834 28 18335433408202688411
21033648 29 17913211150484533474
21133410 32 16666893610811322378
21365058 27 18197227042811609878
22440779 20 17033092503876124579
23559900 14 17980182103015956324
255183 313 18123743425178981418
3178227 256 18413111650269433538
3737641 26 18339089185507156979
392239 28 18267014140679372160
4015057 19 17836063603583775189
4461854 278 17905910406225273795
5104073 3 18334569110158301929
6004065 56 18047184435306535655
621550 34 18410577305330222883
6371380 46 17398098362417559333
6442390 28 18339918346439581808
6695519 79 18201148957637650521
6703917 75 18267602367396532292
7399639 24 18409726287466828110
9709674 26 18193267495244615639

> <PUBCHEM_SHAPE_MULTIPOLES>
621.96
12.86
7.13
1.71
9.21
6.57
0.34
-3.35
7.23
-7.3
-2.03
1.27
-0.36
5.07

> <PUBCHEM_SHAPE_SELFOVERLAP>
1259.192

> <PUBCHEM_SHAPE_VOLUME>
365.5

> <PUBCHEM_COORDINATE_TYPE>
2
5
10

$$$$
