26743460
  -OEChem-12032416193D

 46 49  0     1  0  0  0  0  0999 V2000
   -2.6064   -3.1590   -0.5740 S   0  0  0  0  0  0  0  0  0  0  0  0
    1.9615   -0.1664    0.1410 S   0  0  0  0  0  0  0  0  0  0  0  0
    7.7355    1.0060    0.3628 F   0  0  0  0  0  0  0  0  0  0  0  0
   -5.6253    3.2804    0.7765 O   0  0  0  0  0  0  0  0  0  0  0  0
   -1.8844   -0.1725   -2.2256 O   0  0  0  0  0  0  0  0  0  0  0  0
    1.7989   -1.5597   -0.2301 O   0  0  0  0  0  0  0  0  0  0  0  0
    1.3747    0.3429    1.3660 O   0  0  0  0  0  0  0  0  0  0  0  0
   -3.7594    0.2331    0.7189 N   0  0  1  0  0  0  0  0  0  0  0  0
   -1.0006    1.0319   -0.5568 N   0  0  0  0  0  0  0  0  0  0  0  0
   -0.4990   -0.1784   -2.4322 N   0  0  0  0  0  0  0  0  0  0  0  0
   -3.5327    0.7203   -0.6570 C   0  0  1  0  0  0  0  0  0  0  0  0
   -3.9908    2.1904   -0.6346 C   0  0  0  0  0  0  0  0  0  0  0  0
   -4.5003    2.4233    0.7823 C   0  0  2  0  0  0  0  0  0  0  0  0
   -4.8564    1.0299    1.2648 C   0  0  0  0  0  0  0  0  0  0  0  0
   -4.0346   -1.1963    0.7840 C   0  0  0  0  0  0  0  0  0  0  0  0
   -2.0941    0.5619   -1.1018 C   0  0  0  0  0  0  0  0  0  0  0  0
   -2.7745   -2.0148    0.6888 C   0  0  0  0  0  0  0  0  0  0  0  0
   -0.0482    0.5519   -1.4079 C   0  0  0  0  0  0  0  0  0  0  0  0
    1.3813    0.8179   -1.2126 C   0  0  0  0  0  0  0  0  0  0  0  0
   -1.6688   -1.9850    1.5101 C   0  0  0  0  0  0  0  0  0  0  0  0
   -0.6703   -2.9136    1.0968 C   0  0  0  0  0  0  0  0  0  0  0  0
   -1.0509   -3.6179   -0.0242 C   0  0  0  0  0  0  0  0  0  0  0  0
    3.6915    0.1849    0.2082 C   0  0  0  0  0  0  0  0  0  0  0  0
    4.1594    1.2392    0.9928 C   0  0  0  0  0  0  0  0  0  0  0  0
    4.5895   -0.5919   -0.5238 C   0  0  0  0  0  0  0  0  0  0  0  0
    5.5254    1.5164    1.0453 C   0  0  0  0  0  0  0  0  0  0  0  0
    5.9555   -0.3145   -0.4713 C   0  0  0  0  0  0  0  0  0  0  0  0
    6.4235    0.7396    0.3134 C   0  0  0  0  0  0  0  0  0  0  0  0
   -4.1817    0.1895   -1.3678 H   0  0  0  0  0  0  0  0  0  0  0  0
   -3.1916    2.9016   -0.8726 H   0  0  0  0  0  0  0  0  0  0  0  0
   -4.7919    2.3486   -1.3676 H   0  0  0  0  0  0  0  0  0  0  0  0
   -3.7154    2.8636    1.4094 H   0  0  0  0  0  0  0  0  0  0  0  0
   -4.8969    0.9866    2.3582 H   0  0  0  0  0  0  0  0  0  0  0  0
   -5.8358    0.7203    0.8763 H   0  0  0  0  0  0  0  0  0  0  0  0
   -4.7834   -1.5002    0.0410 H   0  0  0  0  0  0  0  0  0  0  0  0
   -4.4729   -1.4360    1.7633 H   0  0  0  0  0  0  0  0  0  0  0  0
   -5.3458    4.1266    0.3875 H   0  0  0  0  0  0  0  0  0  0  0  0
    1.5540    1.8699   -0.9680 H   0  0  0  0  0  0  0  0  0  0  0  0
    1.9670    0.5547   -2.0987 H   0  0  0  0  0  0  0  0  0  0  0  0
   -1.5758   -1.3316    2.3683 H   0  0  0  0  0  0  0  0  0  0  0  0
    0.2748   -3.0630    1.6021 H   0  0  0  0  0  0  0  0  0  0  0  0
   -0.4903   -4.3807   -0.5458 H   0  0  0  0  0  0  0  0  0  0  0  0
    3.4771    1.8614    1.5649 H   0  0  0  0  0  0  0  0  0  0  0  0
    4.2455   -1.4131   -1.1461 H   0  0  0  0  0  0  0  0  0  0  0  0
    5.8901    2.3381    1.6546 H   0  0  0  0  0  0  0  0  0  0  0  0
    6.6550   -0.9179   -1.0423 H   0  0  0  0  0  0  0  0  0  0  0  0
  1 17  1  0  0  0  0
  1 22  1  0  0  0  0
  2  6  2  0  0  0  0
  2  7  2  0  0  0  0
  2 19  1  0  0  0  0
  2 23  1  0  0  0  0
  3 28  1  0  0  0  0
  4 13  1  0  0  0  0
  4 37  1  0  0  0  0
  5 10  1  0  0  0  0
  5 16  1  0  0  0  0
  8 11  1  0  0  0  0
  8 14  1  0  0  0  0
  8 15  1  0  0  0  0
  9 16  2  0  0  0  0
  9 18  1  0  0  0  0
 10 18  2  0  0  0  0
 11 12  1  0  0  0  0
 11 16  1  0  0  0  0
 11 29  1  0  0  0  0
 12 13  1  0  0  0  0
 12 30  1  0  0  0  0
 12 31  1  0  0  0  0
 13 14  1  0  0  0  0
 13 32  1  0  0  0  0
 14 33  1  0  0  0  0
 14 34  1  0  0  0  0
 15 17  1  0  0  0  0
 15 35  1  0  0  0  0
 15 36  1  0  0  0  0
 17 20  2  0  0  0  0
 18 19  1  0  0  0  0
 19 38  1  0  0  0  0
 19 39  1  0  0  0  0
 20 21  1  0  0  0  0
 20 40  1  0  0  0  0
 21 22  2  0  0  0  0
 21 41  1  0  0  0  0
 22 42  1  0  0  0  0
 23 24  2  0  0  0  0
 23 25  1  0  0  0  0
 24 26  1  0  0  0  0
 24 43  1  0  0  0  0
 25 27  2  0  0  0  0
 25 44  1  0  0  0  0
 26 28  2  0  0  0  0
 26 45  1  0  0  0  0
 27 28  1  0  0  0  0
 27 46  1  0  0  0  0
M  END
> <PUBCHEM_COMPOUND_CID>
26743460

> <PUBCHEM_CONFORMER_RMSD>
1.2

> <PUBCHEM_CONFORMER_DIVERSEORDER>
1
106
90
89
129
46
118
7
109
47
26
35
98
110
11
83
86
37
76
21
135
51
74
132
123
117
97
71
64
36
40
57
55
100
131
130
61
41
139
10
125
113
63
101
27
140
96
53
50
2
6
105
54
85
58
20
78
111
143
29
24
62
34
17
103
99
14
133
137
112
15
144
68
81
48
12
30
77
88
70
116
38
128
91
19
65
31
94
9
145
84
136
32
8
102
60
120
142
87
134
39
4
13
69
93
127
49
95
56
126
67
108
5
75
22
121
3
114
72
92
79
122
33
82
138
18
107
45
44
59
115
66
42
52
73
124
28
43
104
23
80
16
119
25
141

> <PUBCHEM_MMFF94_PARTIAL_CHARGES>
35
1 -0.08
10 -0.41
11 0.45
13 0.28
14 0.27
15 0.45
16 0.3
17 -0.14
18 0.34
19 0.29
2 1.2
20 -0.15
21 -0.15
22 -0.11
23 -0.01
24 -0.15
25 -0.15
26 -0.15
27 -0.15
28 0.19
3 -0.19
37 0.4
4 -0.68
40 0.15
41 0.15
42 0.15
43 0.15
44 0.15
45 0.15
46 0.15
5 -0.02
6 -0.65
7 -0.65
8 -0.81
9 -0.57

> <PUBCHEM_EFFECTIVE_ROTOR_COUNT>
7

> <PUBCHEM_PHARMACOPHORE_FEATURES>
10
1 4 acceptor
1 4 donor
1 6 acceptor
1 7 acceptor
1 8 cation
3 9 10 18 cation
5 1 17 20 21 22 rings
5 5 9 10 16 18 rings
5 8 11 12 13 14 rings
6 23 24 25 26 27 28 rings

> <PUBCHEM_HEAVY_ATOM_COUNT>
28

> <PUBCHEM_ATOM_DEF_STEREO_COUNT>
2

> <PUBCHEM_ATOM_UDEF_STEREO_COUNT>
0

> <PUBCHEM_BOND_DEF_STEREO_COUNT>
0

> <PUBCHEM_BOND_UDEF_STEREO_COUNT>
0

> <PUBCHEM_ISOTOPIC_ATOM_COUNT>
0

> <PUBCHEM_COMPONENT_COUNT>
1

> <PUBCHEM_CACTVS_TAUTO_COUNT>
1

> <PUBCHEM_CONFORMER_ID>
019812A400000001

> <PUBCHEM_MMFF94_ENERGY>
36.5521

> <PUBCHEM_FEATURE_SELFOVERLAP>
50.764

> <PUBCHEM_SHAPE_FINGERPRINT>
10493431 412 18334860476707964479
10675989 125 15728913271674099125
11014199 57 17540260169440190530
11045977 3 18342174501202535784
11112241 14 18272375222211572743
11273773 46 18197789808931270590
11370993 144 18412263930729821422
11445158 3 14201695181511460862
11552529 35 18195239138504836818
1200032 147 16485584100867680921
12422481 6 17459188495229468330
12616971 3 16588025732276227676
12633257 1 18113623408097462653
13009979 54 17754182199564278155
13583140 156 17560521832213939762
14068700 675 18120930870372563999
14840074 17 16732989742706487526
14856354 85 18261679263417182940
15537594 2 17095518487887375408
17844677 252 18270120253102497240
18927931 339 15285351799916443976
19438510 23 17773609217534232801
20554085 129 18265905670498870437
20775438 99 9651007774923551681
21236236 1 18262513805701770030
21756936 100 18342449344427773448
23522609 53 17750254615798035500
3383291 50 18115312310094044251
3633792 109 18187911912071849133
4073 2 18411698816640156666
469060 322 16515400798158882107
5265222 85 18265634224175649310
5283173 99 18342176700183262488
5364581 5 18122619724570246664
59755656 520 18335698317616755594
7064713 232 18260274044317055039
9862522 239 17894904080403364047

> <PUBCHEM_SHAPE_MULTIPOLES>
538.23
14.28
3.36
1.59
22.85
1.97
0.54
-9.4
-4.23
-5.58
-0.74
-0.74
-0.09
0.29

> <PUBCHEM_SHAPE_SELFOVERLAP>
1136.88

> <PUBCHEM_SHAPE_VOLUME>
304.7

> <PUBCHEM_COORDINATE_TYPE>
2
5
10

$$$$
