75536689
  -OEChem-12032416313D

 46 48  0     1  0  0  0  0  0999 V2000
    4.4888   -1.3859    0.0119 S   0  0  0  0  0  0  0  0  0  0  0  0
    0.1352   -1.2586    1.3896 O   0  0  0  0  0  0  0  0  0  0  0  0
   -0.7067   -1.1116   -2.0997 O   0  0  0  0  0  0  0  0  0  0  0  0
    4.5100   -1.8939   -1.3465 O   0  0  0  0  0  0  0  0  0  0  0  0
    5.3295   -1.9880    1.0290 O   0  0  0  0  0  0  0  0  0  0  0  0
   -3.0026   -0.2365   -0.1403 N   0  0  0  0  0  0  0  0  0  0  0  0
    2.8835   -1.3458    0.5735 N   0  0  0  0  0  0  0  0  0  0  0  0
   -7.4726    0.4203   -0.9887 N   0  0  0  0  0  0  0  0  0  0  0  0
   -1.8292   -1.0693    0.0679 C   0  0  1  0  0  0  0  0  0  0  0  0
   -0.6308   -0.6519   -0.7643 C   0  0  1  0  0  0  0  0  0  0  0  0
    0.5043   -1.3179    0.0017 C   0  0  1  0  0  0  0  0  0  0  0  0
   -1.2694   -0.9611    1.4768 C   0  0  0  0  0  0  0  0  0  0  0  0
    1.8463   -0.6376   -0.2021 C   0  0  0  0  0  0  0  0  0  0  0  0
   -4.1978   -0.8666    0.4078 C   0  0  0  0  0  0  0  0  0  0  0  0
   -5.4211   -0.0103    0.2159 C   0  0  0  0  0  0  0  0  0  0  0  0
    4.8961    0.3334   -0.0430 C   0  0  0  0  0  0  0  0  0  0  0  0
   -5.6485    1.1039    1.0161 C   0  0  0  0  0  0  0  0  0  0  0  0
   -6.3552   -0.3067   -0.7636 C   0  0  0  0  0  0  0  0  0  0  0  0
    5.4537    0.9538    1.0749 C   0  0  0  0  0  0  0  0  0  0  0  0
    4.6561    1.0703   -1.2026 C   0  0  0  0  0  0  0  0  0  0  0  0
   -6.7869    1.8766    0.8151 C   0  0  0  0  0  0  0  0  0  0  0  0
    5.7716    2.3114    1.0331 C   0  0  0  0  0  0  0  0  0  0  0  0
    4.9738    2.4277   -1.2445 C   0  0  0  0  0  0  0  0  0  0  0  0
   -7.6598    1.4959   -0.1913 C   0  0  0  0  0  0  0  0  0  0  0  0
    5.5316    3.0484   -0.1266 C   0  0  0  0  0  0  0  0  0  0  0  0
   -2.0601   -2.1171   -0.1711 H   0  0  0  0  0  0  0  0  0  0  0  0
   -0.5162    0.4392   -0.7720 H   0  0  0  0  0  0  0  0  0  0  0  0
    0.5892   -2.3785   -0.2695 H   0  0  0  0  0  0  0  0  0  0  0  0
   -1.3597    0.0524    1.8845 H   0  0  0  0  0  0  0  0  0  0  0  0
   -1.7442   -1.6572    2.1749 H   0  0  0  0  0  0  0  0  0  0  0  0
    1.8071    0.3956    0.1606 H   0  0  0  0  0  0  0  0  0  0  0  0
    2.0967   -0.6345   -1.2671 H   0  0  0  0  0  0  0  0  0  0  0  0
   -3.1352   -0.0925   -1.1418 H   0  0  0  0  0  0  0  0  0  0  0  0
   -4.0827   -1.0537    1.4830 H   0  0  0  0  0  0  0  0  0  0  0  0
   -4.3648   -1.8449   -0.0615 H   0  0  0  0  0  0  0  0  0  0  0  0
   -0.8089   -2.0783   -2.0850 H   0  0  0  0  0  0  0  0  0  0  0  0
    2.7176   -1.4099    1.5857 H   0  0  0  0  0  0  0  0  0  0  0  0
   -4.9463    1.3786    1.7985 H   0  0  0  0  0  0  0  0  0  0  0  0
   -6.2335   -1.1617   -1.4215 H   0  0  0  0  0  0  0  0  0  0  0  0
    5.6417    0.4012    1.9910 H   0  0  0  0  0  0  0  0  0  0  0  0
    4.2200    0.6084   -2.0837 H   0  0  0  0  0  0  0  0  0  0  0  0
   -6.9847    2.7494    1.4268 H   0  0  0  0  0  0  0  0  0  0  0  0
    6.2040    2.7952    1.9041 H   0  0  0  0  0  0  0  0  0  0  0  0
    4.7862    3.0020   -2.1471 H   0  0  0  0  0  0  0  0  0  0  0  0
   -8.5622    2.0652   -0.3886 H   0  0  0  0  0  0  0  0  0  0  0  0
    5.7783    4.1056   -0.1590 H   0  0  0  0  0  0  0  0  0  0  0  0
  1  4  2  0  0  0  0
  1  5  2  0  0  0  0
  1  7  1  0  0  0  0
  1 16  1  0  0  0  0
  2 11  1  0  0  0  0
  2 12  1  0  0  0  0
  3 10  1  0  0  0  0
  3 36  1  0  0  0  0
  6  9  1  0  0  0  0
  6 14  1  0  0  0  0
  6 33  1  0  0  0  0
  7 13  1  0  0  0  0
  7 37  1  0  0  0  0
  8 18  1  0  0  0  0
  8 24  2  0  0  0  0
  9 10  1  0  0  0  0
  9 12  1  0  0  0  0
  9 26  1  0  0  0  0
 10 11  1  0  0  0  0
 10 27  1  0  0  0  0
 11 13  1  0  0  0  0
 11 28  1  0  0  0  0
 12 29  1  0  0  0  0
 12 30  1  0  0  0  0
 13 31  1  0  0  0  0
 13 32  1  0  0  0  0
 14 15  1  0  0  0  0
 14 34  1  0  0  0  0
 14 35  1  0  0  0  0
 15 17  1  0  0  0  0
 15 18  2  0  0  0  0
 16 19  2  0  0  0  0
 16 20  1  0  0  0  0
 17 21  2  0  0  0  0
 17 38  1  0  0  0  0
 18 39  1  0  0  0  0
 19 22  1  0  0  0  0
 19 40  1  0  0  0  0
 20 23  2  0  0  0  0
 20 41  1  0  0  0  0
 21 24  1  0  0  0  0
 21 42  1  0  0  0  0
 22 25  2  0  0  0  0
 22 43  1  0  0  0  0
 23 25  1  0  0  0  0
 23 44  1  0  0  0  0
 24 45  1  0  0  0  0
 25 46  1  0  0  0  0
M  END
> <PUBCHEM_COMPOUND_CID>
75536689

> <PUBCHEM_CONFORMER_RMSD>
1.2

> <PUBCHEM_CONFORMER_DIVERSEORDER>
1
150
89
67
99
40
120
86
31
57
18
126
51
32
22
63
33
92
28
110
138
49
3
135
9
87
125
84
15
108
29
88
100
11
35
109
140
104
136
97
39
5
75
45
25
128
52
103
2
23
77
38
117
46
26
148
149
41
54
144
131
74
71
85
65
6
123
106
132
50
134
20
137
37
64
113
68
30
80
4
121
44
53
59
73
107
43
78
116
55
93
90
61
70
66
141
8
21
47
24
36
91
145
76
119
13
27
10
143
14
146
115
139
130
42
17
142
111
94
129
19
96
118
83
102
62
48
16
101
122
127
7
72
79
81
95
98
82
12
124
60
147
112
69
34
133
56
58
105
114

> <PUBCHEM_MMFF94_PARTIAL_CHARGES>
37
1 1.45
10 0.28
11 0.28
12 0.28
13 0.36
14 0.41
15 -0.14
16 -0.01
17 -0.15
18 0.16
19 -0.15
2 -0.56
20 -0.15
21 -0.15
22 -0.15
23 -0.15
24 0.16
25 -0.15
3 -0.68
33 0.36
36 0.4
37 0.42
38 0.15
39 0.15
4 -0.65
40 0.15
41 0.15
42 0.15
43 0.15
44 0.15
45 0.15
46 0.15
5 -0.65
6 -0.9
7 -0.91
8 -0.62
9 0.27

> <PUBCHEM_EFFECTIVE_ROTOR_COUNT>
8

> <PUBCHEM_PHARMACOPHORE_FEATURES>
12
1 2 acceptor
1 3 acceptor
1 3 donor
1 4 acceptor
1 5 acceptor
1 6 cation
1 6 donor
1 7 donor
1 8 acceptor
5 2 9 10 11 12 rings
6 16 19 20 22 23 25 rings
6 8 15 17 18 21 24 rings

> <PUBCHEM_HEAVY_ATOM_COUNT>
25

> <PUBCHEM_ATOM_DEF_STEREO_COUNT>
3

> <PUBCHEM_ATOM_UDEF_STEREO_COUNT>
0

> <PUBCHEM_BOND_DEF_STEREO_COUNT>
0

> <PUBCHEM_BOND_UDEF_STEREO_COUNT>
0

> <PUBCHEM_ISOTOPIC_ATOM_COUNT>
0

> <PUBCHEM_COMPONENT_COUNT>
1

> <PUBCHEM_CACTVS_TAUTO_COUNT>
1

> <PUBCHEM_CONFORMER_ID>
0480993100000001

> <PUBCHEM_MMFF94_ENERGY>
45.5532

> <PUBCHEM_FEATURE_SELFOVERLAP>
60.916

> <PUBCHEM_SHAPE_FINGERPRINT>
10 15 16225769631482126725
10554248 39 17988637441991471711
10638233 991 18410576158937893361
10906281 52 17774457005528985795
11408170 132 14116970015773629009
11991303 11 16558742456104864381
125118 31 18335421244818486605
13167372 99 18411139095542241185
13533116 47 17895192143675933722
13668630 136 12535336901699376893
13782708 43 9439407908739170321
13878862 14 18408876339762862548
14251757 52 18413668006941367425
14347332 77 10807668765266561107
15183329 4 17489872635245860257
15348495 7 16009042725752290113
155225 6 17825960488001134236
15840311 113 18334580114370467965
18335252 114 18202849859956900676
1979834 28 15285351808828152282
20157964 124 18412546505091526738
20281389 69 18260829272420554757
20397935 70 8574714594361978596
21130935 74 18040154015834881947
21150785 3 16988560234372939573
21298829 104 18339081600668940700
21344244 181 11600006565510886661
21521239 73 11959729361132905989
21641784 216 16415490315536376633
21792934 111 16081354229751076287
2215653 11 13470411092998669606
22224240 67 17312821576919201899
2303208 19 10952054424887020723
23081809 10 18201996625626883743
23559900 14 17167871876740314002
249057 25 17774730744531118474
2748736 6 18335980947692086817
2838139 119 18413387623002517713
328310 630 18272658935383228849
33532 11 9367341536110310361
3472631 163 17917150610711003764
34797466 226 18271812302391572151
397830 11 17822587108832095787
44555599 121 18270968947050864937
465052 167 7853582305399371568
5104073 3 15575577880209741401
5718773 13 11095343880110757628
59682541 52 17418103091842590822
6328613 192 18413388744173384105
6898599 12 18129380582381621967

> <PUBCHEM_SHAPE_MULTIPOLES>
479.92
22.54
2.58
1.37
25.57
1.38
0.17
14.61
0.14
-4.27
-0.07
-0.51
-0.08
-0.64

> <PUBCHEM_SHAPE_SELFOVERLAP>
998.384

> <PUBCHEM_SHAPE_VOLUME>
273.4

> <PUBCHEM_COORDINATE_TYPE>
2
5
10

$$$$
