51137858
  -OEChem-12032416223D

 49 52  0     1  0  0  0  0  0999 V2000
   -4.8826   -4.3399    1.1924 Cl  0  0  0  0  0  0  0  0  0  0  0  0
   -1.7035    1.2787   -0.4195 O   0  0  0  0  0  0  0  0  0  0  0  0
    1.7821    1.2389    2.8451 O   0  0  0  0  0  0  0  0  0  0  0  0
    2.3899   -2.9363   -0.6320 O   0  0  0  0  0  0  0  0  0  0  0  0
    5.0253   -2.2820   -1.2256 O   0  0  0  0  0  0  0  0  0  0  0  0
    1.0605    2.2535    0.8845 N   0  0  0  0  0  0  0  0  0  0  0  0
   -2.6624    2.8650   -1.6721 N   0  0  0  0  0  0  0  0  0  0  0  0
   -3.5716    1.8353   -1.5172 N   0  0  0  0  0  0  0  0  0  0  0  0
   -0.2671    3.2264   -0.8343 C   0  0  1  0  0  0  0  0  0  0  0  0
   -0.2850    4.1319    0.4069 C   0  0  0  0  0  0  0  0  0  0  0  0
    0.9687    2.3537   -0.5730 C   0  0  0  0  0  0  0  0  0  0  0  0
    0.1875    3.2206    1.5315 C   0  0  0  0  0  0  0  0  0  0  0  0
   -1.5873    2.4971   -1.0149 C   0  0  0  0  0  0  0  0  0  0  0  0
    1.7918    1.3333    1.6193 C   0  0  0  0  0  0  0  0  0  0  0  0
    2.6348    0.3850    0.8748 C   0  0  0  0  0  0  0  0  0  0  0  0
   -2.9695    0.9317   -0.7798 C   0  0  0  0  0  0  0  0  0  0  0  0
    2.1120   -0.8422    0.4668 C   0  0  0  0  0  0  0  0  0  0  0  0
    3.9574    0.7133    0.5769 C   0  0  0  0  0  0  0  0  0  0  0  0
   -3.4309   -0.3400   -0.3039 C   0  0  0  0  0  0  0  0  0  0  0  0
    2.9117   -1.7408   -0.2393 C   0  0  0  0  0  0  0  0  0  0  0  0
    4.7571   -0.1853   -0.1290 C   0  0  0  0  0  0  0  0  0  0  0  0
    4.2342   -1.4124   -0.5372 C   0  0  0  0  0  0  0  0  0  0  0  0
   -4.7159   -0.7795   -0.6227 C   0  0  0  0  0  0  0  0  0  0  0  0
   -2.5948   -1.1378    0.4774 C   0  0  0  0  0  0  0  0  0  0  0  0
   -5.1648   -2.0162   -0.1601 C   0  0  0  0  0  0  0  0  0  0  0  0
   -3.0438   -2.3746    0.9400 C   0  0  0  0  0  0  0  0  0  0  0  0
   -4.3287   -2.8138    0.6214 C   0  0  0  0  0  0  0  0  0  0  0  0
    1.0300   -3.1942   -0.2874 C   0  0  0  0  0  0  0  0  0  0  0  0
    6.3650   -1.8694   -1.4891 C   0  0  0  0  0  0  0  0  0  0  0  0
   -0.1146    3.8227   -1.7420 H   0  0  0  0  0  0  0  0  0  0  0  0
    0.4410    4.9437    0.2713 H   0  0  0  0  0  0  0  0  0  0  0  0
   -1.2592    4.5825    0.6204 H   0  0  0  0  0  0  0  0  0  0  0  0
    1.8808    2.8561   -0.9149 H   0  0  0  0  0  0  0  0  0  0  0  0
    0.9138    1.3661   -1.0391 H   0  0  0  0  0  0  0  0  0  0  0  0
   -0.6450    2.6722    1.9862 H   0  0  0  0  0  0  0  0  0  0  0  0
    0.7252    3.7562    2.3197 H   0  0  0  0  0  0  0  0  0  0  0  0
    1.0776   -1.0398    0.7280 H   0  0  0  0  0  0  0  0  0  0  0  0
    4.3733    1.6674    0.8905 H   0  0  0  0  0  0  0  0  0  0  0  0
    5.7740    0.1370   -0.3247 H   0  0  0  0  0  0  0  0  0  0  0  0
   -5.3845   -0.1744   -1.2302 H   0  0  0  0  0  0  0  0  0  0  0  0
   -1.5878   -0.8295    0.7466 H   0  0  0  0  0  0  0  0  0  0  0  0
   -6.1684   -2.3460   -0.4161 H   0  0  0  0  0  0  0  0  0  0  0  0
   -2.3811   -2.9859    1.5474 H   0  0  0  0  0  0  0  0  0  0  0  0
    0.8879   -3.2338    0.7980 H   0  0  0  0  0  0  0  0  0  0  0  0
    0.3498   -2.4853   -0.7719 H   0  0  0  0  0  0  0  0  0  0  0  0
    0.7819   -4.1874   -0.6761 H   0  0  0  0  0  0  0  0  0  0  0  0
    6.3954   -0.9828   -2.1315 H   0  0  0  0  0  0  0  0  0  0  0  0
    6.9350   -1.7337   -0.5636 H   0  0  0  0  0  0  0  0  0  0  0  0
    6.8486   -2.6803   -2.0439 H   0  0  0  0  0  0  0  0  0  0  0  0
  1 27  1  0  0  0  0
  2 13  1  0  0  0  0
  2 16  1  0  0  0  0
  3 14  2  0  0  0  0
  4 20  1  0  0  0  0
  4 28  1  0  0  0  0
  5 22  1  0  0  0  0
  5 29  1  0  0  0  0
  6 11  1  0  0  0  0
  6 12  1  0  0  0  0
  6 14  1  0  0  0  0
  7  8  1  0  0  0  0
  7 13  2  0  0  0  0
  8 16  2  0  0  0  0
  9 10  1  0  0  0  0
  9 11  1  0  0  0  0
  9 13  1  0  0  0  0
  9 30  1  0  0  0  0
 10 12  1  0  0  0  0
 10 31  1  0  0  0  0
 10 32  1  0  0  0  0
 11 33  1  0  0  0  0
 11 34  1  0  0  0  0
 12 35  1  0  0  0  0
 12 36  1  0  0  0  0
 14 15  1  0  0  0  0
 15 17  2  0  0  0  0
 15 18  1  0  0  0  0
 16 19  1  0  0  0  0
 17 20  1  0  0  0  0
 17 37  1  0  0  0  0
 18 21  2  0  0  0  0
 18 38  1  0  0  0  0
 19 23  2  0  0  0  0
 19 24  1  0  0  0  0
 20 22  2  0  0  0  0
 21 22  1  0  0  0  0
 21 39  1  0  0  0  0
 23 25  1  0  0  0  0
 23 40  1  0  0  0  0
 24 26  2  0  0  0  0
 24 41  1  0  0  0  0
 25 27  2  0  0  0  0
 25 42  1  0  0  0  0
 26 27  1  0  0  0  0
 26 43  1  0  0  0  0
 28 44  1  0  0  0  0
 28 45  1  0  0  0  0
 28 46  1  0  0  0  0
 29 47  1  0  0  0  0
 29 48  1  0  0  0  0
 29 49  1  0  0  0  0
M  END
> <PUBCHEM_COMPOUND_CID>
51137858

> <PUBCHEM_CONFORMER_RMSD>
0.8

> <PUBCHEM_CONFORMER_DIVERSEORDER>
1
29
87
39
122
97
110
244
202
230
193
229
119
158
132
86
205
32
203
184
24
153
71
170
95
215
223
232
64
105
61
33
243
68
34
96
146
10
36
222
231
169
93
213
235
125
107
159
206
40
90
208
60
165
131
192
123
37
162
25
63
197
16
113
186
228
50
128
117
108
111
173
156
59
73
194
147
207
99
78
98
69
139
185
157
241
129
175
238
224
188
112
54
80
226
82
58
149
49
155
189
137
199
201
218
23
57
43
191
2
182
140
236
67
209
134
17
143
75
115
41
219
168
53
28
196
65
211
227
84
217
187
198
74
51
136
62
183
15
151
26
220
190
118
76
161
237
114
55
200
178
239
141
38
214
144
148
94
106
171
181
195
6
177
133
47
163
126
91
11
109
72
52
124
204
240
92
225
135
120
166
66
77
152
5
14
138
46
121
18
42
27
35
167
44
85
116
56
221
216
31
30
154
172
20
234
210
104
9
180
8
142
4
145
83
21
103
79
3
100
88
179
130
70
127
242
7
22
174
48
45
102
212
150
233
12
176
101
160
81
19
13
164
89

> <PUBCHEM_MMFF94_PARTIAL_CHARGES>
35
1 -0.18
11 0.3
12 0.3
13 0.3
14 0.54
15 0.09
16 0.43
17 -0.15
18 -0.15
19 0.05
2 -0.28
20 0.08
21 -0.15
22 0.08
23 -0.15
24 -0.15
25 -0.15
26 -0.15
27 0.18
28 0.28
29 0.28
3 -0.57
37 0.15
38 0.15
39 0.15
4 -0.36
40 0.15
41 0.15
42 0.15
43 0.15
5 -0.36
6 -0.66
7 -0.34
8 -0.34
9 0.18

> <PUBCHEM_EFFECTIVE_ROTOR_COUNT>
7

> <PUBCHEM_PHARMACOPHORE_FEATURES>
7
1 3 acceptor
1 4 acceptor
1 5 acceptor
5 2 7 8 13 16 rings
5 6 9 10 11 12 rings
6 15 17 18 20 21 22 rings
6 19 23 24 25 26 27 rings

> <PUBCHEM_HEAVY_ATOM_COUNT>
29

> <PUBCHEM_ATOM_DEF_STEREO_COUNT>
1

> <PUBCHEM_ATOM_UDEF_STEREO_COUNT>
0

> <PUBCHEM_BOND_DEF_STEREO_COUNT>
0

> <PUBCHEM_BOND_UDEF_STEREO_COUNT>
0

> <PUBCHEM_ISOTOPIC_ATOM_COUNT>
0

> <PUBCHEM_COMPONENT_COUNT>
1

> <PUBCHEM_CACTVS_TAUTO_COUNT>
1

> <PUBCHEM_CONFORMER_ID>
030C4D4200000001

> <PUBCHEM_MMFF94_ENERGY>
89.0589

> <PUBCHEM_FEATURE_SELFOVERLAP>
35.528

> <PUBCHEM_SHAPE_FINGERPRINT>
10366900 7 18126832816318458004
10653451 467 18052253188158351112
10764073 3 10807118975815874552
107951 10 17694219963344432765
11828532 37 17171240921822498035
12156800 1 17269241277409609772
12788726 201 16768442168152737576
13135754 10 17058394495456252248
13383661 66 17916046615222416846
13402501 40 18411134744867211047
13533116 47 18126565863528092443
1361 2 17543629090474171691
13631057 29 18340208471512010550
13785724 45 18044385053069798131
13911882 115 18341042021353061256
13989917 61 17615693272955573627
14251740 57 17976260454705021443
14251757 5 18263366897474621583
14363568 33 18195536019391860848
14681488 357 18265052620920915051
14725015 67 18116415124382449923
14931854 50 17978782411602094941
15324884 4 18198599164329420816
15420108 30 16898474214009654809
16067689 391 17126215564203904070
17909252 39 18338524157048118264
17974551 9 17632296736095000665
1979834 28 17761210321238933827
20775530 9 18411134736398394563
22849339 104 18114731639099745533
23428019 142 17547867247852801334
23466295 7 18268440035530159144
23559900 14 18262793094745686877
255183 313 17407366584474379000
329604 57 18409733954664044166
3493558 16 16157955220625713374
3737641 26 18201722842788595292
437815 12 18272649035204023277
4394409 98 16672438254185024599
44426695 316 15675521579761118131
46194498 28 18116994596747659849
484985 159 18198914599680736281
484989 97 18342463613332829182
508706 21 18335410262734576735
5309563 4 18412261770308602087
57307002 29 17968090859961479253
6287921 2 17981322614502033099
6823239 73 18409160043273536609

> <PUBCHEM_SHAPE_MULTIPOLES>
560.26
11.53
5.62
1.59
0.91
1.1
0.56
-13.83
-2.47
-2.61
-0.08
0.52
0.72
4.06

> <PUBCHEM_SHAPE_SELFOVERLAP>
1211.237

> <PUBCHEM_SHAPE_VOLUME>
311.5

> <PUBCHEM_COORDINATE_TYPE>
2
5
10

$$$$
