45360723
  -OEChem-12032416313D

 62 65  0     1  0  0  0  0  0999 V2000
   -0.5986   -5.0088   -0.3916 O   0  0  0  0  0  0  0  0  0  0  0  0
   -5.3270    1.5609    1.6210 O   0  0  0  0  0  0  0  0  0  0  0  0
   -2.0883   -1.6770   -0.3349 N   0  0  1  0  0  0  0  0  0  0  0  0
   -2.1612   -4.1373    1.0124 N   0  0  0  0  0  0  0  0  0  0  0  0
    1.3164   -0.4429   -0.1916 N   0  0  0  0  0  0  0  0  0  0  0  0
   -5.2947    2.3468   -0.5629 N   0  0  0  0  0  0  0  0  0  0  0  0
    7.3371    1.5232    0.6788 N   0  0  0  0  0  0  0  0  0  0  0  0
   -1.3935   -2.8142   -0.9517 C   0  0  1  0  0  0  0  0  0  0  0  0
   -3.2850   -2.0399    0.4160 C   0  0  1  0  0  0  0  0  0  0  0  0
    0.0221   -0.8562   -0.7095 C   0  0  1  0  0  0  0  0  0  0  0  0
    0.0200   -2.2879   -1.2463 C   0  0  0  0  0  0  0  0  0  0  0  0
   -1.0769   -0.8703    0.3440 C   0  0  0  0  0  0  0  0  0  0  0  0
   -2.9526   -3.0378    1.5141 C   0  0  0  0  0  0  0  0  0  0  0  0
   -4.0210   -0.8251    0.9826 C   0  0  0  0  0  0  0  0  0  0  0  0
   -1.3313   -4.0652   -0.0802 C   0  0  0  0  0  0  0  0  0  0  0  0
   -5.9613    3.5913   -0.3060 C   0  0  0  0  0  0  0  0  0  0  0  0
   -4.3173    0.1969   -0.1065 C   0  0  0  0  0  0  0  0  0  0  0  0
   -5.7745    4.7742   -1.2103 C   0  0  0  0  0  0  0  0  0  0  0  0
   -5.2028    4.7925    0.1771 C   0  0  0  0  0  0  0  0  0  0  0  0
    2.2155   -0.0613   -1.2734 C   0  0  0  0  0  0  0  0  0  0  0  0
   -5.0295    1.4222    0.4375 C   0  0  0  0  0  0  0  0  0  0  0  0
    3.5670    0.3568   -0.7582 C   0  0  0  0  0  0  0  0  0  0  0  0
    3.7321    1.6115   -0.1717 C   0  0  0  0  0  0  0  0  0  0  0  0
    4.6539   -0.5107   -0.8673 C   0  0  0  0  0  0  0  0  0  0  0  0
    4.9842    1.9989    0.3055 C   0  0  0  0  0  0  0  0  0  0  0  0
    5.9059   -0.1233   -0.3901 C   0  0  0  0  0  0  0  0  0  0  0  0
    6.0711    1.1315    0.1963 C   0  0  0  0  0  0  0  0  0  0  0  0
    8.4711    0.6263    0.5771 C   0  0  0  0  0  0  0  0  0  0  0  0
    7.5191    2.8249    1.2898 C   0  0  0  0  0  0  0  0  0  0  0  0
   -1.9023   -3.0939   -1.8817 H   0  0  0  0  0  0  0  0  0  0  0  0
   -3.9700   -2.5305   -0.2906 H   0  0  0  0  0  0  0  0  0  0  0  0
   -0.3001   -0.1713   -1.5087 H   0  0  0  0  0  0  0  0  0  0  0  0
    0.2307   -2.2914   -2.3219 H   0  0  0  0  0  0  0  0  0  0  0  0
    0.7922   -2.8923   -0.7547 H   0  0  0  0  0  0  0  0  0  0  0  0
   -1.4118    0.1463    0.5711 H   0  0  0  0  0  0  0  0  0  0  0  0
   -0.7275   -1.3389    1.2721 H   0  0  0  0  0  0  0  0  0  0  0  0
   -3.8660   -3.4646    1.9425 H   0  0  0  0  0  0  0  0  0  0  0  0
   -2.3867   -2.5802    2.3331 H   0  0  0  0  0  0  0  0  0  0  0  0
   -3.4380   -0.3567    1.7861 H   0  0  0  0  0  0  0  0  0  0  0  0
   -4.9623   -1.1525    1.4433 H   0  0  0  0  0  0  0  0  0  0  0  0
   -2.1260   -4.9836    1.5723 H   0  0  0  0  0  0  0  0  0  0  0  0
    1.1863    0.3564    0.4290 H   0  0  0  0  0  0  0  0  0  0  0  0
   -6.9613    3.4478    0.0917 H   0  0  0  0  0  0  0  0  0  0  0  0
   -4.9564   -0.2528   -0.8762 H   0  0  0  0  0  0  0  0  0  0  0  0
   -3.4041    0.5501   -0.5968 H   0  0  0  0  0  0  0  0  0  0  0  0
   -5.0815    4.6886   -2.0383 H   0  0  0  0  0  0  0  0  0  0  0  0
   -6.6365    5.3991   -1.4091 H   0  0  0  0  0  0  0  0  0  0  0  0
   -5.6805    5.4284    0.9122 H   0  0  0  0  0  0  0  0  0  0  0  0
   -4.1270    4.7184    0.2786 H   0  0  0  0  0  0  0  0  0  0  0  0
   -5.0190    2.1468   -1.5207 H   0  0  0  0  0  0  0  0  0  0  0  0
    1.7958    0.7716   -1.8532 H   0  0  0  0  0  0  0  0  0  0  0  0
    2.3429   -0.8929   -1.9778 H   0  0  0  0  0  0  0  0  0  0  0  0
    2.8927    2.2961   -0.0822 H   0  0  0  0  0  0  0  0  0  0  0  0
    4.5388   -1.4920   -1.3200 H   0  0  0  0  0  0  0  0  0  0  0  0
    5.0610    2.9848    0.7532 H   0  0  0  0  0  0  0  0  0  0  0  0
    6.7195   -0.8338   -0.4980 H   0  0  0  0  0  0  0  0  0  0  0  0
    9.3795    1.0729    0.9967 H   0  0  0  0  0  0  0  0  0  0  0  0
    8.6959    0.3893   -0.4688 H   0  0  0  0  0  0  0  0  0  0  0  0
    8.2942   -0.3005    1.1342 H   0  0  0  0  0  0  0  0  0  0  0  0
    8.5554    2.9806    1.6101 H   0  0  0  0  0  0  0  0  0  0  0  0
    6.8971    2.9323    2.1855 H   0  0  0  0  0  0  0  0  0  0  0  0
    7.2881    3.6299    0.5832 H   0  0  0  0  0  0  0  0  0  0  0  0
  1 15  2  0  0  0  0
  2 21  2  0  0  0  0
  3  8  1  0  0  0  0
  3  9  1  0  0  0  0
  3 12  1  0  0  0  0
  4 13  1  0  0  0  0
  4 15  1  0  0  0  0
  4 41  1  0  0  0  0
  5 10  1  0  0  0  0
  5 20  1  0  0  0  0
  5 42  1  0  0  0  0
  6 16  1  0  0  0  0
  6 21  1  0  0  0  0
  6 50  1  0  0  0  0
  7 27  1  0  0  0  0
  7 28  1  0  0  0  0
  7 29  1  0  0  0  0
  8 11  1  0  0  0  0
  8 15  1  0  0  0  0
  8 30  1  0  0  0  0
  9 13  1  0  0  0  0
  9 14  1  0  0  0  0
  9 31  1  0  0  0  0
 10 11  1  0  0  0  0
 10 12  1  0  0  0  0
 10 32  1  0  0  0  0
 11 33  1  0  0  0  0
 11 34  1  0  0  0  0
 12 35  1  0  0  0  0
 12 36  1  0  0  0  0
 13 37  1  0  0  0  0
 13 38  1  0  0  0  0
 14 17  1  0  0  0  0
 14 39  1  0  0  0  0
 14 40  1  0  0  0  0
 16 18  1  0  0  0  0
 16 19  1  0  0  0  0
 16 43  1  0  0  0  0
 17 21  1  0  0  0  0
 17 44  1  0  0  0  0
 17 45  1  0  0  0  0
 18 19  1  0  0  0  0
 18 46  1  0  0  0  0
 18 47  1  0  0  0  0
 19 48  1  0  0  0  0
 19 49  1  0  0  0  0
 20 22  1  0  0  0  0
 20 51  1  0  0  0  0
 20 52  1  0  0  0  0
 22 23  2  0  0  0  0
 22 24  1  0  0  0  0
 23 25  1  0  0  0  0
 23 53  1  0  0  0  0
 24 26  2  0  0  0  0
 24 54  1  0  0  0  0
 25 27  2  0  0  0  0
 25 55  1  0  0  0  0
 26 27  1  0  0  0  0
 26 56  1  0  0  0  0
 28 57  1  0  0  0  0
 28 58  1  0  0  0  0
 28 59  1  0  0  0  0
 29 60  1  0  0  0  0
 29 61  1  0  0  0  0
 29 62  1  0  0  0  0
M  END
> <PUBCHEM_COMPOUND_CID>
45360723

> <PUBCHEM_CONFORMER_RMSD>
1

> <PUBCHEM_CONFORMER_DIVERSEORDER>
1
7
20
17
80
49
85
100
72
29
84
19
75
39
83
94
12
47
61
60
71
105
104
42
102
93
66
103
97
16
30
90
58
81
91
73
82
69
36
62
37
89
88
41
101
28
15
86
55
106
44
67
96
59
52
54
5
50
74
33
13
64
98
35
32
11
77
76
70
43
38
27
45
57
9
18
46
79
78
53
10
23
8
87
40
22
51
14
34
6
63
56
65
68
21
95
92
25
24
3
2
26
99
48
31
4

> <PUBCHEM_MMFF94_PARTIAL_CHARGES>
39
1 -0.57
10 0.27
12 0.27
13 0.3
15 0.57
16 0.05
17 0.06
18 -0.2
19 -0.2
2 -0.57
20 0.41
21 0.57
22 -0.14
23 -0.15
24 -0.15
25 -0.15
26 -0.15
27 0.1
28 0.37
29 0.37
3 -0.81
4 -0.73
41 0.37
42 0.36
43 0.1
46 0.1
47 0.1
48 0.1
49 0.1
5 -0.9
50 0.37
53 0.15
54 0.15
55 0.15
56 0.15
6 -0.58
7 -0.84
8 0.33
9 0.27

> <PUBCHEM_EFFECTIVE_ROTOR_COUNT>
10.8

> <PUBCHEM_PHARMACOPHORE_FEATURES>
11
1 1 acceptor
1 2 acceptor
1 3 cation
1 4 donor
1 5 cation
1 5 donor
1 6 donor
1 7 cation
5 3 8 10 11 12 rings
6 22 23 24 25 26 27 rings
6 3 4 8 9 13 15 rings

> <PUBCHEM_HEAVY_ATOM_COUNT>
29

> <PUBCHEM_ATOM_DEF_STEREO_COUNT>
3

> <PUBCHEM_ATOM_UDEF_STEREO_COUNT>
0

> <PUBCHEM_BOND_DEF_STEREO_COUNT>
0

> <PUBCHEM_BOND_UDEF_STEREO_COUNT>
0

> <PUBCHEM_ISOTOPIC_ATOM_COUNT>
0

> <PUBCHEM_COMPONENT_COUNT>
1

> <PUBCHEM_CACTVS_TAUTO_COUNT>
6

> <PUBCHEM_CONFORMER_ID>
02B4265300000001

> <PUBCHEM_MMFF94_ENERGY>
77.8948

> <PUBCHEM_FEATURE_SELFOVERLAP>
56.009

> <PUBCHEM_SHAPE_FINGERPRINT>
10554248 39 14692030093643712972
10675989 125 17980767042953844218
11059845 2 18333449846323844124
11135609 201 18339647738099571185
12107183 9 18260544503182764210
12717326 135 18266997528025842712
13673619 4 12179847208167916942
14223995 32 18337671906202334908
14950920 106 16081669875450975741
15326921 28 18410570691159539801
15419008 42 18131362877830274238
16992779 147 17620497722383519729
17980427 26 18047179762403957887
19246450 95 18335975386031016938
19304671 126 17700703852718453989
21033648 29 18336835207854590949
21133410 221 17915723478493340169
21133410 32 15768909407694274213
21196832 93 9223227460315192936
21424621 283 18411133593705056821
21792964 463 17679318609488747284
21859007 373 18337112263705683972
22288116 15 9871478634089163152
23522609 53 17458925837422334756
23569914 2 17270838971322418968
2838139 119 18412543176618284893
376196 1 18267872692458742439
393628 179 18340473509380834717
397638 26 18409449159329908848
4144715 1 18192437579183143946
437795 96 18128808831993232272
44575985 26 17772746070937077422
4938544 92 18338517559750887614
5104073 3 18334853965981156050
636775 8 8286200587513934616
6371380 46 18266471901601909270
6677587 24 17484503557054430109
9896288 288 18187935026980194587
9981440 41 18335713715322938707
999808 66 11530483324305296480

> <PUBCHEM_SHAPE_MULTIPOLES>
560.16
20.77
6.6
1.22
31.46
0.1
0.12
28.79
4.89
-14
-0.13
-0.29
-0.1
3.25

> <PUBCHEM_SHAPE_SELFOVERLAP>
1167.829

> <PUBCHEM_SHAPE_VOLUME>
319.3

> <PUBCHEM_COORDINATE_TYPE>
2
5
10

$$$$
