26744096
  -OEChem-12032416393D

 45 48  0     1  0  0  0  0  0999 V2000
    5.4907   -1.5082    1.3635 O   0  0  0  0  0  0  0  0  0  0  0  0
    0.9006   -0.5550   -2.2354 O   0  0  0  0  0  0  0  0  0  0  0  0
    2.6577    0.5344    0.6063 N   0  0  1  0  0  0  0  0  0  0  0  0
    0.4335   -1.5084   -0.2633 N   0  0  0  0  0  0  0  0  0  0  0  0
   -0.3829   -1.1016   -2.3613 N   0  0  0  0  0  0  0  0  0  0  0  0
   -1.3374    2.1219    0.8692 N   0  0  0  0  0  0  0  0  0  0  0  0
    2.6855   -0.3472   -0.5784 C   0  0  1  0  0  0  0  0  0  0  0  0
    3.6405   -1.4927   -0.1944 C   0  0  0  0  0  0  0  0  0  0  0  0
    4.1336   -1.1432    1.2041 C   0  0  2  0  0  0  0  0  0  0  0  0
    3.9416    0.3594    1.2828 C   0  0  0  0  0  0  0  0  0  0  0  0
    2.3967    1.9298    0.2779 C   0  0  0  0  0  0  0  0  0  0  0  0
    1.3084   -0.8396   -0.9710 C   0  0  0  0  0  0  0  0  0  0  0  0
    0.9322    2.1850    0.0387 C   0  0  0  0  0  0  0  0  0  0  0  0
   -0.5874   -1.6458   -1.1581 C   0  0  0  0  0  0  0  0  0  0  0  0
    0.4820    2.6946   -1.1741 C   0  0  0  0  0  0  0  0  0  0  0  0
   -0.0095    1.9177    1.0194 C   0  0  0  0  0  0  0  0  0  0  0  0
   -1.8328   -2.3452   -0.8228 C   0  0  0  0  0  0  0  0  0  0  0  0
   -0.8768    2.9183   -1.3664 C   0  0  0  0  0  0  0  0  0  0  0  0
   -2.8116   -1.5374    0.0235 C   0  0  0  0  0  0  0  0  0  0  0  0
   -1.7375    2.6183   -0.3230 C   0  0  0  0  0  0  0  0  0  0  0  0
   -2.6204   -1.4326    1.4013 C   0  0  0  0  0  0  0  0  0  0  0  0
   -3.8976   -0.9035   -0.5800 C   0  0  0  0  0  0  0  0  0  0  0  0
   -3.5153   -0.6940    2.1755 C   0  0  0  0  0  0  0  0  0  0  0  0
   -4.7925   -0.1649    0.1942 C   0  0  0  0  0  0  0  0  0  0  0  0
   -4.6013   -0.0601    1.5719 C   0  0  0  0  0  0  0  0  0  0  0  0
    3.1318    0.1724   -1.4380 H   0  0  0  0  0  0  0  0  0  0  0  0
    3.1627   -2.4791   -0.1933 H   0  0  0  0  0  0  0  0  0  0  0  0
    4.4778   -1.5409   -0.9021 H   0  0  0  0  0  0  0  0  0  0  0  0
    3.5317   -1.6528    1.9665 H   0  0  0  0  0  0  0  0  0  0  0  0
    3.9131    0.7024    2.3223 H   0  0  0  0  0  0  0  0  0  0  0  0
    4.7605    0.8853    0.7743 H   0  0  0  0  0  0  0  0  0  0  0  0
    3.0061    2.2700   -0.5696 H   0  0  0  0  0  0  0  0  0  0  0  0
    2.6817    2.5718    1.1233 H   0  0  0  0  0  0  0  0  0  0  0  0
    5.5528   -2.4689    1.2267 H   0  0  0  0  0  0  0  0  0  0  0  0
    1.1785    2.9189   -1.9771 H   0  0  0  0  0  0  0  0  0  0  0  0
    0.2777    1.5219    1.9887 H   0  0  0  0  0  0  0  0  0  0  0  0
   -1.5955   -3.2710   -0.2817 H   0  0  0  0  0  0  0  0  0  0  0  0
   -2.3413   -2.6779   -1.7376 H   0  0  0  0  0  0  0  0  0  0  0  0
   -1.2505    3.3134   -2.3040 H   0  0  0  0  0  0  0  0  0  0  0  0
   -2.8068    2.7732   -0.4229 H   0  0  0  0  0  0  0  0  0  0  0  0
   -1.7780   -1.9216    1.8829 H   0  0  0  0  0  0  0  0  0  0  0  0
   -4.0560   -0.9749   -1.6527 H   0  0  0  0  0  0  0  0  0  0  0  0
   -3.3659   -0.6116    3.2480 H   0  0  0  0  0  0  0  0  0  0  0  0
   -5.6373    0.3300   -0.2759 H   0  0  0  0  0  0  0  0  0  0  0  0
   -5.2974    0.5159    2.1745 H   0  0  0  0  0  0  0  0  0  0  0  0
  1  9  1  0  0  0  0
  1 34  1  0  0  0  0
  2  5  1  0  0  0  0
  2 12  1  0  0  0  0
  3  7  1  0  0  0  0
  3 10  1  0  0  0  0
  3 11  1  0  0  0  0
  4 12  2  0  0  0  0
  4 14  1  0  0  0  0
  5 14  2  0  0  0  0
  6 16  1  0  0  0  0
  6 20  2  0  0  0  0
  7  8  1  0  0  0  0
  7 12  1  0  0  0  0
  7 26  1  0  0  0  0
  8  9  1  0  0  0  0
  8 27  1  0  0  0  0
  8 28  1  0  0  0  0
  9 10  1  0  0  0  0
  9 29  1  0  0  0  0
 10 30  1  0  0  0  0
 10 31  1  0  0  0  0
 11 13  1  0  0  0  0
 11 32  1  0  0  0  0
 11 33  1  0  0  0  0
 13 15  1  0  0  0  0
 13 16  2  0  0  0  0
 14 17  1  0  0  0  0
 15 18  2  0  0  0  0
 15 35  1  0  0  0  0
 16 36  1  0  0  0  0
 17 19  1  0  0  0  0
 17 37  1  0  0  0  0
 17 38  1  0  0  0  0
 18 20  1  0  0  0  0
 18 39  1  0  0  0  0
 19 21  2  0  0  0  0
 19 22  1  0  0  0  0
 20 40  1  0  0  0  0
 21 23  1  0  0  0  0
 21 41  1  0  0  0  0
 22 24  2  0  0  0  0
 22 42  1  0  0  0  0
 23 25  2  0  0  0  0
 23 43  1  0  0  0  0
 24 25  1  0  0  0  0
 24 44  1  0  0  0  0
 25 45  1  0  0  0  0
M  END
> <PUBCHEM_COMPOUND_CID>
26744096

> <PUBCHEM_CONFORMER_RMSD>
1

> <PUBCHEM_CONFORMER_DIVERSEORDER>
1
55
45
54
46
4
152
35
157
162
28
77
2
126
123
114
68
156
158
121
112
95
125
117
36
70
163
53
69
132
143
18
67
110
59
124
99
27
149
96
136
159
56
103
88
26
108
138
100
115
25
73
5
131
31
161
82
66
145
140
15
106
160
13
76
23
134
122
3
49
47
153
93
87
16
113
104
91
42
51
48
79
135
85
72
6
142
10
137
141
98
57
130
75
74
144
116
81
147
129
14
102
127
17
8
83
22
164
65
154
12
84
89
61
133
155
146
107
19
105
40
71
52
43
148
11
24
29
120
119
32
80
58
78
38
9
139
151
92
97
37
94
111
150
128
7
86
41
60
39
62
34
20
165
90
33
30
109
21
101
44
64
63
50
118

> <PUBCHEM_MMFF94_PARTIAL_CHARGES>
34
1 -0.68
10 0.27
11 0.41
12 0.3
13 -0.14
14 0.34
15 -0.15
16 0.16
17 0.32
18 -0.15
19 -0.14
2 -0.02
20 0.16
21 -0.15
22 -0.15
23 -0.15
24 -0.15
25 -0.15
3 -0.81
34 0.4
35 0.15
36 0.15
39 0.15
4 -0.57
40 0.15
41 0.15
42 0.15
43 0.15
44 0.15
45 0.15
5 -0.41
6 -0.62
7 0.45
9 0.28

> <PUBCHEM_EFFECTIVE_ROTOR_COUNT>
6

> <PUBCHEM_PHARMACOPHORE_FEATURES>
9
1 1 acceptor
1 1 donor
1 3 cation
1 6 acceptor
3 4 5 14 cation
5 2 4 5 12 14 rings
5 3 7 8 9 10 rings
6 19 21 22 23 24 25 rings
6 6 13 15 16 18 20 rings

> <PUBCHEM_HEAVY_ATOM_COUNT>
25

> <PUBCHEM_ATOM_DEF_STEREO_COUNT>
2

> <PUBCHEM_ATOM_UDEF_STEREO_COUNT>
0

> <PUBCHEM_BOND_DEF_STEREO_COUNT>
0

> <PUBCHEM_BOND_UDEF_STEREO_COUNT>
0

> <PUBCHEM_ISOTOPIC_ATOM_COUNT>
0

> <PUBCHEM_COMPONENT_COUNT>
1

> <PUBCHEM_CACTVS_TAUTO_COUNT>
1

> <PUBCHEM_CONFORMER_ID>
0198152000000001

> <PUBCHEM_MMFF94_ENERGY>
53.5196

> <PUBCHEM_FEATURE_SELFOVERLAP>
45.672

> <PUBCHEM_SHAPE_FINGERPRINT>
10382601 240 18122913289679064680
10674148 151 13695859277874166718
10675989 125 16537911842744474860
10759866 29 18115880752983160380
11086676 242 18340487863060382136
11370993 70 16988848276117672091
12035759 4 18118707614732238740
12422481 6 18270132205816907257
12633257 1 18272938236383599643
12788726 201 18187375285587875202
13140716 1 18269834379404029283
13726171 33 17975173960590850653
13965767 371 17916320354567069683
14178342 30 17984435030940519881
14790565 3 17616813679440787380
14840074 17 18267589190030517092
15238133 3 18114473275273112199
16728300 4 17825652366656805603
17349148 13 17917434297669815671
17357779 13 18342166752828164045
17859628 37 18270127927744461687
20261772 1 18272930527180904416
20600515 1 18339939163781958379
20715895 44 18129952157388704089
20739085 24 18338236084927255276
21304253 335 17559138496773772801
2132832 1 17485342793294815655
22182313 1 17915462697127119910
23227448 37 12103259656077625242
3052486 1 18190760651329466476
3472631 163 14979133379797331627
35225 105 17756394133253501897
4340502 62 17841717301249193865
484985 159 17170656797410859450
513202 73 18192429667674796890
5951187 136 14256889355481643033
7064713 232 17703802396479951041
7097593 13 18048318043925573403
8509985 295 18261119607856800795

> <PUBCHEM_SHAPE_MULTIPOLES>
482.83
8.46
3.21
1.89
0.93
2.38
-0.17
-4.58
5.06
0.05
-0.74
-0.4
-0.41
-0.23

> <PUBCHEM_SHAPE_SELFOVERLAP>
1045.097

> <PUBCHEM_SHAPE_VOLUME>
265.1

> <PUBCHEM_COORDINATE_TYPE>
2
5
10

$$$$
