38028459
  -OEChem-12032416243D

 72 74  0     1  0  0  0  0  0999 V2000
    2.8943   -1.0575    2.2716 O   0  0  0  0  0  0  0  0  0  0  0  0
   -2.3664    0.1477   -2.5885 O   0  0  0  0  0  0  0  0  0  0  0  0
   -2.6754   -1.4507   -0.9329 N   0  0  0  0  0  0  0  0  0  0  0  0
   -3.2886    0.7440   -0.5429 N   0  0  0  0  0  0  0  0  0  0  0  0
    1.5711    0.8403    2.0516 N   0  0  0  0  0  0  0  0  0  0  0  0
    4.9369    2.0663   -0.9696 N   0  0  0  0  0  0  0  0  0  0  0  0
    0.2393   -2.1906   -0.9002 C   0  0  1  0  0  0  0  0  0  0  0  0
   -0.9537   -3.1783   -0.9364 C   0  0  1  0  0  0  0  0  0  0  0  0
    1.2593   -2.6207    0.1650 C   0  0  0  0  0  0  0  0  0  0  0  0
    0.6382   -2.6876    1.5729 C   0  0  2  0  0  0  0  0  0  0  0  0
    0.9283   -2.0812   -2.2640 C   0  0  0  0  0  0  0  0  0  0  0  0
   -0.6870   -3.4223    1.5695 C   0  0  0  0  0  0  0  0  0  0  0  0
   -1.3775   -3.6440    0.4370 C   0  0  0  0  0  0  0  0  0  0  0  0
   -2.1573   -2.5658   -1.6617 C   0  0  0  0  0  0  0  0  0  0  0  0
    0.4877   -1.2872    2.1774 C   0  0  0  0  0  0  0  0  0  0  0  0
    1.6526   -0.7444   -2.3883 C   0  0  0  0  0  0  0  0  0  0  0  0
    1.8970   -3.2420   -2.4653 C   0  0  0  0  0  0  0  0  0  0  0  0
   -1.1792   -3.9371    2.8935 C   0  0  0  0  0  0  0  0  0  0  0  0
   -3.4732    2.1496   -0.8281 C   0  0  0  0  0  0  0  0  0  0  0  0
   -4.7048    2.7017   -0.1024 C   0  0  0  0  0  0  0  0  0  0  0  0
   -2.2158    2.9526   -0.4779 C   0  0  0  0  0  0  0  0  0  0  0  0
    1.7927   -0.5235    2.1748 C   0  0  0  0  0  0  0  0  0  0  0  0
   -4.4878    2.8273    1.4055 C   0  0  0  0  0  0  0  0  0  0  0  0
   -2.0029    3.0777    1.0307 C   0  0  0  0  0  0  0  0  0  0  0  0
   -3.2375    3.6395    1.7289 C   0  0  0  0  0  0  0  0  0  0  0  0
   -2.7440   -0.1537   -1.4571 C   0  0  0  0  0  0  0  0  0  0  0  0
    2.6384    1.8138    2.0225 C   0  0  0  0  0  0  0  0  0  0  0  0
    3.1200    2.0780    0.6252 C   0  0  0  0  0  0  0  0  0  0  0  0
    2.2565    2.5627   -0.3510 C   0  0  0  0  0  0  0  0  0  0  0  0
    4.4389    1.8482    0.2682 C   0  0  0  0  0  0  0  0  0  0  0  0
    2.7317    2.7995   -1.6361 C   0  0  0  0  0  0  0  0  0  0  0  0
    4.0681    2.5376   -1.8919 C   0  0  0  0  0  0  0  0  0  0  0  0
   -0.1318   -1.1964   -0.6219 H   0  0  0  0  0  0  0  0  0  0  0  0
   -0.6656   -4.0812   -1.4894 H   0  0  0  0  0  0  0  0  0  0  0  0
    2.1467   -1.9844    0.1404 H   0  0  0  0  0  0  0  0  0  0  0  0
    1.6151   -3.6393   -0.0416 H   0  0  0  0  0  0  0  0  0  0  0  0
    1.3419   -3.2573    2.1963 H   0  0  0  0  0  0  0  0  0  0  0  0
    0.1878   -2.1141   -3.0698 H   0  0  0  0  0  0  0  0  0  0  0  0
   -2.3004   -4.2186    0.4881 H   0  0  0  0  0  0  0  0  0  0  0  0
   -2.9698   -3.2993   -1.7304 H   0  0  0  0  0  0  0  0  0  0  0  0
   -1.9126   -2.2761   -2.6871 H   0  0  0  0  0  0  0  0  0  0  0  0
    0.1642   -1.3520    3.2235 H   0  0  0  0  0  0  0  0  0  0  0  0
   -0.2847   -0.7216    1.6417 H   0  0  0  0  0  0  0  0  0  0  0  0
    2.4446   -0.6299   -1.6420 H   0  0  0  0  0  0  0  0  0  0  0  0
    0.9524    0.0899   -2.2735 H   0  0  0  0  0  0  0  0  0  0  0  0
    2.1161   -0.6502   -3.3765 H   0  0  0  0  0  0  0  0  0  0  0  0
    2.8045   -3.1565   -1.8585 H   0  0  0  0  0  0  0  0  0  0  0  0
    2.2369   -3.2495   -3.5085 H   0  0  0  0  0  0  0  0  0  0  0  0
    1.4327   -4.2161   -2.2856 H   0  0  0  0  0  0  0  0  0  0  0  0
   -0.4255   -4.5845    3.3533 H   0  0  0  0  0  0  0  0  0  0  0  0
   -2.0989   -4.5232    2.7921 H   0  0  0  0  0  0  0  0  0  0  0  0
   -1.3911   -3.1087    3.5761 H   0  0  0  0  0  0  0  0  0  0  0  0
   -3.0763   -1.6128   -0.0141 H   0  0  0  0  0  0  0  0  0  0  0  0
   -3.6443    2.2407   -1.9079 H   0  0  0  0  0  0  0  0  0  0  0  0
   -5.5763    2.0636   -0.2921 H   0  0  0  0  0  0  0  0  0  0  0  0
   -4.9424    3.6935   -0.5078 H   0  0  0  0  0  0  0  0  0  0  0  0
   -2.3063    3.9597   -0.9047 H   0  0  0  0  0  0  0  0  0  0  0  0
   -1.3287    2.4954   -0.9324 H   0  0  0  0  0  0  0  0  0  0  0  0
   -4.4064    1.8322    1.8584 H   0  0  0  0  0  0  0  0  0  0  0  0
   -5.3622    3.3072    1.8602 H   0  0  0  0  0  0  0  0  0  0  0  0
   -1.1421    3.7273    1.2266 H   0  0  0  0  0  0  0  0  0  0  0  0
   -1.7591    2.0948    1.4522 H   0  0  0  0  0  0  0  0  0  0  0  0
   -3.3892    4.6806    1.4179 H   0  0  0  0  0  0  0  0  0  0  0  0
   -3.0751    3.6513    2.8126 H   0  0  0  0  0  0  0  0  0  0  0  0
   -3.4949    0.4034    0.3909 H   0  0  0  0  0  0  0  0  0  0  0  0
    0.6201    1.1885    1.9734 H   0  0  0  0  0  0  0  0  0  0  0  0
    3.4566    1.4603    2.6602 H   0  0  0  0  0  0  0  0  0  0  0  0
    2.2555    2.7423    2.4604 H   0  0  0  0  0  0  0  0  0  0  0  0
    1.2135    2.7628   -0.1224 H   0  0  0  0  0  0  0  0  0  0  0  0
    5.1618    1.4695    0.9842 H   0  0  0  0  0  0  0  0  0  0  0  0
    2.0764    3.1766   -2.4129 H   0  0  0  0  0  0  0  0  0  0  0  0
    4.4877    2.7050   -2.8784 H   0  0  0  0  0  0  0  0  0  0  0  0
  1 22  2  0  0  0  0
  2 26  2  0  0  0  0
  3 14  1  0  0  0  0
  3 26  1  0  0  0  0
  3 53  1  0  0  0  0
  4 19  1  0  0  0  0
  4 26  1  0  0  0  0
  4 65  1  0  0  0  0
  5 22  1  0  0  0  0
  5 27  1  0  0  0  0
  5 66  1  0  0  0  0
  6 30  1  0  0  0  0
  6 32  2  0  0  0  0
  7  8  1  0  0  0  0
  7  9  1  0  0  0  0
  7 11  1  0  0  0  0
  7 33  1  0  0  0  0
  8 13  1  0  0  0  0
  8 14  1  0  0  0  0
  8 34  1  0  0  0  0
  9 10  1  0  0  0  0
  9 35  1  0  0  0  0
  9 36  1  0  0  0  0
 10 12  1  0  0  0  0
 10 15  1  0  0  0  0
 10 37  1  0  0  0  0
 11 16  1  0  0  0  0
 11 17  1  0  0  0  0
 11 38  1  0  0  0  0
 12 13  2  0  0  0  0
 12 18  1  0  0  0  0
 13 39  1  0  0  0  0
 14 40  1  0  0  0  0
 14 41  1  0  0  0  0
 15 22  1  0  0  0  0
 15 42  1  0  0  0  0
 15 43  1  0  0  0  0
 16 44  1  0  0  0  0
 16 45  1  0  0  0  0
 16 46  1  0  0  0  0
 17 47  1  0  0  0  0
 17 48  1  0  0  0  0
 17 49  1  0  0  0  0
 18 50  1  0  0  0  0
 18 51  1  0  0  0  0
 18 52  1  0  0  0  0
 19 20  1  0  0  0  0
 19 21  1  0  0  0  0
 19 54  1  0  0  0  0
 20 23  1  0  0  0  0
 20 55  1  0  0  0  0
 20 56  1  0  0  0  0
 21 24  1  0  0  0  0
 21 57  1  0  0  0  0
 21 58  1  0  0  0  0
 23 25  1  0  0  0  0
 23 59  1  0  0  0  0
 23 60  1  0  0  0  0
 24 25  1  0  0  0  0
 24 61  1  0  0  0  0
 24 62  1  0  0  0  0
 25 63  1  0  0  0  0
 25 64  1  0  0  0  0
 27 28  1  0  0  0  0
 27 67  1  0  0  0  0
 27 68  1  0  0  0  0
 28 29  1  0  0  0  0
 28 30  2  0  0  0  0
 29 31  2  0  0  0  0
 29 69  1  0  0  0  0
 30 70  1  0  0  0  0
 31 32  1  0  0  0  0
 31 71  1  0  0  0  0
 32 72  1  0  0  0  0
M  END
> <PUBCHEM_COMPOUND_CID>
38028459

> <PUBCHEM_CONFORMER_RMSD>
1.2

> <PUBCHEM_CONFORMER_DIVERSEORDER>
1
141
154
165
124
50
110
136
6
92
86
101
80
35
98
126
74
116
77
106
109
145
120
149
52
76
147
161
57
164
33
158
73
114
69
20
132
122
2
119
46
44
28
146
150
84
83
117
62
152
151
17
90
137
34
94
99
163
72
127
148
43
31
160
29
159
157
129
81
70
89
144
108
26
45
118
125
66
37
143
105
71
93
111
23
138
36
10
133
112
121
103
41
79
97
27
75
39
100
88
162
4
60
16
68
85
134
51
82
91
153
8
135
107
139
102
22
25
54
13
9
3
11
130
18
53
47
140
115
65
96
123
7
48
113
42
155
87
67
63
78
40
156
38
15
131
58
12
5
30
61
19
55
128
95
104
64
142
32
59
24
56
21
14
49

> <PUBCHEM_MMFF94_PARTIAL_CHARGES>
30
1 -0.57
10 0.14
12 -0.28
13 -0.29
14 0.3
15 0.06
18 0.14
19 0.3
2 -0.57
22 0.57
26 0.69
27 0.44
28 -0.14
29 -0.15
3 -0.73
30 0.16
31 -0.15
32 0.16
39 0.15
4 -0.73
5 -0.73
53 0.37
6 -0.62
65 0.37
66 0.37
69 0.15
70 0.15
71 0.15
72 0.15
8 0.14

> <PUBCHEM_EFFECTIVE_ROTOR_COUNT>
13

> <PUBCHEM_PHARMACOPHORE_FEATURES>
10
1 1 acceptor
1 2 acceptor
1 3 donor
1 4 donor
1 5 donor
1 6 acceptor
3 11 16 17 hydrophobe
6 19 20 21 23 24 25 rings
6 6 28 29 30 31 32 rings
6 7 8 9 10 12 13 rings

> <PUBCHEM_HEAVY_ATOM_COUNT>
32

> <PUBCHEM_ATOM_DEF_STEREO_COUNT>
3

> <PUBCHEM_ATOM_UDEF_STEREO_COUNT>
0

> <PUBCHEM_BOND_DEF_STEREO_COUNT>
0

> <PUBCHEM_BOND_UDEF_STEREO_COUNT>
0

> <PUBCHEM_ISOTOPIC_ATOM_COUNT>
0

> <PUBCHEM_COMPONENT_COUNT>
1

> <PUBCHEM_CACTVS_TAUTO_COUNT>
6

> <PUBCHEM_CONFORMER_ID>
024444AB00000001

> <PUBCHEM_MMFF94_ENERGY>
50.4456

> <PUBCHEM_FEATURE_SELFOVERLAP>
50.795

> <PUBCHEM_SHAPE_FINGERPRINT>
12156800 1 16737251492551295009
12539773 59 17760889181680374262
12788726 201 18193545899287879019
13642711 20 17399844459617245986
14251757 17 16702304572357192652
14279260 333 17970332927901627544
15210252 30 17407693817298469383
15975801 100 17822864065482521644
16067690 210 17974572708155500228
21315764 21 13542453281216254345
22121540 332 18052854517665411387
3493558 16 18058438812737301062
35225 105 17827903337467001052
50150288 127 16817202588214341205
6287921 2 18056188073648461273

> <PUBCHEM_SHAPE_MULTIPOLES>
626.88
7.59
6.61
3.14
2.47
2.07
0.41
-11.21
-0.91
0.92
1.04
-1.09
1.85
-1.06

> <PUBCHEM_SHAPE_SELFOVERLAP>
1286.787

> <PUBCHEM_SHAPE_VOLUME>
356.4

> <PUBCHEM_COORDINATE_TYPE>
2
5
10

$$$$
