44716910
  -OEChem-12032416133D

 75 78  0     1  0  0  0  0  0999 V2000
    3.2286   -0.6780    0.2763 O   0  0  0  0  0  0  0  0  0  0  0  0
   -3.6372   -2.9500    0.6723 O   0  0  0  0  0  0  0  0  0  0  0  0
    3.0500   -3.3894    0.6687 O   0  0  0  0  0  0  0  0  0  0  0  0
   -4.5627    0.2466   -1.4439 O   0  0  0  0  0  0  0  0  0  0  0  0
    3.5568    1.3111   -0.8033 O   0  0  0  0  0  0  0  0  0  0  0  0
   -5.7786    2.5300   -2.4629 O   0  0  0  0  0  0  0  0  0  0  0  0
   -5.4694    1.3477    0.3782 N   0  0  0  0  0  0  0  0  0  0  0  0
    5.2806    0.2177    0.3429 N   0  0  0  0  0  0  0  0  0  0  0  0
   -1.0844   -1.1312    0.4554 C   0  0  2  0  0  0  0  0  0  0  0  0
   -0.2600   -2.0135   -0.5601 C   0  0  1  0  0  0  0  0  0  0  0  0
    1.2955   -2.1030   -0.3188 C   0  0  1  0  0  0  0  0  0  0  0  0
   -2.5285   -0.9358   -0.1681 C   0  0  1  0  0  0  0  0  0  0  0  0
   -0.3910    0.2522    0.5798 C   0  0  0  0  0  0  0  0  0  0  0  0
   -0.9543   -3.3723   -0.7996 C   0  0  0  0  0  0  0  0  0  0  0  0
    1.8602   -0.6625   -0.1296 C   0  0  1  0  0  0  0  0  0  0  0  0
   -3.2358   -2.2674   -0.5113 C   0  0  1  0  0  0  0  0  0  0  0  0
    1.0977    0.1677    0.8971 C   0  0  0  0  0  0  0  0  0  0  0  0
   -2.3629   -3.1838   -1.3640 C   0  0  0  0  0  0  0  0  0  0  0  0
   -1.1830   -1.7463    1.8726 C   0  0  0  0  0  0  0  0  0  0  0  0
   -3.4714   -0.0406    0.6522 C   0  0  0  0  0  0  0  0  0  0  0  0
    1.6997   -3.0238    0.8507 C   0  0  0  0  0  0  0  0  0  0  0  0
    1.9728   -2.7059   -1.5837 C   0  0  0  0  0  0  0  0  0  0  0  0
   -4.5458    0.5229   -0.2433 C   0  0  0  0  0  0  0  0  0  0  0  0
   -6.6312    1.9000   -0.3220 C   0  0  1  0  0  0  0  0  0  0  0  0
    3.9935    0.3856   -0.1300 C   0  0  0  0  0  0  0  0  0  0  0  0
   -5.4881    1.7021    1.7952 C   0  0  0  0  0  0  0  0  0  0  0  0
   -7.5605    2.3452    0.8099 C   0  0  0  0  0  0  0  0  0  0  0  0
   -6.5969    2.7351    1.9247 C   0  0  0  0  0  0  0  0  0  0  0  0
   -6.2343    3.0605   -1.2326 C   0  0  0  0  0  0  0  0  0  0  0  0
    6.3926    1.0711    0.1615 C   0  0  0  0  0  0  0  0  0  0  0  0
    7.6270    0.7358    0.7180 C   0  0  0  0  0  0  0  0  0  0  0  0
    6.2558    2.2484   -0.5737 C   0  0  0  0  0  0  0  0  0  0  0  0
    8.7245    1.5780    0.5394 C   0  0  0  0  0  0  0  0  0  0  0  0
    7.3532    3.0906   -0.7524 C   0  0  0  0  0  0  0  0  0  0  0  0
    8.5876    2.7554   -0.1958 C   0  0  0  0  0  0  0  0  0  0  0  0
   -0.3430   -1.4802   -1.5223 H   0  0  0  0  0  0  0  0  0  0  0  0
   -2.3445   -0.4345   -1.1309 H   0  0  0  0  0  0  0  0  0  0  0  0
   -0.8599    0.8549    1.3655 H   0  0  0  0  0  0  0  0  0  0  0  0
   -0.5133    0.8122   -0.3567 H   0  0  0  0  0  0  0  0  0  0  0  0
   -1.0032   -3.9642    0.1193 H   0  0  0  0  0  0  0  0  0  0  0  0
   -0.3921   -3.9732   -1.5213 H   0  0  0  0  0  0  0  0  0  0  0  0
    1.7677   -0.1610   -1.1040 H   0  0  0  0  0  0  0  0  0  0  0  0
   -4.1565   -2.0810   -1.0726 H   0  0  0  0  0  0  0  0  0  0  0  0
    1.2657   -0.2215    1.9073 H   0  0  0  0  0  0  0  0  0  0  0  0
    1.5039    1.1867    0.9271 H   0  0  0  0  0  0  0  0  0  0  0  0
   -2.8336   -4.1691   -1.4639 H   0  0  0  0  0  0  0  0  0  0  0  0
   -2.2829   -2.7617   -2.3738 H   0  0  0  0  0  0  0  0  0  0  0  0
   -0.2313   -1.7366    2.4041 H   0  0  0  0  0  0  0  0  0  0  0  0
   -1.8765   -1.1785    2.5021 H   0  0  0  0  0  0  0  0  0  0  0  0
   -1.5234   -2.7832    1.8669 H   0  0  0  0  0  0  0  0  0  0  0  0
   -3.9331   -0.5876    1.4799 H   0  0  0  0  0  0  0  0  0  0  0  0
   -2.9338    0.8138    1.0691 H   0  0  0  0  0  0  0  0  0  0  0  0
    1.6113   -2.5368    1.8226 H   0  0  0  0  0  0  0  0  0  0  0  0
    1.1109   -3.9445    0.8673 H   0  0  0  0  0  0  0  0  0  0  0  0
    1.7889   -3.7815   -1.6782 H   0  0  0  0  0  0  0  0  0  0  0  0
    1.5925   -2.2268   -2.4938 H   0  0  0  0  0  0  0  0  0  0  0  0
    3.0586   -2.5543   -1.5922 H   0  0  0  0  0  0  0  0  0  0  0  0
   -4.0965   -3.7639    0.4043 H   0  0  0  0  0  0  0  0  0  0  0  0
    3.2940   -3.9729    1.4072 H   0  0  0  0  0  0  0  0  0  0  0  0
   -7.0939    1.1024   -0.9160 H   0  0  0  0  0  0  0  0  0  0  0  0
   -4.5173    2.0891    2.1161 H   0  0  0  0  0  0  0  0  0  0  0  0
   -5.7198    0.7966    2.3663 H   0  0  0  0  0  0  0  0  0  0  0  0
   -8.1687    1.4944    1.1424 H   0  0  0  0  0  0  0  0  0  0  0  0
   -8.2410    3.1556    0.5332 H   0  0  0  0  0  0  0  0  0  0  0  0
   -7.0628    2.7298    2.9139 H   0  0  0  0  0  0  0  0  0  0  0  0
   -6.1996    3.7401    1.7391 H   0  0  0  0  0  0  0  0  0  0  0  0
   -7.0993    3.6939   -1.4538 H   0  0  0  0  0  0  0  0  0  0  0  0
   -5.4431    3.6787   -0.7957 H   0  0  0  0  0  0  0  0  0  0  0  0
    5.4527   -0.6227    0.8893 H   0  0  0  0  0  0  0  0  0  0  0  0
   -5.5369    3.2829   -3.0288 H   0  0  0  0  0  0  0  0  0  0  0  0
    7.7472   -0.1787    1.2932 H   0  0  0  0  0  0  0  0  0  0  0  0
    5.3328    2.5732   -1.0336 H   0  0  0  0  0  0  0  0  0  0  0  0
    9.6856    1.3171    0.9727 H   0  0  0  0  0  0  0  0  0  0  0  0
    7.2479    4.0078   -1.3247 H   0  0  0  0  0  0  0  0  0  0  0  0
    9.4421    3.4112   -0.3350 H   0  0  0  0  0  0  0  0  0  0  0  0
  1 15  1  0  0  0  0
  1 25  1  0  0  0  0
  2 16  1  0  0  0  0
  2 58  1  0  0  0  0
  3 21  1  0  0  0  0
  3 59  1  0  0  0  0
  4 23  2  0  0  0  0
  5 25  2  0  0  0  0
  6 29  1  0  0  0  0
  6 70  1  0  0  0  0
  7 23  1  0  0  0  0
  7 24  1  0  0  0  0
  7 26  1  0  0  0  0
  8 25  1  0  0  0  0
  8 30  1  0  0  0  0
  8 69  1  0  0  0  0
  9 10  1  0  0  0  0
  9 12  1  0  0  0  0
  9 13  1  0  0  0  0
  9 19  1  0  0  0  0
 10 11  1  0  0  0  0
 10 14  1  0  0  0  0
 10 36  1  0  0  0  0
 11 15  1  0  0  0  0
 11 21  1  0  0  0  0
 11 22  1  0  0  0  0
 12 16  1  0  0  0  0
 12 20  1  0  0  0  0
 12 37  1  0  0  0  0
 13 17  1  0  0  0  0
 13 38  1  0  0  0  0
 13 39  1  0  0  0  0
 14 18  1  0  0  0  0
 14 40  1  0  0  0  0
 14 41  1  0  0  0  0
 15 17  1  0  0  0  0
 15 42  1  0  0  0  0
 16 18  1  0  0  0  0
 16 43  1  0  0  0  0
 17 44  1  0  0  0  0
 17 45  1  0  0  0  0
 18 46  1  0  0  0  0
 18 47  1  0  0  0  0
 19 48  1  0  0  0  0
 19 49  1  0  0  0  0
 19 50  1  0  0  0  0
 20 23  1  0  0  0  0
 20 51  1  0  0  0  0
 20 52  1  0  0  0  0
 21 53  1  0  0  0  0
 21 54  1  0  0  0  0
 22 55  1  0  0  0  0
 22 56  1  0  0  0  0
 22 57  1  0  0  0  0
 24 27  1  0  0  0  0
 24 29  1  0  0  0  0
 24 60  1  0  0  0  0
 26 28  1  0  0  0  0
 26 61  1  0  0  0  0
 26 62  1  0  0  0  0
 27 28  1  0  0  0  0
 27 63  1  0  0  0  0
 27 64  1  0  0  0  0
 28 65  1  0  0  0  0
 28 66  1  0  0  0  0
 29 67  1  0  0  0  0
 29 68  1  0  0  0  0
 30 31  2  0  0  0  0
 30 32  1  0  0  0  0
 31 33  1  0  0  0  0
 31 71  1  0  0  0  0
 32 34  2  0  0  0  0
 32 72  1  0  0  0  0
 33 35  2  0  0  0  0
 33 73  1  0  0  0  0
 34 35  1  0  0  0  0
 34 74  1  0  0  0  0
 35 75  1  0  0  0  0
M  END
> <PUBCHEM_COMPOUND_CID>
44716910

> <PUBCHEM_CONFORMER_RMSD>
1.2

> <PUBCHEM_CONFORMER_DIVERSEORDER>
1
30
24
34
31
27
20
21
25
15
22
35
4
29
32
16
17
10
19
5
26
14
33
28
18
12
11
13
23
9
8
7
2
3
6

> <PUBCHEM_MMFF94_PARTIAL_CHARGES>
32
1 -0.43
15 0.28
16 0.28
2 -0.68
20 0.06
21 0.28
23 0.57
24 0.3
25 0.78
26 0.3
29 0.28
3 -0.68
30 0.12
31 -0.15
32 -0.15
33 -0.15
34 -0.15
35 -0.15
4 -0.57
5 -0.57
58 0.4
59 0.4
6 -0.68
69 0.37
7 -0.66
70 0.4
71 0.15
72 0.15
73 0.15
74 0.15
75 0.15
8 -0.55

> <PUBCHEM_EFFECTIVE_ROTOR_COUNT>
11.6

> <PUBCHEM_PHARMACOPHORE_FEATURES>
13
1 2 acceptor
1 2 donor
1 3 acceptor
1 3 donor
1 4 acceptor
1 5 acceptor
1 6 acceptor
1 6 donor
1 8 donor
5 7 24 26 27 28 rings
6 30 31 32 33 34 35 rings
6 9 10 11 13 15 17 rings
6 9 10 12 14 16 18 rings

> <PUBCHEM_HEAVY_ATOM_COUNT>
35

> <PUBCHEM_ATOM_DEF_STEREO_COUNT>
6

> <PUBCHEM_ATOM_UDEF_STEREO_COUNT>
1

> <PUBCHEM_BOND_DEF_STEREO_COUNT>
0

> <PUBCHEM_BOND_UDEF_STEREO_COUNT>
0

> <PUBCHEM_ISOTOPIC_ATOM_COUNT>
0

> <PUBCHEM_COMPONENT_COUNT>
1

> <PUBCHEM_CACTVS_TAUTO_COUNT>
2

> <PUBCHEM_CONFORMER_ID>
02AA536E00000001

> <PUBCHEM_MMFF94_ENERGY>
119.9713

> <PUBCHEM_FEATURE_SELFOVERLAP>
65.993

> <PUBCHEM_SHAPE_FINGERPRINT>
10050765 1 18411139125602633750
10190206 1 18272077345556820287
10369192 42 18411422787608306653
10533779 1 18340195336880429752
10675989 125 18197223533501757339
10906281 52 18059579036180598083
10930396 42 16950285110036169757
11297750 10 17608933080557141534
11475781 23 18130517396496553132
11578080 2 18410292501669813126
117089 54 10447342364242905005
1200032 147 18409452466464848034
12236239 1 18262796402271379178
12760667 363 9079110060393970013
12895837 130 18339083794990280589
12975358 362 18189633656771401485
13248334 5 18053107224550895798
13540713 4 18198646409154942903
13540713 5 18339625794083812782
13726171 33 18342747299716531403
14040222 383 18342736368465340385
14150022 121 18337117882076957427
14394314 77 18335419115000186384
15347591 1 18413392038076618918
15439362 3 18412547592241148430
15510800 12 10807923864986218621
15685185 35 18273501178343737801
1577012 14 18334292115776329792
15803439 3 16200432472330179804
15840311 113 18336270037381887510
16067689 68 13767923490626035497
16126227 98 18342462538910367249
16992727 255 18413109493974291808
17980427 23 17968380160125918854
19302320 297 17968104144063970244
19303781 99 9295280612787179617
19438510 23 18408608058382379698
20554085 129 17917419926967570306
21033648 144 18336825300208771879
21033648 29 17532093796433140237
21033650 10 15698007289019387403
21298829 104 18413110558799094408
21756936 100 18040151846923174843
21814621 53 16299500570279471696
23516275 100 18116707409935244309
23522609 53 17058098688991132209
249057 25 17460039697876508830
25269216 80 16558736928988765333
2747138 104 10881397664919343556
3411729 13 18409731734187479738
3633792 109 18201445753749005850
3918712 181 18342735248218244464
393628 194 18342744009513827297
4169191 19 18410290289988398065
4756326 101 16516788279903609877
504843 32 18342175608903834391
5104073 3 18113618980028924594
5470011 282 12463562998314011040
563151 74 17313106328259367936
563151 97 18410284848138604006
5776283 40 17988923375418984121
6327066 14 18413107255731366989
636775 8 8430325662667803056
9896288 288 18263648535561155770

> <PUBCHEM_SHAPE_MULTIPOLES>
675.11
23.73
4.71
1.5
26.73
1.57
0.13
-34.98
-0.46
-1.98
0.84
-2.35
-0.37
-1.02

> <PUBCHEM_SHAPE_SELFOVERLAP>
1419.893

> <PUBCHEM_SHAPE_VOLUME>
375.6

> <PUBCHEM_COORDINATE_TYPE>
2
5
10

$$$$
