75536051
  -OEChem-12032416383D

 41 42  0     1  0  0  0  0  0999 V2000
    4.5188    1.6089   -0.0507 S   0  0  0  0  0  0  0  0  0  0  0  0
    4.8676    1.9790    1.3082 O   0  0  0  0  0  0  0  0  0  0  0  0
    4.2575    2.6188   -1.0591 O   0  0  0  0  0  0  0  0  0  0  0  0
    0.5288   -0.4136    1.4490 O   0  0  0  0  0  0  0  0  0  0  0  0
   -1.5459   -1.0035   -1.5204 O   0  0  0  0  0  0  0  0  0  0  0  0
    3.2302    0.5036   -0.0173 N   0  0  2  0  0  0  0  0  0  0  0  0
    0.0757   -2.3585    0.2615 N   0  0  0  0  0  0  0  0  0  0  0  0
   -1.2818   -2.2423    0.4241 N   0  0  0  0  0  0  0  0  0  0  0  0
    2.3489   -1.6450    0.5175 C   0  0  1  0  0  0  0  0  0  0  0  0
    2.6376   -1.6158   -0.9730 C   0  0  0  0  0  0  0  0  0  0  0  0
    3.2196   -0.5215    1.0637 C   0  0  0  0  0  0  0  0  0  0  0  0
    2.8183   -0.1368   -1.2974 C   0  0  0  0  0  0  0  0  0  0  0  0
    0.8988   -1.3958    0.8096 C   0  0  0  0  0  0  0  0  0  0  0  0
    5.8038    0.5490   -0.6681 C   0  0  0  0  0  0  0  0  0  0  0  0
   -2.0112   -1.5456   -0.5192 C   0  0  0  0  0  0  0  0  0  0  0  0
   -3.4942   -1.5221   -0.2136 C   0  0  0  0  0  0  0  0  0  0  0  0
   -4.0052   -0.1142   -0.0607 C   0  0  0  0  0  0  0  0  0  0  0  0
   -3.9991    0.4980    1.1927 C   0  0  0  0  0  0  0  0  0  0  0  0
   -4.4848    0.5780   -1.1725 C   0  0  0  0  0  0  0  0  0  0  0  0
   -4.4727    1.8024    1.3343 C   0  0  0  0  0  0  0  0  0  0  0  0
   -4.9584    1.8824   -1.0311 C   0  0  0  0  0  0  0  0  0  0  0  0
   -4.9523    2.4945    0.2223 C   0  0  0  0  0  0  0  0  0  0  0  0
    2.6187   -2.6074    0.9671 H   0  0  0  0  0  0  0  0  0  0  0  0
    1.8745   -2.0722   -1.6095 H   0  0  0  0  0  0  0  0  0  0  0  0
    3.5819   -2.1406   -1.1663 H   0  0  0  0  0  0  0  0  0  0  0  0
    2.8544   -0.0857    1.9980 H   0  0  0  0  0  0  0  0  0  0  0  0
    4.2302   -0.9035    1.2382 H   0  0  0  0  0  0  0  0  0  0  0  0
    3.5175    0.0104   -2.1216 H   0  0  0  0  0  0  0  0  0  0  0  0
    1.8605    0.3066   -1.5934 H   0  0  0  0  0  0  0  0  0  0  0  0
    6.7283    1.1334   -0.6682 H   0  0  0  0  0  0  0  0  0  0  0  0
    5.9369   -0.3106   -0.0117 H   0  0  0  0  0  0  0  0  0  0  0  0
    5.5927    0.2393   -1.6908 H   0  0  0  0  0  0  0  0  0  0  0  0
    0.4072   -3.1761   -0.2393 H   0  0  0  0  0  0  0  0  0  0  0  0
   -1.6828   -2.6887    1.2420 H   0  0  0  0  0  0  0  0  0  0  0  0
   -4.0148   -2.0327   -1.0333 H   0  0  0  0  0  0  0  0  0  0  0  0
   -3.7228   -2.0995    0.6903 H   0  0  0  0  0  0  0  0  0  0  0  0
   -3.6259   -0.0306    2.0659 H   0  0  0  0  0  0  0  0  0  0  0  0
   -4.4936    0.1127   -2.1546 H   0  0  0  0  0  0  0  0  0  0  0  0
   -4.4674    2.2793    2.3100 H   0  0  0  0  0  0  0  0  0  0  0  0
   -5.3315    2.4217   -1.8968 H   0  0  0  0  0  0  0  0  0  0  0  0
   -5.3208    3.5102    0.3323 H   0  0  0  0  0  0  0  0  0  0  0  0
  1  2  2  0  0  0  0
  1  3  2  0  0  0  0
  1  6  1  0  0  0  0
  1 14  1  0  0  0  0
  4 13  2  0  0  0  0
  5 15  2  0  0  0  0
  6 11  1  0  0  0  0
  6 12  1  0  0  0  0
  7  8  1  0  0  0  0
  7 13  1  0  0  0  0
  7 33  1  0  0  0  0
  8 15  1  0  0  0  0
  8 34  1  0  0  0  0
  9 10  1  0  0  0  0
  9 11  1  0  0  0  0
  9 13  1  0  0  0  0
  9 23  1  0  0  0  0
 10 12  1  0  0  0  0
 10 24  1  0  0  0  0
 10 25  1  0  0  0  0
 11 26  1  0  0  0  0
 11 27  1  0  0  0  0
 12 28  1  0  0  0  0
 12 29  1  0  0  0  0
 14 30  1  0  0  0  0
 14 31  1  0  0  0  0
 14 32  1  0  0  0  0
 15 16  1  0  0  0  0
 16 17  1  0  0  0  0
 16 35  1  0  0  0  0
 16 36  1  0  0  0  0
 17 18  2  0  0  0  0
 17 19  1  0  0  0  0
 18 20  1  0  0  0  0
 18 37  1  0  0  0  0
 19 21  2  0  0  0  0
 19 38  1  0  0  0  0
 20 22  2  0  0  0  0
 20 39  1  0  0  0  0
 21 22  1  0  0  0  0
 21 40  1  0  0  0  0
 22 41  1  0  0  0  0
M  END
> <PUBCHEM_COMPOUND_CID>
75536051

> <PUBCHEM_CONFORMER_RMSD>
0.8

> <PUBCHEM_CONFORMER_DIVERSEORDER>
5
15
281
142
295
17
202
140
168
185
63
198
149
200
216
101
345
258
311
74
47
163
234
31
24
175
207
192
176
303
233
332
143
353
250
76
83
43
187
308
81
267
29
116
61
266
193
326
214
144
337
195
20
344
46
242
327
310
135
305
45
261
124
320
172
223
179
126
240
189
23
49
232
155
260
156
208
3
319
285
19
296
58
245
148
26
257
171
97
93
349
247
164
109
162
107
304
206
180
84
265
186
14
132
315
51
306
160
323
1
220
139
36
59
213
230
138
330
331
42
2
85
65
287
268
28
13
119
114
325
269
170
273
35
252
293
299
117
205
174
279
7
122
98
231
95
104
154
209
151
73
210
105
30
294
348
314
34
78
191
283
48
316
77
178
127
169
188
130
262
125
355
159
334
181
173
340
211
86
55
184
106
342
147
351
329
248
99
196
92
201
102
22
4
346
286
225
251
270
129
8
354
64
21
12
246
276
96
336
38
292
221
222
256
94
333
241
318
271
54
57
11
39
278
254
217
120
235
280
137
68
161
297
115
272
50
100
239
167
275
288
53
123
183
165
302
244
322
56
166
204
33
301
71
70
150
284
197
356
103
215
219
309
226
203
212
259
157
62
75
108
352
277
112
350
263
113
158
146
37
243
16
136
80
18
347
118
128
133
67
10
291
66
236
134
25
339
312
111
255
224
313
190
194
27
338
177
91
218
290
238
69
82
152
90
264
328
131
253
121
44
32
141
335
321
324
274
40
87
9
249
182
237
110
317
72
79
289
52
343
227
341
145
300
41
298
6
60
89
229
307
153
199
228
88
282

> <PUBCHEM_MMFF94_PARTIAL_CHARGES>
28
1 1.33
11 0.36
12 0.36
13 0.57
14 0.11
15 0.57
16 0.2
17 -0.14
18 -0.15
19 -0.15
2 -0.65
20 -0.15
21 -0.15
22 -0.15
3 -0.65
33 0.37
34 0.37
37 0.15
38 0.15
39 0.15
4 -0.57
40 0.15
41 0.15
5 -0.57
6 -0.85
7 -0.43
8 -0.43
9 0.06

> <PUBCHEM_EFFECTIVE_ROTOR_COUNT>
8

> <PUBCHEM_PHARMACOPHORE_FEATURES>
8
1 2 acceptor
1 3 acceptor
1 4 acceptor
1 5 acceptor
1 7 donor
1 8 donor
5 6 9 10 11 12 rings
6 17 18 19 20 21 22 rings

> <PUBCHEM_HEAVY_ATOM_COUNT>
22

> <PUBCHEM_ATOM_DEF_STEREO_COUNT>
1

> <PUBCHEM_ATOM_UDEF_STEREO_COUNT>
0

> <PUBCHEM_BOND_DEF_STEREO_COUNT>
0

> <PUBCHEM_BOND_UDEF_STEREO_COUNT>
0

> <PUBCHEM_ISOTOPIC_ATOM_COUNT>
0

> <PUBCHEM_COMPONENT_COUNT>
1

> <PUBCHEM_CACTVS_TAUTO_COUNT>
4

> <PUBCHEM_CONFORMER_ID>
048096B300000005

> <PUBCHEM_MMFF94_ENERGY>
44.4945

> <PUBCHEM_FEATURE_SELFOVERLAP>
42.159

> <PUBCHEM_SHAPE_FINGERPRINT>
10042902 136 9511463342176621840
10498660 4 18341610387265212145
10928967 22 9367344864188011185
11069576 57 14979132262936919460
11796584 16 9006518111915134378
12390115 104 18335710454841256967
12422481 6 17604415328584853188
12633257 1 17531797082596062724
13103583 49 11386635278905273735
13590594 115 17901384490194771906
1420 369 9079110068551283913
14251740 57 8646473133579202317
14251751 18 7925915876302100132
14251764 38 18052255391086605624
14251764 75 18340497672972129417
14848178 5 9583513183893499813
14848178 96 18411980230648607249
14950920 106 14418145027680715277
15163728 17 18271259290749744478
15183329 4 18271531910105205782
15239154 128 18408324359008130975
17349148 13 10303809916975594717
17780758 139 11963383034140568751
17959699 21 18341335573835544578
193927 3 9871746914287945725
20645477 70 12751226034823615718
21033648 29 16733825269112995173
21069387 34 11527942378877181679
21503847 285 18261676956698302878
21864079 5 18408039594070679795
235170 7 15267334111657270209
23559900 14 17988084379237933622
2838139 119 18202279217078703092
312425 54 11386357145381152839
312425 83 17489594437017804341
316301 35 9367347016150794844
3472631 163 18341331107122350053
44062 13 10591771969783646067
46194498 28 16772101673234747088
5104073 3 18040713653972560803
57724786 102 18125448505962990033
633830 44 18270399374278926415
76465 3 9367340436187141515
7808743 9 18410009970315367275
7970288 3 9583219657518768213
88748 71 10231751210810000141
960060 61 15267345110867996568

> <PUBCHEM_SHAPE_MULTIPOLES>
418.18
13.78
2.85
1.4
0.38
0.56
0.02
11.2
-1.03
-0.07
0.04
-0.15
0.22
-0.42

> <PUBCHEM_SHAPE_SELFOVERLAP>
854.74

> <PUBCHEM_SHAPE_VOLUME>
242.8

> <PUBCHEM_COORDINATE_TYPE>
2
5
10

$$$$
