45361614
  -OEChem-12032416203D

 74 77  0     1  0  0  0  0  0999 V2000
    1.0865   -0.0796    1.9741 O   0  0  0  0  0  0  0  0  0  0  0  0
    5.2898    2.1782   -0.1801 O   0  0  0  0  0  0  0  0  0  0  0  0
   -4.7095   -1.9199   -1.2126 O   0  0  0  0  0  0  0  0  0  0  0  0
   -3.9094   -0.0386   -0.1189 N   0  0  0  0  0  0  0  0  0  0  0  0
    5.5527    0.0322    0.6697 N   0  0  0  0  0  0  0  0  0  0  0  0
   -6.3650    0.4126    0.8368 N   0  0  0  0  0  0  0  0  0  0  0  0
   -0.0065    1.1945   -1.4548 C   0  0  1  0  0  0  0  0  0  0  0  0
   -0.0760    0.3826   -0.1187 C   0  0  2  0  0  0  0  0  0  0  0  0
   -1.5331    0.3957    0.4683 C   0  0  1  0  0  0  0  0  0  0  0  0
    1.0455    0.8213    0.8665 C   0  0  2  0  0  0  0  0  0  0  0  0
    1.4101    1.0671   -2.0630 C   0  0  0  0  0  0  0  0  0  0  0  0
    2.4501    0.7913    0.2200 C   0  0  1  0  0  0  0  0  0  0  0  0
   -1.0085    0.5894   -2.4651 C   0  0  0  0  0  0  0  0  0  0  0  0
   -2.5422   -0.1447   -0.5836 C   0  0  2  0  0  0  0  0  0  0  0  0
    2.5078    1.5328   -1.1155 C   0  0  0  0  0  0  0  0  0  0  0  0
   -2.4366    0.5511   -1.9404 C   0  0  0  0  0  0  0  0  0  0  0  0
   -0.3288    2.6971   -1.2543 C   0  0  0  0  0  0  0  0  0  0  0  0
    3.5225    1.3503    1.1631 C   0  0  2  0  0  0  0  0  0  0  0  0
   -1.6798   -0.4098    1.7703 C   0  0  0  0  0  0  0  0  0  0  0  0
    3.2412    2.7998    1.5147 C   0  0  0  0  0  0  0  0  0  0  0  0
    4.8661    1.2323    0.4889 C   0  0  0  0  0  0  0  0  0  0  0  0
   -4.8869   -0.9498   -0.4804 C   0  0  0  0  0  0  0  0  0  0  0  0
    6.8807   -0.1440    0.0798 C   0  0  0  0  0  0  0  0  0  0  0  0
    5.0754   -1.1095    1.4587 C   0  0  0  0  0  0  0  0  0  0  0  0
    6.9306   -1.4012   -0.7852 C   0  0  0  0  0  0  0  0  0  0  0  0
    5.0888   -2.3886    0.6233 C   0  0  0  0  0  0  0  0  0  0  0  0
    6.4726   -2.6371    0.0040 C   0  0  0  0  0  0  0  0  0  0  0  0
   -6.2460   -0.6864    0.0587 C   0  0  0  0  0  0  0  0  0  0  0  0
    6.4539   -3.8757   -0.8885 C   0  0  0  0  0  0  0  0  0  0  0  0
   -7.2947   -1.5397   -0.2444 C   0  0  0  0  0  0  0  0  0  0  0  0
   -8.5463   -1.2459    0.2850 C   0  0  0  0  0  0  0  0  0  0  0  0
   -7.5965    0.6660    1.3336 C   0  0  0  0  0  0  0  0  0  0  0  0
   -8.7085   -0.1238    1.0901 C   0  0  0  0  0  0  0  0  0  0  0  0
    0.1309   -0.6718   -0.3631 H   0  0  0  0  0  0  0  0  0  0  0  0
   -1.8060    1.4292    0.7165 H   0  0  0  0  0  0  0  0  0  0  0  0
    0.7881    1.8071    1.2592 H   0  0  0  0  0  0  0  0  0  0  0  0
    1.6030    0.0197   -2.3324 H   0  0  0  0  0  0  0  0  0  0  0  0
    1.4756    1.6394   -2.9974 H   0  0  0  0  0  0  0  0  0  0  0  0
    2.6946   -0.2604    0.0144 H   0  0  0  0  0  0  0  0  0  0  0  0
   -0.7047   -0.4356   -2.7169 H   0  0  0  0  0  0  0  0  0  0  0  0
   -0.9880    1.1546   -3.4057 H   0  0  0  0  0  0  0  0  0  0  0  0
   -2.3262   -1.2108   -0.7394 H   0  0  0  0  0  0  0  0  0  0  0  0
    2.4291    2.6162   -1.0067 H   0  0  0  0  0  0  0  0  0  0  0  0
    3.4570    1.3403   -1.6278 H   0  0  0  0  0  0  0  0  0  0  0  0
   -3.0682    0.0331   -2.6738 H   0  0  0  0  0  0  0  0  0  0  0  0
   -2.8419    1.5683   -1.8763 H   0  0  0  0  0  0  0  0  0  0  0  0
    0.3367    3.1749   -0.5300 H   0  0  0  0  0  0  0  0  0  0  0  0
   -0.2257    3.2424   -2.1998 H   0  0  0  0  0  0  0  0  0  0  0  0
   -1.3478    2.8689   -0.8981 H   0  0  0  0  0  0  0  0  0  0  0  0
    3.5263    0.8300    2.1231 H   0  0  0  0  0  0  0  0  0  0  0  0
   -1.1799    0.0921    2.6034 H   0  0  0  0  0  0  0  0  0  0  0  0
   -2.7267   -0.5078    2.0751 H   0  0  0  0  0  0  0  0  0  0  0  0
   -1.2707   -1.4195    1.6612 H   0  0  0  0  0  0  0  0  0  0  0  0
   -4.1661    0.7666    0.4454 H   0  0  0  0  0  0  0  0  0  0  0  0
    1.2734   -0.9705    1.6322 H   0  0  0  0  0  0  0  0  0  0  0  0
    2.3259    2.9210    2.0999 H   0  0  0  0  0  0  0  0  0  0  0  0
    4.0515    3.1825    2.1495 H   0  0  0  0  0  0  0  0  0  0  0  0
    3.1966    3.4791    0.6602 H   0  0  0  0  0  0  0  0  0  0  0  0
    7.5988   -0.2170    0.9052 H   0  0  0  0  0  0  0  0  0  0  0  0
    7.1601    0.7277   -0.5202 H   0  0  0  0  0  0  0  0  0  0  0  0
    5.7464   -1.2094    2.3201 H   0  0  0  0  0  0  0  0  0  0  0  0
    4.0681   -0.9820    1.8497 H   0  0  0  0  0  0  0  0  0  0  0  0
    7.9506   -1.5485   -1.1587 H   0  0  0  0  0  0  0  0  0  0  0  0
    6.2824   -1.2619   -1.6602 H   0  0  0  0  0  0  0  0  0  0  0  0
    4.3382   -2.3069   -0.1736 H   0  0  0  0  0  0  0  0  0  0  0  0
    4.8004   -3.2390    1.2521 H   0  0  0  0  0  0  0  0  0  0  0  0
    7.1894   -2.8152    0.8166 H   0  0  0  0  0  0  0  0  0  0  0  0
    7.4476   -4.0672   -1.3069 H   0  0  0  0  0  0  0  0  0  0  0  0
    6.1540   -4.7606   -0.3175 H   0  0  0  0  0  0  0  0  0  0  0  0
    5.7529   -3.7567   -1.7216 H   0  0  0  0  0  0  0  0  0  0  0  0
   -7.1691   -2.4152   -0.8722 H   0  0  0  0  0  0  0  0  0  0  0  0
   -9.3939   -1.8900    0.0709 H   0  0  0  0  0  0  0  0  0  0  0  0
   -7.6700    1.5523    1.9552 H   0  0  0  0  0  0  0  0  0  0  0  0
   -9.6749    0.1246    1.5135 H   0  0  0  0  0  0  0  0  0  0  0  0
  1 10  1  0  0  0  0
  1 55  1  0  0  0  0
  2 21  2  0  0  0  0
  3 22  2  0  0  0  0
  4 14  1  0  0  0  0
  4 22  1  0  0  0  0
  4 54  1  0  0  0  0
  5 21  1  0  0  0  0
  5 23  1  0  0  0  0
  5 24  1  0  0  0  0
  6 28  1  0  0  0  0
  6 32  2  0  0  0  0
  7  8  1  0  0  0  0
  7 11  1  0  0  0  0
  7 13  1  0  0  0  0
  7 17  1  0  0  0  0
  8  9  1  0  0  0  0
  8 10  1  0  0  0  0
  8 34  1  0  0  0  0
  9 14  1  0  0  0  0
  9 19  1  0  0  0  0
  9 35  1  0  0  0  0
 10 12  1  0  0  0  0
 10 36  1  0  0  0  0
 11 15  1  0  0  0  0
 11 37  1  0  0  0  0
 11 38  1  0  0  0  0
 12 15  1  0  0  0  0
 12 18  1  0  0  0  0
 12 39  1  0  0  0  0
 13 16  1  0  0  0  0
 13 40  1  0  0  0  0
 13 41  1  0  0  0  0
 14 16  1  0  0  0  0
 14 42  1  0  0  0  0
 15 43  1  0  0  0  0
 15 44  1  0  0  0  0
 16 45  1  0  0  0  0
 16 46  1  0  0  0  0
 17 47  1  0  0  0  0
 17 48  1  0  0  0  0
 17 49  1  0  0  0  0
 18 20  1  0  0  0  0
 18 21  1  0  0  0  0
 18 50  1  0  0  0  0
 19 51  1  0  0  0  0
 19 52  1  0  0  0  0
 19 53  1  0  0  0  0
 20 56  1  0  0  0  0
 20 57  1  0  0  0  0
 20 58  1  0  0  0  0
 22 28  1  0  0  0  0
 23 25  1  0  0  0  0
 23 59  1  0  0  0  0
 23 60  1  0  0  0  0
 24 26  1  0  0  0  0
 24 61  1  0  0  0  0
 24 62  1  0  0  0  0
 25 27  1  0  0  0  0
 25 63  1  0  0  0  0
 25 64  1  0  0  0  0
 26 27  1  0  0  0  0
 26 65  1  0  0  0  0
 26 66  1  0  0  0  0
 27 29  1  0  0  0  0
 27 67  1  0  0  0  0
 28 30  2  0  0  0  0
 29 68  1  0  0  0  0
 29 69  1  0  0  0  0
 29 70  1  0  0  0  0
 30 31  1  0  0  0  0
 30 71  1  0  0  0  0
 31 33  2  0  0  0  0
 31 72  1  0  0  0  0
 32 33  1  0  0  0  0
 32 73  1  0  0  0  0
 33 74  1  0  0  0  0
M  END
> <PUBCHEM_COMPOUND_CID>
45361614

> <PUBCHEM_CONFORMER_RMSD>
1

> <PUBCHEM_CONFORMER_DIVERSEORDER>
1
26
36
39
83
68
77
52
90
47
89
70
95
78
33
23
19
61
34
48
28
81
8
72
15
79
63
14
93
76
74
64
94
80
62
65
96
55
35
60
92
71
53
51
57
18
29
44
31
37
69
6
58
38
13
73
75
7
10
40
46
32
59
67
25
86
85
49
20
97
56
91
30
45
42
84
3
82
41
5
50
24
88
54
43
66
12
22
9
21
17
87
4
27
11
16
2

> <PUBCHEM_MMFF94_PARTIAL_CHARGES>
24
1 -0.68
10 0.28
14 0.3
18 0.06
2 -0.57
21 0.57
22 0.54
23 0.3
24 0.3
28 0.4
3 -0.57
30 -0.15
31 -0.15
32 0.16
33 -0.15
4 -0.73
5 -0.66
54 0.37
55 0.4
6 -0.62
71 0.15
72 0.15
73 0.15
74 0.15

> <PUBCHEM_EFFECTIVE_ROTOR_COUNT>
8.8

> <PUBCHEM_PHARMACOPHORE_FEATURES>
11
1 1 acceptor
1 1 donor
1 2 acceptor
1 20 hydrophobe
1 3 acceptor
1 4 donor
1 6 acceptor
6 5 23 24 25 26 27 rings
6 6 28 30 31 32 33 rings
6 7 8 10 11 12 15 rings
6 7 8 9 13 14 16 rings

> <PUBCHEM_HEAVY_ATOM_COUNT>
33

> <PUBCHEM_ATOM_DEF_STEREO_COUNT>
6

> <PUBCHEM_ATOM_UDEF_STEREO_COUNT>
1

> <PUBCHEM_BOND_DEF_STEREO_COUNT>
0

> <PUBCHEM_BOND_UDEF_STEREO_COUNT>
0

> <PUBCHEM_ISOTOPIC_ATOM_COUNT>
0

> <PUBCHEM_COMPONENT_COUNT>
1

> <PUBCHEM_CACTVS_TAUTO_COUNT>
2

> <PUBCHEM_CONFORMER_ID>
02B429CE00000001

> <PUBCHEM_MMFF94_ENERGY>
92.7471

> <PUBCHEM_FEATURE_SELFOVERLAP>
55.836

> <PUBCHEM_SHAPE_FINGERPRINT>
10 15 15841549699771085336
10076449 9 17676206870646815956
10299344 5 18342738533492919043
10319688 67 14405177352908797023
10533779 47 18411149022129820419
10580692 12 18413107234778886777
11181472 205 18341061756453979753
11331351 85 18261109686467108397
117089 54 17842000980040240398
11719270 70 16271933722222151333
12133447 93 17095515168252111223
12373685 5 16773790390900682671
12522641 24 18342453768228258224
12778500 126 18131351912145621216
13533116 47 18341890818654592752
13617811 41 16153428337917249342
13673619 4 18260825973664281404
13782708 43 18336253583472907126
14347424 109 17989202676893997736
14675020 138 15482675662605883662
15131766 46 17270587307186461568
15183329 4 14562522977708199821
15301273 46 17967809440893039725
15352257 5 18334293184158108691
15669420 48 16515689949017422998
1577012 14 16630238224848815741
16728300 4 17702382841222432158
16728433 281 12830859213466748247
16994733 274 9007060154152648031
19301679 30 17702672030271499614
19315958 150 18337392750823799680
19841028 212 18272652304080941314
20105231 36 17167584886793188843
2026 5 17824250520145326706
20505436 4 17129854183530313556
20554085 129 13758353358259535183
20737093 193 15147770120850839678
21049683 271 14201401603559068671
21130935 74 18341330110727256587
21150785 3 12324240568511964643
21267235 1 16877940551377749589
21344244 181 18113901554838912554
21403212 168 13614519640918091686
21641784 216 15357967924507792086
21781051 124 15575009385543140937
21792934 111 15123237585071721623
21792938 703 17896325886683948723
21792965 25 17911807873406494857
23516275 100 9943512012876169162
23559900 14 17313669368829556140
23569943 247 18188765025204778875
25269216 80 16588027866231675118
2747138 104 16877663483196019353
3383291 50 17240764008265735411
34797466 226 17458064893847450260
3918712 181 13326563103571216770
4093350 32 18114183103125361916
4258327 124 11530776885214099819
445580 167 10737287970032981483
46194498 28 18113332017106752684
5265222 85 11169920494153460337
58260988 647 18338801109555843106
70634741 139 8141789600740232189
86090 222 18113615677837098098
9831232 110 18261670377220011814

> <PUBCHEM_SHAPE_MULTIPOLES>
646.57
24.04
2.78
1.85
29.85
1.22
-0.42
16.51
5.71
-6.03
-0.47
0.17
-0.58
0.7

> <PUBCHEM_SHAPE_SELFOVERLAP>
1354.308

> <PUBCHEM_SHAPE_VOLUME>
360.5

> <PUBCHEM_COORDINATE_TYPE>
2
5
10

$$$$
