75536951
  -OEChem-12032416403D

 40 41  0     1  0  0  0  0  0999 V2000
    3.6588    1.8984    0.6153 O   0  0  0  0  0  0  0  0  0  0  0  0
    5.2066   -0.7854   -1.2170 O   0  0  0  0  0  0  0  0  0  0  0  0
    1.7374   -0.5086    0.1253 N   0  0  2  0  0  0  0  0  0  0  0  0
   -4.5642    0.5087   -0.2793 N   0  0  0  0  0  0  0  0  0  0  0  0
    2.9818   -1.1057   -0.3717 C   0  0  0  0  0  0  0  0  0  0  0  0
    4.2678   -0.2699   -0.2721 C   0  0  2  0  0  0  0  0  0  0  0  0
    1.8995    0.3145    1.3246 C   0  0  0  0  0  0  0  0  0  0  0  0
    0.7245   -1.5466    0.3207 C   0  0  0  0  0  0  0  0  0  0  0  0
    4.0770    1.2131   -0.5604 C   0  0  0  0  0  0  0  0  0  0  0  0
    2.2822    1.7415    0.9300 C   0  0  0  0  0  0  0  0  0  0  0  0
   -0.6713   -1.0048    0.1625 C   0  0  0  0  0  0  0  0  0  0  0  0
   -1.5825   -1.1061    1.2139 C   0  0  0  0  0  0  0  0  0  0  0  0
   -1.0531   -0.4007   -1.0354 C   0  0  0  0  0  0  0  0  0  0  0  0
   -3.2571    0.0001   -0.1309 C   0  0  0  0  0  0  0  0  0  0  0  0
   -2.8753   -0.6038    1.0672 C   0  0  0  0  0  0  0  0  0  0  0  0
   -2.3460    0.1017   -1.1821 C   0  0  0  0  0  0  0  0  0  0  0  0
   -4.9680    1.1448   -1.5175 C   0  0  0  0  0  0  0  0  0  0  0  0
   -5.5183    0.4088    0.8072 C   0  0  0  0  0  0  0  0  0  0  0  0
    2.8240   -1.3829   -1.4230 H   0  0  0  0  0  0  0  0  0  0  0  0
    3.1842   -2.0531    0.1491 H   0  0  0  0  0  0  0  0  0  0  0  0
    4.7045   -0.3902    0.7271 H   0  0  0  0  0  0  0  0  0  0  0  0
    2.6241   -0.1236    2.0215 H   0  0  0  0  0  0  0  0  0  0  0  0
    0.9493    0.3947    1.8663 H   0  0  0  0  0  0  0  0  0  0  0  0
    0.8242   -2.3335   -0.4409 H   0  0  0  0  0  0  0  0  0  0  0  0
    0.8571   -2.0527    1.2864 H   0  0  0  0  0  0  0  0  0  0  0  0
    5.0364    1.6545   -0.8541 H   0  0  0  0  0  0  0  0  0  0  0  0
    3.3881    1.3960   -1.3941 H   0  0  0  0  0  0  0  0  0  0  0  0
    1.6640    2.1193    0.1059 H   0  0  0  0  0  0  0  0  0  0  0  0
    2.0898    2.3978    1.7863 H   0  0  0  0  0  0  0  0  0  0  0  0
   -1.2977   -1.5733    2.1529 H   0  0  0  0  0  0  0  0  0  0  0  0
   -0.3554   -0.3193   -1.8650 H   0  0  0  0  0  0  0  0  0  0  0  0
    5.3510   -1.7233   -1.0040 H   0  0  0  0  0  0  0  0  0  0  0  0
   -3.5465   -0.7066    1.9141 H   0  0  0  0  0  0  0  0  0  0  0  0
   -2.5944    0.5612   -2.1336 H   0  0  0  0  0  0  0  0  0  0  0  0
   -6.0078    1.4882   -1.4759 H   0  0  0  0  0  0  0  0  0  0  0  0
   -4.9045    0.4472   -2.3601 H   0  0  0  0  0  0  0  0  0  0  0  0
   -4.3564    2.0297   -1.7259 H   0  0  0  0  0  0  0  0  0  0  0  0
   -6.4863    0.8457    0.5374 H   0  0  0  0  0  0  0  0  0  0  0  0
   -5.1681    0.9510    1.6926 H   0  0  0  0  0  0  0  0  0  0  0  0
   -5.7118   -0.6373    1.0694 H   0  0  0  0  0  0  0  0  0  0  0  0
  1  9  1  0  0  0  0
  1 10  1  0  0  0  0
  2  6  1  0  0  0  0
  2 32  1  0  0  0  0
  3  5  1  0  0  0  0
  3  7  1  0  0  0  0
  3  8  1  0  0  0  0
  4 14  1  0  0  0  0
  4 17  1  0  0  0  0
  4 18  1  0  0  0  0
  5  6  1  0  0  0  0
  5 19  1  0  0  0  0
  5 20  1  0  0  0  0
  6  9  1  0  0  0  0
  6 21  1  0  0  0  0
  7 10  1  0  0  0  0
  7 22  1  0  0  0  0
  7 23  1  0  0  0  0
  8 11  1  0  0  0  0
  8 24  1  0  0  0  0
  8 25  1  0  0  0  0
  9 26  1  0  0  0  0
  9 27  1  0  0  0  0
 10 28  1  0  0  0  0
 10 29  1  0  0  0  0
 11 12  2  0  0  0  0
 11 13  1  0  0  0  0
 12 15  1  0  0  0  0
 12 30  1  0  0  0  0
 13 16  2  0  0  0  0
 13 31  1  0  0  0  0
 14 15  2  0  0  0  0
 14 16  1  0  0  0  0
 15 33  1  0  0  0  0
 16 34  1  0  0  0  0
 17 35  1  0  0  0  0
 17 36  1  0  0  0  0
 17 37  1  0  0  0  0
 18 38  1  0  0  0  0
 18 39  1  0  0  0  0
 18 40  1  0  0  0  0
M  END
> <PUBCHEM_COMPOUND_CID>
75536951

> <PUBCHEM_CONFORMER_RMSD>
0.6

> <PUBCHEM_CONFORMER_DIVERSEORDER>
1
5
8
54
63
58
53
35
37
56
55
51
50
43
22
33
9
45
7
52
36
19
12
44
49
13
15
46
62
47
24
17
39
32
4
2
6
34
42
41
60
26
48
3
21
27
16
61
11
29
23
18
14
28
38
57
31
30
10
20
40
25
59

> <PUBCHEM_MMFF94_PARTIAL_CHARGES>
23
1 -0.56
10 0.28
11 -0.14
12 -0.15
13 -0.15
14 0.1
15 -0.15
16 -0.15
17 0.37
18 0.37
2 -0.68
3 -0.81
30 0.15
31 0.15
32 0.4
33 0.15
34 0.15
4 -0.84
5 0.27
6 0.28
7 0.27
8 0.41
9 0.28

> <PUBCHEM_EFFECTIVE_ROTOR_COUNT>
4.4

> <PUBCHEM_PHARMACOPHORE_FEATURES>
7
1 1 acceptor
1 2 acceptor
1 2 donor
1 3 cation
1 4 cation
6 11 12 13 14 15 16 rings
7 1 3 5 6 7 9 10 rings

> <PUBCHEM_HEAVY_ATOM_COUNT>
18

> <PUBCHEM_ATOM_DEF_STEREO_COUNT>
1

> <PUBCHEM_ATOM_UDEF_STEREO_COUNT>
0

> <PUBCHEM_BOND_DEF_STEREO_COUNT>
0

> <PUBCHEM_BOND_UDEF_STEREO_COUNT>
0

> <PUBCHEM_ISOTOPIC_ATOM_COUNT>
0

> <PUBCHEM_COMPONENT_COUNT>
1

> <PUBCHEM_CACTVS_TAUTO_COUNT>
1

> <PUBCHEM_CONFORMER_ID>
04809A3700000001

> <PUBCHEM_MMFF94_ENERGY>
66.466

> <PUBCHEM_FEATURE_SELFOVERLAP>
35.521

> <PUBCHEM_SHAPE_FINGERPRINT>
10498660 4 18187639215307060461
11471102 20 18273217508595832306
11543360 7 17988911302312912863
11595378 159 15140952916471326629
11796584 16 13039185888281019789
12236239 1 16774078457671029174
12363563 72 11815618626632148139
12403259 415 18260266339641708409
12730499 353 18408610253274490171
12969540 114 18261658325641726951
13544653 18 8935001481924655555
14251751 18 12607395607369210197
14252887 29 8502377745528901510
14341114 328 14634871963385703512
14787075 74 13984668070167049581
16752209 62 14908185231198089447
17834072 33 18202560713651576247
17834072 8 18271816717907660950
18186145 218 18343291574666540515
192875 21 16415482657567463032
19784866 170 17095526171436259003
19862831 5 16988561329141376043
200 152 16702302347431770707
20374829 77 13183016315909381767
20432913 95 8070027778965201701
20612939 158 18130794481905754416
20645476 183 17203602697043073359
20645477 56 18186525397501943611
20645477 70 18060144245350036222
21033648 29 18187076257032853229
21065198 48 13767916901834135629
212847 35 18113333090294473858
21503847 285 17240489138954208220
221357 26 18272650112782073533
22224240 67 11170206397130111566
22289505 5 18341046316183103244
231179 274 18408600379196884960
23402539 116 14333124140090458019
23402655 69 17988924504762714648
23557571 272 17895490201357713635
23559900 14 17386287580142103354
25 1 18412825802598965698
251288 83 10881392132848628024
3009799 131 18342177753104422702
3060560 45 17917990560301206702
4028521 119 18408599249800041833
633830 44 18412255164237229767
6442390 28 17822014241293292531
7808743 9 17532097266271057684
9971528 1 17489868224757305250

> <PUBCHEM_SHAPE_MULTIPOLES>
348.73
11.42
1.54
1.34
3.01
0.26
-0.01
3.94
1.83
-0.74
-0.19
0.17
0.19
1.42

> <PUBCHEM_SHAPE_SELFOVERLAP>
713.018

> <PUBCHEM_SHAPE_VOLUME>
201.3

> <PUBCHEM_COORDINATE_TYPE>
2
5
10

$$$$
