86769007
  -OEChem-12032416323D

 49 49  0     1  0  0  0  0  0999 V2000
    0.1037    1.0654   -0.5354 O   0  0  0  0  0  0  0  0  0  0  0  0
   -0.8597   -2.1966    0.6210 O   0  0  0  0  0  0  0  0  0  0  0  0
    3.7139   -1.2859    0.7037 O   0  0  0  0  0  0  0  0  0  0  0  0
   -3.2453   -0.2989   -0.1430 N   0  0  0  0  0  0  0  0  0  0  0  0
    2.7076   -0.0652   -0.9974 N   0  0  0  0  0  0  0  0  0  0  0  0
    4.7931    0.5478   -0.2218 N   0  0  0  0  0  0  0  0  0  0  0  0
   -1.8709   -0.0088    0.2319 C   0  0  1  0  0  0  0  0  0  0  0  0
   -0.8796   -1.0631   -0.2249 C   0  0  1  0  0  0  0  0  0  0  0  0
    0.4272   -0.2841   -0.1611 C   0  0  1  0  0  0  0  0  0  0  0  0
   -1.3220    1.2347   -0.4482 C   0  0  0  0  0  0  0  0  0  0  0  0
   -5.6640    0.3393    0.1962 C   0  0  0  0  0  0  0  0  0  0  0  0
   -4.1796    0.5443    0.5933 C   0  0  0  0  0  0  0  0  0  0  0  0
    1.4981   -0.8312   -1.0880 C   0  0  0  0  0  0  0  0  0  0  0  0
   -5.8734    0.5588   -1.3126 C   0  0  0  0  0  0  0  0  0  0  0  0
   -6.5779    1.2980    0.9795 C   0  0  0  0  0  0  0  0  0  0  0  0
   -6.0604   -1.1093    0.5395 C   0  0  0  0  0  0  0  0  0  0  0  0
    3.7380   -0.3526   -0.0975 C   0  0  0  0  0  0  0  0  0  0  0  0
    5.9839    0.4749    0.5915 C   0  0  0  0  0  0  0  0  0  0  0  0
    7.0188   -0.4367   -0.0563 C   0  0  0  0  0  0  0  0  0  0  0  0
    6.5486    1.8693    0.8296 C   0  0  0  0  0  0  0  0  0  0  0  0
   -1.7872    0.0854    1.3239 H   0  0  0  0  0  0  0  0  0  0  0  0
   -1.0956   -1.3904   -1.2496 H   0  0  0  0  0  0  0  0  0  0  0  0
    0.8120   -0.2546    0.8668 H   0  0  0  0  0  0  0  0  0  0  0  0
   -1.6966    1.3496   -1.4719 H   0  0  0  0  0  0  0  0  0  0  0  0
   -1.5436    2.1523    0.1051 H   0  0  0  0  0  0  0  0  0  0  0  0
   -3.4437   -1.2780    0.0584 H   0  0  0  0  0  0  0  0  0  0  0  0
   -3.9320    1.5998    0.4220 H   0  0  0  0  0  0  0  0  0  0  0  0
   -4.0711    0.3655    1.6715 H   0  0  0  0  0  0  0  0  0  0  0  0
    1.1728   -0.7690   -2.1322 H   0  0  0  0  0  0  0  0  0  0  0  0
    1.7149   -1.8786   -0.8523 H   0  0  0  0  0  0  0  0  0  0  0  0
   -5.5628    1.5676   -1.6069 H   0  0  0  0  0  0  0  0  0  0  0  0
   -6.9291    0.4436   -1.5842 H   0  0  0  0  0  0  0  0  0  0  0  0
   -5.3029   -0.1565   -1.9146 H   0  0  0  0  0  0  0  0  0  0  0  0
   -7.6320    1.1444    0.7229 H   0  0  0  0  0  0  0  0  0  0  0  0
   -6.3292    2.3423    0.7602 H   0  0  0  0  0  0  0  0  0  0  0  0
   -6.4713    1.1493    2.0598 H   0  0  0  0  0  0  0  0  0  0  0  0
   -5.8619   -1.3371    1.5929 H   0  0  0  0  0  0  0  0  0  0  0  0
   -7.1311   -1.2707    0.3660 H   0  0  0  0  0  0  0  0  0  0  0  0
   -5.5272   -1.8439   -0.0729 H   0  0  0  0  0  0  0  0  0  0  0  0
   -0.6695   -1.8989    1.5267 H   0  0  0  0  0  0  0  0  0  0  0  0
    2.8142    0.7372   -1.6104 H   0  0  0  0  0  0  0  0  0  0  0  0
    4.7526    1.2389   -0.9650 H   0  0  0  0  0  0  0  0  0  0  0  0
    5.7081    0.0447    1.5619 H   0  0  0  0  0  0  0  0  0  0  0  0
    7.3155   -0.0621   -1.0424 H   0  0  0  0  0  0  0  0  0  0  0  0
    6.6190   -1.4470   -0.1955 H   0  0  0  0  0  0  0  0  0  0  0  0
    7.9174   -0.5124    0.5647 H   0  0  0  0  0  0  0  0  0  0  0  0
    6.8359    2.3492   -0.1127 H   0  0  0  0  0  0  0  0  0  0  0  0
    5.8045    2.5119    1.3129 H   0  0  0  0  0  0  0  0  0  0  0  0
    7.4320    1.8293    1.4751 H   0  0  0  0  0  0  0  0  0  0  0  0
  1  9  1  0  0  0  0
  1 10  1  0  0  0  0
  2  8  1  0  0  0  0
  2 40  1  0  0  0  0
  3 17  2  0  0  0  0
  4  7  1  0  0  0  0
  4 12  1  0  0  0  0
  4 26  1  0  0  0  0
  5 13  1  0  0  0  0
  5 17  1  0  0  0  0
  5 41  1  0  0  0  0
  6 17  1  0  0  0  0
  6 18  1  0  0  0  0
  6 42  1  0  0  0  0
  7  8  1  0  0  0  0
  7 10  1  0  0  0  0
  7 21  1  0  0  0  0
  8  9  1  0  0  0  0
  8 22  1  0  0  0  0
  9 13  1  0  0  0  0
  9 23  1  0  0  0  0
 10 24  1  0  0  0  0
 10 25  1  0  0  0  0
 11 12  1  0  0  0  0
 11 14  1  0  0  0  0
 11 15  1  0  0  0  0
 11 16  1  0  0  0  0
 12 27  1  0  0  0  0
 12 28  1  0  0  0  0
 13 29  1  0  0  0  0
 13 30  1  0  0  0  0
 14 31  1  0  0  0  0
 14 32  1  0  0  0  0
 14 33  1  0  0  0  0
 15 34  1  0  0  0  0
 15 35  1  0  0  0  0
 15 36  1  0  0  0  0
 16 37  1  0  0  0  0
 16 38  1  0  0  0  0
 16 39  1  0  0  0  0
 18 19  1  0  0  0  0
 18 20  1  0  0  0  0
 18 43  1  0  0  0  0
 19 44  1  0  0  0  0
 19 45  1  0  0  0  0
 19 46  1  0  0  0  0
 20 47  1  0  0  0  0
 20 48  1  0  0  0  0
 20 49  1  0  0  0  0
M  END
> <PUBCHEM_COMPOUND_CID>
86769007

> <PUBCHEM_CONFORMER_RMSD>
1

> <PUBCHEM_CONFORMER_DIVERSEORDER>
1
117
9
47
14
153
146
140
119
35
92
135
34
133
61
28
157
160
10
95
148
73
104
111
22
48
63
51
58
150
85
84
108
144
26
94
60
62
52
90
138
107
152
143
110
159
151
37
20
66
88
25
64
53
99
55
8
11
77
93
45
33
156
86
103
139
30
120
46
100
75
98
116
127
70
72
134
83
68
149
89
137
27
59
5
87
158
147
81
19
23
71
118
41
82
132
42
78
74
129
3
142
109
43
65
13
131
39
76
50
115
126
57
141
49
106
125
123
36
67
97
96
18
113
56
121
44
122
40
105
130
17
32
21
145
128
16
54
136
112
154
101
80
38
155
31
4
102
91
69
12
2
6
24
7
29
124
15
114
79

> <PUBCHEM_MMFF94_PARTIAL_CHARGES>
18
1 -0.56
10 0.28
12 0.27
13 0.3
17 0.69
18 0.3
2 -0.68
26 0.36
3 -0.57
4 -0.9
40 0.4
41 0.37
42 0.37
5 -0.73
6 -0.73
7 0.27
8 0.28
9 0.28

> <PUBCHEM_EFFECTIVE_ROTOR_COUNT>
9

> <PUBCHEM_PHARMACOPHORE_FEATURES>
11
1 1 acceptor
1 2 acceptor
1 2 donor
1 3 acceptor
1 4 cation
1 4 donor
1 5 donor
1 6 donor
3 18 19 20 hydrophobe
4 11 14 15 16 hydrophobe
5 1 7 8 9 10 rings

> <PUBCHEM_HEAVY_ATOM_COUNT>
20

> <PUBCHEM_ATOM_DEF_STEREO_COUNT>
3

> <PUBCHEM_ATOM_UDEF_STEREO_COUNT>
0

> <PUBCHEM_BOND_DEF_STEREO_COUNT>
0

> <PUBCHEM_BOND_UDEF_STEREO_COUNT>
0

> <PUBCHEM_ISOTOPIC_ATOM_COUNT>
0

> <PUBCHEM_COMPONENT_COUNT>
1

> <PUBCHEM_CACTVS_TAUTO_COUNT>
3

> <PUBCHEM_CONFORMER_ID>
052BFD6F00000001

> <PUBCHEM_MMFF94_ENERGY>
31.6289

> <PUBCHEM_FEATURE_SELFOVERLAP>
55.87

> <PUBCHEM_SHAPE_FINGERPRINT>
10 15 18040992986615177928
10087517 78 17988929921023132281
106641 1 18409732906380709779
10906281 52 18341066184459078564
11315181 36 18201718467013499121
11401426 45 18408325480200213311
117890 112 18272934920747922680
12091667 2 16805323293299807389
125118 31 18342178860452410176
12616971 3 16443349814117762542
13288520 33 11458429046778010819
13533116 47 18188769445100340866
13685833 64 12540694821397227572
14123256 10 13758355561835934393
14251732 16 18342176699771844283
14251752 14 8862951562660846283
14251764 18 18334016124544350269
14251764 46 18060700581174867842
15048467 5 17346319280421190337
15183329 4 11458419146108585077
17834072 8 12103843462534432928
17834076 25 16988843873707264294
17980427 23 18338515364990912852
18006028 8 13406794432420968334
20281389 69 18411417302529010840
21150785 3 17703782631520587149
221357 26 10592046856391417802
22224240 67 18410012139553498075
23402539 116 18408318908620818735
23559900 14 18130217276307174673
23622692 88 17676209082765944246
246663 6 10663814196576346877
28498 318 11891323258132432723
2916195 48 18343021090611393177
300161 21 18409162220896042318
3545911 37 18334857208670531406
4325135 7 17203605987014336949
4340502 62 18040433291872277850
465052 167 12468644923645249864
5104073 3 18042966463098149185
59755656 520 18413383241703515455
6438161 24 10519717661844495308

> <PUBCHEM_SHAPE_MULTIPOLES>
379.04
19.89
1.51
1
7.49
0
-0.13
6.1
3.74
0.37
0.33
-0.55
0.03
0.46

> <PUBCHEM_SHAPE_SELFOVERLAP>
738.359

> <PUBCHEM_SHAPE_VOLUME>
230.9

> <PUBCHEM_COORDINATE_TYPE>
2
5
10

$$$$
