25313506
  -OEChem-12032416193D

 69 73  0     1  0  0  0  0  0999 V2000
  -10.8732   -2.0990    0.7263 F   0  0  0  0  0  0  0  0  0  0  0  0
    1.9297    2.6010   -1.3437 O   0  0  0  0  0  0  0  0  0  0  0  0
   -5.6525    0.4918   -1.5899 O   0  0  0  0  0  0  0  0  0  0  0  0
    7.6873   -0.7719   -1.7516 O   0  0  0  0  0  0  0  0  0  0  0  0
   -1.6723    2.3151    2.5442 N   0  0  0  0  0  0  0  0  0  0  0  0
    3.0303    0.6151   -0.8592 N   0  0  0  0  0  0  0  0  0  0  0  0
    5.5191   -0.4053   -0.0059 N   0  0  0  0  0  0  0  0  0  0  0  0
   -4.3226    0.8463   -1.7816 N   0  0  0  0  0  0  0  0  0  0  0  0
   -0.3626    2.0872   -0.0900 C   0  0  1  0  0  0  0  0  0  0  0  0
   -1.7864    1.5476    0.1855 C   0  0  2  0  0  0  0  0  0  0  0  0
   -0.0494    3.2113    0.9118 C   0  0  0  0  0  0  0  0  0  0  0  0
   -1.9794    1.1845    1.6675 C   0  0  0  0  0  0  0  0  0  0  0  0
    0.7290    1.0107   -0.0608 C   0  0  0  0  0  0  0  0  0  0  0  0
   -0.3030    2.7905    2.3587 C   0  0  0  0  0  0  0  0  0  0  0  0
   -2.1634    0.3669   -0.7104 C   0  0  0  0  0  0  0  0  0  0  0  0
    1.9452    1.4870   -0.8140 C   0  0  0  0  0  0  0  0  0  0  0  0
   -3.6531    0.2129   -0.8142 C   0  0  0  0  0  0  0  0  0  0  0  0
    3.0875   -0.7125   -0.2445 C   0  0  0  0  0  0  0  0  0  0  0  0
    4.2419    0.9837   -1.5870 C   0  0  0  0  0  0  0  0  0  0  0  0
    4.2936   -0.8248    0.6878 C   0  0  0  0  0  0  0  0  0  0  0  0
    5.4649    0.9039   -0.6761 C   0  0  0  0  0  0  0  0  0  0  0  0
   -4.4996   -0.5487    0.0100 C   0  0  0  0  0  0  0  0  0  0  0  0
    6.7630   -0.8451    0.4611 C   0  0  0  0  0  0  0  0  0  0  0  0
   -5.7451   -0.3391   -0.5203 C   0  0  0  0  0  0  0  0  0  0  0  0
    7.8303   -1.0213   -0.4194 C   0  0  0  0  0  0  0  0  0  0  0  0
    6.9303   -1.1061    1.8211 C   0  0  0  0  0  0  0  0  0  0  0  0
   -7.0671   -0.7920   -0.1982 C   0  0  0  0  0  0  0  0  0  0  0  0
    9.0650   -1.4586    0.0601 C   0  0  0  0  0  0  0  0  0  0  0  0
    8.1650   -1.5435    2.3004 C   0  0  0  0  0  0  0  0  0  0  0  0
    9.2323   -1.7198    1.4201 C   0  0  0  0  0  0  0  0  0  0  0  0
   -7.2665   -1.6492    0.8840 C   0  0  0  0  0  0  0  0  0  0  0  0
   -8.1536   -0.3761   -0.9678 C   0  0  0  0  0  0  0  0  0  0  0  0
    7.2653   -1.8593   -2.5721 C   0  0  0  0  0  0  0  0  0  0  0  0
   -8.5522   -2.0907    1.1965 C   0  0  0  0  0  0  0  0  0  0  0  0
   -9.4393   -0.8175   -0.6555 C   0  0  0  0  0  0  0  0  0  0  0  0
   -9.6386   -1.6748    0.4267 C   0  0  0  0  0  0  0  0  0  0  0  0
   -0.4005    2.5336   -1.0935 H   0  0  0  0  0  0  0  0  0  0  0  0
   -2.4752    2.3784   -0.0350 H   0  0  0  0  0  0  0  0  0  0  0  0
   -0.6863    4.0756    0.6791 H   0  0  0  0  0  0  0  0  0  0  0  0
    0.9837    3.5621    0.8150 H   0  0  0  0  0  0  0  0  0  0  0  0
   -3.0188    0.9040    1.8604 H   0  0  0  0  0  0  0  0  0  0  0  0
   -1.3608    0.3210    1.9420 H   0  0  0  0  0  0  0  0  0  0  0  0
    0.3918    0.1017   -0.5673 H   0  0  0  0  0  0  0  0  0  0  0  0
    1.0079    0.7509    0.9638 H   0  0  0  0  0  0  0  0  0  0  0  0
    0.4123    2.0264    2.6821 H   0  0  0  0  0  0  0  0  0  0  0  0
   -0.1460    3.6579    3.0098 H   0  0  0  0  0  0  0  0  0  0  0  0
   -1.7347   -0.5706   -0.3355 H   0  0  0  0  0  0  0  0  0  0  0  0
   -1.7620    0.5169   -1.7212 H   0  0  0  0  0  0  0  0  0  0  0  0
   -1.8030    2.0341    3.5156 H   0  0  0  0  0  0  0  0  0  0  0  0
    3.1760   -1.4372   -1.0635 H   0  0  0  0  0  0  0  0  0  0  0  0
    2.1777   -0.9593    0.3047 H   0  0  0  0  0  0  0  0  0  0  0  0
    4.1561    1.9905   -2.0074 H   0  0  0  0  0  0  0  0  0  0  0  0
    4.3437    0.2832   -2.4248 H   0  0  0  0  0  0  0  0  0  0  0  0
    4.1333   -0.1893    1.5679 H   0  0  0  0  0  0  0  0  0  0  0  0
    4.3682   -1.8666    1.0229 H   0  0  0  0  0  0  0  0  0  0  0  0
    6.3556    1.1280   -1.2698 H   0  0  0  0  0  0  0  0  0  0  0  0
    5.3985    1.6834    0.0944 H   0  0  0  0  0  0  0  0  0  0  0  0
   -4.2331   -1.1593    0.8603 H   0  0  0  0  0  0  0  0  0  0  0  0
    6.1279   -0.9648    2.5395 H   0  0  0  0  0  0  0  0  0  0  0  0
    9.9014   -1.5974   -0.6196 H   0  0  0  0  0  0  0  0  0  0  0  0
    8.2969   -1.7433    3.3599 H   0  0  0  0  0  0  0  0  0  0  0  0
   10.1939   -2.0594    1.7936 H   0  0  0  0  0  0  0  0  0  0  0  0
   -6.4401   -1.9905    1.5021 H   0  0  0  0  0  0  0  0  0  0  0  0
   -8.0392    0.2909   -1.8184 H   0  0  0  0  0  0  0  0  0  0  0  0
    7.1821   -1.4990   -3.6011 H   0  0  0  0  0  0  0  0  0  0  0  0
    6.2863   -2.2294   -2.2518 H   0  0  0  0  0  0  0  0  0  0  0  0
    8.0012   -2.6691   -2.5430 H   0  0  0  0  0  0  0  0  0  0  0  0
   -8.7082   -2.7582    2.0389 H   0  0  0  0  0  0  0  0  0  0  0  0
  -10.2857   -0.4944   -1.2542 H   0  0  0  0  0  0  0  0  0  0  0  0
  1 36  1  0  0  0  0
  2 16  2  0  0  0  0
  3  8  1  0  0  0  0
  3 24  1  0  0  0  0
  4 25  1  0  0  0  0
  4 33  1  0  0  0  0
  5 12  1  0  0  0  0
  5 14  1  0  0  0  0
  5 49  1  0  0  0  0
  6 16  1  0  0  0  0
  6 18  1  0  0  0  0
  6 19  1  0  0  0  0
  7 20  1  0  0  0  0
  7 21  1  0  0  0  0
  7 23  1  0  0  0  0
  8 17  2  0  0  0  0
  9 10  1  0  0  0  0
  9 11  1  0  0  0  0
  9 13  1  0  0  0  0
  9 37  1  0  0  0  0
 10 12  1  0  0  0  0
 10 15  1  0  0  0  0
 10 38  1  0  0  0  0
 11 14  1  0  0  0  0
 11 39  1  0  0  0  0
 11 40  1  0  0  0  0
 12 41  1  0  0  0  0
 12 42  1  0  0  0  0
 13 16  1  0  0  0  0
 13 43  1  0  0  0  0
 13 44  1  0  0  0  0
 14 45  1  0  0  0  0
 14 46  1  0  0  0  0
 15 17  1  0  0  0  0
 15 47  1  0  0  0  0
 15 48  1  0  0  0  0
 17 22  1  0  0  0  0
 18 20  1  0  0  0  0
 18 50  1  0  0  0  0
 18 51  1  0  0  0  0
 19 21  1  0  0  0  0
 19 52  1  0  0  0  0
 19 53  1  0  0  0  0
 20 54  1  0  0  0  0
 20 55  1  0  0  0  0
 21 56  1  0  0  0  0
 21 57  1  0  0  0  0
 22 24  2  0  0  0  0
 22 58  1  0  0  0  0
 23 25  1  0  0  0  0
 23 26  2  0  0  0  0
 24 27  1  0  0  0  0
 25 28  2  0  0  0  0
 26 29  1  0  0  0  0
 26 59  1  0  0  0  0
 27 31  2  0  0  0  0
 27 32  1  0  0  0  0
 28 30  1  0  0  0  0
 28 60  1  0  0  0  0
 29 30  2  0  0  0  0
 29 61  1  0  0  0  0
 30 62  1  0  0  0  0
 31 34  1  0  0  0  0
 31 63  1  0  0  0  0
 32 35  2  0  0  0  0
 32 64  1  0  0  0  0
 33 65  1  0  0  0  0
 33 66  1  0  0  0  0
 33 67  1  0  0  0  0
 34 36  2  0  0  0  0
 34 68  1  0  0  0  0
 35 36  1  0  0  0  0
 35 69  1  0  0  0  0
M  END
> <PUBCHEM_COMPOUND_CID>
25313506

> <PUBCHEM_CONFORMER_RMSD>
1.2

> <PUBCHEM_CONFORMER_DIVERSEORDER>
1
31
88
84
76
75
13
63
72
62
45
139
130
64
117
137
106
50
101
3
123
107
37
136
98
9
120
140
105
44
69
11
110
95
54
111
42
93
82
116
47
144
92
141
57
16
145
27
83
51
103
119
71
58
41
108
70
53
68
17
52
39
109
6
43
129
20
80
91
8
133
79
66
28
128
100
131
122
49
59
74
56
32
99
7
81
135
134
126
38
127
125
65
104
78
19
5
143
124
97
87
115
55
34
138
118
73
85
15
121
35
102
25
61
112
2
4
60
26
18
114
29
21
36
33
96
30
67
14
94
89
142
12
10
40
77
113
48
23
86
132
46
24
90
22

> <PUBCHEM_MMFF94_PARTIAL_CHARGES>
43
1 -0.19
12 0.27
13 0.06
14 0.27
15 0.18
16 0.57
17 0.11
18 0.3
19 0.3
2 -0.57
20 0.37
21 0.37
22 -0.15
23 0.1
24 0.09
25 0.08
26 -0.15
27 0.05
28 -0.15
29 -0.15
3 -0.02
30 -0.15
31 -0.15
32 -0.15
33 0.28
34 -0.15
35 -0.15
36 0.19
4 -0.36
49 0.36
5 -0.9
58 0.15
59 0.15
6 -0.66
60 0.15
61 0.15
62 0.15
63 0.15
64 0.15
68 0.15
69 0.15
7 -0.84
8 -0.41

> <PUBCHEM_EFFECTIVE_ROTOR_COUNT>
10.4

> <PUBCHEM_PHARMACOPHORE_FEATURES>
11
1 2 acceptor
1 4 acceptor
1 5 cation
1 5 donor
1 7 cation
1 8 acceptor
5 3 8 17 22 24 rings
6 23 25 26 28 29 30 rings
6 27 31 32 34 35 36 rings
6 5 9 10 11 12 14 rings
6 6 7 18 19 20 21 rings

> <PUBCHEM_HEAVY_ATOM_COUNT>
36

> <PUBCHEM_ATOM_DEF_STEREO_COUNT>
2

> <PUBCHEM_ATOM_UDEF_STEREO_COUNT>
0

> <PUBCHEM_BOND_DEF_STEREO_COUNT>
0

> <PUBCHEM_BOND_UDEF_STEREO_COUNT>
0

> <PUBCHEM_ISOTOPIC_ATOM_COUNT>
0

> <PUBCHEM_COMPONENT_COUNT>
1

> <PUBCHEM_CACTVS_TAUTO_COUNT>
1

> <PUBCHEM_CONFORMER_ID>
018240E200000001

> <PUBCHEM_MMFF94_ENERGY>
102.1379

> <PUBCHEM_FEATURE_SELFOVERLAP>
55.823

> <PUBCHEM_SHAPE_FINGERPRINT>
10 15 13686293582842164756
10483366 6 17095521794780013731
10533779 47 16702031854481182486
10625338 86 14045748097596138843
10835480 77 14779564378941087276
10904742 90 8574711303842510720
11146851 88 18408884053023388267
11386260 185 14779555608154198022
11411753 29 14548197402567500808
11456790 92 18131358535987264897
12539745 222 18410009906513882741
12758862 56 18342172306700893211
12838863 1 17968088686919231642
13150687 139 14201398274558493905
13673619 4 18410009962422141941
14068700 675 18334857191312055004
14150022 121 15123514679450992323
14664723 55 12251906970948408926
150020 25 15647057083797076873
15183329 4 16153704306197461384
15320294 125 18343578564170634079
15347590 135 16415480424411711922
15350500 16 18343302569830155131
15350500 55 10519993655909581883
15419008 145 17561095692381260945
1754911 235 13623529061177547799
17852330 162 16226629501341573294
1818759 1 18411422808149583430
18354007 30 15696895644646961035
19301679 30 17774173309684716709
19841028 212 18335702784314282288
20105231 36 17168150070704415395
2026 5 18114456786488228083
20721686 146 10663828485694872059
20771845 65 18341331179605109153
21792934 111 17346595270772663337
21792938 703 18263376824257970102
21792961 116 18410004417592631909
21927370 108 17988925548097506977
23569917 315 18190176781804591914
23576562 1 12252485378895420663
24771293 8 13398627264941063569
249057 3 11963683196699475006
3383291 50 18343865523784027703
4149490 64 18262797487927563760
439807 62 18040998470823918211
4403749 210 10303805502335550613
4461854 278 17489588973909763782
474113 269 16009298801136120106
4874694 18 15213023752874551352
54039377 194 18334011696739211759
5719381 82 18333729122256284379
6126387 218 16630808795255440113
6201320 82 11026333024625994975
9663363 56 17846490422984936149
9937071 3 18343303656315105599
9953998 17 15195278738048784829
9962374 69 18130499842437420965

> <PUBCHEM_SHAPE_MULTIPOLES>
696.06
36.53
2.71
2.07
23.91
1.66
-0.37
-37.59
-3.26
0.64
-1.14
-2.77
0.22
-0.03

> <PUBCHEM_SHAPE_SELFOVERLAP>
1495.175

> <PUBCHEM_SHAPE_VOLUME>
383.5

> <PUBCHEM_COORDINATE_TYPE>
2
5
10

$$$$
