7663812
  -OEChem-12032416133D

 62 64  0     1  0  0  0  0  0999 V2000
    2.7404    4.2640    2.8270 F   0  0  0  0  0  0  0  0  0  0  0  0
   -3.1629   -2.0274   -0.9392 O   0  0  0  0  0  0  0  0  0  0  0  0
   -0.2093   -1.4236    1.2386 O   0  0  0  0  0  0  0  0  0  0  0  0
    3.0294    0.8519   -1.3959 O   0  0  0  0  0  0  0  0  0  0  0  0
    3.3639   -5.0933    1.0436 O   0  0  0  0  0  0  0  0  0  0  0  0
    2.3948   -4.7927   -1.0194 O   0  0  0  0  0  0  0  0  0  0  0  0
   -1.6758   -0.2767   -0.5652 N   0  0  0  0  0  0  0  0  0  0  0  0
    0.7087    1.0981   -1.2801 N   0  0  0  0  0  0  0  0  0  0  0  0
    1.2464   -2.4176   -0.2818 N   0  0  0  0  0  0  0  0  0  0  0  0
   -4.0022   -0.1684    0.2521 C   0  0  0  0  0  0  0  0  0  0  0  0
   -4.9430   -1.1574    0.9441 C   0  0  0  0  0  0  0  0  0  0  0  0
   -4.7583    0.7313   -0.7282 C   0  0  0  0  0  0  0  0  0  0  0  0
   -6.1162   -0.4462    1.6131 C   0  0  0  0  0  0  0  0  0  0  0  0
   -5.9316    1.4382   -0.0550 C   0  0  0  0  0  0  0  0  0  0  0  0
   -0.5316   -1.0318   -1.0963 C   0  0  1  0  0  0  0  0  0  0  0  0
   -6.8674    0.4473    0.6307 C   0  0  0  0  0  0  0  0  0  0  0  0
   -2.9185   -0.9131   -0.4692 C   0  0  0  0  0  0  0  0  0  0  0  0
   -1.3832    1.0546   -0.0037 C   0  0  0  0  0  0  0  0  0  0  0  0
    0.4218   -0.1779   -1.9317 C   0  0  0  0  0  0  0  0  0  0  0  0
   -0.4847    1.8696   -0.9254 C   0  0  0  0  0  0  0  0  0  0  0  0
    0.1637   -1.6385    0.0883 C   0  0  0  0  0  0  0  0  0  0  0  0
    2.0310    1.5047   -1.0958 C   0  0  0  0  0  0  0  0  0  0  0  0
    2.0961   -3.0942    0.6713 C   0  0  2  0  0  0  0  0  0  0  0  0
    2.2724    2.8143   -0.4767 C   0  0  0  0  0  0  0  0  0  0  0  0
    3.2507   -2.1938    1.0825 C   0  0  0  0  0  0  0  0  0  0  0  0
    2.3940    2.9192    0.9088 C   0  0  0  0  0  0  0  0  0  0  0  0
    2.3803    3.9533   -1.2745 C   0  0  0  0  0  0  0  0  0  0  0  0
    2.6219   -4.4132    0.1251 C   0  0  0  0  0  0  0  0  0  0  0  0
    2.6234    4.1632    1.4966 C   0  0  0  0  0  0  0  0  0  0  0  0
    2.6097    5.1974   -0.6868 C   0  0  0  0  0  0  0  0  0  0  0  0
    2.7313    5.3023    0.6987 C   0  0  0  0  0  0  0  0  0  0  0  0
    3.9047   -6.3438    0.6044 C   0  0  0  0  0  0  0  0  0  0  0  0
   -3.5792    0.4327    1.0631 H   0  0  0  0  0  0  0  0  0  0  0  0
   -5.3452   -1.8798    0.2217 H   0  0  0  0  0  0  0  0  0  0  0  0
   -4.3927   -1.7414    1.6923 H   0  0  0  0  0  0  0  0  0  0  0  0
   -4.0915    1.4785   -1.1726 H   0  0  0  0  0  0  0  0  0  0  0  0
   -5.1354    0.1300   -1.5664 H   0  0  0  0  0  0  0  0  0  0  0  0
   -6.8034   -1.1871    2.0372 H   0  0  0  0  0  0  0  0  0  0  0  0
   -5.7463    0.1605    2.4489 H   0  0  0  0  0  0  0  0  0  0  0  0
   -5.5503    2.1530    0.6846 H   0  0  0  0  0  0  0  0  0  0  0  0
   -6.4899    2.0164   -0.7998 H   0  0  0  0  0  0  0  0  0  0  0  0
   -0.8960   -1.8618   -1.7138 H   0  0  0  0  0  0  0  0  0  0  0  0
   -7.3582   -0.1756   -0.1272 H   0  0  0  0  0  0  0  0  0  0  0  0
   -7.6587    0.9917    1.1582 H   0  0  0  0  0  0  0  0  0  0  0  0
   -0.9026    0.9145    0.9700 H   0  0  0  0  0  0  0  0  0  0  0  0
   -2.2863    1.6401    0.1665 H   0  0  0  0  0  0  0  0  0  0  0  0
    1.3503   -0.6953   -2.1877 H   0  0  0  0  0  0  0  0  0  0  0  0
   -0.0634    0.0717   -2.8843 H   0  0  0  0  0  0  0  0  0  0  0  0
   -1.0074    2.1030   -1.8609 H   0  0  0  0  0  0  0  0  0  0  0  0
   -0.2329    2.8185   -0.4476 H   0  0  0  0  0  0  0  0  0  0  0  0
    1.4434   -2.5653   -1.2669 H   0  0  0  0  0  0  0  0  0  0  0  0
    1.4861   -3.3319    1.5512 H   0  0  0  0  0  0  0  0  0  0  0  0
    3.8722   -2.6624    1.8527 H   0  0  0  0  0  0  0  0  0  0  0  0
    2.8846   -1.2412    1.4808 H   0  0  0  0  0  0  0  0  0  0  0  0
    3.8975   -1.9675    0.2269 H   0  0  0  0  0  0  0  0  0  0  0  0
    2.3107    2.0379    1.5397 H   0  0  0  0  0  0  0  0  0  0  0  0
    2.2866    3.8827   -2.3551 H   0  0  0  0  0  0  0  0  0  0  0  0
    2.6935    6.0844   -1.3080 H   0  0  0  0  0  0  0  0  0  0  0  0
    2.9099    6.2706    1.1567 H   0  0  0  0  0  0  0  0  0  0  0  0
    3.0976   -7.0308    0.3325 H   0  0  0  0  0  0  0  0  0  0  0  0
    4.5815   -6.1875   -0.2410 H   0  0  0  0  0  0  0  0  0  0  0  0
    4.4716   -6.7782    1.4320 H   0  0  0  0  0  0  0  0  0  0  0  0
  1 29  1  0  0  0  0
  2 17  2  0  0  0  0
  3 21  2  0  0  0  0
  4 22  2  0  0  0  0
  5 28  1  0  0  0  0
  5 32  1  0  0  0  0
  6 28  2  0  0  0  0
  7 15  1  0  0  0  0
  7 17  1  0  0  0  0
  7 18  1  0  0  0  0
  8 19  1  0  0  0  0
  8 20  1  0  0  0  0
  8 22  1  0  0  0  0
  9 21  1  0  0  0  0
  9 23  1  0  0  0  0
  9 51  1  0  0  0  0
 10 11  1  0  0  0  0
 10 12  1  0  0  0  0
 10 17  1  0  0  0  0
 10 33  1  0  0  0  0
 11 13  1  0  0  0  0
 11 34  1  0  0  0  0
 11 35  1  0  0  0  0
 12 14  1  0  0  0  0
 12 36  1  0  0  0  0
 12 37  1  0  0  0  0
 13 16  1  0  0  0  0
 13 38  1  0  0  0  0
 13 39  1  0  0  0  0
 14 16  1  0  0  0  0
 14 40  1  0  0  0  0
 14 41  1  0  0  0  0
 15 19  1  0  0  0  0
 15 21  1  0  0  0  0
 15 42  1  0  0  0  0
 16 43  1  0  0  0  0
 16 44  1  0  0  0  0
 18 20  1  0  0  0  0
 18 45  1  0  0  0  0
 18 46  1  0  0  0  0
 19 47  1  0  0  0  0
 19 48  1  0  0  0  0
 20 49  1  0  0  0  0
 20 50  1  0  0  0  0
 22 24  1  0  0  0  0
 23 25  1  0  0  0  0
 23 28  1  0  0  0  0
 23 52  1  0  0  0  0
 24 26  2  0  0  0  0
 24 27  1  0  0  0  0
 25 53  1  0  0  0  0
 25 54  1  0  0  0  0
 25 55  1  0  0  0  0
 26 29  1  0  0  0  0
 26 56  1  0  0  0  0
 27 30  2  0  0  0  0
 27 57  1  0  0  0  0
 29 31  2  0  0  0  0
 30 31  1  0  0  0  0
 30 58  1  0  0  0  0
 31 59  1  0  0  0  0
 32 60  1  0  0  0  0
 32 61  1  0  0  0  0
 32 62  1  0  0  0  0
M  END
> <PUBCHEM_COMPOUND_CID>
7663812

> <PUBCHEM_CONFORMER_RMSD>
1.2

> <PUBCHEM_CONFORMER_DIVERSEORDER>
1
146
10
123
70
33
13
119
22
114
52
127
144
132
164
165
137
149
139
163
151
89
63
76
101
121
111
95
79
158
160
77
130
148
103
47
81
106
141
90
98
124
38
83
138
7
161
128
118
37
159
51
65
66
26
154
133
32
97
36
100
84
71
150
109
58
59
40
92
11
102
30
88
25
5
54
53
110
16
27
105
156
153
61
140
48
115
64
82
126
55
60
134
75
31
117
3
74
9
125
56
41
20
85
24
45
143
129
21
57
68
152
113
42
108
99
35
91
72
62
50
43
87
46
135
67
34
69
49
96
116
145
122
6
136
28
8
142
4
78
94
162
18
155
104
86
15
120
17
131
73
112
23
14
12
147
2
19
39
80
157
93
44
107
29

> <PUBCHEM_MMFF94_PARTIAL_CHARGES>
31
1 -0.19
10 0.06
15 0.36
17 0.57
18 0.3
19 0.3
2 -0.57
20 0.3
21 0.57
22 0.54
23 0.36
24 0.09
26 -0.15
27 -0.15
28 0.66
29 0.19
3 -0.57
30 -0.15
31 -0.15
32 0.28
4 -0.57
5 -0.43
51 0.37
56 0.15
57 0.15
58 0.15
59 0.15
6 -0.57
7 -0.66
8 -0.66
9 -0.73

> <PUBCHEM_EFFECTIVE_ROTOR_COUNT>
11.4

> <PUBCHEM_PHARMACOPHORE_FEATURES>
8
1 2 acceptor
1 3 acceptor
1 4 acceptor
1 6 acceptor
1 9 donor
6 10 11 12 13 14 16 rings
6 24 26 27 29 30 31 rings
6 7 8 15 18 19 20 rings

> <PUBCHEM_HEAVY_ATOM_COUNT>
32

> <PUBCHEM_ATOM_DEF_STEREO_COUNT>
2

> <PUBCHEM_ATOM_UDEF_STEREO_COUNT>
0

> <PUBCHEM_BOND_DEF_STEREO_COUNT>
0

> <PUBCHEM_BOND_UDEF_STEREO_COUNT>
0

> <PUBCHEM_ISOTOPIC_ATOM_COUNT>
0

> <PUBCHEM_COMPONENT_COUNT>
1

> <PUBCHEM_CACTVS_TAUTO_COUNT>
2

> <PUBCHEM_CONFORMER_ID>
0074F0C400000001

> <PUBCHEM_MMFF94_ENERGY>
76.4103

> <PUBCHEM_FEATURE_SELFOVERLAP>
40.598

> <PUBCHEM_SHAPE_FINGERPRINT>
10074138 170 17259059022373606347
10411042 1 18047473318532594079
10439779 11 17911530800571185601
12422481 6 17678713808824723633
12788726 201 17758695351135930054
131258 43 18054808195246284206
13140716 1 18266179628633557350
13540713 4 17967249776990429309
13955234 65 18409738378227196971
14739800 52 18201158849580510945
14955137 171 18191871115688589775
15927050 60 18122069972961304358
16114785 44 16755494215859371513
17980427 26 18269546298830694492
18393751 57 17904770230400032673
19246450 95 18050250882447147840
20771845 65 18268430123215262083
21033648 29 17980207701079861665
21120745 212 17762635992498876382
21304303 172 17691404105701772237
21716022 299 17825977860921579766
23559900 14 18188210893345975859
249999 5 18409453613442479595
283562 15 17692528227988624375
3380486 145 17836887202444530342
3418910 222 17973729070323169438
376196 1 17700143376059092116
5265222 85 17826823587337299356
6679774 75 18041835251108013562
6695519 79 17835271161001692299
6697151 62 18118102694701103431
77188 2 18192714440626630422
79837 15 17689716784602211995
9658208 31 17762639673249081748
9981440 41 18047751795790274907

> <PUBCHEM_SHAPE_MULTIPOLES>
606.98
11.01
9.11
1.64
24.99
6.06
0.42
-1.03
3.88
-21.5
2.71
-0.8
-1.05
0.17

> <PUBCHEM_SHAPE_SELFOVERLAP>
1269.47

> <PUBCHEM_SHAPE_VOLUME>
342.4

> <PUBCHEM_COORDINATE_TYPE>
2
5
10

$$$$
