11913297
  -OEChem-12032416283D

 48 51  0     1  0  0  0  0  0999 V2000
   -0.2644    0.7885    1.7406 O   0  0  0  0  0  0  0  0  0  0  0  0
   -0.6015    3.4717    0.1838 O   0  0  0  0  0  0  0  0  0  0  0  0
   -5.0003    1.1094    1.0887 O   0  0  0  0  0  0  0  0  0  0  0  0
    3.7336   -1.6659    1.4560 O   0  0  0  0  0  0  0  0  0  0  0  0
   -8.0615   -2.5155   -0.6715 O   0  0  0  0  0  0  0  0  0  0  0  0
   -6.0601   -2.9730   -1.6427 O   0  0  0  0  0  0  0  0  0  0  0  0
   -2.9274    0.6484    0.1438 N   0  0  0  0  0  0  0  0  0  0  0  0
    2.0010    2.1140   -0.7972 N   0  0  0  0  0  0  0  0  0  0  0  0
    3.2234    0.1793   -0.2780 N   0  0  0  0  0  0  0  0  0  0  0  0
    3.4970    1.2833   -2.4025 N   0  0  0  0  0  0  0  0  0  0  0  0
   -0.9954    2.1173   -0.0921 C   0  0  1  0  0  0  0  0  0  0  0  0
    0.1092    1.2131    0.4189 C   0  0  1  0  0  0  0  0  0  0  0  0
   -2.1969    1.7387    0.7434 C   0  0  2  0  0  0  0  0  0  0  0  0
    1.3226    2.1105    0.4804 C   0  0  2  0  0  0  0  0  0  0  0  0
   -1.5603    1.3186    2.0563 C   0  0  0  0  0  0  0  0  0  0  0  0
    0.7148    3.4737    0.7558 C   0  0  0  0  0  0  0  0  0  0  0  0
   -4.2792    0.4237    0.3690 C   0  0  0  0  0  0  0  0  0  0  0  0
    2.9350    1.1639   -1.1702 C   0  0  0  0  0  0  0  0  0  0  0  0
   -4.7787   -0.7933   -0.3888 C   0  0  0  0  0  0  0  0  0  0  0  0
   -6.2625   -1.0576   -0.1549 C   0  0  0  0  0  0  0  0  0  0  0  0
    4.1376   -0.7301   -0.6748 C   0  0  0  0  0  0  0  0  0  0  0  0
    4.4029    0.3400   -2.7341 C   0  0  0  0  0  0  0  0  0  0  0  0
    4.7661   -0.6998   -1.9030 C   0  0  0  0  0  0  0  0  0  0  0  0
   -6.7454   -2.2749   -0.9085 C   0  0  0  0  0  0  0  0  0  0  0  0
    4.4224   -1.7584    0.2901 C   0  0  0  0  0  0  0  0  0  0  0  0
    5.2590   -2.8474    0.3036 C   0  0  0  0  0  0  0  0  0  0  0  0
    5.0733   -3.4675    1.5622 C   0  0  0  0  0  0  0  0  0  0  0  0
    4.1356   -2.7110    2.2259 C   0  0  0  0  0  0  0  0  0  0  0  0
   -1.1530    2.0350   -1.1724 H   0  0  0  0  0  0  0  0  0  0  0  0
    0.2337    0.3107   -0.1882 H   0  0  0  0  0  0  0  0  0  0  0  0
   -2.8860    2.5747    0.9051 H   0  0  0  0  0  0  0  0  0  0  0  0
    2.0185    1.8576    1.2886 H   0  0  0  0  0  0  0  0  0  0  0  0
   -2.1336    0.5674    2.6079 H   0  0  0  0  0  0  0  0  0  0  0  0
   -1.4062    2.1834    2.7109 H   0  0  0  0  0  0  0  0  0  0  0  0
    1.2883    4.3086    0.3415 H   0  0  0  0  0  0  0  0  0  0  0  0
    0.5988    3.6390    1.8327 H   0  0  0  0  0  0  0  0  0  0  0  0
   -2.4121   -0.0144   -0.4292 H   0  0  0  0  0  0  0  0  0  0  0  0
    1.7553    2.8123   -1.4898 H   0  0  0  0  0  0  0  0  0  0  0  0
   -4.5883   -0.6360   -1.4576 H   0  0  0  0  0  0  0  0  0  0  0  0
   -4.1878   -1.6620   -0.0735 H   0  0  0  0  0  0  0  0  0  0  0  0
   -6.8522   -0.1946   -0.4844 H   0  0  0  0  0  0  0  0  0  0  0  0
   -6.4475   -1.2205    0.9130 H   0  0  0  0  0  0  0  0  0  0  0  0
    4.8435    0.4471   -3.7196 H   0  0  0  0  0  0  0  0  0  0  0  0
    5.4995   -1.4307   -2.2191 H   0  0  0  0  0  0  0  0  0  0  0  0
    5.9249   -3.1678   -0.4853 H   0  0  0  0  0  0  0  0  0  0  0  0
   -8.3817   -3.3053   -1.1572 H   0  0  0  0  0  0  0  0  0  0  0  0
    5.5616   -4.3547    1.9386 H   0  0  0  0  0  0  0  0  0  0  0  0
    3.6730   -2.7791    3.1995 H   0  0  0  0  0  0  0  0  0  0  0  0
  1 12  1  0  0  0  0
  1 15  1  0  0  0  0
  2 11  1  0  0  0  0
  2 16  1  0  0  0  0
  3 17  2  0  0  0  0
  4 25  1  0  0  0  0
  4 28  1  0  0  0  0
  5 24  1  0  0  0  0
  5 46  1  0  0  0  0
  6 24  2  0  0  0  0
  7 13  1  0  0  0  0
  7 17  1  0  0  0  0
  7 37  1  0  0  0  0
  8 14  1  0  0  0  0
  8 18  1  0  0  0  0
  8 38  1  0  0  0  0
  9 18  1  0  0  0  0
  9 21  2  0  0  0  0
 10 18  2  0  0  0  0
 10 22  1  0  0  0  0
 11 12  1  0  0  0  0
 11 13  1  0  0  0  0
 11 29  1  0  0  0  0
 12 14  1  0  0  0  0
 12 30  1  0  0  0  0
 13 15  1  0  0  0  0
 13 31  1  0  0  0  0
 14 16  1  0  0  0  0
 14 32  1  0  0  0  0
 15 33  1  0  0  0  0
 15 34  1  0  0  0  0
 16 35  1  0  0  0  0
 16 36  1  0  0  0  0
 17 19  1  0  0  0  0
 19 20  1  0  0  0  0
 19 39  1  0  0  0  0
 19 40  1  0  0  0  0
 20 24  1  0  0  0  0
 20 41  1  0  0  0  0
 20 42  1  0  0  0  0
 21 23  1  0  0  0  0
 21 25  1  0  0  0  0
 22 23  2  0  0  0  0
 22 43  1  0  0  0  0
 23 44  1  0  0  0  0
 25 26  2  0  0  0  0
 26 27  1  0  0  0  0
 26 45  1  0  0  0  0
 27 28  2  0  0  0  0
 27 47  1  0  0  0  0
 28 48  1  0  0  0  0
M  END
> <PUBCHEM_COMPOUND_CID>
11913297

> <PUBCHEM_CONFORMER_RMSD>
1

> <PUBCHEM_CONFORMER_DIVERSEORDER>
1
70
109
39
85
149
119
115
94
173
136
93
179
153
92
181
133
116
49
168
126
189
155
17
127
151
137
87
147
184
83
163
18
74
108
162
66
82
158
98
12
78
145
132
97
117
75
150
77
111
25
99
58
135
47
91
79
71
170
169
55
46
165
134
125
156
68
50
69
118
73
51
52
157
36
138
34
146
59
180
8
101
167
113
131
40
105
102
106
128
9
107
172
61
142
27
42
121
129
44
185
124
130
139
159
112
45
191
100
62
38
20
32
95
24
164
178
152
141
190
22
123
84
54
15
64
161
104
29
88
160
30
144
48
122
140
187
174
28
96
143
11
19
89
41
63
114
56
183
90
14
13
57
171
76
35
177
37
86
148
10
53
182
23
103
120
176
33
186
154
81
60
110
188
31
65
7
166
21
80
72
67
175
4
2
16
43
26
3
5
6

> <PUBCHEM_MMFF94_PARTIAL_CHARGES>
36
1 -0.56
10 -0.62
11 0.28
12 0.28
13 0.3
14 0.37
15 0.28
16 0.28
17 0.57
18 0.72
19 0.06
2 -0.56
20 0.06
21 0.36
22 0.16
23 -0.15
24 0.66
25 0.09
26 -0.15
27 -0.15
28 -0.01
3 -0.57
37 0.37
38 0.4
4 -0.28
43 0.15
44 0.15
45 0.15
46 0.5
47 0.15
48 0.15
5 -0.65
6 -0.57
7 -0.73
8 -0.87
9 -0.62

> <PUBCHEM_EFFECTIVE_ROTOR_COUNT>
9.2

> <PUBCHEM_PHARMACOPHORE_FEATURES>
15
1 1 acceptor
1 2 acceptor
1 3 acceptor
1 4 acceptor
1 5 acceptor
1 6 acceptor
1 7 donor
1 8 donor
1 9 acceptor
3 5 6 24 anion
4 8 9 10 18 cation
5 1 11 12 13 15 rings
5 2 11 12 14 16 rings
5 4 25 26 27 28 rings
6 9 10 18 21 22 23 rings

> <PUBCHEM_HEAVY_ATOM_COUNT>
28

> <PUBCHEM_ATOM_DEF_STEREO_COUNT>
4

> <PUBCHEM_ATOM_UDEF_STEREO_COUNT>
0

> <PUBCHEM_BOND_DEF_STEREO_COUNT>
0

> <PUBCHEM_BOND_UDEF_STEREO_COUNT>
0

> <PUBCHEM_ISOTOPIC_ATOM_COUNT>
0

> <PUBCHEM_COMPONENT_COUNT>
1

> <PUBCHEM_CACTVS_TAUTO_COUNT>
6

> <PUBCHEM_CONFORMER_ID>
00B5C85100000001

> <PUBCHEM_MMFF94_ENERGY>
57.2702

> <PUBCHEM_FEATURE_SELFOVERLAP>
76.902

> <PUBCHEM_SHAPE_FINGERPRINT>
10622 236 17897720968758820186
10693767 8 18334569166472781547
11069576 57 18041570135493135526
11135609 149 18189874531025916125
11607047 403 18197479922275931104
11796584 16 18131359570420872093
12342043 65 16199328485853142804
12661589 4 18200308965446511723
14150023 79 17980758552094729064
14347332 77 18412824699309231245
15163728 17 7925624552897119769
17134984 74 18188213233301519758
20567600 247 18407759235637708331
20626108 58 18202286904822529057
20691028 202 10953997284110114519
20775438 99 18118392080332561307
208703 8 18412261701494530862
21133410 171 15505433251905609354
21585480 29 15051150398893767783
21585481 104 17385715873651816391
21585483 132 17985531481143162567
21599406 157 17240762951920804719
25222932 49 18342735256522491108
2748736 6 8502379906309512187
2838139 119 12829483809548540101
38570 142 10624988760981574156
3882209 13 15505725670437845954
397830 11 11383836026303090597
439807 62 18335420188842042535
46194498 28 15142973900595386628
463206 1 18335427837292424386
57527295 17 18335715926635451528
57634706 229 13684003352252692898
59025328 239 17313952896953303604
59682541 52 17748823034019423847
60123966 16 15792024397827412366
6058803 2 18119270388745422964
6677587 24 16589991787399071086
7970288 3 18340763750153278567
96874 4 18336820905598209955
9849439 229 8430314632495051413

> <PUBCHEM_SHAPE_MULTIPOLES>
521.09
17.23
4.33
2.13
26.97
0.81
-0.52
22.48
-5.55
-0.37
1.06
-2.73
0.42
-5.54

> <PUBCHEM_SHAPE_SELFOVERLAP>
1125.427

> <PUBCHEM_SHAPE_VOLUME>
284.3

> <PUBCHEM_COORDINATE_TYPE>
2
5
10

$$$$
