11943051
  -OEChem-12032416153D

 45 47  0     1  0  0  0  0  0999 V2000
   -5.6975   -1.0149    0.5440 O   0  0  0  0  0  0  0  0  0  0  0  0
   -1.9523    1.8858   -0.8255 O   0  0  0  0  0  0  0  0  0  0  0  0
    2.5212    1.4289   -0.6341 N   0  0  2  0  0  0  0  0  0  0  0  0
   -0.9062   -0.1500   -0.6669 N   0  0  0  0  0  0  0  0  0  0  0  0
   -3.1484    0.0970    0.0402 N   0  0  0  0  0  0  0  0  0  0  0  0
    3.0882   -0.2307    1.2864 C   0  0  2  0  0  0  0  0  0  0  0  0
    1.2719    0.8228   -0.1003 C   0  0  2  0  0  0  0  0  0  0  0  0
    3.9147   -0.5560    0.0198 C   0  0  2  0  0  0  0  0  0  0  0  0
    1.5889   -0.2816    0.9323 C   0  0  0  0  0  0  0  0  0  0  0  0
    3.4202    1.2193    1.6854 C   0  0  0  0  0  0  0  0  0  0  0  0
    3.4393    0.3713   -1.1242 C   0  0  0  0  0  0  0  0  0  0  0  0
    3.1935    2.1440    0.4772 C   0  0  0  0  0  0  0  0  0  0  0  0
    0.3501    0.3148   -1.2111 C   0  0  0  0  0  0  0  0  0  0  0  0
    3.8432   -2.0023   -0.3680 C   0  0  0  0  0  0  0  0  0  0  0  0
    4.9034   -2.8153   -0.4242 C   0  0  0  0  0  0  0  0  0  0  0  0
   -2.0001    0.6927   -0.5081 C   0  0  0  0  0  0  0  0  0  0  0  0
   -3.2867   -1.3099    0.4429 C   0  0  0  0  0  0  0  0  0  0  0  0
   -4.2883    0.9428    0.4013 C   0  0  0  0  0  0  0  0  0  0  0  0
   -4.6549   -1.8550    0.0477 C   0  0  0  0  0  0  0  0  0  0  0  0
   -5.6003    0.2964   -0.0149 C   0  0  0  0  0  0  0  0  0  0  0  0
    3.3172   -0.9191    2.1075 H   0  0  0  0  0  0  0  0  0  0  0  0
    0.7172    1.6180    0.4195 H   0  0  0  0  0  0  0  0  0  0  0  0
    4.9631   -0.3054    0.2385 H   0  0  0  0  0  0  0  0  0  0  0  0
    1.3182   -1.2785    0.5694 H   0  0  0  0  0  0  0  0  0  0  0  0
    0.9957   -0.1081    1.8392 H   0  0  0  0  0  0  0  0  0  0  0  0
    4.4611    1.2939    2.0212 H   0  0  0  0  0  0  0  0  0  0  0  0
    2.7851    1.5311    2.5233 H   0  0  0  0  0  0  0  0  0  0  0  0
    4.3143    0.8498   -1.5847 H   0  0  0  0  0  0  0  0  0  0  0  0
    2.9701   -0.1875   -1.9424 H   0  0  0  0  0  0  0  0  0  0  0  0
    2.5956    3.0128    0.7791 H   0  0  0  0  0  0  0  0  0  0  0  0
    4.1503    2.5543    0.1299 H   0  0  0  0  0  0  0  0  0  0  0  0
    0.7864   -0.5337   -1.7481 H   0  0  0  0  0  0  0  0  0  0  0  0
    0.1550    1.1086   -1.9412 H   0  0  0  0  0  0  0  0  0  0  0  0
    2.8752   -2.4148   -0.6399 H   0  0  0  0  0  0  0  0  0  0  0  0
   -0.9250   -1.1038   -0.3337 H   0  0  0  0  0  0  0  0  0  0  0  0
    4.7856   -3.8514   -0.7224 H   0  0  0  0  0  0  0  0  0  0  0  0
    5.9002   -2.4682   -0.1762 H   0  0  0  0  0  0  0  0  0  0  0  0
   -2.5215   -1.9518    0.0073 H   0  0  0  0  0  0  0  0  0  0  0  0
   -3.1725   -1.3290    1.5330 H   0  0  0  0  0  0  0  0  0  0  0  0
   -4.2536    1.0539    1.4917 H   0  0  0  0  0  0  0  0  0  0  0  0
   -4.1993    1.9395   -0.0407 H   0  0  0  0  0  0  0  0  0  0  0  0
   -4.7479   -1.9399   -1.0418 H   0  0  0  0  0  0  0  0  0  0  0  0
   -4.7966   -2.8539    0.4721 H   0  0  0  0  0  0  0  0  0  0  0  0
   -6.4445    0.8847    0.3581 H   0  0  0  0  0  0  0  0  0  0  0  0
   -5.6895    0.2352   -1.1060 H   0  0  0  0  0  0  0  0  0  0  0  0
  1 19  1  0  0  0  0
  1 20  1  0  0  0  0
  2 16  2  0  0  0  0
  3  7  1  0  0  0  0
  3 11  1  0  0  0  0
  3 12  1  0  0  0  0
  4 13  1  0  0  0  0
  4 16  1  0  0  0  0
  4 35  1  0  0  0  0
  5 16  1  0  0  0  0
  5 17  1  0  0  0  0
  5 18  1  0  0  0  0
  6  8  1  0  0  0  0
  6  9  1  0  0  0  0
  6 10  1  0  0  0  0
  6 21  1  0  0  0  0
  7  9  1  0  0  0  0
  7 13  1  0  0  0  0
  7 22  1  0  0  0  0
  8 11  1  0  0  0  0
  8 14  1  0  0  0  0
  8 23  1  0  0  0  0
  9 24  1  0  0  0  0
  9 25  1  0  0  0  0
 10 12  1  0  0  0  0
 10 26  1  0  0  0  0
 10 27  1  0  0  0  0
 11 28  1  0  0  0  0
 11 29  1  0  0  0  0
 12 30  1  0  0  0  0
 12 31  1  0  0  0  0
 13 32  1  0  0  0  0
 13 33  1  0  0  0  0
 14 15  2  0  0  0  0
 14 34  1  0  0  0  0
 15 36  1  0  0  0  0
 15 37  1  0  0  0  0
 17 19  1  0  0  0  0
 17 38  1  0  0  0  0
 17 39  1  0  0  0  0
 18 20  1  0  0  0  0
 18 40  1  0  0  0  0
 18 41  1  0  0  0  0
 19 42  1  0  0  0  0
 19 43  1  0  0  0  0
 20 44  1  0  0  0  0
 20 45  1  0  0  0  0
M  END
> <PUBCHEM_COMPOUND_CID>
11943051

> <PUBCHEM_CONFORMER_RMSD>
0.8

> <PUBCHEM_CONFORMER_DIVERSEORDER>
1
10
7
2
13
12
5
11
6
4
3
8
9

> <PUBCHEM_MMFF94_PARTIAL_CHARGES>
21
1 -0.56
11 0.27
12 0.27
13 0.3
14 -0.29
15 -0.3
16 0.69
17 0.3
18 0.3
19 0.28
2 -0.57
20 0.28
3 -0.81
34 0.15
35 0.37
36 0.15
37 0.15
4 -0.73
5 -0.66
7 0.27
8 0.14

> <PUBCHEM_EFFECTIVE_ROTOR_COUNT>
7.4

> <PUBCHEM_PHARMACOPHORE_FEATURES>
7
1 1 acceptor
1 15 hydrophobe
1 2 acceptor
1 3 cation
1 4 donor
6 1 5 17 18 19 20 rings
8 3 6 7 8 9 10 11 12 rings

> <PUBCHEM_HEAVY_ATOM_COUNT>
20

> <PUBCHEM_ATOM_DEF_STEREO_COUNT>
3

> <PUBCHEM_ATOM_UDEF_STEREO_COUNT>
0

> <PUBCHEM_BOND_DEF_STEREO_COUNT>
0

> <PUBCHEM_BOND_UDEF_STEREO_COUNT>
0

> <PUBCHEM_ISOTOPIC_ATOM_COUNT>
0

> <PUBCHEM_COMPONENT_COUNT>
1

> <PUBCHEM_CACTVS_TAUTO_COUNT>
2

> <PUBCHEM_CONFORMER_ID>
00B63C8B00000001

> <PUBCHEM_MMFF94_ENERGY>
43.542

> <PUBCHEM_FEATURE_SELFOVERLAP>
35.52

> <PUBCHEM_SHAPE_FINGERPRINT>
10366900 7 16950568752905417153
11405975 8 18272937094154251593
11552529 35 17773316953351844895
11858739 19 18408037403869383303
12107183 9 17981897345513545193
12507560 40 18341043051760187692
12553582 1 16732703848324356645
13167823 11 18334576862974852883
13464513 79 17821729425511941782
13533116 47 18342459253075756411
13583140 156 18201422680092941669
13675066 3 18272923912583323157
13911852 28 18055069852985434494
13955234 65 18343017835421802480
14251740 57 18334861657623959071
14251764 30 18194404386326690142
14252887 29 18335417984990751240
14341114 176 18341335513194306009
14420673 8 18123757452210367198
14528608 73 8358250441023502954
15061688 2 9438817492818206702
15375358 24 9583511023329855716
15880784 105 18343585170378798323
17844677 252 18343589542555324201
17959699 21 9079115557393199791
1813 80 17022619793033994887
18222031 100 17312821580549186517
193927 3 17821738255806589915
20645477 70 18187365441306665534
21065198 57 18413670210254126897
21065199 12 18341607126915886849
22646028 1 17385436639946530097
23559900 14 18335140890495476365
239999 70 18040435529476093512
3060560 45 15719399443036420686
316301 35 18335134263846885002
3421961 26 18342173333140164746
465052 167 18201163169943096862
5104073 3 18130795555446930675
5374978 207 18333726953097398257
56616090 278 17273972626832379048
7495541 125 18341897372711454278
8509985 295 16272205275924783970
8863177 126 18412263922008433758
960060 61 14417851440558424519
9709674 26 18260833743075581667

> <PUBCHEM_SHAPE_MULTIPOLES>
384.91
12.7
2.24
1.16
13.53
0.88
0.15
5.16
1.49
-2.23
-0.07
-0.92
-0.27
1.04

> <PUBCHEM_SHAPE_SELFOVERLAP>
792.241

> <PUBCHEM_SHAPE_VOLUME>
216.4

> <PUBCHEM_COORDINATE_TYPE>
2
5
10

$$$$
