11886484
  -OEChem-12032416233D

 52 56  0     1  0  0  0  0  0999 V2000
    8.8678    0.5710   -0.7682 Cl  0  0  0  0  0  0  0  0  0  0  0  0
    0.4029   -2.4009   -1.4694 O   0  0  0  0  0  0  0  0  0  0  0  0
   -3.4149    0.9269   -2.5045 O   0  0  0  0  0  0  0  0  0  0  0  0
   -3.9375   -0.1534   -0.4959 N   0  0  0  0  0  0  0  0  0  0  0  0
   -1.3746   -1.9629   -0.0265 N   0  0  0  0  0  0  0  0  0  0  0  0
   -1.0681    3.2443    0.4004 N   0  0  0  0  0  0  0  0  0  0  0  0
   -3.2605    4.2445    0.3877 N   0  0  0  0  0  0  0  0  0  0  0  0
   -3.7858   -2.6364   -0.5738 C   0  0  1  0  0  0  0  0  0  0  0  0
   -3.2920   -1.4464    1.5234 C   0  0  2  0  0  0  0  0  0  0  0  0
   -3.9650   -2.6875    0.9394 C   0  0  0  0  0  0  0  0  0  0  0  0
   -4.4345   -1.3641   -1.1491 C   0  0  0  0  0  0  0  0  0  0  0  0
   -2.2885   -2.7176   -0.8967 C   0  0  0  0  0  0  0  0  0  0  0  0
   -3.9795   -0.1798    0.9751 C   0  0  0  0  0  0  0  0  0  0  0  0
   -1.8146   -1.4146    1.1806 C   0  0  0  0  0  0  0  0  0  0  0  0
   -0.9389   -0.8307    2.0136 C   0  0  0  0  0  0  0  0  0  0  0  0
   -0.0223   -1.9110   -0.4214 C   0  0  0  0  0  0  0  0  0  0  0  0
   -3.4526    0.8991   -1.2757 C   0  0  0  0  0  0  0  0  0  0  0  0
    0.9306   -1.2226    0.5190 C   0  0  0  0  0  0  0  0  0  0  0  0
    0.4516   -0.7353    1.6719 C   0  0  0  0  0  0  0  0  0  0  0  0
   -2.9190    2.0774   -0.5843 C   0  0  0  0  0  0  0  0  0  0  0  0
    2.3257   -1.1101    0.1748 C   0  0  0  0  0  0  0  0  0  0  0  0
   -1.5924    2.1761   -0.2356 C   0  0  0  0  0  0  0  0  0  0  0  0
   -3.7175    3.1456   -0.2479 C   0  0  0  0  0  0  0  0  0  0  0  0
    3.0945   -0.0914    0.5794 C   0  0  0  0  0  0  0  0  0  0  0  0
    4.5203    0.0719    0.2461 C   0  0  0  0  0  0  0  0  0  0  0  0
   -1.9455    4.2277    0.6774 C   0  0  0  0  0  0  0  0  0  0  0  0
    5.2520   -1.0302   -0.1658 C   0  0  0  0  0  0  0  0  0  0  0  0
    5.1023    1.3251    0.3511 C   0  0  0  0  0  0  0  0  0  0  0  0
    6.6019   -0.8751   -0.4809 C   0  0  0  0  0  0  0  0  0  0  0  0
    6.4522    1.4803    0.0359 C   0  0  0  0  0  0  0  0  0  0  0  0
    7.2021    0.3801   -0.3803 C   0  0  0  0  0  0  0  0  0  0  0  0
   -4.2847   -3.4989   -1.0327 H   0  0  0  0  0  0  0  0  0  0  0  0
   -3.4206   -1.4673    2.6133 H   0  0  0  0  0  0  0  0  0  0  0  0
   -3.5198   -3.6021    1.3509 H   0  0  0  0  0  0  0  0  0  0  0  0
   -5.0306   -2.7038    1.1986 H   0  0  0  0  0  0  0  0  0  0  0  0
   -4.2750   -1.3141   -2.2315 H   0  0  0  0  0  0  0  0  0  0  0  0
   -5.5186   -1.3912   -0.9841 H   0  0  0  0  0  0  0  0  0  0  0  0
   -1.9697   -3.7662   -0.8193 H   0  0  0  0  0  0  0  0  0  0  0  0
   -2.1042   -2.4227   -1.9375 H   0  0  0  0  0  0  0  0  0  0  0  0
   -5.0386   -0.1737    1.2614 H   0  0  0  0  0  0  0  0  0  0  0  0
   -3.5298    0.7155    1.4111 H   0  0  0  0  0  0  0  0  0  0  0  0
   -1.2562   -0.3866    2.9513 H   0  0  0  0  0  0  0  0  0  0  0  0
    1.0782   -0.2502    2.4140 H   0  0  0  0  0  0  0  0  0  0  0  0
    2.7128   -1.9022   -0.4579 H   0  0  0  0  0  0  0  0  0  0  0  0
   -0.8830    1.3888   -0.4668 H   0  0  0  0  0  0  0  0  0  0  0  0
   -4.7774    3.1596   -0.4804 H   0  0  0  0  0  0  0  0  0  0  0  0
    2.6784    0.7195    1.1732 H   0  0  0  0  0  0  0  0  0  0  0  0
   -1.5514    5.0977    1.1882 H   0  0  0  0  0  0  0  0  0  0  0  0
    4.8341   -2.0293   -0.2369 H   0  0  0  0  0  0  0  0  0  0  0  0
    4.5314    2.1923    0.6723 H   0  0  0  0  0  0  0  0  0  0  0  0
    7.1758   -1.7419   -0.7988 H   0  0  0  0  0  0  0  0  0  0  0  0
    6.9065    2.4643    0.1189 H   0  0  0  0  0  0  0  0  0  0  0  0
  1 31  1  0  0  0  0
  2 16  2  0  0  0  0
  3 17  2  0  0  0  0
  4 11  1  0  0  0  0
  4 13  1  0  0  0  0
  4 17  1  0  0  0  0
  5 12  1  0  0  0  0
  5 14  1  0  0  0  0
  5 16  1  0  0  0  0
  6 22  2  0  0  0  0
  6 26  1  0  0  0  0
  7 23  1  0  0  0  0
  7 26  2  0  0  0  0
  8 10  1  0  0  0  0
  8 11  1  0  0  0  0
  8 12  1  0  0  0  0
  8 32  1  0  0  0  0
  9 10  1  0  0  0  0
  9 13  1  0  0  0  0
  9 14  1  0  0  0  0
  9 33  1  0  0  0  0
 10 34  1  0  0  0  0
 10 35  1  0  0  0  0
 11 36  1  0  0  0  0
 11 37  1  0  0  0  0
 12 38  1  0  0  0  0
 12 39  1  0  0  0  0
 13 40  1  0  0  0  0
 13 41  1  0  0  0  0
 14 15  2  0  0  0  0
 15 19  1  0  0  0  0
 15 42  1  0  0  0  0
 16 18  1  0  0  0  0
 17 20  1  0  0  0  0
 18 19  2  0  0  0  0
 18 21  1  0  0  0  0
 19 43  1  0  0  0  0
 20 22  1  0  0  0  0
 20 23  2  0  0  0  0
 21 24  2  0  0  0  0
 21 44  1  0  0  0  0
 22 45  1  0  0  0  0
 23 46  1  0  0  0  0
 24 25  1  0  0  0  0
 24 47  1  0  0  0  0
 25 27  2  0  0  0  0
 25 28  1  0  0  0  0
 26 48  1  0  0  0  0
 27 29  1  0  0  0  0
 27 49  1  0  0  0  0
 28 30  2  0  0  0  0
 28 50  1  0  0  0  0
 29 31  2  0  0  0  0
 29 51  1  0  0  0  0
 30 31  1  0  0  0  0
 30 52  1  0  0  0  0
M  END
> <PUBCHEM_COMPOUND_CID>
11886484

> <PUBCHEM_CONFORMER_RMSD>
0.8

> <PUBCHEM_CONFORMER_DIVERSEORDER>
1
6
5
3
4
2

> <PUBCHEM_MMFF94_PARTIAL_CHARGES>
40
1 -0.18
11 0.3
12 0.3
13 0.3
14 -0.03
15 -0.15
16 0.62
17 0.54
18 0.01
19 -0.15
2 -0.57
20 0.09
21 -0.15
22 0.16
23 0.16
24 -0.18
25 0.03
26 0.47
27 -0.15
28 -0.15
29 -0.15
3 -0.57
30 -0.15
31 0.18
4 -0.66
42 0.15
43 0.15
44 0.15
45 0.15
46 0.15
47 0.15
48 0.15
49 0.15
5 -0.47
50 0.15
51 0.15
52 0.15
6 -0.62
7 -0.62
9 0.14

> <PUBCHEM_EFFECTIVE_ROTOR_COUNT>
5

> <PUBCHEM_PHARMACOPHORE_FEATURES>
9
1 2 acceptor
1 3 acceptor
1 6 acceptor
3 6 7 26 cation
6 25 27 28 29 30 31 rings
6 4 8 9 10 11 13 rings
6 5 14 15 16 18 19 rings
6 5 8 9 10 12 14 rings
6 6 7 20 22 23 26 rings

> <PUBCHEM_HEAVY_ATOM_COUNT>
31

> <PUBCHEM_ATOM_DEF_STEREO_COUNT>
2

> <PUBCHEM_ATOM_UDEF_STEREO_COUNT>
0

> <PUBCHEM_BOND_DEF_STEREO_COUNT>
1

> <PUBCHEM_BOND_UDEF_STEREO_COUNT>
0

> <PUBCHEM_ISOTOPIC_ATOM_COUNT>
0

> <PUBCHEM_COMPONENT_COUNT>
1

> <PUBCHEM_CACTVS_TAUTO_COUNT>
1

> <PUBCHEM_CONFORMER_ID>
00B55F9400000001

> <PUBCHEM_MMFF94_ENERGY>
92.3748

> <PUBCHEM_FEATURE_SELFOVERLAP>
47.254

> <PUBCHEM_SHAPE_FINGERPRINT>
10076449 9 18334857256041947483
100830 39 18410856547694163884
10165383 225 17988933241274996979
10291535 26 18335706030982419491
10454371 7 18409736158125127156
10670039 82 18409163316713933480
11477941 20 18270950357952177988
11524674 6 8862674486015509641
11578080 2 18127423262584280543
12107698 1 18334577992746300624
12788726 201 18334848446209566234
14347329 18 18341043013553726112
14713325 29 18411703166809317331
14950920 106 12252481998360182598
15183329 4 18342455959379263150
15297060 5 18272370819580138929
15439362 3 17836369242320903060
15604295 49 18198903794794136048
15876981 60 18261396714509108191
17093844 170 8177831028703489339
17492 54 18117251728572436685
17844677 252 18335143124574919310
19611394 137 17972889334832713115
19958102 18 17989212547188007478
21236236 1 18335422357351861088
21859007 373 18201422672484072408
22956985 138 16671643840350518899
255183 451 17693930096539910215
354706 132 18263366906777661540
3610482 184 18188787045754571844
445580 37 18334022701025562612
469060 322 16154004469172631729
497634 4 17775293801837739739
5171179 24 18058437871501543793
5283173 99 18413106139672918248
531348 171 18341330003205647274
57527452 28 16558745767873029727
57527585 21 18055046806602056229
7288768 16 17898016737618611977

> <PUBCHEM_SHAPE_MULTIPOLES>
608.17
16.49
4.27
1.47
46.35
4.72
-0.05
2.27
-4.05
-7.26
0.13
-1.54
-0.39
0.37

> <PUBCHEM_SHAPE_SELFOVERLAP>
1333.28

> <PUBCHEM_SHAPE_VOLUME>
325.6

> <PUBCHEM_COORDINATE_TYPE>
2
5
10

$$$$
