26743082
  -OEChem-12032416193D

 53 56  0     1  0  0  0  0  0999 V2000
   -6.4252   -0.8147   -0.0530 S   0  0  0  0  0  0  0  0  0  0  0  0
    6.8701    0.7000    1.9664 S   0  0  0  0  0  0  0  0  0  0  0  0
   -3.7441   -2.7556   -0.4984 O   0  0  0  0  0  0  0  0  0  0  0  0
    4.2130   -1.0220   -1.4866 O   0  0  0  0  0  0  0  0  0  0  0  0
   -0.1127    2.0473   -0.6324 N   0  0  0  0  0  0  0  0  0  0  0  0
   -2.3787   -2.7215   -0.7539 N   0  0  0  0  0  0  0  0  0  0  0  0
    4.7299   -0.1182    0.6191 N   0  0  0  0  0  0  0  0  0  0  0  0
    6.9371   -0.2465   -0.4382 N   0  0  0  0  0  0  0  0  0  0  0  0
    1.4549   -0.4195   -1.0380 C   0  0  1  0  0  0  0  0  0  0  0  0
   -0.0268   -0.4341   -0.5924 C   0  0  2  0  0  0  0  0  0  0  0  0
    1.7406    0.8927   -1.7874 C   0  0  0  0  0  0  0  0  0  0  0  0
   -0.4064    0.8525    0.1599 C   0  0  0  0  0  0  0  0  0  0  0  0
    1.3005    2.1239   -0.9965 C   0  0  0  0  0  0  0  0  0  0  0  0
   -0.3917   -1.6675    0.2348 C   0  0  0  0  0  0  0  0  0  0  0  0
    2.4531   -0.6216    0.1082 C   0  0  0  0  0  0  0  0  0  0  0  0
   -1.8686   -1.9340    0.1973 C   0  0  0  0  0  0  0  0  0  0  0  0
    3.8926   -0.6221   -0.3721 C   0  0  0  0  0  0  0  0  0  0  0  0
   -2.8548   -1.4471    1.0727 C   0  0  0  0  0  0  0  0  0  0  0  0
   -4.0153   -1.9930    0.5915 C   0  0  0  0  0  0  0  0  0  0  0  0
   -5.4218   -1.9173    1.0048 C   0  0  0  0  0  0  0  0  0  0  0  0
    6.1346    0.0442    0.5614 C   0  0  0  0  0  0  0  0  0  0  0  0
    8.3949    0.5915    1.1888 C   0  0  0  0  0  0  0  0  0  0  0  0
    8.2326    0.0682   -0.0768 C   0  0  0  0  0  0  0  0  0  0  0  0
   -5.5036    0.7112    0.0725 C   0  0  0  0  0  0  0  0  0  0  0  0
   -5.3172    1.3133    1.3168 C   0  0  0  0  0  0  0  0  0  0  0  0
   -4.9711    1.3002   -1.0741 C   0  0  0  0  0  0  0  0  0  0  0  0
   -4.5981    2.5046    1.4145 C   0  0  0  0  0  0  0  0  0  0  0  0
   -4.2520    2.4914   -0.9765 C   0  0  0  0  0  0  0  0  0  0  0  0
   -4.0656    3.0936    0.2678 C   0  0  0  0  0  0  0  0  0  0  0  0
    1.5975   -1.2431   -1.7517 H   0  0  0  0  0  0  0  0  0  0  0  0
   -0.6228   -0.4545   -1.5185 H   0  0  0  0  0  0  0  0  0  0  0  0
    1.1879    0.8742   -2.7372 H   0  0  0  0  0  0  0  0  0  0  0  0
    2.7937    0.9977   -2.0650 H   0  0  0  0  0  0  0  0  0  0  0  0
   -1.4798    0.8664    0.3700 H   0  0  0  0  0  0  0  0  0  0  0  0
    0.1038    0.9106    1.1288 H   0  0  0  0  0  0  0  0  0  0  0  0
    1.9186    2.2539   -0.1007 H   0  0  0  0  0  0  0  0  0  0  0  0
    1.4525    3.0152   -1.6154 H   0  0  0  0  0  0  0  0  0  0  0  0
   -0.0668   -1.5559    1.2766 H   0  0  0  0  0  0  0  0  0  0  0  0
    0.1253   -2.5512   -0.1618 H   0  0  0  0  0  0  0  0  0  0  0  0
    2.2924   -1.5933    0.5895 H   0  0  0  0  0  0  0  0  0  0  0  0
    2.3113    0.1431    0.8793 H   0  0  0  0  0  0  0  0  0  0  0  0
   -0.3699    2.8774   -0.0992 H   0  0  0  0  0  0  0  0  0  0  0  0
   -2.7406   -0.7990    1.9291 H   0  0  0  0  0  0  0  0  0  0  0  0
    4.3246    0.1727    1.5052 H   0  0  0  0  0  0  0  0  0  0  0  0
   -5.8756   -2.9134    0.9631 H   0  0  0  0  0  0  0  0  0  0  0  0
   -5.5017   -1.5821    2.0442 H   0  0  0  0  0  0  0  0  0  0  0  0
    9.3062    0.9055    1.6771 H   0  0  0  0  0  0  0  0  0  0  0  0
    9.0337   -0.1060   -0.7823 H   0  0  0  0  0  0  0  0  0  0  0  0
   -5.7290    0.8765    2.2231 H   0  0  0  0  0  0  0  0  0  0  0  0
   -5.1046    0.8446   -2.0521 H   0  0  0  0  0  0  0  0  0  0  0  0
   -4.4535    2.9739    2.3831 H   0  0  0  0  0  0  0  0  0  0  0  0
   -3.8354    2.9494   -1.8689 H   0  0  0  0  0  0  0  0  0  0  0  0
   -3.5044    4.0203    0.3438 H   0  0  0  0  0  0  0  0  0  0  0  0
  1 20  1  0  0  0  0
  1 24  1  0  0  0  0
  2 21  1  0  0  0  0
  2 22  1  0  0  0  0
  3  6  1  0  0  0  0
  3 19  1  0  0  0  0
  4 17  2  0  0  0  0
  5 12  1  0  0  0  0
  5 13  1  0  0  0  0
  5 42  1  0  0  0  0
  6 16  2  0  0  0  0
  7 17  1  0  0  0  0
  7 21  1  0  0  0  0
  7 44  1  0  0  0  0
  8 21  2  0  0  0  0
  8 23  1  0  0  0  0
  9 10  1  0  0  0  0
  9 11  1  0  0  0  0
  9 15  1  0  0  0  0
  9 30  1  0  0  0  0
 10 12  1  0  0  0  0
 10 14  1  0  0  0  0
 10 31  1  0  0  0  0
 11 13  1  0  0  0  0
 11 32  1  0  0  0  0
 11 33  1  0  0  0  0
 12 34  1  0  0  0  0
 12 35  1  0  0  0  0
 13 36  1  0  0  0  0
 13 37  1  0  0  0  0
 14 16  1  0  0  0  0
 14 38  1  0  0  0  0
 14 39  1  0  0  0  0
 15 17  1  0  0  0  0
 15 40  1  0  0  0  0
 15 41  1  0  0  0  0
 16 18  1  0  0  0  0
 18 19  2  0  0  0  0
 18 43  1  0  0  0  0
 19 20  1  0  0  0  0
 20 45  1  0  0  0  0
 20 46  1  0  0  0  0
 22 23  2  0  0  0  0
 22 47  1  0  0  0  0
 23 48  1  0  0  0  0
 24 25  2  0  0  0  0
 24 26  1  0  0  0  0
 25 27  1  0  0  0  0
 25 49  1  0  0  0  0
 26 28  2  0  0  0  0
 26 50  1  0  0  0  0
 27 29  2  0  0  0  0
 27 51  1  0  0  0  0
 28 29  1  0  0  0  0
 28 52  1  0  0  0  0
 29 53  1  0  0  0  0
M  END
> <PUBCHEM_COMPOUND_CID>
26743082

> <PUBCHEM_CONFORMER_RMSD>
1.4

> <PUBCHEM_CONFORMER_DIVERSEORDER>
1
28
88
118
108
5
10
103
87
27
55
19
73
21
123
61
74
104
105
84
39
120
101
117
67
116
45
9
24
64
49
34
37
113
80
79
121
78
112
31
58
100
72
25
96
89
71
107
32
122
81
70
115
56
60
98
8
50
82
109
12
46
92
16
119
13
66
6
91
97
99
102
51
63
44
75
38
2
77
30
94
53
85
86
106
22
48
90
15
33
110
41
83
20
114
11
36
18
47
35
40
29
7
26
42
93
76
17
52
65
14
62
68
57
3
111
69
4
95
23
43
59
54

> <PUBCHEM_MMFF94_PARTIAL_CHARGES>
36
1 -0.33
12 0.27
13 0.27
14 0.18
15 0.06
16 0.11
17 0.57
18 -0.15
19 -0.04
2 -0.08
20 0.41
21 0.44
22 -0.11
23 0.08
24 0.1
25 -0.15
26 -0.15
27 -0.15
28 -0.15
29 -0.15
3 -0.02
4 -0.57
42 0.36
43 0.15
44 0.37
47 0.15
48 0.15
49 0.15
5 -0.9
50 0.15
51 0.15
52 0.15
53 0.15
6 -0.41
7 -0.49
8 -0.57

> <PUBCHEM_EFFECTIVE_ROTOR_COUNT>
10.2

> <PUBCHEM_PHARMACOPHORE_FEATURES>
9
1 4 acceptor
1 5 cation
1 5 donor
1 6 acceptor
1 7 donor
5 2 8 21 22 23 rings
5 3 6 16 18 19 rings
6 24 25 26 27 28 29 rings
6 5 9 10 11 12 13 rings

> <PUBCHEM_HEAVY_ATOM_COUNT>
29

> <PUBCHEM_ATOM_DEF_STEREO_COUNT>
2

> <PUBCHEM_ATOM_UDEF_STEREO_COUNT>
0

> <PUBCHEM_BOND_DEF_STEREO_COUNT>
0

> <PUBCHEM_BOND_UDEF_STEREO_COUNT>
0

> <PUBCHEM_ISOTOPIC_ATOM_COUNT>
0

> <PUBCHEM_COMPONENT_COUNT>
1

> <PUBCHEM_CACTVS_TAUTO_COUNT>
3

> <PUBCHEM_CONFORMER_ID>
0198112A00000001

> <PUBCHEM_MMFF94_ENERGY>
44.327

> <PUBCHEM_FEATURE_SELFOVERLAP>
45.672

> <PUBCHEM_SHAPE_FINGERPRINT>
100830 39 18410291397847153017
10554248 39 14907907094123221692
10625338 86 18060133263266334544
10838868 229 17902219024053462394
11434127 23 18059007255880392373
12104220 1 18341611482050070385
12838862 33 18335133139119302221
13383665 225 18262820518723808636
13403585 85 18342175578954152691
14294032 229 18041564612265589140
14466204 15 18334014973609276427
15021287 119 17022908947090724340
15119646 104 16805316679140193666
15119646 57 16055769633882005937
15183329 4 17821734939775475774
15301273 46 18343868814804434774
15461852 350 17703506696524492503
18336668 15 18040156219100110181
21033648 29 17917702509233583282
21236236 1 18408886235235429223
21792961 116 17560806490684231818
23522609 53 17241632601114128676
25147074 1 17968391133962681892
2838139 119 14908184161930575050
3383291 50 18334863852843202667
373842 8 18201152269285068536
444735 82 18265895938546491960
552612 73 18200584917306374488
7226269 152 18271242729466770025
999808 66 12396298149538592058

> <PUBCHEM_SHAPE_MULTIPOLES>
572.84
21.65
2.98
1.45
38.92
0.46
0.14
2.88
7.51
-6.43
-0.02
0.78
0.42
0.53

> <PUBCHEM_SHAPE_SELFOVERLAP>
1187.869

> <PUBCHEM_SHAPE_VOLUME>
327.7

> <PUBCHEM_COORDINATE_TYPE>
2
5
10

$$$$
