45361687
  -OEChem-12032416183D

 70 73  0     1  0  0  0  0  0999 V2000
    0.0875    2.6743    0.0746 S   0  0  0  0  0  0  0  0  0  0  0  0
    4.1385    3.0559    1.2343 F   0  0  0  0  0  0  0  0  0  0  0  0
    5.7031   -0.6660   -1.2683 F   0  0  0  0  0  0  0  0  0  0  0  0
   -7.4145    0.5433   -0.8222 O   0  0  0  0  0  0  0  0  0  0  0  0
   -7.0440    2.4154    0.6279 O   0  0  0  0  0  0  0  0  0  0  0  0
    0.0340   -2.4497   -1.2756 O   0  0  0  0  0  0  0  0  0  0  0  0
    3.4118   -0.6181   -0.0674 O   0  0  0  0  0  0  0  0  0  0  0  0
    0.4921    0.1215   -0.0341 N   0  0  0  0  0  0  0  0  0  0  0  0
    0.2394   -3.9627    0.4702 N   0  0  0  0  0  0  0  0  0  0  0  0
    2.4465    1.5306    0.0273 N   0  0  0  0  0  0  0  0  0  0  0  0
   -3.3141   -0.3668    0.3466 C   0  0  2  0  0  0  0  0  0  0  0  0
   -3.6430    0.9985   -0.4039 C   0  0  1  0  0  0  0  0  0  0  0  0
   -5.1574    1.4357   -0.4636 C   0  0  1  0  0  0  0  0  0  0  0  0
   -1.8454   -0.8255   -0.0848 C   0  0  1  0  0  0  0  0  0  0  0  0
   -4.3192   -1.4582   -0.1048 C   0  0  0  0  0  0  0  0  0  0  0  0
   -6.0264    0.2166   -0.8844 C   0  0  1  0  0  0  0  0  0  0  0  0
   -2.6788    2.1372    0.0390 C   0  0  0  0  0  0  0  0  0  0  0  0
   -5.7757   -1.0229   -0.0326 C   0  0  0  0  0  0  0  0  0  0  0  0
   -3.3810   -0.2368    1.8880 C   0  0  0  0  0  0  0  0  0  0  0  0
   -0.8752    0.3258   -0.0145 C   0  0  0  0  0  0  0  0  0  0  0  0
   -5.6930    2.0704    0.8388 C   0  0  0  0  0  0  0  0  0  0  0  0
   -5.3277    2.5250   -1.5601 C   0  0  0  0  0  0  0  0  0  0  0  0
   -1.2701    1.6475    0.0222 C   0  0  0  0  0  0  0  0  0  0  0  0
   -1.3144   -2.0539    0.6663 C   0  0  0  0  0  0  0  0  0  0  0  0
   -0.2913   -2.8246   -0.1460 C   0  0  0  0  0  0  0  0  0  0  0  0
    1.0987    1.2875    0.0169 C   0  0  0  0  0  0  0  0  0  0  0  0
    1.2347   -4.8129   -0.1790 C   0  0  0  0  0  0  0  0  0  0  0  0
   -0.1605   -4.3863    1.8065 C   0  0  0  0  0  0  0  0  0  0  0  0
    3.5169    0.6026   -0.0137 C   0  0  0  0  0  0  0  0  0  0  0  0
    2.5992   -4.3135    0.1616 C   0  0  0  0  0  0  0  0  0  0  0  0
    4.8865    1.1803   -0.0168 C   0  0  0  0  0  0  0  0  0  0  0  0
    3.4994   -3.9244   -0.7484 C   0  0  0  0  0  0  0  0  0  0  0  0
    5.1312    2.3979    0.6183 C   0  0  0  0  0  0  0  0  0  0  0  0
    5.9270    0.5049   -0.6546 C   0  0  0  0  0  0  0  0  0  0  0  0
    6.4164    2.9401    0.6156 C   0  0  0  0  0  0  0  0  0  0  0  0
    7.2122    1.0470   -0.6574 C   0  0  0  0  0  0  0  0  0  0  0  0
    7.4570    2.2645   -0.0220 C   0  0  0  0  0  0  0  0  0  0  0  0
   -3.3837    0.7908   -1.4567 H   0  0  0  0  0  0  0  0  0  0  0  0
   -1.9176   -1.0727   -1.1545 H   0  0  0  0  0  0  0  0  0  0  0  0
   -4.2083   -2.3654    0.4997 H   0  0  0  0  0  0  0  0  0  0  0  0
   -4.1020   -1.7522   -1.1403 H   0  0  0  0  0  0  0  0  0  0  0  0
   -5.8084   -0.0315   -1.9317 H   0  0  0  0  0  0  0  0  0  0  0  0
   -2.9232    2.4872    1.0475 H   0  0  0  0  0  0  0  0  0  0  0  0
   -2.7703    2.9929   -0.6382 H   0  0  0  0  0  0  0  0  0  0  0  0
   -6.4132   -1.8419   -0.3898 H   0  0  0  0  0  0  0  0  0  0  0  0
   -6.0900   -0.8521    1.0029 H   0  0  0  0  0  0  0  0  0  0  0  0
   -4.3768    0.0076    2.2519 H   0  0  0  0  0  0  0  0  0  0  0  0
   -3.1231   -1.1827    2.3771 H   0  0  0  0  0  0  0  0  0  0  0  0
   -2.6908    0.5171    2.2764 H   0  0  0  0  0  0  0  0  0  0  0  0
   -5.1449    2.9796    1.1039 H   0  0  0  0  0  0  0  0  0  0  0  0
   -5.6651    1.3909    1.6868 H   0  0  0  0  0  0  0  0  0  0  0  0
   -4.8509    3.4685   -1.2749 H   0  0  0  0  0  0  0  0  0  0  0  0
   -4.8814    2.2010   -2.5074 H   0  0  0  0  0  0  0  0  0  0  0  0
   -6.3803    2.7475   -1.7680 H   0  0  0  0  0  0  0  0  0  0  0  0
   -0.8594   -1.7424    1.6140 H   0  0  0  0  0  0  0  0  0  0  0  0
   -2.1324   -2.7507    0.8691 H   0  0  0  0  0  0  0  0  0  0  0  0
   -7.9136   -0.2295   -1.1370 H   0  0  0  0  0  0  0  0  0  0  0  0
   -7.3705    2.8229    1.4481 H   0  0  0  0  0  0  0  0  0  0  0  0
    2.6788    2.5200    0.0523 H   0  0  0  0  0  0  0  0  0  0  0  0
    1.0645   -4.7850   -1.2613 H   0  0  0  0  0  0  0  0  0  0  0  0
    1.1069   -5.8489    0.1525 H   0  0  0  0  0  0  0  0  0  0  0  0
    0.7306   -4.4508    2.4384 H   0  0  0  0  0  0  0  0  0  0  0  0
   -0.8749   -3.7348    2.3060 H   0  0  0  0  0  0  0  0  0  0  0  0
   -0.6115   -5.3810    1.7292 H   0  0  0  0  0  0  0  0  0  0  0  0
    2.8843   -4.2863    1.2102 H   0  0  0  0  0  0  0  0  0  0  0  0
    4.4801   -3.5801   -0.4386 H   0  0  0  0  0  0  0  0  0  0  0  0
    3.2769   -3.9385   -1.8096 H   0  0  0  0  0  0  0  0  0  0  0  0
    6.6067    3.8881    1.1101 H   0  0  0  0  0  0  0  0  0  0  0  0
    8.0222    0.5210   -1.1541 H   0  0  0  0  0  0  0  0  0  0  0  0
    8.4577    2.6865   -0.0240 H   0  0  0  0  0  0  0  0  0  0  0  0
  1 23  1  0  0  0  0
  1 26  1  0  0  0  0
  2 33  1  0  0  0  0
  3 34  1  0  0  0  0
  4 16  1  0  0  0  0
  4 57  1  0  0  0  0
  5 21  1  0  0  0  0
  5 58  1  0  0  0  0
  6 25  2  0  0  0  0
  7 29  2  0  0  0  0
  8 20  1  0  0  0  0
  8 26  2  0  0  0  0
  9 25  1  0  0  0  0
  9 27  1  0  0  0  0
  9 28  1  0  0  0  0
 10 26  1  0  0  0  0
 10 29  1  0  0  0  0
 10 59  1  0  0  0  0
 11 12  1  0  0  0  0
 11 14  1  0  0  0  0
 11 15  1  0  0  0  0
 11 19  1  0  0  0  0
 12 13  1  0  0  0  0
 12 17  1  0  0  0  0
 12 38  1  0  0  0  0
 13 16  1  0  0  0  0
 13 21  1  0  0  0  0
 13 22  1  0  0  0  0
 14 20  1  0  0  0  0
 14 24  1  0  0  0  0
 14 39  1  0  0  0  0
 15 18  1  0  0  0  0
 15 40  1  0  0  0  0
 15 41  1  0  0  0  0
 16 18  1  0  0  0  0
 16 42  1  0  0  0  0
 17 23  1  0  0  0  0
 17 43  1  0  0  0  0
 17 44  1  0  0  0  0
 18 45  1  0  0  0  0
 18 46  1  0  0  0  0
 19 47  1  0  0  0  0
 19 48  1  0  0  0  0
 19 49  1  0  0  0  0
 20 23  2  0  0  0  0
 21 50  1  0  0  0  0
 21 51  1  0  0  0  0
 22 52  1  0  0  0  0
 22 53  1  0  0  0  0
 22 54  1  0  0  0  0
 24 25  1  0  0  0  0
 24 55  1  0  0  0  0
 24 56  1  0  0  0  0
 27 30  1  0  0  0  0
 27 60  1  0  0  0  0
 27 61  1  0  0  0  0
 28 62  1  0  0  0  0
 28 63  1  0  0  0  0
 28 64  1  0  0  0  0
 29 31  1  0  0  0  0
 30 32  2  0  0  0  0
 30 65  1  0  0  0  0
 31 33  2  0  0  0  0
 31 34  1  0  0  0  0
 32 66  1  0  0  0  0
 32 67  1  0  0  0  0
 33 35  1  0  0  0  0
 34 36  2  0  0  0  0
 35 37  2  0  0  0  0
 35 68  1  0  0  0  0
 36 37  1  0  0  0  0
 36 69  1  0  0  0  0
 37 70  1  0  0  0  0
M  END
> <PUBCHEM_COMPOUND_CID>
45361687

> <PUBCHEM_CONFORMER_RMSD>
1

> <PUBCHEM_CONFORMER_DIVERSEORDER>
1
24
29
35
19
7
10
30
6
23
16
18
15
13
26
27
25
36
20
38
12
37
17
32
31
28
3
21
34
22
33
9
2
4
5
11
8
14

> <PUBCHEM_MMFF94_PARTIAL_CHARGES>
39
1 -0.08
10 -0.49
14 0.18
16 0.28
17 0.18
2 -0.19
20 0.05
21 0.28
23 -0.14
24 0.06
25 0.57
26 0.44
27 0.44
28 0.3
29 0.54
3 -0.19
30 -0.29
31 0.09
32 -0.3
33 0.19
34 0.19
35 -0.15
36 -0.15
37 -0.15
4 -0.68
5 -0.68
57 0.4
58 0.4
59 0.37
6 -0.57
65 0.15
66 0.15
67 0.15
68 0.15
69 0.15
7 -0.57
70 0.15
8 -0.57
9 -0.66

> <PUBCHEM_EFFECTIVE_ROTOR_COUNT>
10.2

> <PUBCHEM_PHARMACOPHORE_FEATURES>
12
1 10 donor
1 32 hydrophobe
1 4 acceptor
1 4 donor
1 5 acceptor
1 5 donor
1 6 acceptor
1 7 acceptor
5 1 8 20 23 26 rings
6 11 12 13 15 16 18 rings
6 11 12 14 17 20 23 rings
6 31 33 34 35 36 37 rings

> <PUBCHEM_HEAVY_ATOM_COUNT>
37

> <PUBCHEM_ATOM_DEF_STEREO_COUNT>
5

> <PUBCHEM_ATOM_UDEF_STEREO_COUNT>
0

> <PUBCHEM_BOND_DEF_STEREO_COUNT>
0

> <PUBCHEM_BOND_UDEF_STEREO_COUNT>
0

> <PUBCHEM_ISOTOPIC_ATOM_COUNT>
0

> <PUBCHEM_COMPONENT_COUNT>
1

> <PUBCHEM_CACTVS_TAUTO_COUNT>
3

> <PUBCHEM_CONFORMER_ID>
02B42A1700000001

> <PUBCHEM_MMFF94_ENERGY>
114.0862

> <PUBCHEM_FEATURE_SELFOVERLAP>
61.042

> <PUBCHEM_SHAPE_FINGERPRINT>
10050765 1 18123187897135249757
10675989 125 18339362946901367632
10864689 126 18339931506672947052
10940486 97 17973446804322896964
11007060 377 18269557298273444627
11135609 187 18411980264860607184
11135926 11 18410289177934656085
11136131 41 18261384517208792962
11578080 2 17388242456745995509
11719270 70 18411411805281705618
12522641 33 18408037416960084783
1361 2 18409450271836857184
14725015 67 18191017903624797930
14790565 3 18410011074027406465
14856354 85 16081366405514147993
15183329 4 18334852822818358409
15200665 1 18124030401739974274
15361156 5 18057335079494244964
15400415 2 18338796827405045624
15439362 3 18337389332224867779
15775530 1 17465080670668557557
15815584 197 18265637458064528839
15927050 60 18341045306586941454
16067689 302 18413111659086396903
16719943 64 18336826502436033554
20642791 35 18193843647954235519
21033648 29 18269826661849316120
21133665 82 18410576206688994318
23516275 137 17274003300929963087
23559900 14 18122615055882403019
27425 322 17386295406458090398
3298306 158 18411700980597084630
3383291 50 18263363770881388083
3411729 13 18335136445215303179
354706 109 18127110091540093056
3633792 109 18344148089919529081
4017518 198 18342462577834404150
4073 2 18410298033539723449
4516262 110 18337950096431053165
5265222 85 18264773340514432116
5385378 56 18337961082513862553
563151 97 18411415082294591301
59755656 215 18411139121259076733
6371380 46 18342173423329391888
6669772 16 18410573968109226086
9555976 147 13334737878482206927
99344 41 18411698772952018500
9961470 85 18410853279272031362

> <PUBCHEM_SHAPE_MULTIPOLES>
712.32
18.35
5.67
1.12
6.79
8.23
-0.18
-17.42
2.57
4.49
-0.8
-0.53
0.2
1.53

> <PUBCHEM_SHAPE_SELFOVERLAP>
1507.962

> <PUBCHEM_SHAPE_VOLUME>
402.1

> <PUBCHEM_COORDINATE_TYPE>
2
5
10

$$$$
