75537083
  -OEChem-12032416333D

 54 58  0     1  0  0  0  0  0999 V2000
    7.0225   -2.6206    1.4988 F   0  0  0  0  0  0  0  0  0  0  0  0
    3.0691    3.0474    0.0220 O   0  0  0  0  0  0  0  0  0  0  0  0
    0.9881    1.9594   -0.0439 N   0  0  0  0  0  0  0  0  0  0  0  0
   -1.4297    0.8601    0.8818 N   0  0  2  0  0  0  0  0  0  0  0  0
    2.6865    1.0793   -1.2208 N   0  0  0  0  0  0  0  0  0  0  0  0
   -4.5059   -2.2443   -0.1060 N   0  0  0  0  0  0  0  0  0  0  0  0
    0.3933    0.8580   -0.7718 C   0  0  2  0  0  0  0  0  0  0  0  0
   -0.4643    0.0047    0.1621 C   0  0  0  0  0  0  0  0  0  0  0  0
    1.5936    0.1355   -1.3803 C   0  0  0  0  0  0  0  0  0  0  0  0
    0.1537    2.7751    0.8136 C   0  0  0  0  0  0  0  0  0  0  0  0
   -0.7299    1.8813    1.6875 C   0  0  0  0  0  0  0  0  0  0  0  0
    2.3386    2.1461   -0.3677 C   0  0  0  0  0  0  0  0  0  0  0  0
   -2.2959    0.0453    1.7333 C   0  0  0  0  0  0  0  0  0  0  0  0
    4.0014    0.8291   -1.7684 C   0  0  0  0  0  0  0  0  0  0  0  0
   -3.3609   -0.6577    0.9421 C   0  0  0  0  0  0  0  0  0  0  0  0
   -4.5364   -0.0708    0.3959 C   0  0  0  0  0  0  0  0  0  0  0  0
    4.8071   -0.0909   -0.8974 C   0  0  0  0  0  0  0  0  0  0  0  0
   -3.3705   -1.9945    0.6170 C   0  0  0  0  0  0  0  0  0  0  0  0
   -5.2370   -1.0875   -0.2565 C   0  0  0  0  0  0  0  0  0  0  0  0
   -5.0733    1.2319    0.3938 C   0  0  0  0  0  0  0  0  0  0  0  0
    4.7486   -1.4702   -1.0973 C   0  0  0  0  0  0  0  0  0  0  0  0
    5.6141    0.4338    0.1122 C   0  0  0  0  0  0  0  0  0  0  0  0
   -6.4526   -0.8657   -0.9136 C   0  0  0  0  0  0  0  0  0  0  0  0
   -4.8702   -3.5432   -0.6294 C   0  0  0  0  0  0  0  0  0  0  0  0
   -6.2884    1.4687   -0.2594 C   0  0  0  0  0  0  0  0  0  0  0  0
   -6.9657    0.4345   -0.9024 C   0  0  0  0  0  0  0  0  0  0  0  0
    5.4973   -2.3246   -0.2880 C   0  0  0  0  0  0  0  0  0  0  0  0
    6.3628   -0.4205    0.9215 C   0  0  0  0  0  0  0  0  0  0  0  0
    6.3044   -1.7998    0.7214 C   0  0  0  0  0  0  0  0  0  0  0  0
   -0.2246    1.2957   -1.5669 H   0  0  0  0  0  0  0  0  0  0  0  0
   -0.9776   -0.7467   -0.4479 H   0  0  0  0  0  0  0  0  0  0  0  0
    0.1726   -0.5315    0.8789 H   0  0  0  0  0  0  0  0  0  0  0  0
    1.8421   -0.7845   -0.8423 H   0  0  0  0  0  0  0  0  0  0  0  0
    1.4429   -0.0892   -2.4404 H   0  0  0  0  0  0  0  0  0  0  0  0
   -0.4617    3.4069    0.1629 H   0  0  0  0  0  0  0  0  0  0  0  0
    0.7838    3.4292    1.4244 H   0  0  0  0  0  0  0  0  0  0  0  0
   -0.1117    1.3965    2.4550 H   0  0  0  0  0  0  0  0  0  0  0  0
   -1.4560    2.5202    2.2042 H   0  0  0  0  0  0  0  0  0  0  0  0
   -2.8179    0.6834    2.4600 H   0  0  0  0  0  0  0  0  0  0  0  0
   -1.7176   -0.6734    2.3293 H   0  0  0  0  0  0  0  0  0  0  0  0
    4.5242    1.7881   -1.8676 H   0  0  0  0  0  0  0  0  0  0  0  0
    3.8915    0.4230   -2.7806 H   0  0  0  0  0  0  0  0  0  0  0  0
   -2.6635   -2.7824    0.8411 H   0  0  0  0  0  0  0  0  0  0  0  0
   -4.5581    2.0495    0.8899 H   0  0  0  0  0  0  0  0  0  0  0  0
    4.1241   -1.8915   -1.8806 H   0  0  0  0  0  0  0  0  0  0  0  0
    5.6685    1.5062    0.2793 H   0  0  0  0  0  0  0  0  0  0  0  0
   -6.9849   -1.6664   -1.4160 H   0  0  0  0  0  0  0  0  0  0  0  0
   -5.8307   -3.8328   -0.1956 H   0  0  0  0  0  0  0  0  0  0  0  0
   -4.9422   -3.4688   -1.7174 H   0  0  0  0  0  0  0  0  0  0  0  0
   -4.1060   -4.2762   -0.3586 H   0  0  0  0  0  0  0  0  0  0  0  0
   -6.7072    2.4716   -0.2644 H   0  0  0  0  0  0  0  0  0  0  0  0
   -7.9080    0.6408   -1.4035 H   0  0  0  0  0  0  0  0  0  0  0  0
    5.4520   -3.3984   -0.4433 H   0  0  0  0  0  0  0  0  0  0  0  0
    6.9910   -0.0125    1.7077 H   0  0  0  0  0  0  0  0  0  0  0  0
  1 29  1  0  0  0  0
  2 12  2  0  0  0  0
  3  7  1  0  0  0  0
  3 10  1  0  0  0  0
  3 12  1  0  0  0  0
  4  8  1  0  0  0  0
  4 11  1  0  0  0  0
  4 13  1  0  0  0  0
  5  9  1  0  0  0  0
  5 12  1  0  0  0  0
  5 14  1  0  0  0  0
  6 18  1  0  0  0  0
  6 19  1  0  0  0  0
  6 24  1  0  0  0  0
  7  8  1  0  0  0  0
  7  9  1  0  0  0  0
  7 30  1  0  0  0  0
  8 31  1  0  0  0  0
  8 32  1  0  0  0  0
  9 33  1  0  0  0  0
  9 34  1  0  0  0  0
 10 11  1  0  0  0  0
 10 35  1  0  0  0  0
 10 36  1  0  0  0  0
 11 37  1  0  0  0  0
 11 38  1  0  0  0  0
 13 15  1  0  0  0  0
 13 39  1  0  0  0  0
 13 40  1  0  0  0  0
 14 17  1  0  0  0  0
 14 41  1  0  0  0  0
 14 42  1  0  0  0  0
 15 16  1  0  0  0  0
 15 18  2  0  0  0  0
 16 19  1  0  0  0  0
 16 20  2  0  0  0  0
 17 21  2  0  0  0  0
 17 22  1  0  0  0  0
 18 43  1  0  0  0  0
 19 23  2  0  0  0  0
 20 25  1  0  0  0  0
 20 44  1  0  0  0  0
 21 27  1  0  0  0  0
 21 45  1  0  0  0  0
 22 28  2  0  0  0  0
 22 46  1  0  0  0  0
 23 26  1  0  0  0  0
 23 47  1  0  0  0  0
 24 48  1  0  0  0  0
 24 49  1  0  0  0  0
 24 50  1  0  0  0  0
 25 26  2  0  0  0  0
 25 51  1  0  0  0  0
 26 52  1  0  0  0  0
 27 29  2  0  0  0  0
 27 53  1  0  0  0  0
 28 29  1  0  0  0  0
 28 54  1  0  0  0  0
M  END
> <PUBCHEM_COMPOUND_CID>
75537083

> <PUBCHEM_CONFORMER_RMSD>
0.8

> <PUBCHEM_CONFORMER_DIVERSEORDER>
1
168
121
163
133
131
58
138
122
43
143
60
160
115
67
154
129
61
79
88
25
19
17
134
83
2
42
117
57
33
147
107
103
161
110
93
44
50
120
14
137
21
114
59
96
95
71
85
145
45
80
152
69
130
119
139
87
98
32
144
78
162
109
52
159
38
86
140
165
132
166
157
39
153
24
158
101
81
116
108
141
36
75
113
89
76
72
23
151
53
90
31
7
47
112
167
106
20
62
40
46
73
100
26
135
156
84
127
66
91
16
150
54
18
164
128
41
102
126
63
125
34
142
92
30
11
64
148
6
104
68
97
10
8
28
74
5
27
155
51
136
124
15
99
4
123
105
77
94
13
146
55
111
49
29
56
37
9
149
118
82
3
35
65
48
70
12
22

> <PUBCHEM_MMFF94_PARTIAL_CHARGES>
37
1 -0.19
10 0.3
11 0.27
12 0.69
13 0.45
14 0.44
15 -0.18
17 -0.14
18 -0.3
19 -0.15
2 -0.57
20 -0.15
21 -0.15
22 -0.15
23 -0.15
24 0.26
25 -0.15
26 -0.15
27 -0.15
28 -0.15
29 0.19
3 -0.66
4 -0.81
43 0.15
44 0.15
45 0.15
46 0.15
47 0.15
5 -0.66
51 0.15
52 0.15
53 0.15
54 0.15
6 0.05
7 0.3
8 0.27
9 0.3

> <PUBCHEM_EFFECTIVE_ROTOR_COUNT>
5.2

> <PUBCHEM_PHARMACOPHORE_FEATURES>
8
1 2 acceptor
1 4 cation
1 6 cation
5 3 5 7 9 12 rings
5 6 15 16 18 19 rings
6 16 19 20 23 25 26 rings
6 17 21 22 27 28 29 rings
6 3 4 7 8 10 11 rings

> <PUBCHEM_HEAVY_ATOM_COUNT>
29

> <PUBCHEM_ATOM_DEF_STEREO_COUNT>
1

> <PUBCHEM_ATOM_UDEF_STEREO_COUNT>
0

> <PUBCHEM_BOND_DEF_STEREO_COUNT>
0

> <PUBCHEM_BOND_UDEF_STEREO_COUNT>
0

> <PUBCHEM_ISOTOPIC_ATOM_COUNT>
0

> <PUBCHEM_COMPONENT_COUNT>
1

> <PUBCHEM_CACTVS_TAUTO_COUNT>
1

> <PUBCHEM_CONFORMER_ID>
04809ABB00000001

> <PUBCHEM_MMFF94_ENERGY>
62.5327

> <PUBCHEM_FEATURE_SELFOVERLAP>
40.786

> <PUBCHEM_SHAPE_FINGERPRINT>
10613725 11 17821449062536173829
10670039 82 15936402309068497909
10673678 19 8142087580906671720
10674148 151 15574712461500592012
10794284 68 10302087012151550569
11135609 201 13182436860819141838
11273773 42 11167637912140125930
11719270 70 17989209239356061062
11796584 16 17531252794138223946
11809386 21 18338802333695719339
13533116 47 18408044018356551704
13761468 95 17532643548026603533
13782708 43 17969797448005358067
13885169 86 10447631514309978658
13914758 101 18335139752735526001
14068700 675 18410290281530131272
14251751 18 18410292527497041076
14347332 77 18270122460816109135
15183329 4 16515684442077791752
15188451 53 18338514141410613794
15419008 42 18127412237824725637
15475509 8 15791732975125967932
15684389 69 10663519505816578045
16126227 98 9727047868875310618
17857418 61 18410017636905642182
18222031 100 18129959918130967628
19377110 9 12031791383397991553
19611394 137 11311476057402778245
19958102 18 18187361021964562333
20028762 73 18341334418785754606
20511986 3 18411130333761770231
20567600 234 15626499506344890280
21458453 9 14332830647453017942
21987440 362 17174894229578339293
22079108 93 13830128369635856132
22393880 68 18339078311045095663
23559900 14 18342734170001455217
23572383 38 18059585675931188151
23929065 36 17844525509322173313
255183 313 17840895991949328193
3004659 81 18334023791562140478
3009799 131 18343584032022488913
339767 52 18202847647204776279
3459 83 17531251655724223781
38570 142 12612753493081797093
4058900 60 10737548506696295677
4073 2 18043255836572210952
4280585 95 18343299263022276689
4325135 7 12895070712747251893
4339292 15 17168704100275189010
439807 62 18266745865028932743
44062 13 18341054124924264143
474113 269 18338790101196006046
5085150 59 18131631179984551807
5104073 3 17916881230230206889
531348 171 18334576841842745367
5364581 5 9943535124305048303
550186 72 10303817562287277995
559249 180 18409730656139905019
59755656 520 16660652864906008993
6126387 218 18259979358611993464
613672 6 17775299265315292839
8988823 20 18342176696184180868
9689198 14 7997965803807515250

> <PUBCHEM_SHAPE_MULTIPOLES>
563.74
19.92
3.17
1.42
2.61
0.8
-0.09
11.21
1.05
0.32
-0.32
0.81
-0.07
-1.49

> <PUBCHEM_SHAPE_SELFOVERLAP>
1234.158

> <PUBCHEM_SHAPE_VOLUME>
308.9

> <PUBCHEM_COORDINATE_TYPE>
2
5
10

$$$$
