11912978
  -OEChem-12032416283D

 53 57  0     1  0  0  0  0  0999 V2000
   -3.9078    1.8503    1.2629 S   0  0  0  0  0  0  0  0  0  0  0  0
    0.2977    2.3963   -0.9188 O   0  0  0  0  0  0  0  0  0  0  0  0
   -1.5462    0.2915   -2.2995 O   0  0  0  0  0  0  0  0  0  0  0  0
   -4.9055    2.5402    0.4677 O   0  0  0  0  0  0  0  0  0  0  0  0
   -3.9146    1.9723    2.7081 O   0  0  0  0  0  0  0  0  0  0  0  0
    4.7400    1.3352    0.1907 O   0  0  0  0  0  0  0  0  0  0  0  0
   -2.3583    2.2402    0.6881 N   0  0  0  0  0  0  0  0  0  0  0  0
    1.0376   -1.1479   -1.3881 N   0  0  0  0  0  0  0  0  0  0  0  0
    3.0602   -0.5479   -0.3604 N   0  0  0  0  0  0  0  0  0  0  0  0
    2.2768   -2.8264   -0.3148 N   0  0  0  0  0  0  0  0  0  0  0  0
   -1.3768    0.7068   -0.9340 C   0  0  1  0  0  0  0  0  0  0  0  0
    0.0991    0.9855   -0.7269 C   0  0  1  0  0  0  0  0  0  0  0  0
   -2.0397    2.0460   -0.7058 C   0  0  2  0  0  0  0  0  0  0  0  0
    0.7803    0.2062   -1.8271 C   0  0  2  0  0  0  0  0  0  0  0  0
   -0.9706    3.0205   -1.1670 C   0  0  0  0  0  0  0  0  0  0  0  0
   -0.2602    0.2112   -2.9319 C   0  0  0  0  0  0  0  0  0  0  0  0
    2.1584   -1.5184   -0.6663 C   0  0  0  0  0  0  0  0  0  0  0  0
   -4.0116    0.1253    0.8910 C   0  0  0  0  0  0  0  0  0  0  0  0
   -3.5838   -0.7957    1.8313 C   0  0  0  0  0  0  0  0  0  0  0  0
   -4.5202   -0.2723   -0.3333 C   0  0  0  0  0  0  0  0  0  0  0  0
    4.1402   -0.9442    0.3443 C   0  0  0  0  0  0  0  0  0  0  0  0
   -3.6674   -2.1568    1.5384 C   0  0  0  0  0  0  0  0  0  0  0  0
   -4.6039   -1.6334   -0.6262 C   0  0  0  0  0  0  0  0  0  0  0  0
    3.3810   -3.1528    0.3886 C   0  0  0  0  0  0  0  0  0  0  0  0
   -4.1775   -2.5758    0.3096 C   0  0  0  0  0  0  0  0  0  0  0  0
    4.3556   -2.2455    0.7503 C   0  0  0  0  0  0  0  0  0  0  0  0
    5.0764    0.1038    0.6522 C   0  0  0  0  0  0  0  0  0  0  0  0
   -4.2666   -4.0312   -0.0042 C   0  0  0  0  0  0  0  0  0  0  0  0
    6.2718    0.1461    1.3268 C   0  0  0  0  0  0  0  0  0  0  0  0
    6.7008    1.4939    1.2779 C   0  0  0  0  0  0  0  0  0  0  0  0
    5.7347    2.1769    0.5762 C   0  0  0  0  0  0  0  0  0  0  0  0
   -1.7039   -0.1176   -0.3016 H   0  0  0  0  0  0  0  0  0  0  0  0
    0.4385    0.7460    0.2860 H   0  0  0  0  0  0  0  0  0  0  0  0
   -2.9331    2.1910   -1.3220 H   0  0  0  0  0  0  0  0  0  0  0  0
    1.6992    0.6755   -2.1969 H   0  0  0  0  0  0  0  0  0  0  0  0
   -1.0399    3.2002   -2.2455 H   0  0  0  0  0  0  0  0  0  0  0  0
   -1.0042    3.9863   -0.6536 H   0  0  0  0  0  0  0  0  0  0  0  0
   -0.1549    1.1002   -3.5635 H   0  0  0  0  0  0  0  0  0  0  0  0
   -0.2288   -0.6724   -3.5768 H   0  0  0  0  0  0  0  0  0  0  0  0
   -1.5734    2.2458    1.3511 H   0  0  0  0  0  0  0  0  0  0  0  0
    0.3464   -1.8683   -1.5638 H   0  0  0  0  0  0  0  0  0  0  0  0
   -3.1755   -0.4899    2.7895 H   0  0  0  0  0  0  0  0  0  0  0  0
   -4.8538    0.4453   -1.0763 H   0  0  0  0  0  0  0  0  0  0  0  0
   -3.3281   -2.8813    2.2741 H   0  0  0  0  0  0  0  0  0  0  0  0
   -4.9999   -1.9473   -1.5884 H   0  0  0  0  0  0  0  0  0  0  0  0
    3.4630   -4.1992    0.6627 H   0  0  0  0  0  0  0  0  0  0  0  0
    5.2231   -2.5611    1.3158 H   0  0  0  0  0  0  0  0  0  0  0  0
   -5.1116   -4.2409   -0.6687 H   0  0  0  0  0  0  0  0  0  0  0  0
   -4.4194   -4.6230    0.9047 H   0  0  0  0  0  0  0  0  0  0  0  0
   -3.3456   -4.3672   -0.4907 H   0  0  0  0  0  0  0  0  0  0  0  0
    6.7831   -0.6805    1.7997 H   0  0  0  0  0  0  0  0  0  0  0  0
    7.6012    1.9151    1.7010 H   0  0  0  0  0  0  0  0  0  0  0  0
    5.6138    3.2091    0.2817 H   0  0  0  0  0  0  0  0  0  0  0  0
  1  4  2  0  0  0  0
  1  5  2  0  0  0  0
  1  7  1  0  0  0  0
  1 18  1  0  0  0  0
  2 12  1  0  0  0  0
  2 15  1  0  0  0  0
  3 11  1  0  0  0  0
  3 16  1  0  0  0  0
  6 27  1  0  0  0  0
  6 31  1  0  0  0  0
  7 13  1  0  0  0  0
  7 40  1  0  0  0  0
  8 14  1  0  0  0  0
  8 17  1  0  0  0  0
  8 41  1  0  0  0  0
  9 17  1  0  0  0  0
  9 21  2  0  0  0  0
 10 17  2  0  0  0  0
 10 24  1  0  0  0  0
 11 12  1  0  0  0  0
 11 13  1  0  0  0  0
 11 32  1  0  0  0  0
 12 14  1  0  0  0  0
 12 33  1  0  0  0  0
 13 15  1  0  0  0  0
 13 34  1  0  0  0  0
 14 16  1  0  0  0  0
 14 35  1  0  0  0  0
 15 36  1  0  0  0  0
 15 37  1  0  0  0  0
 16 38  1  0  0  0  0
 16 39  1  0  0  0  0
 18 19  2  0  0  0  0
 18 20  1  0  0  0  0
 19 22  1  0  0  0  0
 19 42  1  0  0  0  0
 20 23  2  0  0  0  0
 20 43  1  0  0  0  0
 21 26  1  0  0  0  0
 21 27  1  0  0  0  0
 22 25  2  0  0  0  0
 22 44  1  0  0  0  0
 23 25  1  0  0  0  0
 23 45  1  0  0  0  0
 24 26  2  0  0  0  0
 24 46  1  0  0  0  0
 25 28  1  0  0  0  0
 26 47  1  0  0  0  0
 27 29  2  0  0  0  0
 28 48  1  0  0  0  0
 28 49  1  0  0  0  0
 28 50  1  0  0  0  0
 29 30  1  0  0  0  0
 29 51  1  0  0  0  0
 30 31  2  0  0  0  0
 30 52  1  0  0  0  0
 31 53  1  0  0  0  0
M  END
> <PUBCHEM_COMPOUND_CID>
11912978

> <PUBCHEM_CONFORMER_RMSD>
1

> <PUBCHEM_CONFORMER_DIVERSEORDER>
1
239
187
234
293
44
158
102
240
100
61
270
54
250
312
174
244
148
9
205
121
77
303
155
25
259
287
191
281
189
199
235
110
86
119
229
125
280
127
4
166
109
204
160
91
209
212
251
258
253
219
265
66
304
40
106
65
221
261
164
133
271
162
52
314
171
117
27
278
167
214
208
63
8
130
289
105
75
217
216
101
272
18
201
126
277
89
224
154
177
294
149
131
51
242
170
203
288
114
311
266
19
222
302
188
137
142
48
152
236
196
198
232
82
116
94
13
292
80
215
223
190
284
275
134
248
104
118
83
140
256
39
233
159
257
64
47
285
264
309
218
7
225
200
295
296
228
286
185
175
157
45
262
107
15
310
76
279
136
72
70
50
123
11
226
269
111
260
93
49
183
274
300
129
43
307
246
79
308
297
141
62
245
143
135
193
14
98
92
263
243
186
55
29
290
67
220
237
120
97
26
169
16
144
211
313
122
231
21
173
3
73
84
88
247
179
56
306
151
68
168
195
138
31
145
42
34
230
192
206
81
181
207
128
161
30
32
252
178
2
291
210
10
146
163
182
33
249
112
113
299
58
12
147
24
53
46
99
35
132
184
241
103
150
87
108
78
197
17
194
90
165
156
60
283
227
95
28
85
153
213
69
41
267
6
301
71
59
96
268
180
23
282
74
115
124
305
172
37
176
38
238
36
255
276
5
139
273
57
20
22
202
298
254

> <PUBCHEM_MMFF94_PARTIAL_CHARGES>
42
1 1.45
10 -0.62
11 0.28
12 0.28
13 0.36
14 0.37
15 0.28
16 0.28
17 0.72
18 -0.01
19 -0.15
2 -0.56
20 -0.15
21 0.36
22 -0.15
23 -0.15
24 0.16
25 -0.14
26 -0.15
27 0.09
28 0.14
29 -0.15
3 -0.56
30 -0.15
31 -0.01
4 -0.65
40 0.42
41 0.4
42 0.15
43 0.15
44 0.15
45 0.15
46 0.15
47 0.15
5 -0.65
51 0.15
52 0.15
53 0.15
6 -0.28
7 -0.91
8 -0.87
9 -0.62

> <PUBCHEM_EFFECTIVE_ROTOR_COUNT>
7.2

> <PUBCHEM_PHARMACOPHORE_FEATURES>
14
1 2 acceptor
1 3 acceptor
1 4 acceptor
1 5 acceptor
1 6 acceptor
1 7 donor
1 8 donor
1 9 acceptor
4 8 9 10 17 cation
5 2 11 12 13 15 rings
5 3 11 12 14 16 rings
5 6 27 29 30 31 rings
6 18 19 20 22 23 25 rings
6 9 10 17 21 24 26 rings

> <PUBCHEM_HEAVY_ATOM_COUNT>
31

> <PUBCHEM_ATOM_DEF_STEREO_COUNT>
4

> <PUBCHEM_ATOM_UDEF_STEREO_COUNT>
0

> <PUBCHEM_BOND_DEF_STEREO_COUNT>
0

> <PUBCHEM_BOND_UDEF_STEREO_COUNT>
0

> <PUBCHEM_ISOTOPIC_ATOM_COUNT>
0

> <PUBCHEM_COMPONENT_COUNT>
1

> <PUBCHEM_CACTVS_TAUTO_COUNT>
3

> <PUBCHEM_CONFORMER_ID>
00B5C71200000001

> <PUBCHEM_MMFF94_ENERGY>
64.7867

> <PUBCHEM_FEATURE_SELFOVERLAP>
71.787

> <PUBCHEM_SHAPE_FINGERPRINT>
10010297 198 17917990534283776014
10483366 6 9654484503593370062
10670039 82 11312055426594009467
10842051 180 18196086879107088254
11135609 12 17895485829481478465
11135609 201 17914035742015230600
11552529 35 18343301448896873307
11578080 2 15481570611403984947
12596602 18 17989207053512794258
12633257 1 18056206773766990545
128238 76 18265335186961367166
13583140 156 18273209802939752425
13782708 43 16951398816456786058
13828863 39 17989488528563767080
13994607 96 15338834240620599185
14068700 675 18194679504767386423
14279260 333 9078299728866572536
14950920 106 18197495130396143890
15183329 4 9943811079947856368
15975801 100 13541926567965050794
16120349 306 18187927210392592123
16126227 98 18124310761080586472
18608769 82 18409170987936864070
19315092 285 17978510059869793359
20511986 3 18261385612350859267
20737093 133 17548689034037300424
20775530 9 16665471040411843747
21133410 52 17692246761401304038
21304303 282 13913975979492649199
21315759 227 16879088492846129747
21458453 9 18190457354309883416
23536364 44 11746928798376970757
23559900 14 18125184656936132878
3459 110 18410853252784166136
3459 83 8069486827908136606
38570 142 11887690484536106127
392239 28 18260544524541445936
4098825 35 15769499828928686228
437795 139 15214146477687765587
4394409 98 11819262357165626368
444735 79 18264490753294075410
469060 322 18187080680827848532
5080951 261 16154249633968419069
5104073 3 18339349778758751546
613672 6 16081088156226609802

> <PUBCHEM_SHAPE_MULTIPOLES>
592.54
14.58
4.02
2.03
16.2
1.71
0.44
0.76
-8.67
-2.63
-0.42
-1.25
-0.71
-0.03

> <PUBCHEM_SHAPE_SELFOVERLAP>
1289.527

> <PUBCHEM_SHAPE_VOLUME>
324.5

> <PUBCHEM_COORDINATE_TYPE>
2
5
10

$$$$
