11941491
  -OEChem-12032416363D

 46 49  0     1  0  0  0  0  0999 V2000
   -3.0573    3.7348    0.3401 S   0  0  0  0  0  0  0  0  0  0  0  0
    4.4634    2.2854    0.5563 S   0  0  0  0  0  0  0  0  0  0  0  0
   -2.3964   -3.0352    1.3339 O   0  0  0  0  0  0  0  0  0  0  0  0
    0.5658   -1.1422   -2.5906 O   0  0  0  0  0  0  0  0  0  0  0  0
   -4.4027    0.9497    1.7859 O   0  0  0  0  0  0  0  0  0  0  0  0
   -1.2480   -1.2412   -1.1802 N   0  0  0  0  0  0  0  0  0  0  0  0
   -3.7313    0.5029   -0.3939 N   0  0  0  0  0  0  0  0  0  0  0  0
   -0.2175   -2.3719    1.3328 N   0  0  0  0  0  0  0  0  0  0  0  0
   -3.3717   -0.8835   -0.2026 C   0  0  2  0  0  0  0  0  0  0  0  0
   -1.8755   -1.0241    0.1101 C   0  0  1  0  0  0  0  0  0  0  0  0
   -3.5421   -1.6829   -1.4961 C   0  0  0  0  0  0  0  0  0  0  0  0
   -2.2335   -1.4427   -2.2326 C   0  0  0  0  0  0  0  0  0  0  0  0
   -1.5340   -2.2473    0.9409 C   0  0  0  0  0  0  0  0  0  0  0  0
    0.0967   -1.1101   -1.4530 C   0  0  0  0  0  0  0  0  0  0  0  0
    1.0303   -0.9455   -0.3084 C   0  0  0  0  0  0  0  0  0  0  0  0
    0.8983   -1.6101    0.9227 C   0  0  0  0  0  0  0  0  0  0  0  0
   -4.2194    1.3068    0.6234 C   0  0  0  0  0  0  0  0  0  0  0  0
    2.1949   -0.2012   -0.5709 C   0  0  0  0  0  0  0  0  0  0  0  0
    1.9676   -1.5663    1.8345 C   0  0  0  0  0  0  0  0  0  0  0  0
    3.2249   -0.1305    0.3657 C   0  0  0  0  0  0  0  0  0  0  0  0
   -4.5375    2.7103    0.1641 C   0  0  0  0  0  0  0  0  0  0  0  0
    3.1168   -0.8239    1.5642 C   0  0  0  0  0  0  0  0  0  0  0  0
    4.4104    0.6405    0.0813 C   0  0  0  0  0  0  0  0  0  0  0  0
    5.5733    0.2475   -0.5459 C   0  0  0  0  0  0  0  0  0  0  0  0
    6.5184    1.3098   -0.6371 C   0  0  0  0  0  0  0  0  0  0  0  0
   -3.7370    5.2964   -0.2682 C   0  0  0  0  0  0  0  0  0  0  0  0
    6.0431    2.4747   -0.0765 C   0  0  0  0  0  0  0  0  0  0  0  0
   -4.0096   -1.2858    0.5915 H   0  0  0  0  0  0  0  0  0  0  0  0
   -1.4669   -0.1309    0.5975 H   0  0  0  0  0  0  0  0  0  0  0  0
   -4.4130   -1.3885   -2.0895 H   0  0  0  0  0  0  0  0  0  0  0  0
   -3.6355   -2.7499   -1.2598 H   0  0  0  0  0  0  0  0  0  0  0  0
   -1.9421   -2.2785   -2.8758 H   0  0  0  0  0  0  0  0  0  0  0  0
   -2.2706   -0.5309   -2.8391 H   0  0  0  0  0  0  0  0  0  0  0  0
   -3.5636    0.9176   -1.3062 H   0  0  0  0  0  0  0  0  0  0  0  0
   -0.0454   -3.0476    2.0736 H   0  0  0  0  0  0  0  0  0  0  0  0
    2.3067    0.3171   -1.5226 H   0  0  0  0  0  0  0  0  0  0  0  0
    1.9035   -2.0932    2.7848 H   0  0  0  0  0  0  0  0  0  0  0  0
   -5.3476    3.1053    0.7853 H   0  0  0  0  0  0  0  0  0  0  0  0
   -4.8714    2.7019   -0.8782 H   0  0  0  0  0  0  0  0  0  0  0  0
    3.9149   -0.7978    2.3023 H   0  0  0  0  0  0  0  0  0  0  0  0
    5.7445   -0.7529   -0.9238 H   0  0  0  0  0  0  0  0  0  0  0  0
    7.4972    1.2238   -1.0908 H   0  0  0  0  0  0  0  0  0  0  0  0
   -2.9603    6.0650   -0.2339 H   0  0  0  0  0  0  0  0  0  0  0  0
   -4.5723    5.6181    0.3592 H   0  0  0  0  0  0  0  0  0  0  0  0
   -4.0732    5.1880   -1.3027 H   0  0  0  0  0  0  0  0  0  0  0  0
    6.5481    3.4281   -0.0083 H   0  0  0  0  0  0  0  0  0  0  0  0
  1 21  1  0  0  0  0
  1 26  1  0  0  0  0
  2 23  1  0  0  0  0
  2 27  1  0  0  0  0
  3 13  2  0  0  0  0
  4 14  2  0  0  0  0
  5 17  2  0  0  0  0
  6 10  1  0  0  0  0
  6 12  1  0  0  0  0
  6 14  1  0  0  0  0
  7  9  1  0  0  0  0
  7 17  1  0  0  0  0
  7 34  1  0  0  0  0
  8 13  1  0  0  0  0
  8 16  1  0  0  0  0
  8 35  1  0  0  0  0
  9 10  1  0  0  0  0
  9 11  1  0  0  0  0
  9 28  1  0  0  0  0
 10 13  1  0  0  0  0
 10 29  1  0  0  0  0
 11 12  1  0  0  0  0
 11 30  1  0  0  0  0
 11 31  1  0  0  0  0
 12 32  1  0  0  0  0
 12 33  1  0  0  0  0
 14 15  1  0  0  0  0
 15 16  2  0  0  0  0
 15 18  1  0  0  0  0
 16 19  1  0  0  0  0
 17 21  1  0  0  0  0
 18 20  2  0  0  0  0
 18 36  1  0  0  0  0
 19 22  2  0  0  0  0
 19 37  1  0  0  0  0
 20 22  1  0  0  0  0
 20 23  1  0  0  0  0
 21 38  1  0  0  0  0
 21 39  1  0  0  0  0
 22 40  1  0  0  0  0
 23 24  2  0  0  0  0
 24 25  1  0  0  0  0
 24 41  1  0  0  0  0
 25 27  2  0  0  0  0
 25 42  1  0  0  0  0
 26 43  1  0  0  0  0
 26 44  1  0  0  0  0
 26 45  1  0  0  0  0
 27 46  1  0  0  0  0
M  END
> <PUBCHEM_COMPOUND_CID>
11941491

> <PUBCHEM_CONFORMER_RMSD>
0.8

> <PUBCHEM_CONFORMER_DIVERSEORDER>
2
20
27
6
11
13
24
4
12
9
16
18
7
19
1
10
14
23
15
22
8
5
21
17
3
26
25

> <PUBCHEM_MMFF94_PARTIAL_CHARGES>
34
1 -0.46
10 0.36
12 0.3
13 0.57
14 0.54
15 0.09
16 0.12
17 0.57
18 -0.15
19 -0.15
2 -0.08
20 0.05
21 0.29
22 -0.15
23 -0.01
24 -0.15
25 -0.15
26 0.23
27 -0.11
3 -0.57
34 0.37
35 0.37
36 0.15
37 0.15
4 -0.57
40 0.15
41 0.15
42 0.15
46 0.15
5 -0.57
6 -0.66
7 -0.73
8 -0.55
9 0.3

> <PUBCHEM_EFFECTIVE_ROTOR_COUNT>
5.8

> <PUBCHEM_PHARMACOPHORE_FEATURES>
10
1 26 hydrophobe
1 3 acceptor
1 4 acceptor
1 5 acceptor
1 7 donor
1 8 donor
5 2 23 24 25 27 rings
5 6 9 10 11 12 rings
6 15 16 18 19 20 22 rings
7 6 8 10 13 14 15 16 rings

> <PUBCHEM_HEAVY_ATOM_COUNT>
27

> <PUBCHEM_ATOM_DEF_STEREO_COUNT>
2

> <PUBCHEM_ATOM_UDEF_STEREO_COUNT>
0

> <PUBCHEM_BOND_DEF_STEREO_COUNT>
0

> <PUBCHEM_BOND_UDEF_STEREO_COUNT>
0

> <PUBCHEM_ISOTOPIC_ATOM_COUNT>
0

> <PUBCHEM_COMPONENT_COUNT>
1

> <PUBCHEM_CACTVS_TAUTO_COUNT>
6

> <PUBCHEM_CONFORMER_ID>
00B6367300000002

> <PUBCHEM_MMFF94_ENERGY>
82.5027

> <PUBCHEM_FEATURE_SELFOVERLAP>
50.804

> <PUBCHEM_SHAPE_FINGERPRINT>
105312 117 17275386507915639014
10670039 82 18131345336730298860
11578080 2 17488766505099802879
1200032 147 17559415569055538387
12107183 9 18046053875065038338
12390115 104 17895196670771650474
12596602 18 17894348865459300169
12788726 201 18339067259693407529
13761468 95 17915758495292930664
13965767 371 17534347730391968861
14251751 18 8862942771153052056
14347329 18 17989204815734918192
14739800 52 18338497738746115648
14848178 5 8934993759362623224
15163728 17 17988652865013348119
15209294 21 17967812781882048578
15238133 3 18341316826461527754
15484559 13 14391471725972977360
15575132 122 18341049627745871625
17980427 26 18192420875412700495
20775438 99 11308905326039446437
21033648 144 17342379919759799520
21033648 29 17988357195765648128
21223535 225 18411980278790644148
21756936 100 18409449210853269786
23379529 103 10159401120640703065
2838139 119 18343579616727654012
312425 54 11242232062196830636
3472631 163 18341610365880260797
392239 28 18042985335759136123
44802255 64 17632016463893352956
469060 322 16009308828582216514
5104073 3 17603856854351319498
57527585 21 17129860514159160209
633830 44 18409725149781159830
6608658 132 18341599452178600925
7288768 16 17822015285286233033
7808743 9 18343580707633457817
9849439 229 18046916983224596885

> <PUBCHEM_SHAPE_MULTIPOLES>
530.8
12.69
4.53
1.77
13.69
6.53
-0.41
12.57
-0.33
-6.39
0.55
-0.58
-1.35
-1.14

> <PUBCHEM_SHAPE_SELFOVERLAP>
1127.283

> <PUBCHEM_SHAPE_VOLUME>
297.6

> <PUBCHEM_COORDINATE_TYPE>
2
5
10

$$$$
