44717029
  -OEChem-12032416133D

 65 68  0     1  0  0  0  0  0999 V2000
    1.1280    2.4075    1.3070 S   0  0  0  0  0  0  0  0  0  0  0  0
    2.3752    1.7420    0.9955 O   0  0  0  0  0  0  0  0  0  0  0  0
    0.8786    2.9405    2.6296 O   0  0  0  0  0  0  0  0  0  0  0  0
   -0.0388   -1.2004    1.3495 O   0  0  0  0  0  0  0  0  0  0  0  0
   -3.3385   -1.2880   -2.0519 O   0  0  0  0  0  0  0  0  0  0  0  0
    1.4516   -5.1262   -0.1045 O   0  0  0  0  0  0  0  0  0  0  0  0
   -0.0021   -3.7594   -1.2476 O   0  0  0  0  0  0  0  0  0  0  0  0
   -0.1736    1.3934    0.8611 N   0  0  2  0  0  0  0  0  0  0  0  0
   -2.4297    0.1534   -0.4499 N   0  0  0  0  0  0  0  0  0  0  0  0
    1.3500   -1.4876   -0.4967 N   0  0  0  0  0  0  0  0  0  0  0  0
   -6.9346    0.0151    0.1522 N   0  0  0  0  0  0  0  0  0  0  0  0
    5.8855   -1.0693    1.4630 N   0  0  0  0  0  0  0  0  0  0  0  0
    0.0392    0.5048   -0.3147 C   0  0  2  0  0  0  0  0  0  0  0  0
   -1.1947    0.3744   -1.2029 C   0  0  0  0  0  0  0  0  0  0  0  0
   -1.5319    1.9874    0.9620 C   0  0  0  0  0  0  0  0  0  0  0  0
   -2.5715    0.8856    0.8133 C   0  0  0  0  0  0  0  0  0  0  0  0
    0.4245   -0.8121    0.2804 C   0  0  0  0  0  0  0  0  0  0  0  0
   -3.4265   -0.6620   -0.9966 C   0  0  0  0  0  0  0  0  0  0  0  0
    0.9113    3.7187    0.1446 C   0  0  0  0  0  0  0  0  0  0  0  0
    1.9009   -2.7727   -0.1319 C   0  0  2  0  0  0  0  0  0  0  0  0
   -4.6928   -0.7912   -0.2588 C   0  0  0  0  0  0  0  0  0  0  0  0
    3.3420   -2.9408   -0.6355 C   0  0  0  0  0  0  0  0  0  0  0  0
    0.1089    4.8129    0.4681 C   0  0  0  0  0  0  0  0  0  0  0  0
    1.5415    3.6591   -1.0985 C   0  0  0  0  0  0  0  0  0  0  0  0
    1.0062   -3.9253   -0.5687 C   0  0  0  0  0  0  0  0  0  0  0  0
    4.3003   -1.8632   -0.1807 C   0  0  0  0  0  0  0  0  0  0  0  0
   -0.0634    5.8476   -0.4515 C   0  0  0  0  0  0  0  0  0  0  0  0
    1.3692    4.6938   -2.0181 C   0  0  0  0  0  0  0  0  0  0  0  0
   -4.8695   -1.7895    0.6929 C   0  0  0  0  0  0  0  0  0  0  0  0
   -5.7466    0.0780   -0.4901 C   0  0  0  0  0  0  0  0  0  0  0  0
    0.5669    5.7882   -1.6944 C   0  0  0  0  0  0  0  0  0  0  0  0
    4.4899   -0.7088   -0.9320 C   0  0  0  0  0  0  0  0  0  0  0  0
   -6.0775   -1.8865    1.3745 C   0  0  0  0  0  0  0  0  0  0  0  0
    5.0156   -1.9942    0.9988 C   0  0  0  0  0  0  0  0  0  0  0  0
   -7.0694   -0.9682    1.0702 C   0  0  0  0  0  0  0  0  0  0  0  0
    5.3767    0.2656   -0.4873 C   0  0  0  0  0  0  0  0  0  0  0  0
    0.6553   -6.2622   -0.4562 C   0  0  0  0  0  0  0  0  0  0  0  0
    6.0438    0.0395    0.7058 C   0  0  0  0  0  0  0  0  0  0  0  0
    0.8578    0.8777   -0.9377 H   0  0  0  0  0  0  0  0  0  0  0  0
   -1.3443    1.3018   -1.7702 H   0  0  0  0  0  0  0  0  0  0  0  0
   -1.0585   -0.4269   -1.9380 H   0  0  0  0  0  0  0  0  0  0  0  0
   -1.6862    2.7356    0.1785 H   0  0  0  0  0  0  0  0  0  0  0  0
   -1.6618    2.4648    1.9384 H   0  0  0  0  0  0  0  0  0  0  0  0
   -3.5735    1.3206    0.8752 H   0  0  0  0  0  0  0  0  0  0  0  0
   -2.4781    0.1521    1.6227 H   0  0  0  0  0  0  0  0  0  0  0  0
    1.5897   -1.1156   -1.4112 H   0  0  0  0  0  0  0  0  0  0  0  0
    1.9070   -2.8061    0.9663 H   0  0  0  0  0  0  0  0  0  0  0  0
    3.7405   -3.9162   -0.3266 H   0  0  0  0  0  0  0  0  0  0  0  0
    3.3449   -2.9716   -1.7341 H   0  0  0  0  0  0  0  0  0  0  0  0
   -0.3934    4.8797    1.4289 H   0  0  0  0  0  0  0  0  0  0  0  0
    2.1740    2.8199   -1.3727 H   0  0  0  0  0  0  0  0  0  0  0  0
   -0.6888    6.6992   -0.2001 H   0  0  0  0  0  0  0  0  0  0  0  0
    1.8602    4.6480   -2.9857 H   0  0  0  0  0  0  0  0  0  0  0  0
   -4.0723   -2.4951    0.9105 H   0  0  0  0  0  0  0  0  0  0  0  0
   -5.6679    0.8775   -1.2206 H   0  0  0  0  0  0  0  0  0  0  0  0
    0.4328    6.5938   -2.4103 H   0  0  0  0  0  0  0  0  0  0  0  0
    3.9553   -0.5569   -1.8654 H   0  0  0  0  0  0  0  0  0  0  0  0
    4.9082   -2.8715    1.6292 H   0  0  0  0  0  0  0  0  0  0  0  0
   -6.2374   -2.6564    2.1205 H   0  0  0  0  0  0  0  0  0  0  0  0
   -8.0299   -1.0009    1.5739 H   0  0  0  0  0  0  0  0  0  0  0  0
    5.5395    1.1738   -1.0562 H   0  0  0  0  0  0  0  0  0  0  0  0
    1.1212   -7.1511   -0.0226 H   0  0  0  0  0  0  0  0  0  0  0  0
    0.6212   -6.3787   -1.5436 H   0  0  0  0  0  0  0  0  0  0  0  0
   -0.3538   -6.1592   -0.0458 H   0  0  0  0  0  0  0  0  0  0  0  0
    6.7455    0.7690    1.0965 H   0  0  0  0  0  0  0  0  0  0  0  0
  1  2  2  0  0  0  0
  1  3  2  0  0  0  0
  1  8  1  0  0  0  0
  1 19  1  0  0  0  0
  4 17  2  0  0  0  0
  5 18  2  0  0  0  0
  6 25  1  0  0  0  0
  6 37  1  0  0  0  0
  7 25  2  0  0  0  0
  8 13  1  0  0  0  0
  8 15  1  0  0  0  0
  9 14  1  0  0  0  0
  9 16  1  0  0  0  0
  9 18  1  0  0  0  0
 10 17  1  0  0  0  0
 10 20  1  0  0  0  0
 10 46  1  0  0  0  0
 11 30  1  0  0  0  0
 11 35  2  0  0  0  0
 12 34  1  0  0  0  0
 12 38  2  0  0  0  0
 13 14  1  0  0  0  0
 13 17  1  0  0  0  0
 13 39  1  0  0  0  0
 14 40  1  0  0  0  0
 14 41  1  0  0  0  0
 15 16  1  0  0  0  0
 15 42  1  0  0  0  0
 15 43  1  0  0  0  0
 16 44  1  0  0  0  0
 16 45  1  0  0  0  0
 18 21  1  0  0  0  0
 19 23  2  0  0  0  0
 19 24  1  0  0  0  0
 20 22  1  0  0  0  0
 20 25  1  0  0  0  0
 20 47  1  0  0  0  0
 21 29  1  0  0  0  0
 21 30  2  0  0  0  0
 22 26  1  0  0  0  0
 22 48  1  0  0  0  0
 22 49  1  0  0  0  0
 23 27  1  0  0  0  0
 23 50  1  0  0  0  0
 24 28  2  0  0  0  0
 24 51  1  0  0  0  0
 26 32  1  0  0  0  0
 26 34  2  0  0  0  0
 27 31  2  0  0  0  0
 27 52  1  0  0  0  0
 28 31  1  0  0  0  0
 28 53  1  0  0  0  0
 29 33  2  0  0  0  0
 29 54  1  0  0  0  0
 30 55  1  0  0  0  0
 31 56  1  0  0  0  0
 32 36  2  0  0  0  0
 32 57  1  0  0  0  0
 33 35  1  0  0  0  0
 33 59  1  0  0  0  0
 34 58  1  0  0  0  0
 35 60  1  0  0  0  0
 36 38  1  0  0  0  0
 36 61  1  0  0  0  0
 37 62  1  0  0  0  0
 37 63  1  0  0  0  0
 37 64  1  0  0  0  0
 38 65  1  0  0  0  0
M  END
> <PUBCHEM_COMPOUND_CID>
44717029

> <PUBCHEM_CONFORMER_RMSD>
1.4

> <PUBCHEM_CONFORMER_DIVERSEORDER>
1
50
176
97
151
142
62
179
105
126
86
109
74
55
79
158
40
60
159
24
170
161
42
143
122
96
38
77
129
95
81
117
59
149
94
104
76
17
56
127
102
141
168
172
47
28
130
110
115
33
112
48
131
133
21
67
101
135
54
111
52
75
23
116
83
41
136
178
82
166
92
164
121
145
167
87
173
20
100
139
156
153
29
71
85
120
174
146
84
160
89
137
45
26
91
134
19
171
152
169
13
69
22
114
66
140
63
124
57
128
4
51
155
148
14
68
31
123
34
132
8
147
106
49
44
103
61
27
108
36
53
175
73
144
30
93
138
162
35
88
177
157
154
32
165
80
37
90
43
150
65
78
107
46
98
5
113
64
2
10
118
9
125
6
16
119
99
39
12
58
70
18
7
163
25
3
72
11
15

> <PUBCHEM_MMFF94_PARTIAL_CHARGES>
52
1 1.45
10 -0.73
11 -0.62
12 -0.62
13 0.42
14 0.3
15 0.36
16 0.3
17 0.57
18 0.54
19 -0.01
2 -0.65
20 0.36
21 0.09
22 0.14
23 -0.15
24 -0.15
25 0.66
26 -0.14
27 -0.15
28 -0.15
29 -0.15
3 -0.65
30 0.16
31 -0.15
32 -0.15
33 -0.15
34 0.16
35 0.16
36 -0.15
37 0.28
38 0.16
4 -0.57
46 0.37
5 -0.57
50 0.15
51 0.15
52 0.15
53 0.15
54 0.15
55 0.15
56 0.15
57 0.15
58 0.15
59 0.15
6 -0.43
60 0.15
61 0.15
65 0.15
7 -0.57
8 -0.85
9 -0.66

> <PUBCHEM_EFFECTIVE_ROTOR_COUNT>
12.2

> <PUBCHEM_PHARMACOPHORE_FEATURES>
12
1 10 donor
1 11 acceptor
1 12 acceptor
1 2 acceptor
1 3 acceptor
1 4 acceptor
1 5 acceptor
1 7 acceptor
6 11 21 29 30 33 35 rings
6 12 26 32 34 36 38 rings
6 19 23 24 27 28 31 rings
6 8 9 13 14 15 16 rings

> <PUBCHEM_HEAVY_ATOM_COUNT>
38

> <PUBCHEM_ATOM_DEF_STEREO_COUNT>
2

> <PUBCHEM_ATOM_UDEF_STEREO_COUNT>
0

> <PUBCHEM_BOND_DEF_STEREO_COUNT>
0

> <PUBCHEM_BOND_UDEF_STEREO_COUNT>
0

> <PUBCHEM_ISOTOPIC_ATOM_COUNT>
0

> <PUBCHEM_COMPONENT_COUNT>
1

> <PUBCHEM_CACTVS_TAUTO_COUNT>
2

> <PUBCHEM_CONFORMER_ID>
02AA53E500000001

> <PUBCHEM_MMFF94_ENERGY>
96.0617

> <PUBCHEM_FEATURE_SELFOVERLAP>
60.921

> <PUBCHEM_SHAPE_FINGERPRINT>
10190108 129 18270977747143247451
102385 1 17691121965105838222
1100329 8 18270114763665002574
11049842 53 17619897796523773296
11445158 3 18335983181159204879
11488393 25 18044675314969387281
11763715 3 17904795217617869831
11991303 11 16753268813368589543
1361 2 18412265064590553778
14068700 686 18196931076857679558
14725015 67 18338506449124395082
14840074 17 17775001263484535223
15439362 3 18195805403951912825
15927050 60 17762907958248811716
19315092 285 17096631120740806026
23559900 14 18409163351247751937
24771293 8 18058716040038302896
24771750 20 18045515359006328053
3178227 256 18339653329587899131
469060 322 18265065643367375248
9962374 69 18340200904286601955

> <PUBCHEM_SHAPE_MULTIPOLES>
725.75
12.59
8.64
1.61
13.46
4.94
-0.13
-9.79
-3.41
-5.85
3.24
-0.09
1.05
-0.04

> <PUBCHEM_SHAPE_SELFOVERLAP>
1537.907

> <PUBCHEM_SHAPE_VOLUME>
404.7

> <PUBCHEM_COORDINATE_TYPE>
2
5
10

$$$$
