7051672
  -OEChem-12032416213D

 63 68  0     1  0  0  0  0  0999 V2000
   -0.8793    2.6156   -1.3643 O   0  0  0  0  0  0  0  0  0  0  0  0
   -2.4866   -1.0017    1.4343 O   0  0  0  0  0  0  0  0  0  0  0  0
    3.8627    1.1324   -0.6994 N   0  0  2  0  0  0  0  0  0  0  0  0
    1.0354    2.4546   -0.0351 N   0  0  0  0  0  0  0  0  0  0  0  0
    4.5736   -3.2715    0.0683 N   0  0  0  0  0  0  0  0  0  0  0  0
   -2.3672    1.0396    0.3258 N   0  0  0  0  0  0  0  0  0  0  0  0
   -9.5709   -0.7284   -1.0339 N   0  0  0  0  0  0  0  0  0  0  0  0
    3.2593    3.5656   -0.6569 C   0  0  1  0  0  0  0  0  0  0  0  0
    3.0937    2.2475    1.4004 C   0  0  2  0  0  0  0  0  0  0  0  0
    3.4849    3.6156    0.8484 C   0  0  0  0  0  0  0  0  0  0  0  0
    4.1256    2.4530   -1.2846 C   0  0  0  0  0  0  0  0  0  0  0  0
    3.9892    1.1591    0.7656 C   0  0  0  0  0  0  0  0  0  0  0  0
    1.7614    3.3693   -0.9272 C   0  0  0  0  0  0  0  0  0  0  0  0
    1.6294    1.9559    1.1286 C   0  0  0  0  0  0  0  0  0  0  0  0
    4.7375    0.1177   -1.2815 C   0  0  0  0  0  0  0  0  0  0  0  0
    0.9138    1.2096    1.9866 C   0  0  0  0  0  0  0  0  0  0  0  0
   -0.3097    2.1865   -0.3599 C   0  0  0  0  0  0  0  0  0  0  0  0
    4.3855   -1.2463   -0.7559 C   0  0  0  0  0  0  0  0  0  0  0  0
   -1.0660    1.3322    0.6100 C   0  0  0  0  0  0  0  0  0  0  0  0
   -0.4605    0.8919    1.7181 C   0  0  0  0  0  0  0  0  0  0  0  0
    3.0833   -1.7651   -0.6294 C   0  0  0  0  0  0  0  0  0  0  0  0
    5.2863   -2.1718   -0.3280 C   0  0  0  0  0  0  0  0  0  0  0  0
    3.2256   -3.0513   -0.1046 C   0  0  0  0  0  0  0  0  0  0  0  0
    1.7876   -1.2841   -0.9037 C   0  0  0  0  0  0  0  0  0  0  0  0
    2.1326   -3.8840    0.1609 C   0  0  0  0  0  0  0  0  0  0  0  0
    5.1673   -4.4827    0.5930 C   0  0  0  0  0  0  0  0  0  0  0  0
    0.6849   -2.1059   -0.6433 C   0  0  0  0  0  0  0  0  0  0  0  0
   -3.0034   -0.1163    0.7574 C   0  0  0  0  0  0  0  0  0  0  0  0
    0.8571   -3.3856   -0.1192 C   0  0  0  0  0  0  0  0  0  0  0  0
   -4.4313   -0.2498    0.3678 C   0  0  0  0  0  0  0  0  0  0  0  0
   -5.2710   -1.0014    1.1630 C   0  0  0  0  0  0  0  0  0  0  0  0
   -4.8710    0.3837   -0.7757 C   0  0  0  0  0  0  0  0  0  0  0  0
   -6.6116   -1.1253    0.7979 C   0  0  0  0  0  0  0  0  0  0  0  0
   -6.2115    0.2599   -1.1407 C   0  0  0  0  0  0  0  0  0  0  0  0
   -7.0818   -0.4947   -0.3539 C   0  0  0  0  0  0  0  0  0  0  0  0
   -8.4546   -0.6236   -0.7289 C   0  0  0  0  0  0  0  0  0  0  0  0
    3.5685    4.5177   -1.1059 H   0  0  0  0  0  0  0  0  0  0  0  0
    3.2740    2.2545    2.4835 H   0  0  0  0  0  0  0  0  0  0  0  0
    2.8851    4.4118    1.3069 H   0  0  0  0  0  0  0  0  0  0  0  0
    4.5361    3.8343    1.0724 H   0  0  0  0  0  0  0  0  0  0  0  0
    3.9280    2.4209   -2.3633 H   0  0  0  0  0  0  0  0  0  0  0  0
    5.1841    2.7199   -1.1613 H   0  0  0  0  0  0  0  0  0  0  0  0
    5.0328    1.3505    1.0524 H   0  0  0  0  0  0  0  0  0  0  0  0
    3.7110    0.2032    1.2227 H   0  0  0  0  0  0  0  0  0  0  0  0
    1.2581    4.3407   -0.8261 H   0  0  0  0  0  0  0  0  0  0  0  0
    1.5947    3.0507   -1.9640 H   0  0  0  0  0  0  0  0  0  0  0  0
    5.7935    0.3417   -1.0800 H   0  0  0  0  0  0  0  0  0  0  0  0
    4.6122    0.0951   -2.3718 H   0  0  0  0  0  0  0  0  0  0  0  0
    1.3539    0.8076    2.8932 H   0  0  0  0  0  0  0  0  0  0  0  0
   -0.9530    0.3208    2.4955 H   0  0  0  0  0  0  0  0  0  0  0  0
    6.3663   -2.1496   -0.2687 H   0  0  0  0  0  0  0  0  0  0  0  0
   -2.8083    1.6520   -0.3516 H   0  0  0  0  0  0  0  0  0  0  0  0
    1.6251   -0.2993   -1.3302 H   0  0  0  0  0  0  0  0  0  0  0  0
    2.2598   -4.8811    0.5688 H   0  0  0  0  0  0  0  0  0  0  0  0
    4.8916   -5.3133   -0.0617 H   0  0  0  0  0  0  0  0  0  0  0  0
    6.2548   -4.3773    0.6192 H   0  0  0  0  0  0  0  0  0  0  0  0
    4.7865   -4.6428    1.6049 H   0  0  0  0  0  0  0  0  0  0  0  0
   -0.3166   -1.7420   -0.8572 H   0  0  0  0  0  0  0  0  0  0  0  0
   -0.0136   -4.0068    0.0748 H   0  0  0  0  0  0  0  0  0  0  0  0
   -4.9219   -1.4940    2.0655 H   0  0  0  0  0  0  0  0  0  0  0  0
   -4.2265    0.9438   -1.4437 H   0  0  0  0  0  0  0  0  0  0  0  0
   -7.2780   -1.7161    1.4219 H   0  0  0  0  0  0  0  0  0  0  0  0
   -6.5618    0.7489   -2.0468 H   0  0  0  0  0  0  0  0  0  0  0  0
  1 17  2  0  0  0  0
  2 28  2  0  0  0  0
  3 11  1  0  0  0  0
  3 12  1  0  0  0  0
  3 15  1  0  0  0  0
  4 13  1  0  0  0  0
  4 14  1  0  0  0  0
  4 17  1  0  0  0  0
  5 22  1  0  0  0  0
  5 23  1  0  0  0  0
  5 26  1  0  0  0  0
  6 19  1  0  0  0  0
  6 28  1  0  0  0  0
  6 52  1  0  0  0  0
  7 36  3  0  0  0  0
  8 10  1  0  0  0  0
  8 11  1  0  0  0  0
  8 13  1  0  0  0  0
  8 37  1  0  0  0  0
  9 10  1  0  0  0  0
  9 12  1  0  0  0  0
  9 14  1  0  0  0  0
  9 38  1  0  0  0  0
 10 39  1  0  0  0  0
 10 40  1  0  0  0  0
 11 41  1  0  0  0  0
 11 42  1  0  0  0  0
 12 43  1  0  0  0  0
 12 44  1  0  0  0  0
 13 45  1  0  0  0  0
 13 46  1  0  0  0  0
 14 16  2  0  0  0  0
 15 18  1  0  0  0  0
 15 47  1  0  0  0  0
 15 48  1  0  0  0  0
 16 20  1  0  0  0  0
 16 49  1  0  0  0  0
 17 19  1  0  0  0  0
 18 21  1  0  0  0  0
 18 22  2  0  0  0  0
 19 20  2  0  0  0  0
 20 50  1  0  0  0  0
 21 23  1  0  0  0  0
 21 24  2  0  0  0  0
 22 51  1  0  0  0  0
 23 25  2  0  0  0  0
 24 27  1  0  0  0  0
 24 53  1  0  0  0  0
 25 29  1  0  0  0  0
 25 54  1  0  0  0  0
 26 55  1  0  0  0  0
 26 56  1  0  0  0  0
 26 57  1  0  0  0  0
 27 29  2  0  0  0  0
 27 58  1  0  0  0  0
 28 30  1  0  0  0  0
 29 59  1  0  0  0  0
 30 31  2  0  0  0  0
 30 32  1  0  0  0  0
 31 33  1  0  0  0  0
 31 60  1  0  0  0  0
 32 34  2  0  0  0  0
 32 61  1  0  0  0  0
 33 35  2  0  0  0  0
 33 62  1  0  0  0  0
 34 35  1  0  0  0  0
 34 63  1  0  0  0  0
 35 36  1  0  0  0  0
M  END
> <PUBCHEM_COMPOUND_CID>
7051672

> <PUBCHEM_CONFORMER_RMSD>
1

> <PUBCHEM_CONFORMER_DIVERSEORDER>
1
5
10
7
6
12
8
4
11
9
13
3
2

> <PUBCHEM_MMFF94_PARTIAL_CHARGES>
45
1 -0.57
11 0.27
12 0.27
13 0.3
14 -0.03
15 0.45
16 -0.15
17 0.62
18 -0.18
19 0.12
2 -0.57
20 -0.15
22 -0.3
23 -0.15
24 -0.15
25 -0.15
26 0.26
27 -0.15
28 0.54
29 -0.15
3 -0.81
30 0.09
31 -0.15
32 -0.15
33 -0.15
34 -0.15
35 0.07
36 0.48
4 -0.47
49 0.15
5 0.05
50 0.15
51 0.15
52 0.37
53 0.15
54 0.15
58 0.15
59 0.15
6 -0.54
60 0.15
61 0.15
62 0.15
63 0.15
7 -0.56
9 0.14

> <PUBCHEM_EFFECTIVE_ROTOR_COUNT>
6

> <PUBCHEM_PHARMACOPHORE_FEATURES>
12
1 1 acceptor
1 2 acceptor
1 3 cation
1 5 cation
1 6 donor
1 7 acceptor
5 5 18 21 22 23 rings
6 21 23 24 25 27 29 rings
6 3 8 9 10 11 12 rings
6 30 31 32 33 34 35 rings
6 4 14 16 17 19 20 rings
6 4 8 9 10 13 14 rings

> <PUBCHEM_HEAVY_ATOM_COUNT>
36

> <PUBCHEM_ATOM_DEF_STEREO_COUNT>
2

> <PUBCHEM_ATOM_UDEF_STEREO_COUNT>
0

> <PUBCHEM_BOND_DEF_STEREO_COUNT>
0

> <PUBCHEM_BOND_UDEF_STEREO_COUNT>
0

> <PUBCHEM_ISOTOPIC_ATOM_COUNT>
0

> <PUBCHEM_COMPONENT_COUNT>
1

> <PUBCHEM_CACTVS_TAUTO_COUNT>
2

> <PUBCHEM_CONFORMER_ID>
006B999800000001

> <PUBCHEM_MMFF94_ENERGY>
95.2132

> <PUBCHEM_FEATURE_SELFOVERLAP>
62.541

> <PUBCHEM_SHAPE_FINGERPRINT>
10675989 125 18058167409068925880
11146851 88 18336264553131410266
11204353 107 18337679736360875307
11828532 37 17168434851972279843
11963148 33 18197210567591882175
11973864 48 18042128821509870323
12522641 33 18339640174140247864
12677640 9 17983019951249940009
13533116 47 18201723985245050353
1361 2 18337394953820587152
14068700 675 18129944464332007178
14117953 113 18409736196742649804
14675020 138 18200300152104822056
14725015 67 18260537888780219578
15001296 14 17846493794333621927
15119646 104 18130794460557284873
15183329 4 18335704975096204369
15400415 2 17761783157675326825
15483637 11 17978232986643950615
15927050 60 18055072322702055022
17492 54 18263385688679293156
19315092 285 17988644064535753296
19319366 153 18200872988914345414
20771845 140 16343984698058621143
20771845 171 18186804724604493229
20775438 99 18264478653965416906
20775530 9 18048337552247027514
21033650 10 16516530984928409197
21133410 171 17173184535857003586
21703447 108 18202280308053852552
23559900 14 18333734619993498571
23569914 152 17758650293245022453
255183 451 18128548054875202286
27425 322 17024309840821161160
397830 11 10087630542825834549
4066623 53 17749661892255312916
4098825 35 18410855431282404253
439807 62 18410857621282929183
46194498 28 18040996275763775957
463206 1 18130506443533226235
513532 50 17894628188235622888
5265222 85 17616825765098579957
5309563 4 18267870489002771748
5951187 136 15502669242575733814
59682541 52 18408603682390875109
6669772 16 18269270326197628208

> <PUBCHEM_SHAPE_MULTIPOLES>
704.22
17.82
5.2
1.43
49.91
1.83
0.28
8.76
-4.79
-11.34
-0.01
0.07
-0.65
0.12

> <PUBCHEM_SHAPE_SELFOVERLAP>
1570.528

> <PUBCHEM_SHAPE_VOLUME>
366.4

> <PUBCHEM_COORDINATE_TYPE>
2
5
10

$$$$
