75536112
  -OEChem-12032416413D

 42 44  0     1  0  0  0  0  0999 V2000
    1.1257   -3.3980    0.6786 O   0  0  0  0  0  0  0  0  0  0  0  0
    3.6507   -2.3769    1.0072 O   0  0  0  0  0  0  0  0  0  0  0  0
   -0.1248   -0.7998   -0.4063 N   0  0  0  0  0  0  0  0  0  0  0  0
    2.6102    3.4755   -0.7002 N   0  0  0  0  0  0  0  0  0  0  0  0
   -5.1931    3.0938    0.0775 N   0  0  0  0  0  0  0  0  0  0  0  0
    1.2628   -1.0785   -0.0539 C   0  0  2  0  0  0  0  0  0  0  0  0
    2.2571   -0.2936   -0.9397 C   0  0  2  0  0  0  0  0  0  0  0  0
    1.6339   -2.5367   -0.3222 C   0  0  1  0  0  0  0  0  0  0  0  0
    3.4871   -1.2260   -1.1081 C   0  0  0  0  0  0  0  0  0  0  0  0
    3.1595   -2.4988   -0.3248 C   0  0  1  0  0  0  0  0  0  0  0  0
    2.5895    1.0778   -0.3919 C   0  0  0  0  0  0  0  0  0  0  0  0
   -1.0196   -1.1582    0.6851 C   0  0  0  0  0  0  0  0  0  0  0  0
    3.1589    1.2274    0.8677 C   0  0  0  0  0  0  0  0  0  0  0  0
    2.3370    2.2231   -1.1297 C   0  0  0  0  0  0  0  0  0  0  0  0
   -2.4601   -0.8867    0.3413 C   0  0  0  0  0  0  0  0  0  0  0  0
    3.4543    2.4998    1.3444 C   0  0  0  0  0  0  0  0  0  0  0  0
    3.1633    3.5814    0.5289 C   0  0  0  0  0  0  0  0  0  0  0  0
   -2.9492    0.4195    0.3615 C   0  0  0  0  0  0  0  0  0  0  0  0
   -3.3054   -1.9428    0.0008 C   0  0  0  0  0  0  0  0  0  0  0  0
   -4.2836    0.6696    0.0414 C   0  0  0  0  0  0  0  0  0  0  0  0
   -4.6398   -1.6926   -0.3197 C   0  0  0  0  0  0  0  0  0  0  0  0
   -5.1290   -0.3865   -0.2992 C   0  0  0  0  0  0  0  0  0  0  0  0
   -4.7855    2.0073    0.0612 C   0  0  0  0  0  0  0  0  0  0  0  0
    1.4236   -0.8445    1.0069 H   0  0  0  0  0  0  0  0  0  0  0  0
    1.8232   -0.1679   -1.9431 H   0  0  0  0  0  0  0  0  0  0  0  0
    1.2587   -2.8654   -1.3000 H   0  0  0  0  0  0  0  0  0  0  0  0
    3.5914   -1.4722   -2.1722 H   0  0  0  0  0  0  0  0  0  0  0  0
    4.4249   -0.7651   -0.7806 H   0  0  0  0  0  0  0  0  0  0  0  0
    3.5974   -3.3995   -0.7648 H   0  0  0  0  0  0  0  0  0  0  0  0
   -0.2253    0.1972   -0.5986 H   0  0  0  0  0  0  0  0  0  0  0  0
   -0.7729   -0.5916    1.5931 H   0  0  0  0  0  0  0  0  0  0  0  0
   -0.9281   -2.2158    0.9499 H   0  0  0  0  0  0  0  0  0  0  0  0
    1.4818   -4.2862    0.5065 H   0  0  0  0  0  0  0  0  0  0  0  0
    4.6190   -2.3055    0.9550 H   0  0  0  0  0  0  0  0  0  0  0  0
    3.3871    0.3677    1.4904 H   0  0  0  0  0  0  0  0  0  0  0  0
    1.8936    2.1739   -2.1193 H   0  0  0  0  0  0  0  0  0  0  0  0
    3.8999    2.6403    2.3225 H   0  0  0  0  0  0  0  0  0  0  0  0
    3.3749    4.5947    0.8540 H   0  0  0  0  0  0  0  0  0  0  0  0
   -2.2875    1.2412    0.6282 H   0  0  0  0  0  0  0  0  0  0  0  0
   -2.9380   -2.9654   -0.0220 H   0  0  0  0  0  0  0  0  0  0  0  0
   -5.2977   -2.5148   -0.5857 H   0  0  0  0  0  0  0  0  0  0  0  0
   -6.1715   -0.2076   -0.5515 H   0  0  0  0  0  0  0  0  0  0  0  0
  1  8  1  0  0  0  0
  1 33  1  0  0  0  0
  2 10  1  0  0  0  0
  2 34  1  0  0  0  0
  3  6  1  0  0  0  0
  3 12  1  0  0  0  0
  3 30  1  0  0  0  0
  4 14  1  0  0  0  0
  4 17  2  0  0  0  0
  5 23  3  0  0  0  0
  6  7  1  0  0  0  0
  6  8  1  0  0  0  0
  6 24  1  0  0  0  0
  7  9  1  0  0  0  0
  7 11  1  0  0  0  0
  7 25  1  0  0  0  0
  8 10  1  0  0  0  0
  8 26  1  0  0  0  0
  9 10  1  0  0  0  0
  9 27  1  0  0  0  0
  9 28  1  0  0  0  0
 10 29  1  0  0  0  0
 11 13  1  0  0  0  0
 11 14  2  0  0  0  0
 12 15  1  0  0  0  0
 12 31  1  0  0  0  0
 12 32  1  0  0  0  0
 13 16  2  0  0  0  0
 13 35  1  0  0  0  0
 14 36  1  0  0  0  0
 15 18  2  0  0  0  0
 15 19  1  0  0  0  0
 16 17  1  0  0  0  0
 16 37  1  0  0  0  0
 17 38  1  0  0  0  0
 18 20  1  0  0  0  0
 18 39  1  0  0  0  0
 19 21  2  0  0  0  0
 19 40  1  0  0  0  0
 20 22  2  0  0  0  0
 20 23  1  0  0  0  0
 21 22  1  0  0  0  0
 21 41  1  0  0  0  0
 22 42  1  0  0  0  0
M  END
> <PUBCHEM_COMPOUND_CID>
75536112

> <PUBCHEM_CONFORMER_RMSD>
0.8

> <PUBCHEM_CONFORMER_DIVERSEORDER>
1
74
123
19
34
77
86
66
80
35
78
32
114
102
124
108
50
83
57
109
92
117
47
89
69
113
105
10
81
56
90
95
51
29
104
72
129
112
20
36
84
67
75
14
33
87
134
59
65
6
130
88
11
133
25
82
135
115
98
9
41
52
68
121
7
54
93
40
64
132
126
131
63
127
24
120
99
136
128
61
96
15
62
28
101
85
26
48
71
111
45
106
97
60
107
103
37
23
44
76
110
39
21
94
13
125
4
122
22
5
118
116
53
16
12
27
46
49
70
58
38
91
31
79
8
30
119
55
73
100
43
42
3
17
2
18

> <PUBCHEM_MMFF94_PARTIAL_CHARGES>
33
1 -0.68
10 0.28
11 -0.14
12 0.41
13 -0.15
14 0.16
15 -0.14
16 -0.15
17 0.16
18 -0.15
19 -0.15
2 -0.68
20 0.07
21 -0.15
22 -0.15
23 0.48
3 -0.9
30 0.36
33 0.4
34 0.4
35 0.15
36 0.15
37 0.15
38 0.15
39 0.15
4 -0.62
40 0.15
41 0.15
42 0.15
5 -0.56
6 0.27
7 0.14
8 0.28

> <PUBCHEM_EFFECTIVE_ROTOR_COUNT>
5

> <PUBCHEM_PHARMACOPHORE_FEATURES>
11
1 1 acceptor
1 1 donor
1 2 acceptor
1 2 donor
1 3 cation
1 3 donor
1 4 acceptor
1 5 acceptor
5 6 7 8 9 10 rings
6 15 18 19 20 21 22 rings
6 4 11 13 14 16 17 rings

> <PUBCHEM_HEAVY_ATOM_COUNT>
23

> <PUBCHEM_ATOM_DEF_STEREO_COUNT>
4

> <PUBCHEM_ATOM_UDEF_STEREO_COUNT>
0

> <PUBCHEM_BOND_DEF_STEREO_COUNT>
0

> <PUBCHEM_BOND_UDEF_STEREO_COUNT>
0

> <PUBCHEM_ISOTOPIC_ATOM_COUNT>
0

> <PUBCHEM_COMPONENT_COUNT>
1

> <PUBCHEM_CACTVS_TAUTO_COUNT>
1

> <PUBCHEM_CONFORMER_ID>
048096F000000001

> <PUBCHEM_MMFF94_ENERGY>
62.6693

> <PUBCHEM_FEATURE_SELFOVERLAP>
55.833

> <PUBCHEM_SHAPE_FINGERPRINT>
11370993 70 18266457804938182449
11405975 8 18409731725454756707
12549972 3 17822874033610738923
12769317 202 18129657642026476616
12788726 201 17469611706932636698
12925494 130 18264772065689990441
13617811 41 18123736807319809957
13878862 14 18116417164750352565
13965767 371 17971737020834190900
14251764 38 18409165554017445929
14466204 15 18119805815977952258
14468879 13 18117565247640734099
14848178 96 18409450306091327997
15420108 30 18200010950893330270
17492 89 18411704300792050799
17844677 252 18411707573777961835
17868525 174 18191863431511568664
18335252 114 17832418701759524541
18681886 176 18272649022235303494
20567600 299 18340770351317117389
20715895 44 18126281944399050977
21065198 57 18411139117460364559
21133410 127 18041278867617438621
21315763 129 18411415120342681067
21315764 268 18335980875247296733
21452121 103 18340762723887560514
21709351 56 18341891874826566951
21860390 5 18200037226722298846
22149856 69 18047496653939467427
22393880 68 18271536376200982023
23559900 14 18342737373493078779
245318 6 16955920312337783573
283562 15 17904213538351852222
345986 75 17028234792859590978
469060 322 17401786605448695955
474 4 18263644128976307358
495365 180 18409728490896262562
5104073 3 18409453587847159067
5895379 119 17416419653298533816
6328613 192 18044098084793447724
6443956 14 18338519617172195166
67856867 119 18411974797488883339
7808743 9 17546167858343187488
84936 182 18342461494853317848
9981440 41 18119808259882766523

> <PUBCHEM_SHAPE_MULTIPOLES>
446.65
11.08
4.5
1.01
13.78
1.85
-0.02
4.84
0.02
-3.43
-0.39
-0.99
0.16
0.28

> <PUBCHEM_SHAPE_SELFOVERLAP>
956.611

> <PUBCHEM_SHAPE_VOLUME>
244.5

> <PUBCHEM_COORDINATE_TYPE>
2
5
10

$$$$
