51136816
  -OEChem-12032416233D

 66 70  0     1  0  0  0  0  0999 V2000
   -4.5299    2.1331   -0.2244 O   0  0  0  0  0  0  0  0  0  0  0  0
    5.9764   -1.2608    1.1109 O   0  0  0  0  0  0  0  0  0  0  0  0
   -3.8737   -1.5328   -0.1672 N   0  0  1  0  0  0  0  0  0  0  0  0
   -2.5520    1.0862   -0.1318 N   0  0  0  0  0  0  0  0  0  0  0  0
    2.3879    2.1691    0.1411 N   0  0  0  0  0  0  0  0  0  0  0  0
    4.7385    0.4808    0.1975 N   0  0  0  0  0  0  0  0  0  0  0  0
   -3.5586    3.1404   -0.1624 N   0  0  0  0  0  0  0  0  0  0  0  0
    1.3755    4.3024    0.1095 N   0  0  0  0  0  0  0  0  0  0  0  0
   -4.6893   -0.3054   -0.2598 C   0  0  1  0  0  0  0  0  0  0  0  0
   -5.6882   -0.4106    0.9073 C   0  0  0  0  0  0  0  0  0  0  0  0
   -4.7227   -2.5471    0.4578 C   0  0  0  0  0  0  0  0  0  0  0  0
   -5.3984   -1.7552    1.5591 C   0  0  0  0  0  0  0  0  0  0  0  0
   -3.3502   -1.9730   -1.4539 C   0  0  0  0  0  0  0  0  0  0  0  0
   -3.8526    0.9554   -0.2014 C   0  0  0  0  0  0  0  0  0  0  0  0
   -2.1720   -2.9241   -1.2498 C   0  0  0  0  0  0  0  0  0  0  0  0
   -1.0300   -2.2340   -0.4996 C   0  0  0  0  0  0  0  0  0  0  0  0
    2.3639    0.8561    0.7918 C   0  0  0  0  0  0  0  0  0  0  0  0
    3.6577    2.6426   -0.4154 C   0  0  0  0  0  0  0  0  0  0  0  0
    3.7584    0.4705    1.2805 C   0  0  0  0  0  0  0  0  0  0  0  0
    4.5254    1.4667   -0.8643 C   0  0  0  0  0  0  0  0  0  0  0  0
   -2.4192    2.4442   -0.1103 C   0  0  0  0  0  0  0  0  0  0  0  0
    0.1255   -3.1713   -0.2578 C   0  0  0  0  0  0  0  0  0  0  0  0
    1.2408    2.9574    0.0881 C   0  0  0  0  0  0  0  0  0  0  0  0
   -1.1315    3.0746   -0.0345 C   0  0  0  0  0  0  0  0  0  0  0  0
    0.0227    2.3009    0.0174 C   0  0  0  0  0  0  0  0  0  0  0  0
    5.7954   -0.4299    0.2179 C   0  0  0  0  0  0  0  0  0  0  0  0
    0.1700   -3.9379    0.9066 C   0  0  0  0  0  0  0  0  0  0  0  0
    1.1502   -3.2719   -1.1986 C   0  0  0  0  0  0  0  0  0  0  0  0
   -1.0336    4.4616   -0.0146 C   0  0  0  0  0  0  0  0  0  0  0  0
    0.2318    5.0214    0.0575 C   0  0  0  0  0  0  0  0  0  0  0  0
    6.7586   -0.3591   -0.9418 C   0  0  0  0  0  0  0  0  0  0  0  0
    1.2394   -4.8052    1.1303 C   0  0  0  0  0  0  0  0  0  0  0  0
    2.2196   -4.1391   -0.9751 C   0  0  0  0  0  0  0  0  0  0  0  0
    2.2642   -4.9057    0.1894 C   0  0  0  0  0  0  0  0  0  0  0  0
   -5.2616   -0.2917   -1.1980 H   0  0  0  0  0  0  0  0  0  0  0  0
   -6.7129   -0.4063    0.5160 H   0  0  0  0  0  0  0  0  0  0  0  0
   -5.6053    0.3987    1.6408 H   0  0  0  0  0  0  0  0  0  0  0  0
   -5.4750   -2.9418   -0.2368 H   0  0  0  0  0  0  0  0  0  0  0  0
   -4.1481   -3.3810    0.8718 H   0  0  0  0  0  0  0  0  0  0  0  0
   -6.3067   -2.2402    1.9285 H   0  0  0  0  0  0  0  0  0  0  0  0
   -4.7153   -1.6190    2.4068 H   0  0  0  0  0  0  0  0  0  0  0  0
   -2.9862   -1.1145   -2.0330 H   0  0  0  0  0  0  0  0  0  0  0  0
   -4.1239   -2.4520   -2.0669 H   0  0  0  0  0  0  0  0  0  0  0  0
   -1.8158   -3.2571   -2.2332 H   0  0  0  0  0  0  0  0  0  0  0  0
   -2.4902   -3.8302   -0.7199 H   0  0  0  0  0  0  0  0  0  0  0  0
   -0.6797   -1.3609   -1.0654 H   0  0  0  0  0  0  0  0  0  0  0  0
   -1.3669   -1.8444    0.4690 H   0  0  0  0  0  0  0  0  0  0  0  0
    1.6930    0.8593    1.6597 H   0  0  0  0  0  0  0  0  0  0  0  0
    2.0045    0.1023    0.0802 H   0  0  0  0  0  0  0  0  0  0  0  0
    3.4834    3.2939   -1.2804 H   0  0  0  0  0  0  0  0  0  0  0  0
    4.1836    3.2318    0.3456 H   0  0  0  0  0  0  0  0  0  0  0  0
    3.7303   -0.5170    1.7536 H   0  0  0  0  0  0  0  0  0  0  0  0
    4.1114    1.1845    2.0348 H   0  0  0  0  0  0  0  0  0  0  0  0
    5.4868    1.8416   -1.2271 H   0  0  0  0  0  0  0  0  0  0  0  0
    4.0421    0.9353   -1.6932 H   0  0  0  0  0  0  0  0  0  0  0  0
   -0.0418    1.2182   -0.0183 H   0  0  0  0  0  0  0  0  0  0  0  0
   -0.6236   -3.8697    1.6460 H   0  0  0  0  0  0  0  0  0  0  0  0
    1.1262   -2.6802   -2.1099 H   0  0  0  0  0  0  0  0  0  0  0  0
   -1.8984    5.1158   -0.0530 H   0  0  0  0  0  0  0  0  0  0  0  0
    0.3629    6.0983    0.0758 H   0  0  0  0  0  0  0  0  0  0  0  0
    7.4396   -1.2146   -0.9002 H   0  0  0  0  0  0  0  0  0  0  0  0
    6.2222   -0.4005   -1.8932 H   0  0  0  0  0  0  0  0  0  0  0  0
    7.3505    0.5577   -0.8789 H   0  0  0  0  0  0  0  0  0  0  0  0
    1.2740   -5.4025    2.0367 H   0  0  0  0  0  0  0  0  0  0  0  0
    3.0178   -4.2172   -1.7075 H   0  0  0  0  0  0  0  0  0  0  0  0
    3.0970   -5.5807    0.3635 H   0  0  0  0  0  0  0  0  0  0  0  0
  1  7  1  0  0  0  0
  1 14  1  0  0  0  0
  2 26  2  0  0  0  0
  3  9  1  0  0  0  0
  3 11  1  0  0  0  0
  3 13  1  0  0  0  0
  4 14  2  0  0  0  0
  4 21  1  0  0  0  0
  5 17  1  0  0  0  0
  5 18  1  0  0  0  0
  5 23  1  0  0  0  0
  6 19  1  0  0  0  0
  6 20  1  0  0  0  0
  6 26  1  0  0  0  0
  7 21  2  0  0  0  0
  8 23  2  0  0  0  0
  8 30  1  0  0  0  0
  9 10  1  0  0  0  0
  9 14  1  0  0  0  0
  9 35  1  0  0  0  0
 10 12  1  0  0  0  0
 10 36  1  0  0  0  0
 10 37  1  0  0  0  0
 11 12  1  0  0  0  0
 11 38  1  0  0  0  0
 11 39  1  0  0  0  0
 12 40  1  0  0  0  0
 12 41  1  0  0  0  0
 13 15  1  0  0  0  0
 13 42  1  0  0  0  0
 13 43  1  0  0  0  0
 15 16  1  0  0  0  0
 15 44  1  0  0  0  0
 15 45  1  0  0  0  0
 16 22  1  0  0  0  0
 16 46  1  0  0  0  0
 16 47  1  0  0  0  0
 17 19  1  0  0  0  0
 17 48  1  0  0  0  0
 17 49  1  0  0  0  0
 18 20  1  0  0  0  0
 18 50  1  0  0  0  0
 18 51  1  0  0  0  0
 19 52  1  0  0  0  0
 19 53  1  0  0  0  0
 20 54  1  0  0  0  0
 20 55  1  0  0  0  0
 21 24  1  0  0  0  0
 22 27  2  0  0  0  0
 22 28  1  0  0  0  0
 23 25  1  0  0  0  0
 24 25  2  0  0  0  0
 24 29  1  0  0  0  0
 25 56  1  0  0  0  0
 26 31  1  0  0  0  0
 27 32  1  0  0  0  0
 27 57  1  0  0  0  0
 28 33  2  0  0  0  0
 28 58  1  0  0  0  0
 29 30  2  0  0  0  0
 29 59  1  0  0  0  0
 30 60  1  0  0  0  0
 31 61  1  0  0  0  0
 31 62  1  0  0  0  0
 31 63  1  0  0  0  0
 32 34  2  0  0  0  0
 32 64  1  0  0  0  0
 33 34  1  0  0  0  0
 33 65  1  0  0  0  0
 34 66  1  0  0  0  0
M  END
> <PUBCHEM_COMPOUND_CID>
51136816

> <PUBCHEM_CONFORMER_RMSD>
1.2

> <PUBCHEM_CONFORMER_DIVERSEORDER>
1
239
181
14
107
217
136
48
241
186
163
76
99
56
176
89
13
126
12
139
155
57
53
187
105
110
55
81
196
45
146
197
205
228
203
240
190
30
132
35
119
21
161
224
244
188
215
227
232
195
171
234
133
151
9
222
51
123
18
67
127
125
149
182
37
179
226
245
138
87
235
143
114
225
238
150
93
202
15
120
115
221
118
140
236
141
124
145
75
65
38
28
178
109
73
74
159
189
192
29
162
78
144
90
97
198
111
134
231
66
82
193
152
201
208
121
174
142
194
86
158
237
100
165
157
59
129
206
52
41
122
116
180
40
94
223
210
211
92
7
167
153
216
36
175
209
242
26
131
22
71
185
130
170
169
108
77
20
95
80
128
243
44
63
213
10
102
218
117
212
173
4
168
8
148
135
156
177
88
154
113
96
200
137
184
5
191
85
214
166
43
230
106
72
204
98
164
61
207
70
69
33
160
183
220
39
58
172
49
219
68
83
229
104
46
62
25
84
34
47
199
3
60
64
31
91
233
6
2
32
42
54
19
103
147
79
27
17
24
16
112
11
50
23
101

> <PUBCHEM_MMFF94_PARTIAL_CHARGES>
39
1 -0.02
11 0.27
13 0.27
14 0.3
16 0.14
17 0.37
18 0.37
19 0.3
2 -0.57
20 0.3
21 0.46
22 -0.14
23 0.41
24 0.05
25 -0.15
26 0.57
27 -0.15
28 -0.15
29 -0.15
3 -0.81
30 0.16
31 0.06
32 -0.15
33 -0.15
34 -0.15
4 -0.57
5 -0.84
56 0.15
57 0.15
58 0.15
59 0.15
6 -0.66
60 0.15
64 0.15
65 0.15
66 0.15
7 -0.41
8 -0.62
9 0.45

> <PUBCHEM_EFFECTIVE_ROTOR_COUNT>
10.2

> <PUBCHEM_PHARMACOPHORE_FEATURES>
9
1 2 acceptor
1 3 cation
3 4 7 21 cation
3 5 8 23 cation
5 1 4 7 14 21 rings
5 3 9 10 11 12 rings
6 22 27 28 32 33 34 rings
6 5 6 17 18 19 20 rings
6 8 23 24 25 29 30 rings

> <PUBCHEM_HEAVY_ATOM_COUNT>
34

> <PUBCHEM_ATOM_DEF_STEREO_COUNT>
1

> <PUBCHEM_ATOM_UDEF_STEREO_COUNT>
0

> <PUBCHEM_BOND_DEF_STEREO_COUNT>
0

> <PUBCHEM_BOND_UDEF_STEREO_COUNT>
0

> <PUBCHEM_ISOTOPIC_ATOM_COUNT>
0

> <PUBCHEM_COMPONENT_COUNT>
1

> <PUBCHEM_CACTVS_TAUTO_COUNT>
1

> <PUBCHEM_CONFORMER_ID>
030C493000000001

> <PUBCHEM_MMFF94_ENERGY>
80.4445

> <PUBCHEM_FEATURE_SELFOVERLAP>
45.674

> <PUBCHEM_SHAPE_FINGERPRINT>
10049733 162 18337402629987059150
10939801 23 18337385059212703336
11513181 2 17915448398717242615
11578080 2 16661746793007773767
13347071 3 18053939559896824722
14117953 113 18341610404682867733
14251757 5 18048889785956482068
14725015 67 18339639070158942775
15274700 232 17116076890396828494
15274700 242 18191279711971971802
15320467 1 18410854356448466126
15326923 133 17770774612112347070
15721738 15 16325089912457489414
15968369 153 18200018544279724914
16112460 7 18200325449150984896
17627616 140 18263923241932352654
19311894 1 18198051680500926958
19319366 153 17605546863725912088
20028762 73 18199466752397864959
20721686 56 18339359648266842031
20764821 26 18411985796973592172
21796203 349 18047789088701831721
325973 47 18122342651491460566
338550 245 18409449185294339350
373842 8 18193830453455759331
42626532 9 17760103825568275115
437795 70 18200611245603325822
5265222 85 18337400460169354932
9961470 85 17835511631524914600

> <PUBCHEM_SHAPE_MULTIPOLES>
658.08
12.55
8.28
1.13
4.71
0.78
-0.04
2.07
-1.32
1.5
-0.05
-0.05
0.96
0.05

> <PUBCHEM_SHAPE_SELFOVERLAP>
1408.333

> <PUBCHEM_SHAPE_VOLUME>
364.5

> <PUBCHEM_COORDINATE_TYPE>
2
5
10

$$$$
