45360850
  -OEChem-12032416293D

 63 66  0     1  0  0  0  0  0999 V2000
    2.3480   -1.6961   -0.6709 O   0  0  0  0  0  0  0  0  0  0  0  0
   -4.3766   -0.3536   -2.1820 O   0  0  0  0  0  0  0  0  0  0  0  0
   -8.4484    0.6007    0.5266 O   0  0  0  0  0  0  0  0  0  0  0  0
    3.5395    0.4957    0.3632 N   0  0  1  0  0  0  0  0  0  0  0  0
    0.1298    1.4742   -0.5351 N   0  0  1  0  0  0  0  0  0  0  0  0
    0.3091   -1.2864    0.2836 N   0  0  0  0  0  0  0  0  0  0  0  0
   -5.7685   -0.2144   -0.3295 N   0  0  0  0  0  0  0  0  0  0  0  0
    1.3842    1.6051    0.2387 C   0  0  1  0  0  0  0  0  0  0  0  0
    2.1142    0.3068    0.6924 C   0  0  1  0  0  0  0  0  0  0  0  0
    2.5023    2.3579   -0.5062 C   0  0  0  0  0  0  0  0  0  0  0  0
    3.7598    1.9305    0.2209 C   0  0  0  0  0  0  0  0  0  0  0  0
   -0.9865    0.8233    0.2060 C   0  0  2  0  0  0  0  0  0  0  0  0
    1.6295   -0.9751    0.0202 C   0  0  0  0  0  0  0  0  0  0  0  0
   -0.5843   -0.4187    1.0252 C   0  0  0  0  0  0  0  0  0  0  0  0
    4.4416   -0.1036    1.3383 C   0  0  0  0  0  0  0  0  0  0  0  0
   -2.1037    0.3947   -0.7685 C   0  0  0  0  0  0  0  0  0  0  0  0
   -0.3004    2.7812   -1.0603 C   0  0  0  0  0  0  0  0  0  0  0  0
   -3.4357    0.2969   -0.0481 C   0  0  0  0  0  0  0  0  0  0  0  0
    5.8073   -0.3568    0.7572 C   0  0  0  0  0  0  0  0  0  0  0  0
   -4.5508   -0.1250   -0.9881 C   0  0  0  0  0  0  0  0  0  0  0  0
    6.0100   -1.4370   -0.1018 C   0  0  0  0  0  0  0  0  0  0  0  0
    6.8702    0.4868    1.0801 C   0  0  0  0  0  0  0  0  0  0  0  0
    7.2758   -1.6735   -0.6379 C   0  0  0  0  0  0  0  0  0  0  0  0
    8.1360    0.2502    0.5439 C   0  0  0  0  0  0  0  0  0  0  0  0
    8.3387   -0.8298   -0.3153 C   0  0  0  0  0  0  0  0  0  0  0  0
   -6.9849   -0.5967   -1.0066 C   0  0  0  0  0  0  0  0  0  0  0  0
    9.6921   -1.0834   -0.8885 C   0  0  0  0  0  0  0  0  0  0  0  0
   -8.1708   -0.5838   -0.0790 C   0  0  0  0  0  0  0  0  0  0  0  0
   -9.0736   -1.5473    0.3068 C   0  0  0  0  0  0  0  0  0  0  0  0
   -9.9633   -0.9141    1.2072 C   0  0  0  0  0  0  0  0  0  0  0  0
   -9.5405    0.3911    1.3075 C   0  0  0  0  0  0  0  0  0  0  0  0
    1.1685    2.1879    1.1478 H   0  0  0  0  0  0  0  0  0  0  0  0
    1.9929    0.1965    1.7783 H   0  0  0  0  0  0  0  0  0  0  0  0
    2.5530    2.0487   -1.5588 H   0  0  0  0  0  0  0  0  0  0  0  0
    2.3723    3.4445   -0.4693 H   0  0  0  0  0  0  0  0  0  0  0  0
    3.8274    2.4420    1.1894 H   0  0  0  0  0  0  0  0  0  0  0  0
    4.6532    2.1606   -0.3674 H   0  0  0  0  0  0  0  0  0  0  0  0
   -1.3963    1.5539    0.9178 H   0  0  0  0  0  0  0  0  0  0  0  0
   -1.4424   -1.0291    1.3193 H   0  0  0  0  0  0  0  0  0  0  0  0
   -0.0992   -0.1174    1.9592 H   0  0  0  0  0  0  0  0  0  0  0  0
    4.0553   -1.0804    1.6623 H   0  0  0  0  0  0  0  0  0  0  0  0
    4.5080    0.4931    2.2581 H   0  0  0  0  0  0  0  0  0  0  0  0
   -2.2361    1.0883   -1.6021 H   0  0  0  0  0  0  0  0  0  0  0  0
   -1.8540   -0.5640   -1.2423 H   0  0  0  0  0  0  0  0  0  0  0  0
   -0.0701   -2.1398   -0.1152 H   0  0  0  0  0  0  0  0  0  0  0  0
   -1.2174    2.7435   -1.6507 H   0  0  0  0  0  0  0  0  0  0  0  0
    0.4436    3.1940   -1.7494 H   0  0  0  0  0  0  0  0  0  0  0  0
   -0.4580    3.5039   -0.2510 H   0  0  0  0  0  0  0  0  0  0  0  0
   -3.4046   -0.4296    0.7697 H   0  0  0  0  0  0  0  0  0  0  0  0
   -3.7067    1.2707    0.3779 H   0  0  0  0  0  0  0  0  0  0  0  0
    5.1914   -2.1031   -0.3600 H   0  0  0  0  0  0  0  0  0  0  0  0
    6.7252    1.3325    1.7469 H   0  0  0  0  0  0  0  0  0  0  0  0
    7.4210   -2.5175   -1.3070 H   0  0  0  0  0  0  0  0  0  0  0  0
    8.9557    0.9157    0.8013 H   0  0  0  0  0  0  0  0  0  0  0  0
   -5.8074   -0.0074    0.6650 H   0  0  0  0  0  0  0  0  0  0  0  0
   -7.1520    0.0987   -1.8364 H   0  0  0  0  0  0  0  0  0  0  0  0
   -6.8395   -1.5966   -1.4299 H   0  0  0  0  0  0  0  0  0  0  0  0
   10.4799   -0.7462   -0.2063 H   0  0  0  0  0  0  0  0  0  0  0  0
    9.8021   -0.5540   -1.8401 H   0  0  0  0  0  0  0  0  0  0  0  0
    9.8541   -2.1529   -1.0608 H   0  0  0  0  0  0  0  0  0  0  0  0
   -9.0904   -2.5775   -0.0188 H   0  0  0  0  0  0  0  0  0  0  0  0
  -10.8069   -1.3538    1.7192 H   0  0  0  0  0  0  0  0  0  0  0  0
   -9.8902    1.2497    1.8620 H   0  0  0  0  0  0  0  0  0  0  0  0
  1 13  2  0  0  0  0
  2 20  2  0  0  0  0
  3 28  1  0  0  0  0
  3 31  1  0  0  0  0
  4  9  1  0  0  0  0
  4 11  1  0  0  0  0
  4 15  1  0  0  0  0
  5  8  1  0  0  0  0
  5 12  1  0  0  0  0
  5 17  1  0  0  0  0
  6 13  1  0  0  0  0
  6 14  1  0  0  0  0
  6 45  1  0  0  0  0
  7 20  1  0  0  0  0
  7 26  1  0  0  0  0
  7 55  1  0  0  0  0
  8  9  1  0  0  0  0
  8 10  1  0  0  0  0
  8 32  1  0  0  0  0
  9 13  1  0  0  0  0
  9 33  1  0  0  0  0
 10 11  1  0  0  0  0
 10 34  1  0  0  0  0
 10 35  1  0  0  0  0
 11 36  1  0  0  0  0
 11 37  1  0  0  0  0
 12 14  1  0  0  0  0
 12 16  1  0  0  0  0
 12 38  1  0  0  0  0
 14 39  1  0  0  0  0
 14 40  1  0  0  0  0
 15 19  1  0  0  0  0
 15 41  1  0  0  0  0
 15 42  1  0  0  0  0
 16 18  1  0  0  0  0
 16 43  1  0  0  0  0
 16 44  1  0  0  0  0
 17 46  1  0  0  0  0
 17 47  1  0  0  0  0
 17 48  1  0  0  0  0
 18 20  1  0  0  0  0
 18 49  1  0  0  0  0
 18 50  1  0  0  0  0
 19 21  2  0  0  0  0
 19 22  1  0  0  0  0
 21 23  1  0  0  0  0
 21 51  1  0  0  0  0
 22 24  2  0  0  0  0
 22 52  1  0  0  0  0
 23 25  2  0  0  0  0
 23 53  1  0  0  0  0
 24 25  1  0  0  0  0
 24 54  1  0  0  0  0
 25 27  1  0  0  0  0
 26 28  1  0  0  0  0
 26 56  1  0  0  0  0
 26 57  1  0  0  0  0
 27 58  1  0  0  0  0
 27 59  1  0  0  0  0
 27 60  1  0  0  0  0
 28 29  2  0  0  0  0
 29 30  1  0  0  0  0
 29 61  1  0  0  0  0
 30 31  2  0  0  0  0
 30 62  1  0  0  0  0
 31 63  1  0  0  0  0
M  END
> <PUBCHEM_COMPOUND_CID>
45360850

> <PUBCHEM_CONFORMER_RMSD>
1.2

> <PUBCHEM_CONFORMER_DIVERSEORDER>
2
120
38
93
84
104
80
137
17
42
15
73
133
68
62
11
41
138
36
132
100
20
82
128
87
130
71
110
45
27
119
19
13
117
106
67
76
57
107
98
125
37
99
83
34
72
102
88
40
92
44
79
64
47
59
95
23
122
26
121
4
65
105
63
114
78
123
58
18
51
77
61
129
91
124
136
127
30
7
135
48
9
115
56
118
5
97
60
75
1
126
53
139
85
113
21
35
108
49
66
55
81
8
134
39
90
70
16
33
32
131
52
14
31
94
12
89
24
54
29
46
96
6
22
116
86
25
10
111
28
69
50
103
43
74
112
101
3
109

> <PUBCHEM_MMFF94_PARTIAL_CHARGES>
38
1 -0.57
11 0.27
12 0.27
13 0.57
14 0.3
15 0.41
17 0.27
18 0.06
19 -0.14
2 -0.57
20 0.57
21 -0.15
22 -0.15
23 -0.15
24 -0.15
25 -0.14
26 0.48
27 0.14
28 -0.04
29 -0.15
3 -0.28
30 -0.15
31 -0.01
4 -0.81
45 0.37
5 -0.81
51 0.15
52 0.15
53 0.15
54 0.15
55 0.37
6 -0.73
61 0.15
62 0.15
63 0.15
7 -0.73
8 0.27
9 0.33

> <PUBCHEM_EFFECTIVE_ROTOR_COUNT>
9.4

> <PUBCHEM_PHARMACOPHORE_FEATURES>
11
1 1 acceptor
1 2 acceptor
1 3 acceptor
1 4 cation
1 5 cation
1 6 donor
1 7 donor
5 3 28 29 30 31 rings
5 4 8 9 10 11 rings
6 19 21 22 23 24 25 rings
7 5 6 8 9 12 13 14 rings

> <PUBCHEM_HEAVY_ATOM_COUNT>
31

> <PUBCHEM_ATOM_DEF_STEREO_COUNT>
3

> <PUBCHEM_ATOM_UDEF_STEREO_COUNT>
0

> <PUBCHEM_BOND_DEF_STEREO_COUNT>
0

> <PUBCHEM_BOND_UDEF_STEREO_COUNT>
0

> <PUBCHEM_ISOTOPIC_ATOM_COUNT>
0

> <PUBCHEM_COMPONENT_COUNT>
1

> <PUBCHEM_CACTVS_TAUTO_COUNT>
6

> <PUBCHEM_CONFORMER_ID>
02B426D200000002

> <PUBCHEM_MMFF94_ENERGY>
69.7546

> <PUBCHEM_FEATURE_SELFOVERLAP>
55.858

> <PUBCHEM_SHAPE_FINGERPRINT>
10076449 9 17385443220211026069
10162869 55 13334740132886823598
10533779 1 16844183243468732177
11135609 127 14418145041320023934
11135926 11 18201146703439508391
11443803 9 7853573491568064060
11476731 38 18334580170627445316
12089408 11 16845567651647635637
13617811 41 17967817133459087516
13673619 4 17603298268116591941
14150023 24 12391514183152683269
14251764 46 18409731759334525043
14344974 52 15647342970021711670
15131766 46 15048883279174681920
15461852 350 14779544583120425223
16067689 302 18342459188968427534
17686467 74 14345797158715638807
1818759 1 18409168813860635251
18365409 1 13623825954817807401
19315958 150 16558756706453067079
20105231 36 18334856108399852506
21049683 271 17385439920959108420
21150785 3 14418131811897208787
21267235 1 18335419067169672005
21403212 168 10375868580576281052
21585481 151 18412263965395839623
21781051 124 17603594053491484603
21792961 116 17168144516267144505
232437 2 18411983554763715082
246663 6 17894630357800456793
249057 3 18259983807834251523
3178227 256 18408600374680507955
335352 9 18260831514145556950
395649 100 11314320460157333393
44389302 135 15913044276075821054
4461854 278 18201720669441121223
5283156 175 17418376891364706986
54039377 194 18334858316608531189
5937810 71 11458686298345868951
636775 8 14923951172427846009
9995097 26 15429758380723684977

> <PUBCHEM_SHAPE_MULTIPOLES>
600.43
34.13
1.92
1.23
42.82
0.98
0.12
-16.13
-4.78
-1.57
0.43
0.87
-0.03
0.93

> <PUBCHEM_SHAPE_SELFOVERLAP>
1267.985

> <PUBCHEM_SHAPE_VOLUME>
337.4

> <PUBCHEM_COORDINATE_TYPE>
2
5
10

$$$$
