51137129
  -OEChem-12032416243D

 52 55  0     1  0  0  0  0  0999 V2000
    6.8019    0.8481   -0.5441 S   0  0  0  0  0  0  0  0  0  0  0  0
    1.8266   -2.0090    0.4872 O   0  0  0  0  0  0  0  0  0  0  0  0
    7.8302   -0.0701   -1.0109 O   0  0  0  0  0  0  0  0  0  0  0  0
    6.4415    2.0042   -1.3508 O   0  0  0  0  0  0  0  0  0  0  0  0
   -8.8575    0.2710    0.3677 O   0  0  0  0  0  0  0  0  0  0  0  0
   -2.5816   -0.4578   -0.1994 N   0  0  1  0  0  0  0  0  0  0  0  0
    1.6210    0.2023    0.0349 N   0  0  0  0  0  0  0  0  0  0  0  0
   -0.4649   -1.1798    0.5061 C   0  0  1  0  0  0  0  0  0  0  0  0
   -1.1292   -0.3609    1.6265 C   0  0  0  0  0  0  0  0  0  0  0  0
   -1.2843   -0.8555   -0.7503 C   0  0  0  0  0  0  0  0  0  0  0  0
   -2.2599    0.3972    0.9432 C   0  0  0  0  0  0  0  0  0  0  0  0
    1.0142   -0.9271    0.3263 C   0  0  0  0  0  0  0  0  0  0  0  0
   -3.4174    0.2190   -1.1801 C   0  0  0  0  0  0  0  0  0  0  0  0
   -4.8656    0.2325   -0.7686 C   0  0  0  0  0  0  0  0  0  0  0  0
    2.9479   -0.1521   -0.0024 C   0  0  0  0  0  0  0  0  0  0  0  0
    3.0777   -1.5051    0.2740 C   0  0  0  0  0  0  0  0  0  0  0  0
    4.1026    0.6006   -0.2603 C   0  0  0  0  0  0  0  0  0  0  0  0
   -5.6389   -0.9211   -0.8986 C   0  0  0  0  0  0  0  0  0  0  0  0
   -5.4339    1.3991   -0.2569 C   0  0  0  0  0  0  0  0  0  0  0  0
    5.3401   -0.0583   -0.2255 C   0  0  0  0  0  0  0  0  0  0  0  0
    4.2845   -2.1922    0.3175 C   0  0  0  0  0  0  0  0  0  0  0  0
    5.4266   -1.4269    0.0580 C   0  0  0  0  0  0  0  0  0  0  0  0
   -6.9804   -0.9081   -0.5171 C   0  0  0  0  0  0  0  0  0  0  0  0
   -6.7754    1.4122    0.1247 C   0  0  0  0  0  0  0  0  0  0  0  0
    7.3136    1.4325    1.0550 C   0  0  0  0  0  0  0  0  0  0  0  0
   -7.5488    0.2586   -0.0055 C   0  0  0  0  0  0  0  0  0  0  0  0
    8.5834    2.2493    0.9668 C   0  0  0  0  0  0  0  0  0  0  0  0
   -9.3742    1.4974    0.8826 C   0  0  0  0  0  0  0  0  0  0  0  0
   -0.6023   -2.2435    0.7476 H   0  0  0  0  0  0  0  0  0  0  0  0
   -1.5365   -1.0432    2.3831 H   0  0  0  0  0  0  0  0  0  0  0  0
   -0.4395    0.3229    2.1325 H   0  0  0  0  0  0  0  0  0  0  0  0
   -0.8266   -0.0400   -1.3262 H   0  0  0  0  0  0  0  0  0  0  0  0
   -1.3716   -1.7301   -1.4041 H   0  0  0  0  0  0  0  0  0  0  0  0
   -3.1081    0.5313    1.6218 H   0  0  0  0  0  0  0  0  0  0  0  0
   -1.9021    1.3859    0.6281 H   0  0  0  0  0  0  0  0  0  0  0  0
   -3.0606    1.2351   -1.3969 H   0  0  0  0  0  0  0  0  0  0  0  0
   -3.3674   -0.3123   -2.1412 H   0  0  0  0  0  0  0  0  0  0  0  0
    4.0227    1.6615   -0.4718 H   0  0  0  0  0  0  0  0  0  0  0  0
   -5.2076   -1.8362   -1.2958 H   0  0  0  0  0  0  0  0  0  0  0  0
   -4.8410    2.3037   -0.1492 H   0  0  0  0  0  0  0  0  0  0  0  0
    4.3405   -3.2505    0.5393 H   0  0  0  0  0  0  0  0  0  0  0  0
    6.3923   -1.9261    0.0894 H   0  0  0  0  0  0  0  0  0  0  0  0
   -7.5778   -1.8098   -0.6205 H   0  0  0  0  0  0  0  0  0  0  0  0
   -7.1525    2.3514    0.5147 H   0  0  0  0  0  0  0  0  0  0  0  0
    7.4673    0.5591    1.6959 H   0  0  0  0  0  0  0  0  0  0  0  0
    6.4996    2.0384    1.4642 H   0  0  0  0  0  0  0  0  0  0  0  0
    8.8790    2.6012    1.9599 H   0  0  0  0  0  0  0  0  0  0  0  0
    8.4478    3.1238    0.3225 H   0  0  0  0  0  0  0  0  0  0  0  0
    9.4079    1.6575    0.5566 H   0  0  0  0  0  0  0  0  0  0  0  0
   -8.8723    1.7866    1.8123 H   0  0  0  0  0  0  0  0  0  0  0  0
   -9.3461    2.2932    0.1306 H   0  0  0  0  0  0  0  0  0  0  0  0
  -10.4275    1.3266    1.1279 H   0  0  0  0  0  0  0  0  0  0  0  0
  1  3  2  0  0  0  0
  1  4  2  0  0  0  0
  1 20  1  0  0  0  0
  1 25  1  0  0  0  0
  2 12  1  0  0  0  0
  2 16  1  0  0  0  0
  5 26  1  0  0  0  0
  5 28  1  0  0  0  0
  6 10  1  0  0  0  0
  6 11  1  0  0  0  0
  6 13  1  0  0  0  0
  7 12  2  0  0  0  0
  7 15  1  0  0  0  0
  8  9  1  0  0  0  0
  8 10  1  0  0  0  0
  8 12  1  0  0  0  0
  8 29  1  0  0  0  0
  9 11  1  0  0  0  0
  9 30  1  0  0  0  0
  9 31  1  0  0  0  0
 10 32  1  0  0  0  0
 10 33  1  0  0  0  0
 11 34  1  0  0  0  0
 11 35  1  0  0  0  0
 13 14  1  0  0  0  0
 13 36  1  0  0  0  0
 13 37  1  0  0  0  0
 14 18  2  0  0  0  0
 14 19  1  0  0  0  0
 15 16  2  0  0  0  0
 15 17  1  0  0  0  0
 16 21  1  0  0  0  0
 17 20  2  0  0  0  0
 17 38  1  0  0  0  0
 18 23  1  0  0  0  0
 18 39  1  0  0  0  0
 19 24  2  0  0  0  0
 19 40  1  0  0  0  0
 20 22  1  0  0  0  0
 21 22  2  0  0  0  0
 21 41  1  0  0  0  0
 22 42  1  0  0  0  0
 23 26  2  0  0  0  0
 23 43  1  0  0  0  0
 24 26  1  0  0  0  0
 24 44  1  0  0  0  0
 25 27  1  0  0  0  0
 25 45  1  0  0  0  0
 25 46  1  0  0  0  0
 27 47  1  0  0  0  0
 27 48  1  0  0  0  0
 27 49  1  0  0  0  0
 28 50  1  0  0  0  0
 28 51  1  0  0  0  0
 28 52  1  0  0  0  0
M  END
> <PUBCHEM_COMPOUND_CID>
51137129

> <PUBCHEM_CONFORMER_RMSD>
0.8

> <PUBCHEM_CONFORMER_DIVERSEORDER>
1
172
25
202
173
19
167
151
188
189
182
50
111
88
49
140
175
165
210
137
197
41
60
105
27
163
55
166
84
183
15
112
39
212
200
164
136
29
192
110
87
108
144
91
152
208
52
145
103
154
134
30
102
162
146
186
69
121
73
45
32
139
184
76
203
153
180
157
62
196
204
142
42
131
22
9
132
24
193
99
185
201
119
3
179
64
106
169
86
21
209
156
95
31
26
199
93
187
113
195
16
126
190
130
63
191
170
135
109
17
177
150
4
97
23
155
198
58
120
138
211
37
65
115
174
75
56
78
44
96
147
143
116
171
83
117
59
13
122
20
161
158
194
74
127
2
80
28
123
18
160
77
92
107
114
89
168
5
66
38
207
54
34
98
7
176
205
72
33
11
159
118
8
141
53
104
178
35
40
206
100
79
61
48
6
82
128
101
46
57
81
148
51
133
43
85
14
67
12
71
10
70
90
124
94
36
149
181
129
47
68
125

> <PUBCHEM_MMFF94_PARTIAL_CHARGES>
33
1 1.2
10 0.27
11 0.27
12 0.3
13 0.41
14 -0.14
15 0.23
16 0.14
17 -0.15
18 -0.15
19 -0.15
2 -0.28
20 -0.01
21 -0.15
22 -0.15
23 -0.15
24 -0.15
25 0.11
26 0.08
28 0.28
3 -0.65
38 0.15
39 0.15
4 -0.65
40 0.15
41 0.15
42 0.15
43 0.15
44 0.15
5 -0.36
6 -0.81
7 -0.57
8 0.18

> <PUBCHEM_EFFECTIVE_ROTOR_COUNT>
7

> <PUBCHEM_PHARMACOPHORE_FEATURES>
8
1 3 acceptor
1 4 acceptor
1 5 acceptor
1 6 cation
5 2 7 12 15 16 rings
5 6 8 9 10 11 rings
6 14 18 19 23 24 26 rings
6 15 16 17 20 21 22 rings

> <PUBCHEM_HEAVY_ATOM_COUNT>
28

> <PUBCHEM_ATOM_DEF_STEREO_COUNT>
1

> <PUBCHEM_ATOM_UDEF_STEREO_COUNT>
0

> <PUBCHEM_BOND_DEF_STEREO_COUNT>
0

> <PUBCHEM_BOND_UDEF_STEREO_COUNT>
0

> <PUBCHEM_ISOTOPIC_ATOM_COUNT>
0

> <PUBCHEM_COMPONENT_COUNT>
1

> <PUBCHEM_CACTVS_TAUTO_COUNT>
1

> <PUBCHEM_CONFORMER_ID>
030C4A6900000001

> <PUBCHEM_MMFF94_ENERGY>
57.5167

> <PUBCHEM_FEATURE_SELFOVERLAP>
40.733

> <PUBCHEM_SHAPE_FINGERPRINT>
10 15 16008751325084780196
10299344 5 18342455929298564023
10319688 67 15719392862550613233
10369192 42 18272086081161006645
10411042 1 17756983412512892082
10595046 47 18337951195451557211
106641 1 14779271920836247015
10666366 153 11167949047459167771
10883706 142 17822007614237375530
11135609 187 18341892982838464811
11181472 205 17345766174627666419
11315181 36 18411136923607269365
11638347 137 14418128504983660536
12013929 94 18410857699431480891
12089408 11 18202280282768636679
12236239 1 18271803497460675799
12539745 222 12540955384494932798
12592606 108 8935001473129031569
14117953 113 13542462068534595313
14216079 64 11312059837683658364
14251764 18 18040713671046486023
14849402 71 18334017224452390317
14856354 85 17775283877296875271
14933364 13 18410855443581347471
15183329 4 17131834257309235411
15301273 46 11530753804629361824
1577012 14 18272080596087271263
15840311 113 18410578388453253348
16994733 274 18260827056096565969
1754911 235 18131632291831974277
18335252 98 18334299786208573611
18608769 82 18187928417261979747
19302320 297 17749390416944097740
195137 175 17917717890017774977
20105231 36 15913328005651457023
20156587 128 15984558749971324656
20157964 124 18260547806060431858
20505436 4 18343576348057686198
20771845 140 13334730254857929008
21033648 29 17969218001377561728
21095123 293 18059863810167342601
21150785 3 18201720656249386403
21521721 280 18187085040378039635
21795232 338 18340772650396427419
22224240 67 16805042917449901779
23516275 137 18128274311109266371
23559900 14 15769481140819105946
23576562 1 16772649170888094781
2747138 104 16877955901928391133
28498 318 11455891351917738571
3092352 35 18342457032868185159
3146122 72 15912470459844195312
34797466 226 18411141298802701910
3711267 37 18202012023169673129
4073 2 18041284339209963971
4093350 32 18272088275979381054
4149490 64 18187083927739456450
4325135 7 18408041797900358935
445580 126 18260540139675411136
5265222 85 18273212023939205959
5283156 175 17203611454602760662
5470011 282 16702024197271625644
5758199 1 18260547818739501603
59682541 35 17022911151263371985
6081469 158 13758358851633372137

> <PUBCHEM_SHAPE_MULTIPOLES>
546.64
29.88
1.91
1.1
15.91
0.13
-0.04
16.76
-0.11
-2.65
-0.26
-0.26
0.18
-0.66

> <PUBCHEM_SHAPE_SELFOVERLAP>
1167.893

> <PUBCHEM_SHAPE_VOLUME>
307.5

> <PUBCHEM_COORDINATE_TYPE>
2
5
10

$$$$
