71693657
  -OEChem-12032416233D

 48 49  0     1  0  0  0  0  0999 V2000
   -4.1999    0.7609   -0.3805 S   0  0  0  0  0  0  0  0  0  0  0  0
    3.2365    1.4317    0.6307 O   0  0  0  0  0  0  0  0  0  0  0  0
    2.6543   -1.5743   -2.1612 O   0  0  0  0  0  0  0  0  0  0  0  0
    6.4502   -0.1058    0.5853 O   0  0  0  0  0  0  0  0  0  0  0  0
   -5.5019    1.3961   -0.2996 O   0  0  0  0  0  0  0  0  0  0  0  0
   -3.6915    0.2818   -1.6506 O   0  0  0  0  0  0  0  0  0  0  0  0
    4.3652   -1.0621    0.1709 N   0  0  0  0  0  0  0  0  0  0  0  0
   -3.0491    1.7773    0.3995 N   0  0  0  0  0  0  0  0  0  0  0  0
    2.8930   -0.8891    0.1151 C   0  0  1  0  0  0  0  0  0  0  0  0
    2.5157    0.5615   -0.2428 C   0  0  1  0  0  0  0  0  0  0  0  0
    1.0452    0.8817   -0.0732 C   0  0  0  0  0  0  0  0  0  0  0  0
    2.2212   -1.8758   -0.8506 C   0  0  0  0  0  0  0  0  0  0  0  0
    4.6159    1.3869    0.3553 C   0  0  0  0  0  0  0  0  0  0  0  0
    5.2354    0.0044    0.4048 C   0  0  0  0  0  0  0  0  0  0  0  0
    4.8959   -2.4217    0.2224 C   0  0  0  0  0  0  0  0  0  0  0  0
    0.4241    0.6776    1.1590 C   0  0  0  0  0  0  0  0  0  0  0  0
    0.3119    1.3818   -1.1493 C   0  0  0  0  0  0  0  0  0  0  0  0
   -5.4828   -1.4715    0.6178 C   0  0  0  0  0  0  0  0  0  0  0  0
   -4.2242   -0.6118    0.7506 C   0  0  0  0  0  0  0  0  0  0  0  0
   -1.6630    1.4739    0.2390 C   0  0  0  0  0  0  0  0  0  0  0  0
   -0.9299    0.9737    1.3152 C   0  0  0  0  0  0  0  0  0  0  0  0
   -1.0420    1.6780   -0.9933 C   0  0  0  0  0  0  0  0  0  0  0  0
   -5.5750   -2.0405   -0.7992 C   0  0  0  0  0  0  0  0  0  0  0  0
   -5.5052   -2.6146    1.6344 C   0  0  0  0  0  0  0  0  0  0  0  0
    2.5619   -1.1236    1.1346 H   0  0  0  0  0  0  0  0  0  0  0  0
    2.8162    0.7949   -1.2737 H   0  0  0  0  0  0  0  0  0  0  0  0
    1.1308   -1.7853   -0.8140 H   0  0  0  0  0  0  0  0  0  0  0  0
    2.4674   -2.9166   -0.6214 H   0  0  0  0  0  0  0  0  0  0  0  0
    5.1193    2.0093    1.1024 H   0  0  0  0  0  0  0  0  0  0  0  0
    4.8142    1.8230   -0.6306 H   0  0  0  0  0  0  0  0  0  0  0  0
    4.3664   -2.9818    0.9987 H   0  0  0  0  0  0  0  0  0  0  0  0
    5.9639   -2.4305    0.4558 H   0  0  0  0  0  0  0  0  0  0  0  0
    4.7572   -2.8999   -0.7506 H   0  0  0  0  0  0  0  0  0  0  0  0
   -6.3706   -0.8523    0.7957 H   0  0  0  0  0  0  0  0  0  0  0  0
   -3.3137   -1.1979    0.5878 H   0  0  0  0  0  0  0  0  0  0  0  0
   -4.1917   -0.1916    1.7621 H   0  0  0  0  0  0  0  0  0  0  0  0
    0.9790    0.3000    2.0132 H   0  0  0  0  0  0  0  0  0  0  0  0
    0.7822    1.5481   -2.1147 H   0  0  0  0  0  0  0  0  0  0  0  0
   -1.4032    0.8120    2.2803 H   0  0  0  0  0  0  0  0  0  0  0  0
   -1.5966    2.0789   -1.8376 H   0  0  0  0  0  0  0  0  0  0  0  0
   -3.3034    2.0783    1.3500 H   0  0  0  0  0  0  0  0  0  0  0  0
   -5.7965   -1.2661   -1.5389 H   0  0  0  0  0  0  0  0  0  0  0  0
   -6.3886   -2.7718   -0.8669 H   0  0  0  0  0  0  0  0  0  0  0  0
   -4.6491   -2.5481   -1.0904 H   0  0  0  0  0  0  0  0  0  0  0  0
   -6.4255   -3.2012    1.5440 H   0  0  0  0  0  0  0  0  0  0  0  0
   -5.4568   -2.2228    2.6558 H   0  0  0  0  0  0  0  0  0  0  0  0
   -4.6551   -3.2899    1.4901 H   0  0  0  0  0  0  0  0  0  0  0  0
    2.2128   -2.1992   -2.7611 H   0  0  0  0  0  0  0  0  0  0  0  0
  1  5  2  0  0  0  0
  1  6  2  0  0  0  0
  1  8  1  0  0  0  0
  1 19  1  0  0  0  0
  2 10  1  0  0  0  0
  2 13  1  0  0  0  0
  3 12  1  0  0  0  0
  3 48  1  0  0  0  0
  4 14  2  0  0  0  0
  7  9  1  0  0  0  0
  7 14  1  0  0  0  0
  7 15  1  0  0  0  0
  8 20  1  0  0  0  0
  8 41  1  0  0  0  0
  9 10  1  0  0  0  0
  9 12  1  0  0  0  0
  9 25  1  0  0  0  0
 10 11  1  0  0  0  0
 10 26  1  0  0  0  0
 11 16  2  0  0  0  0
 11 17  1  0  0  0  0
 12 27  1  0  0  0  0
 12 28  1  0  0  0  0
 13 14  1  0  0  0  0
 13 29  1  0  0  0  0
 13 30  1  0  0  0  0
 15 31  1  0  0  0  0
 15 32  1  0  0  0  0
 15 33  1  0  0  0  0
 16 21  1  0  0  0  0
 16 37  1  0  0  0  0
 17 22  2  0  0  0  0
 17 38  1  0  0  0  0
 18 19  1  0  0  0  0
 18 23  1  0  0  0  0
 18 24  1  0  0  0  0
 18 34  1  0  0  0  0
 19 35  1  0  0  0  0
 19 36  1  0  0  0  0
 20 21  2  0  0  0  0
 20 22  1  0  0  0  0
 21 39  1  0  0  0  0
 22 40  1  0  0  0  0
 23 42  1  0  0  0  0
 23 43  1  0  0  0  0
 23 44  1  0  0  0  0
 24 45  1  0  0  0  0
 24 46  1  0  0  0  0
 24 47  1  0  0  0  0
M  END
> <PUBCHEM_COMPOUND_CID>
71693657

> <PUBCHEM_CONFORMER_RMSD>
0.8

> <PUBCHEM_CONFORMER_DIVERSEORDER>
1
55
89
182
160
185
61
174
42
32
112
90
77
126
88
240
243
139
213
210
194
237
65
192
149
51
159
131
227
220
186
142
205
157
236
161
216
30
196
14
143
208
83
10
70
20
230
165
153
105
9
156
214
57
175
222
19
81
233
197
67
123
122
183
124
239
242
128
41
104
202
137
109
154
107
27
238
43
187
190
150
207
111
13
119
169
53
229
163
8
96
218
178
221
7
235
167
162
181
102
132
22
211
158
234
195
36
168
135
4
152
114
129
199
28
93
58
45
134
206
219
200
179
151
170
92
117
17
39
241
118
86
228
144
82
121
50
138
52
73
15
204
5
189
191
209
106
177
176
21
108
125
141
24
29
16
100
25
224
217
56
12
62
68
59
74
203
113
140
2
184
71
212
166
38
35
223
6
148
171
79
69
172
75
226
164
232
198
201
133
18
95
85
34
78
193
44
31
115
72
94
110
48
130
231
103
66
120
80
3
215
63
99
47
225
155
98
173
60
76
97
54
11
87
49
40
146
180
116
147
64
26
101
91
145
84
23
188
37
33
136
127
46

> <PUBCHEM_MMFF94_PARTIAL_CHARGES>
27
1 1.33
10 0.42
11 -0.14
12 0.28
13 0.34
14 0.57
15 0.3
16 -0.15
17 -0.15
19 0.11
2 -0.56
20 0.2
21 -0.15
22 -0.15
3 -0.68
37 0.15
38 0.15
39 0.15
4 -0.57
40 0.15
41 0.42
48 0.4
5 -0.65
6 -0.65
7 -0.66
8 -0.76
9 0.3

> <PUBCHEM_EFFECTIVE_ROTOR_COUNT>
7

> <PUBCHEM_PHARMACOPHORE_FEATURES>
10
1 2 acceptor
1 3 acceptor
1 3 donor
1 4 acceptor
1 5 acceptor
1 6 acceptor
1 8 donor
3 18 23 24 hydrophobe
6 11 16 17 20 21 22 rings
6 2 7 9 10 13 14 rings

> <PUBCHEM_HEAVY_ATOM_COUNT>
24

> <PUBCHEM_ATOM_DEF_STEREO_COUNT>
2

> <PUBCHEM_ATOM_UDEF_STEREO_COUNT>
0

> <PUBCHEM_BOND_DEF_STEREO_COUNT>
0

> <PUBCHEM_BOND_UDEF_STEREO_COUNT>
0

> <PUBCHEM_ISOTOPIC_ATOM_COUNT>
0

> <PUBCHEM_COMPONENT_COUNT>
1

> <PUBCHEM_CACTVS_TAUTO_COUNT>
2

> <PUBCHEM_CONFORMER_ID>
0445F55900000001

> <PUBCHEM_MMFF94_ENERGY>
61.0108

> <PUBCHEM_FEATURE_SELFOVERLAP>
50.765

> <PUBCHEM_SHAPE_FINGERPRINT>
11089746 13 9007065625777180073
11135609 99 18337669703670322698
11578080 2 13913464882932404822
11796584 16 18340486673581054187
11828532 37 17027420428991613547
11963148 33 18261105271409876978
12236239 1 17346311562855914256
12403259 415 8646763387795639519
12596602 18 15984824891276524299
12633257 1 16486974037882934733
13103583 49 17274550940047100931
13402501 40 18337957887026968123
13544653 18 18343586239683164889
13583140 156 17632289052124233297
13782708 43 18041840602616190962
13911882 115 18201728340120335862
14211702 104 18409174311271399539
14251751 18 18335425673008649787
14341114 328 17060615586142682964
146900 427 17203325675820776672
14950920 106 17059777857668179979
15183329 4 16950274122612508651
15209294 21 12103846748395618841
15510800 12 18335711589298692211
15537594 2 17418375809280881559
17349148 13 16081090342227813396
19377110 9 17489593367570954000
193927 3 18411430513890371015
200 152 18272365339444449120
20281389 69 10159697997301090907
21054139 6 17603863425060464362
21197605 99 18270120257076029470
21623969 137 18202568392768394623
22393880 68 17967805003817289579
23379529 103 17751934755364298899
23402539 116 17749105578052782629
23424784 1240 18341908363232772831
23559900 14 18411128139460971121
25122255 55 18335427850261799835
26918003 58 18343017766375518081
314194 84 18060129951244921445
329604 57 18261960742572965251
4073 2 18335141977127438193
4340502 62 18060136561653361516
439807 62 18260832622643187347
465052 167 18341612590984432950
5104073 3 18129942274125546376
5718773 13 18114736028778167010
6431902 208 18337670914560638067
7495541 125 18059851800673670824
7970288 3 18048036561177106171
9862886 166 18041281062170652275

> <PUBCHEM_SHAPE_MULTIPOLES>
458.45
15.12
2.55
1.35
3.22
1.22
-0.31
8.13
2.11
1.38
0.02
0.64
0.31
1.41

> <PUBCHEM_SHAPE_SELFOVERLAP>
930.227

> <PUBCHEM_SHAPE_VOLUME>
268.8

> <PUBCHEM_COORDINATE_TYPE>
2
5
10

$$$$
