51136913
  -OEChem-12032416223D

 48 52  0     1  0  0  0  0  0999 V2000
   -2.3061   -0.4195    2.0190 O   0  0  0  0  0  0  0  0  0  0  0  0
   -4.3481   -0.8143   -0.8134 N   0  0  1  0  0  0  0  0  0  0  0  0
   -1.3643   -1.1359    0.1173 N   0  0  0  0  0  0  0  0  0  0  0  0
   -0.9404   -0.1277    2.1267 N   0  0  0  0  0  0  0  0  0  0  0  0
   -2.8604    3.3328    0.8252 N   0  0  0  0  0  0  0  0  0  0  0  0
    3.1747    0.1892    1.2422 N   0  0  0  0  0  0  0  0  0  0  0  0
    6.8448    0.1220   -1.7307 N   0  0  0  0  0  0  0  0  0  0  0  0
    7.2711   -0.0498    0.6348 N   0  0  0  0  0  0  0  0  0  0  0  0
   -3.8799   -1.4288    0.4449 C   0  0  1  0  0  0  0  0  0  0  0  0
   -4.0099   -2.9453    0.2117 C   0  0  0  0  0  0  0  0  0  0  0  0
   -4.6152   -3.0836   -1.1780 C   0  0  0  0  0  0  0  0  0  0  0  0
   -5.3046   -1.7526   -1.4008 C   0  0  0  0  0  0  0  0  0  0  0  0
   -4.9246    0.5108   -0.6259 C   0  0  0  0  0  0  0  0  0  0  0  0
   -2.4699   -1.0118    0.8071 C   0  0  0  0  0  0  0  0  0  0  0  0
   -3.8633    1.5701   -0.4909 C   0  0  0  0  0  0  0  0  0  0  0  0
   -0.4532   -0.5796    0.9672 C   0  0  0  0  0  0  0  0  0  0  0  0
   -2.9283    1.7804   -1.4985 C   0  0  0  0  0  0  0  0  0  0  0  0
   -3.7870    2.3657    0.6409 C   0  0  0  0  0  0  0  0  0  0  0  0
    0.9378   -0.4920    0.6282 C   0  0  0  0  0  0  0  0  0  0  0  0
   -1.9595    2.7661   -1.3456 C   0  0  0  0  0  0  0  0  0  0  0  0
   -1.9685    3.5082   -0.1756 C   0  0  0  0  0  0  0  0  0  0  0  0
    1.4104   -0.9744   -0.5874 C   0  0  0  0  0  0  0  0  0  0  0  0
    1.8524    0.0757    1.5004 C   0  0  0  0  0  0  0  0  0  0  0  0
    2.7641   -0.8756   -0.8891 C   0  0  0  0  0  0  0  0  0  0  0  0
    3.5972   -0.2908    0.0510 C   0  0  0  0  0  0  0  0  0  0  0  0
    5.0135   -0.1552   -0.1935 C   0  0  0  0  0  0  0  0  0  0  0  0
    5.5280   -0.0046   -1.4650 C   0  0  0  0  0  0  0  0  0  0  0  0
    5.9413   -0.1711    0.8279 C   0  0  0  0  0  0  0  0  0  0  0  0
    7.6480    0.0914   -0.6502 C   0  0  0  0  0  0  0  0  0  0  0  0
   -4.5487   -1.1685    1.2776 H   0  0  0  0  0  0  0  0  0  0  0  0
   -4.6953   -3.3741    0.9531 H   0  0  0  0  0  0  0  0  0  0  0  0
   -3.0617   -3.4896    0.2792 H   0  0  0  0  0  0  0  0  0  0  0  0
   -5.3046   -3.9302   -1.2467 H   0  0  0  0  0  0  0  0  0  0  0  0
   -3.8190   -3.2308   -1.9182 H   0  0  0  0  0  0  0  0  0  0  0  0
   -5.4716   -1.5596   -2.4650 H   0  0  0  0  0  0  0  0  0  0  0  0
   -6.2692   -1.7315   -0.8779 H   0  0  0  0  0  0  0  0  0  0  0  0
   -5.5183    0.7878   -1.5084 H   0  0  0  0  0  0  0  0  0  0  0  0
   -5.6242    0.5351    0.2199 H   0  0  0  0  0  0  0  0  0  0  0  0
   -2.9451    1.1869   -2.4085 H   0  0  0  0  0  0  0  0  0  0  0  0
   -4.4863    2.2489    1.4630 H   0  0  0  0  0  0  0  0  0  0  0  0
   -1.2206    2.9474   -2.1177 H   0  0  0  0  0  0  0  0  0  0  0  0
   -1.2335    4.2884   -0.0074 H   0  0  0  0  0  0  0  0  0  0  0  0
    0.7478   -1.4350   -1.3156 H   0  0  0  0  0  0  0  0  0  0  0  0
    1.5651    0.4758    2.4682 H   0  0  0  0  0  0  0  0  0  0  0  0
    3.1210   -1.2743   -1.8327 H   0  0  0  0  0  0  0  0  0  0  0  0
    4.9028    0.0441   -2.3509 H   0  0  0  0  0  0  0  0  0  0  0  0
    5.6575   -0.2932    1.8690 H   0  0  0  0  0  0  0  0  0  0  0  0
    8.7106    0.1909   -0.8345 H   0  0  0  0  0  0  0  0  0  0  0  0
  1  4  1  0  0  0  0
  1 14  1  0  0  0  0
  2  9  1  0  0  0  0
  2 12  1  0  0  0  0
  2 13  1  0  0  0  0
  3 14  2  0  0  0  0
  3 16  1  0  0  0  0
  4 16  2  0  0  0  0
  5 18  1  0  0  0  0
  5 21  2  0  0  0  0
  6 23  1  0  0  0  0
  6 25  2  0  0  0  0
  7 27  2  0  0  0  0
  7 29  1  0  0  0  0
  8 28  1  0  0  0  0
  8 29  2  0  0  0  0
  9 10  1  0  0  0  0
  9 14  1  0  0  0  0
  9 30  1  0  0  0  0
 10 11  1  0  0  0  0
 10 31  1  0  0  0  0
 10 32  1  0  0  0  0
 11 12  1  0  0  0  0
 11 33  1  0  0  0  0
 11 34  1  0  0  0  0
 12 35  1  0  0  0  0
 12 36  1  0  0  0  0
 13 15  1  0  0  0  0
 13 37  1  0  0  0  0
 13 38  1  0  0  0  0
 15 17  1  0  0  0  0
 15 18  2  0  0  0  0
 16 19  1  0  0  0  0
 17 20  2  0  0  0  0
 17 39  1  0  0  0  0
 18 40  1  0  0  0  0
 19 22  1  0  0  0  0
 19 23  2  0  0  0  0
 20 21  1  0  0  0  0
 20 41  1  0  0  0  0
 21 42  1  0  0  0  0
 22 24  2  0  0  0  0
 22 43  1  0  0  0  0
 23 44  1  0  0  0  0
 24 25  1  0  0  0  0
 24 45  1  0  0  0  0
 25 26  1  0  0  0  0
 26 27  1  0  0  0  0
 26 28  2  0  0  0  0
 27 46  1  0  0  0  0
 28 47  1  0  0  0  0
 29 48  1  0  0  0  0
M  END
> <PUBCHEM_COMPOUND_CID>
51136913

> <PUBCHEM_CONFORMER_RMSD>
0.8

> <PUBCHEM_CONFORMER_DIVERSEORDER>
1
42
46
117
36
74
127
21
128
124
12
78
32
96
119
25
24
47
58
116
129
33
85
112
48
29
122
108
22
72
63
14
125
77
11
115
66
76
91
18
7
82
130
105
54
34
67
5
81
84
95
26
15
121
19
97
98
65
93
92
4
9
101
132
104
3
73
53
87
6
68
131
8
16
71
88
123
56
45
51
28
118
102
113
79
20
103
64
62
109
75
55
10
61
13
2
37
120
110
94
99
126
106
80
69
35
59
70
31
38
111
60
52
50
49
23
27
44
89
90
30
57
100
17
41
107
40
83
86
39
114
43

> <PUBCHEM_MMFF94_PARTIAL_CHARGES>
36
1 -0.02
12 0.27
13 0.41
14 0.3
15 -0.14
16 0.46
17 -0.15
18 0.16
19 0.05
2 -0.81
20 -0.15
21 0.16
22 -0.15
23 0.16
24 -0.15
25 0.31
27 0.16
28 0.16
29 0.47
3 -0.57
39 0.15
4 -0.41
40 0.15
41 0.15
42 0.15
43 0.15
44 0.15
45 0.15
46 0.15
47 0.15
48 0.15
5 -0.62
6 -0.62
7 -0.62
8 -0.62
9 0.45

> <PUBCHEM_EFFECTIVE_ROTOR_COUNT>
6

> <PUBCHEM_PHARMACOPHORE_FEATURES>
11
1 2 cation
1 5 acceptor
1 6 acceptor
1 7 acceptor
3 3 4 16 cation
3 7 8 29 cation
5 1 3 4 14 16 rings
5 2 9 10 11 12 rings
6 5 15 17 18 20 21 rings
6 6 19 22 23 24 25 rings
6 7 8 26 27 28 29 rings

> <PUBCHEM_HEAVY_ATOM_COUNT>
29

> <PUBCHEM_ATOM_DEF_STEREO_COUNT>
1

> <PUBCHEM_ATOM_UDEF_STEREO_COUNT>
0

> <PUBCHEM_BOND_DEF_STEREO_COUNT>
0

> <PUBCHEM_BOND_UDEF_STEREO_COUNT>
0

> <PUBCHEM_ISOTOPIC_ATOM_COUNT>
0

> <PUBCHEM_COMPONENT_COUNT>
1

> <PUBCHEM_CACTVS_TAUTO_COUNT>
1

> <PUBCHEM_CONFORMER_ID>
030C499100000001

> <PUBCHEM_MMFF94_ENERGY>
68.2955

> <PUBCHEM_FEATURE_SELFOVERLAP>
55.824

> <PUBCHEM_SHAPE_FINGERPRINT>
10 15 12396301487171396574
10087517 78 18186802457057160404
10165383 225 18130511821829294089
10291535 26 18260555506619945041
10454371 7 18409454678531624460
10670039 82 18260545624010979356
11101153 10 18263650730731931908
11315181 36 17385728032224357830
11477941 20 18409722997664896108
11578080 2 18055934103114586030
12107698 1 18334855056480544212
12788726 201 18260817194999081043
12988421 55 9366533407891307255
13673619 4 17917429895170159795
13782708 43 18060420248654722438
13947920 75 18187078455828859255
14068700 675 18334853973800645741
14713325 29 18341333310403837527
14856354 85 18335986470809507607
15183329 4 17821729412848748278
15324884 4 17840558695487664883
15419008 47 18131627911250455320
15461852 350 18412827998039098806
15876981 60 18260834834223706541
16992828 155 17532647923844307141
17686467 74 18264203802497520512
17780758 139 10231751184850370183
17913733 40 13623530130661503672
17980427 23 17676781915396812190
19489759 90 18333167275803412122
20771845 65 17771909609271508947
20775438 99 16897340609723059495
21033650 10 18190482479757339838
21236236 1 18260267430220575292
21927370 108 18115319972547028971
23081809 10 17967814947273332258
23557571 272 18413384346073962895
23559900 14 17489582406899245994
249057 25 17822009814146847924
255183 451 17906729564416418119
3610482 184 18187941520959442604
4169191 19 16444206360304960476
469060 322 17605015670961585865
497634 4 17703518743722751475
531348 171 18340207375773681958
6608658 132 18113614564865386252
7237137 82 18409729551805672416

> <PUBCHEM_SHAPE_MULTIPOLES>
556.07
16.97
3.12
1.64
33.15
1.87
0.17
-3.13
-5.64
-7.63
-0.61
0.09
0
-0.55

> <PUBCHEM_SHAPE_SELFOVERLAP>
1230.494

> <PUBCHEM_SHAPE_VOLUME>
295.9

> <PUBCHEM_COORDINATE_TYPE>
2
5
10

$$$$
