51136860
  -OEChem-12032416223D

 59 63  0     1  0  0  0  0  0999 V2000
   -4.1881   -3.7238   -0.5648 O   0  0  0  0  0  0  0  0  0  0  0  0
   -2.3456    2.0128   -1.6615 O   0  0  0  0  0  0  0  0  0  0  0  0
   -4.3945    0.2350    0.8177 N   0  0  1  0  0  0  0  0  0  0  0  0
   -1.5693    0.9019    0.1218 N   0  0  0  0  0  0  0  0  0  0  0  0
    4.7553   -0.0840    0.1230 N   0  0  0  0  0  0  0  0  0  0  0  0
    7.5528   -0.5415    0.4751 N   0  0  0  0  0  0  0  0  0  0  0  0
   -0.9618    1.8985   -1.8459 N   0  0  0  0  0  0  0  0  0  0  0  0
    3.0975    0.9241   -1.2330 N   0  0  0  0  0  0  0  0  0  0  0  0
   -4.7398   -0.9698    0.0670 C   0  0  0  0  0  0  0  0  0  0  0  0
   -4.0708    1.3870   -0.0473 C   0  0  1  0  0  0  0  0  0  0  0  0
   -5.4831    0.6687    1.6936 C   0  0  0  0  0  0  0  0  0  0  0  0
   -4.4538    2.6229    0.7876 C   0  0  0  0  0  0  0  0  0  0  0  0
   -5.0389    2.0656    2.0775 C   0  0  0  0  0  0  0  0  0  0  0  0
   -3.5749   -1.3877   -0.8347 C   0  0  0  0  0  0  0  0  0  0  0  0
   -5.1116   -2.1190    1.0093 C   0  0  0  0  0  0  0  0  0  0  0  0
   -2.6196    1.4006   -0.4798 C   0  0  0  0  0  0  0  0  0  0  0  0
   -3.8867   -2.7111   -1.5248 C   0  0  0  0  0  0  0  0  0  0  0  0
   -5.3383   -3.4017    0.2170 C   0  0  0  0  0  0  0  0  0  0  0  0
   -0.5761    1.2319   -0.7538 C   0  0  0  0  0  0  0  0  0  0  0  0
    5.6141   -0.3265   -1.0430 C   0  0  0  0  0  0  0  0  0  0  0  0
    5.4370    0.4204    1.3190 C   0  0  0  0  0  0  0  0  0  0  0  0
    6.8350   -1.1598   -0.6465 C   0  0  0  0  0  0  0  0  0  0  0  0
    6.6647   -0.4362    1.6390 C   0  0  0  0  0  0  0  0  0  0  0  0
    0.7918    0.8822   -0.5070 C   0  0  0  0  0  0  0  0  0  0  0  0
    3.4157    0.2501   -0.1051 C   0  0  0  0  0  0  0  0  0  0  0  0
    8.7471   -1.3166    0.8094 C   0  0  0  0  0  0  0  0  0  0  0  0
    1.1583    0.1892    0.6414 C   0  0  0  0  0  0  0  0  0  0  0  0
    2.4933   -0.1366    0.8537 C   0  0  0  0  0  0  0  0  0  0  0  0
    1.7903    1.2234   -1.4050 C   0  0  0  0  0  0  0  0  0  0  0  0
   -5.6102   -0.7688   -0.5750 H   0  0  0  0  0  0  0  0  0  0  0  0
   -4.7038    1.3867   -0.9461 H   0  0  0  0  0  0  0  0  0  0  0  0
   -5.5849    0.0489    2.5895 H   0  0  0  0  0  0  0  0  0  0  0  0
   -6.4458    0.7085    1.1683 H   0  0  0  0  0  0  0  0  0  0  0  0
   -3.6127    3.2920    0.9992 H   0  0  0  0  0  0  0  0  0  0  0  0
   -5.2196    3.2026    0.2580 H   0  0  0  0  0  0  0  0  0  0  0  0
   -5.8618    2.6786    2.4568 H   0  0  0  0  0  0  0  0  0  0  0  0
   -4.2616    2.0219    2.8506 H   0  0  0  0  0  0  0  0  0  0  0  0
   -3.3825   -0.6656   -1.6319 H   0  0  0  0  0  0  0  0  0  0  0  0
   -2.6650   -1.5197   -0.2363 H   0  0  0  0  0  0  0  0  0  0  0  0
   -4.2962   -2.2841    1.7259 H   0  0  0  0  0  0  0  0  0  0  0  0
   -6.0215   -1.9041    1.5795 H   0  0  0  0  0  0  0  0  0  0  0  0
   -4.7259   -2.6101   -2.2233 H   0  0  0  0  0  0  0  0  0  0  0  0
   -3.0171   -3.0456   -2.0996 H   0  0  0  0  0  0  0  0  0  0  0  0
   -5.5186   -4.2357    0.9028 H   0  0  0  0  0  0  0  0  0  0  0  0
   -6.2131   -3.3173   -0.4385 H   0  0  0  0  0  0  0  0  0  0  0  0
    5.0643   -0.8729   -1.8197 H   0  0  0  0  0  0  0  0  0  0  0  0
    5.9333    0.6324   -1.4712 H   0  0  0  0  0  0  0  0  0  0  0  0
    4.7787    0.4151    2.1951 H   0  0  0  0  0  0  0  0  0  0  0  0
    5.7379    1.4622    1.1489 H   0  0  0  0  0  0  0  0  0  0  0  0
    7.4955   -1.2364   -1.5187 H   0  0  0  0  0  0  0  0  0  0  0  0
    6.5158   -2.1786   -0.3879 H   0  0  0  0  0  0  0  0  0  0  0  0
    6.3405   -1.4318    1.9714 H   0  0  0  0  0  0  0  0  0  0  0  0
    7.1982    0.0297    2.4765 H   0  0  0  0  0  0  0  0  0  0  0  0
    9.3021   -0.8355    1.6224 H   0  0  0  0  0  0  0  0  0  0  0  0
    8.5056   -2.3410    1.1156 H   0  0  0  0  0  0  0  0  0  0  0  0
    9.4266   -1.3644   -0.0488 H   0  0  0  0  0  0  0  0  0  0  0  0
    0.4253   -0.1126    1.3852 H   0  0  0  0  0  0  0  0  0  0  0  0
    2.7756   -0.6911    1.7427 H   0  0  0  0  0  0  0  0  0  0  0  0
    1.5883    1.7640   -2.3249 H   0  0  0  0  0  0  0  0  0  0  0  0
  1 17  1  0  0  0  0
  1 18  1  0  0  0  0
  2  7  1  0  0  0  0
  2 16  1  0  0  0  0
  3  9  1  0  0  0  0
  3 10  1  0  0  0  0
  3 11  1  0  0  0  0
  4 16  2  0  0  0  0
  4 19  1  0  0  0  0
  5 20  1  0  0  0  0
  5 21  1  0  0  0  0
  5 25  1  0  0  0  0
  6 22  1  0  0  0  0
  6 23  1  0  0  0  0
  6 26  1  0  0  0  0
  7 19  2  0  0  0  0
  8 25  2  0  0  0  0
  8 29  1  0  0  0  0
  9 14  1  0  0  0  0
  9 15  1  0  0  0  0
  9 30  1  0  0  0  0
 10 12  1  0  0  0  0
 10 16  1  0  0  0  0
 10 31  1  0  0  0  0
 11 13  1  0  0  0  0
 11 32  1  0  0  0  0
 11 33  1  0  0  0  0
 12 13  1  0  0  0  0
 12 34  1  0  0  0  0
 12 35  1  0  0  0  0
 13 36  1  0  0  0  0
 13 37  1  0  0  0  0
 14 17  1  0  0  0  0
 14 38  1  0  0  0  0
 14 39  1  0  0  0  0
 15 18  1  0  0  0  0
 15 40  1  0  0  0  0
 15 41  1  0  0  0  0
 17 42  1  0  0  0  0
 17 43  1  0  0  0  0
 18 44  1  0  0  0  0
 18 45  1  0  0  0  0
 19 24  1  0  0  0  0
 20 22  1  0  0  0  0
 20 46  1  0  0  0  0
 20 47  1  0  0  0  0
 21 23  1  0  0  0  0
 21 48  1  0  0  0  0
 21 49  1  0  0  0  0
 22 50  1  0  0  0  0
 22 51  1  0  0  0  0
 23 52  1  0  0  0  0
 23 53  1  0  0  0  0
 24 27  1  0  0  0  0
 24 29  2  0  0  0  0
 25 28  1  0  0  0  0
 26 54  1  0  0  0  0
 26 55  1  0  0  0  0
 26 56  1  0  0  0  0
 27 28  2  0  0  0  0
 27 57  1  0  0  0  0
 28 58  1  0  0  0  0
 29 59  1  0  0  0  0
M  END
> <PUBCHEM_COMPOUND_CID>
51136860

> <PUBCHEM_CONFORMER_RMSD>
1

> <PUBCHEM_CONFORMER_DIVERSEORDER>
1
95
116
47
52
63
91
118
54
48
103
72
75
16
8
98
56
24
94
93
23
59
55
109
115
50
28
112
84
45
89
39
92
20
87
36
73
15
10
117
32
43
42
34
51
25
31
100
11
105
81
106
57
122
3
86
96
68
17
82
40
60
13
113
41
65
49
18
83
90
64
22
79
123
2
14
35
77
58
78
62
44
110
102
70
4
120
101
19
114
61
104
33
29
99
67
7
108
53
6
88
38
124
27
21
5
12
46
111
74
37
66
30
71
119
9
80
85
97
26
107
76
121
69

> <PUBCHEM_MMFF94_PARTIAL_CHARGES>
28
1 -0.56
10 0.45
11 0.27
16 0.3
17 0.28
18 0.28
19 0.46
2 -0.02
20 0.37
21 0.37
22 0.27
23 0.27
24 0.05
25 0.41
26 0.27
27 -0.15
28 -0.15
29 0.16
3 -0.81
4 -0.57
5 -0.84
57 0.15
58 0.15
59 0.15
6 -0.81
7 -0.41
8 -0.62
9 0.27

> <PUBCHEM_EFFECTIVE_ROTOR_COUNT>
7.4

> <PUBCHEM_PHARMACOPHORE_FEATURES>
10
1 1 acceptor
1 3 cation
1 6 cation
3 4 7 19 cation
3 5 8 25 cation
5 2 4 7 16 19 rings
5 3 10 11 12 13 rings
6 1 9 14 15 17 18 rings
6 5 6 20 21 22 23 rings
6 8 24 25 27 28 29 rings

> <PUBCHEM_HEAVY_ATOM_COUNT>
29

> <PUBCHEM_ATOM_DEF_STEREO_COUNT>
1

> <PUBCHEM_ATOM_UDEF_STEREO_COUNT>
0

> <PUBCHEM_BOND_DEF_STEREO_COUNT>
0

> <PUBCHEM_BOND_UDEF_STEREO_COUNT>
0

> <PUBCHEM_ISOTOPIC_ATOM_COUNT>
0

> <PUBCHEM_COMPONENT_COUNT>
1

> <PUBCHEM_CACTVS_TAUTO_COUNT>
1

> <PUBCHEM_CONFORMER_ID>
030C495C00000001

> <PUBCHEM_MMFF94_ENERGY>
67.853

> <PUBCHEM_FEATURE_SELFOVERLAP>
50.75

> <PUBCHEM_SHAPE_FINGERPRINT>
10 15 16487253266528699656
10319926 262 18060427918859398492
11089746 13 10591752169883898544
11135926 11 16008747983531717808
11524674 6 17775001271958061927
11545043 162 18060135457366627993
11963148 33 18114171996572465490
12166972 35 17676775301733381492
12422481 6 18273220785276669358
12523318 42 18131074857370597209
12616971 3 18040725769953931132
13009979 54 18265341788637337237
13540713 5 18190478227724627061
13583140 156 16988844982151724441
13782708 43 18335975429133521114
14344974 204 18271806882207012558
14705955 166 16988299607705756435
14844126 61 18272933869267302139
14849402 71 18338240483359901648
14856354 85 18272937111139390341
15021287 119 17894919533036721380
15183329 4 17385722513291908570
15289351 153 10087053265284110922
15320294 125 18335425686242029903
15326921 28 18051410665556684129
15348495 7 17988921193427540288
15352257 5 18342739581671076726
15537594 2 18041282079987886179
17093844 174 17561357353397181849
17324776 126 17412160424458313543
17780758 139 18343865520068568529
17913733 40 16272216283984110046
18927931 339 17313107423660903441
19841028 212 17898572231741299499
20028762 73 18260828220206873666
21033648 29 16128110966102029449
21267235 1 16950854605224052256
21315759 148 17988646306919936326
21814621 53 17632577111596804978
23081809 10 18113907078445916308
23522609 53 17970943053080178340
23523787 8 17831253352714784135
23559900 14 17630074614167675125
23569914 152 11750535140929571096
312425 54 18201723912130100010
3711267 37 13470108758400362794
397830 11 18130215069326889840
4015057 19 16515696579867049348
4073 2 18060138722101078230
4169191 19 12967118433420141058
44555599 121 12247386935309605762
445580 167 17386011698161728740
484985 159 18261946428085564007
4938544 92 18343302527144784577
5080951 261 18340749499361587559
5104073 3 18272652397889376128
5364581 5 17774152538848963809
58260988 114 17459488783223057659
6009941 240 17846501387498379600
636775 72 10303802195247544890
6691757 9 18343025450763068489
68570916 9 18411420652904285940
9953998 17 18343581828350760657

> <PUBCHEM_SHAPE_MULTIPOLES>
555.18
21.24
3.05
1.67
38.39
2.44
-0.05
10.02
-8.55
-8
0.36
-0.39
-0.53
-1.56

> <PUBCHEM_SHAPE_SELFOVERLAP>
1187.563

> <PUBCHEM_SHAPE_VOLUME>
307.6

> <PUBCHEM_COORDINATE_TYPE>
2
5
10

$$$$
