44716348
  -OEChem-12032416343D

 49 51  0     1  0  0  0  0  0999 V2000
   -6.9957   -0.6320   -1.6512 F   0  0  0  0  0  0  0  0  0  0  0  0
   -5.1742   -1.5824   -0.9067 F   0  0  0  0  0  0  0  0  0  0  0  0
   -6.7887   -1.0123    0.4909 F   0  0  0  0  0  0  0  0  0  0  0  0
   -5.5377    0.6358   -0.4842 O   0  0  0  0  0  0  0  0  0  0  0  0
    4.2878   -0.9221    1.1844 N   0  0  2  0  0  0  0  0  0  0  0  0
    0.6483    0.0123    0.7813 N   0  0  0  0  0  0  0  0  0  0  0  0
    4.4340   -0.8446   -1.4117 C   0  0  2  0  0  0  0  0  0  0  0  0
    5.2901    0.2751   -0.7772 C   0  0  2  0  0  0  0  0  0  0  0  0
    2.9206   -0.9018    0.5975 C   0  0  2  0  0  0  0  0  0  0  0  0
    2.9768   -0.7052   -0.9338 C   0  0  0  0  0  0  0  0  0  0  0  0
    5.0520    0.2721    0.7496 C   0  0  0  0  0  0  0  0  0  0  0  0
    4.9680   -2.1816   -0.8630 C   0  0  0  0  0  0  0  0  0  0  0  0
    4.9855   -2.1278    0.6750 C   0  0  0  0  0  0  0  0  0  0  0  0
    5.0287    1.6511   -1.3852 C   0  0  0  0  0  0  0  0  0  0  0  0
    2.0121    0.1300    1.2701 C   0  0  0  0  0  0  0  0  0  0  0  0
    5.9119    2.7111   -0.7557 C   0  0  0  0  0  0  0  0  0  0  0  0
   -0.2207    0.9992    1.4105 C   0  0  0  0  0  0  0  0  0  0  0  0
   -1.6359    0.9030    0.9060 C   0  0  0  0  0  0  0  0  0  0  0  0
   -1.9644    1.4088   -0.3518 C   0  0  0  0  0  0  0  0  0  0  0  0
   -2.6188    0.3074    1.6966 C   0  0  0  0  0  0  0  0  0  0  0  0
   -3.2756    1.3193   -0.8189 C   0  0  0  0  0  0  0  0  0  0  0  0
   -3.9300    0.2179    1.2297 C   0  0  0  0  0  0  0  0  0  0  0  0
   -4.2585    0.7239   -0.0280 C   0  0  0  0  0  0  0  0  0  0  0  0
   -6.1158   -0.6572   -0.6244 C   0  0  0  0  0  0  0  0  0  0  0  0
    4.4917   -0.8249   -2.5050 H   0  0  0  0  0  0  0  0  0  0  0  0
    6.3463    0.0290   -0.9599 H   0  0  0  0  0  0  0  0  0  0  0  0
    2.4705   -1.8858    0.7983 H   0  0  0  0  0  0  0  0  0  0  0  0
    2.3597   -1.4717   -1.4197 H   0  0  0  0  0  0  0  0  0  0  0  0
    2.5706    0.2637   -1.2420 H   0  0  0  0  0  0  0  0  0  0  0  0
    4.5377    1.1735    1.0961 H   0  0  0  0  0  0  0  0  0  0  0  0
    6.0205    0.2832    1.2668 H   0  0  0  0  0  0  0  0  0  0  0  0
    4.3325   -3.0075   -1.2047 H   0  0  0  0  0  0  0  0  0  0  0  0
    5.9796   -2.3723   -1.2402 H   0  0  0  0  0  0  0  0  0  0  0  0
    6.0196   -2.1407    1.0422 H   0  0  0  0  0  0  0  0  0  0  0  0
    4.5185   -3.0318    1.0853 H   0  0  0  0  0  0  0  0  0  0  0  0
    3.9831    1.9521   -1.2621 H   0  0  0  0  0  0  0  0  0  0  0  0
    5.2252    1.6152   -2.4633 H   0  0  0  0  0  0  0  0  0  0  0  0
    2.0331   -0.0259    2.3564 H   0  0  0  0  0  0  0  0  0  0  0  0
    2.3761    1.1453    1.0759 H   0  0  0  0  0  0  0  0  0  0  0  0
    6.9692    2.4337   -0.8179 H   0  0  0  0  0  0  0  0  0  0  0  0
    5.7866    3.6606   -1.2872 H   0  0  0  0  0  0  0  0  0  0  0  0
    5.6651    2.8955    0.2934 H   0  0  0  0  0  0  0  0  0  0  0  0
    0.2976   -0.9258    0.9747 H   0  0  0  0  0  0  0  0  0  0  0  0
   -0.2107    0.8756    2.5012 H   0  0  0  0  0  0  0  0  0  0  0  0
    0.1453    2.0150    1.2114 H   0  0  0  0  0  0  0  0  0  0  0  0
   -1.2073    1.8750   -0.9768 H   0  0  0  0  0  0  0  0  0  0  0  0
   -2.3770   -0.0916    2.6781 H   0  0  0  0  0  0  0  0  0  0  0  0
   -3.5256    1.7147   -1.7996 H   0  0  0  0  0  0  0  0  0  0  0  0
   -4.6869   -0.2427    1.8584 H   0  0  0  0  0  0  0  0  0  0  0  0
  1 24  1  0  0  0  0
  2 24  1  0  0  0  0
  3 24  1  0  0  0  0
  4 23  1  0  0  0  0
  4 24  1  0  0  0  0
  5  9  1  0  0  0  0
  5 11  1  0  0  0  0
  5 13  1  0  0  0  0
  6 15  1  0  0  0  0
  6 17  1  0  0  0  0
  6 43  1  0  0  0  0
  7  8  1  0  0  0  0
  7 10  1  0  0  0  0
  7 12  1  0  0  0  0
  7 25  1  0  0  0  0
  8 11  1  0  0  0  0
  8 14  1  0  0  0  0
  8 26  1  0  0  0  0
  9 10  1  0  0  0  0
  9 15  1  0  0  0  0
  9 27  1  0  0  0  0
 10 28  1  0  0  0  0
 10 29  1  0  0  0  0
 11 30  1  0  0  0  0
 11 31  1  0  0  0  0
 12 13  1  0  0  0  0
 12 32  1  0  0  0  0
 12 33  1  0  0  0  0
 13 34  1  0  0  0  0
 13 35  1  0  0  0  0
 14 16  1  0  0  0  0
 14 36  1  0  0  0  0
 14 37  1  0  0  0  0
 15 38  1  0  0  0  0
 15 39  1  0  0  0  0
 16 40  1  0  0  0  0
 16 41  1  0  0  0  0
 16 42  1  0  0  0  0
 17 18  1  0  0  0  0
 17 44  1  0  0  0  0
 17 45  1  0  0  0  0
 18 19  2  0  0  0  0
 18 20  1  0  0  0  0
 19 21  1  0  0  0  0
 19 46  1  0  0  0  0
 20 22  2  0  0  0  0
 20 47  1  0  0  0  0
 21 23  2  0  0  0  0
 21 48  1  0  0  0  0
 22 23  1  0  0  0  0
 22 49  1  0  0  0  0
M  END
> <PUBCHEM_COMPOUND_CID>
44716348

> <PUBCHEM_CONFORMER_RMSD>
0.8

> <PUBCHEM_CONFORMER_DIVERSEORDER>
1
12
73
159
145
13
134
80
7
92
59
74
14
66
51
133
53
157
125
10
158
30
84
151
109
72
148
24
39
142
9
138
33
36
47
65
135
137
144
99
28
88
2
147
57
93
102
8
100
70
34
160
112
85
119
48
153
17
103
136
116
114
78
4
107
95
96
89
97
81
115
25
45
41
40
27
55
52
49
122
83
3
110
82
68
104
35
111
91
46
63
75
113
62
20
19
154
21
79
11
101
98
143
127
61
18
126
140
123
60
121
117
43
118
155
31
139
130
58
50
54
76
22
129
64
108
156
44
86
29
15
87
124
131
105
67
128
69
16
106
77
149
38
132
32
56
120
94
5
71
90
146
141
23
37
42
150
6
152
26

> <PUBCHEM_MMFF94_PARTIAL_CHARGES>
23
1 -0.34
11 0.27
13 0.27
15 0.27
17 0.41
18 -0.14
19 -0.15
2 -0.34
20 -0.15
21 -0.15
22 -0.15
23 0.08
24 1.3
3 -0.34
4 -0.36
43 0.36
46 0.15
47 0.15
48 0.15
49 0.15
5 -0.81
6 -0.9
9 0.27

> <PUBCHEM_EFFECTIVE_ROTOR_COUNT>
8.2

> <PUBCHEM_PHARMACOPHORE_FEATURES>
7
1 16 hydrophobe
1 4 acceptor
1 5 cation
1 6 cation
1 6 donor
6 18 19 20 21 22 23 rings
8 5 7 8 9 10 11 12 13 rings

> <PUBCHEM_HEAVY_ATOM_COUNT>
24

> <PUBCHEM_ATOM_DEF_STEREO_COUNT>
3

> <PUBCHEM_ATOM_UDEF_STEREO_COUNT>
0

> <PUBCHEM_BOND_DEF_STEREO_COUNT>
0

> <PUBCHEM_BOND_UDEF_STEREO_COUNT>
0

> <PUBCHEM_ISOTOPIC_ATOM_COUNT>
0

> <PUBCHEM_COMPONENT_COUNT>
1

> <PUBCHEM_CACTVS_TAUTO_COUNT>
1

> <PUBCHEM_CONFORMER_ID>
02AA513C00000001

> <PUBCHEM_MMFF94_ENERGY>
61.7822

> <PUBCHEM_FEATURE_SELFOVERLAP>
35.521

> <PUBCHEM_SHAPE_FINGERPRINT>
10319926 262 13901916613553234873
10554248 39 11530759340383498666
10595046 47 18408605837947785376
10692045 39 9150907082502393341
11128504 68 18113337496445687801
12633257 1 12319444520329707225
13150687 139 17916603054770035548
13167372 99 11169907281942234590
13673619 4 12823031802719382224
13785724 45 7852762095690819360
14251732 14 17060347335523523688
14341114 176 12895351092644309658
14528608 73 17895196580144443840
14617045 38 15913333493933774484
15183329 4 14779548972186624911
15301273 46 14476968887361688593
15348495 7 10519693493050144541
15537594 2 16558745711035991788
15799311 1 17346052120206870295
16120349 189 17973733764680194036
17844677 252 18263087630454453512
1813 80 16988844956197876816
20157964 124 18040719177848758560
20511986 3 16153699964027301523
21033648 29 12540709136085408046
21150785 3 18340770428647640561
21196832 93 18044379559432658715
21623969 137 16558745702535896550
21774942 28 15864896643538539111
2303208 19 14620801478704288272
23081809 10 18272378542010192233
23522609 53 17915770663151597409
23559900 14 17385730230989494741
239999 70 14117512118103403344
2748736 6 13623525758199848447
2767999 5 14129058114769627183
2838139 119 12324231789857722839
29717793 49 18187928331199168482
3004659 81 18342739568759521626
312425 54 11671774970799952557
34797466 226 18334584537743852748
3663271 9 9871454422730943429
4325135 7 18410855482067345556
465052 167 16630526219996870660
5104073 3 15841270324986540082
59682541 52 17241039903600289402

> <PUBCHEM_SHAPE_MULTIPOLES>
456.26
19.19
2.01
1.59
17.2
0.31
-0.09
-2.85
6.97
-3.38
0.54
0.19
-0.06
-1.17

> <PUBCHEM_SHAPE_SELFOVERLAP>
956.468

> <PUBCHEM_SHAPE_VOLUME>
259.3

> <PUBCHEM_COORDINATE_TYPE>
2
5
10

$$$$
