71693787
  -OEChem-12032416233D

 45 46  0     1  0  0  0  0  0999 V2000
   -0.0233   -2.6773    1.6960 O   0  0  0  0  0  0  0  0  0  0  0  0
    1.0278   -4.2208   -0.2984 O   0  0  0  0  0  0  0  0  0  0  0  0
   -2.7675    0.1284    1.2751 O   0  0  0  0  0  0  0  0  0  0  0  0
   -1.3691   -0.2713   -0.5355 N   0  0  0  0  0  0  0  0  0  0  0  0
   -3.4568    0.6383   -0.8810 N   0  0  0  0  0  0  0  0  0  0  0  0
    1.0841   -0.5654   -0.5286 C   0  0  2  0  0  0  0  0  0  0  0  0
    1.9184    0.5332    0.1144 C   0  0  0  0  0  0  0  0  0  0  0  0
   -0.2564   -0.8133    0.2052 C   0  0  2  0  0  0  0  0  0  0  0  0
    1.7982   -1.9189   -0.5233 C   0  0  0  0  0  0  0  0  0  0  0  0
   -0.3778   -2.3382    0.3556 C   0  0  1  0  0  0  0  0  0  0  0  0
    0.6433   -2.9024   -0.6287 C   0  0  2  0  0  0  0  0  0  0  0  0
    1.1420    1.8566    0.1436 C   0  0  0  0  0  0  0  0  0  0  0  0
    3.2548    0.6999   -0.6216 C   0  0  0  0  0  0  0  0  0  0  0  0
    1.9787    2.9882    0.7363 C   0  0  0  0  0  0  0  0  0  0  0  0
    4.0879    1.8333   -0.0275 C   0  0  0  0  0  0  0  0  0  0  0  0
    3.3099    3.1450    0.0079 C   0  0  0  0  0  0  0  0  0  0  0  0
   -2.5518    0.1622    0.0643 C   0  0  0  0  0  0  0  0  0  0  0  0
   -4.7609    1.1480   -0.5284 C   0  0  0  0  0  0  0  0  0  0  0  0
   -4.6815    2.5746   -0.0256 C   0  0  0  0  0  0  0  0  0  0  0  0
    0.8871   -0.2956   -1.5765 H   0  0  0  0  0  0  0  0  0  0  0  0
    2.1393    0.2499    1.1535 H   0  0  0  0  0  0  0  0  0  0  0  0
   -0.2555   -0.3517    1.2000 H   0  0  0  0  0  0  0  0  0  0  0  0
    2.3702   -2.0876    0.3977 H   0  0  0  0  0  0  0  0  0  0  0  0
    2.4926   -2.0332   -1.3624 H   0  0  0  0  0  0  0  0  0  0  0  0
   -1.3807   -2.7357    0.1682 H   0  0  0  0  0  0  0  0  0  0  0  0
    0.2305   -2.8965   -1.6450 H   0  0  0  0  0  0  0  0  0  0  0  0
    0.2279    1.7716    0.7398 H   0  0  0  0  0  0  0  0  0  0  0  0
    0.8343    2.1320   -0.8734 H   0  0  0  0  0  0  0  0  0  0  0  0
    3.0746    0.9045   -1.6847 H   0  0  0  0  0  0  0  0  0  0  0  0
    3.8469   -0.2204   -0.5695 H   0  0  0  0  0  0  0  0  0  0  0  0
    2.1649    2.7868    1.7984 H   0  0  0  0  0  0  0  0  0  0  0  0
    1.4176    3.9281    0.6832 H   0  0  0  0  0  0  0  0  0  0  0  0
    5.0037    1.9644   -0.6149 H   0  0  0  0  0  0  0  0  0  0  0  0
    4.3969    1.5645    0.9902 H   0  0  0  0  0  0  0  0  0  0  0  0
    3.9111    3.9175    0.5002 H   0  0  0  0  0  0  0  0  0  0  0  0
    3.1262    3.4878   -1.0178 H   0  0  0  0  0  0  0  0  0  0  0  0
   -1.3270   -0.2788   -1.5501 H   0  0  0  0  0  0  0  0  0  0  0  0
   -0.7047   -2.3034    2.2805 H   0  0  0  0  0  0  0  0  0  0  0  0
    1.7425   -4.4774   -0.9057 H   0  0  0  0  0  0  0  0  0  0  0  0
   -3.1857    0.6395   -1.8594 H   0  0  0  0  0  0  0  0  0  0  0  0
   -5.1978    0.5017    0.2401 H   0  0  0  0  0  0  0  0  0  0  0  0
   -5.3882    1.0938   -1.4235 H   0  0  0  0  0  0  0  0  0  0  0  0
   -4.0667    2.6459    0.8776 H   0  0  0  0  0  0  0  0  0  0  0  0
   -4.2384    3.2318   -0.7814 H   0  0  0  0  0  0  0  0  0  0  0  0
   -5.6809    2.9514    0.2124 H   0  0  0  0  0  0  0  0  0  0  0  0
  1 10  1  0  0  0  0
  1 38  1  0  0  0  0
  2 11  1  0  0  0  0
  2 39  1  0  0  0  0
  3 17  2  0  0  0  0
  4  8  1  0  0  0  0
  4 17  1  0  0  0  0
  4 37  1  0  0  0  0
  5 17  1  0  0  0  0
  5 18  1  0  0  0  0
  5 40  1  0  0  0  0
  6  7  1  0  0  0  0
  6  8  1  0  0  0  0
  6  9  1  0  0  0  0
  6 20  1  0  0  0  0
  7 12  1  0  0  0  0
  7 13  1  0  0  0  0
  7 21  1  0  0  0  0
  8 10  1  0  0  0  0
  8 22  1  0  0  0  0
  9 11  1  0  0  0  0
  9 23  1  0  0  0  0
  9 24  1  0  0  0  0
 10 11  1  0  0  0  0
 10 25  1  0  0  0  0
 11 26  1  0  0  0  0
 12 14  1  0  0  0  0
 12 27  1  0  0  0  0
 12 28  1  0  0  0  0
 13 15  1  0  0  0  0
 13 29  1  0  0  0  0
 13 30  1  0  0  0  0
 14 16  1  0  0  0  0
 14 31  1  0  0  0  0
 14 32  1  0  0  0  0
 15 16  1  0  0  0  0
 15 33  1  0  0  0  0
 15 34  1  0  0  0  0
 16 35  1  0  0  0  0
 16 36  1  0  0  0  0
 18 19  1  0  0  0  0
 18 41  1  0  0  0  0
 18 42  1  0  0  0  0
 19 43  1  0  0  0  0
 19 44  1  0  0  0  0
 19 45  1  0  0  0  0
M  END
> <PUBCHEM_COMPOUND_CID>
71693787

> <PUBCHEM_CONFORMER_RMSD>
0.8

> <PUBCHEM_CONFORMER_DIVERSEORDER>
1
32
5
22
31
49
48
30
37
39
40
33
3
28
53
41
38
44
7
34
47
2
26
27
45
13
12
21
9
50
43
25
23
36
20
19
46
42
15
4
51
52
6
16
24
8
14
17
35
11
18
10
29

> <PUBCHEM_MMFF94_PARTIAL_CHARGES>
14
1 -0.68
10 0.28
11 0.28
17 0.69
18 0.3
2 -0.68
3 -0.57
37 0.37
38 0.4
39 0.4
4 -0.73
40 0.37
5 -0.73
8 0.3

> <PUBCHEM_EFFECTIVE_ROTOR_COUNT>
7.2

> <PUBCHEM_PHARMACOPHORE_FEATURES>
9
1 1 acceptor
1 1 donor
1 2 acceptor
1 2 donor
1 3 acceptor
1 4 donor
1 5 donor
5 6 8 9 10 11 rings
6 7 12 13 14 15 16 rings

> <PUBCHEM_HEAVY_ATOM_COUNT>
19

> <PUBCHEM_ATOM_DEF_STEREO_COUNT>
4

> <PUBCHEM_ATOM_UDEF_STEREO_COUNT>
0

> <PUBCHEM_BOND_DEF_STEREO_COUNT>
0

> <PUBCHEM_BOND_UDEF_STEREO_COUNT>
0

> <PUBCHEM_ISOTOPIC_ATOM_COUNT>
0

> <PUBCHEM_COMPONENT_COUNT>
1

> <PUBCHEM_CACTVS_TAUTO_COUNT>
3

> <PUBCHEM_CONFORMER_ID>
0445F5DB00000001

> <PUBCHEM_MMFF94_ENERGY>
30.4461

> <PUBCHEM_FEATURE_SELFOVERLAP>
45.733

> <PUBCHEM_SHAPE_FINGERPRINT>
10411042 1 17619067227131731695
12173636 292 18123183773396297180
12500047 106 18195526128567708692
12730499 353 18410018728233588761
12769317 202 18339631257556058741
12788726 201 17541925929238980594
13009979 54 17056686880999897307
13134695 92 17977665312284013231
13464514 151 18411986831839332852
13590594 115 17547020628009160425
138480 1 17979354157622189900
13878862 14 17901929865469904053
14123255 52 18411417357962710997
14178000 15 17908420255967500791
14466204 15 18339631240429073784
17134986 127 18411979191271789940
18186145 218 18201170939275034796
18219364 16 18267318683967458825
20510252 161 17766000875678199154
20600515 1 16164375904454014374
20723712 36 18193531438307119282
21041028 32 17762051039058667390
21524375 3 18335131050662175534
2255824 54 18270115687240979999
22907989 373 17543908370131296228
23558518 356 18045778146348452126
25 1 18411417314939009740
2748010 2 18195550274773431846
3084891 72 18341611542601280984
3091708 16 9189031548609460714
474 4 18413105048297609185
5895379 119 17055838032211518865
633830 44 18342736325494854309
6443956 14 18049724014306971574
7364860 26 18267300928730763111
7471813 234 17910941453584017655
81228 2 17469032723464651362
8272917 22 18341333280217714949
84936 182 18343578521442525721
90316 7 17114101629981715898
9981440 41 18339353171265710585

> <PUBCHEM_SHAPE_MULTIPOLES>
363.44
7.38
4.61
0.96
7.31
2.67
0.24
-9.14
-1.07
-2.09
0.35
0.23
0.3
0.66

> <PUBCHEM_SHAPE_SELFOVERLAP>
732.312

> <PUBCHEM_SHAPE_VOLUME>
212.4

> <PUBCHEM_COORDINATE_TYPE>
2
5
10

$$$$
