51137362
  -OEChem-12032416223D

 52 56  0     1  0  0  0  0  0999 V2000
    0.6138   -1.3883   -0.3012 O   0  0  0  0  0  0  0  0  0  0  0  0
   -3.1614   -0.3963    0.8019 N   0  0  1  0  0  0  0  0  0  0  0  0
    0.5223   -3.4930    0.4514 N   0  0  0  0  0  0  0  0  0  0  0  0
    1.6770   -3.3566   -0.2965 N   0  0  0  0  0  0  0  0  0  0  0  0
    5.3786    0.2323    0.3710 N   0  0  0  0  0  0  0  0  0  0  0  0
   -3.9865    0.4500   -0.0580 C   0  0  0  0  0  0  0  0  0  0  0  0
   -2.3975   -1.3883    0.0422 C   0  0  0  0  0  0  0  0  0  0  0  0
   -1.3600   -1.8750    1.0629 C   0  0  2  0  0  0  0  0  0  0  0  0
   -2.1565    0.3701    1.5386 C   0  0  0  0  0  0  0  0  0  0  0  0
   -4.6723    1.5337    0.7811 C   0  0  0  0  0  0  0  0  0  0  0  0
   -5.0163   -0.4088   -0.8003 C   0  0  0  0  0  0  0  0  0  0  0  0
   -1.2202   -0.7121    2.0608 C   0  0  0  0  0  0  0  0  0  0  0  0
   -5.6043    2.3919   -0.0728 C   0  0  0  0  0  0  0  0  0  0  0  0
   -5.9484    0.4516   -1.6519 C   0  0  0  0  0  0  0  0  0  0  0  0
   -6.6243    1.5398   -0.8225 C   0  0  0  0  0  0  0  0  0  0  0  0
   -0.0661   -2.3201    0.4214 C   0  0  0  0  0  0  0  0  0  0  0  0
    1.6888   -2.1129   -0.7158 C   0  0  0  0  0  0  0  0  0  0  0  0
    2.6785   -1.4151   -1.5461 C   0  0  0  0  0  0  0  0  0  0  0  0
    3.6255   -0.5003   -0.7765 C   0  0  0  0  0  0  0  0  0  0  0  0
    3.4227    0.8779   -0.4862 C   0  0  0  0  0  0  0  0  0  0  0  0
    4.8364   -0.8681   -0.2368 C   0  0  0  0  0  0  0  0  0  0  0  0
    4.5369    1.3132    0.2344 C   0  0  0  0  0  0  0  0  0  0  0  0
    2.3949    1.7997   -0.7680 C   0  0  0  0  0  0  0  0  0  0  0  0
    4.6753    2.6294    0.6891 C   0  0  0  0  0  0  0  0  0  0  0  0
    2.5197    3.1196   -0.3196 C   0  0  0  0  0  0  0  0  0  0  0  0
    3.6432    3.5259    0.3975 C   0  0  0  0  0  0  0  0  0  0  0  0
   -3.3552    0.9513   -0.8064 H   0  0  0  0  0  0  0  0  0  0  0  0
   -1.9179   -0.9438   -0.8397 H   0  0  0  0  0  0  0  0  0  0  0  0
   -3.0144   -2.2312   -0.2872 H   0  0  0  0  0  0  0  0  0  0  0  0
   -1.7709   -2.7374    1.6062 H   0  0  0  0  0  0  0  0  0  0  0  0
   -2.5727    0.9336    2.3792 H   0  0  0  0  0  0  0  0  0  0  0  0
   -1.6020    1.0564    0.8855 H   0  0  0  0  0  0  0  0  0  0  0  0
   -3.9440    2.2109    1.2408 H   0  0  0  0  0  0  0  0  0  0  0  0
   -5.2501    1.0771    1.5956 H   0  0  0  0  0  0  0  0  0  0  0  0
   -5.6156   -0.9873   -0.0848 H   0  0  0  0  0  0  0  0  0  0  0  0
   -4.5316   -1.1281   -1.4698 H   0  0  0  0  0  0  0  0  0  0  0  0
   -0.1946   -0.3401    2.1568 H   0  0  0  0  0  0  0  0  0  0  0  0
   -1.5469   -1.0458    3.0537 H   0  0  0  0  0  0  0  0  0  0  0  0
   -6.1263    3.1151    0.5640 H   0  0  0  0  0  0  0  0  0  0  0  0
   -5.0116    2.9695   -0.7930 H   0  0  0  0  0  0  0  0  0  0  0  0
   -5.3762    0.9150   -2.4651 H   0  0  0  0  0  0  0  0  0  0  0  0
   -6.7109   -0.1821   -2.1189 H   0  0  0  0  0  0  0  0  0  0  0  0
   -7.2298    2.1784   -1.4754 H   0  0  0  0  0  0  0  0  0  0  0  0
   -7.3105    1.0760   -0.1032 H   0  0  0  0  0  0  0  0  0  0  0  0
    3.2799   -2.1563   -2.0880 H   0  0  0  0  0  0  0  0  0  0  0  0
    2.1646   -0.8277   -2.3171 H   0  0  0  0  0  0  0  0  0  0  0  0
    5.3615   -1.8132   -0.2295 H   0  0  0  0  0  0  0  0  0  0  0  0
    6.2680    0.2496    0.8508 H   0  0  0  0  0  0  0  0  0  0  0  0
    1.5116    1.4994   -1.3244 H   0  0  0  0  0  0  0  0  0  0  0  0
    5.5496    2.9467    1.2475 H   0  0  0  0  0  0  0  0  0  0  0  0
    1.7298    3.8347   -0.5335 H   0  0  0  0  0  0  0  0  0  0  0  0
    3.7194    4.5560    0.7364 H   0  0  0  0  0  0  0  0  0  0  0  0
  1 16  1  0  0  0  0
  1 17  1  0  0  0  0
  2  6  1  0  0  0  0
  2  7  1  0  0  0  0
  2  9  1  0  0  0  0
  3  4  1  0  0  0  0
  3 16  2  0  0  0  0
  4 17  2  0  0  0  0
  5 21  1  0  0  0  0
  5 22  1  0  0  0  0
  5 48  1  0  0  0  0
  6 10  1  0  0  0  0
  6 11  1  0  0  0  0
  6 27  1  0  0  0  0
  7  8  1  0  0  0  0
  7 28  1  0  0  0  0
  7 29  1  0  0  0  0
  8 12  1  0  0  0  0
  8 16  1  0  0  0  0
  8 30  1  0  0  0  0
  9 12  1  0  0  0  0
  9 31  1  0  0  0  0
  9 32  1  0  0  0  0
 10 13  1  0  0  0  0
 10 33  1  0  0  0  0
 10 34  1  0  0  0  0
 11 14  1  0  0  0  0
 11 35  1  0  0  0  0
 11 36  1  0  0  0  0
 12 37  1  0  0  0  0
 12 38  1  0  0  0  0
 13 15  1  0  0  0  0
 13 39  1  0  0  0  0
 13 40  1  0  0  0  0
 14 15  1  0  0  0  0
 14 41  1  0  0  0  0
 14 42  1  0  0  0  0
 15 43  1  0  0  0  0
 15 44  1  0  0  0  0
 17 18  1  0  0  0  0
 18 19  1  0  0  0  0
 18 45  1  0  0  0  0
 18 46  1  0  0  0  0
 19 20  1  0  0  0  0
 19 21  2  0  0  0  0
 20 22  1  0  0  0  0
 20 23  2  0  0  0  0
 21 47  1  0  0  0  0
 22 24  2  0  0  0  0
 23 25  1  0  0  0  0
 23 49  1  0  0  0  0
 24 26  1  0  0  0  0
 24 50  1  0  0  0  0
 25 26  2  0  0  0  0
 25 51  1  0  0  0  0
 26 52  1  0  0  0  0
M  END
> <PUBCHEM_COMPOUND_CID>
51137362

> <PUBCHEM_CONFORMER_RMSD>
1

> <PUBCHEM_CONFORMER_DIVERSEORDER>
1
102
57
35
141
22
131
12
156
72
55
54
95
118
77
19
52
117
17
94
79
73
112
113
124
138
146
15
20
150
31
50
108
140
93
147
159
36
114
46
11
65
142
106
107
115
139
32
83
70
91
66
119
132
160
120
133
99
88
81
137
24
21
16
153
47
76
27
123
59
14
101
89
49
96
134
128
40
10
4
98
84
18
143
9
5
71
103
151
44
122
56
129
116
109
154
43
2
149
100
53
25
62
148
144
45
29
82
105
121
30
75
67
64
126
90
158
85
3
61
135
39
125
13
6
51
7
23
92
97
87
58
42
152
155
130
60
86
69
145
28
68
80
48
63
38
8
104
111
110
33
127
34
136
78
74
41
157
37
26

> <PUBCHEM_MMFF94_PARTIAL_CHARGES>
25
1 -0.28
16 0.3
17 0.3
18 0.36
19 -0.18
2 -0.81
21 -0.3
22 -0.15
23 -0.15
24 -0.15
25 -0.15
26 -0.15
3 -0.34
4 -0.34
47 0.15
48 0.27
49 0.15
5 0.03
50 0.15
51 0.15
52 0.15
6 0.27
7 0.27
8 0.18
9 0.27

> <PUBCHEM_EFFECTIVE_ROTOR_COUNT>
6.2

> <PUBCHEM_PHARMACOPHORE_FEATURES>
8
1 2 cation
1 5 cation
1 5 donor
5 1 3 4 16 17 rings
5 2 7 8 9 12 rings
5 5 19 20 21 22 rings
6 20 22 23 24 25 26 rings
6 6 10 11 13 14 15 rings

> <PUBCHEM_HEAVY_ATOM_COUNT>
26

> <PUBCHEM_ATOM_DEF_STEREO_COUNT>
1

> <PUBCHEM_ATOM_UDEF_STEREO_COUNT>
0

> <PUBCHEM_BOND_DEF_STEREO_COUNT>
0

> <PUBCHEM_BOND_UDEF_STEREO_COUNT>
0

> <PUBCHEM_ISOTOPIC_ATOM_COUNT>
0

> <PUBCHEM_COMPONENT_COUNT>
1

> <PUBCHEM_CACTVS_TAUTO_COUNT>
1

> <PUBCHEM_CONFORMER_ID>
030C4B5200000001

> <PUBCHEM_MMFF94_ENERGY>
30.4537

> <PUBCHEM_FEATURE_SELFOVERLAP>
40.691

> <PUBCHEM_SHAPE_FINGERPRINT>
10256941 240 16046993687686811329
10439779 11 18338511916158872200
10673678 19 18271530793645505327
10674148 151 14057009274703795370
10692045 39 16443619082697068387
10811444 77 18408880750209446621
10883706 89 9078564797690627759
11370993 70 18340773757574238816
12107183 9 18335125523983589674
12633257 1 15864071017627877375
12769317 202 18412542093848663233
13103583 49 11530753770148460343
13402501 40 18260547801143122180
13726171 33 16591163742082154813
14040221 304 17623520537588433669
14251764 30 9511472133800888988
14251764 38 18265055906233078565
14347329 18 17677071074064591236
14681490 219 18341890741456788937
14848178 96 18411706503624242840
14932701 244 18193549202582629447
14957384 54 18263361550789250378
15003188 100 18412265042667181527
15003188 8 18267295620621112400
15238133 3 18187652448976525238
15848702 68 18409451410467277970
17093844 170 18409732854978836512
20511986 3 17774708801891628645
20554085 129 16370720393288680049
20715895 44 18411417306396528512
21033648 29 17968380147156386314
21298829 104 18342460300821248384
21315763 76 18341332210501819873
21388113 180 18336829796233045685
21475661 188 18335422395832305030
21860390 5 18201734920405450510
21968339 14 18190733142217039623
22749437 52 18127990782930985416
22950370 63 9151183059888835890
23559900 14 18341057311210307698
23569914 2 17244663881885199989
2838139 119 18410570661353276869
34797466 226 18059579049492599319
376196 1 18411702131696123882
44317340 157 18341338791124784203
4487111 67 16895962933847443349
44880168 125 13984922049016658376
474 4 18341617031395353354
508706 21 17968949582526820853
5312510 48 18411139087448425465
550186 83 17240751900463699476
574716 61 18201717311181987253
57724786 102 17458636656714839812
6328613 192 18263938799174356636
6371009 1 18341609287643224184
7918774 8 12175619616224388285
9555976 147 13190625984889607181
9981440 41 18335984289192559003

> <PUBCHEM_SHAPE_MULTIPOLES>
509.27
14.56
3.99
1.35
13.94
0.14
-0.19
11.13
3.53
-3.47
-0.22
0.95
-0.2
1.24

> <PUBCHEM_SHAPE_SELFOVERLAP>
1108.494

> <PUBCHEM_SHAPE_VOLUME>
279.5

> <PUBCHEM_COORDINATE_TYPE>
2
5
10

$$$$
