51137056
  -OEChem-12032416243D

 39 42  0     1  0  0  0  0  0999 V2000
   -6.6616    2.2182    0.5883 Cl  0  0  0  0  0  0  0  0  0  0  0  0
    3.2627   -1.2160    0.5715 O   0  0  0  0  0  0  0  0  0  0  0  0
   -1.3464   -0.4440   -0.1174 N   0  0  1  0  0  0  0  0  0  0  0  0
    2.7115    0.8504   -0.1792 N   0  0  0  0  0  0  0  0  0  0  0  0
    0.8727   -0.7372    0.5821 C   0  0  1  0  0  0  0  0  0  0  0  0
    0.1211    0.1321    1.6052 C   0  0  0  0  0  0  0  0  0  0  0  0
   -0.0185   -0.7248   -0.6672 C   0  0  0  0  0  0  0  0  0  0  0  0
   -1.1285    0.6079    0.8757 C   0  0  0  0  0  0  0  0  0  0  0  0
   -2.3000   -0.0485   -1.1433 C   0  0  0  0  0  0  0  0  0  0  0  0
    2.2913   -0.3005    0.2982 C   0  0  0  0  0  0  0  0  0  0  0  0
   -3.7225   -0.1860   -0.6696 C   0  0  0  0  0  0  0  0  0  0  0  0
    4.4165   -0.5710    0.2291 C   0  0  0  0  0  0  0  0  0  0  0  0
    4.0753    0.6929   -0.2297 C   0  0  0  0  0  0  0  0  0  0  0  0
   -4.4484    0.9473   -0.3033 C   0  0  0  0  0  0  0  0  0  0  0  0
   -4.3147   -1.4469   -0.5979 C   0  0  0  0  0  0  0  0  0  0  0  0
    5.7146   -1.0596    0.3113 C   0  0  0  0  0  0  0  0  0  0  0  0
    5.0948    1.5604   -0.6470 C   0  0  0  0  0  0  0  0  0  0  0  0
   -5.7666    0.8200    0.1347 C   0  0  0  0  0  0  0  0  0  0  0  0
   -5.6329   -1.5744   -0.1598 C   0  0  0  0  0  0  0  0  0  0  0  0
    6.7197   -0.1818   -0.1091 C   0  0  0  0  0  0  0  0  0  0  0  0
    6.4187    1.1025   -0.5789 C   0  0  0  0  0  0  0  0  0  0  0  0
   -6.3589   -0.4410    0.2063 C   0  0  0  0  0  0  0  0  0  0  0  0
    0.9042   -1.7622    0.9784 H   0  0  0  0  0  0  0  0  0  0  0  0
   -0.1586   -0.4832    2.4695 H   0  0  0  0  0  0  0  0  0  0  0  0
    0.7122    0.9764    1.9757 H   0  0  0  0  0  0  0  0  0  0  0  0
    0.2955    0.0548   -1.3742 H   0  0  0  0  0  0  0  0  0  0  0  0
    0.0108   -1.6895   -1.1854 H   0  0  0  0  0  0  0  0  0  0  0  0
   -1.9695    0.7153    1.5679 H   0  0  0  0  0  0  0  0  0  0  0  0
   -0.9327    1.5809    0.4069 H   0  0  0  0  0  0  0  0  0  0  0  0
   -2.1066    0.9655   -1.5191 H   0  0  0  0  0  0  0  0  0  0  0  0
   -2.1950   -0.7028   -2.0205 H   0  0  0  0  0  0  0  0  0  0  0  0
   -3.9850    1.9299   -0.3580 H   0  0  0  0  0  0  0  0  0  0  0  0
   -3.7597   -2.3376   -0.8805 H   0  0  0  0  0  0  0  0  0  0  0  0
    5.9368   -2.0545    0.6762 H   0  0  0  0  0  0  0  0  0  0  0  0
    4.8731    2.5575   -1.0129 H   0  0  0  0  0  0  0  0  0  0  0  0
   -6.0939   -2.5562   -0.1038 H   0  0  0  0  0  0  0  0  0  0  0  0
    7.7575   -0.5043   -0.0698 H   0  0  0  0  0  0  0  0  0  0  0  0
    7.2258    1.7577   -0.8972 H   0  0  0  0  0  0  0  0  0  0  0  0
   -7.3851   -0.5556    0.5459 H   0  0  0  0  0  0  0  0  0  0  0  0
  1 18  1  0  0  0  0
  2 10  1  0  0  0  0
  2 12  1  0  0  0  0
  3  7  1  0  0  0  0
  3  8  1  0  0  0  0
  3  9  1  0  0  0  0
  4 10  2  0  0  0  0
  4 13  1  0  0  0  0
  5  6  1  0  0  0  0
  5  7  1  0  0  0  0
  5 10  1  0  0  0  0
  5 23  1  0  0  0  0
  6  8  1  0  0  0  0
  6 24  1  0  0  0  0
  6 25  1  0  0  0  0
  7 26  1  0  0  0  0
  7 27  1  0  0  0  0
  8 28  1  0  0  0  0
  8 29  1  0  0  0  0
  9 11  1  0  0  0  0
  9 30  1  0  0  0  0
  9 31  1  0  0  0  0
 11 14  2  0  0  0  0
 11 15  1  0  0  0  0
 12 13  1  0  0  0  0
 12 16  2  0  0  0  0
 13 17  2  0  0  0  0
 14 18  1  0  0  0  0
 14 32  1  0  0  0  0
 15 19  2  0  0  0  0
 15 33  1  0  0  0  0
 16 20  1  0  0  0  0
 16 34  1  0  0  0  0
 17 21  1  0  0  0  0
 17 35  1  0  0  0  0
 18 22  2  0  0  0  0
 19 22  1  0  0  0  0
 19 36  1  0  0  0  0
 20 21  2  0  0  0  0
 20 37  1  0  0  0  0
 21 38  1  0  0  0  0
 22 39  1  0  0  0  0
M  END
> <PUBCHEM_COMPOUND_CID>
51137056

> <PUBCHEM_CONFORMER_RMSD>
0.6

> <PUBCHEM_CONFORMER_DIVERSEORDER>
1
165
55
172
161
72
203
164
208
200
157
150
120
125
195
146
59
171
82
144
220
124
68
204
209
35
142
181
62
186
128
58
127
123
155
182
202
185
188
67
108
23
162
170
217
49
137
211
43
213
106
74
183
206
151
100
45
224
158
75
132
135
129
47
212
104
198
71
53
167
42
6
222
221
66
140
163
41
130
180
179
110
103
54
138
139
29
118
201
95
225
19
133
192
223
69
21
174
226
56
25
178
199
193
61
63
136
156
116
134
57
32
218
175
219
160
190
184
143
38
207
173
31
126
85
189
177
149
210
97
99
2
216
44
169
187
50
153
51
191
194
105
3
154
33
176
79
34
8
5
96
52
20
214
76
9
12
88
114
90
14
27
36
91
73
121
87
84
92
111
4
77
159
152
16
70
102
148
80
15
37
7
65
93
98
13
81
107
131
94
122
78
22
109
18
115
145
89
26
147
215
10
119
17
117
101
39
166
28
30
168
141
60
83
86
64
46
40
113
11
205
228
24
112
48
196
227
197

> <PUBCHEM_MMFF94_PARTIAL_CHARGES>
29
1 -0.18
10 0.3
11 -0.14
12 0.14
13 0.23
14 -0.15
15 -0.15
16 -0.15
17 -0.15
18 0.18
19 -0.15
2 -0.28
20 -0.15
21 -0.15
22 -0.15
3 -0.81
32 0.15
33 0.15
34 0.15
35 0.15
36 0.15
37 0.15
38 0.15
39 0.15
4 -0.57
5 0.18
7 0.27
8 0.27
9 0.41

> <PUBCHEM_EFFECTIVE_ROTOR_COUNT>
4

> <PUBCHEM_PHARMACOPHORE_FEATURES>
5
1 3 cation
5 2 4 10 12 13 rings
5 3 5 6 7 8 rings
6 11 14 15 18 19 22 rings
6 12 13 16 17 20 21 rings

> <PUBCHEM_HEAVY_ATOM_COUNT>
22

> <PUBCHEM_ATOM_DEF_STEREO_COUNT>
1

> <PUBCHEM_ATOM_UDEF_STEREO_COUNT>
0

> <PUBCHEM_BOND_DEF_STEREO_COUNT>
0

> <PUBCHEM_BOND_UDEF_STEREO_COUNT>
0

> <PUBCHEM_ISOTOPIC_ATOM_COUNT>
0

> <PUBCHEM_COMPONENT_COUNT>
1

> <PUBCHEM_CACTVS_TAUTO_COUNT>
1

> <PUBCHEM_CONFORMER_ID>
030C4A2000000001

> <PUBCHEM_MMFF94_ENERGY>
44.7593

> <PUBCHEM_FEATURE_SELFOVERLAP>
25.492

> <PUBCHEM_SHAPE_FINGERPRINT>
10 15 13551478089926098564
10299344 5 18410856577342229487
10595046 47 18407758135877998067
106641 1 12540704738545299148
11315181 36 18261111894585959303
11524674 6 16559031623273478639
11646440 116 16153431640399018556
11719270 70 17775566403839609846
12091667 2 17988640805404434031
12166972 35 18113338622212975172
12236239 1 18411136935110147212
12730499 353 17095522873149354538
12788726 201 17489310733042958755
12916748 109 16153422836100884436
13167372 99 18409449154924009044
13533116 47 16733253561652679250
1420 363 16081369644045783963
14251752 14 18131632270388591257
14251764 18 18335420183597054669
14849402 71 17968950814829423157
14856354 85 18271529784207196687
14933364 13 18409731763608269829
15048467 5 18411138017974902661
15183329 4 18408317783054374829
15537594 2 16773794800919647630
17093844 174 17346590885816398827
17834072 8 16200430269470949825
17844677 252 18201439224776412377
18006028 8 13686299080089255866
20281389 69 18343299271353637985
21792961 116 17703795790920638343
220451 1 18040150708219095746
221357 26 18113894966611962868
2215653 11 14405185066675003956
22224240 67 16587745335257252001
23035841 295 18343020003984797067
23081809 10 18412536622108086663
23198884 109 18261111885373591147
23402539 116 18413103965849630791
23522609 53 18263385662235068197
23536379 177 18410011030918977794
23559900 14 18261669401744983697
23569914 152 14111924197600048141
23569943 247 16879897561579010290
23622692 88 13479133514621117362
29717793 49 18131074823200736982
3004659 81 18342458128237371454
314173 85 15267345132200408755
3545911 37 17022620875487195634
397830 11 14924808841671451221
4073 2 17968101961966973586
4325135 7 18259984890308162287
4340502 62 15936407832406866442
445580 37 18060147513582985985
4463277 17 18202562890746210624
5265222 85 18129381673218964406
542803 24 18410852170257189646
5758199 1 17822013116032329418
59682541 35 15213030370744356017
59755656 215 15985111786443459956
59755656 520 17749105608191680075
6328613 192 18412826863756867065
9996256 80 18259700103531806190

> <PUBCHEM_SHAPE_MULTIPOLES>
438.79
20.03
1.58
0.99
0.66
0.37
0.12
3.93
-1.23
-1.54
-0.01
-0.1
0.05
-1.33

> <PUBCHEM_SHAPE_SELFOVERLAP>
953.844

> <PUBCHEM_SHAPE_VOLUME>
242.3

> <PUBCHEM_COORDINATE_TYPE>
2
5
10

$$$$
