75536060
  -OEChem-12032416413D

 54 57  0     1  0  0  0  0  0999 V2000
    3.9454   -2.8457    1.1418 O   0  0  0  0  0  0  0  0  0  0  0  0
    5.4194   -0.5292    1.1718 O   0  0  0  0  0  0  0  0  0  0  0  0
    0.1458   -0.2318    1.2704 O   0  0  0  0  0  0  0  0  0  0  0  0
   -2.3565    0.0599    0.3587 O   0  0  0  0  0  0  0  0  0  0  0  0
    1.4182   -1.5710   -0.1321 N   0  0  0  0  0  0  0  0  0  0  0  0
   -3.3800   -1.8872   -0.3510 N   0  0  0  0  0  0  0  0  0  0  0  0
    3.0678    0.1472   -0.8117 C   0  0  2  0  0  0  0  0  0  0  0  0
    2.6946   -0.9788    0.1788 C   0  0  2  0  0  0  0  0  0  0  0  0
    3.8396   -1.9793    0.0279 C   0  0  1  0  0  0  0  0  0  0  0  0
    4.6022    0.0444   -1.0096 C   0  0  0  0  0  0  0  0  0  0  0  0
    5.0673   -1.0844   -0.0917 C   0  0  1  0  0  0  0  0  0  0  0  0
    2.5863    1.5118   -0.3660 C   0  0  0  0  0  0  0  0  0  0  0  0
    1.7085    2.2559   -1.1542 C   0  0  0  0  0  0  0  0  0  0  0  0
    3.0333    2.0225    0.8525 C   0  0  0  0  0  0  0  0  0  0  0  0
    0.2330   -1.1408    0.4490 C   0  0  0  0  0  0  0  0  0  0  0  0
    1.2778    3.5108   -0.7239 C   0  0  0  0  0  0  0  0  0  0  0  0
    1.2162    1.7298   -2.4624 C   0  0  0  0  0  0  0  0  0  0  0  0
    2.6027    3.2776    1.2828 C   0  0  0  0  0  0  0  0  0  0  0  0
    1.7249    4.0217    0.4946 C   0  0  0  0  0  0  0  0  0  0  0  0
   -0.9947   -1.8721    0.0428 C   0  0  0  0  0  0  0  0  0  0  0  0
   -2.2378   -1.2608    0.0105 C   0  0  0  0  0  0  0  0  0  0  0  0
   -0.9189   -3.2125   -0.3193 C   0  0  0  0  0  0  0  0  0  0  0  0
   -2.0723   -3.8910   -0.6972 C   0  0  0  0  0  0  0  0  0  0  0  0
   -3.2672   -3.1894   -0.6963 C   0  0  0  0  0  0  0  0  0  0  0  0
   -3.6180    0.6180    0.3074 C   0  0  0  0  0  0  0  0  0  0  0  0
   -4.4437    0.5800    1.4310 C   0  0  0  0  0  0  0  0  0  0  0  0
   -4.0668    1.2200   -0.8679 C   0  0  0  0  0  0  0  0  0  0  0  0
   -5.7184    1.1441    1.3792 C   0  0  0  0  0  0  0  0  0  0  0  0
   -5.3415    1.7840   -0.9198 C   0  0  0  0  0  0  0  0  0  0  0  0
   -6.1674    1.7460    0.2037 C   0  0  0  0  0  0  0  0  0  0  0  0
    2.6335   -0.1150   -1.7825 H   0  0  0  0  0  0  0  0  0  0  0  0
    2.6520   -0.6306    1.2180 H   0  0  0  0  0  0  0  0  0  0  0  0
    3.7143   -2.5852   -0.8785 H   0  0  0  0  0  0  0  0  0  0  0  0
    5.1255    0.9869   -0.8162 H   0  0  0  0  0  0  0  0  0  0  0  0
    4.7997   -0.2340   -2.0526 H   0  0  0  0  0  0  0  0  0  0  0  0
    5.9380   -1.6224   -0.4782 H   0  0  0  0  0  0  0  0  0  0  0  0
    1.3963   -2.2694   -0.8685 H   0  0  0  0  0  0  0  0  0  0  0  0
    4.7456   -3.3840    1.0179 H   0  0  0  0  0  0  0  0  0  0  0  0
    6.1797    0.0602    1.0302 H   0  0  0  0  0  0  0  0  0  0  0  0
    3.7189    1.4669    1.4841 H   0  0  0  0  0  0  0  0  0  0  0  0
    0.5937    4.1038   -1.3252 H   0  0  0  0  0  0  0  0  0  0  0  0
    2.0485    1.5614   -3.1538 H   0  0  0  0  0  0  0  0  0  0  0  0
    0.6492    0.8037   -2.3219 H   0  0  0  0  0  0  0  0  0  0  0  0
    0.5403    2.4411   -2.9510 H   0  0  0  0  0  0  0  0  0  0  0  0
    2.9512    3.6758    2.2313 H   0  0  0  0  0  0  0  0  0  0  0  0
    1.3896    4.9989    0.8298 H   0  0  0  0  0  0  0  0  0  0  0  0
    0.0147   -3.7668   -0.2938 H   0  0  0  0  0  0  0  0  0  0  0  0
   -2.0386   -4.9375   -0.9775 H   0  0  0  0  0  0  0  0  0  0  0  0
   -4.1956   -3.6731   -0.9813 H   0  0  0  0  0  0  0  0  0  0  0  0
   -4.0998    0.1137    2.3503 H   0  0  0  0  0  0  0  0  0  0  0  0
   -3.4281    1.2544   -1.7463 H   0  0  0  0  0  0  0  0  0  0  0  0
   -6.3612    1.1146    2.2541 H   0  0  0  0  0  0  0  0  0  0  0  0
   -5.6909    2.2530   -1.8349 H   0  0  0  0  0  0  0  0  0  0  0  0
   -7.1598    2.1852    0.1633 H   0  0  0  0  0  0  0  0  0  0  0  0
  1  9  1  0  0  0  0
  1 38  1  0  0  0  0
  2 11  1  0  0  0  0
  2 39  1  0  0  0  0
  3 15  2  0  0  0  0
  4 21  1  0  0  0  0
  4 25  1  0  0  0  0
  5  8  1  0  0  0  0
  5 15  1  0  0  0  0
  5 37  1  0  0  0  0
  6 21  1  0  0  0  0
  6 24  2  0  0  0  0
  7  8  1  0  0  0  0
  7 10  1  0  0  0  0
  7 12  1  0  0  0  0
  7 31  1  0  0  0  0
  8  9  1  0  0  0  0
  8 32  1  0  0  0  0
  9 11  1  0  0  0  0
  9 33  1  0  0  0  0
 10 11  1  0  0  0  0
 10 34  1  0  0  0  0
 10 35  1  0  0  0  0
 11 36  1  0  0  0  0
 12 13  1  0  0  0  0
 12 14  2  0  0  0  0
 13 16  2  0  0  0  0
 13 17  1  0  0  0  0
 14 18  1  0  0  0  0
 14 40  1  0  0  0  0
 15 20  1  0  0  0  0
 16 19  1  0  0  0  0
 16 41  1  0  0  0  0
 17 42  1  0  0  0  0
 17 43  1  0  0  0  0
 17 44  1  0  0  0  0
 18 19  2  0  0  0  0
 18 45  1  0  0  0  0
 19 46  1  0  0  0  0
 20 21  2  0  0  0  0
 20 22  1  0  0  0  0
 22 23  2  0  0  0  0
 22 47  1  0  0  0  0
 23 24  1  0  0  0  0
 23 48  1  0  0  0  0
 24 49  1  0  0  0  0
 25 26  2  0  0  0  0
 25 27  1  0  0  0  0
 26 28  1  0  0  0  0
 26 50  1  0  0  0  0
 27 29  2  0  0  0  0
 27 51  1  0  0  0  0
 28 30  2  0  0  0  0
 28 52  1  0  0  0  0
 29 30  1  0  0  0  0
 29 53  1  0  0  0  0
 30 54  1  0  0  0  0
M  END
> <PUBCHEM_COMPOUND_CID>
75536060

> <PUBCHEM_CONFORMER_RMSD>
0.8

> <PUBCHEM_CONFORMER_DIVERSEORDER>
3
185
80
49
14
156
224
92
71
6
221
169
262
165
208
252
72
123
193
116
16
264
154
31
255
146
23
220
122
242
276
209
274
254
214
139
77
170
261
183
248
181
158
41
93
50
121
96
218
111
164
198
82
263
42
30
271
98
175
205
256
46
94
206
266
268
107
62
8
203
237
120
99
22
65
138
37
250
15
109
186
106
153
229
44
233
260
272
270
211
67
51
5
79
172
162
204
84
231
105
118
157
113
151
64
78
91
226
110
103
277
104
59
75
21
86
136
166
56
238
230
7
245
195
128
142
236
52
90
112
155
95
66
275
258
145
101
100
74
247
115
140
219
199
1
4
29
12
143
40
168
241
150
39
188
222
217
234
83
17
216
117
189
11
152
190
45
13
244
180
192
207
269
135
240
225
125
81
202
55
124
87
76
70
108
148
215
147
223
213
177
251
265
273
171
133
161
259
174
24
9
246
61
131
48
194
159
97
167
130
126
63
53
18
235
232
88
144
73
196
212
69
47
68
200
132
114
54
89
27
129
137
119
191
243
278
187
163
33
249
141
2
134
267
38
197
173
85
182
201
102
34
36
228
26
57
127
160
58
60
43
178
176
149
10
20
35
210
257
28
184
179
32
19
239
253
227
25

> <PUBCHEM_MMFF94_PARTIAL_CHARGES>
44
1 -0.68
11 0.28
12 -0.14
13 -0.14
14 -0.15
15 0.54
16 -0.15
17 0.14
18 -0.15
19 -0.15
2 -0.68
20 0.09
21 0.39
22 -0.15
23 -0.15
24 0.16
25 0.08
26 -0.15
27 -0.15
28 -0.15
29 -0.15
3 -0.57
30 -0.15
37 0.37
38 0.4
39 0.4
4 -0.17
40 0.15
41 0.15
45 0.15
46 0.15
47 0.15
48 0.15
49 0.15
5 -0.73
50 0.15
51 0.15
52 0.15
53 0.15
54 0.15
6 -0.62
7 0.14
8 0.3
9 0.28

> <PUBCHEM_EFFECTIVE_ROTOR_COUNT>
7

> <PUBCHEM_PHARMACOPHORE_FEATURES>
12
1 1 acceptor
1 1 donor
1 2 acceptor
1 2 donor
1 3 acceptor
1 4 acceptor
1 5 donor
1 6 acceptor
5 7 8 9 10 11 rings
6 12 13 14 16 18 19 rings
6 25 26 27 28 29 30 rings
6 6 20 21 22 23 24 rings

> <PUBCHEM_HEAVY_ATOM_COUNT>
30

> <PUBCHEM_ATOM_DEF_STEREO_COUNT>
4

> <PUBCHEM_ATOM_UDEF_STEREO_COUNT>
0

> <PUBCHEM_BOND_DEF_STEREO_COUNT>
0

> <PUBCHEM_BOND_UDEF_STEREO_COUNT>
0

> <PUBCHEM_ISOTOPIC_ATOM_COUNT>
0

> <PUBCHEM_COMPONENT_COUNT>
1

> <PUBCHEM_CACTVS_TAUTO_COUNT>
2

> <PUBCHEM_CONFORMER_ID>
048096BC00000003

> <PUBCHEM_MMFF94_ENERGY>
100.4431

> <PUBCHEM_FEATURE_SELFOVERLAP>
60.965

> <PUBCHEM_SHAPE_FINGERPRINT>
1100329 8 18412265034288191385
11405975 8 18341333387322638147
11421498 54 12685089263746117412
11578080 2 17987226906027845160
11582403 64 16409569712242154136
12633257 1 18412265025497959325
12788726 201 18118689808177468306
13004483 165 18190735333256859866
13402501 40 18115305553925468197
14117953 113 18196653982304584055
144659 39 17631738291171401349
14955137 171 18264786375740019571
150020 26 18115041735495598101
15420108 30 18056744641755000538
1601671 61 18410294679602918334
17492 89 18122905588676524766
17980427 23 18130776871975442742
18335252 114 18266451006838747261
19319366 153 17894913975671099210
20691752 17 17386555985854585320
20715895 44 18271808982402600521
21033648 144 18340476850727552829
21033648 29 17894901907071408221
21133410 127 17826506962365374661
22113638 7 18411139104190172021
22393880 68 18127143085162317244
23227448 37 18411984680720198199
23558518 356 18119247504716103387
23559900 14 17988929959656478454
249057 3 18413110545776743703
3178227 256 18337122159600159609
3388396 114 17693646426691772365
340366 18 18410579487136543159
345986 75 17680130903582992562
350125 39 18411142476346368579
460360 51 18339645671581738435
508706 21 17749101210703961261
5252454 2 18121243092814489661
6371009 1 18270677568080022969
8509985 295 18336268950976577476
9981440 41 17399511720258998032

> <PUBCHEM_SHAPE_MULTIPOLES>
583.95
12.11
4.9
1.39
8.75
0.19
-0.26
-2.56
1.9
-0.47
-0.28
-0.17
-0.72
-0.89

> <PUBCHEM_SHAPE_SELFOVERLAP>
1273.591

> <PUBCHEM_SHAPE_VOLUME>
316

> <PUBCHEM_COORDINATE_TYPE>
2
5
10

$$$$
