7674049
  -OEChem-12032416353D

 65 68  0     1  0  0  0  0  0999 V2000
   -3.1768    1.3293   -1.7227 S   0  0  0  0  0  0  0  0  0  0  0  0
    4.6262   -0.1518    1.0687 S   0  0  0  0  0  0  0  0  0  0  0  0
   -4.8329    5.4339    2.1706 F   0  0  0  0  0  0  0  0  0  0  0  0
   -4.0557    0.1899   -1.5645 O   0  0  0  0  0  0  0  0  0  0  0  0
   -3.0180    1.9744   -3.0089 O   0  0  0  0  0  0  0  0  0  0  0  0
   -0.7330   -1.5049   -1.5765 O   0  0  0  0  0  0  0  0  0  0  0  0
    2.0491   -0.5807    1.9456 O   0  0  0  0  0  0  0  0  0  0  0  0
   -4.4558   -3.6553   -0.0279 O   0  0  0  0  0  0  0  0  0  0  0  0
    4.5999   -1.6027    0.9365 O   0  0  0  0  0  0  0  0  0  0  0  0
    4.6946    0.4496    2.3941 O   0  0  0  0  0  0  0  0  0  0  0  0
   -1.6322    0.9348   -1.1034 N   0  0  2  0  0  0  0  0  0  0  0  0
    0.7940    0.6254    0.4026 N   0  0  0  0  0  0  0  0  0  0  0  0
   -2.0647   -2.3422    0.1393 N   0  0  0  0  0  0  0  0  0  0  0  0
   -3.4450   -5.6681    0.3524 N   0  0  0  0  0  0  0  0  0  0  0  0
   -1.5951    0.0017    0.0576 C   0  0  2  0  0  0  0  0  0  0  0  0
   -0.4822    0.3225    1.0522 C   0  0  0  0  0  0  0  0  0  0  0  0
   -0.6501    2.0478   -1.0382 C   0  0  0  0  0  0  0  0  0  0  0  0
    0.7384    1.4743   -0.7905 C   0  0  0  0  0  0  0  0  0  0  0  0
   -1.3998   -1.3476   -0.5572 C   0  0  0  0  0  0  0  0  0  0  0  0
   -2.0543   -3.7255   -0.2603 C   0  0  1  0  0  0  0  0  0  0  0  0
   -0.8834   -4.4641    0.3731 C   0  0  0  0  0  0  0  0  0  0  0  0
    1.9839    0.1341    0.9432 C   0  0  0  0  0  0  0  0  0  0  0  0
   -0.9982   -5.9507    0.0773 C   0  0  0  0  0  0  0  0  0  0  0  0
   -3.6728    2.5587   -0.5565 C   0  0  0  0  0  0  0  0  0  0  0  0
    3.2514    0.5305    0.2251 C   0  0  0  0  0  0  0  0  0  0  0  0
   -3.4208   -4.3185    0.0646 C   0  0  0  0  0  0  0  0  0  0  0  0
   -2.2864   -6.4782    0.6803 C   0  0  0  0  0  0  0  0  0  0  0  0
   -3.3724    3.9011   -0.7880 C   0  0  0  0  0  0  0  0  0  0  0  0
   -4.3650    2.1875    0.5963 C   0  0  0  0  0  0  0  0  0  0  0  0
    6.0325    0.4140    0.1522 C   0  0  0  0  0  0  0  0  0  0  0  0
   -3.7643    4.8722    0.1333 C   0  0  0  0  0  0  0  0  0  0  0  0
   -4.7568    3.1588    1.5174 C   0  0  0  0  0  0  0  0  0  0  0  0
   -4.4565    4.5012    1.2860 C   0  0  0  0  0  0  0  0  0  0  0  0
    6.6457    1.6205    0.4900 C   0  0  0  0  0  0  0  0  0  0  0  0
    6.5260   -0.3460   -0.9081 C   0  0  0  0  0  0  0  0  0  0  0  0
    7.7522    2.0670   -0.2325 C   0  0  0  0  0  0  0  0  0  0  0  0
    7.6326    0.1003   -1.6306 C   0  0  0  0  0  0  0  0  0  0  0  0
    8.2456    1.3069   -1.2927 C   0  0  0  0  0  0  0  0  0  0  0  0
   -2.5432    0.0242    0.6024 H   0  0  0  0  0  0  0  0  0  0  0  0
   -0.3562   -0.4976    1.7678 H   0  0  0  0  0  0  0  0  0  0  0  0
   -0.7483    1.2130    1.6356 H   0  0  0  0  0  0  0  0  0  0  0  0
   -0.6383    2.6001   -1.9832 H   0  0  0  0  0  0  0  0  0  0  0  0
   -0.9058    2.7395   -0.2293 H   0  0  0  0  0  0  0  0  0  0  0  0
    1.4594    2.2907   -0.6843 H   0  0  0  0  0  0  0  0  0  0  0  0
    1.0553    0.8577   -1.6399 H   0  0  0  0  0  0  0  0  0  0  0  0
   -1.9521   -3.7704   -1.3526 H   0  0  0  0  0  0  0  0  0  0  0  0
   -2.5625   -2.1003    0.9917 H   0  0  0  0  0  0  0  0  0  0  0  0
    0.0649   -4.0770   -0.0185 H   0  0  0  0  0  0  0  0  0  0  0  0
   -0.8661   -4.3010    1.4587 H   0  0  0  0  0  0  0  0  0  0  0  0
   -0.1407   -6.4916    0.4917 H   0  0  0  0  0  0  0  0  0  0  0  0
   -0.9953   -6.1145   -1.0073 H   0  0  0  0  0  0  0  0  0  0  0  0
    3.2436    0.1426   -0.7963 H   0  0  0  0  0  0  0  0  0  0  0  0
    3.3644    1.6172    0.2324 H   0  0  0  0  0  0  0  0  0  0  0  0
   -2.2164   -6.4979    1.7735 H   0  0  0  0  0  0  0  0  0  0  0  0
   -2.4859   -7.4989    0.3391 H   0  0  0  0  0  0  0  0  0  0  0  0
   -4.3561   -6.0862    0.5137 H   0  0  0  0  0  0  0  0  0  0  0  0
   -2.8328    4.2133   -1.6775 H   0  0  0  0  0  0  0  0  0  0  0  0
   -4.6155    1.1501    0.7971 H   0  0  0  0  0  0  0  0  0  0  0  0
   -3.5301    5.9174   -0.0461 H   0  0  0  0  0  0  0  0  0  0  0  0
   -5.2968    2.8707    2.4146 H   0  0  0  0  0  0  0  0  0  0  0  0
    6.2730    2.2311    1.3075 H   0  0  0  0  0  0  0  0  0  0  0  0
    6.0592   -1.2845   -1.1933 H   0  0  0  0  0  0  0  0  0  0  0  0
    8.2286    3.0073    0.0292 H   0  0  0  0  0  0  0  0  0  0  0  0
    8.0158   -0.4904   -2.4575 H   0  0  0  0  0  0  0  0  0  0  0  0
    9.1066    1.6548   -1.8560 H   0  0  0  0  0  0  0  0  0  0  0  0
  1  4  2  0  0  0  0
  1  5  2  0  0  0  0
  1 11  1  0  0  0  0
  1 24  1  0  0  0  0
  2  9  2  0  0  0  0
  2 10  2  0  0  0  0
  2 25  1  0  0  0  0
  2 30  1  0  0  0  0
  3 33  1  0  0  0  0
  6 19  2  0  0  0  0
  7 22  2  0  0  0  0
  8 26  2  0  0  0  0
 11 15  1  0  0  0  0
 11 17  1  0  0  0  0
 12 16  1  0  0  0  0
 12 18  1  0  0  0  0
 12 22  1  0  0  0  0
 13 19  1  0  0  0  0
 13 20  1  0  0  0  0
 13 47  1  0  0  0  0
 14 26  1  0  0  0  0
 14 27  1  0  0  0  0
 14 56  1  0  0  0  0
 15 16  1  0  0  0  0
 15 19  1  0  0  0  0
 15 39  1  0  0  0  0
 16 40  1  0  0  0  0
 16 41  1  0  0  0  0
 17 18  1  0  0  0  0
 17 42  1  0  0  0  0
 17 43  1  0  0  0  0
 18 44  1  0  0  0  0
 18 45  1  0  0  0  0
 20 21  1  0  0  0  0
 20 26  1  0  0  0  0
 20 46  1  0  0  0  0
 21 23  1  0  0  0  0
 21 48  1  0  0  0  0
 21 49  1  0  0  0  0
 22 25  1  0  0  0  0
 23 27  1  0  0  0  0
 23 50  1  0  0  0  0
 23 51  1  0  0  0  0
 24 28  2  0  0  0  0
 24 29  1  0  0  0  0
 25 52  1  0  0  0  0
 25 53  1  0  0  0  0
 27 54  1  0  0  0  0
 27 55  1  0  0  0  0
 28 31  1  0  0  0  0
 28 57  1  0  0  0  0
 29 32  2  0  0  0  0
 29 58  1  0  0  0  0
 30 34  2  0  0  0  0
 30 35  1  0  0  0  0
 31 33  2  0  0  0  0
 31 59  1  0  0  0  0
 32 33  1  0  0  0  0
 32 60  1  0  0  0  0
 34 36  1  0  0  0  0
 34 61  1  0  0  0  0
 35 37  2  0  0  0  0
 35 62  1  0  0  0  0
 36 38  2  0  0  0  0
 36 63  1  0  0  0  0
 37 38  1  0  0  0  0
 37 64  1  0  0  0  0
 38 65  1  0  0  0  0
M  END
> <PUBCHEM_COMPOUND_CID>
7674049

> <PUBCHEM_CONFORMER_RMSD>
1.4

> <PUBCHEM_CONFORMER_DIVERSEORDER>
1
61
25
55
150
155
134
113
93
154
91
99
95
116
170
66
48
152
82
131
143
18
120
106
33
94
83
42
70
74
159
149
28
60
69
84
111
147
160
119
140
15
35
88
114
118
125
90
38
153
115
136
56
169
12
135
39
104
63
10
59
89
34
110
108
45
36
53
73
109
145
24
65
62
23
80
50
22
14
58
132
161
64
85
87
168
13
102
68
148
5
37
103
96
79
43
130
151
78
67
157
86
44
41
81
128
167
138
57
144
163
7
158
76
121
129
26
75
77
71
47
165
164
133
27
30
127
166
72
19
97
54
9
32
112
101
52
2
146
40
142
141
98
122
100
139
105
6
117
123
16
29
46
21
124
11
31
126
3
51
107
17
4
162
156
49
20
92
8
137

> <PUBCHEM_MMFF94_PARTIAL_CHARGES>
47
1 1.45
10 -0.65
11 -0.85
12 -0.66
13 -0.73
14 -0.73
15 0.42
16 0.3
17 0.36
18 0.3
19 0.57
2 1.2
20 0.36
22 0.57
24 -0.01
25 0.17
26 0.57
27 0.3
28 -0.15
29 -0.15
3 -0.19
30 -0.01
31 -0.15
32 -0.15
33 0.19
34 -0.15
35 -0.15
36 -0.15
37 -0.15
38 -0.15
4 -0.65
47 0.37
5 -0.65
56 0.37
57 0.15
58 0.15
59 0.15
6 -0.57
60 0.15
61 0.15
62 0.15
63 0.15
64 0.15
65 0.15
7 -0.57
8 -0.57
9 -0.65

> <PUBCHEM_EFFECTIVE_ROTOR_COUNT>
11.2

> <PUBCHEM_PHARMACOPHORE_FEATURES>
13
1 10 acceptor
1 13 donor
1 14 donor
1 4 acceptor
1 5 acceptor
1 6 acceptor
1 7 acceptor
1 8 acceptor
1 9 acceptor
6 11 12 15 16 17 18 rings
6 14 20 21 23 26 27 rings
6 24 28 29 31 32 33 rings
6 30 34 35 36 37 38 rings

> <PUBCHEM_HEAVY_ATOM_COUNT>
38

> <PUBCHEM_ATOM_DEF_STEREO_COUNT>
2

> <PUBCHEM_ATOM_UDEF_STEREO_COUNT>
0

> <PUBCHEM_BOND_DEF_STEREO_COUNT>
0

> <PUBCHEM_BOND_UDEF_STEREO_COUNT>
0

> <PUBCHEM_ISOTOPIC_ATOM_COUNT>
0

> <PUBCHEM_COMPONENT_COUNT>
1

> <PUBCHEM_CACTVS_TAUTO_COUNT>
4

> <PUBCHEM_CONFORMER_ID>
007518C100000001

> <PUBCHEM_MMFF94_ENERGY>
72.6965

> <PUBCHEM_FEATURE_SELFOVERLAP>
66.016

> <PUBCHEM_SHAPE_FINGERPRINT>
10010297 198 17620187638313066937
10369192 42 18338527318017571049
11007060 377 18272082790583522225
11062273 29 17475508378748161262
11331351 85 17907867545649155863
11445158 3 14274041938580466758
11607047 74 9145619497184129467
12758862 56 17902788905804648067
12788726 201 18042952354078282658
13690498 29 18266456701749214310
13757389 114 18410299098676087644
14114211 80 18338517409116140242
14790565 3 18194396680463601992
14856354 85 18341896315828149317
15064981 194 18263086655154350276
15230672 131 18265337214656306062
15361156 5 18129940216757038142
15400415 2 18265892458820745640
15927050 60 18270116782605749319
16090146 7 18335976498396093181
16992752 21 18048043149460791822
17980427 26 17765708032555994117
18393751 57 18263929830802789065
19304152 47 18266753381153421785
21033650 10 17989481896712521968
21120745 212 18191586560655299181
21716022 299 17248372825855556846
22440779 20 18126845121273387482
255183 451 17470725975741344775
3418910 222 17974847586690782348
4058900 60 18055076458296423889
4144715 1 18270683181718674104
4403749 210 18335424526532554369
44280117 145 18265339581398693796
44880568 143 18338530742045412348
504843 32 18336543829036398333
563151 97 18194671580679423909
57634706 229 18271821072456594152
57816373 69 17622161694986427479
5912855 24 18259978280454156130
6700243 42 17910150054647190270
6703917 75 18340780243049124625
6898599 12 18260259768331112252
79837 15 18411693267152130683

> <PUBCHEM_SHAPE_MULTIPOLES>
721.44
17.33
9
1.79
46.28
12.83
0.2
-13.83
1.57
-22.05
-2.57
-0.26
-1.48
-1.6

> <PUBCHEM_SHAPE_SELFOVERLAP>
1511.319

> <PUBCHEM_SHAPE_VOLUME>
407.4

> <PUBCHEM_COORDINATE_TYPE>
2
5
10

$$$$
