45360397
  -OEChem-12032416213D

 69 72  0     1  0  0  0  0  0999 V2000
    2.1699   -4.2051   -1.7117 F   0  0  0  0  0  0  0  0  0  0  0  0
    2.0357   -2.0274   -1.5876 F   0  0  0  0  0  0  0  0  0  0  0  0
    3.8753   -3.0719   -0.9476 F   0  0  0  0  0  0  0  0  0  0  0  0
   -4.6946    2.5853   -2.2173 O   0  0  0  0  0  0  0  0  0  0  0  0
   -4.5438   -2.8143    0.2481 O   0  0  0  0  0  0  0  0  0  0  0  0
   -2.7336    3.8024    0.6702 O   0  0  0  0  0  0  0  0  0  0  0  0
    3.3007    1.9117    0.4485 O   0  0  0  0  0  0  0  0  0  0  0  0
    1.9906   -3.2676    0.3336 O   0  0  0  0  0  0  0  0  0  0  0  0
    7.3530    0.1615    0.3662 O   0  0  0  0  0  0  0  0  0  0  0  0
   -5.2954   -0.6608    0.6239 N   0  0  0  0  0  0  0  0  0  0  0  0
   -3.0371    1.5866    0.0608 N   0  0  0  0  0  0  0  0  0  0  0  0
   -3.1299   -1.3103    1.3136 N   0  0  0  0  0  0  0  0  0  0  0  0
    7.5244    1.3297   -0.3664 N   0  0  0  0  0  0  0  0  0  0  0  0
   -4.4842    1.6352   -0.0206 C   0  0  1  0  0  0  0  0  0  0  0  0
   -4.9121    1.3764   -1.4769 C   0  0  1  0  0  0  0  0  0  0  0  0
   -6.3787    0.9840   -1.6801 C   0  0  0  0  0  0  0  0  0  0  0  0
   -5.1156    0.7342    1.0483 C   0  0  0  0  0  0  0  0  0  0  0  0
   -6.6422   -0.5077   -1.4621 C   0  0  0  0  0  0  0  0  0  0  0  0
   -6.5843   -0.9532   -0.0060 C   0  0  0  0  0  0  0  0  0  0  0  0
   -4.3239   -1.6878    0.6998 C   0  0  0  0  0  0  0  0  0  0  0  0
   -2.2814    2.6919    0.4042 C   0  0  0  0  0  0  0  0  0  0  0  0
   -0.8103    2.4852    0.4171 C   0  0  0  0  0  0  0  0  0  0  0  0
   -1.8262   -1.8089    1.0637 C   0  0  0  0  0  0  0  0  0  0  0  0
   -0.0031    3.2690    1.2416 C   0  0  0  0  0  0  0  0  0  0  0  0
   -0.2360    1.5087   -0.3967 C   0  0  0  0  0  0  0  0  0  0  0  0
   -0.7393   -1.3085    1.7807 C   0  0  0  0  0  0  0  0  0  0  0  0
   -1.6305   -2.7995    0.1015 C   0  0  0  0  0  0  0  0  0  0  0  0
    1.3783    3.0766    1.2522 C   0  0  0  0  0  0  0  0  0  0  0  0
    1.1454    1.3161   -0.3863 C   0  0  0  0  0  0  0  0  0  0  0  0
    1.9525    2.1001    0.4382 C   0  0  0  0  0  0  0  0  0  0  0  0
    0.5433   -1.7986    1.5353 C   0  0  0  0  0  0  0  0  0  0  0  0
   -0.3479   -3.2897   -0.1440 C   0  0  0  0  0  0  0  0  0  0  0  0
    0.7390   -2.7891    0.5728 C   0  0  0  0  0  0  0  0  0  0  0  0
    3.8205    0.8962   -0.4084 C   0  0  0  0  0  0  0  0  0  0  0  0
    5.3086    0.8205   -0.2319 C   0  0  0  0  0  0  0  0  0  0  0  0
    6.0293   -0.1315    0.4393 C   0  0  0  0  0  0  0  0  0  0  0  0
    6.2897    1.7048   -0.7128 C   0  0  0  0  0  0  0  0  0  0  0  0
    5.6702   -1.3450    1.1847 C   0  0  0  0  0  0  0  0  0  0  0  0
    6.0972    2.9275   -1.5107 C   0  0  0  0  0  0  0  0  0  0  0  0
    2.5267   -3.1269   -0.9772 C   0  0  0  0  0  0  0  0  0  0  0  0
   -4.7830    2.6600    0.2363 H   0  0  0  0  0  0  0  0  0  0  0  0
   -4.2633    0.6160   -1.9303 H   0  0  0  0  0  0  0  0  0  0  0  0
   -7.0332    1.5936   -1.0451 H   0  0  0  0  0  0  0  0  0  0  0  0
   -6.6724    1.2210   -2.7113 H   0  0  0  0  0  0  0  0  0  0  0  0
   -4.5405    0.7744    1.9782 H   0  0  0  0  0  0  0  0  0  0  0  0
   -6.1051    1.1302    1.3096 H   0  0  0  0  0  0  0  0  0  0  0  0
   -5.9308   -1.0941   -2.0568 H   0  0  0  0  0  0  0  0  0  0  0  0
   -7.6406   -0.7440   -1.8502 H   0  0  0  0  0  0  0  0  0  0  0  0
   -7.3790   -0.4744    0.5781 H   0  0  0  0  0  0  0  0  0  0  0  0
   -6.7790   -2.0307    0.0385 H   0  0  0  0  0  0  0  0  0  0  0  0
   -2.6004    0.6866   -0.1039 H   0  0  0  0  0  0  0  0  0  0  0  0
   -4.8386    2.3847   -3.1579 H   0  0  0  0  0  0  0  0  0  0  0  0
   -3.1599   -0.5495    1.9834 H   0  0  0  0  0  0  0  0  0  0  0  0
   -0.4327    4.0316    1.8858 H   0  0  0  0  0  0  0  0  0  0  0  0
   -0.8239    0.9000   -1.0775 H   0  0  0  0  0  0  0  0  0  0  0  0
   -0.8777   -0.5352    2.5319 H   0  0  0  0  0  0  0  0  0  0  0  0
   -2.4314   -3.2093   -0.5015 H   0  0  0  0  0  0  0  0  0  0  0  0
    2.0022    3.6893    1.8972 H   0  0  0  0  0  0  0  0  0  0  0  0
    1.5228    0.5485   -1.0525 H   0  0  0  0  0  0  0  0  0  0  0  0
    1.3867   -1.4032    2.0948 H   0  0  0  0  0  0  0  0  0  0  0  0
   -0.2113   -4.0634   -0.8942 H   0  0  0  0  0  0  0  0  0  0  0  0
    3.3895   -0.0803   -0.1565 H   0  0  0  0  0  0  0  0  0  0  0  0
    3.6159    1.1371   -1.4596 H   0  0  0  0  0  0  0  0  0  0  0  0
    4.6096   -1.3557    1.4529 H   0  0  0  0  0  0  0  0  0  0  0  0
    6.2472   -1.4144    2.1123 H   0  0  0  0  0  0  0  0  0  0  0  0
    5.8805   -2.2360    0.5857 H   0  0  0  0  0  0  0  0  0  0  0  0
    5.6418    2.6870   -2.4768 H   0  0  0  0  0  0  0  0  0  0  0  0
    7.0442    3.4417   -1.7061 H   0  0  0  0  0  0  0  0  0  0  0  0
    5.4392    3.6289   -0.9874 H   0  0  0  0  0  0  0  0  0  0  0  0
  1 40  1  0  0  0  0
  2 40  1  0  0  0  0
  3 40  1  0  0  0  0
  4 15  1  0  0  0  0
  4 52  1  0  0  0  0
  5 20  2  0  0  0  0
  6 21  2  0  0  0  0
  7 30  1  0  0  0  0
  7 34  1  0  0  0  0
  8 33  1  0  0  0  0
  8 40  1  0  0  0  0
  9 13  1  0  0  0  0
  9 36  1  0  0  0  0
 10 17  1  0  0  0  0
 10 19  1  0  0  0  0
 10 20  1  0  0  0  0
 11 14  1  0  0  0  0
 11 21  1  0  0  0  0
 11 51  1  0  0  0  0
 12 20  1  0  0  0  0
 12 23  1  0  0  0  0
 12 53  1  0  0  0  0
 13 37  2  0  0  0  0
 14 15  1  0  0  0  0
 14 17  1  0  0  0  0
 14 41  1  0  0  0  0
 15 16  1  0  0  0  0
 15 42  1  0  0  0  0
 16 18  1  0  0  0  0
 16 43  1  0  0  0  0
 16 44  1  0  0  0  0
 17 45  1  0  0  0  0
 17 46  1  0  0  0  0
 18 19  1  0  0  0  0
 18 47  1  0  0  0  0
 18 48  1  0  0  0  0
 19 49  1  0  0  0  0
 19 50  1  0  0  0  0
 21 22  1  0  0  0  0
 22 24  2  0  0  0  0
 22 25  1  0  0  0  0
 23 26  2  0  0  0  0
 23 27  1  0  0  0  0
 24 28  1  0  0  0  0
 24 54  1  0  0  0  0
 25 29  2  0  0  0  0
 25 55  1  0  0  0  0
 26 31  1  0  0  0  0
 26 56  1  0  0  0  0
 27 32  2  0  0  0  0
 27 57  1  0  0  0  0
 28 30  2  0  0  0  0
 28 58  1  0  0  0  0
 29 30  1  0  0  0  0
 29 59  1  0  0  0  0
 31 33  2  0  0  0  0
 31 60  1  0  0  0  0
 32 33  1  0  0  0  0
 32 61  1  0  0  0  0
 34 35  1  0  0  0  0
 34 62  1  0  0  0  0
 34 63  1  0  0  0  0
 35 36  2  0  0  0  0
 35 37  1  0  0  0  0
 36 38  1  0  0  0  0
 37 39  1  0  0  0  0
 38 64  1  0  0  0  0
 38 65  1  0  0  0  0
 38 66  1  0  0  0  0
 39 67  1  0  0  0  0
 39 68  1  0  0  0  0
 39 69  1  0  0  0  0
M  END
> <PUBCHEM_COMPOUND_CID>
45360397

> <PUBCHEM_CONFORMER_RMSD>
1.2

> <PUBCHEM_CONFORMER_DIVERSEORDER>
1
57
68
53
69
70
38
55
25
82
77
54
34
17
18
80
64
33
74
71
67
9
16
66
41
50
37
8
48
76
36
19
73
22
21
44
79
56
24
65
20
2
72
47
39
5
27
58
78
14
11
62
75
49
51
32
28
40
60
23
15
12
52
59
61
46
45
31
42
30
6
10
43
63
29
7
81
4
3
26
35
13

> <PUBCHEM_MMFF94_PARTIAL_CHARGES>
49
1 -0.34
10 -0.66
11 -0.73
12 -0.55
13 -0.41
14 0.3
15 0.28
17 0.3
19 0.3
2 -0.34
20 0.69
21 0.54
22 0.09
23 0.12
24 -0.15
25 -0.15
26 -0.15
27 -0.15
28 -0.15
29 -0.15
3 -0.34
30 0.08
31 -0.15
32 -0.15
33 0.08
34 0.46
35 -0.18
36 -0.04
37 0.11
38 0.18
39 0.18
4 -0.68
40 1.3
5 -0.57
51 0.37
52 0.4
53 0.37
54 0.15
55 0.15
56 0.15
57 0.15
58 0.15
59 0.15
6 -0.57
60 0.15
61 0.15
7 -0.36
8 -0.36
9 -0.02

> <PUBCHEM_EFFECTIVE_ROTOR_COUNT>
12.4

> <PUBCHEM_PHARMACOPHORE_FEATURES>
13
1 11 donor
1 12 donor
1 13 acceptor
1 4 acceptor
1 4 donor
1 5 acceptor
1 6 acceptor
1 7 acceptor
1 8 acceptor
5 9 13 35 36 37 rings
6 22 24 25 28 29 30 rings
6 23 26 27 31 32 33 rings
7 10 14 15 16 17 18 19 rings

> <PUBCHEM_HEAVY_ATOM_COUNT>
40

> <PUBCHEM_ATOM_DEF_STEREO_COUNT>
2

> <PUBCHEM_ATOM_UDEF_STEREO_COUNT>
0

> <PUBCHEM_BOND_DEF_STEREO_COUNT>
0

> <PUBCHEM_BOND_UDEF_STEREO_COUNT>
0

> <PUBCHEM_ISOTOPIC_ATOM_COUNT>
0

> <PUBCHEM_COMPONENT_COUNT>
1

> <PUBCHEM_CACTVS_TAUTO_COUNT>
4

> <PUBCHEM_CONFORMER_ID>
02B4250D00000001

> <PUBCHEM_MMFF94_ENERGY>
107.2521

> <PUBCHEM_FEATURE_SELFOVERLAP>
65.977

> <PUBCHEM_SHAPE_FINGERPRINT>
10483366 6 18411414038448616769
10939801 23 18265336295564433720
11135926 11 18409730634570285337
11136131 41 18262511482267479506
11170278 133 17759826010483774164
11513181 2 17986397693856181199
11578080 2 16806703120353178599
11763389 116 18343590638020028142
13402501 40 18410578421905500120
13811026 1 18413106139831459450
15183329 4 18334574676551565656
15351339 4 18410288069315707195
15890870 6 18335419088343938422
15968369 153 18201705263540193928
20609170 92 18334017164417040476
20721686 56 18408892823916215435
20764821 26 18267888102647763482
21133410 38 18057619685143034995
23559900 14 18265330788699533225
3298306 158 18410288151278807237
3383291 50 18342453776728651650
373842 8 18338797806599482626
5085150 59 18411414047017237882
5265222 85 18045509865500959468
59755656 215 18409163333608771199
6036956 94 17899993912976273372

> <PUBCHEM_SHAPE_MULTIPOLES>
746.22
17.44
5.19
1.55
8.62
1.79
0.32
-4.95
5.56
1.26
0.36
-0.79
-0.05
0.83

> <PUBCHEM_SHAPE_SELFOVERLAP>
1592.153

> <PUBCHEM_SHAPE_VOLUME>
413.5

> <PUBCHEM_COORDINATE_TYPE>
2
5
10

$$$$
