45784217
  -OEChem-12032416203D

 42 45  0     1  0  0  0  0  0999 V2000
   -2.0573   -0.2806   -0.1114 N   0  0  1  0  0  0  0  0  0  0  0  0
    2.6021   -1.3127    0.3178 N   0  0  0  0  0  0  0  0  0  0  0  0
    2.0227    0.8170    0.0567 N   0  0  0  0  0  0  0  0  0  0  0  0
   -5.0015    1.2737    0.0150 N   0  0  0  0  0  0  0  0  0  0  0  0
    0.1461   -0.8211    0.4820 C   0  0  1  0  0  0  0  0  0  0  0  0
   -0.5603   -0.1565    1.6764 C   0  0  0  0  0  0  0  0  0  0  0  0
   -0.7457   -0.4996   -0.7248 C   0  0  0  0  0  0  0  0  0  0  0  0
   -1.7866    0.5228    1.0808 C   0  0  0  0  0  0  0  0  0  0  0  0
    1.5838   -0.4013    0.2807 C   0  0  0  0  0  0  0  0  0  0  0  0
   -2.9924    0.3698   -1.0174 C   0  0  0  0  0  0  0  0  0  0  0  0
    3.7763   -0.6377    0.1032 C   0  0  0  0  0  0  0  0  0  0  0  0
    3.3881    0.6896   -0.0568 C   0  0  0  0  0  0  0  0  0  0  0  0
   -4.4191    0.2013   -0.5666 C   0  0  0  0  0  0  0  0  0  0  0  0
    5.1040   -1.0612    0.0374 C   0  0  0  0  0  0  0  0  0  0  0  0
    4.3696    1.6659   -0.2973 C   0  0  0  0  0  0  0  0  0  0  0  0
   -5.0540   -1.0143   -0.7645 C   0  0  0  0  0  0  0  0  0  0  0  0
    6.0677   -0.0763   -0.2028 C   0  0  0  0  0  0  0  0  0  0  0  0
    5.7092    1.2637   -0.3673 C   0  0  0  0  0  0  0  0  0  0  0  0
   -6.3717   -1.1369   -0.3380 C   0  0  0  0  0  0  0  0  0  0  0  0
    7.5071   -0.4669   -0.2846 C   0  0  0  0  0  0  0  0  0  0  0  0
   -6.2829    1.1169    0.4167 C   0  0  0  0  0  0  0  0  0  0  0  0
   -7.0052   -0.0557    0.2647 C   0  0  0  0  0  0  0  0  0  0  0  0
    0.1211   -1.9077    0.6503 H   0  0  0  0  0  0  0  0  0  0  0  0
    0.0715    0.5601    2.2118 H   0  0  0  0  0  0  0  0  0  0  0  0
   -0.8680   -0.9285    2.3928 H   0  0  0  0  0  0  0  0  0  0  0  0
   -0.3963    0.3976   -1.2531 H   0  0  0  0  0  0  0  0  0  0  0  0
   -0.7645   -1.3314   -1.4375 H   0  0  0  0  0  0  0  0  0  0  0  0
   -2.6218    0.5200    1.7883 H   0  0  0  0  0  0  0  0  0  0  0  0
   -1.5440    1.5632    0.8283 H   0  0  0  0  0  0  0  0  0  0  0  0
   -2.9175   -0.0758   -2.0191 H   0  0  0  0  0  0  0  0  0  0  0  0
   -2.7602    1.4348   -1.1519 H   0  0  0  0  0  0  0  0  0  0  0  0
    2.5100   -2.3077    0.4749 H   0  0  0  0  0  0  0  0  0  0  0  0
    5.3687   -2.1048    0.1689 H   0  0  0  0  0  0  0  0  0  0  0  0
    4.1010    2.7096   -0.4262 H   0  0  0  0  0  0  0  0  0  0  0  0
   -4.5516   -1.8522   -1.2360 H   0  0  0  0  0  0  0  0  0  0  0  0
    6.4722    2.0167   -0.5516 H   0  0  0  0  0  0  0  0  0  0  0  0
   -6.9042   -2.0733   -0.4750 H   0  0  0  0  0  0  0  0  0  0  0  0
    8.0393    0.1469   -1.0193 H   0  0  0  0  0  0  0  0  0  0  0  0
    7.6193   -1.5104   -0.5982 H   0  0  0  0  0  0  0  0  0  0  0  0
    7.9856   -0.3426    0.6920 H   0  0  0  0  0  0  0  0  0  0  0  0
   -6.7311    1.9891    0.8808 H   0  0  0  0  0  0  0  0  0  0  0  0
   -8.0318   -0.1287    0.6048 H   0  0  0  0  0  0  0  0  0  0  0  0
  1  7  1  0  0  0  0
  1  8  1  0  0  0  0
  1 10  1  0  0  0  0
  2  9  1  0  0  0  0
  2 11  1  0  0  0  0
  2 32  1  0  0  0  0
  3  9  2  0  0  0  0
  3 12  1  0  0  0  0
  4 13  1  0  0  0  0
  4 21  2  0  0  0  0
  5  6  1  0  0  0  0
  5  7  1  0  0  0  0
  5  9  1  0  0  0  0
  5 23  1  0  0  0  0
  6  8  1  0  0  0  0
  6 24  1  0  0  0  0
  6 25  1  0  0  0  0
  7 26  1  0  0  0  0
  7 27  1  0  0  0  0
  8 28  1  0  0  0  0
  8 29  1  0  0  0  0
 10 13  1  0  0  0  0
 10 30  1  0  0  0  0
 10 31  1  0  0  0  0
 11 12  2  0  0  0  0
 11 14  1  0  0  0  0
 12 15  1  0  0  0  0
 13 16  2  0  0  0  0
 14 17  2  0  0  0  0
 14 33  1  0  0  0  0
 15 18  2  0  0  0  0
 15 34  1  0  0  0  0
 16 19  1  0  0  0  0
 16 35  1  0  0  0  0
 17 18  1  0  0  0  0
 17 20  1  0  0  0  0
 18 36  1  0  0  0  0
 19 22  2  0  0  0  0
 19 37  1  0  0  0  0
 20 38  1  0  0  0  0
 20 39  1  0  0  0  0
 20 40  1  0  0  0  0
 21 22  1  0  0  0  0
 21 41  1  0  0  0  0
 22 42  1  0  0  0  0
M  END
> <PUBCHEM_COMPOUND_CID>
45784217

> <PUBCHEM_CONFORMER_RMSD>
0.6

> <PUBCHEM_CONFORMER_DIVERSEORDER>
1
88
180
122
183
71
151
143
75
148
182
166
49
110
123
176
106
128
42
53
86
135
41
142
47
108
147
145
132
78
115
94
178
162
35
114
179
101
107
121
63
164
129
84
90
96
79
109
116
141
127
57
30
93
146
80
161
118
60
154
124
85
150
119
77
174
22
181
155
81
44
133
91
175
89
160
163
113
170
103
3
137
68
87
95
111
64
45
39
24
37
157
102
18
14
104
136
19
169
76
130
6
138
92
9
66
134
99
40
168
20
13
152
4
156
73
131
38
34
126
139
54
177
173
17
15
31
43
117
158
23
11
125
172
153
46
27
21
28
2
7
65
98
165
149
26
100
32
12
167
62
120
82
58
55
97
61
5
48
70
52
16
59
105
10
51
29
50
8
69
171
67
83
72
112
36
144
25
33
159
74
140
56

> <PUBCHEM_MMFF94_PARTIAL_CHARGES>
29
1 -0.81
10 0.41
11 -0.15
12 0.23
13 0.17
14 -0.15
15 -0.15
16 -0.15
17 -0.14
18 -0.15
19 -0.15
2 0.03
20 0.14
21 0.16
22 -0.15
3 -0.57
32 0.27
33 0.15
34 0.15
35 0.15
36 0.15
37 0.15
4 -0.62
41 0.15
42 0.15
5 0.18
7 0.27
8 0.27
9 0.01

> <PUBCHEM_EFFECTIVE_ROTOR_COUNT>
4

> <PUBCHEM_PHARMACOPHORE_FEATURES>
8
1 1 cation
1 2 donor
1 4 acceptor
3 2 3 9 cation
5 1 5 6 7 8 rings
5 2 3 9 11 12 rings
6 11 12 14 15 17 18 rings
6 4 13 16 19 21 22 rings

> <PUBCHEM_HEAVY_ATOM_COUNT>
22

> <PUBCHEM_ATOM_DEF_STEREO_COUNT>
1

> <PUBCHEM_ATOM_UDEF_STEREO_COUNT>
0

> <PUBCHEM_BOND_DEF_STEREO_COUNT>
0

> <PUBCHEM_BOND_UDEF_STEREO_COUNT>
0

> <PUBCHEM_ISOTOPIC_ATOM_COUNT>
0

> <PUBCHEM_COMPONENT_COUNT>
1

> <PUBCHEM_CACTVS_TAUTO_COUNT>
2

> <PUBCHEM_CONFORMER_ID>
02BA9C9900000001

> <PUBCHEM_MMFF94_ENERGY>
46.1145

> <PUBCHEM_FEATURE_SELFOVERLAP>
40.704

> <PUBCHEM_SHAPE_FINGERPRINT>
10 15 14129061448017833092
10066227 49 17703236096895865438
10299344 5 18343864429273631767
10595046 47 18410854348232753155
106641 1 13190348980066015564
11315181 36 16200152110319950275
11408170 108 17631175187787055414
11524674 6 15697997466407965943
11646440 116 17022627467829810037
11796584 16 14907893903618838350
12091667 2 18411419510389841395
12166972 35 18408605881040207988
12236239 1 18201719552511285204
12730499 353 17822010891582538426
12788726 201 17131837512878998827
12916748 109 16877659046072380828
13167372 99 18411137991725343336
13533116 47 17023172783195666298
13668630 136 17989211434685599310
14170010 4 18261391170186330900
14251752 14 17704072884756322633
14251764 18 17894909625211404688
14251764 46 18273494572076763983
14294032 229 17058391192515866905
14849402 71 18189342423238396229
14856354 85 17846219990759345623
14933364 13 18410293610013597901
15183329 4 18410852148713651333
15537594 2 16056878022631993959
17093844 174 13758354471489410135
17857418 61 9511463325086468733
18006028 8 12823295697645701875
18335252 98 18410862070690057091
19489759 90 10737283542116670183
200 152 18201718452983872266
20157964 124 18408604777871097808
20281389 69 17240479217500646012
20567600 254 16153420653872499763
21033648 29 17750234876170261288
21150785 3 18342178878032322446
21267235 1 18341898476565366140
21315763 28 18411981373072939181
21792961 116 17632579310651338163
221357 26 18334573534364967540
22224240 67 9439399117300052036
23035841 295 17775284976112274391
23198884 109 18409449193926432825
23402539 116 17632290181431151965
23536379 177 18413388726645127771
23559900 14 18188207709931048081
23569943 247 17315625210578159466
23622692 88 14345797162393569546
26918003 58 10519982681745797430
29717793 49 17846504725468553740
3004659 81 18273213097580029794
314173 85 14333411159812055731
335352 9 18333736819649912822
347723 3 17346598573190537186
3545911 37 17894630357389084522
4073 2 18041001799255144866
4325135 7 18408603669611267151
5283156 175 17346604045553943742
542803 24 18341890792557663207
59682541 35 16009039406027556377
59755656 215 17749108868504192378
59755656 520 17603581954162917178
9996256 80 18334855008961395725

> <PUBCHEM_SHAPE_MULTIPOLES>
432.83
20.42
1.31
0.96
3.29
0.19
-0.19
0.62
2.68
-0.34
0.06
0.53
-0.01
-0.67

> <PUBCHEM_SHAPE_SELFOVERLAP>
947.422

> <PUBCHEM_SHAPE_VOLUME>
235.2

> <PUBCHEM_COORDINATE_TYPE>
2
5
10

$$$$
