7155441
  -OEChem-12032416403D

 52 56  0     1  0  0  0  0  0999 V2000
    2.0914   -0.3278    1.4444 S   0  0  0  0  0  0  0  0  0  0  0  0
    2.8529   -1.5201    1.7519 O   0  0  0  0  0  0  0  0  0  0  0  0
    1.4135    0.4124    2.4877 O   0  0  0  0  0  0  0  0  0  0  0  0
   -2.4752   -4.2100    0.6231 O   0  0  0  0  0  0  0  0  0  0  0  0
    0.9749   -0.6824    0.1975 N   0  0  2  0  0  0  0  0  0  0  0  0
   -1.7557   -2.1748   -0.2862 N   0  0  0  0  0  0  0  0  0  0  0  0
    4.8906   -2.1760   -0.2170 N   0  0  0  0  0  0  0  0  0  0  0  0
    0.3172   -2.0331   -1.7890 C   0  0  1  0  0  0  0  0  0  0  0  0
   -0.9381    0.0036   -1.2386 C   0  0  2  0  0  0  0  0  0  0  0  0
   -0.3832   -0.8272   -2.3930 C   0  0  0  0  0  0  0  0  0  0  0  0
    1.4691   -1.5940   -0.8720 C   0  0  0  0  0  0  0  0  0  0  0  0
    0.2250    0.4857   -0.3495 C   0  0  0  0  0  0  0  0  0  0  0  0
   -0.7201   -2.8819   -1.0521 C   0  0  0  0  0  0  0  0  0  0  0  0
   -1.9592   -0.7864   -0.4151 C   0  0  0  0  0  0  0  0  0  0  0  0
   -3.0199   -0.1986    0.1977 C   0  0  0  0  0  0  0  0  0  0  0  0
   -2.5984   -2.9921    0.4881 C   0  0  0  0  0  0  0  0  0  0  0  0
   -3.9082   -1.0094    1.0087 C   0  0  0  0  0  0  0  0  0  0  0  0
   -3.7255   -2.3194    1.1727 C   0  0  0  0  0  0  0  0  0  0  0  0
    3.1611    0.7900    0.5935 C   0  0  0  0  0  0  0  0  0  0  0  0
   -3.2862    1.2513    0.0747 C   0  0  0  0  0  0  0  0  0  0  0  0
    4.2746    0.3379   -0.1010 C   0  0  0  0  0  0  0  0  0  0  0  0
    2.8523    2.1432    0.6438 C   0  0  0  0  0  0  0  0  0  0  0  0
   -2.7184    2.1377    0.9848 C   0  0  0  0  0  0  0  0  0  0  0  0
   -4.1025    1.7194   -0.9506 C   0  0  0  0  0  0  0  0  0  0  0  0
    5.0949    1.2552   -0.7576 C   0  0  0  0  0  0  0  0  0  0  0  0
    3.6725    3.0605   -0.0130 C   0  0  0  0  0  0  0  0  0  0  0  0
   -2.9689    3.5050    0.8687 C   0  0  0  0  0  0  0  0  0  0  0  0
   -4.3531    3.0866   -1.0668 C   0  0  0  0  0  0  0  0  0  0  0  0
    4.7938    2.6165   -0.7137 C   0  0  0  0  0  0  0  0  0  0  0  0
   -3.7863    3.9794   -0.1572 C   0  0  0  0  0  0  0  0  0  0  0  0
    4.6150   -1.0513   -0.1651 C   0  0  0  0  0  0  0  0  0  0  0  0
    0.7513   -2.6424   -2.5916 H   0  0  0  0  0  0  0  0  0  0  0  0
   -1.4090    0.8853   -1.6879 H   0  0  0  0  0  0  0  0  0  0  0  0
   -1.1888   -1.1428   -3.0679 H   0  0  0  0  0  0  0  0  0  0  0  0
    0.3207   -0.2343   -2.9899 H   0  0  0  0  0  0  0  0  0  0  0  0
    1.9237   -2.4853   -0.4288 H   0  0  0  0  0  0  0  0  0  0  0  0
    2.2139   -1.0797   -1.4865 H   0  0  0  0  0  0  0  0  0  0  0  0
    0.8880    1.1063   -0.9617 H   0  0  0  0  0  0  0  0  0  0  0  0
   -0.1546    1.0972    0.4726 H   0  0  0  0  0  0  0  0  0  0  0  0
   -1.2641   -3.4852   -1.7923 H   0  0  0  0  0  0  0  0  0  0  0  0
   -0.2236   -3.6013   -0.3885 H   0  0  0  0  0  0  0  0  0  0  0  0
   -4.7415   -0.5202    1.5045 H   0  0  0  0  0  0  0  0  0  0  0  0
   -4.3913   -2.9163    1.7844 H   0  0  0  0  0  0  0  0  0  0  0  0
    1.9849    2.5166    1.1797 H   0  0  0  0  0  0  0  0  0  0  0  0
   -2.0860    1.7831    1.7949 H   0  0  0  0  0  0  0  0  0  0  0  0
   -4.5502    1.0354   -1.6672 H   0  0  0  0  0  0  0  0  0  0  0  0
    5.9732    0.9265   -1.3084 H   0  0  0  0  0  0  0  0  0  0  0  0
    3.4378    4.1204    0.0204 H   0  0  0  0  0  0  0  0  0  0  0  0
   -2.5289    4.1999    1.5779 H   0  0  0  0  0  0  0  0  0  0  0  0
   -4.9893    3.4561   -1.8657 H   0  0  0  0  0  0  0  0  0  0  0  0
    5.4323    3.3309   -1.2252 H   0  0  0  0  0  0  0  0  0  0  0  0
   -3.9817    5.0439   -0.2476 H   0  0  0  0  0  0  0  0  0  0  0  0
  1  2  2  0  0  0  0
  1  3  2  0  0  0  0
  1  5  1  0  0  0  0
  1 19  1  0  0  0  0
  4 16  2  0  0  0  0
  5 11  1  0  0  0  0
  5 12  1  0  0  0  0
  6 13  1  0  0  0  0
  6 14  1  0  0  0  0
  6 16  1  0  0  0  0
  7 31  3  0  0  0  0
  8 10  1  0  0  0  0
  8 11  1  0  0  0  0
  8 13  1  0  0  0  0
  8 32  1  0  0  0  0
  9 10  1  0  0  0  0
  9 12  1  0  0  0  0
  9 14  1  0  0  0  0
  9 33  1  0  0  0  0
 10 34  1  0  0  0  0
 10 35  1  0  0  0  0
 11 36  1  0  0  0  0
 11 37  1  0  0  0  0
 12 38  1  0  0  0  0
 12 39  1  0  0  0  0
 13 40  1  0  0  0  0
 13 41  1  0  0  0  0
 14 15  2  0  0  0  0
 15 17  1  0  0  0  0
 15 20  1  0  0  0  0
 16 18  1  0  0  0  0
 17 18  2  0  0  0  0
 17 42  1  0  0  0  0
 18 43  1  0  0  0  0
 19 21  1  0  0  0  0
 19 22  2  0  0  0  0
 20 23  2  0  0  0  0
 20 24  1  0  0  0  0
 21 25  2  0  0  0  0
 21 31  1  0  0  0  0
 22 26  1  0  0  0  0
 22 44  1  0  0  0  0
 23 27  1  0  0  0  0
 23 45  1  0  0  0  0
 24 28  2  0  0  0  0
 24 46  1  0  0  0  0
 25 29  1  0  0  0  0
 25 47  1  0  0  0  0
 26 29  2  0  0  0  0
 26 48  1  0  0  0  0
 27 30  2  0  0  0  0
 27 49  1  0  0  0  0
 28 30  1  0  0  0  0
 28 50  1  0  0  0  0
 29 51  1  0  0  0  0
 30 52  1  0  0  0  0
M  END
> <PUBCHEM_COMPOUND_CID>
7155441

> <PUBCHEM_CONFORMER_RMSD>
0.8

> <PUBCHEM_CONFORMER_DIVERSEORDER>
1
7
9
8
13
3
11
10
2
4
12
14
6
5

> <PUBCHEM_MMFF94_PARTIAL_CHARGES>
40
1 1.45
11 0.36
12 0.36
13 0.3
14 -0.03
15 -0.03
16 0.62
17 -0.15
18 -0.14
19 -0.01
2 -0.65
20 0.03
21 0.07
22 -0.15
23 -0.15
24 -0.15
25 -0.15
26 -0.15
27 -0.15
28 -0.15
29 -0.15
3 -0.65
30 -0.15
31 0.48
4 -0.57
42 0.15
43 0.15
44 0.15
45 0.15
46 0.15
47 0.15
48 0.15
49 0.15
5 -0.85
50 0.15
51 0.15
52 0.15
6 -0.47
7 -0.56
9 0.14

> <PUBCHEM_EFFECTIVE_ROTOR_COUNT>
4

> <PUBCHEM_PHARMACOPHORE_FEATURES>
9
1 2 acceptor
1 3 acceptor
1 4 acceptor
1 7 acceptor
6 19 21 22 25 26 29 rings
6 20 23 24 27 28 30 rings
6 5 8 9 10 11 12 rings
6 6 14 15 16 17 18 rings
6 6 8 9 10 13 14 rings

> <PUBCHEM_HEAVY_ATOM_COUNT>
31

> <PUBCHEM_ATOM_DEF_STEREO_COUNT>
2

> <PUBCHEM_ATOM_UDEF_STEREO_COUNT>
0

> <PUBCHEM_BOND_DEF_STEREO_COUNT>
0

> <PUBCHEM_BOND_UDEF_STEREO_COUNT>
0

> <PUBCHEM_ISOTOPIC_ATOM_COUNT>
0

> <PUBCHEM_COMPONENT_COUNT>
1

> <PUBCHEM_CACTVS_TAUTO_COUNT>
1

> <PUBCHEM_CONFORMER_ID>
006D2EF100000001

> <PUBCHEM_MMFF94_ENERGY>
81.711

> <PUBCHEM_FEATURE_SELFOVERLAP>
47.277

> <PUBCHEM_SHAPE_FINGERPRINT>
11552529 35 18261948660682599891
11763715 3 17908141332228219366
12107183 9 18117833296892607698
12156800 1 15472893458441828305
12633046 712 18188768332308438670
12633257 1 17971743381126400786
12788726 201 18263911298002842523
13224815 77 15285900495163683722
13726171 33 18271824439985482160
13965767 371 17461729394019273229
13994607 96 18342733040314234773
14251751 93 18340771541281638064
14787075 74 17537719180629047970
14955137 171 17472709499038524343
14957384 54 18335694992737237313
15664445 248 16329309812704927630
15775530 1 18057066643521423199
17844677 252 18336274508854065148
17921350 177 17754723941132637788
19315092 285 16809788542420582851
21864079 5 18341320184820250812
22907989 373 18270104842516973605
23559900 14 18125445206953996294
3117164 225 18263363603588607534
3493558 16 18335712675371212180
4058900 60 17977390434693891889
4144715 1 18336557053563138314
460360 51 18269010729678743902
469060 322 17409345713381931547
474 4 18054219935002789373
6287921 2 18043535130127554708
9981440 41 18269828736470857467

> <PUBCHEM_SHAPE_MULTIPOLES>
609.26
10.33
4.82
1.63
7.04
0.99
0
5.8
0.22
-4.43
0.01
-0.03
-0.44
0.69

> <PUBCHEM_SHAPE_SELFOVERLAP>
1335.877

> <PUBCHEM_SHAPE_VOLUME>
327.2

> <PUBCHEM_COORDINATE_TYPE>
2
5
10

$$$$
