45783529
  -OEChem-12032416203D

 61 65  0     1  0  0  0  0  0999 V2000
   -3.2136   -1.5595    1.9888 O   0  0  0  0  0  0  0  0  0  0  0  0
    7.1555    1.4842    0.2571 O   0  0  0  0  0  0  0  0  0  0  0  0
   -5.1871   -0.4539   -0.9074 N   0  0  1  0  0  0  0  0  0  0  0  0
    3.9761   -0.7364   -0.3870 N   0  0  0  0  0  0  0  0  0  0  0  0
   -2.4053   -1.1195   -0.0532 N   0  0  0  0  0  0  0  0  0  0  0  0
   -1.8200   -1.5152    2.1228 N   0  0  0  0  0  0  0  0  0  0  0  0
    2.2841   -1.1327    1.2211 N   0  0  0  0  0  0  0  0  0  0  0  0
    8.4790   -0.3434    0.7074 N   0  0  0  0  0  0  0  0  0  0  0  0
    0.5058    4.2609    0.6270 N   0  0  0  0  0  0  0  0  0  0  0  0
   -4.9314   -1.3097    0.2684 C   0  0  1  0  0  0  0  0  0  0  0  0
   -5.4398   -2.7034   -0.1441 C   0  0  0  0  0  0  0  0  0  0  0  0
   -6.0176   -2.5188   -1.5402 C   0  0  0  0  0  0  0  0  0  0  0  0
   -6.3343   -1.0382   -1.6023 C   0  0  0  0  0  0  0  0  0  0  0  0
    6.8017   -0.5102   -1.0148 C   0  0  0  0  0  0  0  0  0  0  0  0
   -5.4089    0.9445   -0.5628 C   0  0  0  0  0  0  0  0  0  0  0  0
    5.7417    0.2939   -1.7645 C   0  0  0  0  0  0  0  0  0  0  0  0
    6.2074   -1.7774   -0.4033 C   0  0  0  0  0  0  0  0  0  0  0  0
    4.4646    0.5238   -0.9536 C   0  0  0  0  0  0  0  0  0  0  0  0
    4.9402   -1.5073    0.4074 C   0  0  0  0  0  0  0  0  0  0  0  0
   -3.4734   -1.3167    0.6774 C   0  0  0  0  0  0  0  0  0  0  0  0
   -4.1154    1.6698   -0.3026 C   0  0  0  0  0  0  0  0  0  0  0  0
    2.6210   -0.8667   -0.0609 C   0  0  0  0  0  0  0  0  0  0  0  0
    7.4757    0.3182    0.0395 C   0  0  0  0  0  0  0  0  0  0  0  0
   -1.4154   -1.2511    0.8768 C   0  0  0  0  0  0  0  0  0  0  0  0
    1.7037   -0.7130   -1.0879 C   0  0  0  0  0  0  0  0  0  0  0  0
   -0.0320   -1.1142    0.5281 C   0  0  0  0  0  0  0  0  0  0  0  0
   -3.8937    2.2790    0.9325 C   0  0  0  0  0  0  0  0  0  0  0  0
   -3.1390    1.7326   -1.2967 C   0  0  0  0  0  0  0  0  0  0  0  0
    0.3537   -0.8406   -0.7795 C   0  0  0  0  0  0  0  0  0  0  0  0
    0.9629   -1.2499    1.4828 C   0  0  0  0  0  0  0  0  0  0  0  0
   -2.6954    2.9509    1.1735 C   0  0  0  0  0  0  0  0  0  0  0  0
   -1.9407    2.4046   -1.0556 C   0  0  0  0  0  0  0  0  0  0  0  0
   -1.7188    3.0136    0.1794 C   0  0  0  0  0  0  0  0  0  0  0  0
   -0.4913    3.7019    0.4264 C   0  0  0  0  0  0  0  0  0  0  0  0
   -5.5309   -0.9789    1.1282 H   0  0  0  0  0  0  0  0  0  0  0  0
   -4.6632   -3.4759   -0.1435 H   0  0  0  0  0  0  0  0  0  0  0  0
   -6.2336   -3.0240    0.5416 H   0  0  0  0  0  0  0  0  0  0  0  0
   -6.8991   -3.1442   -1.7092 H   0  0  0  0  0  0  0  0  0  0  0  0
   -5.2638   -2.7809   -2.2930 H   0  0  0  0  0  0  0  0  0  0  0  0
   -6.4133   -0.6870   -2.6358 H   0  0  0  0  0  0  0  0  0  0  0  0
   -7.2766   -0.8285   -1.0803 H   0  0  0  0  0  0  0  0  0  0  0  0
    7.5842   -0.7973   -1.7302 H   0  0  0  0  0  0  0  0  0  0  0  0
   -6.1067    1.0503    0.2782 H   0  0  0  0  0  0  0  0  0  0  0  0
   -5.8840    1.4654   -1.4061 H   0  0  0  0  0  0  0  0  0  0  0  0
    6.1406    1.2585   -2.1010 H   0  0  0  0  0  0  0  0  0  0  0  0
    5.4728   -0.2618   -2.6731 H   0  0  0  0  0  0  0  0  0  0  0  0
    5.9465   -2.4575   -1.2260 H   0  0  0  0  0  0  0  0  0  0  0  0
    6.9223   -2.3237    0.2204 H   0  0  0  0  0  0  0  0  0  0  0  0
    3.7239    0.9848   -1.6174 H   0  0  0  0  0  0  0  0  0  0  0  0
    4.6395    1.2386   -0.1413 H   0  0  0  0  0  0  0  0  0  0  0  0
    5.1818   -0.9632    1.3287 H   0  0  0  0  0  0  0  0  0  0  0  0
    4.5164   -2.4771    0.6983 H   0  0  0  0  0  0  0  0  0  0  0  0
    2.0039   -0.5151   -2.1117 H   0  0  0  0  0  0  0  0  0  0  0  0
   -4.6447    2.2362    1.7167 H   0  0  0  0  0  0  0  0  0  0  0  0
   -3.2989    1.2667   -2.2655 H   0  0  0  0  0  0  0  0  0  0  0  0
   -0.3746   -0.7252   -1.5780 H   0  0  0  0  0  0  0  0  0  0  0  0
    0.7462   -1.4632    2.5253 H   0  0  0  0  0  0  0  0  0  0  0  0
    9.0026    0.1187    1.4435 H   0  0  0  0  0  0  0  0  0  0  0  0
    8.7714   -1.2859    0.4719 H   0  0  0  0  0  0  0  0  0  0  0  0
   -2.5367    3.4198    2.1416 H   0  0  0  0  0  0  0  0  0  0  0  0
   -1.1889    2.4443   -1.8402 H   0  0  0  0  0  0  0  0  0  0  0  0
  1  6  1  0  0  0  0
  1 20  1  0  0  0  0
  2 23  2  0  0  0  0
  3 10  1  0  0  0  0
  3 13  1  0  0  0  0
  3 15  1  0  0  0  0
  4 18  1  0  0  0  0
  4 19  1  0  0  0  0
  4 22  1  0  0  0  0
  5 20  2  0  0  0  0
  5 24  1  0  0  0  0
  6 24  2  0  0  0  0
  7 22  2  0  0  0  0
  7 30  1  0  0  0  0
  8 23  1  0  0  0  0
  8 58  1  0  0  0  0
  8 59  1  0  0  0  0
  9 34  3  0  0  0  0
 10 11  1  0  0  0  0
 10 20  1  0  0  0  0
 10 35  1  0  0  0  0
 11 12  1  0  0  0  0
 11 36  1  0  0  0  0
 11 37  1  0  0  0  0
 12 13  1  0  0  0  0
 12 38  1  0  0  0  0
 12 39  1  0  0  0  0
 13 40  1  0  0  0  0
 13 41  1  0  0  0  0
 14 16  1  0  0  0  0
 14 17  1  0  0  0  0
 14 23  1  0  0  0  0
 14 42  1  0  0  0  0
 15 21  1  0  0  0  0
 15 43  1  0  0  0  0
 15 44  1  0  0  0  0
 16 18  1  0  0  0  0
 16 45  1  0  0  0  0
 16 46  1  0  0  0  0
 17 19  1  0  0  0  0
 17 47  1  0  0  0  0
 17 48  1  0  0  0  0
 18 49  1  0  0  0  0
 18 50  1  0  0  0  0
 19 51  1  0  0  0  0
 19 52  1  0  0  0  0
 21 27  2  0  0  0  0
 21 28  1  0  0  0  0
 22 25  1  0  0  0  0
 24 26  1  0  0  0  0
 25 29  2  0  0  0  0
 25 53  1  0  0  0  0
 26 29  1  0  0  0  0
 26 30  2  0  0  0  0
 27 31  1  0  0  0  0
 27 54  1  0  0  0  0
 28 32  2  0  0  0  0
 28 55  1  0  0  0  0
 29 56  1  0  0  0  0
 30 57  1  0  0  0  0
 31 33  2  0  0  0  0
 31 60  1  0  0  0  0
 32 33  1  0  0  0  0
 32 61  1  0  0  0  0
 33 34  1  0  0  0  0
M  END
> <PUBCHEM_COMPOUND_CID>
45783529

> <PUBCHEM_CONFORMER_RMSD>
1

> <PUBCHEM_CONFORMER_DIVERSEORDER>
1
81
40
103
11
15
77
56
55
73
46
50
136
147
116
119
72
146
134
20
127
16
142
143
121
57
65
10
66
137
19
148
35
48
126
2
91
107
82
62
101
84
28
18
94
29
96
71
68
13
138
27
106
98
8
80
30
97
12
111
124
114
75
78
139
23
131
108
31
125
145
69
67
112
89
79
24
52
37
38
53
44
54
109
25
99
63
85
47
74
95
86
115
41
105
26
70
45
7
49
51
117
64
130
3
39
87
36
33
42
104
102
141
22
140
92
61
14
4
133
118
122
123
110
76
34
144
120
100
58
60
83
88
113
9
129
59
21
132
135
43
5
93
90
32
128
17
6

> <PUBCHEM_MMFF94_PARTIAL_CHARGES>
39
1 -0.02
10 0.45
13 0.27
14 0.06
15 0.41
18 0.37
19 0.37
2 -0.57
20 0.3
21 -0.14
22 0.41
23 0.57
24 0.46
25 -0.15
26 0.05
27 -0.15
28 -0.15
29 -0.15
3 -0.81
30 0.16
31 -0.15
32 -0.15
33 0.07
34 0.48
4 -0.84
5 -0.57
53 0.15
54 0.15
55 0.15
56 0.15
57 0.15
58 0.37
59 0.37
6 -0.41
60 0.15
61 0.15
7 -0.62
8 -0.8
9 -0.56

> <PUBCHEM_EFFECTIVE_ROTOR_COUNT>
8.2

> <PUBCHEM_PHARMACOPHORE_FEATURES>
11
1 2 acceptor
1 3 cation
1 8 donor
1 9 acceptor
3 4 7 22 cation
3 5 6 24 cation
5 1 5 6 20 24 rings
5 3 10 11 12 13 rings
6 21 27 28 31 32 33 rings
6 4 14 16 17 18 19 rings
6 7 22 25 26 29 30 rings

> <PUBCHEM_HEAVY_ATOM_COUNT>
34

> <PUBCHEM_ATOM_DEF_STEREO_COUNT>
1

> <PUBCHEM_ATOM_UDEF_STEREO_COUNT>
0

> <PUBCHEM_BOND_DEF_STEREO_COUNT>
0

> <PUBCHEM_BOND_UDEF_STEREO_COUNT>
0

> <PUBCHEM_ISOTOPIC_ATOM_COUNT>
0

> <PUBCHEM_COMPONENT_COUNT>
1

> <PUBCHEM_CACTVS_TAUTO_COUNT>
2

> <PUBCHEM_CONFORMER_ID>
02BA99E900000001

> <PUBCHEM_MMFF94_ENERGY>
80.6698

> <PUBCHEM_FEATURE_SELFOVERLAP>
55.823

> <PUBCHEM_SHAPE_FINGERPRINT>
10454371 7 18412268302758537476
10670039 82 18334855004903772810
11101153 10 18340771536844343316
11477941 20 18343010108417226765
11578080 2 17343805706877889879
12107698 1 18412544340121924836
12655364 131 16226876745729739744
13782708 43 17632578232230166078
14068700 675 18201720691289788657
14394314 77 18115311060406266709
14931854 50 18186790384373304079
15183329 4 17894635834063497142
15419008 47 17989480823461042992
15461852 350 18272092699953795550
15876981 60 18410018736728721429
15968369 153 18059568127391492680
16067689 302 18122912194530891759
17686467 74 18270676609753533946
20721686 56 18338795740482907936
20775438 99 17331373868575367335
21236236 1 18334862688215279798
21344244 246 17909823577108704583
21927370 108 18338814376709476259
23559900 14 17895194471215248775
3633792 109 17385711466034817891
373842 8 18337393846436910796
484985 159 10015285877273747649
5171179 24 18271239538554248945
5969126 39 18343301474497475623

> <PUBCHEM_SHAPE_MULTIPOLES>
653.1
19.51
3.78
1.55
32.5
4.11
0.12
-6.86
-5.38
-4.82
0.65
-0.8
-0.4
-0.72

> <PUBCHEM_SHAPE_SELFOVERLAP>
1419.517

> <PUBCHEM_SHAPE_VOLUME>
352.5

> <PUBCHEM_COORDINATE_TYPE>
2
5
10

$$$$
