28960420
  -OEChem-12032416143D

 47 49  0     1  0  0  0  0  0999 V2000
    2.1233   -1.4195    1.5975 O   0  0  0  0  0  0  0  0  0  0  0  0
    3.9459   -1.7782    0.2092 O   0  0  0  0  0  0  0  0  0  0  0  0
    2.5405   -0.9824   -2.1663 O   0  0  0  0  0  0  0  0  0  0  0  0
    1.0062    4.7314   -0.3166 O   0  0  0  0  0  0  0  0  0  0  0  0
   -3.1974   -2.7752    0.1949 O   0  0  0  0  0  0  0  0  0  0  0  0
   -0.3449   -1.2457    0.0601 N   0  0  0  0  0  0  0  0  0  0  0  0
    1.9027    1.2868    0.6108 N   0  0  0  0  0  0  0  0  0  0  0  0
    0.9387   -1.6911   -0.4925 C   0  0  2  0  0  0  0  0  0  0  0  0
    1.7274   -2.4001    0.6323 C   0  0  1  0  0  0  0  0  0  0  0  0
    2.6339    0.2301   -0.0897 C   0  0  2  0  0  0  0  0  0  0  0  0
    1.7140   -0.4957   -1.0987 C   0  0  1  0  0  0  0  0  0  0  0  0
    3.2128   -0.7717    0.9268 C   0  0  1  0  0  0  0  0  0  0  0  0
    3.0850   -2.9270    0.2033 C   0  0  0  0  0  0  0  0  0  0  0  0
   -1.3004   -0.9974   -1.0058 C   0  0  0  0  0  0  0  0  0  0  0  0
    1.7949    2.4753   -0.2202 C   0  0  0  0  0  0  0  0  0  0  0  0
   -2.6321   -0.5428   -0.4703 C   0  0  0  0  0  0  0  0  0  0  0  0
    1.0734    3.5872    0.5244 C   0  0  0  0  0  0  0  0  0  0  0  0
   -3.5178   -1.4539    0.1051 C   0  0  0  0  0  0  0  0  0  0  0  0
   -2.9773    0.8061   -0.5564 C   0  0  0  0  0  0  0  0  0  0  0  0
   -4.7487   -1.0164    0.5944 C   0  0  0  0  0  0  0  0  0  0  0  0
   -4.2080    1.2437   -0.0667 C   0  0  0  0  0  0  0  0  0  0  0  0
   -5.0938    0.3325    0.5084 C   0  0  0  0  0  0  0  0  0  0  0  0
    0.3218    5.8041    0.3161 C   0  0  0  0  0  0  0  0  0  0  0  0
    0.7561   -2.4502   -1.2656 H   0  0  0  0  0  0  0  0  0  0  0  0
    1.1296   -3.1852    1.1078 H   0  0  0  0  0  0  0  0  0  0  0  0
    3.4929    0.6554   -0.6278 H   0  0  0  0  0  0  0  0  0  0  0  0
    1.0511    0.2144   -1.5954 H   0  0  0  0  0  0  0  0  0  0  0  0
    3.8710   -0.2909    1.6577 H   0  0  0  0  0  0  0  0  0  0  0  0
    3.4835   -3.6289    0.9438 H   0  0  0  0  0  0  0  0  0  0  0  0
    3.0885   -3.4078   -0.7786 H   0  0  0  0  0  0  0  0  0  0  0  0
   -0.7180   -1.9705    0.6736 H   0  0  0  0  0  0  0  0  0  0  0  0
    2.3934    1.5306    1.4711 H   0  0  0  0  0  0  0  0  0  0  0  0
    1.9544   -1.3818   -2.8317 H   0  0  0  0  0  0  0  0  0  0  0  0
   -1.4616   -1.9046   -1.6037 H   0  0  0  0  0  0  0  0  0  0  0  0
   -0.9428   -0.2417   -1.7127 H   0  0  0  0  0  0  0  0  0  0  0  0
    1.2514    2.2805   -1.1509 H   0  0  0  0  0  0  0  0  0  0  0  0
    2.7882    2.8395   -0.5132 H   0  0  0  0  0  0  0  0  0  0  0  0
    1.6133    3.8447    1.4439 H   0  0  0  0  0  0  0  0  0  0  0  0
    0.0579    3.2677    0.7894 H   0  0  0  0  0  0  0  0  0  0  0  0
   -2.2969    1.5293   -0.9985 H   0  0  0  0  0  0  0  0  0  0  0  0
   -5.4485   -1.7152    1.0447 H   0  0  0  0  0  0  0  0  0  0  0  0
   -4.4763    2.2941   -0.1327 H   0  0  0  0  0  0  0  0  0  0  0  0
   -6.0520    0.6735    0.8895 H   0  0  0  0  0  0  0  0  0  0  0  0
    0.3027    6.6536   -0.3718 H   0  0  0  0  0  0  0  0  0  0  0  0
    0.8429    6.1063    1.2297 H   0  0  0  0  0  0  0  0  0  0  0  0
   -0.7092    5.5186    0.5466 H   0  0  0  0  0  0  0  0  0  0  0  0
   -3.9306   -3.2514    0.6210 H   0  0  0  0  0  0  0  0  0  0  0  0
  1  9  1  0  0  0  0
  1 12  1  0  0  0  0
  2 12  1  0  0  0  0
  2 13  1  0  0  0  0
  3 11  1  0  0  0  0
  3 33  1  0  0  0  0
  4 17  1  0  0  0  0
  4 23  1  0  0  0  0
  5 18  1  0  0  0  0
  5 47  1  0  0  0  0
  6  8  1  0  0  0  0
  6 14  1  0  0  0  0
  6 31  1  0  0  0  0
  7 10  1  0  0  0  0
  7 15  1  0  0  0  0
  7 32  1  0  0  0  0
  8  9  1  0  0  0  0
  8 11  1  0  0  0  0
  8 24  1  0  0  0  0
  9 13  1  0  0  0  0
  9 25  1  0  0  0  0
 10 11  1  0  0  0  0
 10 12  1  0  0  0  0
 10 26  1  0  0  0  0
 11 27  1  0  0  0  0
 12 28  1  0  0  0  0
 13 29  1  0  0  0  0
 13 30  1  0  0  0  0
 14 16  1  0  0  0  0
 14 34  1  0  0  0  0
 14 35  1  0  0  0  0
 15 17  1  0  0  0  0
 15 36  1  0  0  0  0
 15 37  1  0  0  0  0
 16 18  1  0  0  0  0
 16 19  2  0  0  0  0
 17 38  1  0  0  0  0
 17 39  1  0  0  0  0
 18 20  2  0  0  0  0
 19 21  1  0  0  0  0
 19 40  1  0  0  0  0
 20 22  1  0  0  0  0
 20 41  1  0  0  0  0
 21 22  2  0  0  0  0
 21 42  1  0  0  0  0
 22 43  1  0  0  0  0
 23 44  1  0  0  0  0
 23 45  1  0  0  0  0
 23 46  1  0  0  0  0
M  END
> <PUBCHEM_COMPOUND_CID>
28960420

> <PUBCHEM_CONFORMER_RMSD>
0.8

> <PUBCHEM_CONFORMER_DIVERSEORDER>
1
117
112
81
88
78
22
116
76
85
42
105
111
135
120
99
75
93
94
86
91
37
92
57
132
72
123
20
73
80
59
106
56
5
102
113
39
67
63
121
98
26
126
90
84
122
97
3
16
87
65
8
71
64
61
62
49
28
115
13
107
52
133
27
24
108
45
54
12
114
10
68
124
21
79
131
136
104
137
128
38
33
14
83
47
109
48
118
96
34
125
55
134
36
53
69
74
2
70
44
127
35
41
7
25
66
31
89
19
129
15
110
101
4
11
18
77
82
29
51
103
95
50
43
130
58
32
23
30
6
119
46
100
17
9
40
60

> <PUBCHEM_MMFF94_PARTIAL_CHARGES>
31
1 -0.56
10 0.27
11 0.28
12 0.56
13 0.28
14 0.41
15 0.27
16 -0.14
17 0.28
18 0.08
19 -0.15
2 -0.56
20 -0.15
21 -0.15
22 -0.15
23 0.28
3 -0.68
31 0.36
32 0.36
33 0.4
4 -0.56
40 0.15
41 0.15
42 0.15
43 0.15
47 0.45
5 -0.53
6 -0.9
7 -0.9
8 0.27
9 0.28

> <PUBCHEM_EFFECTIVE_ROTOR_COUNT>
8.2

> <PUBCHEM_PHARMACOPHORE_FEATURES>
12
1 1 acceptor
1 2 acceptor
1 3 acceptor
1 3 donor
1 4 acceptor
1 5 donor
1 6 cation
1 6 donor
1 7 cation
1 7 donor
6 16 18 19 20 21 22 rings
8 1 2 8 9 10 11 12 13 rings

> <PUBCHEM_HEAVY_ATOM_COUNT>
23

> <PUBCHEM_ATOM_DEF_STEREO_COUNT>
5

> <PUBCHEM_ATOM_UDEF_STEREO_COUNT>
0

> <PUBCHEM_BOND_DEF_STEREO_COUNT>
0

> <PUBCHEM_BOND_UDEF_STEREO_COUNT>
0

> <PUBCHEM_ISOTOPIC_ATOM_COUNT>
0

> <PUBCHEM_COMPONENT_COUNT>
1

> <PUBCHEM_CACTVS_TAUTO_COUNT>
3

> <PUBCHEM_CONFORMER_ID>
01B9E6A400000001

> <PUBCHEM_MMFF94_ENERGY>
56.7575

> <PUBCHEM_FEATURE_SELFOVERLAP>
60.946

> <PUBCHEM_SHAPE_FINGERPRINT>
10074138 170 17037217760129633920
10366900 7 18113906000177243555
108634 29 17550095961979471517
10937287 8 17545597215839426029
11578080 2 17677029335778280189
12293681 4 18188778214975004322
12633257 1 18334283258773316699
12788726 201 18046064857069281362
13583140 156 18261662749516297759
138480 1 18410571803372024465
14466204 15 18266450100353124264
14790565 3 18120655983865577316
14866123 147 16391547045435655763
15238133 3 18263371286857416647
15475509 84 18048023078709449760
18785283 64 18191866931830982233
19078846 21 18338802204181399719
19930381 70 18049156971788190089
21033648 29 17559654171473956635
21041028 32 18192703454469643174
21524375 3 17623570161017474548
21665062 11 18411978053068500576
21860390 5 18272088322443182757
23558518 356 17693927901726439782
23559900 14 18409722993876174339
3052486 1 17907871604139770284
31174 14 18334850666817992415
474 4 18195521730156830449
5312544 6 17979065313098602549
56616090 278 18195824065626219501
5939293 188 18412542145520405836
6287921 2 18045224001278285453
7097593 13 18408598180258324167
9981440 41 17617088552793528945

> <PUBCHEM_SHAPE_MULTIPOLES>
434.02
8.35
5.6
1.11
9.79
12.27
0.25
-4.41
-1.31
-3.38
-0.76
-0.66
-0.36
-0.02

> <PUBCHEM_SHAPE_SELFOVERLAP>
907.538

> <PUBCHEM_SHAPE_VOLUME>
244.1

> <PUBCHEM_COORDINATE_TYPE>
2
5
10

$$$$
