71693186
  -OEChem-12032416303D

 72 75  0     1  0  0  0  0  0999 V2000
   -1.4599   -2.9686    1.9493 O   0  0  0  0  0  0  0  0  0  0  0  0
   -5.4158    0.4730    0.1402 O   0  0  0  0  0  0  0  0  0  0  0  0
   -5.3162    2.0381   -1.5450 O   0  0  0  0  0  0  0  0  0  0  0  0
    1.9213   -2.7441   -0.0318 N   0  0  0  0  0  0  0  0  0  0  0  0
    0.0083    2.6401   -1.1869 N   0  0  0  0  0  0  0  0  0  0  0  0
    0.5240    2.3210    0.9513 N   0  0  0  0  0  0  0  0  0  0  0  0
    3.7738   -0.5689   -0.6657 C   0  0  1  0  0  0  0  0  0  0  0  0
    3.3384   -0.9097    0.7785 C   0  0  1  0  0  0  0  0  0  0  0  0
    3.1006    0.7272   -1.1388 C   0  0  0  0  0  0  0  0  0  0  0  0
    3.3834    1.9342   -0.2189 C   0  0  2  0  0  0  0  0  0  0  0  0
    5.3012   -0.4753   -0.7823 C   0  0  0  0  0  0  0  0  0  0  0  0
    3.3729    1.5722    1.2586 C   0  0  0  0  0  0  0  0  0  0  0  0
    3.3408    0.2958    1.6837 C   0  0  0  0  0  0  0  0  0  0  0  0
    1.9528   -1.5626    0.8128 C   0  0  0  0  0  0  0  0  0  0  0  0
    2.3958    3.0555   -0.5651 C   0  0  0  0  0  0  0  0  0  0  0  0
    5.6929    0.2704   -2.0539 C   0  0  0  0  0  0  0  0  0  0  0  0
    5.9230   -1.8681   -0.7586 C   0  0  0  0  0  0  0  0  0  0  0  0
    3.4603    2.6994    2.2506 C   0  0  0  0  0  0  0  0  0  0  0  0
    0.9843    2.6665   -0.2301 C   0  0  0  0  0  0  0  0  0  0  0  0
    0.8108   -3.6175    0.3290 C   0  0  0  0  0  0  0  0  0  0  0  0
   -1.1598    2.2515   -0.5827 C   0  0  0  0  0  0  0  0  0  0  0  0
   -0.8118    2.0586    0.7513 C   0  0  0  0  0  0  0  0  0  0  0  0
   -0.4947   -3.1281   -0.2392 C   0  0  0  0  0  0  0  0  0  0  0  0
   -2.4514    2.0583   -1.0737 C   0  0  0  0  0  0  0  0  0  0  0  0
   -1.7984    1.6484    1.6639 C   0  0  0  0  0  0  0  0  0  0  0  0
   -1.5685   -2.8267    0.5985 C   0  0  0  0  0  0  0  0  0  0  0  0
   -0.6237   -2.9776   -1.6198 C   0  0  0  0  0  0  0  0  0  0  0  0
   -3.4208    1.6501   -0.1514 C   0  0  0  0  0  0  0  0  0  0  0  0
   -3.1022    1.4483    1.1935 C   0  0  0  0  0  0  0  0  0  0  0  0
   -2.7712   -2.3748    0.0556 C   0  0  0  0  0  0  0  0  0  0  0  0
   -1.8266   -2.5257   -2.1629 C   0  0  0  0  0  0  0  0  0  0  0  0
   -2.9003   -2.2243   -1.3251 C   0  0  0  0  0  0  0  0  0  0  0  0
   -4.7864    1.4327   -0.6042 C   0  0  0  0  0  0  0  0  0  0  0  0
   -2.6070   -2.6377    2.7295 C   0  0  0  0  0  0  0  0  0  0  0  0
   -6.7699    0.1681   -0.2102 C   0  0  0  0  0  0  0  0  0  0  0  0
    3.4525   -1.3538   -1.3619 H   0  0  0  0  0  0  0  0  0  0  0  0
    4.0444   -1.6262    1.2144 H   0  0  0  0  0  0  0  0  0  0  0  0
    2.0238    0.5177   -1.1667 H   0  0  0  0  0  0  0  0  0  0  0  0
    3.3334    0.9753   -2.1801 H   0  0  0  0  0  0  0  0  0  0  0  0
    4.3882    2.3172   -0.4339 H   0  0  0  0  0  0  0  0  0  0  0  0
    5.7182    0.0853    0.0636 H   0  0  0  0  0  0  0  0  0  0  0  0
    3.3351    0.0885    2.7517 H   0  0  0  0  0  0  0  0  0  0  0  0
    1.1785   -0.8546    0.4938 H   0  0  0  0  0  0  0  0  0  0  0  0
    1.7311   -1.8259    1.8563 H   0  0  0  0  0  0  0  0  0  0  0  0
    2.4770    3.2996   -1.6323 H   0  0  0  0  0  0  0  0  0  0  0  0
    2.6437    3.9777   -0.0262 H   0  0  0  0  0  0  0  0  0  0  0  0
    6.7747    0.1867   -2.2157 H   0  0  0  0  0  0  0  0  0  0  0  0
    5.4892    1.3425   -2.0159 H   0  0  0  0  0  0  0  0  0  0  0  0
    5.2091   -0.1564   -2.9397 H   0  0  0  0  0  0  0  0  0  0  0  0
    7.0114   -1.8040   -0.8685 H   0  0  0  0  0  0  0  0  0  0  0  0
    5.5455   -2.4876   -1.5795 H   0  0  0  0  0  0  0  0  0  0  0  0
    5.7301   -2.3958    0.1790 H   0  0  0  0  0  0  0  0  0  0  0  0
    4.3125    3.3442    2.0110 H   0  0  0  0  0  0  0  0  0  0  0  0
    3.6113    2.3342    3.2726 H   0  0  0  0  0  0  0  0  0  0  0  0
    2.5550    3.3110    2.2582 H   0  0  0  0  0  0  0  0  0  0  0  0
    2.7886   -3.2665    0.0967 H   0  0  0  0  0  0  0  0  0  0  0  0
    0.7717   -3.7945    1.4100 H   0  0  0  0  0  0  0  0  0  0  0  0
    0.9971   -4.6061   -0.1115 H   0  0  0  0  0  0  0  0  0  0  0  0
    0.1237    2.8646   -2.1664 H   0  0  0  0  0  0  0  0  0  0  0  0
   -2.6808    2.2163   -2.1221 H   0  0  0  0  0  0  0  0  0  0  0  0
   -1.5606    1.4900    2.7109 H   0  0  0  0  0  0  0  0  0  0  0  0
    0.2011   -3.2132   -2.2873 H   0  0  0  0  0  0  0  0  0  0  0  0
   -3.8574    1.1424    1.9141 H   0  0  0  0  0  0  0  0  0  0  0  0
   -3.6468   -2.1203    0.6427 H   0  0  0  0  0  0  0  0  0  0  0  0
   -1.9273   -2.4086   -3.2379 H   0  0  0  0  0  0  0  0  0  0  0  0
   -3.8361   -1.8707   -1.7486 H   0  0  0  0  0  0  0  0  0  0  0  0
   -2.3430   -2.8090    3.7783 H   0  0  0  0  0  0  0  0  0  0  0  0
   -3.4529   -3.2959    2.5038 H   0  0  0  0  0  0  0  0  0  0  0  0
   -2.8664   -1.5777    2.6374 H   0  0  0  0  0  0  0  0  0  0  0  0
   -7.1309   -0.6076    0.4701 H   0  0  0  0  0  0  0  0  0  0  0  0
   -6.8171   -0.2118   -1.2350 H   0  0  0  0  0  0  0  0  0  0  0  0
   -7.3979    1.0568   -0.0975 H   0  0  0  0  0  0  0  0  0  0  0  0
  1 26  1  0  0  0  0
  1 34  1  0  0  0  0
  2 33  1  0  0  0  0
  2 35  1  0  0  0  0
  3 33  2  0  0  0  0
  4 14  1  0  0  0  0
  4 20  1  0  0  0  0
  4 56  1  0  0  0  0
  5 19  1  0  0  0  0
  5 21  1  0  0  0  0
  5 59  1  0  0  0  0
  6 19  2  0  0  0  0
  6 22  1  0  0  0  0
  7  8  1  0  0  0  0
  7  9  1  0  0  0  0
  7 11  1  0  0  0  0
  7 36  1  0  0  0  0
  8 13  1  0  0  0  0
  8 14  1  0  0  0  0
  8 37  1  0  0  0  0
  9 10  1  0  0  0  0
  9 38  1  0  0  0  0
  9 39  1  0  0  0  0
 10 12  1  0  0  0  0
 10 15  1  0  0  0  0
 10 40  1  0  0  0  0
 11 16  1  0  0  0  0
 11 17  1  0  0  0  0
 11 41  1  0  0  0  0
 12 13  2  0  0  0  0
 12 18  1  0  0  0  0
 13 42  1  0  0  0  0
 14 43  1  0  0  0  0
 14 44  1  0  0  0  0
 15 19  1  0  0  0  0
 15 45  1  0  0  0  0
 15 46  1  0  0  0  0
 16 47  1  0  0  0  0
 16 48  1  0  0  0  0
 16 49  1  0  0  0  0
 17 50  1  0  0  0  0
 17 51  1  0  0  0  0
 17 52  1  0  0  0  0
 18 53  1  0  0  0  0
 18 54  1  0  0  0  0
 18 55  1  0  0  0  0
 20 23  1  0  0  0  0
 20 57  1  0  0  0  0
 20 58  1  0  0  0  0
 21 22  2  0  0  0  0
 21 24  1  0  0  0  0
 22 25  1  0  0  0  0
 23 26  1  0  0  0  0
 23 27  2  0  0  0  0
 24 28  2  0  0  0  0
 24 60  1  0  0  0  0
 25 29  2  0  0  0  0
 25 61  1  0  0  0  0
 26 30  2  0  0  0  0
 27 31  1  0  0  0  0
 27 62  1  0  0  0  0
 28 29  1  0  0  0  0
 28 33  1  0  0  0  0
 29 63  1  0  0  0  0
 30 32  1  0  0  0  0
 30 64  1  0  0  0  0
 31 32  2  0  0  0  0
 31 65  1  0  0  0  0
 32 66  1  0  0  0  0
 34 67  1  0  0  0  0
 34 68  1  0  0  0  0
 34 69  1  0  0  0  0
 35 70  1  0  0  0  0
 35 71  1  0  0  0  0
 35 72  1  0  0  0  0
M  END
> <PUBCHEM_COMPOUND_CID>
71693186

> <PUBCHEM_CONFORMER_RMSD>
1

> <PUBCHEM_CONFORMER_DIVERSEORDER>
39
90
59
83
65
108
112
43
117
84
89
33
10
40
98
68
114
103
27
51
31
63
48
115
29
92
50
113
124
21
119
95
32
111
85
101
17
75
69
96
42
6
52
11
105
71
106
55
45
3
80
97
15
58
100
67
49
66
118
12
87
61
91
60
88
81
62
72
18
123
110
14
44
122
86
16
107
116
120
9
121
99
126
41
64
25
70
73
53
78
82
2
26
102
54
56
20
35
104
57
47
79
38
24
36
13
34
4
7
77
94
125
30
1
109
28
37
5
74
22
19
23
93
76
46
8

> <PUBCHEM_MMFF94_PARTIAL_CHARGES>
40
1 -0.36
10 0.14
12 -0.28
13 -0.29
14 0.27
15 0.18
18 0.14
19 0.01
2 -0.43
20 0.41
21 -0.15
22 0.23
23 -0.14
24 -0.15
25 -0.15
26 0.08
27 -0.15
28 0.09
29 -0.15
3 -0.57
30 -0.15
31 -0.15
32 -0.15
33 0.63
34 0.28
35 0.28
4 -0.9
42 0.15
5 0.03
56 0.36
59 0.27
6 -0.57
60 0.15
61 0.15
62 0.15
63 0.15
64 0.15
65 0.15
66 0.15
8 0.14

> <PUBCHEM_EFFECTIVE_ROTOR_COUNT>
10.8

> <PUBCHEM_PHARMACOPHORE_FEATURES>
11
1 1 acceptor
1 3 acceptor
1 4 cation
1 4 donor
1 5 donor
3 11 16 17 hydrophobe
3 5 6 19 cation
5 5 6 19 21 22 rings
6 21 22 24 25 28 29 rings
6 23 26 27 30 31 32 rings
6 7 8 9 10 12 13 rings

> <PUBCHEM_HEAVY_ATOM_COUNT>
35

> <PUBCHEM_ATOM_DEF_STEREO_COUNT>
3

> <PUBCHEM_ATOM_UDEF_STEREO_COUNT>
0

> <PUBCHEM_BOND_DEF_STEREO_COUNT>
0

> <PUBCHEM_BOND_UDEF_STEREO_COUNT>
0

> <PUBCHEM_ISOTOPIC_ATOM_COUNT>
0

> <PUBCHEM_COMPONENT_COUNT>
1

> <PUBCHEM_CACTVS_TAUTO_COUNT>
7

> <PUBCHEM_CONFORMER_ID>
0445F38200000027

> <PUBCHEM_MMFF94_ENERGY>
89.2057

> <PUBCHEM_FEATURE_SELFOVERLAP>
55.928

> <PUBCHEM_SHAPE_FINGERPRINT>
11513181 2 18057044829503567030
11578080 2 17344612954275605282
12156800 1 16616094098694741651
13122387 1 17979354162085897218
13402501 40 18410578348864805670
1361 2 18409163290833522505
14117953 113 18050838919102850509
14725015 67 17900245421559224385
14840074 17 18334583408404928509
15001296 14 18264477572107619061
15968369 153 18197774612850907227
16112460 7 18272661168154455633
17492 54 18338791196660209551
19319366 153 17894915075535979426
20764821 26 18340197587474077598
21133410 90 17203604925788234835
23559900 14 18272086132253064960
24941158 1 16414914275192685728
3052486 1 18409162234566648434
3298306 158 18335691690561618549
3383291 50 18202846539245872967
338550 245 18336542827987590085
35225 105 18340197493127274254
463206 1 18335702762365088081
508706 21 18263080075174177530
6287921 2 17412472325462154791

> <PUBCHEM_SHAPE_MULTIPOLES>
687.73
11.49
5.07
2.04
1.49
2.15
0.61
-2.07
-3.23
1.19
0.25
-0.09
0.46
1.38

> <PUBCHEM_SHAPE_SELFOVERLAP>
1468.236

> <PUBCHEM_SHAPE_VOLUME>
381.6

> <PUBCHEM_COORDINATE_TYPE>
2
5
10

$$$$
