11883264
  -OEChem-12032416123D

 44 46  0     1  0  0  0  0  0999 V2000
   -2.0894    0.3620   -0.9193 O   0  0  0  0  0  0  0  0  0  0  0  0
   -2.3728    2.5006    1.2734 O   0  0  0  0  0  0  0  0  0  0  0  0
   -4.5323   -0.1790    0.2777 O   0  0  0  0  0  0  0  0  0  0  0  0
    2.1556    2.5799   -1.0608 O   0  0  0  0  0  0  0  0  0  0  0  0
   -6.3391   -1.5999   -1.1122 O   0  0  0  0  0  0  0  0  0  0  0  0
    6.3758   -1.9411    0.1246 O   0  0  0  0  0  0  0  0  0  0  0  0
    0.7991    1.0647    0.0538 N   0  0  0  0  0  0  0  0  0  0  0  0
   -5.4114   -3.6129   -0.4934 N   0  0  0  0  0  0  0  0  0  0  0  0
   -1.3960    1.4588    1.0675 C   0  0  1  0  0  0  0  0  0  0  0  0
   -2.1410    0.2605    0.5134 C   0  0  1  0  0  0  0  0  0  0  0  0
   -0.4548    1.8491   -0.0449 C   0  0  2  0  0  0  0  0  0  0  0  0
   -3.5405    0.4720    1.0391 C   0  0  1  0  0  0  0  0  0  0  0  0
   -1.2179    1.4411   -1.2901 C   0  0  0  0  0  0  0  0  0  0  0  0
   -3.6770    1.9768    0.9839 C   0  0  0  0  0  0  0  0  0  0  0  0
    2.0021    1.5130   -0.4720 C   0  0  0  0  0  0  0  0  0  0  0  0
   -4.4007   -1.5974    0.3318 C   0  0  0  0  0  0  0  0  0  0  0  0
    3.1616    0.5979   -0.3137 C   0  0  0  0  0  0  0  0  0  0  0  0
   -5.4871   -2.2372   -0.4999 C   0  0  0  0  0  0  0  0  0  0  0  0
    4.1893    0.6598   -1.2316 C   0  0  0  0  0  0  0  0  0  0  0  0
    3.1735   -0.2849    0.7464 C   0  0  0  0  0  0  0  0  0  0  0  0
    5.2778   -0.1998   -1.0831 C   0  0  0  0  0  0  0  0  0  0  0  0
    4.2620   -1.1444    0.8951 C   0  0  0  0  0  0  0  0  0  0  0  0
    5.3143   -1.1018   -0.0197 C   0  0  0  0  0  0  0  0  0  0  0  0
    6.3487   -2.8380    1.2339 C   0  0  0  0  0  0  0  0  0  0  0  0
   -0.9115    1.2631    2.0294 H   0  0  0  0  0  0  0  0  0  0  0  0
   -1.6928   -0.6957    0.7993 H   0  0  0  0  0  0  0  0  0  0  0  0
   -0.2023    2.9140   -0.0639 H   0  0  0  0  0  0  0  0  0  0  0  0
   -3.5971    0.1538    2.0888 H   0  0  0  0  0  0  0  0  0  0  0  0
   -0.5805    1.1220   -2.1204 H   0  0  0  0  0  0  0  0  0  0  0  0
   -1.8546    2.2605   -1.6412 H   0  0  0  0  0  0  0  0  0  0  0  0
   -4.3960    2.3563    1.7161 H   0  0  0  0  0  0  0  0  0  0  0  0
   -3.9899    2.3308   -0.0048 H   0  0  0  0  0  0  0  0  0  0  0  0
    0.7189    0.1245    0.4264 H   0  0  0  0  0  0  0  0  0  0  0  0
   -4.4997   -1.9417    1.3674 H   0  0  0  0  0  0  0  0  0  0  0  0
   -3.4378   -1.9190   -0.0779 H   0  0  0  0  0  0  0  0  0  0  0  0
    4.1739    1.3524   -2.0678 H   0  0  0  0  0  0  0  0  0  0  0  0
    2.3913   -0.3247    1.4974 H   0  0  0  0  0  0  0  0  0  0  0  0
   -4.6956   -4.1146    0.0225 H   0  0  0  0  0  0  0  0  0  0  0  0
   -6.0791   -4.1747   -1.0110 H   0  0  0  0  0  0  0  0  0  0  0  0
    6.0939   -0.1632   -1.7996 H   0  0  0  0  0  0  0  0  0  0  0  0
    4.2299   -1.8148    1.7472 H   0  0  0  0  0  0  0  0  0  0  0  0
    6.3577   -2.2989    2.1874 H   0  0  0  0  0  0  0  0  0  0  0  0
    5.5122   -3.5414    1.1626 H   0  0  0  0  0  0  0  0  0  0  0  0
    7.2686   -3.4304    1.1932 H   0  0  0  0  0  0  0  0  0  0  0  0
  1 10  1  0  0  0  0
  1 13  1  0  0  0  0
  2  9  1  0  0  0  0
  2 14  1  0  0  0  0
  3 12  1  0  0  0  0
  3 16  1  0  0  0  0
  4 15  2  0  0  0  0
  5 18  2  0  0  0  0
  6 23  1  0  0  0  0
  6 24  1  0  0  0  0
  7 11  1  0  0  0  0
  7 15  1  0  0  0  0
  7 33  1  0  0  0  0
  8 18  1  0  0  0  0
  8 38  1  0  0  0  0
  8 39  1  0  0  0  0
  9 10  1  0  0  0  0
  9 11  1  0  0  0  0
  9 25  1  0  0  0  0
 10 12  1  0  0  0  0
 10 26  1  0  0  0  0
 11 13  1  0  0  0  0
 11 27  1  0  0  0  0
 12 14  1  0  0  0  0
 12 28  1  0  0  0  0
 13 29  1  0  0  0  0
 13 30  1  0  0  0  0
 14 31  1  0  0  0  0
 14 32  1  0  0  0  0
 15 17  1  0  0  0  0
 16 18  1  0  0  0  0
 16 34  1  0  0  0  0
 16 35  1  0  0  0  0
 17 19  2  0  0  0  0
 17 20  1  0  0  0  0
 19 21  1  0  0  0  0
 19 36  1  0  0  0  0
 20 22  2  0  0  0  0
 20 37  1  0  0  0  0
 21 23  2  0  0  0  0
 21 40  1  0  0  0  0
 22 23  1  0  0  0  0
 22 41  1  0  0  0  0
 24 42  1  0  0  0  0
 24 43  1  0  0  0  0
 24 44  1  0  0  0  0
M  END
> <PUBCHEM_COMPOUND_CID>
11883264

> <PUBCHEM_CONFORMER_RMSD>
0.8

> <PUBCHEM_CONFORMER_DIVERSEORDER>
1
16
40
13
45
32
10
33
38
44
26
5
41
21
46
36
48
24
15
31
11
22
35
42
34
27
39
20
9
25
30
6
23
12
14
37
47
17
28
18
8
3
7
29
19
4
43
2

> <PUBCHEM_MMFF94_PARTIAL_CHARGES>
31
1 -0.56
10 0.28
11 0.3
12 0.28
13 0.28
14 0.28
15 0.54
16 0.34
17 0.09
18 0.57
19 -0.15
2 -0.56
20 -0.15
21 -0.15
22 -0.15
23 0.08
24 0.28
3 -0.56
33 0.37
36 0.15
37 0.15
38 0.37
39 0.37
4 -0.57
40 0.15
41 0.15
5 -0.57
6 -0.36
7 -0.73
8 -0.8
9 0.28

> <PUBCHEM_EFFECTIVE_ROTOR_COUNT>
8.2

> <PUBCHEM_PHARMACOPHORE_FEATURES>
11
1 1 acceptor
1 2 acceptor
1 3 acceptor
1 4 acceptor
1 5 acceptor
1 6 acceptor
1 7 donor
1 8 donor
5 1 9 10 11 13 rings
5 2 9 10 12 14 rings
6 17 19 20 21 22 23 rings

> <PUBCHEM_HEAVY_ATOM_COUNT>
24

> <PUBCHEM_ATOM_DEF_STEREO_COUNT>
4

> <PUBCHEM_ATOM_UDEF_STEREO_COUNT>
0

> <PUBCHEM_BOND_DEF_STEREO_COUNT>
0

> <PUBCHEM_BOND_UDEF_STEREO_COUNT>
0

> <PUBCHEM_ISOTOPIC_ATOM_COUNT>
0

> <PUBCHEM_COMPONENT_COUNT>
1

> <PUBCHEM_CACTVS_TAUTO_COUNT>
4

> <PUBCHEM_CONFORMER_ID>
00B5530000000001

> <PUBCHEM_MMFF94_ENERGY>
77.6426

> <PUBCHEM_FEATURE_SELFOVERLAP>
56.548

> <PUBCHEM_SHAPE_FINGERPRINT>
10074138 170 17344930537443755241
10498660 4 12612754618537217852
10622 236 18409441522693459543
11545043 162 17704072863154983504
11796584 16 18270967817363370928
11809386 21 18412266125584424571
12236239 1 18338242570407266336
12390115 104 12035442823270813861
12596602 18 18202282485907421104
12760667 363 18341332271227499755
12839892 36 17846789515796176287
13533116 47 18339926042351303761
14251751 18 18201717357846502298
14848178 5 18339355370457874427
15188451 53 18130782356648484479
15250474 111 18409732850209024778
15519825 34 15840969187823628559
15880784 105 18342179951526499936
17780758 139 18200589177681336048
17857418 61 18409732867388374115
18222031 100 18334010618370234256
19784866 240 18334857220964589797
20028762 73 18413387640225130774
20843269 155 18341610464190151011
21033648 29 15912766055787397816
21315759 148 17489593316775196366
21401589 2 12823289100391000647
21637258 2 18272085024240374285
21774942 28 11025797605238289070
23522609 53 18047224940838013468
23559900 14 18340762745494954625
23622692 118 18410292518817792893
270888 7 9367349236295588586
2838139 119 10953732352392418407
3004659 81 18262514909444775839
314194 84 18187939360912522712
46194498 28 15070055444397075293
465052 167 18340492260853777094
5085150 59 18131346385219446519
5104073 3 17846786229882730329
559249 180 18337391539838324361
5718773 13 18335977593607744634
59682541 52 14201387245710101954
636775 72 8933840368262377102
6679774 75 11219851356489321165
76465 3 18341614858321191281
7970288 3 18410008810827684714
960060 61 17458345285706282237
96874 4 18410567405331008951

> <PUBCHEM_SHAPE_MULTIPOLES>
448.73
16.42
3.23
1.27
4.55
1.81
0.01
17.07
0.6
-2.39
-0.04
0.07
-0.19
-3.33

> <PUBCHEM_SHAPE_SELFOVERLAP>
956.205

> <PUBCHEM_SHAPE_VOLUME>
250.3

> <PUBCHEM_COORDINATE_TYPE>
2
5
10

$$$$
