45783472
  -OEChem-12032416263D

 53 56  0     1  0  0  0  0  0999 V2000
    4.1422   -5.6323   -0.1852 Cl  0  0  0  0  0  0  0  0  0  0  0  0
    1.0797    3.3615    1.1074 O   0  0  0  0  0  0  0  0  0  0  0  0
   -7.6883   -1.9711    0.2606 O   0  0  0  0  0  0  0  0  0  0  0  0
    3.5648    1.0382   -0.2826 N   0  0  1  0  0  0  0  0  0  0  0  0
    0.6280    1.5529   -0.1343 N   0  0  0  0  0  0  0  0  0  0  0  0
   -0.3007    3.1505    1.2144 N   0  0  0  0  0  0  0  0  0  0  0  0
   -4.1543    1.4985    0.7314 N   0  0  0  0  0  0  0  0  0  0  0  0
   -5.5546   -0.1707   -0.2323 N   0  0  0  0  0  0  0  0  0  0  0  0
    3.0378    2.3840    0.0192 C   0  0  1  0  0  0  0  0  0  0  0  0
    3.4105    3.2346   -1.2091 C   0  0  0  0  0  0  0  0  0  0  0  0
    4.1958    2.2990   -2.1173 C   0  0  0  0  0  0  0  0  0  0  0  0
    4.7103    1.2325   -1.1716 C   0  0  0  0  0  0  0  0  0  0  0  0
    3.9189    0.2792    0.9098 C   0  0  0  0  0  0  0  0  0  0  0  0
    1.5490    2.3777    0.2960 C   0  0  0  0  0  0  0  0  0  0  0  0
    3.9755   -1.2003    0.6366 C   0  0  0  0  0  0  0  0  0  0  0  0
    2.8317   -1.9828    0.7950 C   0  0  0  0  0  0  0  0  0  0  0  0
    5.1713   -1.7886    0.2246 C   0  0  0  0  0  0  0  0  0  0  0  0
   -0.4900    2.0670    0.4553 C   0  0  0  0  0  0  0  0  0  0  0  0
    2.8836   -3.3534    0.5419 C   0  0  0  0  0  0  0  0  0  0  0  0
    5.2234   -3.1593   -0.0285 C   0  0  0  0  0  0  0  0  0  0  0  0
   -1.7823    1.4749    0.2643 C   0  0  0  0  0  0  0  0  0  0  0  0
    4.0795   -3.9417    0.1302 C   0  0  0  0  0  0  0  0  0  0  0  0
   -1.9434    0.3478   -0.5340 C   0  0  0  0  0  0  0  0  0  0  0  0
   -2.9094    2.0071    0.8695 C   0  0  0  0  0  0  0  0  0  0  0  0
   -3.2086   -0.2045   -0.7004 C   0  0  0  0  0  0  0  0  0  0  0  0
   -4.2718    0.4030   -0.0521 C   0  0  0  0  0  0  0  0  0  0  0  0
   -5.7756   -1.3252   -1.0408 C   0  0  0  0  0  0  0  0  0  0  0  0
   -7.2549   -1.6709   -1.0601 C   0  0  0  0  0  0  0  0  0  0  0  0
   -9.0683   -2.3076    0.2921 C   0  0  0  0  0  0  0  0  0  0  0  0
    3.5538    2.8086    0.8922 H   0  0  0  0  0  0  0  0  0  0  0  0
    2.5464    3.6537   -1.7360 H   0  0  0  0  0  0  0  0  0  0  0  0
    4.0519    4.0685   -0.8987 H   0  0  0  0  0  0  0  0  0  0  0  0
    5.0020    2.8160   -2.6459 H   0  0  0  0  0  0  0  0  0  0  0  0
    3.5260    1.8569   -2.8653 H   0  0  0  0  0  0  0  0  0  0  0  0
    5.5939    1.6007   -0.6351 H   0  0  0  0  0  0  0  0  0  0  0  0
    4.9778    0.3269   -1.7236 H   0  0  0  0  0  0  0  0  0  0  0  0
    3.1651    0.4341    1.6944 H   0  0  0  0  0  0  0  0  0  0  0  0
    4.8621    0.6240    1.3554 H   0  0  0  0  0  0  0  0  0  0  0  0
    1.8929   -1.5363    1.1122 H   0  0  0  0  0  0  0  0  0  0  0  0
    6.0716   -1.1924    0.1025 H   0  0  0  0  0  0  0  0  0  0  0  0
    1.9841   -3.9504    0.6684 H   0  0  0  0  0  0  0  0  0  0  0  0
    6.1622   -3.6043   -0.3481 H   0  0  0  0  0  0  0  0  0  0  0  0
   -1.1012   -0.1206   -1.0370 H   0  0  0  0  0  0  0  0  0  0  0  0
   -2.8695    2.8849    1.5077 H   0  0  0  0  0  0  0  0  0  0  0  0
   -3.2981   -1.0835   -1.3276 H   0  0  0  0  0  0  0  0  0  0  0  0
   -6.3233    0.2808    0.2501 H   0  0  0  0  0  0  0  0  0  0  0  0
   -5.4533   -1.1512   -2.0740 H   0  0  0  0  0  0  0  0  0  0  0  0
   -5.2253   -2.1814   -0.6322 H   0  0  0  0  0  0  0  0  0  0  0  0
   -7.8371   -0.8284   -1.4532 H   0  0  0  0  0  0  0  0  0  0  0  0
   -7.4180   -2.5421   -1.7051 H   0  0  0  0  0  0  0  0  0  0  0  0
   -9.6761   -1.4685   -0.0599 H   0  0  0  0  0  0  0  0  0  0  0  0
   -9.2611   -3.1954   -0.3180 H   0  0  0  0  0  0  0  0  0  0  0  0
   -9.3451   -2.5286    1.3265 H   0  0  0  0  0  0  0  0  0  0  0  0
  1 22  1  0  0  0  0
  2  6  1  0  0  0  0
  2 14  1  0  0  0  0
  3 28  1  0  0  0  0
  3 29  1  0  0  0  0
  4  9  1  0  0  0  0
  4 12  1  0  0  0  0
  4 13  1  0  0  0  0
  5 14  2  0  0  0  0
  5 18  1  0  0  0  0
  6 18  2  0  0  0  0
  7 24  1  0  0  0  0
  7 26  2  0  0  0  0
  8 26  1  0  0  0  0
  8 27  1  0  0  0  0
  8 46  1  0  0  0  0
  9 10  1  0  0  0  0
  9 14  1  0  0  0  0
  9 30  1  0  0  0  0
 10 11  1  0  0  0  0
 10 31  1  0  0  0  0
 10 32  1  0  0  0  0
 11 12  1  0  0  0  0
 11 33  1  0  0  0  0
 11 34  1  0  0  0  0
 12 35  1  0  0  0  0
 12 36  1  0  0  0  0
 13 15  1  0  0  0  0
 13 37  1  0  0  0  0
 13 38  1  0  0  0  0
 15 16  2  0  0  0  0
 15 17  1  0  0  0  0
 16 19  1  0  0  0  0
 16 39  1  0  0  0  0
 17 20  2  0  0  0  0
 17 40  1  0  0  0  0
 18 21  1  0  0  0  0
 19 22  2  0  0  0  0
 19 41  1  0  0  0  0
 20 22  1  0  0  0  0
 20 42  1  0  0  0  0
 21 23  1  0  0  0  0
 21 24  2  0  0  0  0
 23 25  2  0  0  0  0
 23 43  1  0  0  0  0
 24 44  1  0  0  0  0
 25 26  1  0  0  0  0
 25 45  1  0  0  0  0
 27 28  1  0  0  0  0
 27 47  1  0  0  0  0
 27 48  1  0  0  0  0
 28 49  1  0  0  0  0
 28 50  1  0  0  0  0
 29 51  1  0  0  0  0
 29 52  1  0  0  0  0
 29 53  1  0  0  0  0
M  END
> <PUBCHEM_COMPOUND_CID>
45783472

> <PUBCHEM_CONFORMER_RMSD>
1

> <PUBCHEM_CONFORMER_DIVERSEORDER>
1
36
53
109
40
95
25
90
96
114
22
77
9
121
52
107
71
54
92
103
99
28
47
26
101
23
3
55
66
108
113
2
37
11
105
83
91
89
61
32
104
57
102
16
117
60
6
81
24
88
85
116
120
68
73
74
72
82
38
87
7
67
20
111
115
44
106
65
8
76
19
64
100
5
110
97
21
39
80
62
93
27
63
50
42
18
17
118
31
46
35
75
13
58
41
78
30
59
70
94
34
43
112
10
119
15
86
56
49
14
48
33
98
69
79
29
12
4
84
45
51

> <PUBCHEM_MMFF94_PARTIAL_CHARGES>
35
1 -0.18
12 0.27
13 0.41
14 0.3
15 -0.14
16 -0.15
17 -0.15
18 0.46
19 -0.15
2 -0.02
20 -0.15
21 0.05
22 0.18
23 -0.15
24 0.16
25 -0.15
26 0.41
27 0.37
28 0.28
29 0.28
3 -0.56
39 0.15
4 -0.81
40 0.15
41 0.15
42 0.15
43 0.15
44 0.15
45 0.15
46 0.4
5 -0.57
6 -0.41
7 -0.62
8 -0.87
9 0.45

> <PUBCHEM_EFFECTIVE_ROTOR_COUNT>
9

> <PUBCHEM_PHARMACOPHORE_FEATURES>
9
1 3 acceptor
1 4 cation
1 8 donor
3 5 6 18 cation
3 7 8 26 cation
5 2 5 6 14 18 rings
5 4 9 10 11 12 rings
6 15 16 17 19 20 22 rings
6 7 21 23 24 25 26 rings

> <PUBCHEM_HEAVY_ATOM_COUNT>
29

> <PUBCHEM_ATOM_DEF_STEREO_COUNT>
1

> <PUBCHEM_ATOM_UDEF_STEREO_COUNT>
0

> <PUBCHEM_BOND_DEF_STEREO_COUNT>
0

> <PUBCHEM_BOND_UDEF_STEREO_COUNT>
0

> <PUBCHEM_ISOTOPIC_ATOM_COUNT>
0

> <PUBCHEM_COMPONENT_COUNT>
1

> <PUBCHEM_CACTVS_TAUTO_COUNT>
8

> <PUBCHEM_CONFORMER_ID>
02BA99B000000001

> <PUBCHEM_MMFF94_ENERGY>
66.7248

> <PUBCHEM_FEATURE_SELFOVERLAP>
45.672

> <PUBCHEM_SHAPE_FINGERPRINT>
10042902 136 17908712726983726958
10622 236 18270109124472708511
11014199 57 18050848810987785902
11069576 57 18408887317799381324
11227150 75 16591091020123485562
11409948 35 18410288122158938031
117089 54 18340774736759054923
11801155 225 17984137334226475295
12107183 9 18053672365137663249
13533116 47 18339357565344255849
13692114 37 18338791347521972922
13989917 61 18409729603572977827
14347332 77 18413385445839337437
14863182 85 18409725176189020312
15250474 111 18411418435867217653
15264996 154 18340782437793731710
15475509 35 18272925059471584001
15803439 3 17464577383044511244
16067689 302 18262807397478244107
16628084 112 18410009923767143815
16728300 4 18200589203699014383
17134984 74 18263927802976345157
17492 89 18267300937415526202
19026451 147 18410292476416746134
19315092 285 17846492613275800816
19319366 153 18268429225551422500
20587220 46 18060137660917946534
20775438 99 18334851757830155802
20775530 9 18048310051555476938
21304303 94 18187924036010203464
21585483 132 17700672220569130311
23522609 53 18125754337922036297
23559900 14 18194392299687066232
23569914 152 17763706977523312509
24893989 43 17342374430269870135
34797466 226 16733259166553754413
3534868 343 18262528094853106861
397830 11 11023824042169586037
439807 62 18409449207133113935
4435113 14 17823710848555817195
45270241 37 18116156747988004477
46194498 28 17822001034447945556
463206 1 18411979174413706594
5104073 3 17632297895783773121
56633871 153 17909836431165112881
57634706 306 10375878455481483153
6058803 2 18196955300189419048
6201460 15 18051975822711643714
6441014 3 17690836766198089122
6677587 24 17317021856738805148
7970288 3 18268706117471103490
9555976 147 17631740340403707929
9831232 110 18334007264401755103

> <PUBCHEM_SHAPE_MULTIPOLES>
562.03
18.96
6.15
1.19
46.29
5.74
-0.34
20.62
-3.02
-9.67
0.07
-0.52
-0.77
-2.46

> <PUBCHEM_SHAPE_SELFOVERLAP>
1192.006

> <PUBCHEM_SHAPE_VOLUME>
317.2

> <PUBCHEM_COORDINATE_TYPE>
2
5
10

$$$$
