11911977
  -OEChem-12032416283D

 55 60  0     1  0  0  0  0  0999 V2000
   -3.0358   -1.0916   -0.5229 S   0  0  0  0  0  0  0  0  0  0  0  0
   -1.1773    2.0423   -1.4546 O   0  0  0  0  0  0  0  0  0  0  0  0
    2.8961   -1.9804   -0.6226 O   0  0  0  0  0  0  0  0  0  0  0  0
    0.9978   -3.4476    1.3511 O   0  0  0  0  0  0  0  0  0  0  0  0
    3.5970    0.7103   -0.6935 N   0  0  2  0  0  0  0  0  0  0  0  0
    0.7267    1.9731   -0.1101 N   0  0  0  0  0  0  0  0  0  0  0  0
    2.9226    3.1243   -0.7596 C   0  0  1  0  0  0  0  0  0  0  0  0
    2.7756    1.8902    1.3500 C   0  0  2  0  0  0  0  0  0  0  0  0
    3.1323    3.2447    0.7439 C   0  0  0  0  0  0  0  0  0  0  0  0
    3.8263    2.0121   -1.3326 C   0  0  0  0  0  0  0  0  0  0  0  0
    3.7088    0.8030    0.7700 C   0  0  0  0  0  0  0  0  0  0  0  0
    1.4335    2.8731   -1.0327 C   0  0  0  0  0  0  0  0  0  0  0  0
    1.3237    1.5435    1.0774 C   0  0  0  0  0  0  0  0  0  0  0  0
    4.5066   -0.3019   -1.2247 C   0  0  0  0  0  0  0  0  0  0  0  0
    0.6214    0.8144    1.9591 C   0  0  0  0  0  0  0  0  0  0  0  0
   -0.6068    1.6542   -0.4336 C   0  0  0  0  0  0  0  0  0  0  0  0
   -1.3578    0.8065    0.5579 C   0  0  0  0  0  0  0  0  0  0  0  0
   -0.7371    0.4377    1.6885 C   0  0  0  0  0  0  0  0  0  0  0  0
    4.2007   -1.6588   -0.6517 C   0  0  0  0  0  0  0  0  0  0  0  0
   -2.7435    0.3768    0.3003 C   0  0  0  0  0  0  0  0  0  0  0  0
    4.9952   -2.6323   -0.1530 C   0  0  0  0  0  0  0  0  0  0  0  0
   -3.9215    1.0105    0.6389 C   0  0  0  0  0  0  0  0  0  0  0  0
    2.8455   -3.2240   -0.0776 C   0  0  0  0  0  0  0  0  0  0  0  0
    4.1105   -3.6691    0.2285 C   0  0  0  0  0  0  0  0  0  0  0  0
   -5.0906    0.2898    0.2218 C   0  0  0  0  0  0  0  0  0  0  0  0
   -4.7467   -0.8956   -0.4352 C   0  0  0  0  0  0  0  0  0  0  0  0
    1.5085   -3.8161    0.0683 C   0  0  0  0  0  0  0  0  0  0  0  0
   -6.4646    0.5957    0.3753 C   0  0  0  0  0  0  0  0  0  0  0  0
   -5.7295   -1.7718   -0.9364 C   0  0  0  0  0  0  0  0  0  0  0  0
   -7.4419   -0.2712   -0.1208 C   0  0  0  0  0  0  0  0  0  0  0  0
   -7.0758   -1.4420   -0.7695 C   0  0  0  0  0  0  0  0  0  0  0  0
    3.2081    4.0653   -1.2462 H   0  0  0  0  0  0  0  0  0  0  0  0
    2.9445    1.9477    2.4335 H   0  0  0  0  0  0  0  0  0  0  0  0
    2.5055    4.0415    1.1633 H   0  0  0  0  0  0  0  0  0  0  0  0
    4.1746    3.5034    0.9671 H   0  0  0  0  0  0  0  0  0  0  0  0
    3.6395    1.9287   -2.4105 H   0  0  0  0  0  0  0  0  0  0  0  0
    4.8756    2.3150   -1.2125 H   0  0  0  0  0  0  0  0  0  0  0  0
    4.7436    1.0331    1.0597 H   0  0  0  0  0  0  0  0  0  0  0  0
    3.4486   -0.1453    1.2546 H   0  0  0  0  0  0  0  0  0  0  0  0
    0.9015    3.8326   -0.9741 H   0  0  0  0  0  0  0  0  0  0  0  0
    1.2853    2.5092   -2.0572 H   0  0  0  0  0  0  0  0  0  0  0  0
    5.5540   -0.0436   -1.0217 H   0  0  0  0  0  0  0  0  0  0  0  0
    4.3925   -0.3734   -2.3137 H   0  0  0  0  0  0  0  0  0  0  0  0
    1.0633    0.4622    2.8853 H   0  0  0  0  0  0  0  0  0  0  0  0
   -1.2330   -0.1746    2.4360 H   0  0  0  0  0  0  0  0  0  0  0  0
    6.0719   -2.6203   -0.0648 H   0  0  0  0  0  0  0  0  0  0  0  0
   -3.9527    1.9569    1.1662 H   0  0  0  0  0  0  0  0  0  0  0  0
    4.3657   -4.6212    0.6716 H   0  0  0  0  0  0  0  0  0  0  0  0
    0.8216   -3.4478   -0.7000 H   0  0  0  0  0  0  0  0  0  0  0  0
    1.5515   -4.9080    0.0112 H   0  0  0  0  0  0  0  0  0  0  0  0
   -6.7670    1.5094    0.8813 H   0  0  0  0  0  0  0  0  0  0  0  0
   -5.4522   -2.6905   -1.4454 H   0  0  0  0  0  0  0  0  0  0  0  0
   -8.4928   -0.0253    0.0031 H   0  0  0  0  0  0  0  0  0  0  0  0
   -7.8429   -2.1100   -1.1520 H   0  0  0  0  0  0  0  0  0  0  0  0
    0.1126   -3.8429    1.4273 H   0  0  0  0  0  0  0  0  0  0  0  0
  1 20  1  0  0  0  0
  1 26  1  0  0  0  0
  2 16  2  0  0  0  0
  3 19  1  0  0  0  0
  3 23  1  0  0  0  0
  4 27  1  0  0  0  0
  4 55  1  0  0  0  0
  5 10  1  0  0  0  0
  5 11  1  0  0  0  0
  5 14  1  0  0  0  0
  6 12  1  0  0  0  0
  6 13  1  0  0  0  0
  6 16  1  0  0  0  0
  7  9  1  0  0  0  0
  7 10  1  0  0  0  0
  7 12  1  0  0  0  0
  7 32  1  0  0  0  0
  8  9  1  0  0  0  0
  8 11  1  0  0  0  0
  8 13  1  0  0  0  0
  8 33  1  0  0  0  0
  9 34  1  0  0  0  0
  9 35  1  0  0  0  0
 10 36  1  0  0  0  0
 10 37  1  0  0  0  0
 11 38  1  0  0  0  0
 11 39  1  0  0  0  0
 12 40  1  0  0  0  0
 12 41  1  0  0  0  0
 13 15  2  0  0  0  0
 14 19  1  0  0  0  0
 14 42  1  0  0  0  0
 14 43  1  0  0  0  0
 15 18  1  0  0  0  0
 15 44  1  0  0  0  0
 16 17  1  0  0  0  0
 17 18  2  0  0  0  0
 17 20  1  0  0  0  0
 18 45  1  0  0  0  0
 19 21  2  0  0  0  0
 20 22  2  0  0  0  0
 21 24  1  0  0  0  0
 21 46  1  0  0  0  0
 22 25  1  0  0  0  0
 22 47  1  0  0  0  0
 23 24  2  0  0  0  0
 23 27  1  0  0  0  0
 24 48  1  0  0  0  0
 25 26  1  0  0  0  0
 25 28  2  0  0  0  0
 26 29  2  0  0  0  0
 27 49  1  0  0  0  0
 27 50  1  0  0  0  0
 28 30  1  0  0  0  0
 28 51  1  0  0  0  0
 29 31  1  0  0  0  0
 29 52  1  0  0  0  0
 30 31  2  0  0  0  0
 30 53  1  0  0  0  0
 31 54  1  0  0  0  0
M  END
> <PUBCHEM_COMPOUND_CID>
11911977

> <PUBCHEM_CONFORMER_RMSD>
0.8

> <PUBCHEM_CONFORMER_DIVERSEORDER>
1
17
36
22
23
37
6
29
13
28
32
15
14
24
30
31
2
39
11
19
33
20
25
26
34
3
38
8
27
35
5
4
21
9
16
10
12
7
18

> <PUBCHEM_MMFF94_PARTIAL_CHARGES>
38
1 -0.08
10 0.27
11 0.27
12 0.3
13 -0.03
14 0.45
15 -0.15
16 0.62
17 0.06
18 -0.15
19 -0.04
2 -0.57
20 -0.01
21 -0.15
22 -0.15
23 -0.04
24 -0.15
26 0.04
27 0.46
28 -0.15
29 -0.15
3 -0.28
30 -0.15
31 -0.15
4 -0.68
44 0.15
45 0.15
46 0.15
47 0.15
48 0.15
5 -0.81
51 0.15
52 0.15
53 0.15
54 0.15
55 0.4
6 -0.47
8 0.14

> <PUBCHEM_EFFECTIVE_ROTOR_COUNT>
5

> <PUBCHEM_PHARMACOPHORE_FEATURES>
11
1 2 acceptor
1 3 acceptor
1 4 acceptor
1 4 donor
1 5 cation
5 1 20 22 25 26 rings
5 3 19 21 23 24 rings
6 25 26 28 29 30 31 rings
6 5 7 8 9 10 11 rings
6 6 13 15 16 17 18 rings
6 6 7 8 9 12 13 rings

> <PUBCHEM_HEAVY_ATOM_COUNT>
31

> <PUBCHEM_ATOM_DEF_STEREO_COUNT>
2

> <PUBCHEM_ATOM_UDEF_STEREO_COUNT>
0

> <PUBCHEM_BOND_DEF_STEREO_COUNT>
0

> <PUBCHEM_BOND_UDEF_STEREO_COUNT>
0

> <PUBCHEM_ISOTOPIC_ATOM_COUNT>
0

> <PUBCHEM_COMPONENT_COUNT>
1

> <PUBCHEM_CACTVS_TAUTO_COUNT>
1

> <PUBCHEM_CONFORMER_ID>
00B5C32900000001

> <PUBCHEM_MMFF94_ENERGY>
68.3835

> <PUBCHEM_FEATURE_SELFOVERLAP>
57.436

> <PUBCHEM_SHAPE_FINGERPRINT>
10675989 125 18340487884351005400
10816530 23 17686344569634458124
11135609 149 18263342738336576460
11135609 187 18337396053205711856
11796584 16 17560529503162563853
11963148 33 17982722280479219735
12107183 9 18055363431559540241
12236239 1 18262230153714853585
12522641 33 18338794645566901648
12539745 222 13756702945095857236
12838863 1 18189047604568443290
13150687 139 17897464976625034540
13533116 47 18272090521788314481
1361 2 18335704982983992708
13773456 30 18192996152333295376
13782708 43 16701454710794347607
14068700 675 18199752449511940010
14347332 77 18341049627972400225
14784336 7 18130507539398766249
14931854 50 18339377287913642814
15001296 14 18129936896890191295
15183329 4 18411984693747602669
15324884 4 17538313978393444280
15475509 35 17989199360899488435
15799311 1 18268726050952056747
15927050 60 18055911245642047798
17492 54 18189918499307426470
19026451 147 18340488851119690370
19315092 285 18060418006027322417
19958102 18 18339069480803254335
20567600 247 18342175566206588999
20775438 99 18264477545863971363
20775530 9 18196082245217554422
21285901 2 17821722849284496669
21304303 94 18335420213804647074
21703447 108 18060133250007425336
21781055 127 16916799427872803699
23522609 53 17843431633530097153
23559900 14 18412255143542972251
23569914 152 17541343901847829247
23569943 247 18263645066007841595
25222932 49 16915365830889763461
27425 322 16661491885970456658
3004659 81 18060425715530385733
338550 245 18341046431830819542
404807 14 17766290777776876927
4073 2 18196372739625099331
46194498 28 17967533497117152348
463206 1 18412827997100562986
484989 97 18263661704326179666
513532 50 18041273344251395912
5309563 4 18266742377082244238
5326457 24 18342741845054908053
5372103 7 15865503712276987254
59682541 52 18408318896105032445
70251023 43 18335702680818238512

> <PUBCHEM_SHAPE_MULTIPOLES>
614.24
15.07
4.57
1.37
28.73
2.97
0.25
6.54
-3.36
-7.84
-0.1
-0.64
-0.52
-0.88

> <PUBCHEM_SHAPE_SELFOVERLAP>
1356.59

> <PUBCHEM_SHAPE_VOLUME>
331

> <PUBCHEM_COORDINATE_TYPE>
2
5
10

$$$$
