56775490
  -OEChem-12032416323D

 47 51  0     0  0  0  0  0  0999 V2000
   -6.6836   -2.8034    0.6452 F   0  0  0  0  0  0  0  0  0  0  0  0
    2.2499    4.2713    1.1110 O   0  0  0  0  0  0  0  0  0  0  0  0
   -2.9333    2.1687   -0.1021 O   0  0  0  0  0  0  0  0  0  0  0  0
    1.7800   -2.2788   -0.6693 O   0  0  0  0  0  0  0  0  0  0  0  0
    3.2859   -4.0113    0.0643 O   0  0  0  0  0  0  0  0  0  0  0  0
    1.8079    1.3505    0.4301 N   0  0  0  0  0  0  0  0  0  0  0  0
   -1.8320    2.9644   -0.3932 N   0  0  0  0  0  0  0  0  0  0  0  0
    1.4012    2.6796   -0.0303 C   0  0  0  0  0  0  0  0  0  0  0  0
    2.6337    3.5746   -0.0963 C   0  0  0  0  0  0  0  0  0  0  0  0
    1.0152    3.5220    1.1803 C   0  0  0  0  0  0  0  0  0  0  0  0
    0.4757    2.6317   -1.2073 C   0  0  0  0  0  0  0  0  0  0  0  0
    2.4068    0.6181   -0.6888 C   0  0  0  0  0  0  0  0  0  0  0  0
   -0.8871    2.1117   -0.7997 C   0  0  0  0  0  0  0  0  0  0  0  0
    3.3384   -0.4503   -0.2367 C   0  0  0  0  0  0  0  0  0  0  0  0
   -1.3303    0.7780   -0.7859 C   0  0  0  0  0  0  0  0  0  0  0  0
    2.9773   -1.7818   -0.2553 C   0  0  0  0  0  0  0  0  0  0  0  0
   -2.6223    0.8687   -0.3399 C   0  0  0  0  0  0  0  0  0  0  0  0
    4.6176   -0.1318    0.2255 C   0  0  0  0  0  0  0  0  0  0  0  0
    3.8372   -2.7711    0.1636 C   0  0  0  0  0  0  0  0  0  0  0  0
    5.4961   -1.1426    0.6536 C   0  0  0  0  0  0  0  0  0  0  0  0
    5.1056   -2.4835    0.6244 C   0  0  0  0  0  0  0  0  0  0  0  0
   -3.6688   -0.0781   -0.0850 C   0  0  0  0  0  0  0  0  0  0  0  0
    1.9826   -3.6918   -0.4644 C   0  0  0  0  0  0  0  0  0  0  0  0
   -3.4471   -1.4381   -0.3018 C   0  0  0  0  0  0  0  0  0  0  0  0
   -4.9088    0.3611    0.3788 C   0  0  0  0  0  0  0  0  0  0  0  0
   -4.4654   -2.3588   -0.0551 C   0  0  0  0  0  0  0  0  0  0  0  0
   -5.9271   -0.5595    0.6255 C   0  0  0  0  0  0  0  0  0  0  0  0
   -5.7054   -1.9195    0.4085 C   0  0  0  0  0  0  0  0  0  0  0  0
    2.6691    4.2669   -0.9446 H   0  0  0  0  0  0  0  0  0  0  0  0
    3.6202    3.1141    0.0167 H   0  0  0  0  0  0  0  0  0  0  0  0
    0.9120    3.0078    2.1418 H   0  0  0  0  0  0  0  0  0  0  0  0
    0.1646    4.1989    1.0536 H   0  0  0  0  0  0  0  0  0  0  0  0
    0.8549    2.0643   -2.0635 H   0  0  0  0  0  0  0  0  0  0  0  0
    0.3311    3.6482   -1.6014 H   0  0  0  0  0  0  0  0  0  0  0  0
    1.0657    0.7911    0.8486 H   0  0  0  0  0  0  0  0  0  0  0  0
    2.9822    1.2724   -1.3581 H   0  0  0  0  0  0  0  0  0  0  0  0
    1.6252    0.1736   -1.3151 H   0  0  0  0  0  0  0  0  0  0  0  0
   -0.7872   -0.1132   -1.0635 H   0  0  0  0  0  0  0  0  0  0  0  0
    4.9510    0.9025    0.2596 H   0  0  0  0  0  0  0  0  0  0  0  0
    6.4875   -0.8766    1.0101 H   0  0  0  0  0  0  0  0  0  0  0  0
    5.7799   -3.2657    0.9537 H   0  0  0  0  0  0  0  0  0  0  0  0
    1.8569   -4.2070   -1.4236 H   0  0  0  0  0  0  0  0  0  0  0  0
    1.2212   -4.0576    0.2341 H   0  0  0  0  0  0  0  0  0  0  0  0
   -2.4917   -1.8107   -0.6623 H   0  0  0  0  0  0  0  0  0  0  0  0
   -5.1203    1.4119    0.5599 H   0  0  0  0  0  0  0  0  0  0  0  0
   -4.2935   -3.4178   -0.2238 H   0  0  0  0  0  0  0  0  0  0  0  0
   -6.8930   -0.2185    0.9865 H   0  0  0  0  0  0  0  0  0  0  0  0
  1 28  1  0  0  0  0
  2  9  1  0  0  0  0
  2 10  1  0  0  0  0
  3  7  1  0  0  0  0
  3 17  1  0  0  0  0
  4 16  1  0  0  0  0
  4 23  1  0  0  0  0
  5 19  1  0  0  0  0
  5 23  1  0  0  0  0
  6  8  1  0  0  0  0
  6 12  1  0  0  0  0
  6 35  1  0  0  0  0
  7 13  2  0  0  0  0
  8  9  1  0  0  0  0
  8 10  1  0  0  0  0
  8 11  1  0  0  0  0
  9 29  1  0  0  0  0
  9 30  1  0  0  0  0
 10 31  1  0  0  0  0
 10 32  1  0  0  0  0
 11 13  1  0  0  0  0
 11 33  1  0  0  0  0
 11 34  1  0  0  0  0
 12 14  1  0  0  0  0
 12 36  1  0  0  0  0
 12 37  1  0  0  0  0
 13 15  1  0  0  0  0
 14 16  2  0  0  0  0
 14 18  1  0  0  0  0
 15 17  2  0  0  0  0
 15 38  1  0  0  0  0
 16 19  1  0  0  0  0
 17 22  1  0  0  0  0
 18 20  2  0  0  0  0
 18 39  1  0  0  0  0
 19 21  2  0  0  0  0
 20 21  1  0  0  0  0
 20 40  1  0  0  0  0
 21 41  1  0  0  0  0
 22 24  2  0  0  0  0
 22 25  1  0  0  0  0
 23 42  1  0  0  0  0
 23 43  1  0  0  0  0
 24 26  1  0  0  0  0
 24 44  1  0  0  0  0
 25 27  2  0  0  0  0
 25 45  1  0  0  0  0
 26 28  2  0  0  0  0
 26 46  1  0  0  0  0
 27 28  1  0  0  0  0
 27 47  1  0  0  0  0
M  END
> <PUBCHEM_COMPOUND_CID>
56775490

> <PUBCHEM_CONFORMER_RMSD>
0.8

> <PUBCHEM_CONFORMER_DIVERSEORDER>
1
286
149
173
251
17
301
209
184
56
134
252
128
195
185
298
194
238
119
275
212
158
203
153
147
306
291
71
148
260
313
256
76
193
172
262
311
213
176
307
303
175
160
132
183
246
18
58
261
93
264
110
310
163
26
133
277
11
234
297
199
266
292
135
115
202
94
225
103
221
91
253
95
118
142
130
268
127
186
15
314
305
157
154
92
293
257
274
162
198
290
187
294
229
68
269
100
123
244
271
152
259
207
188
267
300
101
54
141
72
13
44
308
278
245
304
302
170
168
23
88
64
233
241
224
155
201
33
167
228
236
182
96
111
139
283
281
180
50
216
214
117
255
178
276
25
211
34
126
265
280
191
272
235
105
174
177
192
239
129
285
284
28
156
258
21
222
231
232
151
61
226
8
181
73
289
210
159
219
223
5
230
240
299
171
250
59
106
104
38
109
312
273
55
161
197
263
47
41
131
215
248
220
179
49
52
60
121
99
35
136
208
40
112
12
243
124
42
29
150
249
63
78
164
48
27
24
36
237
66
16
74
288
200
217
14
89
296
169
97
227
247
90
254
206
165
144
75
4
67
65
138
43
166
107
57
190
125
45
145
82
39
270
143
98
295
86
242
279
120
287
37
19
77
81
309
31
3
84
189
62
196
108
113
146
87
122
2
10
116
69
22
7
51
140
282
6
9
80
79
85
83
30
204
102
205
53
32
114
20
137
70
46
218

> <PUBCHEM_MMFF94_PARTIAL_CHARGES>
37
1 -0.19
10 0.26
11 0.18
12 0.41
13 0.11
14 -0.14
15 -0.15
16 0.08
17 0.09
18 -0.15
19 0.08
2 -0.52
20 -0.15
21 -0.15
22 0.05
23 0.56
24 -0.15
25 -0.15
26 -0.15
27 -0.15
28 0.19
3 -0.02
35 0.36
38 0.15
39 0.15
4 -0.36
40 0.15
41 0.15
44 0.15
45 0.15
46 0.15
47 0.15
5 -0.36
6 -0.84
7 -0.41
8 0.21
9 0.26

> <PUBCHEM_EFFECTIVE_ROTOR_COUNT>
7.4

> <PUBCHEM_PHARMACOPHORE_FEATURES>
11
1 2 acceptor
1 4 acceptor
1 5 acceptor
1 6 cation
1 6 donor
1 7 acceptor
4 2 8 9 10 rings
5 3 7 13 15 17 rings
5 4 5 16 19 23 rings
6 14 16 18 19 20 21 rings
6 22 24 25 26 27 28 rings

> <PUBCHEM_HEAVY_ATOM_COUNT>
28

> <PUBCHEM_ATOM_DEF_STEREO_COUNT>
0

> <PUBCHEM_ATOM_UDEF_STEREO_COUNT>
0

> <PUBCHEM_BOND_DEF_STEREO_COUNT>
0

> <PUBCHEM_BOND_UDEF_STEREO_COUNT>
0

> <PUBCHEM_ISOTOPIC_ATOM_COUNT>
0

> <PUBCHEM_COMPONENT_COUNT>
1

> <PUBCHEM_CACTVS_TAUTO_COUNT>
1

> <PUBCHEM_CONFORMER_ID>
0362534200000001

> <PUBCHEM_MMFF94_ENERGY>
67.8288

> <PUBCHEM_FEATURE_SELFOVERLAP>
55.979

> <PUBCHEM_SHAPE_FINGERPRINT>
11070050 100 17557691762235582016
114674 6 18263080066631676874
11828532 37 17387142060160713323
12107183 9 18270131102416935865
12969540 37 18408880750509996972
13140716 1 18196369453500526702
13402501 40 18335420153490683139
13533116 47 18268996560940239451
1361 2 18121780801265964427
13989917 61 18192155021780937611
14725015 67 18259977185079311347
14863182 85 18046348809894605236
15320467 1 18410012143569643931
15352361 1 18336546027738121487
15927050 60 17837772592983357764
17492 89 18336827589173366617
19301679 30 18336271249575287545
19315092 285 17845651598760749739
20567600 70 18409444774257366210
20775530 9 18338511915895036758
21033650 10 16370993071871968005
23559900 14 18410281511396991865
3117164 225 18270413681168573385
3421961 26 18410292553293614781
373842 8 17977102689160218819
463206 1 18408609132171974882
50009960 94 18042945722786090275
5309563 4 18411981330075975270
54583773 228 18191313681486663350
613672 6 18124013660062689558
6433294 58 18410858801618233294
9555976 147 17560816433433893755

> <PUBCHEM_SHAPE_MULTIPOLES>
535.51
13.36
5.75
0.92
13.68
1.54
-0.02
-13.54
-3.47
-4.27
-0.59
-0.13
0.42
0.79

> <PUBCHEM_SHAPE_SELFOVERLAP>
1189.547

> <PUBCHEM_SHAPE_VOLUME>
288.1

> <PUBCHEM_COORDINATE_TYPE>
2
5
10

$$$$
