7682261
  -OEChem-12032416283D

 55 59  0     1  0  0  0  0  0999 V2000
    1.5920    2.8722    1.6927 S   0  0  0  0  0  0  0  0  0  0  0  0
    4.2971   -2.2857    1.7608 O   0  0  0  0  0  0  0  0  0  0  0  0
   -5.5310    1.2206    0.2370 O   0  0  0  0  0  0  0  0  0  0  0  0
    2.4208    1.3994   -1.0246 N   0  0  2  0  0  0  0  0  0  0  0  0
    2.7448   -1.5273    0.1798 N   0  0  0  0  0  0  0  0  0  0  0  0
   -5.0624   -0.9608   -0.5249 N   0  0  0  0  0  0  0  0  0  0  0  0
    3.4812   -0.5973   -2.0953 C   0  0  1  0  0  0  0  0  0  0  0  0
    1.1038   -0.6696   -1.5186 C   0  0  2  0  0  0  0  0  0  0  0  0
    2.1268   -1.0987   -2.5675 C   0  0  0  0  0  0  0  0  0  0  0  0
    3.4630    0.9377   -1.9485 C   0  0  0  0  0  0  0  0  0  0  0  0
    1.1020    0.8736   -1.4043 C   0  0  0  0  0  0  0  0  0  0  0  0
    3.8316   -1.3062   -0.7849 C   0  0  0  0  0  0  0  0  0  0  0  0
    1.3941   -1.3158   -0.1609 C   0  0  0  0  0  0  0  0  0  0  0  0
    2.3995    2.8580   -0.9457 C   0  0  0  0  0  0  0  0  0  0  0  0
    0.4133   -1.6662    0.7112 C   0  0  0  0  0  0  0  0  0  0  0  0
    3.1348   -2.0672    1.4181 C   0  0  0  0  0  0  0  0  0  0  0  0
    0.7776   -2.2218    2.0007 C   0  0  0  0  0  0  0  0  0  0  0  0
    2.0469   -2.4081    2.3626 C   0  0  0  0  0  0  0  0  0  0  0  0
   -1.0183   -1.4818    0.3883 C   0  0  0  0  0  0  0  0  0  0  0  0
    1.4102    3.3513    0.0700 C   0  0  0  0  0  0  0  0  0  0  0  0
   -1.6492   -0.2831    0.7062 C   0  0  0  0  0  0  0  0  0  0  0  0
   -1.7243   -2.5086   -0.2310 C   0  0  0  0  0  0  0  0  0  0  0  0
    0.3367    4.1669   -0.1373 C   0  0  0  0  0  0  0  0  0  0  0  0
   -0.3688    4.4132    1.0758 C   0  0  0  0  0  0  0  0  0  0  0  0
   -2.9993   -0.1094    0.4020 C   0  0  0  0  0  0  0  0  0  0  0  0
   -3.0745   -2.3349   -0.5353 C   0  0  0  0  0  0  0  0  0  0  0  0
    0.2067    3.7694    2.1490 C   0  0  0  0  0  0  0  0  0  0  0  0
   -3.7120   -1.1352   -0.2189 C   0  0  0  0  0  0  0  0  0  0  0  0
   -5.8648    0.1630   -0.2874 C   0  0  0  0  0  0  0  0  0  0  0  0
   -7.2783   -0.0477   -0.7693 C   0  0  0  0  0  0  0  0  0  0  0  0
    4.2461   -0.8486   -2.8405 H   0  0  0  0  0  0  0  0  0  0  0  0
    0.1230   -0.9834   -1.8933 H   0  0  0  0  0  0  0  0  0  0  0  0
    2.1320   -2.1891   -2.6887 H   0  0  0  0  0  0  0  0  0  0  0  0
    1.8781   -0.6676   -3.5450 H   0  0  0  0  0  0  0  0  0  0  0  0
    4.4453    1.2678   -1.5880 H   0  0  0  0  0  0  0  0  0  0  0  0
    3.3197    1.3857   -2.9413 H   0  0  0  0  0  0  0  0  0  0  0  0
    0.7885    1.2967   -2.3692 H   0  0  0  0  0  0  0  0  0  0  0  0
    0.3371    1.1578   -0.6774 H   0  0  0  0  0  0  0  0  0  0  0  0
    4.2186   -2.3064   -1.0248 H   0  0  0  0  0  0  0  0  0  0  0  0
    4.6510   -0.7838   -0.2746 H   0  0  0  0  0  0  0  0  0  0  0  0
    2.1721    3.2984   -1.9261 H   0  0  0  0  0  0  0  0  0  0  0  0
    3.3924    3.2314   -0.6604 H   0  0  0  0  0  0  0  0  0  0  0  0
   -0.0187   -2.4811    2.6923 H   0  0  0  0  0  0  0  0  0  0  0  0
    2.3100   -2.8192    3.3299 H   0  0  0  0  0  0  0  0  0  0  0  0
   -1.1091    0.5220    1.1980 H   0  0  0  0  0  0  0  0  0  0  0  0
   -1.2402   -3.4485   -0.4840 H   0  0  0  0  0  0  0  0  0  0  0  0
    0.0568    4.5732   -1.1006 H   0  0  0  0  0  0  0  0  0  0  0  0
   -1.2540    5.0305    1.1570 H   0  0  0  0  0  0  0  0  0  0  0  0
   -3.4237    0.8455    0.6792 H   0  0  0  0  0  0  0  0  0  0  0  0
   -3.6173   -3.1427   -1.0197 H   0  0  0  0  0  0  0  0  0  0  0  0
   -0.1205    3.7823    3.1791 H   0  0  0  0  0  0  0  0  0  0  0  0
   -5.5112   -1.7548   -0.9768 H   0  0  0  0  0  0  0  0  0  0  0  0
   -7.2792   -0.2129   -1.8503 H   0  0  0  0  0  0  0  0  0  0  0  0
   -7.8824    0.8356   -0.5440 H   0  0  0  0  0  0  0  0  0  0  0  0
   -7.7168   -0.9143   -0.2664 H   0  0  0  0  0  0  0  0  0  0  0  0
  1 20  1  0  0  0  0
  1 27  1  0  0  0  0
  2 16  2  0  0  0  0
  3 29  2  0  0  0  0
  4 10  1  0  0  0  0
  4 11  1  0  0  0  0
  4 14  1  0  0  0  0
  5 12  1  0  0  0  0
  5 13  1  0  0  0  0
  5 16  1  0  0  0  0
  6 28  1  0  0  0  0
  6 29  1  0  0  0  0
  6 52  1  0  0  0  0
  7  9  1  0  0  0  0
  7 10  1  0  0  0  0
  7 12  1  0  0  0  0
  7 31  1  0  0  0  0
  8  9  1  0  0  0  0
  8 11  1  0  0  0  0
  8 13  1  0  0  0  0
  8 32  1  0  0  0  0
  9 33  1  0  0  0  0
  9 34  1  0  0  0  0
 10 35  1  0  0  0  0
 10 36  1  0  0  0  0
 11 37  1  0  0  0  0
 11 38  1  0  0  0  0
 12 39  1  0  0  0  0
 12 40  1  0  0  0  0
 13 15  2  0  0  0  0
 14 20  1  0  0  0  0
 14 41  1  0  0  0  0
 14 42  1  0  0  0  0
 15 17  1  0  0  0  0
 15 19  1  0  0  0  0
 16 18  1  0  0  0  0
 17 18  2  0  0  0  0
 17 43  1  0  0  0  0
 18 44  1  0  0  0  0
 19 21  2  0  0  0  0
 19 22  1  0  0  0  0
 20 23  2  0  0  0  0
 21 25  1  0  0  0  0
 21 45  1  0  0  0  0
 22 26  2  0  0  0  0
 22 46  1  0  0  0  0
 23 24  1  0  0  0  0
 23 47  1  0  0  0  0
 24 27  2  0  0  0  0
 24 48  1  0  0  0  0
 25 28  2  0  0  0  0
 25 49  1  0  0  0  0
 26 28  1  0  0  0  0
 26 50  1  0  0  0  0
 27 51  1  0  0  0  0
 29 30  1  0  0  0  0
 30 53  1  0  0  0  0
 30 54  1  0  0  0  0
 30 55  1  0  0  0  0
M  END
> <PUBCHEM_COMPOUND_CID>
7682261

> <PUBCHEM_CONFORMER_RMSD>
0.8

> <PUBCHEM_CONFORMER_DIVERSEORDER>
1
4
7
2
5
6
3

> <PUBCHEM_MMFF94_PARTIAL_CHARGES>
38
1 -0.08
10 0.27
11 0.27
12 0.3
13 -0.03
14 0.45
15 -0.03
16 0.62
17 -0.15
18 -0.14
19 0.03
2 -0.57
20 -0.14
21 -0.15
22 -0.15
23 -0.15
24 -0.15
25 -0.15
26 -0.15
27 -0.11
28 0.12
29 0.57
3 -0.57
30 0.06
4 -0.81
43 0.15
44 0.15
45 0.15
46 0.15
47 0.15
48 0.15
49 0.15
5 -0.47
50 0.15
51 0.15
52 0.37
6 -0.55
8 0.14

> <PUBCHEM_EFFECTIVE_ROTOR_COUNT>
6

> <PUBCHEM_PHARMACOPHORE_FEATURES>
9
1 2 acceptor
1 3 acceptor
1 4 cation
1 6 donor
5 1 20 23 24 27 rings
6 19 21 22 25 26 28 rings
6 4 7 8 9 10 11 rings
6 5 13 15 16 17 18 rings
6 5 7 8 9 12 13 rings

> <PUBCHEM_HEAVY_ATOM_COUNT>
30

> <PUBCHEM_ATOM_DEF_STEREO_COUNT>
2

> <PUBCHEM_ATOM_UDEF_STEREO_COUNT>
0

> <PUBCHEM_BOND_DEF_STEREO_COUNT>
0

> <PUBCHEM_BOND_UDEF_STEREO_COUNT>
0

> <PUBCHEM_ISOTOPIC_ATOM_COUNT>
0

> <PUBCHEM_COMPONENT_COUNT>
1

> <PUBCHEM_CACTVS_TAUTO_COUNT>
2

> <PUBCHEM_CONFORMER_ID>
007538D500000001

> <PUBCHEM_MMFF94_ENERGY>
81.4564

> <PUBCHEM_FEATURE_SELFOVERLAP>
47.222

> <PUBCHEM_SHAPE_FINGERPRINT>
10675989 125 18197221558408249481
10764073 3 13707874801188343110
11331351 85 18121760764932902954
11578080 2 17825073069729866116
11582403 64 17693088982965486750
12156800 1 18267010675389838088
12539745 222 17760905370198883226
12788726 201 18267315235103367101
13878862 14 17459445837629150863
14068700 675 18116988897869643626
14468879 13 16757475054908207640
14931854 50 18337409182968189900
14955137 171 18261670363982117395
17980427 23 17843371176604735915
17980427 26 18046050816963927574
18681886 176 18201721794579848278
19026451 147 18343302574156802937
20600515 1 17988630883555408915
20642791 105 17828187814736991141
20764821 26 18265043636087156809
21304303 172 18194960734582587386
21315764 371 17048791189074717632
21330990 113 8635892567967111790
21344244 78 18044071489453689499
21475661 188 18052254286862986741
21860390 5 18200023083431948124
22122407 14 18042131960486742137
23559900 14 17917719049437528511
238 59 17266964451064038220
24893992 56 18188492492729090659
3298306 158 17768531943093047873
345986 75 17752465591187741602
35225 105 17260429628384945328
376196 1 17623850531966414377
4066623 53 18265594543216148325
513532 50 18131066073508634752
56638632 10 17763710558999191544
5895379 119 17917160385871855689
6086070 43 18410856603349488155
84936 182 18190461760323556818
9981440 41 17047111676594141496

> <PUBCHEM_SHAPE_MULTIPOLES>
594.55
9.77
5.07
2.23
22.45
6.96
-0.19
-2.64
3.3
-3.03
-2.74
-2.81
-0.48
-1.11

> <PUBCHEM_SHAPE_SELFOVERLAP>
1289.608

> <PUBCHEM_SHAPE_VOLUME>
325.3

> <PUBCHEM_COORDINATE_TYPE>
2
5
10

$$$$
