75536956
  -OEChem-12032416333D

 39 41  0     1  0  0  0  0  0999 V2000
    3.5235    0.1764   -1.8804 O   0  0  0  0  0  0  0  0  0  0  0  0
    4.7691   -1.0281    1.2746 O   0  0  0  0  0  0  0  0  0  0  0  0
    1.4705    0.5030    0.4443 N   0  0  1  0  0  0  0  0  0  0  0  0
   -2.9661    1.3413   -0.0198 N   0  0  0  0  0  0  0  0  0  0  0  0
    2.6330    0.0682    1.2265 C   0  0  0  0  0  0  0  0  0  0  0  0
    0.4441    1.0515    1.3315 C   0  0  0  0  0  0  0  0  0  0  0  0
    1.7874    1.4279   -0.6448 C   0  0  0  0  0  0  0  0  0  0  0  0
    3.9536   -0.1688    0.4768 C   0  0  2  0  0  0  0  0  0  0  0  0
   -0.9387    0.8844    0.7599 C   0  0  0  0  0  0  0  0  0  0  0  0
    2.1819    0.6437   -1.8970 C   0  0  0  0  0  0  0  0  0  0  0  0
    3.7912   -0.8138   -0.8931 C   0  0  0  0  0  0  0  0  0  0  0  0
   -1.5647   -0.3424    0.4024 C   0  0  0  0  0  0  0  0  0  0  0  0
   -2.8355   -0.0276   -0.0837 C   0  0  0  0  0  0  0  0  0  0  0  0
   -1.8249    1.9013    0.4888 C   0  0  0  0  0  0  0  0  0  0  0  0
   -1.1711   -1.6947    0.4459 C   0  0  0  0  0  0  0  0  0  0  0  0
   -3.7359   -1.0014   -0.5303 C   0  0  0  0  0  0  0  0  0  0  0  0
   -4.1326    2.0946   -0.4265 C   0  0  0  0  0  0  0  0  0  0  0  0
   -2.0613   -2.6795    0.0025 C   0  0  0  0  0  0  0  0  0  0  0  0
   -3.3235   -2.3360   -0.4776 C   0  0  0  0  0  0  0  0  0  0  0  0
    2.3569   -0.8566    1.7514 H   0  0  0  0  0  0  0  0  0  0  0  0
    2.8514    0.7966    2.0210 H   0  0  0  0  0  0  0  0  0  0  0  0
    0.4369    0.5105    2.2888 H   0  0  0  0  0  0  0  0  0  0  0  0
    0.6471    2.1021    1.5783 H   0  0  0  0  0  0  0  0  0  0  0  0
    2.5625    2.1468   -0.3532 H   0  0  0  0  0  0  0  0  0  0  0  0
    0.9013    2.0130   -0.9198 H   0  0  0  0  0  0  0  0  0  0  0  0
    4.4863    0.7838    0.3664 H   0  0  0  0  0  0  0  0  0  0  0  0
    2.1043    1.3140   -2.7605 H   0  0  0  0  0  0  0  0  0  0  0  0
    1.4967   -0.1912   -2.0911 H   0  0  0  0  0  0  0  0  0  0  0  0
    4.7313   -1.2973   -1.1830 H   0  0  0  0  0  0  0  0  0  0  0  0
    3.0271   -1.6008   -0.9013 H   0  0  0  0  0  0  0  0  0  0  0  0
   -1.7340    2.9721    0.6159 H   0  0  0  0  0  0  0  0  0  0  0  0
   -0.1927   -1.9826    0.8196 H   0  0  0  0  0  0  0  0  0  0  0  0
   -4.7199   -0.7406   -0.9053 H   0  0  0  0  0  0  0  0  0  0  0  0
    4.8984   -0.5930    2.1347 H   0  0  0  0  0  0  0  0  0  0  0  0
   -4.3116    1.9065   -1.4882 H   0  0  0  0  0  0  0  0  0  0  0  0
   -4.9833    1.7645    0.1751 H   0  0  0  0  0  0  0  0  0  0  0  0
   -3.9566    3.1611   -0.2644 H   0  0  0  0  0  0  0  0  0  0  0  0
   -1.7633   -3.7242    0.0344 H   0  0  0  0  0  0  0  0  0  0  0  0
   -3.9990   -3.1172   -0.8169 H   0  0  0  0  0  0  0  0  0  0  0  0
  1 10  1  0  0  0  0
  1 11  1  0  0  0  0
  2  8  1  0  0  0  0
  2 34  1  0  0  0  0
  3  5  1  0  0  0  0
  3  6  1  0  0  0  0
  3  7  1  0  0  0  0
  4 13  1  0  0  0  0
  4 14  1  0  0  0  0
  4 17  1  0  0  0  0
  5  8  1  0  0  0  0
  5 20  1  0  0  0  0
  5 21  1  0  0  0  0
  6  9  1  0  0  0  0
  6 22  1  0  0  0  0
  6 23  1  0  0  0  0
  7 10  1  0  0  0  0
  7 24  1  0  0  0  0
  7 25  1  0  0  0  0
  8 11  1  0  0  0  0
  8 26  1  0  0  0  0
  9 12  1  0  0  0  0
  9 14  2  0  0  0  0
 10 27  1  0  0  0  0
 10 28  1  0  0  0  0
 11 29  1  0  0  0  0
 11 30  1  0  0  0  0
 12 13  1  0  0  0  0
 12 15  2  0  0  0  0
 13 16  2  0  0  0  0
 14 31  1  0  0  0  0
 15 18  1  0  0  0  0
 15 32  1  0  0  0  0
 16 19  1  0  0  0  0
 16 33  1  0  0  0  0
 17 35  1  0  0  0  0
 17 36  1  0  0  0  0
 17 37  1  0  0  0  0
 18 19  2  0  0  0  0
 18 38  1  0  0  0  0
 19 39  1  0  0  0  0
M  END
> <PUBCHEM_COMPOUND_CID>
75536956

> <PUBCHEM_CONFORMER_RMSD>
0.6

> <PUBCHEM_CONFORMER_DIVERSEORDER>
1
61
69
62
67
33
28
5
75
73
16
53
74
63
64
58
19
57
24
17
68
14
48
10
59
54
15
47
55
79
6
52
3
70
18
8
41
76
71
12
66
30
13
78
56
60
11
50
9
46
2
36
26
72
4
43
23
7
20
51
32
80
21
27
44
31
39
45
22
77
65
34
35
40
29
42
37
25
38
49

> <PUBCHEM_MMFF94_PARTIAL_CHARGES>
24
1 -0.56
10 0.28
11 0.28
13 -0.15
14 -0.3
15 -0.15
16 -0.15
17 0.26
18 -0.15
19 -0.15
2 -0.68
3 -0.81
31 0.15
32 0.15
33 0.15
34 0.4
38 0.15
39 0.15
4 0.05
5 0.27
6 0.45
7 0.27
8 0.28
9 -0.18

> <PUBCHEM_EFFECTIVE_ROTOR_COUNT>
3.4

> <PUBCHEM_PHARMACOPHORE_FEATURES>
8
1 1 acceptor
1 2 acceptor
1 2 donor
1 3 cation
1 4 cation
5 4 9 12 13 14 rings
6 12 13 15 16 18 19 rings
7 1 3 5 7 8 10 11 rings

> <PUBCHEM_HEAVY_ATOM_COUNT>
19

> <PUBCHEM_ATOM_DEF_STEREO_COUNT>
1

> <PUBCHEM_ATOM_UDEF_STEREO_COUNT>
0

> <PUBCHEM_BOND_DEF_STEREO_COUNT>
0

> <PUBCHEM_BOND_UDEF_STEREO_COUNT>
0

> <PUBCHEM_ISOTOPIC_ATOM_COUNT>
0

> <PUBCHEM_COMPONENT_COUNT>
1

> <PUBCHEM_CACTVS_TAUTO_COUNT>
1

> <PUBCHEM_CONFORMER_ID>
04809A3C00000001

> <PUBCHEM_MMFF94_ENERGY>
46.3081

> <PUBCHEM_FEATURE_SELFOVERLAP>
40.688

> <PUBCHEM_SHAPE_FINGERPRINT>
10062212 137 18259700077741066011
10366900 7 17131835322656414080
10369192 42 14566242694481091646
11582403 64 15973489840742387472
12202030 40 17489038157127429041
12236239 1 17894629227591295760
12346177 29 18343016688169519141
12363563 72 17988931122959216662
12592029 89 17969514714418080553
12714826 92 18341065110965135467
13296908 3 17489878145519861540
14115302 16 18410576166995227369
14251764 30 17462299233396319027
14386348 63 17561086916575975614
15375358 24 17632571626490771472
16752209 62 18409440410650033051
17834072 14 17988920076582756792
17870717 6 18129956593430316830
18981168 100 14274023298242780980
19862831 5 17458620167913467938
20279233 1 17560799913934208908
20600515 1 18201433636708112160
20603629 256 14476974345990607844
20626108 58 18334848450968425370
20645476 183 18113339682979641603
20645477 70 16056596500395201572
21781051 124 18261402165624550587
23402539 116 18270949168504809741
23526113 38 17203318962486056616
23557571 272 18272085053952185568
23559900 14 18201998794806661152
23598291 2 17821728338304921740
2748010 2 17618768594324448339
3082319 5 17895197743964536444
392239 28 11382387942859753710
559249 180 18262508187641980194
633830 44 16515689913935010512
74978 22 18335708268618487708
81228 2 17130166220623748488
9709674 26 18130785676705709506

> <PUBCHEM_SHAPE_MULTIPOLES>
369.31
8.44
2.38
1.38
4.61
0.69
0.37
1.4
1.12
-3.06
0.05
1.63
-0.17
-0.38

> <PUBCHEM_SHAPE_SELFOVERLAP>
786.085

> <PUBCHEM_SHAPE_VOLUME>
206.5

> <PUBCHEM_COORDINATE_TYPE>
2
5
10

$$$$
