44716327
  -OEChem-12032416163D

 62 66  0     1  0  0  0  0  0999 V2000
    6.3855   -0.2222    0.0378 O   0  0  0  0  0  0  0  0  0  0  0  0
   -4.1519   -0.2115    1.2324 N   0  0  2  0  0  0  0  0  0  0  0  0
   -0.5277   -3.3399   -0.2346 N   0  0  0  0  0  0  0  0  0  0  0  0
   -2.9571    2.8981   -0.5504 N   0  0  0  0  0  0  0  0  0  0  0  0
    0.8113   -3.2904   -0.3394 N   0  0  0  0  0  0  0  0  0  0  0  0
    0.0353    3.8754    0.9075 N   0  0  0  0  0  0  0  0  0  0  0  0
   -3.4369   -1.5367   -0.8926 C   0  0  2  0  0  0  0  0  0  0  0  0
   -2.5945   -1.9816    0.3349 C   0  0  2  0  0  0  0  0  0  0  0  0
   -3.9013    0.7281    0.1079 C   0  0  2  0  0  0  0  0  0  0  0  0
   -3.2798   -0.0148   -1.0944 C   0  0  0  0  0  0  0  0  0  0  0  0
   -4.9161   -1.7966   -0.5350 C   0  0  0  0  0  0  0  0  0  0  0  0
   -2.9339   -1.0146    1.5050 C   0  0  0  0  0  0  0  0  0  0  0  0
   -5.2335   -1.1372    0.8185 C   0  0  0  0  0  0  0  0  0  0  0  0
   -3.0582    1.9326    0.5316 C   0  0  0  0  0  0  0  0  0  0  0  0
   -1.0943   -2.1602    0.1502 C   0  0  0  0  0  0  0  0  0  0  0  0
   -0.0536   -1.2779    0.3085 C   0  0  0  0  0  0  0  0  0  0  0  0
    1.0950   -2.0284   -0.0065 C   0  0  0  0  0  0  0  0  0  0  0  0
   -2.1464    4.0436   -0.1560 C   0  0  0  0  0  0  0  0  0  0  0  0
   -1.2128   -4.5786   -0.5228 C   0  0  0  0  0  0  0  0  0  0  0  0
    2.4575   -1.5635    0.0061 C   0  0  0  0  0  0  0  0  0  0  0  0
   -0.6734    3.7421   -0.2359 C   0  0  0  0  0  0  0  0  0  0  0  0
    2.8430   -0.5554    0.8898 C   0  0  0  0  0  0  0  0  0  0  0  0
    3.3920   -2.1208   -0.8667 C   0  0  0  0  0  0  0  0  0  0  0  0
   -0.1257    3.3507   -1.4469 C   0  0  0  0  0  0  0  0  0  0  0  0
    4.1628   -0.1044    0.9006 C   0  0  0  0  0  0  0  0  0  0  0  0
    4.7119   -1.6698   -0.8560 C   0  0  0  0  0  0  0  0  0  0  0  0
    5.0973   -0.6615    0.0276 C   0  0  0  0  0  0  0  0  0  0  0  0
    1.2372    3.0783   -1.4869 C   0  0  0  0  0  0  0  0  0  0  0  0
    1.3571    3.6022    0.8300 C   0  0  0  0  0  0  0  0  0  0  0  0
    1.9999    3.2040   -0.3311 C   0  0  0  0  0  0  0  0  0  0  0  0
    6.7116    0.8107    0.9666 C   0  0  0  0  0  0  0  0  0  0  0  0
   -3.1497   -2.0810   -1.7981 H   0  0  0  0  0  0  0  0  0  0  0  0
   -2.9795   -2.9664    0.6400 H   0  0  0  0  0  0  0  0  0  0  0  0
   -4.8774    1.1297   -0.2039 H   0  0  0  0  0  0  0  0  0  0  0  0
   -3.7929    0.2885   -2.0155 H   0  0  0  0  0  0  0  0  0  0  0  0
   -2.2189    0.2284   -1.2239 H   0  0  0  0  0  0  0  0  0  0  0  0
   -5.1127   -2.8736   -0.4798 H   0  0  0  0  0  0  0  0  0  0  0  0
   -5.5662   -1.3874   -1.3178 H   0  0  0  0  0  0  0  0  0  0  0  0
   -2.1062   -0.3517    1.7725 H   0  0  0  0  0  0  0  0  0  0  0  0
   -3.1033   -1.6092    2.4134 H   0  0  0  0  0  0  0  0  0  0  0  0
   -5.3822   -1.9039    1.5896 H   0  0  0  0  0  0  0  0  0  0  0  0
   -6.1860   -0.5967    0.7553 H   0  0  0  0  0  0  0  0  0  0  0  0
   -3.5244    2.4026    1.4075 H   0  0  0  0  0  0  0  0  0  0  0  0
   -2.0577    1.6038    0.8327 H   0  0  0  0  0  0  0  0  0  0  0  0
   -0.1219   -0.2380    0.5948 H   0  0  0  0  0  0  0  0  0  0  0  0
   -3.8939    3.2215   -0.7921 H   0  0  0  0  0  0  0  0  0  0  0  0
   -2.3491    4.8709   -0.8479 H   0  0  0  0  0  0  0  0  0  0  0  0
   -2.4216    4.4107    0.8406 H   0  0  0  0  0  0  0  0  0  0  0  0
   -1.5931   -4.9870    0.4166 H   0  0  0  0  0  0  0  0  0  0  0  0
   -0.5121   -5.2840   -0.9777 H   0  0  0  0  0  0  0  0  0  0  0  0
   -2.0290   -4.3777   -1.2207 H   0  0  0  0  0  0  0  0  0  0  0  0
    2.1392   -0.1082    1.5876 H   0  0  0  0  0  0  0  0  0  0  0  0
    3.1201   -2.9017   -1.5728 H   0  0  0  0  0  0  0  0  0  0  0  0
   -0.7252    3.2589   -2.3463 H   0  0  0  0  0  0  0  0  0  0  0  0
    4.3945    0.6804    1.6127 H   0  0  0  0  0  0  0  0  0  0  0  0
    5.4352   -2.1061   -1.5395 H   0  0  0  0  0  0  0  0  0  0  0  0
    1.7044    2.7686   -2.4169 H   0  0  0  0  0  0  0  0  0  0  0  0
    1.9070    3.7140    1.7586 H   0  0  0  0  0  0  0  0  0  0  0  0
    3.0637    2.9960   -0.3387 H   0  0  0  0  0  0  0  0  0  0  0  0
    6.1597    1.7325    0.7532 H   0  0  0  0  0  0  0  0  0  0  0  0
    6.5790    0.4777    2.0016 H   0  0  0  0  0  0  0  0  0  0  0  0
    7.7749    1.0376    0.8376 H   0  0  0  0  0  0  0  0  0  0  0  0
  1 27  1  0  0  0  0
  1 31  1  0  0  0  0
  2  9  1  0  0  0  0
  2 12  1  0  0  0  0
  2 13  1  0  0  0  0
  3  5  1  0  0  0  0
  3 15  1  0  0  0  0
  3 19  1  0  0  0  0
  4 14  1  0  0  0  0
  4 18  1  0  0  0  0
  4 46  1  0  0  0  0
  5 17  2  0  0  0  0
  6 21  1  0  0  0  0
  6 29  2  0  0  0  0
  7  8  1  0  0  0  0
  7 10  1  0  0  0  0
  7 11  1  0  0  0  0
  7 32  1  0  0  0  0
  8 12  1  0  0  0  0
  8 15  1  0  0  0  0
  8 33  1  0  0  0  0
  9 10  1  0  0  0  0
  9 14  1  0  0  0  0
  9 34  1  0  0  0  0
 10 35  1  0  0  0  0
 10 36  1  0  0  0  0
 11 13  1  0  0  0  0
 11 37  1  0  0  0  0
 11 38  1  0  0  0  0
 12 39  1  0  0  0  0
 12 40  1  0  0  0  0
 13 41  1  0  0  0  0
 13 42  1  0  0  0  0
 14 43  1  0  0  0  0
 14 44  1  0  0  0  0
 15 16  2  0  0  0  0
 16 17  1  0  0  0  0
 16 45  1  0  0  0  0
 17 20  1  0  0  0  0
 18 21  1  0  0  0  0
 18 47  1  0  0  0  0
 18 48  1  0  0  0  0
 19 49  1  0  0  0  0
 19 50  1  0  0  0  0
 19 51  1  0  0  0  0
 20 22  2  0  0  0  0
 20 23  1  0  0  0  0
 21 24  2  0  0  0  0
 22 25  1  0  0  0  0
 22 52  1  0  0  0  0
 23 26  2  0  0  0  0
 23 53  1  0  0  0  0
 24 28  1  0  0  0  0
 24 54  1  0  0  0  0
 25 27  2  0  0  0  0
 25 55  1  0  0  0  0
 26 27  1  0  0  0  0
 26 56  1  0  0  0  0
 28 30  2  0  0  0  0
 28 57  1  0  0  0  0
 29 30  1  0  0  0  0
 29 58  1  0  0  0  0
 30 59  1  0  0  0  0
 31 60  1  0  0  0  0
 31 61  1  0  0  0  0
 31 62  1  0  0  0  0
M  END
> <PUBCHEM_COMPOUND_CID>
44716327

> <PUBCHEM_CONFORMER_RMSD>
1

> <PUBCHEM_CONFORMER_DIVERSEORDER>
2
12
42
36
1
30
32
38
39
29
17
44
7
40
31
9
15
34
27
5
41
13
37
22
8
23
10
14
25
26
6
35
11
19
24
43
18
20
4
16
28
33
3
21

> <PUBCHEM_MMFF94_PARTIAL_CHARGES>
38
1 -0.36
12 0.27
13 0.27
14 0.27
15 -0.33
16 -0.15
17 0.23
18 0.41
19 0.26
2 -0.81
20 0.05
21 0.17
22 -0.15
23 -0.15
24 -0.15
25 -0.15
26 -0.15
27 0.08
28 -0.15
29 0.16
3 0.31
30 -0.15
31 0.28
4 -0.9
45 0.15
46 0.36
5 -0.71
52 0.15
53 0.15
54 0.15
55 0.15
56 0.15
57 0.15
58 0.15
59 0.15
6 -0.62
8 0.18
9 0.27

> <PUBCHEM_EFFECTIVE_ROTOR_COUNT>
8.2

> <PUBCHEM_PHARMACOPHORE_FEATURES>
10
1 1 acceptor
1 2 cation
1 4 cation
1 4 donor
1 5 acceptor
1 6 acceptor
5 3 5 15 16 17 rings
6 20 22 23 25 26 27 rings
6 6 21 24 28 29 30 rings
8 2 7 8 9 10 11 12 13 rings

> <PUBCHEM_HEAVY_ATOM_COUNT>
31

> <PUBCHEM_ATOM_DEF_STEREO_COUNT>
3

> <PUBCHEM_ATOM_UDEF_STEREO_COUNT>
0

> <PUBCHEM_BOND_DEF_STEREO_COUNT>
0

> <PUBCHEM_BOND_UDEF_STEREO_COUNT>
0

> <PUBCHEM_ISOTOPIC_ATOM_COUNT>
0

> <PUBCHEM_COMPONENT_COUNT>
1

> <PUBCHEM_CACTVS_TAUTO_COUNT>
1

> <PUBCHEM_CONFORMER_ID>
02AA512700000002

> <PUBCHEM_MMFF94_ENERGY>
84.876

> <PUBCHEM_FEATURE_SELFOVERLAP>
50.747

> <PUBCHEM_SHAPE_FINGERPRINT>
10006869 2 18120644743434419031
10439779 11 17619620728647283568
10670039 82 18263376806618620038
10864689 126 17979074882412962340
1100329 8 18265614470940721850
11014199 57 18122623027077966642
11513181 2 18271534108822396518
12788726 201 18333729101155838802
13122387 1 18409449142012662045
13140716 1 18119251907020716907
13402501 40 18411416189726234408
13561361 72 18410002218559060576
14117953 113 18412543224232287783
14394314 77 18340215192799257937
15274700 232 16899902987233354806
15297060 5 18127697024200531072
15320467 1 18411418436099696488
15721738 15 16243194348516250420
16067690 210 18041274388081449696
17627616 140 17685782714944793708
18336668 15 18186802504238510212
19611394 137 18043543908814842331
19930381 70 18193839469266866067
20721686 56 18191305077173245304
20764821 26 18194115209940211464
21033648 29 18202273697782185826
21344244 246 17907566279895707927
25019877 29 17632583781375587183
463206 1 18194407916182795257
469060 322 18189912940802230585
50150288 127 16125848024694845296
653340 110 18338796689876271956
9961470 85 18053935440542542721

> <PUBCHEM_SHAPE_MULTIPOLES>
607.19
11.31
6.27
1.19
11.3
4.32
-0.02
-3.78
1.98
-1.61
-1.29
-0.12
0.35
0.48

> <PUBCHEM_SHAPE_SELFOVERLAP>
1314.693

> <PUBCHEM_SHAPE_VOLUME>
330.2

> <PUBCHEM_COORDINATE_TYPE>
2
5
10

$$$$
