51136823
  -OEChem-12032416223D

 59 63  0     1  0  0  0  0  0999 V2000
   -3.7414    1.7211    0.8196 O   0  0  0  0  0  0  0  0  0  0  0  0
    6.3659   -2.9038    1.1917 O   0  0  0  0  0  0  0  0  0  0  0  0
   -3.7002   -1.9410    0.5161 N   0  0  1  0  0  0  0  0  0  0  0  0
    3.1143    0.8680    0.3069 N   0  0  0  0  0  0  0  0  0  0  0  0
    5.2307   -1.1060    0.2540 N   0  0  0  0  0  0  0  0  0  0  0  0
   -1.9095    0.4330    0.7782 N   0  0  0  0  0  0  0  0  0  0  0  0
   -2.6574    2.5911    0.6473 N   0  0  0  0  0  0  0  0  0  0  0  0
   -3.5364   -0.3966   -2.5861 N   0  0  0  0  0  0  0  0  0  0  0  0
    2.3700    3.1049    0.1668 N   0  0  0  0  0  0  0  0  0  0  0  0
   -4.1951   -0.6669    1.0745 C   0  0  1  0  0  0  0  0  0  0  0  0
   -4.4755   -0.9725    2.5575 C   0  0  0  0  0  0  0  0  0  0  0  0
   -4.1678   -2.4539    2.7235 C   0  0  0  0  0  0  0  0  0  0  0  0
   -4.3026   -3.0057    1.3187 C   0  0  0  0  0  0  0  0  0  0  0  0
   -3.9873   -2.0957   -0.9042 C   0  0  0  0  0  0  0  0  0  0  0  0
   -3.2135    0.4709    0.8876 C   0  0  0  0  0  0  0  0  0  0  0  0
    4.3420    1.1136   -0.4536 C   0  0  0  0  0  0  0  0  0  0  0  0
    3.0237   -0.3632    1.0967 C   0  0  0  0  0  0  0  0  0  0  0  0
    4.9920   -0.2043   -0.8751 C   0  0  0  0  0  0  0  0  0  0  0  0
    4.4162   -0.8838    1.4460 C   0  0  0  0  0  0  0  0  0  0  0  0
   -3.0133   -1.3301   -1.7597 C   0  0  0  0  0  0  0  0  0  0  0  0
    2.0736    1.7938    0.3115 C   0  0  0  0  0  0  0  0  0  0  0  0
   -1.6134    1.7571    0.6326 C   0  0  0  0  0  0  0  0  0  0  0  0
   -0.2616    2.2144    0.4757 C   0  0  0  0  0  0  0  0  0  0  0  0
    0.7877    1.3020    0.4675 C   0  0  0  0  0  0  0  0  0  0  0  0
   -1.6598   -1.6102   -1.6638 C   0  0  0  0  0  0  0  0  0  0  0  0
    6.1635   -2.1436    0.2421 C   0  0  0  0  0  0  0  0  0  0  0  0
    0.0035    3.5716    0.3296 C   0  0  0  0  0  0  0  0  0  0  0  0
   -0.7867   -0.8857   -2.4678 C   0  0  0  0  0  0  0  0  0  0  0  0
    1.3245    3.9619    0.1797 C   0  0  0  0  0  0  0  0  0  0  0  0
    6.9580   -2.3108   -1.0301 C   0  0  0  0  0  0  0  0  0  0  0  0
   -2.6571    0.2874   -3.3522 C   0  0  0  0  0  0  0  0  0  0  0  0
   -1.2869    0.0830   -3.3310 C   0  0  0  0  0  0  0  0  0  0  0  0
   -5.1488   -0.3819    0.6084 H   0  0  0  0  0  0  0  0  0  0  0  0
   -3.8805   -0.3712    3.2535 H   0  0  0  0  0  0  0  0  0  0  0  0
   -5.5347   -0.7913    2.7772 H   0  0  0  0  0  0  0  0  0  0  0  0
   -4.8445   -2.9402    3.4323 H   0  0  0  0  0  0  0  0  0  0  0  0
   -3.1412   -2.5827    3.0884 H   0  0  0  0  0  0  0  0  0  0  0  0
   -3.7721   -3.9565    1.2076 H   0  0  0  0  0  0  0  0  0  0  0  0
   -5.3606   -3.1552    1.0684 H   0  0  0  0  0  0  0  0  0  0  0  0
   -3.8853   -3.1507   -1.1941 H   0  0  0  0  0  0  0  0  0  0  0  0
   -5.0211   -1.8169   -1.1462 H   0  0  0  0  0  0  0  0  0  0  0  0
    5.0351    1.6963    0.1653 H   0  0  0  0  0  0  0  0  0  0  0  0
    4.1286    1.6984   -1.3567 H   0  0  0  0  0  0  0  0  0  0  0  0
    2.4814   -1.1253    0.5235 H   0  0  0  0  0  0  0  0  0  0  0  0
    2.4851   -0.1889    2.0363 H   0  0  0  0  0  0  0  0  0  0  0  0
    4.3382   -0.7417   -1.5730 H   0  0  0  0  0  0  0  0  0  0  0  0
    5.9316    0.0034   -1.3951 H   0  0  0  0  0  0  0  0  0  0  0  0
    4.9533   -0.1554    2.0659 H   0  0  0  0  0  0  0  0  0  0  0  0
    4.3365   -1.8096    2.0257 H   0  0  0  0  0  0  0  0  0  0  0  0
    0.5897    0.2391    0.5604 H   0  0  0  0  0  0  0  0  0  0  0  0
   -1.2759   -2.3701   -0.9915 H   0  0  0  0  0  0  0  0  0  0  0  0
   -0.7736    4.3288    0.3278 H   0  0  0  0  0  0  0  0  0  0  0  0
    7.6586   -1.4795   -1.1436 H   0  0  0  0  0  0  0  0  0  0  0  0
    6.2938   -2.3690   -1.8963 H   0  0  0  0  0  0  0  0  0  0  0  0
    7.5307   -3.2420   -0.9801 H   0  0  0  0  0  0  0  0  0  0  0  0
    1.5849    5.0087    0.0620 H   0  0  0  0  0  0  0  0  0  0  0  0
    0.2816   -1.0746   -2.4206 H   0  0  0  0  0  0  0  0  0  0  0  0
   -3.0975    1.0321   -4.0070 H   0  0  0  0  0  0  0  0  0  0  0  0
   -0.6248    0.6607   -3.9656 H   0  0  0  0  0  0  0  0  0  0  0  0
  1  7  1  0  0  0  0
  1 15  1  0  0  0  0
  2 26  2  0  0  0  0
  3 10  1  0  0  0  0
  3 13  1  0  0  0  0
  3 14  1  0  0  0  0
  4 16  1  0  0  0  0
  4 17  1  0  0  0  0
  4 21  1  0  0  0  0
  5 18  1  0  0  0  0
  5 19  1  0  0  0  0
  5 26  1  0  0  0  0
  6 15  2  0  0  0  0
  6 22  1  0  0  0  0
  7 22  2  0  0  0  0
  8 20  1  0  0  0  0
  8 31  2  0  0  0  0
  9 21  2  0  0  0  0
  9 29  1  0  0  0  0
 10 11  1  0  0  0  0
 10 15  1  0  0  0  0
 10 33  1  0  0  0  0
 11 12  1  0  0  0  0
 11 34  1  0  0  0  0
 11 35  1  0  0  0  0
 12 13  1  0  0  0  0
 12 36  1  0  0  0  0
 12 37  1  0  0  0  0
 13 38  1  0  0  0  0
 13 39  1  0  0  0  0
 14 20  1  0  0  0  0
 14 40  1  0  0  0  0
 14 41  1  0  0  0  0
 16 18  1  0  0  0  0
 16 42  1  0  0  0  0
 16 43  1  0  0  0  0
 17 19  1  0  0  0  0
 17 44  1  0  0  0  0
 17 45  1  0  0  0  0
 18 46  1  0  0  0  0
 18 47  1  0  0  0  0
 19 48  1  0  0  0  0
 19 49  1  0  0  0  0
 20 25  2  0  0  0  0
 21 24  1  0  0  0  0
 22 23  1  0  0  0  0
 23 24  2  0  0  0  0
 23 27  1  0  0  0  0
 24 50  1  0  0  0  0
 25 28  1  0  0  0  0
 25 51  1  0  0  0  0
 26 30  1  0  0  0  0
 27 29  2  0  0  0  0
 27 52  1  0  0  0  0
 28 32  2  0  0  0  0
 28 57  1  0  0  0  0
 29 56  1  0  0  0  0
 30 53  1  0  0  0  0
 30 54  1  0  0  0  0
 30 55  1  0  0  0  0
 31 32  1  0  0  0  0
 31 58  1  0  0  0  0
 32 59  1  0  0  0  0
M  END
> <PUBCHEM_COMPOUND_CID>
51136823

> <PUBCHEM_CONFORMER_RMSD>
1

> <PUBCHEM_CONFORMER_DIVERSEORDER>
1
148
21
73
149
152
159
24
179
192
127
151
186
95
191
188
52
163
136
30
118
98
4
28
102
61
174
3
48
176
181
125
82
167
115
108
117
162
165
16
126
51
194
35
77
64
79
158
147
68
166
160
54
172
85
133
144
37
130
113
100
23
55
170
121
134
81
106
101
90
142
41
139
153
76
177
17
18
128
146
145
168
161
137
75
190
6
13
47
155
26
74
175
103
140
38
182
94
99
86
12
91
45
93
84
50
123
156
164
150
187
83
20
184
107
5
58
46
131
97
72
32
120
196
193
180
27
60
189
62
119
78
22
135
80
173
89
124
109
34
129
138
185
154
116
56
92
67
111
122
42
29
43
70
7
171
197
33
49
71
69
88
14
141
65
8
104
66
39
169
96
53
178
57
63
105
25
183
11
9
195
36
110
114
143
44
2
112
19
40
59
31
132
87
10
15
157

> <PUBCHEM_MMFF94_PARTIAL_CHARGES>
37
1 -0.02
10 0.45
13 0.27
14 0.41
15 0.3
16 0.37
17 0.37
18 0.3
19 0.3
2 -0.57
20 0.17
21 0.41
22 0.46
23 0.05
24 -0.15
25 -0.15
26 0.57
27 -0.15
28 -0.15
29 0.16
3 -0.81
30 0.06
31 0.16
32 -0.15
4 -0.84
5 -0.66
50 0.15
51 0.15
52 0.15
56 0.15
57 0.15
58 0.15
59 0.15
6 -0.57
7 -0.41
8 -0.62
9 -0.62

> <PUBCHEM_EFFECTIVE_ROTOR_COUNT>
8.2

> <PUBCHEM_PHARMACOPHORE_FEATURES>
10
1 2 acceptor
1 3 cation
1 8 acceptor
3 4 9 21 cation
3 6 7 22 cation
5 1 6 7 15 22 rings
5 3 10 11 12 13 rings
6 4 5 16 17 18 19 rings
6 8 20 25 28 31 32 rings
6 9 21 23 24 27 29 rings

> <PUBCHEM_HEAVY_ATOM_COUNT>
32

> <PUBCHEM_ATOM_DEF_STEREO_COUNT>
1

> <PUBCHEM_ATOM_UDEF_STEREO_COUNT>
0

> <PUBCHEM_BOND_DEF_STEREO_COUNT>
0

> <PUBCHEM_BOND_UDEF_STEREO_COUNT>
0

> <PUBCHEM_ISOTOPIC_ATOM_COUNT>
0

> <PUBCHEM_COMPONENT_COUNT>
1

> <PUBCHEM_CACTVS_TAUTO_COUNT>
1

> <PUBCHEM_CONFORMER_ID>
030C493700000001

> <PUBCHEM_MMFF94_ENERGY>
80.7179

> <PUBCHEM_FEATURE_SELFOVERLAP>
50.749

> <PUBCHEM_SHAPE_FINGERPRINT>
10305334 12 18267038158779765027
10622 236 17557690658703189431
10764073 3 18336842931123433185
10928967 22 18342454868114867446
11387372 6 17977674112983498726
11477941 20 15719402724185960606
11524674 6 17059205930463060956
11582403 64 10696696783810891665
11607047 141 16301517282002700099
117089 54 18338252517351668290
12422481 6 17489323961505235374
12633046 712 18259704514336943781
12633257 1 16343706564286826488
131258 38 17050762033850466087
13782708 43 17458060495684979250
14114206 34 18042111069164596568
14279260 333 18189617134337785730
14910302 57 17313932138927825761
15119646 57 14563095741255691612
15160629 124 15736529481673418819
15219462 58 17755044195342885089
15274700 147 11664949289227066826
16728300 4 17915458505566749487
17809404 112 17905846535417344394
20554085 129 15481577255723816499
208703 8 18412262844113865874
21133410 221 16692745135130075686
21796203 349 17985574314539930944
21987440 362 15838492911148474979
22440779 20 17676497128984881269
22907989 373 13407062705032272521
23536364 44 18041269977176526842
44880168 125 17345481392806115862
474113 269 18200591527614717399
484985 159 18341600504598738183
513202 73 18271251512801516838
613672 6 18265029432555676952
6431902 208 18410007711637583202
7064713 232 16558487369174993445
7970288 3 18410014359883266154

> <PUBCHEM_SHAPE_MULTIPOLES>
611.94
13.66
4.12
2.84
20.83
2.34
-2.26
-14.62
3.71
1.64
1.47
-4.34
-1.47
0.6

> <PUBCHEM_SHAPE_SELFOVERLAP>
1322.4

> <PUBCHEM_SHAPE_VOLUME>
335

> <PUBCHEM_COORDINATE_TYPE>
2
5
10

$$$$
