11885190
  -OEChem-12032416223D

 48 52  0     1  0  0  0  0  0999 V2000
    2.1667   -1.2336   -0.7498 S   0  0  0  0  0  0  0  0  0  0  0  0
   -5.1354   -2.2397   -0.2979 S   0  0  0  0  0  0  0  0  0  0  0  0
    7.7406   -0.2168    0.8038 F   0  0  0  0  0  0  0  0  0  0  0  0
    2.2049   -1.3761   -2.1907 O   0  0  0  0  0  0  0  0  0  0  0  0
    1.7566   -2.3187    0.1169 O   0  0  0  0  0  0  0  0  0  0  0  0
   -3.4899    0.8357   -1.7156 O   0  0  0  0  0  0  0  0  0  0  0  0
    1.2614    0.1663   -0.3646 N   0  0  2  0  0  0  0  0  0  0  0  0
   -1.7123    1.2284   -0.2579 N   0  0  0  0  0  0  0  0  0  0  0  0
    0.4264    2.4363   -0.9843 C   0  0  1  0  0  0  0  0  0  0  0  0
    0.1991    1.6443    1.3292 C   0  0  2  0  0  0  0  0  0  0  0  0
    0.5086    2.8695    0.4734 C   0  0  0  0  0  0  0  0  0  0  0  0
    1.4521    1.3292   -1.2779 C   0  0  0  0  0  0  0  0  0  0  0  0
    1.2606    0.5584    1.0766 C   0  0  0  0  0  0  0  0  0  0  0  0
   -1.0110    2.0000   -1.2935 C   0  0  0  0  0  0  0  0  0  0  0  0
   -1.1879    1.1061    1.0309 C   0  0  0  0  0  0  0  0  0  0  0  0
   -1.8998    0.4967    1.9924 C   0  0  0  0  0  0  0  0  0  0  0  0
   -2.9793    0.7162   -0.6004 C   0  0  0  0  0  0  0  0  0  0  0  0
   -3.7379    0.0066    0.4887 C   0  0  0  0  0  0  0  0  0  0  0  0
   -3.1904   -0.0651    1.7113 C   0  0  0  0  0  0  0  0  0  0  0  0
    3.8644   -0.9234   -0.2765 C   0  0  0  0  0  0  0  0  0  0  0  0
   -5.0513   -0.6081    0.2286 C   0  0  0  0  0  0  0  0  0  0  0  0
    4.2598   -1.2578    0.9956 C   0  0  0  0  0  0  0  0  0  0  0  0
    4.7092   -0.3627   -1.2029 C   0  0  0  0  0  0  0  0  0  0  0  0
   -6.3099   -0.0477    0.3470 C   0  0  0  0  0  0  0  0  0  0  0  0
    5.5832   -1.0163    1.3646 C   0  0  0  0  0  0  0  0  0  0  0  0
    6.0327   -0.1213   -0.8340 C   0  0  0  0  0  0  0  0  0  0  0  0
    6.4695   -0.4480    0.4497 C   0  0  0  0  0  0  0  0  0  0  0  0
   -7.3451   -0.9645    0.0034 C   0  0  0  0  0  0  0  0  0  0  0  0
   -6.8457   -2.1940   -0.3660 C   0  0  0  0  0  0  0  0  0  0  0  0
    0.6704    3.2882   -1.6313 H   0  0  0  0  0  0  0  0  0  0  0  0
    0.2581    1.9438    2.3839 H   0  0  0  0  0  0  0  0  0  0  0  0
   -0.2041    3.6784    0.6777 H   0  0  0  0  0  0  0  0  0  0  0  0
    1.5087    3.2570    0.7031 H   0  0  0  0  0  0  0  0  0  0  0  0
    1.3381    1.0102   -2.3193 H   0  0  0  0  0  0  0  0  0  0  0  0
    2.4656    1.7273   -1.1517 H   0  0  0  0  0  0  0  0  0  0  0  0
    1.0450   -0.3175    1.6988 H   0  0  0  0  0  0  0  0  0  0  0  0
    2.2491    0.9411    1.3556 H   0  0  0  0  0  0  0  0  0  0  0  0
   -1.6219    2.8989   -1.4555 H   0  0  0  0  0  0  0  0  0  0  0  0
   -1.0493    1.4371   -2.2346 H   0  0  0  0  0  0  0  0  0  0  0  0
   -1.5130    0.3820    2.9996 H   0  0  0  0  0  0  0  0  0  0  0  0
   -3.6953   -0.5661    2.5321 H   0  0  0  0  0  0  0  0  0  0  0  0
    3.5841   -1.6914    1.7251 H   0  0  0  0  0  0  0  0  0  0  0  0
    4.3857   -0.0931   -2.2025 H   0  0  0  0  0  0  0  0  0  0  0  0
   -6.4823    0.9732    0.6649 H   0  0  0  0  0  0  0  0  0  0  0  0
    5.9233   -1.2685    2.3647 H   0  0  0  0  0  0  0  0  0  0  0  0
    6.7227    0.3230   -1.5453 H   0  0  0  0  0  0  0  0  0  0  0  0
   -8.4021   -0.7339    0.0258 H   0  0  0  0  0  0  0  0  0  0  0  0
   -7.4035   -3.0675   -0.6727 H   0  0  0  0  0  0  0  0  0  0  0  0
  1  4  2  0  0  0  0
  1  5  2  0  0  0  0
  1  7  1  0  0  0  0
  1 20  1  0  0  0  0
  2 21  1  0  0  0  0
  2 29  1  0  0  0  0
  3 27  1  0  0  0  0
  6 17  2  0  0  0  0
  7 12  1  0  0  0  0
  7 13  1  0  0  0  0
  8 14  1  0  0  0  0
  8 15  1  0  0  0  0
  8 17  1  0  0  0  0
  9 11  1  0  0  0  0
  9 12  1  0  0  0  0
  9 14  1  0  0  0  0
  9 30  1  0  0  0  0
 10 11  1  0  0  0  0
 10 13  1  0  0  0  0
 10 15  1  0  0  0  0
 10 31  1  0  0  0  0
 11 32  1  0  0  0  0
 11 33  1  0  0  0  0
 12 34  1  0  0  0  0
 12 35  1  0  0  0  0
 13 36  1  0  0  0  0
 13 37  1  0  0  0  0
 14 38  1  0  0  0  0
 14 39  1  0  0  0  0
 15 16  2  0  0  0  0
 16 19  1  0  0  0  0
 16 40  1  0  0  0  0
 17 18  1  0  0  0  0
 18 19  2  0  0  0  0
 18 21  1  0  0  0  0
 19 41  1  0  0  0  0
 20 22  2  0  0  0  0
 20 23  1  0  0  0  0
 21 24  2  0  0  0  0
 22 25  1  0  0  0  0
 22 42  1  0  0  0  0
 23 26  2  0  0  0  0
 23 43  1  0  0  0  0
 24 28  1  0  0  0  0
 24 44  1  0  0  0  0
 25 27  2  0  0  0  0
 25 45  1  0  0  0  0
 26 27  1  0  0  0  0
 26 46  1  0  0  0  0
 28 29  2  0  0  0  0
 28 47  1  0  0  0  0
 29 48  1  0  0  0  0
M  END
> <PUBCHEM_COMPOUND_CID>
11885190

> <PUBCHEM_CONFORMER_RMSD>
0.8

> <PUBCHEM_CONFORMER_DIVERSEORDER>
1
11
9
10
16
6
13
14
2
4
8
15
12
5
7
3

> <PUBCHEM_MMFF94_PARTIAL_CHARGES>
36
1 1.45
10 0.14
12 0.36
13 0.36
14 0.3
15 -0.03
16 -0.15
17 0.62
18 0.06
19 -0.15
2 -0.08
20 -0.01
21 -0.01
22 -0.15
23 -0.15
24 -0.15
25 -0.15
26 -0.15
27 0.19
28 -0.15
29 -0.11
3 -0.19
4 -0.65
40 0.15
41 0.15
42 0.15
43 0.15
44 0.15
45 0.15
46 0.15
47 0.15
48 0.15
5 -0.65
6 -0.57
7 -0.85
8 -0.47

> <PUBCHEM_EFFECTIVE_ROTOR_COUNT>
4

> <PUBCHEM_PHARMACOPHORE_FEATURES>
8
1 4 acceptor
1 5 acceptor
1 6 acceptor
5 2 21 24 28 29 rings
6 20 22 23 25 26 27 rings
6 7 9 10 11 12 13 rings
6 8 15 16 17 18 19 rings
6 8 9 10 11 14 15 rings

> <PUBCHEM_HEAVY_ATOM_COUNT>
29

> <PUBCHEM_ATOM_DEF_STEREO_COUNT>
2

> <PUBCHEM_ATOM_UDEF_STEREO_COUNT>
0

> <PUBCHEM_BOND_DEF_STEREO_COUNT>
0

> <PUBCHEM_BOND_UDEF_STEREO_COUNT>
0

> <PUBCHEM_ISOTOPIC_ATOM_COUNT>
0

> <PUBCHEM_COMPONENT_COUNT>
1

> <PUBCHEM_CACTVS_TAUTO_COUNT>
1

> <PUBCHEM_CONFORMER_ID>
00B55A8600000001

> <PUBCHEM_MMFF94_ENERGY>
62.6084

> <PUBCHEM_FEATURE_SELFOVERLAP>
42.199

> <PUBCHEM_SHAPE_FINGERPRINT>
10 15 14620799305698509475
10165383 225 11455890265074793329
10447042 23 17822014198760051506
106641 1 15195283153602238343
10670039 82 15140950752409241711
10930396 42 17896578748683310272
11135609 99 17916864763442041007
11828532 37 14057586603769367131
11963148 33 18410003330355054206
12107698 1 17967532380842139829
12516196 113 18272653437017838225
12596602 18 16271936973665816691
12623949 98 16987737700859864214
12633257 1 13183016298777206239
12892183 10 16558480668846780521
13540713 4 16517672492867848465
13690498 29 17749379365776265645
14068700 675 18412545431402613017
14251751 18 18412825802883750359
14341114 176 15123511389247449874
1454969 45 18409174333378745038
15183329 4 14490186103020909520
15510800 12 18271257131104621247
15728490 51 17489584606011957582
15927050 60 17553197014836280084
17349148 13 16951426333926778100
17492 89 17973156237048373290
1813 80 18271538515111026125
18335252 114 12540683860662131643
18393751 57 17774705546933866890
19784866 240 18272096015394091713
19958102 18 15647332992238066706
20028762 73 18272655666396626222
20511986 3 15213307478034199936
20567600 70 18342458183528783347
21403212 168 11095888142011984193
21756936 100 8214137422354589545
23522609 53 18044969859437264125
23559900 14 16878513461302385973
2747138 104 17846782918789583106
2838139 119 10665230375757773803
3004659 81 18412546548352312787
3009799 131 16732703861219769144
329604 57 18040439884282872348
3737641 26 17274268218970842382
392239 28 16630230476875272974
4058900 60 9727364549509049589
4066623 53 16226044517852470869
4098825 35 17240758463536848109
4149490 64 18194687192964393387
4280585 95 18187081793118798619
4325135 7 18413672409440925754
437795 51 17560516326466702584
439807 62 17894912953922283631
463206 1 18338518668127172387
474113 269 14491014010598929664
5104073 3 17202207305213409418
5283173 99 16805881793293116444
57724786 102 9871166333726656330
59682541 35 17988919003300031594
5969126 39 18113614564744131981
59755656 520 9871743573094027369
613672 6 18187945957402469363
6669772 16 17824829077619114348

> <PUBCHEM_SHAPE_MULTIPOLES>
569.66
17.48
2.39
1.63
1.01
0.57
-0.03
-12.22
-1.04
0.99
0.39
-0.56
0.24
-0.46

> <PUBCHEM_SHAPE_SELFOVERLAP>
1230.876

> <PUBCHEM_SHAPE_VOLUME>
315.3

> <PUBCHEM_COORDINATE_TYPE>
2
5
10

$$$$
