11884447
  -OEChem-12032416343D

 59 63  0     1  0  0  0  0  0999 V2000
    9.4763    0.9926   -0.8530 Cl  0  0  0  0  0  0  0  0  0  0  0  0
    3.5452    1.3060    1.1139 S   0  0  0  0  0  0  0  0  0  0  0  0
    3.5526    1.2027    2.5578 O   0  0  0  0  0  0  0  0  0  0  0  0
    2.9152    2.4281    0.4508 O   0  0  0  0  0  0  0  0  0  0  0  0
   -1.6038   -1.9325    1.4817 O   0  0  0  0  0  0  0  0  0  0  0  0
   -3.6253    1.3399   -1.4691 O   0  0  0  0  0  0  0  0  0  0  0  0
   -9.3671    0.6780    1.0181 O   0  0  0  0  0  0  0  0  0  0  0  0
    2.9323   -0.1482    0.4515 N   0  0  2  0  0  0  0  0  0  0  0  0
    0.2248   -1.7276    0.0415 N   0  0  0  0  0  0  0  0  0  0  0  0
   -3.2920   -0.5994   -0.2287 N   0  0  0  0  0  0  0  0  0  0  0  0
    2.5566   -2.6103    0.6259 C   0  0  1  0  0  0  0  0  0  0  0  0
    2.1868   -1.4704   -1.5182 C   0  0  2  0  0  0  0  0  0  0  0  0
    2.7273   -2.7477   -0.8813 C   0  0  0  0  0  0  0  0  0  0  0  0
    3.3446   -1.3989    1.1505 C   0  0  0  0  0  0  0  0  0  0  0  0
    3.0132   -0.2645   -1.0353 C   0  0  0  0  0  0  0  0  0  0  0  0
    1.0606   -2.5215    0.9521 C   0  0  0  0  0  0  0  0  0  0  0  0
    0.7196   -1.2733   -1.1851 C   0  0  0  0  0  0  0  0  0  0  0  0
   -0.0943   -0.6476   -2.0520 C   0  0  0  0  0  0  0  0  0  0  0  0
   -1.1196   -1.5371    0.4203 C   0  0  0  0  0  0  0  0  0  0  0  0
   -1.9875   -0.8148   -0.5633 C   0  0  0  0  0  0  0  0  0  0  0  0
   -1.4742   -0.4139   -1.7311 C   0  0  0  0  0  0  0  0  0  0  0  0
    5.2190    1.2175    0.5588 C   0  0  0  0  0  0  0  0  0  0  0  0
    5.5575    1.7719   -0.6646 C   0  0  0  0  0  0  0  0  0  0  0  0
    6.1654    0.5951    1.3560 C   0  0  0  0  0  0  0  0  0  0  0  0
    6.8797    1.7019   -1.1030 C   0  0  0  0  0  0  0  0  0  0  0  0
    7.4877    0.5253    0.9175 C   0  0  0  0  0  0  0  0  0  0  0  0
   -4.0371    0.4711   -0.7042 C   0  0  0  0  0  0  0  0  0  0  0  0
    7.8449    1.0786   -0.3120 C   0  0  0  0  0  0  0  0  0  0  0  0
   -5.4499    0.5265   -0.2467 C   0  0  0  0  0  0  0  0  0  0  0  0
   -6.3834    1.1539   -1.0451 C   0  0  0  0  0  0  0  0  0  0  0  0
   -5.7826   -0.0513    0.9609 C   0  0  0  0  0  0  0  0  0  0  0  0
   -7.7098    1.2058   -0.6165 C   0  0  0  0  0  0  0  0  0  0  0  0
   -7.1090    0.0005    1.3893 C   0  0  0  0  0  0  0  0  0  0  0  0
   -8.0727    0.6291    0.6007 C   0  0  0  0  0  0  0  0  0  0  0  0
  -10.3011    1.3344    0.1621 C   0  0  0  0  0  0  0  0  0  0  0  0
    2.9605   -3.5026    1.1205 H   0  0  0  0  0  0  0  0  0  0  0  0
    2.3078   -1.5567   -2.6061 H   0  0  0  0  0  0  0  0  0  0  0  0
    2.1876   -3.6276   -1.2532 H   0  0  0  0  0  0  0  0  0  0  0  0
    3.7847   -2.8880   -1.1370 H   0  0  0  0  0  0  0  0  0  0  0  0
    3.1695   -1.3017    2.2271 H   0  0  0  0  0  0  0  0  0  0  0  0
    4.4131   -1.5783    0.9913 H   0  0  0  0  0  0  0  0  0  0  0  0
    4.0518   -0.4116   -1.3489 H   0  0  0  0  0  0  0  0  0  0  0  0
    2.6343    0.6513   -1.5027 H   0  0  0  0  0  0  0  0  0  0  0  0
    0.6375   -3.5353    0.9312 H   0  0  0  0  0  0  0  0  0  0  0  0
    0.9098   -2.1542    1.9750 H   0  0  0  0  0  0  0  0  0  0  0  0
    0.2672   -0.2821   -3.0076 H   0  0  0  0  0  0  0  0  0  0  0  0
   -2.0480    0.0595   -2.5184 H   0  0  0  0  0  0  0  0  0  0  0  0
   -3.6499   -1.1911    0.5132 H   0  0  0  0  0  0  0  0  0  0  0  0
    4.8219    2.2600   -1.2965 H   0  0  0  0  0  0  0  0  0  0  0  0
    5.9078    0.1556    2.3147 H   0  0  0  0  0  0  0  0  0  0  0  0
    7.1436    2.1370   -2.0636 H   0  0  0  0  0  0  0  0  0  0  0  0
    8.2290    0.0358    1.5440 H   0  0  0  0  0  0  0  0  0  0  0  0
   -6.1176    1.6026   -1.9977 H   0  0  0  0  0  0  0  0  0  0  0  0
   -5.0646   -0.5121    1.6299 H   0  0  0  0  0  0  0  0  0  0  0  0
   -8.4071    1.7080   -1.2784 H   0  0  0  0  0  0  0  0  0  0  0  0
   -7.3847   -0.4422    2.3426 H   0  0  0  0  0  0  0  0  0  0  0  0
  -10.3941    0.8209   -0.8009 H   0  0  0  0  0  0  0  0  0  0  0  0
  -10.0617    2.3968    0.0448 H   0  0  0  0  0  0  0  0  0  0  0  0
  -11.2801    1.2793    0.6493 H   0  0  0  0  0  0  0  0  0  0  0  0
  1 28  1  0  0  0  0
  2  3  2  0  0  0  0
  2  4  2  0  0  0  0
  2  8  1  0  0  0  0
  2 22  1  0  0  0  0
  5 19  2  0  0  0  0
  6 27  2  0  0  0  0
  7 34  1  0  0  0  0
  7 35  1  0  0  0  0
  8 14  1  0  0  0  0
  8 15  1  0  0  0  0
  9 16  1  0  0  0  0
  9 17  1  0  0  0  0
  9 19  1  0  0  0  0
 10 20  1  0  0  0  0
 10 27  1  0  0  0  0
 10 48  1  0  0  0  0
 11 13  1  0  0  0  0
 11 14  1  0  0  0  0
 11 16  1  0  0  0  0
 11 36  1  0  0  0  0
 12 13  1  0  0  0  0
 12 15  1  0  0  0  0
 12 17  1  0  0  0  0
 12 37  1  0  0  0  0
 13 38  1  0  0  0  0
 13 39  1  0  0  0  0
 14 40  1  0  0  0  0
 14 41  1  0  0  0  0
 15 42  1  0  0  0  0
 15 43  1  0  0  0  0
 16 44  1  0  0  0  0
 16 45  1  0  0  0  0
 17 18  2  0  0  0  0
 18 21  1  0  0  0  0
 18 46  1  0  0  0  0
 19 20  1  0  0  0  0
 20 21  2  0  0  0  0
 21 47  1  0  0  0  0
 22 23  2  0  0  0  0
 22 24  1  0  0  0  0
 23 25  1  0  0  0  0
 23 49  1  0  0  0  0
 24 26  2  0  0  0  0
 24 50  1  0  0  0  0
 25 28  2  0  0  0  0
 25 51  1  0  0  0  0
 26 28  1  0  0  0  0
 26 52  1  0  0  0  0
 27 29  1  0  0  0  0
 29 30  2  0  0  0  0
 29 31  1  0  0  0  0
 30 32  1  0  0  0  0
 30 53  1  0  0  0  0
 31 33  2  0  0  0  0
 31 54  1  0  0  0  0
 32 34  2  0  0  0  0
 32 55  1  0  0  0  0
 33 34  1  0  0  0  0
 33 56  1  0  0  0  0
 35 57  1  0  0  0  0
 35 58  1  0  0  0  0
 35 59  1  0  0  0  0
M  END
> <PUBCHEM_COMPOUND_CID>
11884447

> <PUBCHEM_CONFORMER_RMSD>
1

> <PUBCHEM_CONFORMER_DIVERSEORDER>
1
10
9
4
5
11
3
6
8
2
7

> <PUBCHEM_MMFF94_PARTIAL_CHARGES>
44
1 -0.18
10 -0.54
12 0.14
14 0.36
15 0.36
16 0.3
17 -0.03
18 -0.15
19 0.62
2 1.45
20 0.12
21 -0.15
22 -0.01
23 -0.15
24 -0.15
25 -0.15
26 -0.15
27 0.54
28 0.18
29 0.09
3 -0.65
30 -0.15
31 -0.15
32 -0.15
33 -0.15
34 0.08
35 0.28
4 -0.65
46 0.15
47 0.15
48 0.37
49 0.15
5 -0.57
50 0.15
51 0.15
52 0.15
53 0.15
54 0.15
55 0.15
56 0.15
6 -0.57
7 -0.36
8 -0.85
9 -0.47

> <PUBCHEM_EFFECTIVE_ROTOR_COUNT>
7

> <PUBCHEM_PHARMACOPHORE_FEATURES>
11
1 10 donor
1 3 acceptor
1 4 acceptor
1 5 acceptor
1 6 acceptor
1 7 acceptor
6 22 23 24 25 26 28 rings
6 29 30 31 32 33 34 rings
6 8 11 12 13 14 15 rings
6 9 11 12 13 16 17 rings
6 9 17 18 19 20 21 rings

> <PUBCHEM_HEAVY_ATOM_COUNT>
35

> <PUBCHEM_ATOM_DEF_STEREO_COUNT>
2

> <PUBCHEM_ATOM_UDEF_STEREO_COUNT>
0

> <PUBCHEM_BOND_DEF_STEREO_COUNT>
0

> <PUBCHEM_BOND_UDEF_STEREO_COUNT>
0

> <PUBCHEM_ISOTOPIC_ATOM_COUNT>
0

> <PUBCHEM_COMPONENT_COUNT>
1

> <PUBCHEM_CACTVS_TAUTO_COUNT>
2

> <PUBCHEM_CONFORMER_ID>
00B5579F00000001

> <PUBCHEM_MMFF94_ENERGY>
100.6666

> <PUBCHEM_FEATURE_SELFOVERLAP>
57.426

> <PUBCHEM_SHAPE_FINGERPRINT>
10 15 17821728338637243997
10165383 225 18334013904594871526
10483366 6 16702306758695330904
106641 1 16370725941352393084
10670039 82 15410902842585951803
10674148 151 17846778529934652816
11115154 58 13039193614891035211
11411753 29 18118685413565952063
11621639 336 17273990042566309024
11828532 37 12966833698252256581
1200032 147 18060420205172351862
12098696 120 17918274255390737608
13540713 4 16952798468045200743
14068700 675 8430322350646812966
14118638 360 18059297561277883785
14294032 229 18337955717715250371
15183329 4 15410900660389097886
15326923 82 11818997396153090670
15510800 12 7853574668394306673
15706992 2 18410864269238136693
1577012 14 17560793317623812245
15840311 113 17022627494622591132
16087824 20 18410576202341909432
18335252 114 17275103925143463664
18603816 31 11314318278145115945
18608769 82 18333734649863142731
19302320 297 17968100854150319492
19315958 150 18113620058513770651
20105231 36 15502370103031478802
2026 5 8358270232782085457
20505436 4 18201712964159015854
20554085 129 18335990817706353046
20771845 140 14706925138772709698
21033648 29 18267855259349342864
21033650 10 14620808084918293427
21057603 130 11602826830247570104
21057603 307 17488757667149651358
21344244 78 14056999417110351638
21792934 111 17095521756626642919
21792961 116 14476965605948704695
23576562 1 15625640831045806881
24771293 8 18040715883619587455
24893992 56 18343018934611605179
25223398 141 14979096146098160316
2838139 119 18131340930009476508
3004659 81 12247676067532152335
3178227 256 18334571365675631544
3633792 109 15841557379235946316
397830 11 18409454713397790875
4093350 32 17703794682549921455
4461854 278 14490194912178644152
474113 269 14979690858505626268
504579 68 15051734188281897555
5104073 3 17823412691904249265
513532 50 14476945810054229202
5385378 56 18410007716080360314
57303763 176 16844465830029237248
6081469 158 12967130510161477409
6126387 218 12973594539664594847
6438161 24 9007056855316759565
9962374 69 11242262882639215689

> <PUBCHEM_SHAPE_MULTIPOLES>
681.71
28.58
2.41
1.72
35.07
1.16
0.07
-22.06
3.35
-2.5
0.13
-0.63
0.06
0.36

> <PUBCHEM_SHAPE_SELFOVERLAP>
1473.557

> <PUBCHEM_SHAPE_VOLUME>
374.3

> <PUBCHEM_COORDINATE_TYPE>
2
5
10

$$$$
