26742846
  -OEChem-12032416173D

 56 59  0     1  0  0  0  0  0999 V2000
   -2.3927   -0.8247   -1.3887 O   0  0  0  0  0  0  0  0  0  0  0  0
    3.9482    1.4238    1.7142 O   0  0  0  0  0  0  0  0  0  0  0  0
   -4.8549    1.2986    0.3915 O   0  0  0  0  0  0  0  0  0  0  0  0
    2.7094    1.3642   -0.2674 N   0  0  0  0  0  0  0  0  0  0  0  0
   -1.8906    0.1213    0.6694 N   0  0  0  0  0  0  0  0  0  0  0  0
   -4.5987   -1.0240    0.7196 N   0  0  0  0  0  0  0  0  0  0  0  0
   -5.8940   -0.2884   -0.9809 N   0  0  0  0  0  0  0  0  0  0  0  0
    0.4368    2.3033    0.0446 C   0  0  2  0  0  0  0  0  0  0  0  0
    0.0239    1.6426   -1.2934 C   0  0  1  0  0  0  0  0  0  0  0  0
    0.8841    0.4025   -1.6077 C   0  0  0  0  0  0  0  0  0  0  0  0
    1.9542    2.5801    0.0361 C   0  0  0  0  0  0  0  0  0  0  0  0
    0.0548    1.5122    1.3106 C   0  0  0  0  0  0  0  0  0  0  0  0
   -1.4808    1.3729   -1.4221 C   0  0  0  0  0  0  0  0  0  0  0  0
    2.3724    0.7411   -1.5523 C   0  0  0  0  0  0  0  0  0  0  0  0
   -1.4447    1.2744    1.4485 C   0  0  0  0  0  0  0  0  0  0  0  0
   -1.9679    0.1202   -0.7187 C   0  0  0  0  0  0  0  0  0  0  0  0
   -2.2495   -1.0739    1.4210 C   0  0  0  0  0  0  0  0  0  0  0  0
    3.6666    0.9005    0.6372 C   0  0  0  0  0  0  0  0  0  0  0  0
   -3.7080   -1.0666    1.8475 C   0  0  0  0  0  0  0  0  0  0  0  0
    4.3979   -0.3276    0.3017 C   0  0  0  0  0  0  0  0  0  0  0  0
   -5.0405   -2.2249    0.0328 C   0  0  0  0  0  0  0  0  0  0  0  0
   -6.0017   -1.7242   -1.0349 C   0  0  0  0  0  0  0  0  0  0  0  0
   -5.0849    0.1361    0.0855 C   0  0  0  0  0  0  0  0  0  0  0  0
    5.5915   -0.2549   -0.4165 C   0  0  0  0  0  0  0  0  0  0  0  0
    3.8996   -1.5671    0.7028 C   0  0  0  0  0  0  0  0  0  0  0  0
    6.2867   -1.4219   -0.7336 C   0  0  0  0  0  0  0  0  0  0  0  0
    4.5947   -2.7340    0.3856 C   0  0  0  0  0  0  0  0  0  0  0  0
    5.7883   -2.6614   -0.3326 C   0  0  0  0  0  0  0  0  0  0  0  0
   -0.0679    3.2777    0.1076 H   0  0  0  0  0  0  0  0  0  0  0  0
    0.2527    2.3847   -2.0737 H   0  0  0  0  0  0  0  0  0  0  0  0
    0.6363    0.0170   -2.6036 H   0  0  0  0  0  0  0  0  0  0  0  0
    0.6776   -0.4002   -0.8902 H   0  0  0  0  0  0  0  0  0  0  0  0
    2.1992    3.3152   -0.7404 H   0  0  0  0  0  0  0  0  0  0  0  0
    2.2722    3.0088    0.9925 H   0  0  0  0  0  0  0  0  0  0  0  0
    0.3806    2.0967    2.1811 H   0  0  0  0  0  0  0  0  0  0  0  0
    0.5929    0.5581    1.3588 H   0  0  0  0  0  0  0  0  0  0  0  0
   -1.7183    1.2468   -2.4872 H   0  0  0  0  0  0  0  0  0  0  0  0
   -2.0699    2.2348   -1.0902 H   0  0  0  0  0  0  0  0  0  0  0  0
    2.9573   -0.1627   -1.7341 H   0  0  0  0  0  0  0  0  0  0  0  0
    2.6322    1.4579   -2.3404 H   0  0  0  0  0  0  0  0  0  0  0  0
   -1.6901    1.1009    2.5028 H   0  0  0  0  0  0  0  0  0  0  0  0
   -2.0134    2.1575    1.1384 H   0  0  0  0  0  0  0  0  0  0  0  0
   -2.0557   -1.9533    0.7952 H   0  0  0  0  0  0  0  0  0  0  0  0
   -1.5914   -1.1567    2.2934 H   0  0  0  0  0  0  0  0  0  0  0  0
   -3.9418   -1.9534    2.4460 H   0  0  0  0  0  0  0  0  0  0  0  0
   -3.9050   -0.1823    2.4643 H   0  0  0  0  0  0  0  0  0  0  0  0
   -5.5305   -2.9001    0.7407 H   0  0  0  0  0  0  0  0  0  0  0  0
   -4.1736   -2.7271   -0.4068 H   0  0  0  0  0  0  0  0  0  0  0  0
   -5.7374   -2.0736   -2.0365 H   0  0  0  0  0  0  0  0  0  0  0  0
   -7.0373   -2.0003   -0.8161 H   0  0  0  0  0  0  0  0  0  0  0  0
   -6.3807    0.3458   -1.6065 H   0  0  0  0  0  0  0  0  0  0  0  0
    5.9884    0.7058   -0.7339 H   0  0  0  0  0  0  0  0  0  0  0  0
    2.9698   -1.6346    1.2619 H   0  0  0  0  0  0  0  0  0  0  0  0
    7.2160   -1.3654   -1.2929 H   0  0  0  0  0  0  0  0  0  0  0  0
    4.2064   -3.6992    0.6974 H   0  0  0  0  0  0  0  0  0  0  0  0
    6.3294   -3.5701   -0.5798 H   0  0  0  0  0  0  0  0  0  0  0  0
  1 16  2  0  0  0  0
  2 18  2  0  0  0  0
  3 23  2  0  0  0  0
  4 11  1  0  0  0  0
  4 14  1  0  0  0  0
  4 18  1  0  0  0  0
  5 15  1  0  0  0  0
  5 16  1  0  0  0  0
  5 17  1  0  0  0  0
  6 19  1  0  0  0  0
  6 21  1  0  0  0  0
  6 23  1  0  0  0  0
  7 22  1  0  0  0  0
  7 23  1  0  0  0  0
  7 51  1  0  0  0  0
  8  9  1  0  0  0  0
  8 11  1  0  0  0  0
  8 12  1  0  0  0  0
  8 29  1  0  0  0  0
  9 10  1  0  0  0  0
  9 13  1  0  0  0  0
  9 30  1  0  0  0  0
 10 14  1  0  0  0  0
 10 31  1  0  0  0  0
 10 32  1  0  0  0  0
 11 33  1  0  0  0  0
 11 34  1  0  0  0  0
 12 15  1  0  0  0  0
 12 35  1  0  0  0  0
 12 36  1  0  0  0  0
 13 16  1  0  0  0  0
 13 37  1  0  0  0  0
 13 38  1  0  0  0  0
 14 39  1  0  0  0  0
 14 40  1  0  0  0  0
 15 41  1  0  0  0  0
 15 42  1  0  0  0  0
 17 19  1  0  0  0  0
 17 43  1  0  0  0  0
 17 44  1  0  0  0  0
 18 20  1  0  0  0  0
 19 45  1  0  0  0  0
 19 46  1  0  0  0  0
 20 24  2  0  0  0  0
 20 25  1  0  0  0  0
 21 22  1  0  0  0  0
 21 47  1  0  0  0  0
 21 48  1  0  0  0  0
 22 49  1  0  0  0  0
 22 50  1  0  0  0  0
 24 26  1  0  0  0  0
 24 52  1  0  0  0  0
 25 27  2  0  0  0  0
 25 53  1  0  0  0  0
 26 28  2  0  0  0  0
 26 54  1  0  0  0  0
 27 28  1  0  0  0  0
 27 55  1  0  0  0  0
 28 56  1  0  0  0  0
M  END
> <PUBCHEM_COMPOUND_CID>
26742846

> <PUBCHEM_CONFORMER_RMSD>
0.8

> <PUBCHEM_CONFORMER_DIVERSEORDER>
1
90
133
87
157
111
122
44
32
149
98
5
64
137
159
72
128
48
75
91
143
8
109
119
74
121
50
146
113
66
100
107
164
7
161
144
13
103
163
36
112
123
51
131
6
40
45
3
81
62
35
152
2
110
156
80
101
95
21
130
12
85
150
56
116
68
132
151
125
141
17
70
20
108
14
46
138
94
162
102
42
99
126
10
124
140
88
47
78
49
28
129
63
155
58
105
158
60
38
22
29
57
160
136
55
134
92
26
139
41
120
93
83
89
114
4
9
67
54
73
135
30
142
153
97
106
145
76
127
82
25
59
96
71
53
24
43
79
27
115
104
147
118
11
39
69
16
18
37
34
154
52
148
84
33
23
86
61
77
65
117
15
19
31

> <PUBCHEM_MMFF94_PARTIAL_CHARGES>
30
1 -0.57
11 0.3
13 0.06
14 0.3
15 0.3
16 0.57
17 0.3
18 0.54
19 0.3
2 -0.57
20 0.09
21 0.3
22 0.3
23 0.69
24 -0.15
25 -0.15
26 -0.15
27 -0.15
28 -0.15
3 -0.57
4 -0.66
5 -0.66
51 0.37
52 0.15
53 0.15
54 0.15
55 0.15
56 0.15
6 -0.66
7 -0.73

> <PUBCHEM_EFFECTIVE_ROTOR_COUNT>
7.4

> <PUBCHEM_PHARMACOPHORE_FEATURES>
8
1 1 acceptor
1 2 acceptor
1 3 acceptor
1 7 donor
5 6 7 21 22 23 rings
6 20 24 25 26 27 28 rings
6 4 8 9 10 11 14 rings
7 5 8 9 12 13 15 16 rings

> <PUBCHEM_HEAVY_ATOM_COUNT>
28

> <PUBCHEM_ATOM_DEF_STEREO_COUNT>
2

> <PUBCHEM_ATOM_UDEF_STEREO_COUNT>
0

> <PUBCHEM_BOND_DEF_STEREO_COUNT>
0

> <PUBCHEM_BOND_UDEF_STEREO_COUNT>
0

> <PUBCHEM_ISOTOPIC_ATOM_COUNT>
0

> <PUBCHEM_COMPONENT_COUNT>
1

> <PUBCHEM_CACTVS_TAUTO_COUNT>
4

> <PUBCHEM_CONFORMER_ID>
0198103E00000001

> <PUBCHEM_MMFF94_ENERGY>
70.6892

> <PUBCHEM_FEATURE_SELFOVERLAP>
40.624

> <PUBCHEM_SHAPE_FINGERPRINT>
10319926 262 15554183488187516740
11991303 11 17755016402229971581
12107183 9 18269846328572973833
12166972 35 18202001057616246145
12422481 6 16702026335447914388
12596602 18 17489306425064121098
12633257 1 15482662494636943824
12760667 363 18336550429979165090
12895836 83 12179853822116885168
12895837 130 8285325332986876450
12925494 130 11238909303593264067
13103583 49 18058746705804233192
13402501 40 18260553299176150978
13533116 47 18343300409424967536
13782708 43 18410008866677636111
13911852 28 18339359661141045078
13914758 101 18343299237563429853
14429115 67 18413673504409802918
15052358 14 17530956965528671671
15183329 4 16732697259971144599
15475509 8 17458059331732959213
15484559 13 13131285732204088600
17349148 13 16988571255317329249
19784866 240 18335989696482316644
20028762 73 18060700589512524590
21279426 13 18040987437290286045
21307412 95 17967537874090000115
21401589 2 11239706453606358094
21682296 61 18341615897571512095
2215653 11 18040994051023047815
23559900 14 17676775365197164868
2838139 119 9655574089488460442
3004659 81 17240765111829678276
3737641 26 18197224642473907318
3886686 26 16695292750272478774
437815 12 18408041805694013660
46194498 28 17313391170854428612
463206 1 18261677068494371738
465052 167 18059857255814340886
508706 21 17530962471560862739
5104073 3 17775012318782596289
5207 123 18261112967404714640
543368 44 8430317931409924823
7970288 3 18340769256617960614

> <PUBCHEM_SHAPE_MULTIPOLES>
538.69
15.13
2.77
1.61
0.78
0.5
0.09
12.08
-1.33
-1.93
0.12
0.67
-0.23
0.23

> <PUBCHEM_SHAPE_SELFOVERLAP>
1142.472

> <PUBCHEM_SHAPE_VOLUME>
297.1

> <PUBCHEM_COORDINATE_TYPE>
2
5
10

$$$$
