75368641
  -OEChem-12032416383D

 50 53  0     1  0  0  0  0  0999 V2000
   -5.7180    1.0025    0.4926 F   0  0  0  0  0  0  0  0  0  0  0  0
    1.8174    3.3060    0.2402 O   0  0  0  0  0  0  0  0  0  0  0  0
    6.1605   -2.1834    1.3494 O   0  0  0  0  0  0  0  0  0  0  0  0
   -0.1718    2.0785    0.0045 N   0  0  0  0  0  0  0  0  0  0  0  0
   -2.5234    0.7237    0.7429 N   0  0  2  0  0  0  0  0  0  0  0  0
    1.6212    1.4380   -1.1868 N   0  0  0  0  0  0  0  0  0  0  0  0
   -6.1646   -2.2455   -1.0543 N   0  0  0  0  0  0  0  0  0  0  0  0
   -0.6600    1.0082   -0.8397 C   0  0  2  0  0  0  0  0  0  0  0  0
   -1.4757    0.0116   -0.0166 C   0  0  0  0  0  0  0  0  0  0  0  0
    0.6085    0.4350   -1.4684 C   0  0  0  0  0  0  0  0  0  0  0  0
   -1.0898    2.7481    0.9022 C   0  0  0  0  0  0  0  0  0  0  0  0
   -1.9266    1.7150    1.6609 C   0  0  0  0  0  0  0  0  0  0  0  0
    1.1691    2.3931   -0.2540 C   0  0  0  0  0  0  0  0  0  0  0  0
   -3.3484   -0.2276    1.4871 C   0  0  0  0  0  0  0  0  0  0  0  0
    2.9662    1.3367   -1.7085 C   0  0  0  0  0  0  0  0  0  0  0  0
   -4.3339   -0.9311    0.5994 C   0  0  0  0  0  0  0  0  0  0  0  0
    3.8151    0.4021   -0.8961 C   0  0  0  0  0  0  0  0  0  0  0  0
    4.3055    0.8058    0.3458 C   0  0  0  0  0  0  0  0  0  0  0  0
    4.1130   -0.8704   -1.3834 C   0  0  0  0  0  0  0  0  0  0  0  0
   -5.4707   -0.2678    0.1508 C   0  0  0  0  0  0  0  0  0  0  0  0
   -4.1114   -2.2508    0.2221 C   0  0  0  0  0  0  0  0  0  0  0  0
    5.0939   -0.0629    1.1003 C   0  0  0  0  0  0  0  0  0  0  0  0
    4.9014   -1.7392   -0.6290 C   0  0  0  0  0  0  0  0  0  0  0  0
   -6.3470   -0.9632   -0.6667 C   0  0  0  0  0  0  0  0  0  0  0  0
   -5.0486   -2.8575   -0.5986 C   0  0  0  0  0  0  0  0  0  0  0  0
    5.3919   -1.3355    0.6128 C   0  0  0  0  0  0  0  0  0  0  0  0
    6.4263   -3.4694    0.7911 C   0  0  0  0  0  0  0  0  0  0  0  0
   -1.2870    1.4707   -1.6134 H   0  0  0  0  0  0  0  0  0  0  0  0
   -1.9115   -0.7142   -0.7116 H   0  0  0  0  0  0  0  0  0  0  0  0
   -0.8203   -0.5409    0.6704 H   0  0  0  0  0  0  0  0  0  0  0  0
    0.5051    0.2992   -2.5491 H   0  0  0  0  0  0  0  0  0  0  0  0
    0.9164   -0.5095   -1.0086 H   0  0  0  0  0  0  0  0  0  0  0  0
   -1.7331    3.3903    0.2898 H   0  0  0  0  0  0  0  0  0  0  0  0
   -0.5288    3.3876    1.5909 H   0  0  0  0  0  0  0  0  0  0  0  0
   -1.2947    1.2083    2.4028 H   0  0  0  0  0  0  0  0  0  0  0  0
   -2.7135    2.2482    2.2075 H   0  0  0  0  0  0  0  0  0  0  0  0
   -3.9375    0.2966    2.2530 H   0  0  0  0  0  0  0  0  0  0  0  0
   -2.7340   -0.9479    2.0446 H   0  0  0  0  0  0  0  0  0  0  0  0
    3.4234    2.3336   -1.6936 H   0  0  0  0  0  0  0  0  0  0  0  0
    2.9108    1.0272   -2.7584 H   0  0  0  0  0  0  0  0  0  0  0  0
    4.0879    1.7956    0.7366 H   0  0  0  0  0  0  0  0  0  0  0  0
    3.7347   -1.1973   -2.3484 H   0  0  0  0  0  0  0  0  0  0  0  0
   -3.2357   -2.7991    0.5523 H   0  0  0  0  0  0  0  0  0  0  0  0
    5.4741    0.2576    2.0665 H   0  0  0  0  0  0  0  0  0  0  0  0
    5.0935   -2.7128   -1.0668 H   0  0  0  0  0  0  0  0  0  0  0  0
   -7.2481   -0.4907   -1.0434 H   0  0  0  0  0  0  0  0  0  0  0  0
   -4.9213   -3.8855   -0.9216 H   0  0  0  0  0  0  0  0  0  0  0  0
    7.0507   -4.0107    1.5094 H   0  0  0  0  0  0  0  0  0  0  0  0
    7.0006   -3.3936   -0.1384 H   0  0  0  0  0  0  0  0  0  0  0  0
    5.5068   -4.0511    0.6649 H   0  0  0  0  0  0  0  0  0  0  0  0
  1 20  1  0  0  0  0
  2 13  2  0  0  0  0
  3 26  1  0  0  0  0
  3 27  1  0  0  0  0
  4  8  1  0  0  0  0
  4 11  1  0  0  0  0
  4 13  1  0  0  0  0
  5  9  1  0  0  0  0
  5 12  1  0  0  0  0
  5 14  1  0  0  0  0
  6 10  1  0  0  0  0
  6 13  1  0  0  0  0
  6 15  1  0  0  0  0
  7 24  2  0  0  0  0
  7 25  1  0  0  0  0
  8  9  1  0  0  0  0
  8 10  1  0  0  0  0
  8 28  1  0  0  0  0
  9 29  1  0  0  0  0
  9 30  1  0  0  0  0
 10 31  1  0  0  0  0
 10 32  1  0  0  0  0
 11 12  1  0  0  0  0
 11 33  1  0  0  0  0
 11 34  1  0  0  0  0
 12 35  1  0  0  0  0
 12 36  1  0  0  0  0
 14 16  1  0  0  0  0
 14 37  1  0  0  0  0
 14 38  1  0  0  0  0
 15 17  1  0  0  0  0
 15 39  1  0  0  0  0
 15 40  1  0  0  0  0
 16 20  2  0  0  0  0
 16 21  1  0  0  0  0
 17 18  2  0  0  0  0
 17 19  1  0  0  0  0
 18 22  1  0  0  0  0
 18 41  1  0  0  0  0
 19 23  2  0  0  0  0
 19 42  1  0  0  0  0
 20 24  1  0  0  0  0
 21 25  2  0  0  0  0
 21 43  1  0  0  0  0
 22 26  2  0  0  0  0
 22 44  1  0  0  0  0
 23 26  1  0  0  0  0
 23 45  1  0  0  0  0
 24 46  1  0  0  0  0
 25 47  1  0  0  0  0
 27 48  1  0  0  0  0
 27 49  1  0  0  0  0
 27 50  1  0  0  0  0
M  END
> <PUBCHEM_COMPOUND_CID>
75368641

> <PUBCHEM_CONFORMER_RMSD>
0.8

> <PUBCHEM_CONFORMER_DIVERSEORDER>
1
62
82
143
89
47
132
86
58
138
102
59
126
8
60
110
125
113
67
111
77
79
112
131
19
42
6
27
92
65
57
35
51
129
118
141
100
15
90
106
115
140
71
41
94
123
69
124
11
39
99
103
127
109
76
136
91
38
142
135
134
119
61
139
130
101
43
121
128
84
93
74
50
63
20
75
14
33
9
55
64
37
12
85
88
45
107
133
87
97
48
68
24
78
36
116
25
54
31
40
32
122
22
72
52
105
104
144
28
29
46
70
98
117
34
81
108
23
120
114
56
96
53
2
49
26
83
30
80
10
13
44
7
4
137
66
3
16
21
17
73
18
95
5

> <PUBCHEM_MMFF94_PARTIAL_CHARGES>
34
1 -0.19
10 0.3
11 0.3
12 0.27
13 0.69
14 0.41
15 0.44
16 -0.14
17 -0.14
18 -0.15
19 -0.15
2 -0.57
20 0.19
21 -0.15
22 -0.15
23 -0.15
24 0.16
25 0.16
26 0.08
27 0.28
3 -0.36
4 -0.66
41 0.15
42 0.15
43 0.15
44 0.15
45 0.15
46 0.15
47 0.15
5 -0.81
6 -0.66
7 -0.62
8 0.3
9 0.27

> <PUBCHEM_EFFECTIVE_ROTOR_COUNT>
6.2

> <PUBCHEM_PHARMACOPHORE_FEATURES>
8
1 2 acceptor
1 3 acceptor
1 5 cation
1 7 acceptor
5 4 6 8 10 13 rings
6 17 18 19 22 23 26 rings
6 4 5 8 9 11 12 rings
6 7 16 20 21 24 25 rings

> <PUBCHEM_HEAVY_ATOM_COUNT>
27

> <PUBCHEM_ATOM_DEF_STEREO_COUNT>
1

> <PUBCHEM_ATOM_UDEF_STEREO_COUNT>
0

> <PUBCHEM_BOND_DEF_STEREO_COUNT>
0

> <PUBCHEM_BOND_UDEF_STEREO_COUNT>
0

> <PUBCHEM_ISOTOPIC_ATOM_COUNT>
0

> <PUBCHEM_COMPONENT_COUNT>
1

> <PUBCHEM_CACTVS_TAUTO_COUNT>
1

> <PUBCHEM_CONFORMER_ID>
047E08C100000001

> <PUBCHEM_MMFF94_ENERGY>
74.7151

> <PUBCHEM_FEATURE_SELFOVERLAP>
40.693

> <PUBCHEM_SHAPE_FINGERPRINT>
10319926 262 17559684932340414158
10721379 63 7997431441864032032
11796584 16 17240482567131869616
11963148 33 17336175439805720319
1200032 147 11599999982211744198
12166972 35 18113900455374010036
12390115 104 11818989682850632965
12422481 6 17274829038456525951
12596602 18 17703794717141924186
12760667 363 18260268512299035378
12895836 83 8430302542193696720
13533116 47 18335984242142889056
13761468 95 17532362060291721533
13782708 43 18042693974000389843
13828863 39 10231757790647150163
13885169 86 10591751112979734810
13911852 28 18408601435969998578
14068700 675 18412543201950323113
14251751 18 18410570712739916493
14848178 5 18333452066542218138
15163728 17 9439398039047184424
15183329 4 16081364163720216405
15188451 53 18341327816866229426
15475509 8 15791727473731732861
16126227 98 9655276160334101522
17349148 13 18337124426704562047
17857418 61 18410859892798194519
18222031 100 18271258178511515724
19438510 23 11311758580699817766
1979834 28 17417824945223331574
20028762 73 18411981339188968006
20567600 234 15410894097626270129
21033648 29 15913054157676820624
21401589 2 13254783630177028614
21458453 9 15481812653421346290
22061861 79 16950564415109812695
23559900 14 18264494064608456153
23572383 38 18060147535337293799
2838139 119 11167944632776086546
3004659 81 18335711580085447492
312425 54 17417264116830747163
339767 52 18273496788712704367
3472631 163 9655282749172130018
38570 142 10807937098260264432
3886686 26 17264982693066462450
4098825 35 7997971284771549184
463206 1 18261398879083045267
474113 269 18342728590591063527
5085150 59 17989207045445775015
5104073 3 17845387707517201873
531348 171 18260828194779214335
6523845 18 14908189651273520124
7808743 9 8646766668908326617
7970288 3 18263081033675025778
8988823 20 18340768259979592364
960060 61 16950572111849170636
96874 4 18409442583508391450

> <PUBCHEM_SHAPE_MULTIPOLES>
516.71
17.21
3.53
1.47
2.26
0.57
-0.05
17.55
1.69
-1.61
0.5
-0.7
-0.11
-2.6

> <PUBCHEM_SHAPE_SELFOVERLAP>
1111.098

> <PUBCHEM_SHAPE_VOLUME>
286.7

> <PUBCHEM_COORDINATE_TYPE>
2
5
10

$$$$
