25389563
  -OEChem-12032416163D

 61 65  0     1  0  0  0  0  0999 V2000
    1.9587    3.7661    0.8691 S   0  0  0  0  0  0  0  0  0  0  0  0
   -0.9013   -2.0709    0.1151 O   0  0  0  0  0  0  0  0  0  0  0  0
   -2.0367   -0.8883    1.7094 O   0  0  0  0  0  0  0  0  0  0  0  0
   -8.6714    1.2418    0.9332 O   0  0  0  0  0  0  0  0  0  0  0  0
    2.4395   -3.3099    1.1822 N   0  0  2  0  0  0  0  0  0  0  0  0
    5.1863    0.4396   -0.6809 N   0  0  0  0  0  0  0  0  0  0  0  0
    5.1113    1.7814   -0.6948 N   0  0  0  0  0  0  0  0  0  0  0  0
   -2.9638   -1.3265   -0.3950 N   0  0  0  0  0  0  0  0  0  0  0  0
    3.2973   -2.4562   -1.1240 C   0  0  2  0  0  0  0  0  0  0  0  0
    3.9816   -1.6771    0.0331 C   0  0  2  0  0  0  0  0  0  0  0  0
    1.2880   -3.0113    0.2904 C   0  0  2  0  0  0  0  0  0  0  0  0
    1.7658   -2.3119   -1.0003 C   0  0  0  0  0  0  0  0  0  0  0  0
    3.6307   -3.9489   -0.9138 C   0  0  0  0  0  0  0  0  0  0  0  0
    3.2769   -2.0966    1.3548 C   0  0  0  0  0  0  0  0  0  0  0  0
    3.2646   -4.3520    0.5254 C   0  0  0  0  0  0  0  0  0  0  0  0
    4.1129   -0.1663   -0.0968 C   0  0  0  0  0  0  0  0  0  0  0  0
    0.1931   -2.2122    1.0002 C   0  0  0  0  0  0  0  0  0  0  0  0
    3.2778    0.8497    0.2991 C   0  0  0  0  0  0  0  0  0  0  0  0
    3.9433    2.0260   -0.0949 C   0  0  0  0  0  0  0  0  0  0  0  0
    6.3409   -0.2080   -1.2588 C   0  0  0  0  0  0  0  0  0  0  0  0
    3.4481    3.3994    0.1079 C   0  0  0  0  0  0  0  0  0  0  0  0
   -1.9915   -1.3727    0.5852 C   0  0  0  0  0  0  0  0  0  0  0  0
    4.1198    4.5351   -0.2878 C   0  0  0  0  0  0  0  0  0  0  0  0
    3.4023    5.7220    0.0385 C   0  0  0  0  0  0  0  0  0  0  0  0
    2.2096    5.4483    0.6709 C   0  0  0  0  0  0  0  0  0  0  0  0
   -4.2351   -0.7122   -0.3316 C   0  0  0  0  0  0  0  0  0  0  0  0
   -5.0925   -0.7681   -1.4305 C   0  0  0  0  0  0  0  0  0  0  0  0
   -4.6317   -0.0487    0.8295 C   0  0  0  0  0  0  0  0  0  0  0  0
   -6.3465   -0.1605   -1.3682 C   0  0  0  0  0  0  0  0  0  0  0  0
   -5.8856    0.5589    0.8917 C   0  0  0  0  0  0  0  0  0  0  0  0
   -6.7432    0.5029   -0.2071 C   0  0  0  0  0  0  0  0  0  0  0  0
   -8.0507    1.1363   -0.1434 C   0  0  0  0  0  0  0  0  0  0  0  0
   -8.6987    1.6906   -1.4077 C   0  0  0  0  0  0  0  0  0  0  0  0
    3.6428   -2.1102   -2.1036 H   0  0  0  0  0  0  0  0  0  0  0  0
    5.0096   -2.0631    0.1072 H   0  0  0  0  0  0  0  0  0  0  0  0
    0.8223   -3.9640   -0.0026 H   0  0  0  0  0  0  0  0  0  0  0  0
    1.4934   -1.2503   -1.0134 H   0  0  0  0  0  0  0  0  0  0  0  0
    1.2809   -2.7769   -1.8678 H   0  0  0  0  0  0  0  0  0  0  0  0
    4.6968   -4.1315   -1.0919 H   0  0  0  0  0  0  0  0  0  0  0  0
    3.0719   -4.5605   -1.6325 H   0  0  0  0  0  0  0  0  0  0  0  0
    4.0456   -2.3064    2.1114 H   0  0  0  0  0  0  0  0  0  0  0  0
    2.6779   -1.2964    1.7985 H   0  0  0  0  0  0  0  0  0  0  0  0
    2.7253   -5.3073    0.5187 H   0  0  0  0  0  0  0  0  0  0  0  0
    4.1737   -4.5323    1.1132 H   0  0  0  0  0  0  0  0  0  0  0  0
    0.5469   -1.2173    1.2915 H   0  0  0  0  0  0  0  0  0  0  0  0
   -0.1338   -2.7478    1.8999 H   0  0  0  0  0  0  0  0  0  0  0  0
    2.3222    0.7438    0.7923 H   0  0  0  0  0  0  0  0  0  0  0  0
    6.0030   -0.9860   -1.9472 H   0  0  0  0  0  0  0  0  0  0  0  0
    6.9344    0.5286   -1.8072 H   0  0  0  0  0  0  0  0  0  0  0  0
    6.9364   -0.6350   -0.4482 H   0  0  0  0  0  0  0  0  0  0  0  0
    5.0803    4.5367   -0.7885 H   0  0  0  0  0  0  0  0  0  0  0  0
   -2.7406   -1.7911   -1.2718 H   0  0  0  0  0  0  0  0  0  0  0  0
    3.7436    6.7256   -0.1796 H   0  0  0  0  0  0  0  0  0  0  0  0
    1.4735    6.1557    1.0260 H   0  0  0  0  0  0  0  0  0  0  0  0
   -4.7963   -1.2842   -2.3403 H   0  0  0  0  0  0  0  0  0  0  0  0
   -4.0219    0.0369    1.7181 H   0  0  0  0  0  0  0  0  0  0  0  0
   -6.9989   -0.2305   -2.2341 H   0  0  0  0  0  0  0  0  0  0  0  0
   -6.1770    1.0753    1.8028 H   0  0  0  0  0  0  0  0  0  0  0  0
   -9.2954    0.9098   -1.8854 H   0  0  0  0  0  0  0  0  0  0  0  0
   -7.9405    2.0675   -2.0996 H   0  0  0  0  0  0  0  0  0  0  0  0
   -9.3445    2.5318   -1.1382 H   0  0  0  0  0  0  0  0  0  0  0  0
  1 21  1  0  0  0  0
  1 25  1  0  0  0  0
  2 17  1  0  0  0  0
  2 22  1  0  0  0  0
  3 22  2  0  0  0  0
  4 32  2  0  0  0  0
  5 11  1  0  0  0  0
  5 14  1  0  0  0  0
  5 15  1  0  0  0  0
  6  7  1  0  0  0  0
  6 16  1  0  0  0  0
  6 20  1  0  0  0  0
  7 19  2  0  0  0  0
  8 22  1  0  0  0  0
  8 26  1  0  0  0  0
  8 52  1  0  0  0  0
  9 10  1  0  0  0  0
  9 12  1  0  0  0  0
  9 13  1  0  0  0  0
  9 34  1  0  0  0  0
 10 14  1  0  0  0  0
 10 16  1  0  0  0  0
 10 35  1  0  0  0  0
 11 12  1  0  0  0  0
 11 17  1  0  0  0  0
 11 36  1  0  0  0  0
 12 37  1  0  0  0  0
 12 38  1  0  0  0  0
 13 15  1  0  0  0  0
 13 39  1  0  0  0  0
 13 40  1  0  0  0  0
 14 41  1  0  0  0  0
 14 42  1  0  0  0  0
 15 43  1  0  0  0  0
 15 44  1  0  0  0  0
 16 18  2  0  0  0  0
 17 45  1  0  0  0  0
 17 46  1  0  0  0  0
 18 19  1  0  0  0  0
 18 47  1  0  0  0  0
 19 21  1  0  0  0  0
 20 48  1  0  0  0  0
 20 49  1  0  0  0  0
 20 50  1  0  0  0  0
 21 23  2  0  0  0  0
 23 24  1  0  0  0  0
 23 51  1  0  0  0  0
 24 25  2  0  0  0  0
 24 53  1  0  0  0  0
 25 54  1  0  0  0  0
 26 27  2  0  0  0  0
 26 28  1  0  0  0  0
 27 29  1  0  0  0  0
 27 55  1  0  0  0  0
 28 30  2  0  0  0  0
 28 56  1  0  0  0  0
 29 31  2  0  0  0  0
 29 57  1  0  0  0  0
 30 31  1  0  0  0  0
 30 58  1  0  0  0  0
 31 32  1  0  0  0  0
 32 33  1  0  0  0  0
 33 59  1  0  0  0  0
 33 60  1  0  0  0  0
 33 61  1  0  0  0  0
M  END
> <PUBCHEM_COMPOUND_CID>
25389563

> <PUBCHEM_CONFORMER_RMSD>
1

> <PUBCHEM_CONFORMER_DIVERSEORDER>
2
55
33
27
70
5
64
23
53
6
17
51
54
29
50
36
24
68
31
18
59
14
22
3
1
40
58
60
47
25
12
56
13
38
66
48
19
34
28
35
7
49
42
44
20
10
61
32
52
43
11
15
4
30
8
21
46
39
45
65
16
69
62
26
41
57
37
67
63
9

> <PUBCHEM_MMFF94_PARTIAL_CHARGES>
39
1 -0.08
10 0.18
11 0.27
14 0.27
15 0.27
16 -0.33
17 0.28
18 -0.15
19 0.29
2 -0.43
20 0.26
21 0.04
22 0.78
23 -0.15
24 -0.15
25 -0.11
26 0.12
27 -0.15
28 -0.15
29 -0.15
3 -0.57
30 -0.15
31 0.09
32 0.42
33 0.06
4 -0.57
47 0.15
5 -0.81
51 0.15
52 0.37
53 0.15
54 0.15
55 0.15
56 0.15
57 0.15
58 0.15
6 0.31
7 -0.71
8 -0.55

> <PUBCHEM_EFFECTIVE_ROTOR_COUNT>
9.2

> <PUBCHEM_PHARMACOPHORE_FEATURES>
9
1 3 acceptor
1 4 acceptor
1 5 cation
1 7 acceptor
1 8 donor
5 1 21 23 24 25 rings
5 6 7 16 18 19 rings
6 26 27 28 29 30 31 rings
8 5 9 10 11 12 13 14 15 rings

> <PUBCHEM_HEAVY_ATOM_COUNT>
33

> <PUBCHEM_ATOM_DEF_STEREO_COUNT>
3

> <PUBCHEM_ATOM_UDEF_STEREO_COUNT>
0

> <PUBCHEM_BOND_DEF_STEREO_COUNT>
0

> <PUBCHEM_BOND_UDEF_STEREO_COUNT>
0

> <PUBCHEM_ISOTOPIC_ATOM_COUNT>
0

> <PUBCHEM_COMPONENT_COUNT>
1

> <PUBCHEM_CACTVS_TAUTO_COUNT>
9

> <PUBCHEM_CONFORMER_ID>
018369FB00000002

> <PUBCHEM_MMFF94_ENERGY>
79.3139

> <PUBCHEM_FEATURE_SELFOVERLAP>
45.672

> <PUBCHEM_SHAPE_FINGERPRINT>
10673678 19 18341053012174384595
10675989 125 18340205297120430280
10842077 115 16119927614309804688
10937287 8 17978789335690703538
11059845 2 17548107375923282416
11374522 174 17971767815291333205
11386260 185 18342176605356800583
11456790 92 17895186641363352690
11966995 178 18412273818071435157
12925494 130 18263083374283853051
13878862 14 18262221253751144055
13944108 23 18408042905606958132
14068700 686 17976544128430882379
14117953 113 18413110576585475676
14223995 32 17909825780533592144
14415360 78 18265049326986987020
14747282 540 18260270780934176268
15183329 4 17775284937831952731
15198563 99 17980785748681521230
15276724 80 18337388220118904661
15320295 198 18334299760470282013
15320295 44 18059005232765933191
15326921 28 16831204989549161600
15400415 2 17978791538772679961
15483637 11 17976540507599443356
15530120 55 17630597036877828165
15721738 15 18128535057956206513
15773879 134 18267578190983191845
16087824 20 18410577289115971252
17899979 129 18337955709241139480
18335252 114 18412265000139949966
19053607 189 17981314905031034096
21049683 118 17168137958042534211
21133410 230 18270385090156216770
21344244 78 17972580105940736466
21585483 110 18336549433547330565
21987440 362 17761499488856552060
22122407 14 18411429393078032481
23522609 53 17774457023062049441
24204213 92 17844830126747589966
255183 451 17841439133460864950
27425 322 18409444787438797735
376196 1 18191585474678024394
3882209 13 18118952608488274178
394071 54 18335988605723887583
397830 11 18187660115525551067
4066623 53 18126864707326525878
44317340 157 18409170991915943667
44555599 121 18199472065725909089
4760202 170 18265598902692102901
5047190 2 18200325299265233145
5109719 28 18265060296238054427
5312510 48 18410574011232686241
58902169 19 18060413604039376111
5951187 136 18271534177483720822
59521099 67 18268140968673274722

> <PUBCHEM_SHAPE_MULTIPOLES>
645.44
20.95
7.23
1.3
57.37
8.47
0.03
10.36
5.62
-15.88
-0.96
0.67
-0.45
0.28

> <PUBCHEM_SHAPE_SELFOVERLAP>
1385.354

> <PUBCHEM_SHAPE_VOLUME>
358.8

> <PUBCHEM_COORDINATE_TYPE>
2
5
10

$$$$
