25338514
  -OEChem-12032416213D

 59 63  0     1  0  0  0  0  0999 V2000
   -0.0570   -4.0834   -1.4239 O   0  0  0  0  0  0  0  0  0  0  0  0
   -4.7502    0.9496   -0.5625 O   0  0  0  0  0  0  0  0  0  0  0  0
   -0.2472    5.6034   -1.2218 O   0  0  0  0  0  0  0  0  0  0  0  0
   -2.6355   -3.4408    0.8902 N   0  0  1  0  0  0  0  0  0  0  0  0
   -3.6143   -0.5909    0.7512 N   0  0  0  0  0  0  0  0  0  0  0  0
    0.0925   -2.2427   -0.1563 N   0  0  0  0  0  0  0  0  0  0  0  0
    1.2976   -3.7273   -1.4125 N   0  0  0  0  0  0  0  0  0  0  0  0
   -4.0033   -1.7691    0.0131 C   0  0  1  0  0  0  0  0  0  0  0  0
   -2.1931   -3.3236   -0.5124 C   0  0  1  0  0  0  0  0  0  0  0  0
   -2.9799   -2.1198   -1.0669 C   0  0  0  0  0  0  0  0  0  0  0  0
   -4.0334   -2.9986    0.9084 C   0  0  0  0  0  0  0  0  0  0  0  0
   -0.6958   -3.1580   -0.6611 C   0  0  0  0  0  0  0  0  0  0  0  0
   -2.4835   -4.7867    1.4295 C   0  0  0  0  0  0  0  0  0  0  0  0
   -4.0272    0.6850    0.3946 C   0  0  0  0  0  0  0  0  0  0  0  0
   -3.4777    1.7330    1.3433 C   0  0  0  0  0  0  0  0  0  0  0  0
    1.3052   -2.6334   -0.6447 C   0  0  0  0  0  0  0  0  0  0  0  0
    2.5062   -1.9076   -0.3478 C   0  0  0  0  0  0  0  0  0  0  0  0
   -2.6174    2.7633    0.6609 C   0  0  0  0  0  0  0  0  0  0  0  0
    2.4314   -0.5833    0.0850 C   0  0  0  0  0  0  0  0  0  0  0  0
    3.7453   -2.5249   -0.4909 C   0  0  0  0  0  0  0  0  0  0  0  0
   -1.2437    2.5545    0.5374 C   0  0  0  0  0  0  0  0  0  0  0  0
   -3.1945    3.9266    0.1516 C   0  0  0  0  0  0  0  0  0  0  0  0
    3.5979    0.1410    0.3805 C   0  0  0  0  0  0  0  0  0  0  0  0
    4.8579   -0.4868    0.2348 C   0  0  0  0  0  0  0  0  0  0  0  0
    4.9144   -1.8204   -0.2018 C   0  0  0  0  0  0  0  0  0  0  0  0
   -0.4471    3.5090   -0.0949 C   0  0  0  0  0  0  0  0  0  0  0  0
   -2.3980    4.8812   -0.4807 C   0  0  0  0  0  0  0  0  0  0  0  0
   -1.0244    4.6725   -0.6040 C   0  0  0  0  0  0  0  0  0  0  0  0
    3.5414    1.4746    0.8170 C   0  0  0  0  0  0  0  0  0  0  0  0
    6.0243    0.2376    0.5300 C   0  0  0  0  0  0  0  0  0  0  0  0
    4.7104    2.1792    1.1059 C   0  0  0  0  0  0  0  0  0  0  0  0
    5.9494    1.5619    0.9627 C   0  0  0  0  0  0  0  0  0  0  0  0
    1.1493    5.3253   -1.3140 C   0  0  0  0  0  0  0  0  0  0  0  0
   -4.9874   -1.5868   -0.4330 H   0  0  0  0  0  0  0  0  0  0  0  0
   -2.5059   -4.2121   -1.0799 H   0  0  0  0  0  0  0  0  0  0  0  0
   -2.3434   -1.2655   -1.3253 H   0  0  0  0  0  0  0  0  0  0  0  0
   -3.5036   -2.4283   -1.9806 H   0  0  0  0  0  0  0  0  0  0  0  0
   -4.3765   -2.7748    1.9242 H   0  0  0  0  0  0  0  0  0  0  0  0
   -4.6934   -3.7596    0.4719 H   0  0  0  0  0  0  0  0  0  0  0  0
   -2.9628   -0.7107    1.5213 H   0  0  0  0  0  0  0  0  0  0  0  0
   -1.4302   -5.0866    1.4314 H   0  0  0  0  0  0  0  0  0  0  0  0
   -3.0517   -5.5311    0.8603 H   0  0  0  0  0  0  0  0  0  0  0  0
   -2.8232   -4.8194    2.4705 H   0  0  0  0  0  0  0  0  0  0  0  0
   -2.9126    1.2752    2.1645 H   0  0  0  0  0  0  0  0  0  0  0  0
   -4.3368    2.2198    1.8229 H   0  0  0  0  0  0  0  0  0  0  0  0
    1.4646   -0.0933    0.1938 H   0  0  0  0  0  0  0  0  0  0  0  0
    3.8379   -3.5573   -0.8195 H   0  0  0  0  0  0  0  0  0  0  0  0
   -0.7841    1.6500    0.9279 H   0  0  0  0  0  0  0  0  0  0  0  0
   -4.2637    4.0999    0.2398 H   0  0  0  0  0  0  0  0  0  0  0  0
    5.8722   -2.3231   -0.3193 H   0  0  0  0  0  0  0  0  0  0  0  0
    0.6115    3.2827   -0.1582 H   0  0  0  0  0  0  0  0  0  0  0  0
   -2.8533    5.7852   -0.8759 H   0  0  0  0  0  0  0  0  0  0  0  0
    2.5842    1.9772    0.9378 H   0  0  0  0  0  0  0  0  0  0  0  0
    7.0036   -0.2248    0.4252 H   0  0  0  0  0  0  0  0  0  0  0  0
    4.6527    3.2101    1.4429 H   0  0  0  0  0  0  0  0  0  0  0  0
    6.8591    2.1109    1.1877 H   0  0  0  0  0  0  0  0  0  0  0  0
    1.6136    6.1702   -1.8331 H   0  0  0  0  0  0  0  0  0  0  0  0
    1.3429    4.4329   -1.9189 H   0  0  0  0  0  0  0  0  0  0  0  0
    1.6139    5.2640   -0.3239 H   0  0  0  0  0  0  0  0  0  0  0  0
  1  7  1  0  0  0  0
  1 12  1  0  0  0  0
  2 14  2  0  0  0  0
  3 28  1  0  0  0  0
  3 33  1  0  0  0  0
  4  9  1  0  0  0  0
  4 11  1  0  0  0  0
  4 13  1  0  0  0  0
  5  8  1  0  0  0  0
  5 14  1  0  0  0  0
  5 40  1  0  0  0  0
  6 12  2  0  0  0  0
  6 16  1  0  0  0  0
  7 16  2  0  0  0  0
  8 10  1  0  0  0  0
  8 11  1  0  0  0  0
  8 34  1  0  0  0  0
  9 10  1  0  0  0  0
  9 12  1  0  0  0  0
  9 35  1  0  0  0  0
 10 36  1  0  0  0  0
 10 37  1  0  0  0  0
 11 38  1  0  0  0  0
 11 39  1  0  0  0  0
 13 41  1  0  0  0  0
 13 42  1  0  0  0  0
 13 43  1  0  0  0  0
 14 15  1  0  0  0  0
 15 18  1  0  0  0  0
 15 44  1  0  0  0  0
 15 45  1  0  0  0  0
 16 17  1  0  0  0  0
 17 19  2  0  0  0  0
 17 20  1  0  0  0  0
 18 21  2  0  0  0  0
 18 22  1  0  0  0  0
 19 23  1  0  0  0  0
 19 46  1  0  0  0  0
 20 25  2  0  0  0  0
 20 47  1  0  0  0  0
 21 26  1  0  0  0  0
 21 48  1  0  0  0  0
 22 27  2  0  0  0  0
 22 49  1  0  0  0  0
 23 24  1  0  0  0  0
 23 29  2  0  0  0  0
 24 25  1  0  0  0  0
 24 30  2  0  0  0  0
 25 50  1  0  0  0  0
 26 28  2  0  0  0  0
 26 51  1  0  0  0  0
 27 28  1  0  0  0  0
 27 52  1  0  0  0  0
 29 31  1  0  0  0  0
 29 53  1  0  0  0  0
 30 32  1  0  0  0  0
 30 54  1  0  0  0  0
 31 32  2  0  0  0  0
 31 55  1  0  0  0  0
 32 56  1  0  0  0  0
 33 57  1  0  0  0  0
 33 58  1  0  0  0  0
 33 59  1  0  0  0  0
M  END
> <PUBCHEM_COMPOUND_CID>
25338514

> <PUBCHEM_CONFORMER_RMSD>
1

> <PUBCHEM_CONFORMER_DIVERSEORDER>
1
142
36
33
136
272
35
251
213
66
54
146
55
127
258
94
212
91
263
153
172
101
44
270
149
10
121
129
240
134
118
256
93
104
250
2
140
116
26
231
278
184
87
28
167
249
61
243
48
179
111
244
63
197
110
144
219
106
189
259
176
14
160
175
269
77
46
85
139
255
64
216
226
105
131
103
275
67
223
74
166
147
112
126
168
174
7
198
276
220
145
262
236
3
268
31
42
222
59
73
12
11
102
34
273
206
52
186
277
23
143
274
254
194
227
100
39
141
190
235
253
248
80
177
221
115
65
211
83
264
41
9
181
20
209
16
98
159
260
53
204
148
117
185
133
155
47
257
191
156
49
203
75
96
82
88
123
158
58
214
196
60
22
45
229
199
17
201
266
119
40
247
25
279
90
114
5
261
232
120
267
171
15
24
225
137
161
241
124
57
245
37
180
200
154
81
237
150
38
71
29
178
228
62
99
183
13
108
205
217
230
69
30
238
68
122
152
56
233
207
138
43
173
188
170
32
169
195
70
182
239
165
192
265
187
215
86
271
18
72
76
157
27
6
234
246
92
89
164
252
50
224
162
130
4
218
79
97
128
78
95
109
242
19
107
125
132
51
84
193
208
202
163
151
113
135
8
21
210

> <PUBCHEM_MMFF94_PARTIAL_CHARGES>
42
1 -0.02
11 0.27
12 0.3
13 0.27
14 0.57
15 0.2
16 0.46
17 0.05
18 -0.14
19 -0.15
2 -0.57
20 -0.15
21 -0.15
22 -0.15
25 -0.15
26 -0.15
27 -0.15
28 0.08
29 -0.15
3 -0.36
30 -0.15
31 -0.15
32 -0.15
33 0.28
4 -0.81
40 0.37
46 0.15
47 0.15
48 0.15
49 0.15
5 -0.73
50 0.15
51 0.15
52 0.15
53 0.15
54 0.15
55 0.15
56 0.15
6 -0.57
7 -0.41
8 0.3
9 0.45

> <PUBCHEM_EFFECTIVE_ROTOR_COUNT>
8

> <PUBCHEM_PHARMACOPHORE_FEATURES>
10
1 2 acceptor
1 3 acceptor
1 4 cation
1 5 donor
3 6 7 16 cation
5 1 6 7 12 16 rings
5 4 8 9 10 11 rings
6 17 19 20 23 24 25 rings
6 18 21 22 26 27 28 rings
6 23 24 29 30 31 32 rings

> <PUBCHEM_HEAVY_ATOM_COUNT>
33

> <PUBCHEM_ATOM_DEF_STEREO_COUNT>
2

> <PUBCHEM_ATOM_UDEF_STEREO_COUNT>
0

> <PUBCHEM_BOND_DEF_STEREO_COUNT>
0

> <PUBCHEM_BOND_UDEF_STEREO_COUNT>
0

> <PUBCHEM_ISOTOPIC_ATOM_COUNT>
0

> <PUBCHEM_COMPONENT_COUNT>
1

> <PUBCHEM_CACTVS_TAUTO_COUNT>
2

> <PUBCHEM_CONFORMER_ID>
0182A29200000001

> <PUBCHEM_MMFF94_ENERGY>
85.5265

> <PUBCHEM_FEATURE_SELFOVERLAP>
50.774

> <PUBCHEM_SHAPE_FINGERPRINT>
10256941 240 17680975302200203092
13561361 72 18412537722120855216
1361 2 18122339078369353301
140371 6 18337396057779805755
144659 178 18337112383848944356
14725015 67 18120936097173417091
15320467 1 18411698807169656776
15322535 138 18049718520996619336
15419008 145 18338502102870692730
15721738 15 16100776784712966220
15961568 22 18340769363606774470
16067690 210 18261381278407319554
16992787 43 18195521503632080629
20398071 114 18051975818542205035
20764821 26 17404573867118411869
21792965 270 18192444167758266435
21796203 349 17757869926961280825
22121540 332 18273221898390104406
25019877 29 16915956264645588831
325973 47 18339077206642668229
354706 109 18194938791384124160
373842 8 18194399124284234049
437795 96 18410568474740500761
474144 1 17826528939142269828
50150288 127 16127267562946516121
5047190 48 18411704266236691908
50677037 204 17838886380924494736
508706 21 18268710506863986742
5776283 40 17690580588641146286
6036956 94 18408324406158553741
6176135 31 18124594171863487161
653340 110 18413100659136438272
6608658 132 18200019784955588022
9777508 108 18339356341209933202

> <PUBCHEM_SHAPE_MULTIPOLES>
641.59
11.35
9.22
1.21
12.24
7.13
-0.02
-0.52
3.55
-7.34
-2.66
-0.19
-0.16
1.59

> <PUBCHEM_SHAPE_SELFOVERLAP>
1404.519

> <PUBCHEM_SHAPE_VOLUME>
350.1

> <PUBCHEM_COORDINATE_TYPE>
2
5
10

$$$$
