26744872
  -OEChem-12032416353D

 45 49  0     1  0  0  0  0  0999 V2000
   -1.1349    1.0698   -2.1995 O   0  0  0  0  0  0  0  0  0  0  0  0
    1.6539   -0.1693   -0.4458 N   0  0  2  0  0  0  0  0  0  0  0  0
    1.2052   -3.3494    1.4391 N   0  0  0  0  0  0  0  0  0  0  0  0
    0.5679   -4.1796   -0.5370 N   0  0  0  0  0  0  0  0  0  0  0  0
   -1.6139   -0.1088   -0.3561 N   0  0  0  0  0  0  0  0  0  0  0  0
   -2.4148    1.4749   -1.8000 N   0  0  0  0  0  0  0  0  0  0  0  0
   -6.2013    0.9723    1.5418 N   0  0  0  0  0  0  0  0  0  0  0  0
    0.6505   -0.4725   -1.5114 C   0  0  1  0  0  0  0  0  0  0  0  0
    0.6074   -2.0060   -1.8487 C   0  0  0  0  0  0  0  0  0  0  0  0
    1.4463   -0.8720    0.8381 C   0  0  0  0  0  0  0  0  0  0  0  0
    1.1658   -2.2996    0.5732 C   0  0  0  0  0  0  0  0  0  0  0  0
    0.7683   -2.8315   -0.6284 C   0  0  0  0  0  0  0  0  0  0  0  0
    1.8948    1.2549   -0.2426 C   0  0  0  0  0  0  0  0  0  0  0  0
   -0.7365    0.1363   -1.2962 C   0  0  0  0  0  0  0  0  0  0  0  0
    3.3186    1.5306    0.1620 C   0  0  0  0  0  0  0  0  0  0  0  0
    0.8374   -4.4616    0.7227 C   0  0  0  0  0  0  0  0  0  0  0  0
    3.6695    1.5445    1.5119 C   0  0  0  0  0  0  0  0  0  0  0  0
    4.2866    1.7721   -0.8127 C   0  0  0  0  0  0  0  0  0  0  0  0
   -2.6268    0.7357   -0.7070 C   0  0  0  0  0  0  0  0  0  0  0  0
    4.9886    1.7998    1.8871 C   0  0  0  0  0  0  0  0  0  0  0  0
    5.6055    2.0273   -0.4377 C   0  0  0  0  0  0  0  0  0  0  0  0
   -3.8389    0.8160    0.0556 C   0  0  0  0  0  0  0  0  0  0  0  0
    5.9565    2.0413    0.9123 C   0  0  0  0  0  0  0  0  0  0  0  0
   -4.0072    0.0220    1.1847 C   0  0  0  0  0  0  0  0  0  0  0  0
   -4.8505    1.6881   -0.3311 C   0  0  0  0  0  0  0  0  0  0  0  0
   -5.1961    0.1366    1.8868 C   0  0  0  0  0  0  0  0  0  0  0  0
   -6.0018    1.7283    0.4389 C   0  0  0  0  0  0  0  0  0  0  0  0
    1.0291   -0.0050   -2.4330 H   0  0  0  0  0  0  0  0  0  0  0  0
    1.4402   -2.2430   -2.5231 H   0  0  0  0  0  0  0  0  0  0  0  0
   -0.3237   -2.2661   -2.3647 H   0  0  0  0  0  0  0  0  0  0  0  0
    0.6123   -0.4346    1.3998 H   0  0  0  0  0  0  0  0  0  0  0  0
    2.3445   -0.8171    1.4604 H   0  0  0  0  0  0  0  0  0  0  0  0
    1.1955    1.6899    0.4843 H   0  0  0  0  0  0  0  0  0  0  0  0
    1.7139    1.8127   -1.1721 H   0  0  0  0  0  0  0  0  0  0  0  0
    1.4519   -3.3209    2.4198 H   0  0  0  0  0  0  0  0  0  0  0  0
    0.7869   -5.4403    1.1785 H   0  0  0  0  0  0  0  0  0  0  0  0
    2.9247    1.3712    2.2840 H   0  0  0  0  0  0  0  0  0  0  0  0
    4.0272    1.7618   -1.8681 H   0  0  0  0  0  0  0  0  0  0  0  0
    5.2613    1.8135    2.9383 H   0  0  0  0  0  0  0  0  0  0  0  0
    6.3594    2.2148   -1.1967 H   0  0  0  0  0  0  0  0  0  0  0  0
    6.9834    2.2407    1.2043 H   0  0  0  0  0  0  0  0  0  0  0  0
   -3.2497   -0.6743    1.5294 H   0  0  0  0  0  0  0  0  0  0  0  0
   -4.7758    2.3313   -1.2017 H   0  0  0  0  0  0  0  0  0  0  0  0
   -5.3769   -0.4606    2.7745 H   0  0  0  0  0  0  0  0  0  0  0  0
   -6.8206    2.3915    0.1800 H   0  0  0  0  0  0  0  0  0  0  0  0
  1  6  1  0  0  0  0
  1 14  1  0  0  0  0
  2  8  1  0  0  0  0
  2 10  1  0  0  0  0
  2 13  1  0  0  0  0
  3 11  1  0  0  0  0
  3 16  1  0  0  0  0
  3 35  1  0  0  0  0
  4 12  1  0  0  0  0
  4 16  2  0  0  0  0
  5 14  2  0  0  0  0
  5 19  1  0  0  0  0
  6 19  2  0  0  0  0
  7 26  2  0  0  0  0
  7 27  1  0  0  0  0
  8  9  1  0  0  0  0
  8 14  1  0  0  0  0
  8 28  1  0  0  0  0
  9 12  1  0  0  0  0
  9 29  1  0  0  0  0
  9 30  1  0  0  0  0
 10 11  1  0  0  0  0
 10 31  1  0  0  0  0
 10 32  1  0  0  0  0
 11 12  2  0  0  0  0
 13 15  1  0  0  0  0
 13 33  1  0  0  0  0
 13 34  1  0  0  0  0
 15 17  2  0  0  0  0
 15 18  1  0  0  0  0
 16 36  1  0  0  0  0
 17 20  1  0  0  0  0
 17 37  1  0  0  0  0
 18 21  2  0  0  0  0
 18 38  1  0  0  0  0
 19 22  1  0  0  0  0
 20 23  2  0  0  0  0
 20 39  1  0  0  0  0
 21 23  1  0  0  0  0
 21 40  1  0  0  0  0
 22 24  2  0  0  0  0
 22 25  1  0  0  0  0
 23 41  1  0  0  0  0
 24 26  1  0  0  0  0
 24 42  1  0  0  0  0
 25 27  2  0  0  0  0
 25 43  1  0  0  0  0
 26 44  1  0  0  0  0
 27 45  1  0  0  0  0
M  END
> <PUBCHEM_COMPOUND_CID>
26744872

> <PUBCHEM_CONFORMER_RMSD>
0.8

> <PUBCHEM_CONFORMER_DIVERSEORDER>
3
29
35
40
42
34
44
32
18
37
41
43
38
13
23
21
11
31
30
39
22
16
17
15
6
27
10
1
33
36
20
28
5
7
25
12
8
26
9
14
4
19
2
24

> <PUBCHEM_MMFF94_PARTIAL_CHARGES>
38
1 -0.02
10 0.45
11 -0.33
12 0.05
13 0.41
14 0.3
15 -0.14
16 0.04
17 -0.15
18 -0.15
19 0.46
2 -0.81
20 -0.15
21 -0.15
22 0.05
23 -0.15
24 -0.15
25 -0.15
26 0.16
27 0.16
3 0.03
35 0.27
36 0.15
37 0.15
38 0.15
39 0.15
4 -0.57
40 0.15
41 0.15
42 0.15
43 0.15
44 0.15
45 0.15
5 -0.57
6 -0.41
7 -0.62
8 0.45
9 0.18

> <PUBCHEM_EFFECTIVE_ROTOR_COUNT>
4.8

> <PUBCHEM_PHARMACOPHORE_FEATURES>
10
1 2 cation
1 3 donor
1 7 acceptor
3 3 4 16 cation
3 5 6 19 cation
5 1 5 6 14 19 rings
5 3 4 11 12 16 rings
6 15 17 18 20 21 23 rings
6 2 8 9 10 11 12 rings
6 7 22 24 25 26 27 rings

> <PUBCHEM_HEAVY_ATOM_COUNT>
27

> <PUBCHEM_ATOM_DEF_STEREO_COUNT>
1

> <PUBCHEM_ATOM_UDEF_STEREO_COUNT>
0

> <PUBCHEM_BOND_DEF_STEREO_COUNT>
0

> <PUBCHEM_BOND_UDEF_STEREO_COUNT>
0

> <PUBCHEM_ISOTOPIC_ATOM_COUNT>
0

> <PUBCHEM_COMPONENT_COUNT>
1

> <PUBCHEM_CACTVS_TAUTO_COUNT>
2

> <PUBCHEM_CONFORMER_ID>
0198182800000003

> <PUBCHEM_MMFF94_ENERGY>
61.7355

> <PUBCHEM_FEATURE_SELFOVERLAP>
50.848

> <PUBCHEM_SHAPE_FINGERPRINT>
10074138 170 17973717266755443362
10764073 3 17313652751421636218
10794284 68 16810988140167128814
11070050 100 18412827979825339626
11115154 58 8718559294125156343
11497681 19 12324507707500428016
11823591 26 18272078418417467516
1200032 147 16414102728015568259
12373685 5 18263346063701416719
12422481 6 17967531272371364226
12623949 98 14707474842783597200
12788726 201 17686903134821480654
12977781 61 16300048131908818791
13533116 47 18191879916566657145
13540713 4 17679295274714162677
13631057 29 17986382498979377663
13955234 65 18267871575213266475
14178342 30 18116446997624909691
14565420 104 18413671309660331425
14955137 171 18123467173109933734
15064986 96 17898545637139505850
15142526 21 18129938004796470913
15183329 4 14908191849611239536
15338160 23 17833835250218422488
15420108 30 18410006667401672875
15775530 1 17608630735532343876
16992727 255 12246588633278963123
16993089 31 14274831337202356832
17913733 40 18411134723228493817
17980427 23 17313671571788647655
18222031 100 8214147369578188992
1979834 28 18186811253165863717
21033648 29 18270113642979251648
21120745 212 17253159030326030716
21424621 283 18059855099599035344
21756936 100 18200021984300134896
21796203 349 17907594527294714051
22224240 67 18410857706844729833
23536364 44 10663557962700376923
23559900 14 17533513235690034719
23845131 108 18410287043072315107
249999 5 18338800000858278866
255183 313 18189604103132150128
3178227 256 18264205821232649394
3411729 13 18340489967504621469
3729539 64 18266473005914750726
38570 142 17489596666132476933
4058900 60 18340218409375665872
4339292 15 11026055973544473768
437795 51 18338530642474882070
508180 173 10807946933883669647
58260988 521 17967819332097214458
59755656 520 18341890835855638740
621550 34 18260549966149218885
6442390 28 18336273430480053630
6669772 16 18413393125230255302
6679774 75 17967808320197584234
6691757 9 18121468471776735376
9658208 31 18339938116147775926
9841814 1 17980484464487563055

> <PUBCHEM_SHAPE_MULTIPOLES>
519.89
12.8
4.2
1.88
6.29
7.02
-0.08
-15.73
6.49
-3.08
0.7
0.36
-0.13
0.51

> <PUBCHEM_SHAPE_SELFOVERLAP>
1153.531

> <PUBCHEM_SHAPE_VOLUME>
276.5

> <PUBCHEM_COORDINATE_TYPE>
2
5
10

$$$$
