38029363
  -OEChem-12032416253D

 65 67  0     1  0  0  0  0  0999 V2000
   -1.3559    2.5838    2.3718 O   0  0  0  0  0  0  0  0  0  0  0  0
    1.7905   -1.8449   -2.4483 O   0  0  0  0  0  0  0  0  0  0  0  0
    3.0594   -0.2214   -1.3807 N   0  0  0  0  0  0  0  0  0  0  0  0
   -0.9641    0.3030    2.5848 N   0  0  0  0  0  0  0  0  0  0  0  0
    3.5317   -1.9746    0.6066 N   0  0  0  0  0  0  0  0  0  0  0  0
   -6.1737   -1.6070   -2.5220 N   0  0  0  0  0  0  0  0  0  0  0  0
    0.7522    1.7036   -1.2580 C   0  0  1  0  0  0  0  0  0  0  0  0
    2.1956    2.0352   -1.7127 C   0  0  1  0  0  0  0  0  0  0  0  0
    0.2462    2.7617   -0.2658 C   0  0  0  0  0  0  0  0  0  0  0  0
    1.1406    2.8631    0.9842 C   0  0  2  0  0  0  0  0  0  0  0  0
   -0.2098    1.6045   -2.4460 C   0  0  0  0  0  0  0  0  0  0  0  0
    2.6105    2.9238    0.6214 C   0  0  0  0  0  0  0  0  0  0  0  0
    3.0617    2.5626   -0.5929 C   0  0  0  0  0  0  0  0  0  0  0  0
    2.8698    0.8137   -2.3479 C   0  0  0  0  0  0  0  0  0  0  0  0
    0.8626    1.7119    1.9572 C   0  0  0  0  0  0  0  0  0  0  0  0
   -1.4065    0.7281   -2.0901 C   0  0  0  0  0  0  0  0  0  0  0  0
   -0.6664    2.9942   -2.8782 C   0  0  0  0  0  0  0  0  0  0  0  0
    3.5460    3.4532    1.6726 C   0  0  0  0  0  0  0  0  0  0  0  0
   -0.6020    1.6158    2.3207 C   0  0  0  0  0  0  0  0  0  0  0  0
    2.4962   -1.4908   -1.5077 C   0  0  0  0  0  0  0  0  0  0  0  0
   -2.3041   -0.0857    2.9599 C   0  0  0  0  0  0  0  0  0  0  0  0
    2.7667   -2.4466   -0.4031 C   0  0  0  0  0  0  0  0  0  0  0  0
   -3.1486   -0.4177    1.7637 C   0  0  0  0  0  0  0  0  0  0  0  0
    2.2460   -3.7299   -0.4471 C   0  0  0  0  0  0  0  0  0  0  0  0
   -4.3194    0.2991    1.5160 C   0  0  0  0  0  0  0  0  0  0  0  0
   -2.7623   -1.4428    0.9004 C   0  0  0  0  0  0  0  0  0  0  0  0
    2.5286   -4.5835    0.6133 C   0  0  0  0  0  0  0  0  0  0  0  0
    3.7853   -2.8329    1.6198 C   0  0  0  0  0  0  0  0  0  0  0  0
   -5.1038   -0.0094    0.4047 C   0  0  0  0  0  0  0  0  0  0  0  0
   -3.5468   -1.7512   -0.2109 C   0  0  0  0  0  0  0  0  0  0  0  0
    3.3122   -4.1342    1.6705 C   0  0  0  0  0  0  0  0  0  0  0  0
   -4.7175   -1.0345   -0.4590 C   0  0  0  0  0  0  0  0  0  0  0  0
   -5.5211   -1.3504   -1.5973 C   0  0  0  0  0  0  0  0  0  0  0  0
    0.7572    0.7374   -0.7385 H   0  0  0  0  0  0  0  0  0  0  0  0
    2.1678    2.8244   -2.4746 H   0  0  0  0  0  0  0  0  0  0  0  0
   -0.8005    2.5891   -0.0054 H   0  0  0  0  0  0  0  0  0  0  0  0
    0.2802    3.7585   -0.7259 H   0  0  0  0  0  0  0  0  0  0  0  0
    0.8733    3.8061    1.4820 H   0  0  0  0  0  0  0  0  0  0  0  0
    0.2850    1.1299   -3.2996 H   0  0  0  0  0  0  0  0  0  0  0  0
    4.1218    2.6716   -0.8133 H   0  0  0  0  0  0  0  0  0  0  0  0
    3.8671    1.0831   -2.7166 H   0  0  0  0  0  0  0  0  0  0  0  0
    2.3105    0.4404   -3.2099 H   0  0  0  0  0  0  0  0  0  0  0  0
    1.4097    1.8607    2.8961 H   0  0  0  0  0  0  0  0  0  0  0  0
    1.2123    0.7623    1.5340 H   0  0  0  0  0  0  0  0  0  0  0  0
   -1.9920    1.1403   -1.2627 H   0  0  0  0  0  0  0  0  0  0  0  0
   -1.0814   -0.2793   -1.8094 H   0  0  0  0  0  0  0  0  0  0  0  0
   -2.0780    0.6285   -2.9500 H   0  0  0  0  0  0  0  0  0  0  0  0
   -1.3753    3.4515   -2.1800 H   0  0  0  0  0  0  0  0  0  0  0  0
   -1.1992    2.9162   -3.8340 H   0  0  0  0  0  0  0  0  0  0  0  0
    0.1689    3.6804   -3.0462 H   0  0  0  0  0  0  0  0  0  0  0  0
    3.2279    4.4491    1.9975 H   0  0  0  0  0  0  0  0  0  0  0  0
    4.5737    3.5398    1.3041 H   0  0  0  0  0  0  0  0  0  0  0  0
    3.5638    2.7910    2.5434 H   0  0  0  0  0  0  0  0  0  0  0  0
    3.6632   -0.0365   -0.5845 H   0  0  0  0  0  0  0  0  0  0  0  0
   -0.2675   -0.4329    2.5133 H   0  0  0  0  0  0  0  0  0  0  0  0
   -2.7529    0.7217    3.5499 H   0  0  0  0  0  0  0  0  0  0  0  0
   -2.2270   -0.9642    3.6103 H   0  0  0  0  0  0  0  0  0  0  0  0
    1.6344   -4.0812   -1.2711 H   0  0  0  0  0  0  0  0  0  0  0  0
   -4.6322    1.1009    2.1793 H   0  0  0  0  0  0  0  0  0  0  0  0
   -1.8541   -2.0113    1.0827 H   0  0  0  0  0  0  0  0  0  0  0  0
    2.1390   -5.5970    0.6164 H   0  0  0  0  0  0  0  0  0  0  0  0
    4.4006   -2.4339    2.4194 H   0  0  0  0  0  0  0  0  0  0  0  0
   -6.0134    0.5586    0.2245 H   0  0  0  0  0  0  0  0  0  0  0  0
   -3.2322   -2.5527   -0.8751 H   0  0  0  0  0  0  0  0  0  0  0  0
    3.5451   -4.7822    2.5077 H   0  0  0  0  0  0  0  0  0  0  0  0
  1 19  2  0  0  0  0
  2 20  2  0  0  0  0
  3 14  1  0  0  0  0
  3 20  1  0  0  0  0
  3 54  1  0  0  0  0
  4 19  1  0  0  0  0
  4 21  1  0  0  0  0
  4 55  1  0  0  0  0
  5 22  1  0  0  0  0
  5 28  2  0  0  0  0
  6 33  3  0  0  0  0
  7  8  1  0  0  0  0
  7  9  1  0  0  0  0
  7 11  1  0  0  0  0
  7 34  1  0  0  0  0
  8 13  1  0  0  0  0
  8 14  1  0  0  0  0
  8 35  1  0  0  0  0
  9 10  1  0  0  0  0
  9 36  1  0  0  0  0
  9 37  1  0  0  0  0
 10 12  1  0  0  0  0
 10 15  1  0  0  0  0
 10 38  1  0  0  0  0
 11 16  1  0  0  0  0
 11 17  1  0  0  0  0
 11 39  1  0  0  0  0
 12 13  2  0  0  0  0
 12 18  1  0  0  0  0
 13 40  1  0  0  0  0
 14 41  1  0  0  0  0
 14 42  1  0  0  0  0
 15 19  1  0  0  0  0
 15 43  1  0  0  0  0
 15 44  1  0  0  0  0
 16 45  1  0  0  0  0
 16 46  1  0  0  0  0
 16 47  1  0  0  0  0
 17 48  1  0  0  0  0
 17 49  1  0  0  0  0
 17 50  1  0  0  0  0
 18 51  1  0  0  0  0
 18 52  1  0  0  0  0
 18 53  1  0  0  0  0
 20 22  1  0  0  0  0
 21 23  1  0  0  0  0
 21 56  1  0  0  0  0
 21 57  1  0  0  0  0
 22 24  2  0  0  0  0
 23 25  2  0  0  0  0
 23 26  1  0  0  0  0
 24 27  1  0  0  0  0
 24 58  1  0  0  0  0
 25 29  1  0  0  0  0
 25 59  1  0  0  0  0
 26 30  2  0  0  0  0
 26 60  1  0  0  0  0
 27 31  2  0  0  0  0
 27 61  1  0  0  0  0
 28 31  1  0  0  0  0
 28 62  1  0  0  0  0
 29 32  2  0  0  0  0
 29 63  1  0  0  0  0
 30 32  1  0  0  0  0
 30 64  1  0  0  0  0
 31 65  1  0  0  0  0
 32 33  1  0  0  0  0
M  END
> <PUBCHEM_COMPOUND_CID>
38029363

> <PUBCHEM_CONFORMER_RMSD>
1

> <PUBCHEM_CONFORMER_DIVERSEORDER>
1
160
127
21
106
184
141
78
128
113
44
72
84
40
91
61
118
24
96
132
34
59
77
153
121
60
174
22
191
124
120
94
43
82
49
56
3
83
148
138
99
193
81
68
31
47
156
161
176
48
166
107
194
177
2
14
143
117
178
163
150
155
136
95
122
165
63
19
70
104
85
80
57
182
105
103
101
123
147
12
29
23
195
145
146
135
64
187
20
65
17
189
112
162
119
125
36
86
134
181
50
27
151
69
114
41
66
159
58
90
108
157
42
133
129
130
88
180
175
9
97
115
126
6
98
188
190
158
33
140
170
116
173
46
139
38
131
32
62
74
102
169
54
152
79
100
167
144
111
55
154
171
75
8
109
196
35
168
51
5
25
4
28
87
142
11
93
179
13
89
149
18
26
183
30
73
186
16
185
76
53
92
110
7
71
137
164
67
15
10
192
52
39
45
172
37

> <PUBCHEM_MMFF94_PARTIAL_CHARGES>
39
1 -0.57
10 0.14
12 -0.28
13 -0.29
14 0.3
15 0.06
18 0.14
19 0.57
2 -0.57
20 0.54
21 0.44
22 0.4
23 -0.14
24 -0.15
25 -0.15
26 -0.15
27 -0.15
28 0.16
29 -0.15
3 -0.73
30 -0.15
31 -0.15
32 0.07
33 0.48
4 -0.73
40 0.15
5 -0.62
54 0.37
55 0.37
58 0.15
59 0.15
6 -0.56
60 0.15
61 0.15
62 0.15
63 0.15
64 0.15
65 0.15
8 0.14

> <PUBCHEM_EFFECTIVE_ROTOR_COUNT>
10.8

> <PUBCHEM_PHARMACOPHORE_FEATURES>
10
1 1 acceptor
1 2 acceptor
1 3 donor
1 4 donor
1 5 acceptor
1 6 acceptor
3 11 16 17 hydrophobe
6 23 25 26 29 30 32 rings
6 5 22 24 27 28 31 rings
6 7 8 9 10 12 13 rings

> <PUBCHEM_HEAVY_ATOM_COUNT>
33

> <PUBCHEM_ATOM_DEF_STEREO_COUNT>
3

> <PUBCHEM_ATOM_UDEF_STEREO_COUNT>
0

> <PUBCHEM_BOND_DEF_STEREO_COUNT>
0

> <PUBCHEM_BOND_UDEF_STEREO_COUNT>
0

> <PUBCHEM_ISOTOPIC_ATOM_COUNT>
0

> <PUBCHEM_COMPONENT_COUNT>
1

> <PUBCHEM_CACTVS_TAUTO_COUNT>
4

> <PUBCHEM_CONFORMER_ID>
0244483300000001

> <PUBCHEM_MMFF94_ENERGY>
67.4875

> <PUBCHEM_FEATURE_SELFOVERLAP>
50.747

> <PUBCHEM_SHAPE_FINGERPRINT>
10032420 55 17984174610563608196
11285246 1 17025722446995940919
11552529 35 17472990497954328026
12156800 1 17173456136470719603
13383668 262 17694754704828516103
14114207 22 18193530450659826570
14251757 17 15864654802684020243
14674994 50 17468478110316869966
15119646 57 9724768632204546562
19315092 285 18201141252840926015
20775530 9 18117851988421727706
3027735 51 17100314381314180659
35225 105 16552843309691084492
469060 322 15837282361857704258
474144 1 18059565940725267775
5081480 168 17822290137755643267
513532 50 17823114861591887639
550186 7 13197714818882328102
57527306 92 11593737159052125020

> <PUBCHEM_SHAPE_MULTIPOLES>
647.46
9.52
5.6
3.41
14.16
3.64
-0.02
6.46
-1.78
-8.53
0.83
1.25
-1.5
-1.03

> <PUBCHEM_SHAPE_SELFOVERLAP>
1360.758

> <PUBCHEM_SHAPE_VOLUME>
359.5

> <PUBCHEM_COORDINATE_TYPE>
2
5
10

$$$$
