11882434
  -OEChem-12032416413D

 51 51  0     1  0  0  0  0  0999 V2000
    3.8589    2.6386    0.5887 S   0  0  0  0  0  0  0  0  0  0  0  0
   -1.9489   -1.8318   -1.8185 O   0  0  0  0  0  0  0  0  0  0  0  0
   -4.5464   -0.3237    1.5705 O   0  0  0  0  0  0  0  0  0  0  0  0
   -2.9746   -2.5853    2.2929 O   0  0  0  0  0  0  0  0  0  0  0  0
    0.5396   -2.0562   -2.2704 O   0  0  0  0  0  0  0  0  0  0  0  0
   -3.7748    2.4372   -1.8678 O   0  0  0  0  0  0  0  0  0  0  0  0
    2.5306   -3.0555    1.0369 O   0  0  0  0  0  0  0  0  0  0  0  0
    3.4706    2.6209    1.9887 O   0  0  0  0  0  0  0  0  0  0  0  0
    5.2576    2.5390    0.2078 O   0  0  0  0  0  0  0  0  0  0  0  0
   -3.0636    1.8095    0.2576 N   0  0  0  0  0  0  0  0  0  0  0  0
    1.1770   -1.0463   -0.2723 N   0  0  0  0  0  0  0  0  0  0  0  0
    4.0620   -3.0569   -0.6748 N   0  0  0  0  0  0  0  0  0  0  0  0
   -1.1540   -1.3194   -0.7555 C   0  0  1  0  0  0  0  0  0  0  0  0
   -2.8684    0.4010   -0.0083 C   0  0  1  0  0  0  0  0  0  0  0  0
   -1.4484    0.1655   -0.5343 C   0  0  0  0  0  0  0  0  0  0  0  0
   -1.4258   -2.1328    0.5083 C   0  0  0  0  0  0  0  0  0  0  0  0
   -3.1570   -0.4309    1.2483 C   0  0  2  0  0  0  0  0  0  0  0  0
   -2.8435   -1.9145    1.0393 C   0  0  2  0  0  0  0  0  0  0  0  0
    0.2653   -1.5162   -1.2019 C   0  0  0  0  0  0  0  0  0  0  0  0
    2.6080   -1.1374   -0.4524 C   0  0  1  0  0  0  0  0  0  0  0  0
    3.3507   -0.0130    0.2730 C   0  0  0  0  0  0  0  0  0  0  0  0
   -3.5015    2.7055   -0.7009 C   0  0  0  0  0  0  0  0  0  0  0  0
    2.9667    1.3658   -0.2482 C   0  0  0  0  0  0  0  0  0  0  0  0
    3.0495   -2.4955    0.0742 C   0  0  0  0  0  0  0  0  0  0  0  0
   -3.6427    4.1002   -0.1526 C   0  0  0  0  0  0  0  0  0  0  0  0
    3.2130    4.1322   -0.1283 C   0  0  0  0  0  0  0  0  0  0  0  0
   -3.5854    0.1212   -0.7916 H   0  0  0  0  0  0  0  0  0  0  0  0
   -1.3248    0.7093   -1.4809 H   0  0  0  0  0  0  0  0  0  0  0  0
   -0.7386    0.6191    0.1688 H   0  0  0  0  0  0  0  0  0  0  0  0
   -0.7176   -1.8941    1.3118 H   0  0  0  0  0  0  0  0  0  0  0  0
   -1.2862   -3.2052    0.3147 H   0  0  0  0  0  0  0  0  0  0  0  0
   -2.6032   -0.0445    2.1127 H   0  0  0  0  0  0  0  0  0  0  0  0
   -3.5786   -2.3635    0.3603 H   0  0  0  0  0  0  0  0  0  0  0  0
   -2.8159    2.1594    1.1790 H   0  0  0  0  0  0  0  0  0  0  0  0
   -1.8134   -2.7936   -1.8684 H   0  0  0  0  0  0  0  0  0  0  0  0
    0.8517   -0.6810    0.6167 H   0  0  0  0  0  0  0  0  0  0  0  0
   -5.0583   -0.6451    0.8088 H   0  0  0  0  0  0  0  0  0  0  0  0
   -2.7851   -3.5271    2.1422 H   0  0  0  0  0  0  0  0  0  0  0  0
    2.8176   -1.0836   -1.5280 H   0  0  0  0  0  0  0  0  0  0  0  0
    4.4325   -0.1617    0.1635 H   0  0  0  0  0  0  0  0  0  0  0  0
    3.1478   -0.0692    1.3507 H   0  0  0  0  0  0  0  0  0  0  0  0
    1.9022    1.5650   -0.0903 H   0  0  0  0  0  0  0  0  0  0  0  0
    3.1905    1.4541   -1.3159 H   0  0  0  0  0  0  0  0  0  0  0  0
   -2.7051    4.4172    0.3130 H   0  0  0  0  0  0  0  0  0  0  0  0
   -3.8844    4.7929   -0.9634 H   0  0  0  0  0  0  0  0  0  0  0  0
   -4.4454    4.1235    0.5897 H   0  0  0  0  0  0  0  0  0  0  0  0
    2.1405    4.1822    0.0683 H   0  0  0  0  0  0  0  0  0  0  0  0
    3.4108    4.1215   -1.2016 H   0  0  0  0  0  0  0  0  0  0  0  0
    3.7193    4.9800    0.3377 H   0  0  0  0  0  0  0  0  0  0  0  0
    4.4384   -3.9693   -0.4396 H   0  0  0  0  0  0  0  0  0  0  0  0
    4.4789   -2.5849   -1.4707 H   0  0  0  0  0  0  0  0  0  0  0  0
  1  8  2  0  0  0  0
  1  9  2  0  0  0  0
  1 23  1  0  0  0  0
  1 26  1  0  0  0  0
  2 13  1  0  0  0  0
  2 35  1  0  0  0  0
  3 17  1  0  0  0  0
  3 37  1  0  0  0  0
  4 18  1  0  0  0  0
  4 38  1  0  0  0  0
  5 19  2  0  0  0  0
  6 22  2  0  0  0  0
  7 24  2  0  0  0  0
 10 14  1  0  0  0  0
 10 22  1  0  0  0  0
 10 34  1  0  0  0  0
 11 19  1  0  0  0  0
 11 20  1  0  0  0  0
 11 36  1  0  0  0  0
 12 24  1  0  0  0  0
 12 50  1  0  0  0  0
 12 51  1  0  0  0  0
 13 15  1  0  0  0  0
 13 16  1  0  0  0  0
 13 19  1  0  0  0  0
 14 15  1  0  0  0  0
 14 17  1  0  0  0  0
 14 27  1  0  0  0  0
 15 28  1  0  0  0  0
 15 29  1  0  0  0  0
 16 18  1  0  0  0  0
 16 30  1  0  0  0  0
 16 31  1  0  0  0  0
 17 18  1  0  0  0  0
 17 32  1  0  0  0  0
 18 33  1  0  0  0  0
 20 21  1  0  0  0  0
 20 24  1  0  0  0  0
 20 39  1  0  0  0  0
 21 23  1  0  0  0  0
 21 40  1  0  0  0  0
 21 41  1  0  0  0  0
 22 25  1  0  0  0  0
 23 42  1  0  0  0  0
 23 43  1  0  0  0  0
 25 44  1  0  0  0  0
 25 45  1  0  0  0  0
 25 46  1  0  0  0  0
 26 47  1  0  0  0  0
 26 48  1  0  0  0  0
 26 49  1  0  0  0  0
M  END
> <PUBCHEM_COMPOUND_CID>
11882434

> <PUBCHEM_CONFORMER_RMSD>
1

> <PUBCHEM_CONFORMER_DIVERSEORDER>
1
73
88
69
201
160
71
22
158
51
52
53
104
89
55
63
152
54
46
130
37
146
210
124
133
96
176
19
103
57
93
28
4
138
15
171
77
168
131
25
214
66
142
122
48
178
135
132
177
42
139
212
119
151
185
108
82
100
121
196
157
167
31
65
34
140
193
203
204
91
187
62
200
184
92
21
136
198
137
206
23
179
87
18
192
67
182
102
78
85
211
26
61
148
50
128
99
12
111
40
205
118
166
58
191
107
190
29
56
120
125
16
143
170
155
145
84
49
129
150
106
72
186
149
163
126
38
98
175
5
154
81
173
10
208
80
74
70
116
47
159
60
76
156
90
172
115
199
30
181
14
94
9
112
165
33
43
189
195
174
7
161
79
35
123
20
202
114
113
8
117
180
11
188
110
147
153
6
217
83
95
105
36
2
209
44
169
27
127
215
216
75
3
97
183
45
109
207
59
13
24
218
86
39
164
194
32
213
141
144
64
17
197
101
134
162
41
68

> <PUBCHEM_MMFF94_PARTIAL_CHARGES>
30
1 1.09
10 -0.73
11 -0.73
12 -0.8
13 0.34
14 0.3
17 0.28
18 0.28
19 0.57
2 -0.68
20 0.36
22 0.57
23 0.11
24 0.57
25 0.06
26 0.11
3 -0.68
34 0.37
35 0.4
36 0.37
37 0.4
38 0.4
4 -0.68
5 -0.57
50 0.37
51 0.37
6 -0.57
7 -0.57
8 -0.65
9 -0.65

> <PUBCHEM_EFFECTIVE_ROTOR_COUNT>
10.2

> <PUBCHEM_PHARMACOPHORE_FEATURES>
15
1 10 donor
1 11 donor
1 12 donor
1 2 acceptor
1 2 donor
1 3 acceptor
1 3 donor
1 4 acceptor
1 4 donor
1 5 acceptor
1 6 acceptor
1 7 acceptor
1 8 acceptor
1 9 acceptor
6 13 14 15 16 17 18 rings

> <PUBCHEM_HEAVY_ATOM_COUNT>
26

> <PUBCHEM_ATOM_DEF_STEREO_COUNT>
5

> <PUBCHEM_ATOM_UDEF_STEREO_COUNT>
0

> <PUBCHEM_BOND_DEF_STEREO_COUNT>
0

> <PUBCHEM_BOND_UDEF_STEREO_COUNT>
0

> <PUBCHEM_ISOTOPIC_ATOM_COUNT>
0

> <PUBCHEM_COMPONENT_COUNT>
1

> <PUBCHEM_CACTVS_TAUTO_COUNT>
8

> <PUBCHEM_CONFORMER_ID>
00B54FC200000001

> <PUBCHEM_MMFF94_ENERGY>
49.7124

> <PUBCHEM_FEATURE_SELFOVERLAP>
76.173

> <PUBCHEM_SHAPE_FINGERPRINT>
10670039 82 18049732012196389092
10871710 139 17837768194240709348
11221954 11 18412824651294568333
12633257 1 17827072905287377827
13583140 156 18335707079018256115
14178342 30 17967817197155843038
14251764 38 18339636720854536637
14466204 15 17689143518258489784
14468879 13 18411127061313065673
14950920 106 17532916411129349912
15238133 3 18045787776129392486
15295992 7 18191304875531204823
15806764 133 18127717966244743038
15848702 68 18266731382050245676
17974551 9 17605846819393334331
20600515 1 17685794427351947028
20681677 76 18409728430856001511
21033648 29 17242725394996692485
21049683 118 17678160626064673529
21475661 188 18122337982877905669
21756936 100 17765158659115624624
21860390 5 17842272571515760156
21864079 5 18340198704587658572
23559900 14 18041295312851151559
3187 122 18043531835824724513
345986 75 16670481123904692346
469060 322 17691966385387601243
5081480 168 17200825244803614092
5252454 2 17988083425475197096
9981440 41 18123160614980057842

> <PUBCHEM_SHAPE_MULTIPOLES>
477.02
9.61
5.43
1.64
3.12
3.99
0.03
6.54
2.25
2.09
0.02
-1.13
-0.7
2.62

> <PUBCHEM_SHAPE_SELFOVERLAP>
950.205

> <PUBCHEM_SHAPE_VOLUME>
283.3

> <PUBCHEM_COORDINATE_TYPE>
2
5
10

$$$$
