45783986
  -OEChem-12032416203D

 73 75  0     1  0  0  0  0  0999 V2000
   -1.6712    2.0855   -0.4396 O   0  0  0  0  0  0  0  0  0  0  0  0
   -0.6284   -3.3011    0.0960 O   0  0  0  0  0  0  0  0  0  0  0  0
    5.6719   -3.8271    0.6359 O   0  0  0  0  0  0  0  0  0  0  0  0
   -7.5387   -2.0560    0.3937 O   0  5  0  0  0  0  0  0  0  0  0  0
   -7.3436   -1.5290   -1.7283 O   0  0  0  0  0  0  0  0  0  0  0  0
    2.6558   -1.7030    0.6148 N   0  0  0  0  0  0  0  0  0  0  0  0
   -0.5656    2.4815    1.4644 N   0  0  0  0  0  0  0  0  0  0  0  0
   -1.6557    1.6848    1.7612 N   0  0  0  0  0  0  0  0  0  0  0  0
   -6.9380   -1.4750   -0.5422 N   0  3  0  0  0  0  0  0  0  0  0  0
    3.0708    0.7647   -0.9028 C   0  0  1  0  0  0  0  0  0  0  0  0
    3.2683    0.6749    0.6283 C   0  0  2  0  0  0  0  0  0  0  0  0
    1.7852    1.5352   -1.2350 C   0  0  0  0  0  0  0  0  0  0  0  0
    1.7486    2.9543   -0.6285 C   0  0  2  0  0  0  0  0  0  0  0  0
    4.2896    1.3974   -1.5880 C   0  0  0  0  0  0  0  0  0  0  0  0
    2.3252    3.0157    0.7780 C   0  0  0  0  0  0  0  0  0  0  0  0
    2.3961   -0.4218    1.2482 C   0  0  0  0  0  0  0  0  0  0  0  0
    2.9907    1.9823    1.3257 C   0  0  0  0  0  0  0  0  0  0  0  0
    0.3112    3.4835   -0.7073 C   0  0  0  0  0  0  0  0  0  0  0  0
    3.9236    1.8751   -2.9895 C   0  0  0  0  0  0  0  0  0  0  0  0
    5.4461    0.4040   -1.6399 C   0  0  0  0  0  0  0  0  0  0  0  0
    2.1794    4.3087    1.5326 C   0  0  0  0  0  0  0  0  0  0  0  0
    1.5436   -2.6307    0.8408 C   0  0  0  0  0  0  0  0  0  0  0  0
    3.9058   -2.2857    1.1117 C   0  0  0  0  0  0  0  0  0  0  0  0
   -0.6147    2.6899    0.1694 C   0  0  0  0  0  0  0  0  0  0  0  0
    0.4183   -2.3705   -0.1479 C   0  0  0  0  0  0  0  0  0  0  0  0
    4.4546   -3.3019    0.1230 C   0  0  0  0  0  0  0  0  0  0  0  0
   -2.2718    1.4791    0.6207 C   0  0  0  0  0  0  0  0  0  0  0  0
   -3.4572    0.7280    0.3251 C   0  0  0  0  0  0  0  0  0  0  0  0
   -1.7240   -3.0964   -0.7855 C   0  0  0  0  0  0  0  0  0  0  0  0
    6.2274   -4.8024   -0.2357 C   0  0  0  0  0  0  0  0  0  0  0  0
   -4.1404    0.0716    1.3489 C   0  0  0  0  0  0  0  0  0  0  0  0
   -3.9271    0.6538   -0.9862 C   0  0  0  0  0  0  0  0  0  0  0  0
   -5.2931   -0.6591    1.0615 C   0  0  0  0  0  0  0  0  0  0  0  0
   -5.0798   -0.0769   -1.2737 C   0  0  0  0  0  0  0  0  0  0  0  0
   -5.7628   -0.7334   -0.2499 C   0  0  0  0  0  0  0  0  0  0  0  0
    2.9513   -0.2363   -1.3361 H   0  0  0  0  0  0  0  0  0  0  0  0
    4.3174    0.4562    0.8455 H   0  0  0  0  0  0  0  0  0  0  0  0
    1.5744    1.5720   -2.3095 H   0  0  0  0  0  0  0  0  0  0  0  0
    0.9550    0.9363   -0.8399 H   0  0  0  0  0  0  0  0  0  0  0  0
    2.3669    3.6195   -1.2432 H   0  0  0  0  0  0  0  0  0  0  0  0
    4.6347    2.2746   -1.0265 H   0  0  0  0  0  0  0  0  0  0  0  0
    2.5653   -0.4808    2.3333 H   0  0  0  0  0  0  0  0  0  0  0  0
    1.3452   -0.1280    1.1400 H   0  0  0  0  0  0  0  0  0  0  0  0
    3.3842    2.0757    2.3357 H   0  0  0  0  0  0  0  0  0  0  0  0
   -0.0417    3.4438   -1.7457 H   0  0  0  0  0  0  0  0  0  0  0  0
    0.2611    4.5370   -0.4090 H   0  0  0  0  0  0  0  0  0  0  0  0
    4.8312    2.1689   -3.5310 H   0  0  0  0  0  0  0  0  0  0  0  0
    3.2828    2.7592   -2.9998 H   0  0  0  0  0  0  0  0  0  0  0  0
    3.4504    1.0809   -3.5779 H   0  0  0  0  0  0  0  0  0  0  0  0
    6.3088    0.8465   -2.1505 H   0  0  0  0  0  0  0  0  0  0  0  0
    5.7864    0.1052   -0.6451 H   0  0  0  0  0  0  0  0  0  0  0  0
    5.1688   -0.5025   -2.1890 H   0  0  0  0  0  0  0  0  0  0  0  0
    2.5361    5.1435    0.9201 H   0  0  0  0  0  0  0  0  0  0  0  0
    2.7689    4.3125    2.4562 H   0  0  0  0  0  0  0  0  0  0  0  0
    1.1407    4.5017    1.8121 H   0  0  0  0  0  0  0  0  0  0  0  0
    1.1714   -2.5765    1.8733 H   0  0  0  0  0  0  0  0  0  0  0  0
    1.8408   -3.6776    0.7090 H   0  0  0  0  0  0  0  0  0  0  0  0
    3.7750   -2.7430    2.1023 H   0  0  0  0  0  0  0  0  0  0  0  0
    4.6903   -1.5344    1.2539 H   0  0  0  0  0  0  0  0  0  0  0  0
    0.0178   -1.3567   -0.0430 H   0  0  0  0  0  0  0  0  0  0  0  0
    0.7820   -2.4962   -1.1753 H   0  0  0  0  0  0  0  0  0  0  0  0
    3.7584   -4.1307   -0.0401 H   0  0  0  0  0  0  0  0  0  0  0  0
    4.6495   -2.8190   -0.8425 H   0  0  0  0  0  0  0  0  0  0  0  0
   -2.4961   -3.8346   -0.5528 H   0  0  0  0  0  0  0  0  0  0  0  0
   -1.4111   -3.2337   -1.8251 H   0  0  0  0  0  0  0  0  0  0  0  0
   -2.1455   -2.0967   -0.6480 H   0  0  0  0  0  0  0  0  0  0  0  0
    7.1617   -5.1631    0.2027 H   0  0  0  0  0  0  0  0  0  0  0  0
    6.4476   -4.3628   -1.2133 H   0  0  0  0  0  0  0  0  0  0  0  0
    5.5450   -5.6505   -0.3481 H   0  0  0  0  0  0  0  0  0  0  0  0
   -3.7918    0.1157    2.3779 H   0  0  0  0  0  0  0  0  0  0  0  0
   -3.4218    1.1511   -1.8102 H   0  0  0  0  0  0  0  0  0  0  0  0
   -5.7995   -1.1576    1.8841 H   0  0  0  0  0  0  0  0  0  0  0  0
   -5.4169   -0.1129   -2.3066 H   0  0  0  0  0  0  0  0  0  0  0  0
  1 24  1  0  0  0  0
  1 27  1  0  0  0  0
  2 25  1  0  0  0  0
  2 29  1  0  0  0  0
  3 26  1  0  0  0  0
  3 30  1  0  0  0  0
  4  9  1  0  0  0  0
  5  9  2  0  0  0  0
  6 16  1  0  0  0  0
  6 22  1  0  0  0  0
  6 23  1  0  0  0  0
  7  8  1  0  0  0  0
  7 24  2  0  0  0  0
  8 27  2  0  0  0  0
  9 35  1  0  0  0  0
 10 11  1  0  0  0  0
 10 12  1  0  0  0  0
 10 14  1  0  0  0  0
 10 36  1  0  0  0  0
 11 16  1  0  0  0  0
 11 17  1  0  0  0  0
 11 37  1  0  0  0  0
 12 13  1  0  0  0  0
 12 38  1  0  0  0  0
 12 39  1  0  0  0  0
 13 15  1  0  0  0  0
 13 18  1  0  0  0  0
 13 40  1  0  0  0  0
 14 19  1  0  0  0  0
 14 20  1  0  0  0  0
 14 41  1  0  0  0  0
 15 17  2  0  0  0  0
 15 21  1  0  0  0  0
 16 42  1  0  0  0  0
 16 43  1  0  0  0  0
 17 44  1  0  0  0  0
 18 24  1  0  0  0  0
 18 45  1  0  0  0  0
 18 46  1  0  0  0  0
 19 47  1  0  0  0  0
 19 48  1  0  0  0  0
 19 49  1  0  0  0  0
 20 50  1  0  0  0  0
 20 51  1  0  0  0  0
 20 52  1  0  0  0  0
 21 53  1  0  0  0  0
 21 54  1  0  0  0  0
 21 55  1  0  0  0  0
 22 25  1  0  0  0  0
 22 56  1  0  0  0  0
 22 57  1  0  0  0  0
 23 26  1  0  0  0  0
 23 58  1  0  0  0  0
 23 59  1  0  0  0  0
 25 60  1  0  0  0  0
 25 61  1  0  0  0  0
 26 62  1  0  0  0  0
 26 63  1  0  0  0  0
 27 28  1  0  0  0  0
 28 31  2  0  0  0  0
 28 32  1  0  0  0  0
 29 64  1  0  0  0  0
 29 65  1  0  0  0  0
 29 66  1  0  0  0  0
 30 67  1  0  0  0  0
 30 68  1  0  0  0  0
 30 69  1  0  0  0  0
 31 33  1  0  0  0  0
 31 70  1  0  0  0  0
 32 34  2  0  0  0  0
 32 71  1  0  0  0  0
 33 35  2  0  0  0  0
 33 72  1  0  0  0  0
 34 35  1  0  0  0  0
 34 73  1  0  0  0  0
M  CHG  2   4  -1   9   1
M  END
> <PUBCHEM_COMPOUND_CID>
45783986

> <PUBCHEM_CONFORMER_RMSD>
1.2

> <PUBCHEM_CONFORMER_DIVERSEORDER>
2
92
26
85
16
38
30
40
93
58
62
97
66
29
22
4
36
6
63
75
44
28
12
64
50
69
89
37
78
79
33
74
18
59
45
15
57
3
54
53
19
96
60
5
90
46
104
43
87
21
20
100
88
35
103
67
31
27
101
8
42
52
32
91
61
13
24
76
81
9
48
94
7
72
25
10
55
80
70
49
106
86
105
14
102
82
98
71
34
99
41
95
39
47
23
83
17
11
56
68
107
84
51
73
1
77
65

> <PUBCHEM_MMFF94_PARTIAL_CHARGES>
35
1 -0.28
11 0.14
13 0.14
15 -0.28
16 0.27
17 -0.29
18 0.18
2 -0.56
21 0.14
22 0.27
23 0.27
24 0.3
25 0.28
26 0.28
27 0.43
28 0.05
29 0.28
3 -0.56
30 0.28
31 -0.15
32 -0.15
33 -0.15
34 -0.15
35 0.13
4 -0.52
44 0.15
5 -0.52
6 -0.81
7 -0.34
70 0.15
71 0.15
72 0.15
73 0.15
8 -0.34
9 0.91

> <PUBCHEM_EFFECTIVE_ROTOR_COUNT>
13.8

> <PUBCHEM_PHARMACOPHORE_FEATURES>
10
1 2 acceptor
1 3 acceptor
1 4 acceptor
1 4 anion
1 5 acceptor
1 6 cation
3 14 19 20 hydrophobe
5 1 7 8 24 27 rings
6 10 11 12 13 15 17 rings
6 28 31 32 33 34 35 rings

> <PUBCHEM_HEAVY_ATOM_COUNT>
35

> <PUBCHEM_ATOM_DEF_STEREO_COUNT>
3

> <PUBCHEM_ATOM_UDEF_STEREO_COUNT>
0

> <PUBCHEM_BOND_DEF_STEREO_COUNT>
0

> <PUBCHEM_BOND_UDEF_STEREO_COUNT>
0

> <PUBCHEM_ISOTOPIC_ATOM_COUNT>
0

> <PUBCHEM_COMPONENT_COUNT>
1

> <PUBCHEM_CACTVS_TAUTO_COUNT>
1

> <PUBCHEM_CONFORMER_ID>
02BA9BB200000002

> <PUBCHEM_MMFF94_ENERGY>
80.3393

> <PUBCHEM_FEATURE_SELFOVERLAP>
50.828

> <PUBCHEM_SHAPE_FINGERPRINT>
10622 236 18264206924258048152
10816530 23 16341164626463115061
11607047 403 18342446072675434032
12166972 35 18114181895801597911
12645989 146 18341894030805918038
131258 38 18262786467390219890
13150687 139 17605856909168818540
1361 2 18264485255983525049
14068700 675 18201434718796400563
14114211 68 18042984244431228518
14117953 113 18124591973435719725
14394314 77 18341057302873671928
15001296 14 18198616834394055955
16114785 44 16477076414994540048
19315092 285 18131064918220507256
19319366 153 18336836406851995860
20775438 99 18192698167228297827
20775530 9 18117279142705174104
208703 8 18339073783395763574
24893989 43 17629199596032831583
3298306 158 18188487012350561129
34797466 226 16660644103061844261
3680242 22 18341899606358302659
404807 78 17462015554699958435
463206 1 18338238141668061665
513532 50 18060423547046693868
58260988 114 13393902521954080892
6669772 16 18196366154881617648

> <PUBCHEM_SHAPE_MULTIPOLES>
671.01
15.29
5.83
1.82
22.4
2.7
-0.65
15.15
-4.28
-8.85
0.94
-1.01
-1.12
-1.88

> <PUBCHEM_SHAPE_SELFOVERLAP>
1389.056

> <PUBCHEM_SHAPE_VOLUME>
384.8

> <PUBCHEM_COORDINATE_TYPE>
2
5
10

$$$$
