25389393
  -OEChem-12032416343D

 74 78  0     1  0  0  0  0  0999 V2000
   -5.0860   -1.9709   -0.2619 S   0  0  0  0  0  0  0  0  0  0  0  0
   -5.4265   -2.1796   -1.6564 O   0  0  0  0  0  0  0  0  0  0  0  0
   -5.9235   -2.5255    0.7843 O   0  0  0  0  0  0  0  0  0  0  0  0
    0.3815   -4.0618    0.6118 O   0  0  0  0  0  0  0  0  0  0  0  0
   -3.1146    2.8066   -1.2155 N   0  0  2  0  0  0  0  0  0  0  0  0
    0.8518    1.7584    0.3026 N   0  0  0  0  0  0  0  0  0  0  0  0
   -4.8703   -0.3051    0.0209 N   0  0  0  0  0  0  0  0  0  0  0  0
   -2.5430    3.2481    1.2834 C   0  0  2  0  0  0  0  0  0  0  0  0
   -1.2620    2.9637    0.4664 C   0  0  2  0  0  0  0  0  0  0  0  0
   -3.9388    1.9286   -0.3415 C   0  0  2  0  0  0  0  0  0  0  0  0
   -3.5145    2.0624    1.1379 C   0  0  0  0  0  0  0  0  0  0  0  0
   -1.6717    2.5682   -0.9701 C   0  0  0  0  0  0  0  0  0  0  0  0
   -3.2201    4.4741    0.6415 C   0  0  0  0  0  0  0  0  0  0  0  0
   -3.4168    4.2151   -0.8627 C   0  0  0  0  0  0  0  0  0  0  0  0
   -0.3615    1.9093    1.1057 C   0  0  0  0  0  0  0  0  0  0  0  0
   -3.9308    0.4702   -0.8055 C   0  0  0  0  0  0  0  0  0  0  0  0
    1.5053    0.4755    0.5948 C   0  0  0  0  0  0  0  0  0  0  0  0
    1.7660    2.8844    0.5357 C   0  0  0  0  0  0  0  0  0  0  0  0
    3.7367    1.4363   -0.1074 C   0  0  0  0  0  0  0  0  0  0  0  0
    2.7477    0.2780   -0.2762 C   0  0  0  0  0  0  0  0  0  0  0  0
    3.0170    2.7694   -0.3378 C   0  0  0  0  0  0  0  0  0  0  0  0
    4.9258    1.2843   -1.0519 C   0  0  0  0  0  0  0  0  0  0  0  0
    5.9233    0.2851   -0.5327 C   0  0  0  0  0  0  0  0  0  0  0  0
   -3.4529   -2.5949   -0.0007 C   0  0  0  0  0  0  0  0  0  0  0  0
    6.9646    0.7049    0.2950 C   0  0  0  0  0  0  0  0  0  0  0  0
    5.8069   -1.0611   -0.8786 C   0  0  0  0  0  0  0  0  0  0  0  0
   -2.5579   -2.6748   -1.0678 C   0  0  0  0  0  0  0  0  0  0  0  0
   -3.0592   -3.0076    1.2722 C   0  0  0  0  0  0  0  0  0  0  0  0
    7.8896   -0.2214    0.7767 C   0  0  0  0  0  0  0  0  0  0  0  0
    6.7318   -1.9874   -0.3970 C   0  0  0  0  0  0  0  0  0  0  0  0
    7.7732   -1.5676    0.4306 C   0  0  0  0  0  0  0  0  0  0  0  0
   -1.2693   -3.1674   -0.8617 C   0  0  0  0  0  0  0  0  0  0  0  0
   -1.7706   -3.5003    1.4782 C   0  0  0  0  0  0  0  0  0  0  0  0
   -0.8757   -3.5801    0.4114 C   0  0  0  0  0  0  0  0  0  0  0  0
    1.2441   -4.1168   -0.5236 C   0  0  0  0  0  0  0  0  0  0  0  0
   -2.3142    3.4410    2.3368 H   0  0  0  0  0  0  0  0  0  0  0  0
   -0.7277    3.9202    0.4172 H   0  0  0  0  0  0  0  0  0  0  0  0
   -4.9824    2.2674   -0.4236 H   0  0  0  0  0  0  0  0  0  0  0  0
   -3.0490    1.1484    1.5212 H   0  0  0  0  0  0  0  0  0  0  0  0
   -4.4033    2.2451    1.7552 H   0  0  0  0  0  0  0  0  0  0  0  0
   -1.0874    3.1607   -1.6868 H   0  0  0  0  0  0  0  0  0  0  0  0
   -1.4225    1.5275   -1.2039 H   0  0  0  0  0  0  0  0  0  0  0  0
   -2.6070    5.3709    0.7881 H   0  0  0  0  0  0  0  0  0  0  0  0
   -4.1883    4.6611    1.1218 H   0  0  0  0  0  0  0  0  0  0  0  0
   -4.4462    4.4605   -1.1520 H   0  0  0  0  0  0  0  0  0  0  0  0
   -2.7796    4.8893   -1.4491 H   0  0  0  0  0  0  0  0  0  0  0  0
   -0.9009    0.9549    1.1353 H   0  0  0  0  0  0  0  0  0  0  0  0
   -0.1287    2.1685    2.1464 H   0  0  0  0  0  0  0  0  0  0  0  0
   -2.9280    0.0516   -0.6955 H   0  0  0  0  0  0  0  0  0  0  0  0
   -4.2296    0.4001   -1.8568 H   0  0  0  0  0  0  0  0  0  0  0  0
    0.8149   -0.3512    0.3865 H   0  0  0  0  0  0  0  0  0  0  0  0
    1.7818    0.4104    1.6555 H   0  0  0  0  0  0  0  0  0  0  0  0
    2.0628    2.9349    1.5918 H   0  0  0  0  0  0  0  0  0  0  0  0
    1.3015    3.8428    0.2864 H   0  0  0  0  0  0  0  0  0  0  0  0
    4.0924    1.4343    0.9330 H   0  0  0  0  0  0  0  0  0  0  0  0
    3.2092   -0.6737    0.0062 H   0  0  0  0  0  0  0  0  0  0  0  0
    2.4429    0.1888   -1.3272 H   0  0  0  0  0  0  0  0  0  0  0  0
    2.7344    2.8650   -1.3946 H   0  0  0  0  0  0  0  0  0  0  0  0
    3.6928    3.6032   -0.1122 H   0  0  0  0  0  0  0  0  0  0  0  0
   -5.0099    0.0188    0.9855 H   0  0  0  0  0  0  0  0  0  0  0  0
    5.4384    2.2483   -1.1720 H   0  0  0  0  0  0  0  0  0  0  0  0
    4.5994    1.0038   -2.0618 H   0  0  0  0  0  0  0  0  0  0  0  0
    7.0649    1.7506    0.5738 H   0  0  0  0  0  0  0  0  0  0  0  0
    5.0063   -1.4020   -1.5296 H   0  0  0  0  0  0  0  0  0  0  0  0
   -2.8433   -2.3540   -2.0658 H   0  0  0  0  0  0  0  0  0  0  0  0
   -3.7370   -2.9470    2.1188 H   0  0  0  0  0  0  0  0  0  0  0  0
    8.7001    0.1054    1.4215 H   0  0  0  0  0  0  0  0  0  0  0  0
    6.6423   -3.0354   -0.6679 H   0  0  0  0  0  0  0  0  0  0  0  0
    8.4936   -2.2889    0.8054 H   0  0  0  0  0  0  0  0  0  0  0  0
   -0.6249   -3.2004   -1.7335 H   0  0  0  0  0  0  0  0  0  0  0  0
   -1.4689   -3.8187    2.4724 H   0  0  0  0  0  0  0  0  0  0  0  0
    2.2012   -4.5250   -0.1828 H   0  0  0  0  0  0  0  0  0  0  0  0
    1.4477   -3.1170   -0.9225 H   0  0  0  0  0  0  0  0  0  0  0  0
    0.8596   -4.7994   -1.2890 H   0  0  0  0  0  0  0  0  0  0  0  0
  1  2  2  0  0  0  0
  1  3  2  0  0  0  0
  1  7  1  0  0  0  0
  1 24  1  0  0  0  0
  4 34  1  0  0  0  0
  4 35  1  0  0  0  0
  5 10  1  0  0  0  0
  5 12  1  0  0  0  0
  5 14  1  0  0  0  0
  6 15  1  0  0  0  0
  6 17  1  0  0  0  0
  6 18  1  0  0  0  0
  7 16  1  0  0  0  0
  7 60  1  0  0  0  0
  8  9  1  0  0  0  0
  8 11  1  0  0  0  0
  8 13  1  0  0  0  0
  8 36  1  0  0  0  0
  9 12  1  0  0  0  0
  9 15  1  0  0  0  0
  9 37  1  0  0  0  0
 10 11  1  0  0  0  0
 10 16  1  0  0  0  0
 10 38  1  0  0  0  0
 11 39  1  0  0  0  0
 11 40  1  0  0  0  0
 12 41  1  0  0  0  0
 12 42  1  0  0  0  0
 13 14  1  0  0  0  0
 13 43  1  0  0  0  0
 13 44  1  0  0  0  0
 14 45  1  0  0  0  0
 14 46  1  0  0  0  0
 15 47  1  0  0  0  0
 15 48  1  0  0  0  0
 16 49  1  0  0  0  0
 16 50  1  0  0  0  0
 17 20  1  0  0  0  0
 17 51  1  0  0  0  0
 17 52  1  0  0  0  0
 18 21  1  0  0  0  0
 18 53  1  0  0  0  0
 18 54  1  0  0  0  0
 19 20  1  0  0  0  0
 19 21  1  0  0  0  0
 19 22  1  0  0  0  0
 19 55  1  0  0  0  0
 20 56  1  0  0  0  0
 20 57  1  0  0  0  0
 21 58  1  0  0  0  0
 21 59  1  0  0  0  0
 22 23  1  0  0  0  0
 22 61  1  0  0  0  0
 22 62  1  0  0  0  0
 23 25  2  0  0  0  0
 23 26  1  0  0  0  0
 24 27  2  0  0  0  0
 24 28  1  0  0  0  0
 25 29  1  0  0  0  0
 25 63  1  0  0  0  0
 26 30  2  0  0  0  0
 26 64  1  0  0  0  0
 27 32  1  0  0  0  0
 27 65  1  0  0  0  0
 28 33  2  0  0  0  0
 28 66  1  0  0  0  0
 29 31  2  0  0  0  0
 29 67  1  0  0  0  0
 30 31  1  0  0  0  0
 30 68  1  0  0  0  0
 31 69  1  0  0  0  0
 32 34  2  0  0  0  0
 32 70  1  0  0  0  0
 33 34  1  0  0  0  0
 33 71  1  0  0  0  0
 35 72  1  0  0  0  0
 35 73  1  0  0  0  0
 35 74  1  0  0  0  0
M  END
> <PUBCHEM_COMPOUND_CID>
25389393

> <PUBCHEM_CONFORMER_RMSD>
1.6

> <PUBCHEM_CONFORMER_DIVERSEORDER>
1
87
54
55
35
51
70
59
49
17
64
95
4
102
47
77
72
58
56
104
103
43
16
94
92
79
67
100
46
52
74
45
66
28
15
101
10
60
61
44
81
96
27
33
37
93
30
69
99
63
82
57
9
71
34
11
24
73
20
36
89
76
75
48
80
85
53
23
83
65
6
90
25
5
19
97
12
38
32
84
86
42
88
78
14
98
91
31
3
62
13
29
50
22
39
26
40
8
21
41
2
68
7
18

> <PUBCHEM_MMFF94_PARTIAL_CHARGES>
38
1 1.45
10 0.27
12 0.27
14 0.27
15 0.27
16 0.36
17 0.27
18 0.27
2 -0.65
22 0.14
23 -0.14
24 -0.01
25 -0.15
26 -0.15
27 -0.15
28 -0.15
29 -0.15
3 -0.65
30 -0.15
31 -0.15
32 -0.15
33 -0.15
34 0.08
35 0.28
4 -0.36
5 -0.81
6 -0.81
60 0.42
63 0.15
64 0.15
65 0.15
66 0.15
67 0.15
68 0.15
69 0.15
7 -0.91
70 0.15
71 0.15

> <PUBCHEM_EFFECTIVE_ROTOR_COUNT>
11.4

> <PUBCHEM_PHARMACOPHORE_FEATURES>
10
1 2 acceptor
1 3 acceptor
1 4 acceptor
1 5 cation
1 6 cation
1 7 donor
6 23 25 26 29 30 31 rings
6 24 27 28 32 33 34 rings
6 6 17 18 19 20 21 rings
8 5 8 9 10 11 12 13 14 rings

> <PUBCHEM_HEAVY_ATOM_COUNT>
35

> <PUBCHEM_ATOM_DEF_STEREO_COUNT>
3

> <PUBCHEM_ATOM_UDEF_STEREO_COUNT>
0

> <PUBCHEM_BOND_DEF_STEREO_COUNT>
0

> <PUBCHEM_BOND_UDEF_STEREO_COUNT>
0

> <PUBCHEM_ISOTOPIC_ATOM_COUNT>
0

> <PUBCHEM_COMPONENT_COUNT>
1

> <PUBCHEM_CACTVS_TAUTO_COUNT>
1

> <PUBCHEM_CONFORMER_ID>
0183695100000001

> <PUBCHEM_MMFF94_ENERGY>
80.7027

> <PUBCHEM_FEATURE_SELFOVERLAP>
50.765

> <PUBCHEM_SHAPE_FINGERPRINT>
10305334 12 18201447922291161661
11028528 32 17901388892859212066
11756154 5 18262517129726915315
12128747 34 18413672400988447174
12522641 33 18045493116125797213
12645989 146 18126846225344227319
12788726 201 18337100250486880603
13560911 43 18334574676494011211
14150023 24 18052547565149046049
14211702 104 18272094868706324252
14251757 5 18335701710176741315
14279260 333 18410285896790930678
14289585 56 17095795551816908468
14415360 78 17685206176105407437
14725015 67 18341328989656123299
15021287 119 17385449813038833292
15276724 80 18339928237717635540
15351339 4 18335411336397734466
15439362 3 17833266424443876093
15927050 60 18196652891730809709
15968369 153 18270390715392826994
16628084 112 18337115664839811866
17627616 140 18191022292210825946
19958102 18 18335414682050020740
24771750 20 17471842607921055549
25223398 141 18409729577976786156
3383291 50 18339357569070427146
373842 8 18339643322615195206
38695281 34 18120377553951497232
4197921 191 18187653560982736430
5085150 59 18342168939394227098
513202 73 18261685873197882163
6376802 137 17632579357289779184
6437827 68 18410294722626431358
70634741 139 18412546544252940064
9961470 85 18124311602603876490

> <PUBCHEM_SHAPE_MULTIPOLES>
691.58
17.24
6.89
1.24
34.74
1.09
-0.02
4.84
0.87
-8.84
-0.58
-0.83
0.11
0.03

> <PUBCHEM_SHAPE_SELFOVERLAP>
1453.034

> <PUBCHEM_SHAPE_VOLUME>
391.9

> <PUBCHEM_COORDINATE_TYPE>
2
5
10

$$$$
