25314954
  -OEChem-12032416193D

 45 47  0     1  0  0  0  0  0999 V2000
    1.3177    1.3309   -1.5593 O   0  0  0  0  0  0  0  0  0  0  0  0
    2.4053    2.7746   -0.1054 O   0  0  0  0  0  0  0  0  0  0  0  0
    0.8550    1.9527    2.1798 O   0  0  0  0  0  0  0  0  0  0  0  0
    3.0293   -3.4836   -0.1454 O   0  0  0  0  0  0  0  0  0  0  0  0
   -2.8868    0.5538    1.2274 O   0  0  0  0  0  0  0  0  0  0  0  0
    1.9111   -0.8847    0.1659 N   0  0  0  0  0  0  0  0  0  0  0  0
   -1.2053    0.4144   -0.3670 N   0  0  0  0  0  0  0  0  0  0  0  0
   -2.9962   -1.0179   -0.4759 N   0  0  0  0  0  0  0  0  0  0  0  0
    1.9690    0.5060    0.6111 C   0  0  2  0  0  0  0  0  0  0  0  0
    0.6069    0.9323    1.2038 C   0  0  2  0  0  0  0  0  0  0  0  0
   -0.3774    1.4834    0.1486 C   0  0  1  0  0  0  0  0  0  0  0  0
    0.3258    2.2084   -1.0175 C   0  0  1  0  0  0  0  0  0  0  0  0
    2.3529    1.4156   -0.5704 C   0  0  1  0  0  0  0  0  0  0  0  0
    1.1944    3.3760   -0.5888 C   0  0  0  0  0  0  0  0  0  0  0  0
    2.0490   -1.8033    1.3046 C   0  0  0  0  0  0  0  0  0  0  0  0
    2.9561   -1.1575   -0.8305 C   0  0  0  0  0  0  0  0  0  0  0  0
    1.9984   -3.2476    0.8143 C   0  0  0  0  0  0  0  0  0  0  0  0
    2.8830   -2.6167   -1.2709 C   0  0  0  0  0  0  0  0  0  0  0  0
   -2.4060    0.0329    0.2219 C   0  0  0  0  0  0  0  0  0  0  0  0
   -4.2523   -1.6111   -0.0819 C   0  0  0  0  0  0  0  0  0  0  0  0
   -5.3677   -0.8858   -0.7583 C   0  0  0  0  0  0  0  0  0  0  0  0
   -6.3621   -0.2727   -0.1062 C   0  0  0  0  0  0  0  0  0  0  0  0
    2.7481    0.6369    1.3762 H   0  0  0  0  0  0  0  0  0  0  0  0
    0.1386    0.1204    1.7692 H   0  0  0  0  0  0  0  0  0  0  0  0
   -1.0496    2.2065    0.6284 H   0  0  0  0  0  0  0  0  0  0  0  0
   -0.3912    2.4928   -1.7945 H   0  0  0  0  0  0  0  0  0  0  0  0
    3.3341    1.2204   -1.0104 H   0  0  0  0  0  0  0  0  0  0  0  0
    1.4666    3.9977   -1.4485 H   0  0  0  0  0  0  0  0  0  0  0  0
    0.7444    4.0098    0.1800 H   0  0  0  0  0  0  0  0  0  0  0  0
    3.0058   -1.6334    1.8160 H   0  0  0  0  0  0  0  0  0  0  0  0
    1.2489   -1.6661    2.0379 H   0  0  0  0  0  0  0  0  0  0  0  0
    2.8251   -0.6009   -1.7623 H   0  0  0  0  0  0  0  0  0  0  0  0
    3.9530   -0.9551   -0.4173 H   0  0  0  0  0  0  0  0  0  0  0  0
   -0.8560   -0.1313   -1.1490 H   0  0  0  0  0  0  0  0  0  0  0  0
    0.0043    2.1752    2.5951 H   0  0  0  0  0  0  0  0  0  0  0  0
    2.1625   -3.9321    1.6528 H   0  0  0  0  0  0  0  0  0  0  0  0
    1.0241   -3.4910    0.3731 H   0  0  0  0  0  0  0  0  0  0  0  0
    1.9388   -2.8394   -1.7831 H   0  0  0  0  0  0  0  0  0  0  0  0
    3.6978   -2.8386   -1.9678 H   0  0  0  0  0  0  0  0  0  0  0  0
   -2.5353   -1.3701   -1.3095 H   0  0  0  0  0  0  0  0  0  0  0  0
   -4.2391   -2.6574   -0.4023 H   0  0  0  0  0  0  0  0  0  0  0  0
   -4.3424   -1.5837    1.0093 H   0  0  0  0  0  0  0  0  0  0  0  0
   -5.3746   -0.8719   -1.8454 H   0  0  0  0  0  0  0  0  0  0  0  0
   -7.1497    0.2322   -0.6549 H   0  0  0  0  0  0  0  0  0  0  0  0
   -6.4083   -0.2617    0.9771 H   0  0  0  0  0  0  0  0  0  0  0  0
  1 12  1  0  0  0  0
  1 13  1  0  0  0  0
  2 13  1  0  0  0  0
  2 14  1  0  0  0  0
  3 10  1  0  0  0  0
  3 35  1  0  0  0  0
  4 17  1  0  0  0  0
  4 18  1  0  0  0  0
  5 19  2  0  0  0  0
  6  9  1  0  0  0  0
  6 15  1  0  0  0  0
  6 16  1  0  0  0  0
  7 11  1  0  0  0  0
  7 19  1  0  0  0  0
  7 34  1  0  0  0  0
  8 19  1  0  0  0  0
  8 20  1  0  0  0  0
  8 40  1  0  0  0  0
  9 10  1  0  0  0  0
  9 13  1  0  0  0  0
  9 23  1  0  0  0  0
 10 11  1  0  0  0  0
 10 24  1  0  0  0  0
 11 12  1  0  0  0  0
 11 25  1  0  0  0  0
 12 14  1  0  0  0  0
 12 26  1  0  0  0  0
 13 27  1  0  0  0  0
 14 28  1  0  0  0  0
 14 29  1  0  0  0  0
 15 17  1  0  0  0  0
 15 30  1  0  0  0  0
 15 31  1  0  0  0  0
 16 18  1  0  0  0  0
 16 32  1  0  0  0  0
 16 33  1  0  0  0  0
 17 36  1  0  0  0  0
 17 37  1  0  0  0  0
 18 38  1  0  0  0  0
 18 39  1  0  0  0  0
 20 21  1  0  0  0  0
 20 41  1  0  0  0  0
 20 42  1  0  0  0  0
 21 22  2  0  0  0  0
 21 43  1  0  0  0  0
 22 44  1  0  0  0  0
 22 45  1  0  0  0  0
M  END
> <PUBCHEM_COMPOUND_CID>
25314954

> <PUBCHEM_CONFORMER_RMSD>
0.8

> <PUBCHEM_CONFORMER_DIVERSEORDER>
1
19
36
35
50
49
26
55
37
59
63
52
21
23
31
34
14
47
43
46
3
60
29
2
13
32
5
30
20
22
33
4
65
64
11
18
28
39
17
42
44
9
53
58
51
38
41
24
56
7
8
27
48
66
16
61
10
54
45
40
25
12
6
62
15
57

> <PUBCHEM_MMFF94_PARTIAL_CHARGES>
28
1 -0.56
10 0.28
11 0.3
12 0.28
13 0.56
14 0.28
15 0.27
16 0.27
17 0.28
18 0.28
19 0.69
2 -0.56
20 0.44
21 -0.29
22 -0.3
3 -0.68
34 0.37
35 0.4
4 -0.56
40 0.37
43 0.15
44 0.15
45 0.15
5 -0.57
6 -0.81
7 -0.73
8 -0.73
9 0.27

> <PUBCHEM_EFFECTIVE_ROTOR_COUNT>
8.4

> <PUBCHEM_PHARMACOPHORE_FEATURES>
12
1 1 acceptor
1 2 acceptor
1 22 hydrophobe
1 3 acceptor
1 3 donor
1 4 acceptor
1 5 acceptor
1 6 cation
1 7 donor
1 8 donor
6 4 6 15 16 17 18 rings
8 1 2 9 10 11 12 13 14 rings

> <PUBCHEM_HEAVY_ATOM_COUNT>
22

> <PUBCHEM_ATOM_DEF_STEREO_COUNT>
5

> <PUBCHEM_ATOM_UDEF_STEREO_COUNT>
0

> <PUBCHEM_BOND_DEF_STEREO_COUNT>
0

> <PUBCHEM_BOND_UDEF_STEREO_COUNT>
0

> <PUBCHEM_ISOTOPIC_ATOM_COUNT>
0

> <PUBCHEM_COMPONENT_COUNT>
1

> <PUBCHEM_CACTVS_TAUTO_COUNT>
3

> <PUBCHEM_CONFORMER_ID>
0182468A00000001

> <PUBCHEM_MMFF94_ENERGY>
51.5741

> <PUBCHEM_FEATURE_SELFOVERLAP>
60.998

> <PUBCHEM_SHAPE_FINGERPRINT>
11578080 2 18198612238558458736
116883 192 18262227829609948005
12107183 9 18197223534440293385
12403259 327 15482373301478116335
12553582 1 18191032200658127827
13083527 12 18115010910974212082
13533116 47 18272088331988009307
13631057 29 18124035620763990350
13955234 65 18339082713112287353
14178342 30 17695042780694407435
14863182 85 18340483460856125250
17492 54 18115327660390828398
1813 80 18337394812017932235
20291156 8 18267591208174405874
20388580 30 18412267198762116199
20645477 70 18336545014611175303
20775530 9 18123743167201985599
21421861 104 18411981368957339601
21452121 199 18189043223194359458
21731516 1 18192154802203809394
2255824 54 18336829809006554079
23419403 2 17836318806308800664
23559900 14 18337668719763160891
23598291 2 18269572575667470353
23728640 28 16676680123169661570
238 59 18191597543018979555
3060560 45 18117558646376434428
314173 41 18408886213697821871
3421961 26 18410288099401842935
4463277 69 18342734079469356399
46194498 28 17603589655534449935
5207 123 18340764820048047879
5281201 14 18187356632872008765
543358 83 18409167710444254907
6443956 14 18336262349764798535
7164475 11 18411979153197930433
7364860 26 18339081596056871236
8272917 22 18335983176953842597

> <PUBCHEM_SHAPE_MULTIPOLES>
408.46
8.59
3.96
1.36
20.12
0.67
0.33
5.54
-1.63
-5.08
-0.35
-0.68
-0.2
-0.25

> <PUBCHEM_SHAPE_SELFOVERLAP>
847.985

> <PUBCHEM_SHAPE_VOLUME>
228.7

> <PUBCHEM_COORDINATE_TYPE>
2
5
10

$$$$
