75536576
  -OEChem-12032416333D

 46 47  0     1  0  0  0  0  0999 V2000
   -6.2575   -0.2690    0.9541 F   0  0  0  0  0  0  0  0  0  0  0  0
   -6.7216    1.6987    0.1534 F   0  0  0  0  0  0  0  0  0  0  0  0
    1.3582    0.1428   -1.2968 O   0  0  0  0  0  0  0  0  0  0  0  0
    0.4392   -1.6418    1.6824 O   0  0  0  0  0  0  0  0  0  0  0  0
    4.8960   -0.2633    1.4351 O   0  0  0  0  0  0  0  0  0  0  0  0
    6.9660    1.1938    0.5189 O   0  0  0  0  0  0  0  0  0  0  0  0
   -1.9232   -1.0799   -0.3125 N   0  0  0  0  0  0  0  0  0  0  0  0
    4.0654   -0.6291   -0.7075 N   0  0  0  0  0  0  0  0  0  0  0  0
   -0.6370   -0.4245   -0.1397 C   0  0  1  0  0  0  0  0  0  0  0  0
   -3.0007   -0.0949   -0.3874 C   0  0  0  0  0  0  0  0  0  0  0  0
    0.4719   -1.3644    0.2959 C   0  0  1  0  0  0  0  0  0  0  0  0
   -4.2067   -0.6978   -1.1183 C   0  0  0  0  0  0  0  0  0  0  0  0
   -3.3814    0.3683    1.0241 C   0  0  0  0  0  0  0  0  0  0  0  0
    1.7062   -0.5621   -0.0935 C   0  0  1  0  0  0  0  0  0  0  0  0
   -0.0729    0.1240   -1.4401 C   0  0  0  0  0  0  0  0  0  0  0  0
   -5.3800    0.2796   -1.1534 C   0  0  0  0  0  0  0  0  0  0  0  0
   -4.5543    1.3464    0.9899 C   0  0  0  0  0  0  0  0  0  0  0  0
   -5.7414    0.7654    0.2403 C   0  0  0  0  0  0  0  0  0  0  0  0
    2.9303   -1.4257   -0.3402 C   0  0  0  0  0  0  0  0  0  0  0  0
    4.9638   -0.1082    0.2188 C   0  0  0  0  0  0  0  0  0  0  0  0
    6.0652    0.6908   -0.4448 C   0  0  0  0  0  0  0  0  0  0  0  0
    8.0146    1.9511   -0.0784 C   0  0  0  0  0  0  0  0  0  0  0  0
   -0.6930    0.3792    0.6049 H   0  0  0  0  0  0  0  0  0  0  0  0
   -2.6833    0.7781   -0.9732 H   0  0  0  0  0  0  0  0  0  0  0  0
    0.4258   -2.3117   -0.2556 H   0  0  0  0  0  0  0  0  0  0  0  0
   -2.0955   -1.7260    0.4570 H   0  0  0  0  0  0  0  0  0  0  0  0
   -4.5258   -1.6233   -0.6207 H   0  0  0  0  0  0  0  0  0  0  0  0
   -3.9306   -0.9686   -2.1449 H   0  0  0  0  0  0  0  0  0  0  0  0
   -2.5438    0.8598    1.5301 H   0  0  0  0  0  0  0  0  0  0  0  0
   -3.6596   -0.4952    1.6432 H   0  0  0  0  0  0  0  0  0  0  0  0
    1.9369    0.1913    0.6712 H   0  0  0  0  0  0  0  0  0  0  0  0
   -0.3026   -0.5190   -2.2977 H   0  0  0  0  0  0  0  0  0  0  0  0
   -0.4252    1.1354   -1.6637 H   0  0  0  0  0  0  0  0  0  0  0  0
   -5.1340    1.1378   -1.7903 H   0  0  0  0  0  0  0  0  0  0  0  0
   -6.2484   -0.2108   -1.6077 H   0  0  0  0  0  0  0  0  0  0  0  0
   -4.8533    1.5921    2.0152 H   0  0  0  0  0  0  0  0  0  0  0  0
   -4.2446    2.2867    0.5181 H   0  0  0  0  0  0  0  0  0  0  0  0
    2.7550   -2.1138   -1.1745 H   0  0  0  0  0  0  0  0  0  0  0  0
    3.1741   -2.0138    0.5510 H   0  0  0  0  0  0  0  0  0  0  0  0
    0.4772   -0.7983    2.1643 H   0  0  0  0  0  0  0  0  0  0  0  0
    4.2067   -0.4322   -1.6942 H   0  0  0  0  0  0  0  0  0  0  0  0
    6.5953    0.0354   -1.1455 H   0  0  0  0  0  0  0  0  0  0  0  0
    5.6067    1.5197   -0.9965 H   0  0  0  0  0  0  0  0  0  0  0  0
    8.6739    2.3106    0.7161 H   0  0  0  0  0  0  0  0  0  0  0  0
    7.6058    2.8143   -0.6125 H   0  0  0  0  0  0  0  0  0  0  0  0
    8.5968    1.3249   -0.7611 H   0  0  0  0  0  0  0  0  0  0  0  0
  1 18  1  0  0  0  0
  2 18  1  0  0  0  0
  3 14  1  0  0  0  0
  3 15  1  0  0  0  0
  4 11  1  0  0  0  0
  4 40  1  0  0  0  0
  5 20  2  0  0  0  0
  6 21  1  0  0  0  0
  6 22  1  0  0  0  0
  7  9  1  0  0  0  0
  7 10  1  0  0  0  0
  7 26  1  0  0  0  0
  8 19  1  0  0  0  0
  8 20  1  0  0  0  0
  8 41  1  0  0  0  0
  9 11  1  0  0  0  0
  9 15  1  0  0  0  0
  9 23  1  0  0  0  0
 10 12  1  0  0  0  0
 10 13  1  0  0  0  0
 10 24  1  0  0  0  0
 11 14  1  0  0  0  0
 11 25  1  0  0  0  0
 12 16  1  0  0  0  0
 12 27  1  0  0  0  0
 12 28  1  0  0  0  0
 13 17  1  0  0  0  0
 13 29  1  0  0  0  0
 13 30  1  0  0  0  0
 14 19  1  0  0  0  0
 14 31  1  0  0  0  0
 15 32  1  0  0  0  0
 15 33  1  0  0  0  0
 16 18  1  0  0  0  0
 16 34  1  0  0  0  0
 16 35  1  0  0  0  0
 17 18  1  0  0  0  0
 17 36  1  0  0  0  0
 17 37  1  0  0  0  0
 19 38  1  0  0  0  0
 19 39  1  0  0  0  0
 20 21  1  0  0  0  0
 21 42  1  0  0  0  0
 21 43  1  0  0  0  0
 22 44  1  0  0  0  0
 22 45  1  0  0  0  0
 22 46  1  0  0  0  0
M  END
> <PUBCHEM_COMPOUND_CID>
75536576

> <PUBCHEM_CONFORMER_RMSD>
1

> <PUBCHEM_CONFORMER_DIVERSEORDER>
1
12
14
27
5
39
7
38
24
46
8
42
30
13
50
49
25
41
2
35
19
48
47
11
36
34
6
33
28
20
37
21
26
45
22
29
40
9
43
10
17
4
23
44
32
31
15
18
3
16

> <PUBCHEM_MMFF94_PARTIAL_CHARGES>
21
1 -0.34
10 0.27
11 0.28
14 0.28
15 0.28
18 0.68
19 0.3
2 -0.34
20 0.57
21 0.34
22 0.28
26 0.36
3 -0.56
4 -0.68
40 0.4
41 0.37
5 -0.57
6 -0.56
7 -0.9
8 -0.73
9 0.27

> <PUBCHEM_EFFECTIVE_ROTOR_COUNT>
9.2

> <PUBCHEM_PHARMACOPHORE_FEATURES>
10
1 3 acceptor
1 4 acceptor
1 4 donor
1 5 acceptor
1 6 acceptor
1 7 cation
1 7 donor
1 8 donor
5 3 9 11 14 15 rings
6 10 12 13 16 17 18 rings

> <PUBCHEM_HEAVY_ATOM_COUNT>
22

> <PUBCHEM_ATOM_DEF_STEREO_COUNT>
3

> <PUBCHEM_ATOM_UDEF_STEREO_COUNT>
0

> <PUBCHEM_BOND_DEF_STEREO_COUNT>
0

> <PUBCHEM_BOND_UDEF_STEREO_COUNT>
0

> <PUBCHEM_ISOTOPIC_ATOM_COUNT>
0

> <PUBCHEM_COMPONENT_COUNT>
1

> <PUBCHEM_CACTVS_TAUTO_COUNT>
2

> <PUBCHEM_CONFORMER_ID>
048098C000000001

> <PUBCHEM_MMFF94_ENERGY>
33.9508

> <PUBCHEM_FEATURE_SELFOVERLAP>
50.754

> <PUBCHEM_SHAPE_FINGERPRINT>
10 15 18113902666828564552
10087517 78 18343582915173210713
106641 1 17749393706002043129
10670039 82 15123520185646479634
10906281 52 18187660132388343758
11315181 36 18410290342202868839
11524674 6 15430038764098286241
117890 112 18413389843616238670
11991303 11 14620502471898553364
12236239 1 18411699847031647495
12596602 18 18261111846597696587
12670543 26 13758079580001205878
13288520 33 8070027766296701103
13533116 47 17968372339534168338
13540713 5 16590576715074964278
13631057 29 18263077881411974347
13668630 136 10303812077339025796
13685833 64 10665223757703378428
13862211 1 8862942783958605438
14251752 14 15051734175270232996
14251764 18 17821730571909500718
14528608 73 17132110251955201014
14849402 71 18263648518581395588
15048467 5 18272088301305676438
15183329 4 15267069142471856690
15348495 7 15936701457587866836
15706992 2 18341346560124874776
15716309 27 12396301464947174686
17093844 174 15864063270366452493
17834072 8 15267342933746793520
20281389 69 18408040689398123148
20735858 18 16226046695559092290
21130935 74 17749108842555158099
21150785 3 15913329109041177052
21267235 1 11815892375701126207
21637258 2 11314308373411882354
21641784 216 15410627972983989330
220451 1 16487255456793378271
22224240 67 17748826327810992466
23035841 295 8358255947556633309
23081809 10 18201991127789306774
23402539 116 17560794412603193191
23522609 53 8645645326331829990
23559900 14 16343688938205228195
23576562 1 15122923210946821577
25147074 1 17459764811147722782
2838139 119 18059855099192872368
300161 21 18272367547157749231
3004659 81 13973965407403548622
34797466 226 16917354748629560796
351380 3 9079113349679457837
4073 2 18413111679696206414
4340502 62 15357695280268593546
445580 37 17274830151038022176
465052 167 11241973668400449930
5104073 3 16371870588791670996
542803 24 16630524003825465871
543368 44 18342739607297870897
5758199 1 18260831501134080602
59682541 35 17894634781015697049
59755656 215 13182744732000124996

> <PUBCHEM_SHAPE_MULTIPOLES>
404.76
19.99
1.49
1.25
16.38
0.3
0.11
12.96
0.41
0.78
0.18
-0.4
-0.16
-0.71

> <PUBCHEM_SHAPE_SELFOVERLAP>
818.795

> <PUBCHEM_SHAPE_VOLUME>
238.5

> <PUBCHEM_COORDINATE_TYPE>
2
5
10

$$$$
