28962208
  -OEChem-12032416363D

 66 68  0     1  0  0  0  0  0999 V2000
   -2.0537    3.0311    0.6570 O   0  0  0  0  0  0  0  0  0  0  0  0
   -4.3880    2.7418   -1.1965 O   0  0  0  0  0  0  0  0  0  0  0  0
   -2.5027    5.7916    0.9444 O   0  0  0  0  0  0  0  0  0  0  0  0
    0.7214   -0.3458   -0.1509 O   0  0  0  0  0  0  0  0  0  0  0  0
    4.9362   -2.2110    0.8531 O   0  0  0  0  0  0  0  0  0  0  0  0
    6.9482    1.9515   -0.3337 O   0  0  0  0  0  0  0  0  0  0  0  0
   -4.0925    0.0872   -0.1535 N   0  0  1  0  0  0  0  0  0  0  0  0
   -0.1142    1.6782   -0.8966 N   0  0  0  0  0  0  0  0  0  0  0  0
    2.1627    1.4491   -0.6112 N   0  0  0  0  0  0  0  0  0  0  0  0
   -3.6383    1.2566    0.5785 C   0  0  1  0  0  0  0  0  0  0  0  0
   -2.1505    1.6052    0.4436 C   0  0  1  0  0  0  0  0  0  0  0  0
   -4.3305    2.5605    0.2124 C   0  0  1  0  0  0  0  0  0  0  0  0
   -3.3770    3.5706    0.8394 C   0  0  2  0  0  0  0  0  0  0  0  0
   -1.4968    1.3040   -0.9004 C   0  0  0  0  0  0  0  0  0  0  0  0
   -3.4319    4.9705    0.2555 C   0  0  0  0  0  0  0  0  0  0  0  0
   -3.3236   -1.1006    0.2312 C   0  0  0  0  0  0  0  0  0  0  0  0
   -5.5226   -0.1460    0.0707 C   0  0  0  0  0  0  0  0  0  0  0  0
   -3.4674   -2.2081   -0.8132 C   0  0  0  0  0  0  0  0  0  0  0  0
   -2.6989   -3.4442   -0.4187 C   0  0  0  0  0  0  0  0  0  0  0  0
    0.9232    0.8104   -0.5144 C   0  0  0  0  0  0  0  0  0  0  0  0
   -1.3704   -3.5954   -0.8159 C   0  0  0  0  0  0  0  0  0  0  0  0
   -3.3162   -4.4360    0.3433 C   0  0  0  0  0  0  0  0  0  0  0  0
   -0.6591   -4.7386   -0.4513 C   0  0  0  0  0  0  0  0  0  0  0  0
   -2.6051   -5.5792    0.7079 C   0  0  0  0  0  0  0  0  0  0  0  0
    3.4393    0.9158   -0.3175 C   0  0  0  0  0  0  0  0  0  0  0  0
   -1.2765   -5.7305    0.3107 C   0  0  0  0  0  0  0  0  0  0  0  0
    4.5780    1.7063   -0.4725 C   0  0  0  0  0  0  0  0  0  0  0  0
    3.5596   -0.4006    0.1282 C   0  0  0  0  0  0  0  0  0  0  0  0
    4.8186   -0.9264    0.4185 C   0  0  0  0  0  0  0  0  0  0  0  0
    5.8369    1.1805   -0.1821 C   0  0  0  0  0  0  0  0  0  0  0  0
    5.9572   -0.1360    0.2634 C   0  0  0  0  0  0  0  0  0  0  0  0
    3.7312   -2.9629    0.9891 C   0  0  0  0  0  0  0  0  0  0  0  0
    8.2034    1.3504   -0.0188 C   0  0  0  0  0  0  0  0  0  0  0  0
   -3.8198    1.0968    1.6539 H   0  0  0  0  0  0  0  0  0  0  0  0
   -1.5768    1.1220    1.2444 H   0  0  0  0  0  0  0  0  0  0  0  0
   -5.3429    2.6495    0.6194 H   0  0  0  0  0  0  0  0  0  0  0  0
   -3.5327    3.6153    1.9251 H   0  0  0  0  0  0  0  0  0  0  0  0
   -1.9591    1.9010   -1.6937 H   0  0  0  0  0  0  0  0  0  0  0  0
   -1.5587    0.2573   -1.2004 H   0  0  0  0  0  0  0  0  0  0  0  0
   -4.4320    5.4017    0.3611 H   0  0  0  0  0  0  0  0  0  0  0  0
   -3.1407    4.9743   -0.7997 H   0  0  0  0  0  0  0  0  0  0  0  0
   -2.2556   -0.9080    0.3650 H   0  0  0  0  0  0  0  0  0  0  0  0
   -3.6578   -1.4647    1.2137 H   0  0  0  0  0  0  0  0  0  0  0  0
   -5.8937   -1.0053   -0.4949 H   0  0  0  0  0  0  0  0  0  0  0  0
   -6.1238    0.6980   -0.2834 H   0  0  0  0  0  0  0  0  0  0  0  0
   -5.7549   -0.3099    1.1296 H   0  0  0  0  0  0  0  0  0  0  0  0
   -4.9300    3.5301   -1.3697 H   0  0  0  0  0  0  0  0  0  0  0  0
   -4.5120   -2.4982   -0.9699 H   0  0  0  0  0  0  0  0  0  0  0  0
   -3.1091   -1.8544   -1.7891 H   0  0  0  0  0  0  0  0  0  0  0  0
    0.1268    2.6249   -1.1734 H   0  0  0  0  0  0  0  0  0  0  0  0
   -2.5614    6.6803    0.5541 H   0  0  0  0  0  0  0  0  0  0  0  0
   -0.8777   -2.8281   -1.4072 H   0  0  0  0  0  0  0  0  0  0  0  0
   -4.3500   -4.3285    0.6608 H   0  0  0  0  0  0  0  0  0  0  0  0
    2.1544    2.4145   -0.9306 H   0  0  0  0  0  0  0  0  0  0  0  0
    0.3758   -4.8555   -0.7593 H   0  0  0  0  0  0  0  0  0  0  0  0
   -3.0855   -6.3513    1.3018 H   0  0  0  0  0  0  0  0  0  0  0  0
   -0.7226   -6.6204    0.5952 H   0  0  0  0  0  0  0  0  0  0  0  0
    4.4920    2.7334   -0.8194 H   0  0  0  0  0  0  0  0  0  0  0  0
    2.6863   -1.0148    0.2496 H   0  0  0  0  0  0  0  0  0  0  0  0
    6.9068   -0.6018    0.5052 H   0  0  0  0  0  0  0  0  0  0  0  0
    3.0696   -2.5334    1.7492 H   0  0  0  0  0  0  0  0  0  0  0  0
    3.2294   -3.1018    0.0252 H   0  0  0  0  0  0  0  0  0  0  0  0
    4.0136   -3.9598    1.3439 H   0  0  0  0  0  0  0  0  0  0  0  0
    8.4232    0.5064   -0.6815 H   0  0  0  0  0  0  0  0  0  0  0  0
    8.2633    1.0745    1.0395 H   0  0  0  0  0  0  0  0  0  0  0  0
    8.9765    2.1051   -0.1962 H   0  0  0  0  0  0  0  0  0  0  0  0
  1 11  1  0  0  0  0
  1 13  1  0  0  0  0
  2 12  1  0  0  0  0
  2 47  1  0  0  0  0
  3 15  1  0  0  0  0
  3 51  1  0  0  0  0
  4 20  2  0  0  0  0
  5 29  1  0  0  0  0
  5 32  1  0  0  0  0
  6 30  1  0  0  0  0
  6 33  1  0  0  0  0
  7 10  1  0  0  0  0
  7 16  1  0  0  0  0
  7 17  1  0  0  0  0
  8 14  1  0  0  0  0
  8 20  1  0  0  0  0
  8 50  1  0  0  0  0
  9 20  1  0  0  0  0
  9 25  1  0  0  0  0
  9 54  1  0  0  0  0
 10 11  1  0  0  0  0
 10 12  1  0  0  0  0
 10 34  1  0  0  0  0
 11 14  1  0  0  0  0
 11 35  1  0  0  0  0
 12 13  1  0  0  0  0
 12 36  1  0  0  0  0
 13 15  1  0  0  0  0
 13 37  1  0  0  0  0
 14 38  1  0  0  0  0
 14 39  1  0  0  0  0
 15 40  1  0  0  0  0
 15 41  1  0  0  0  0
 16 18  1  0  0  0  0
 16 42  1  0  0  0  0
 16 43  1  0  0  0  0
 17 44  1  0  0  0  0
 17 45  1  0  0  0  0
 17 46  1  0  0  0  0
 18 19  1  0  0  0  0
 18 48  1  0  0  0  0
 18 49  1  0  0  0  0
 19 21  2  0  0  0  0
 19 22  1  0  0  0  0
 21 23  1  0  0  0  0
 21 52  1  0  0  0  0
 22 24  2  0  0  0  0
 22 53  1  0  0  0  0
 23 26  2  0  0  0  0
 23 55  1  0  0  0  0
 24 26  1  0  0  0  0
 24 56  1  0  0  0  0
 25 27  2  0  0  0  0
 25 28  1  0  0  0  0
 26 57  1  0  0  0  0
 27 30  1  0  0  0  0
 27 58  1  0  0  0  0
 28 29  2  0  0  0  0
 28 59  1  0  0  0  0
 29 31  1  0  0  0  0
 30 31  2  0  0  0  0
 31 60  1  0  0  0  0
 32 61  1  0  0  0  0
 32 62  1  0  0  0  0
 32 63  1  0  0  0  0
 33 64  1  0  0  0  0
 33 65  1  0  0  0  0
 33 66  1  0  0  0  0
M  END
> <PUBCHEM_COMPOUND_CID>
28962208

> <PUBCHEM_CONFORMER_RMSD>
1.2

> <PUBCHEM_CONFORMER_DIVERSEORDER>
1
33
48
27
15
43
28
35
9
19
30
46
22
40
44
57
58
39
60
21
45
47
31
20
26
32
54
37
3
16
14
11
62
41
38
7
4
12
53
29
25
61
23
17
5
42
13
10
36
50
55
49
24
56
52
2
51
18
59
34
8
6

> <PUBCHEM_MMFF94_PARTIAL_CHARGES>
45
1 -0.56
10 0.27
11 0.28
12 0.28
13 0.28
14 0.3
15 0.28
16 0.27
17 0.27
18 0.14
19 -0.14
2 -0.68
20 0.69
21 -0.15
22 -0.15
23 -0.15
24 -0.15
25 0.12
26 -0.15
27 -0.15
28 -0.15
29 0.08
3 -0.68
30 0.08
31 -0.15
32 0.28
33 0.28
4 -0.57
47 0.4
5 -0.36
50 0.37
51 0.4
52 0.15
53 0.15
54 0.37
55 0.15
56 0.15
57 0.15
58 0.15
59 0.15
6 -0.36
60 0.15
7 -0.81
8 -0.73
9 -0.55

> <PUBCHEM_EFFECTIVE_ROTOR_COUNT>
13

> <PUBCHEM_PHARMACOPHORE_FEATURES>
14
1 1 acceptor
1 2 acceptor
1 2 donor
1 3 acceptor
1 3 donor
1 4 acceptor
1 5 acceptor
1 6 acceptor
1 7 cation
1 8 donor
1 9 donor
5 1 10 11 12 13 rings
6 19 21 22 23 24 26 rings
6 25 27 28 29 30 31 rings

> <PUBCHEM_HEAVY_ATOM_COUNT>
33

> <PUBCHEM_ATOM_DEF_STEREO_COUNT>
4

> <PUBCHEM_ATOM_UDEF_STEREO_COUNT>
0

> <PUBCHEM_BOND_DEF_STEREO_COUNT>
0

> <PUBCHEM_BOND_UDEF_STEREO_COUNT>
0

> <PUBCHEM_ISOTOPIC_ATOM_COUNT>
0

> <PUBCHEM_COMPONENT_COUNT>
1

> <PUBCHEM_CACTVS_TAUTO_COUNT>
3

> <PUBCHEM_CONFORMER_ID>
01B9EDA000000001

> <PUBCHEM_MMFF94_ENERGY>
108.899

> <PUBCHEM_FEATURE_SELFOVERLAP>
71.104

> <PUBCHEM_SHAPE_FINGERPRINT>
10290309 65 18050572845964155293
10319688 45 18266179607275193877
11513181 2 18202563969179765566
12107183 9 17832704565691509008
12788726 201 18341038722438759351
12969540 37 17328863713318670629
13631057 29 18266175222303190014
14251757 5 18340203097928057667
14394314 77 18340491179313198651
14784336 7 17760100900837990868
14790565 3 18194402195201895771
14844126 61 18265057001893000459
14856354 85 18270688678706678980
15250474 111 18335975433228352850
15320467 1 18410574015306399754
15351339 4 18044071657269111171
15400415 2 18266741273133919304
15439362 3 17615684034744280757
16628084 112 18410000040942537527
16719943 64 18410854356881255687
20580484 21 16970269535970366009
21133410 171 17260129818299512134
22956985 138 17402612347444870601
229767 44 18408885114112263035
4616759 239 18272640269524062816
5265222 85 18340205202767936089
563151 97 18194957449302222253
653340 110 18267577078459976658
79837 15 18412550877331226427
9981440 41 18265904549538624305

> <PUBCHEM_SHAPE_MULTIPOLES>
628.97
15.48
8.75
0.92
33.27
5.2
0.02
-6.53
-0.67
-14.51
-1.86
-0.25
-0.03
-1.56

> <PUBCHEM_SHAPE_SELFOVERLAP>
1315.281

> <PUBCHEM_SHAPE_VOLUME>
355.7

> <PUBCHEM_COORDINATE_TYPE>
2
5
10

$$$$
