7135168
  -OEChem-12032416133D

 76 79  0     1  0  0  0  0  0999 V2000
    0.0508    2.8995   -0.6358 S   0  0  0  0  0  0  0  0  0  0  0  0
   -7.1138   -0.3034   -0.8250 O   0  0  0  0  0  0  0  0  0  0  0  0
   -7.0480    2.0406   -0.3289 O   0  0  0  0  0  0  0  0  0  0  0  0
    1.4135   -1.3884    2.3277 O   0  0  0  0  0  0  0  0  0  0  0  0
    0.5159   -4.7208   -1.4223 O   0  0  0  0  0  0  0  0  0  0  0  0
    3.5983    0.2680    0.8349 O   0  0  0  0  0  0  0  0  0  0  0  0
    4.8922    3.2619   -0.3846 O   0  0  0  0  0  0  0  0  0  0  0  0
    0.6931    0.6201    0.4056 N   0  0  0  0  0  0  0  0  0  0  0  0
    0.4687   -2.6644    0.6305 N   0  0  0  0  0  0  0  0  0  0  0  0
    2.4981    2.1437   -0.0741 N   0  0  0  0  0  0  0  0  0  0  0  0
   -3.0717   -0.1147    0.7981 C   0  0  2  0  0  0  0  0  0  0  0  0
   -3.4533    0.7418   -0.4888 C   0  0  1  0  0  0  0  0  0  0  0  0
   -4.9893    0.9232   -0.7984 C   0  0  1  0  0  0  0  0  0  0  0  0
   -1.5345   -0.5329    0.6740 C   0  0  1  0  0  0  0  0  0  0  0  0
   -3.9287   -1.4068    0.8303 C   0  0  0  0  0  0  0  0  0  0  0  0
   -5.7021   -0.4535   -0.6779 C   0  0  1  0  0  0  0  0  0  0  0  0
   -2.6404    2.0678   -0.5510 C   0  0  0  0  0  0  0  0  0  0  0  0
   -5.4192   -1.1632    0.6416 C   0  0  0  0  0  0  0  0  0  0  0  0
   -3.2895    0.6592    2.1218 C   0  0  0  0  0  0  0  0  0  0  0  0
   -0.6830    0.6447    0.2741 C   0  0  0  0  0  0  0  0  0  0  0  0
   -5.6965    1.9874    0.0695 C   0  0  0  0  0  0  0  0  0  0  0  0
   -5.1570    1.4035   -2.2678 C   0  0  0  0  0  0  0  0  0  0  0  0
   -1.1977    1.7940   -0.2904 C   0  0  0  0  0  0  0  0  0  0  0  0
   -0.9651   -1.2442    1.9089 C   0  0  0  0  0  0  0  0  0  0  0  0
    0.4392   -1.7506    1.6738 C   0  0  0  0  0  0  0  0  0  0  0  0
    1.1845    1.7580   -0.0347 C   0  0  0  0  0  0  0  0  0  0  0  0
    1.6803   -3.3115    0.1817 C   0  0  2  0  0  0  0  0  0  0  0  0
    2.3719   -2.4850   -0.9171 C   0  0  0  0  0  0  0  0  0  0  0  0
    1.3705   -4.7372   -0.2863 C   0  0  0  0  0  0  0  0  0  0  0  0
    3.6069    1.3952    0.3527 C   0  0  0  0  0  0  0  0  0  0  0  0
    3.7489   -3.0190   -1.3674 C   0  0  0  0  0  0  0  0  0  0  0  0
    4.9282    2.0508    0.1639 C   0  0  0  0  0  0  0  0  0  0  0  0
    4.3864   -2.1541   -2.4555 C   0  0  0  0  0  0  0  0  0  0  0  0
    4.6885   -3.1017   -0.1605 C   0  0  0  0  0  0  0  0  0  0  0  0
    6.1482    1.6028    0.4644 C   0  0  0  0  0  0  0  0  0  0  0  0
    7.0089    2.6515    0.0614 C   0  0  0  0  0  0  0  0  0  0  0  0
    6.1967    3.6376   -0.4483 C   0  0  0  0  0  0  0  0  0  0  0  0
   -3.0816    0.1331   -1.3315 H   0  0  0  0  0  0  0  0  0  0  0  0
   -1.4808   -1.2134   -0.1869 H   0  0  0  0  0  0  0  0  0  0  0  0
   -3.5918   -2.0902    0.0395 H   0  0  0  0  0  0  0  0  0  0  0  0
   -3.7844   -1.9413    1.7767 H   0  0  0  0  0  0  0  0  0  0  0  0
   -5.3663   -1.1121   -1.4903 H   0  0  0  0  0  0  0  0  0  0  0  0
   -2.7464    2.5299   -1.5381 H   0  0  0  0  0  0  0  0  0  0  0  0
   -3.0061    2.7852    0.1911 H   0  0  0  0  0  0  0  0  0  0  0  0
   -5.8393   -0.6010    1.4829 H   0  0  0  0  0  0  0  0  0  0  0  0
   -5.9481   -2.1249    0.6522 H   0  0  0  0  0  0  0  0  0  0  0  0
   -3.0458    0.0355    2.9889 H   0  0  0  0  0  0  0  0  0  0  0  0
   -4.3233    0.9587    2.2753 H   0  0  0  0  0  0  0  0  0  0  0  0
   -2.6705    1.5582    2.1894 H   0  0  0  0  0  0  0  0  0  0  0  0
   -5.2573    2.9839   -0.0402 H   0  0  0  0  0  0  0  0  0  0  0  0
   -5.7003    1.7381    1.1268 H   0  0  0  0  0  0  0  0  0  0  0  0
   -6.1960    1.3993   -2.6114 H   0  0  0  0  0  0  0  0  0  0  0  0
   -4.5994    0.7560   -2.9548 H   0  0  0  0  0  0  0  0  0  0  0  0
   -4.7847    2.4244   -2.4040 H   0  0  0  0  0  0  0  0  0  0  0  0
   -1.5815   -2.1013    2.1991 H   0  0  0  0  0  0  0  0  0  0  0  0
   -0.9150   -0.5651    2.7682 H   0  0  0  0  0  0  0  0  0  0  0  0
   -7.3049   -0.1643   -1.7671 H   0  0  0  0  0  0  0  0  0  0  0  0
   -7.1208    2.6712   -1.0651 H   0  0  0  0  0  0  0  0  0  0  0  0
   -0.3955   -2.9011    0.1556 H   0  0  0  0  0  0  0  0  0  0  0  0
    2.6651    3.0695   -0.4603 H   0  0  0  0  0  0  0  0  0  0  0  0
    2.3347   -3.3776    1.0569 H   0  0  0  0  0  0  0  0  0  0  0  0
    1.7138   -2.4167   -1.7937 H   0  0  0  0  0  0  0  0  0  0  0  0
    2.4869   -1.4534   -0.5698 H   0  0  0  0  0  0  0  0  0  0  0  0
    0.8672   -5.3044    0.5050 H   0  0  0  0  0  0  0  0  0  0  0  0
    2.2793   -5.2855   -0.5482 H   0  0  0  0  0  0  0  0  0  0  0  0
    3.6319   -4.0243   -1.7872 H   0  0  0  0  0  0  0  0  0  0  0  0
    3.7338   -2.0966   -3.3328 H   0  0  0  0  0  0  0  0  0  0  0  0
    4.5624   -1.1339   -2.0976 H   0  0  0  0  0  0  0  0  0  0  0  0
    5.3458   -2.5724   -2.7775 H   0  0  0  0  0  0  0  0  0  0  0  0
    4.7451   -2.1487    0.3743 H   0  0  0  0  0  0  0  0  0  0  0  0
    5.7034   -3.3622   -0.4815 H   0  0  0  0  0  0  0  0  0  0  0  0
    4.3778   -3.8786    0.5440 H   0  0  0  0  0  0  0  0  0  0  0  0
   -0.3500   -4.3828   -1.1402 H   0  0  0  0  0  0  0  0  0  0  0  0
    6.4275    0.6596    0.9112 H   0  0  0  0  0  0  0  0  0  0  0  0
    8.0865    2.6846    0.1333 H   0  0  0  0  0  0  0  0  0  0  0  0
    6.3818    4.6135   -0.8731 H   0  0  0  0  0  0  0  0  0  0  0  0
  1 23  1  0  0  0  0
  1 26  1  0  0  0  0
  2 16  1  0  0  0  0
  2 57  1  0  0  0  0
  3 21  1  0  0  0  0
  3 58  1  0  0  0  0
  4 25  2  0  0  0  0
  5 29  1  0  0  0  0
  5 73  1  0  0  0  0
  6 30  2  0  0  0  0
  7 32  1  0  0  0  0
  7 37  1  0  0  0  0
  8 20  1  0  0  0  0
  8 26  2  0  0  0  0
  9 25  1  0  0  0  0
  9 27  1  0  0  0  0
  9 59  1  0  0  0  0
 10 26  1  0  0  0  0
 10 30  1  0  0  0  0
 10 60  1  0  0  0  0
 11 12  1  0  0  0  0
 11 14  1  0  0  0  0
 11 15  1  0  0  0  0
 11 19  1  0  0  0  0
 12 13  1  0  0  0  0
 12 17  1  0  0  0  0
 12 38  1  0  0  0  0
 13 16  1  0  0  0  0
 13 21  1  0  0  0  0
 13 22  1  0  0  0  0
 14 20  1  0  0  0  0
 14 24  1  0  0  0  0
 14 39  1  0  0  0  0
 15 18  1  0  0  0  0
 15 40  1  0  0  0  0
 15 41  1  0  0  0  0
 16 18  1  0  0  0  0
 16 42  1  0  0  0  0
 17 23  1  0  0  0  0
 17 43  1  0  0  0  0
 17 44  1  0  0  0  0
 18 45  1  0  0  0  0
 18 46  1  0  0  0  0
 19 47  1  0  0  0  0
 19 48  1  0  0  0  0
 19 49  1  0  0  0  0
 20 23  2  0  0  0  0
 21 50  1  0  0  0  0
 21 51  1  0  0  0  0
 22 52  1  0  0  0  0
 22 53  1  0  0  0  0
 22 54  1  0  0  0  0
 24 25  1  0  0  0  0
 24 55  1  0  0  0  0
 24 56  1  0  0  0  0
 27 28  1  0  0  0  0
 27 29  1  0  0  0  0
 27 61  1  0  0  0  0
 28 31  1  0  0  0  0
 28 62  1  0  0  0  0
 28 63  1  0  0  0  0
 29 64  1  0  0  0  0
 29 65  1  0  0  0  0
 30 32  1  0  0  0  0
 31 33  1  0  0  0  0
 31 34  1  0  0  0  0
 31 66  1  0  0  0  0
 32 35  2  0  0  0  0
 33 67  1  0  0  0  0
 33 68  1  0  0  0  0
 33 69  1  0  0  0  0
 34 70  1  0  0  0  0
 34 71  1  0  0  0  0
 34 72  1  0  0  0  0
 35 36  1  0  0  0  0
 35 74  1  0  0  0  0
 36 37  2  0  0  0  0
 36 75  1  0  0  0  0
 37 76  1  0  0  0  0
M  END
> <PUBCHEM_COMPOUND_CID>
7135168

> <PUBCHEM_CONFORMER_RMSD>
1.2

> <PUBCHEM_CONFORMER_DIVERSEORDER>
1
2
9
4
11
5
10
7
12
8
3
6
16
13
14
15

> <PUBCHEM_MMFF94_PARTIAL_CHARGES>
34
1 -0.08
10 -0.49
14 0.18
16 0.28
17 0.18
2 -0.68
20 0.05
21 0.28
23 -0.14
24 0.06
25 0.57
26 0.44
27 0.3
29 0.28
3 -0.68
30 0.71
32 0.05
35 -0.15
36 -0.15
37 -0.01
4 -0.57
5 -0.68
57 0.4
58 0.4
59 0.37
6 -0.57
60 0.37
7 -0.28
73 0.4
74 0.15
75 0.15
76 0.15
8 -0.57
9 -0.73

> <PUBCHEM_EFFECTIVE_ROTOR_COUNT>
12.2

> <PUBCHEM_PHARMACOPHORE_FEATURES>
16
1 10 donor
1 2 acceptor
1 2 donor
1 3 acceptor
1 3 donor
1 4 acceptor
1 5 acceptor
1 5 donor
1 6 acceptor
1 7 acceptor
1 9 donor
3 31 33 34 hydrophobe
5 1 8 20 23 26 rings
5 7 32 35 36 37 rings
6 11 12 13 15 16 18 rings
6 11 12 14 17 20 23 rings

> <PUBCHEM_HEAVY_ATOM_COUNT>
37

> <PUBCHEM_ATOM_DEF_STEREO_COUNT>
6

> <PUBCHEM_ATOM_UDEF_STEREO_COUNT>
0

> <PUBCHEM_BOND_DEF_STEREO_COUNT>
0

> <PUBCHEM_BOND_UDEF_STEREO_COUNT>
0

> <PUBCHEM_ISOTOPIC_ATOM_COUNT>
0

> <PUBCHEM_COMPONENT_COUNT>
1

> <PUBCHEM_CACTVS_TAUTO_COUNT>
6

> <PUBCHEM_CONFORMER_ID>
006CDFC000000001

> <PUBCHEM_MMFF94_ENERGY>
100.1642

> <PUBCHEM_FEATURE_SELFOVERLAP>
81.348

> <PUBCHEM_SHAPE_FINGERPRINT>
10906281 52 18114191851346061185
11135609 187 18412543244858246360
11135926 11 18409157810444826885
11524674 6 18340204219288775820
11719270 70 18411975884621972384
12522641 33 18411418449184981012
12597179 24 18337112358321194174
13402501 40 18261110811500313984
1361 2 18412543228110335028
13811026 1 18335137609061256231
14068700 686 18408600344843363532
14725015 67 18189611645474530450
15324884 4 18045817643321627434
15927050 60 18269835475164379470
17909252 39 18267869371820989139
18681886 176 18117550949700627129
19315958 150 18409450242426785749
20554085 129 17987785428476710920
20642791 35 18190181183501387433
20775438 99 18341887515266658254
21133665 82 18187927326978843616
21344244 246 18412261774281841903
23559900 14 18338511924785625811
27425 322 17313954164274720868
3298306 158 18339648936173653332
3411729 13 18260542312200843360
38695281 34 18338795718685953994
4017518 198 18270126833319326094
4093350 32 18202280269050213609
46194498 28 18340200769918451350
5085150 59 18336255860016850224
5265222 85 17976830001749529108
59755656 215 18409449206616428636
6669772 16 18412546539493599982

> <PUBCHEM_SHAPE_MULTIPOLES>
715.13
16.15
5.38
1.66
3.58
4.4
-0.03
-11.88
-3.97
-8.9
-1.66
0.48
0.88
2.17

> <PUBCHEM_SHAPE_SELFOVERLAP>
1497.72

> <PUBCHEM_SHAPE_VOLUME>
408.4

> <PUBCHEM_COORDINATE_TYPE>
2
5
10

$$$$
