71694015
  -OEChem-12032416273D

 45 47  0     1  0  0  0  0  0999 V2000
    0.1504    2.1094   -0.9152 S   0  0  0  0  0  0  0  0  0  0  0  0
   -4.9123   -1.0158    2.1506 F   0  0  0  0  0  0  0  0  0  0  0  0
   -6.0619    0.4144    0.9842 F   0  0  0  0  0  0  0  0  0  0  0  0
   -5.4446   -1.4627    0.0903 F   0  0  0  0  0  0  0  0  0  0  0  0
   -0.7793   -1.7618   -1.2383 O   0  0  0  0  0  0  0  0  0  0  0  0
    1.1196   -3.0981    0.2264 O   0  0  0  0  0  0  0  0  0  0  0  0
   -0.1788    3.1405   -1.8807 O   0  0  0  0  0  0  0  0  0  0  0  0
    0.9025    2.4422    0.2795 O   0  0  0  0  0  0  0  0  0  0  0  0
    0.9215    0.8193   -1.7064 N   0  0  0  0  0  0  0  0  0  0  0  0
    1.2423   -0.4196   -0.9593 C   0  0  2  0  0  0  0  0  0  0  0  0
    2.7492   -0.7330   -1.0673 C   0  0  2  0  0  0  0  0  0  0  0  0
    0.5749   -1.6199   -1.6243 C   0  0  1  0  0  0  0  0  0  0  0  0
    2.8475   -2.2732   -1.2200 C   0  0  0  0  0  0  0  0  0  0  0  0
    1.4137   -2.7940   -1.1336 C   0  0  1  0  0  0  0  0  0  0  0  0
    3.5536   -0.1685    0.0848 C   0  0  0  0  0  0  0  0  0  0  0  0
    4.0771    1.1218    0.0040 C   0  0  0  0  0  0  0  0  0  0  0  0
    3.7711   -0.9392    1.2266 C   0  0  0  0  0  0  0  0  0  0  0  0
   -1.3592    1.3597   -0.3826 C   0  0  0  0  0  0  0  0  0  0  0  0
    4.8182    1.6416    1.0654 C   0  0  0  0  0  0  0  0  0  0  0  0
    4.5121   -0.4197    2.2881 C   0  0  0  0  0  0  0  0  0  0  0  0
    5.0358    0.8707    2.2073 C   0  0  0  0  0  0  0  0  0  0  0  0
   -1.4276    0.7419    0.8662 C   0  0  0  0  0  0  0  0  0  0  0  0
   -2.4814    1.3851   -1.2106 C   0  0  0  0  0  0  0  0  0  0  0  0
   -2.6182    0.1494    1.2868 C   0  0  0  0  0  0  0  0  0  0  0  0
   -3.6721    0.7927   -0.7899 C   0  0  0  0  0  0  0  0  0  0  0  0
   -3.7405    0.1749    0.4588 C   0  0  0  0  0  0  0  0  0  0  0  0
   -5.0137   -0.4580    0.9091 C   0  0  0  0  0  0  0  0  0  0  0  0
    0.9416   -0.3379    0.0887 H   0  0  0  0  0  0  0  0  0  0  0  0
    3.1608   -0.3015   -1.9919 H   0  0  0  0  0  0  0  0  0  0  0  0
    0.6220   -1.5434   -2.7179 H   0  0  0  0  0  0  0  0  0  0  0  0
    3.2172   -2.4755   -2.2350 H   0  0  0  0  0  0  0  0  0  0  0  0
    3.5360   -2.7862   -0.5452 H   0  0  0  0  0  0  0  0  0  0  0  0
    1.2471   -3.6986   -1.7261 H   0  0  0  0  0  0  0  0  0  0  0  0
    0.9545    0.7798   -2.7320 H   0  0  0  0  0  0  0  0  0  0  0  0
   -1.1070   -2.5928   -1.6222 H   0  0  0  0  0  0  0  0  0  0  0  0
    1.7086   -3.8230    0.4971 H   0  0  0  0  0  0  0  0  0  0  0  0
    3.9134    1.7333   -0.8793 H   0  0  0  0  0  0  0  0  0  0  0  0
    3.3491   -1.9303    1.3518 H   0  0  0  0  0  0  0  0  0  0  0  0
    5.2247    2.6467    1.0031 H   0  0  0  0  0  0  0  0  0  0  0  0
    4.6735   -1.0156    3.1817 H   0  0  0  0  0  0  0  0  0  0  0  0
    5.6106    1.2762    3.0348 H   0  0  0  0  0  0  0  0  0  0  0  0
   -0.5705    0.7141    1.5328 H   0  0  0  0  0  0  0  0  0  0  0  0
   -2.4470    1.8547   -2.1895 H   0  0  0  0  0  0  0  0  0  0  0  0
   -2.6509   -0.3257    2.2633 H   0  0  0  0  0  0  0  0  0  0  0  0
   -4.5408    0.8159   -1.4425 H   0  0  0  0  0  0  0  0  0  0  0  0
  1  7  2  0  0  0  0
  1  8  2  0  0  0  0
  1  9  1  0  0  0  0
  1 18  1  0  0  0  0
  2 27  1  0  0  0  0
  3 27  1  0  0  0  0
  4 27  1  0  0  0  0
  5 12  1  0  0  0  0
  5 35  1  0  0  0  0
  6 14  1  0  0  0  0
  6 36  1  0  0  0  0
  9 10  1  0  0  0  0
  9 34  1  0  0  0  0
 10 11  1  0  0  0  0
 10 12  1  0  0  0  0
 10 28  1  0  0  0  0
 11 13  1  0  0  0  0
 11 15  1  0  0  0  0
 11 29  1  0  0  0  0
 12 14  1  0  0  0  0
 12 30  1  0  0  0  0
 13 14  1  0  0  0  0
 13 31  1  0  0  0  0
 13 32  1  0  0  0  0
 14 33  1  0  0  0  0
 15 16  2  0  0  0  0
 15 17  1  0  0  0  0
 16 19  1  0  0  0  0
 16 37  1  0  0  0  0
 17 20  2  0  0  0  0
 17 38  1  0  0  0  0
 18 22  2  0  0  0  0
 18 23  1  0  0  0  0
 19 21  2  0  0  0  0
 19 39  1  0  0  0  0
 20 21  1  0  0  0  0
 20 40  1  0  0  0  0
 21 41  1  0  0  0  0
 22 24  1  0  0  0  0
 22 42  1  0  0  0  0
 23 25  2  0  0  0  0
 23 43  1  0  0  0  0
 24 26  2  0  0  0  0
 24 44  1  0  0  0  0
 25 26  1  0  0  0  0
 25 45  1  0  0  0  0
 26 27  1  0  0  0  0
M  END
> <PUBCHEM_COMPOUND_CID>
71694015

> <PUBCHEM_CONFORMER_RMSD>
0.8

> <PUBCHEM_CONFORMER_DIVERSEORDER>
4
16
18
17
7
12
13
15
8
5
19
1
2
14
11
10
3
9
6

> <PUBCHEM_MMFF94_PARTIAL_CHARGES>
38
1 1.45
10 0.36
11 0.14
12 0.28
14 0.28
15 -0.14
16 -0.15
17 -0.15
18 -0.01
19 -0.15
2 -0.34
20 -0.15
21 -0.15
22 -0.15
23 -0.15
24 -0.15
25 -0.15
26 -0.14
27 1.16
3 -0.34
34 0.42
35 0.4
36 0.4
37 0.15
38 0.15
39 0.15
4 -0.34
40 0.15
41 0.15
42 0.15
43 0.15
44 0.15
45 0.15
5 -0.68
6 -0.68
7 -0.65
8 -0.65
9 -0.91

> <PUBCHEM_EFFECTIVE_ROTOR_COUNT>
6

> <PUBCHEM_PHARMACOPHORE_FEATURES>
10
1 5 acceptor
1 5 donor
1 6 acceptor
1 6 donor
1 7 acceptor
1 8 acceptor
1 9 donor
5 10 11 12 13 14 rings
6 15 16 17 19 20 21 rings
6 18 22 23 24 25 26 rings

> <PUBCHEM_HEAVY_ATOM_COUNT>
27

> <PUBCHEM_ATOM_DEF_STEREO_COUNT>
4

> <PUBCHEM_ATOM_UDEF_STEREO_COUNT>
0

> <PUBCHEM_BOND_DEF_STEREO_COUNT>
0

> <PUBCHEM_BOND_UDEF_STEREO_COUNT>
0

> <PUBCHEM_ISOTOPIC_ATOM_COUNT>
0

> <PUBCHEM_COMPONENT_COUNT>
1

> <PUBCHEM_CACTVS_TAUTO_COUNT>
1

> <PUBCHEM_CONFORMER_ID>
0445F6BF00000004

> <PUBCHEM_MMFF94_ENERGY>
57.6612

> <PUBCHEM_FEATURE_SELFOVERLAP>
50.776

> <PUBCHEM_SHAPE_FINGERPRINT>
10165383 225 18131358531587100776
11112241 14 17202750626785986657
11578080 2 17986392187777160017
11828532 37 16443352035654694571
12363563 72 17749685020844073001
12422481 6 18412260644752642851
12596602 18 16917073261332424595
12633257 1 18059278968358963592
12892183 10 17988650644816098705
12895836 83 12966834784794274616
12895837 130 14259634020215123240
13583140 156 17604686920947336932
14178342 30 18265623073923837053
14223421 5 18122341285839306980
14251751 18 16660646301742053139
14341114 328 16773794800950925227
14429115 67 16588019070249305674
14787075 74 17346592019233967489
14840074 17 18337107985844553260
14848178 5 16081082684205854843
14863182 85 18340222833344812414
14950920 106 17631739244559669723
15183329 4 12757139169892772659
17349148 13 16008755658421951803
1979834 28 18342188755971949351
20261772 1 18411690011651316184
20626108 58 17095249111305964908
21069387 34 15140970517131253888
21304303 282 16665109034756005557
21315764 119 14707200033748746211
21315764 371 17560530585389086747
21756936 100 16128075850464683208
21857420 4 13702950333340945913
22079108 93 17346594213819765896
221357 26 7997973457776957251
23557571 272 18188497848025800845
23559900 14 17899139317225415798
25222932 49 17315937716566566826
2637199 183 13973965411165681592
3027735 51 12108884637644086760
350125 39 18202563956826807326
3729539 64 9871485239185193116
392239 28 17846493746741023418
427121 178 17775288274773615286
4340502 62 17847061094661671843
439807 62 15647913655459361707
463206 1 17095528426262325003
465052 167 18186802495869965584
469060 322 18266154275373115823
49207404 50 18341040810261785540
57527585 21 15117551138999388840
59755656 520 17203319040523344444
6004065 56 18270390707446249605
6442390 28 17917428769978555134
6913067 236 18409157814602241263
7064713 232 18059857298099401201
7808743 9 13398620667280271409
960060 61 11458430111471308978

> <PUBCHEM_SHAPE_MULTIPOLES>
509.22
11.17
2.84
2.05
7.71
0.88
0.48
-0.59
8.31
-1.56
-1.27
-0.54
-0.21
1.6

> <PUBCHEM_SHAPE_SELFOVERLAP>
1083.315

> <PUBCHEM_SHAPE_VOLUME>
286.3

> <PUBCHEM_COORDINATE_TYPE>
2
5
10

$$$$
