75536696
  -OEChem-12032416303D

 46 47  0     1  0  0  0  0  0999 V2000
    2.4509    2.0058    0.0203 S   0  0  0  0  0  0  0  0  0  0  0  0
   -1.7362    0.8009   -1.3525 O   0  0  0  0  0  0  0  0  0  0  0  0
   -2.4737    0.3265    2.1313 O   0  0  0  0  0  0  0  0  0  0  0  0
    2.3546    2.4571    1.3954 O   0  0  0  0  0  0  0  0  0  0  0  0
    3.0961    2.8381   -0.9770 O   0  0  0  0  0  0  0  0  0  0  0  0
   -4.4861   -1.0485    0.1473 N   0  0  0  0  0  0  0  0  0  0  0  0
    0.9046    1.5698   -0.5393 N   0  0  0  0  0  0  0  0  0  0  0  0
   -3.5704    0.0661   -0.0343 C   0  0  1  0  0  0  0  0  0  0  0  0
   -2.2959   -0.0538    0.7806 C   0  0  1  0  0  0  0  0  0  0  0  0
   -1.3801    0.9081    0.0359 C   0  0  1  0  0  0  0  0  0  0  0  0
   -3.0169    0.1530   -1.4472 C   0  0  0  0  0  0  0  0  0  0  0  0
    0.0944    0.5922    0.2134 C   0  0  0  0  0  0  0  0  0  0  0  0
   -5.8094   -0.7316   -0.3765 C   0  0  0  0  0  0  0  0  0  0  0  0
   -6.5759    0.1395    0.6147 C   0  0  0  0  0  0  0  0  0  0  0  0
   -6.5638   -2.0253   -0.6664 C   0  0  0  0  0  0  0  0  0  0  0  0
    3.2896    0.4498    0.0150 C   0  0  0  0  0  0  0  0  0  0  0  0
    3.9766    0.0322   -1.1249 C   0  0  0  0  0  0  0  0  0  0  0  0
    3.2618   -0.3616    1.1493 C   0  0  0  0  0  0  0  0  0  0  0  0
    4.6361   -1.1968   -1.1304 C   0  0  0  0  0  0  0  0  0  0  0  0
    3.9213   -1.5907    1.1437 C   0  0  0  0  0  0  0  0  0  0  0  0
    4.6086   -2.0083    0.0039 C   0  0  0  0  0  0  0  0  0  0  0  0
    5.3138   -3.3224   -0.0021 C   0  0  0  0  0  0  0  0  0  0  0  0
   -4.0412    1.0190    0.2369 H   0  0  0  0  0  0  0  0  0  0  0  0
   -1.9027   -1.0776    0.7503 H   0  0  0  0  0  0  0  0  0  0  0  0
   -1.5694    1.9451    0.3434 H   0  0  0  0  0  0  0  0  0  0  0  0
   -2.8461   -0.8355   -1.8891 H   0  0  0  0  0  0  0  0  0  0  0  0
   -3.6608    0.7253   -2.1216 H   0  0  0  0  0  0  0  0  0  0  0  0
    0.3199   -0.4035   -0.1846 H   0  0  0  0  0  0  0  0  0  0  0  0
    0.3486    0.6191    1.2773 H   0  0  0  0  0  0  0  0  0  0  0  0
   -4.5524   -1.2908    1.1354 H   0  0  0  0  0  0  0  0  0  0  0  0
   -5.7348   -0.1957   -1.3306 H   0  0  0  0  0  0  0  0  0  0  0  0
   -2.8238    1.2332    2.1503 H   0  0  0  0  0  0  0  0  0  0  0  0
    0.7169    1.6220   -1.5483 H   0  0  0  0  0  0  0  0  0  0  0  0
   -6.6659   -0.3472    1.5927 H   0  0  0  0  0  0  0  0  0  0  0  0
   -6.1088    1.1170    0.7657 H   0  0  0  0  0  0  0  0  0  0  0  0
   -7.5921    0.3262    0.2489 H   0  0  0  0  0  0  0  0  0  0  0  0
   -6.7046   -2.6214    0.2423 H   0  0  0  0  0  0  0  0  0  0  0  0
   -6.0224   -2.6403   -1.3940 H   0  0  0  0  0  0  0  0  0  0  0  0
   -7.5538   -1.8117   -1.0837 H   0  0  0  0  0  0  0  0  0  0  0  0
    4.0049    0.6445   -2.0217 H   0  0  0  0  0  0  0  0  0  0  0  0
    2.7310   -0.0573    2.0468 H   0  0  0  0  0  0  0  0  0  0  0  0
    5.1681   -1.5113   -2.0244 H   0  0  0  0  0  0  0  0  0  0  0  0
    3.8935   -2.2136    2.0338 H   0  0  0  0  0  0  0  0  0  0  0  0
    4.8102   -4.0441    0.6501 H   0  0  0  0  0  0  0  0  0  0  0  0
    5.3308   -3.7572   -1.0073 H   0  0  0  0  0  0  0  0  0  0  0  0
    6.3447   -3.1971    0.3434 H   0  0  0  0  0  0  0  0  0  0  0  0
  1  4  2  0  0  0  0
  1  5  2  0  0  0  0
  1  7  1  0  0  0  0
  1 16  1  0  0  0  0
  2 10  1  0  0  0  0
  2 11  1  0  0  0  0
  3  9  1  0  0  0  0
  3 32  1  0  0  0  0
  6  8  1  0  0  0  0
  6 13  1  0  0  0  0
  6 30  1  0  0  0  0
  7 12  1  0  0  0  0
  7 33  1  0  0  0  0
  8  9  1  0  0  0  0
  8 11  1  0  0  0  0
  8 23  1  0  0  0  0
  9 10  1  0  0  0  0
  9 24  1  0  0  0  0
 10 12  1  0  0  0  0
 10 25  1  0  0  0  0
 11 26  1  0  0  0  0
 11 27  1  0  0  0  0
 12 28  1  0  0  0  0
 12 29  1  0  0  0  0
 13 14  1  0  0  0  0
 13 15  1  0  0  0  0
 13 31  1  0  0  0  0
 14 34  1  0  0  0  0
 14 35  1  0  0  0  0
 14 36  1  0  0  0  0
 15 37  1  0  0  0  0
 15 38  1  0  0  0  0
 15 39  1  0  0  0  0
 16 17  2  0  0  0  0
 16 18  1  0  0  0  0
 17 19  1  0  0  0  0
 17 40  1  0  0  0  0
 18 20  2  0  0  0  0
 18 41  1  0  0  0  0
 19 21  2  0  0  0  0
 19 42  1  0  0  0  0
 20 21  1  0  0  0  0
 20 43  1  0  0  0  0
 21 22  1  0  0  0  0
 22 44  1  0  0  0  0
 22 45  1  0  0  0  0
 22 46  1  0  0  0  0
M  END
> <PUBCHEM_COMPOUND_CID>
75536696

> <PUBCHEM_CONFORMER_RMSD>
0.8

> <PUBCHEM_CONFORMER_DIVERSEORDER>
1
74
55
6
105
82
80
27
44
49
51
26
103
108
11
101
72
88
73
84
21
95
107
79
106
7
20
56
75
71
61
43
18
9
54
78
3
47
64
23
94
42
33
100
58
63
96
46
102
93
32
5
8
66
41
60
2
91
29
35
45
36
30
85
77
16
90
24
22
39
104
81
92
70
37
59
34
19
97
68
69
62
52
31
48
98
86
99
65
14
28
57
38
25
76
40
12
4
17
87
15
67
13
53
10
83
50
89

> <PUBCHEM_MMFF94_PARTIAL_CHARGES>
27
1 1.45
10 0.28
11 0.28
12 0.36
13 0.27
16 -0.01
17 -0.15
18 -0.15
19 -0.15
2 -0.56
20 -0.15
21 -0.14
22 0.14
3 -0.68
30 0.36
32 0.4
33 0.42
4 -0.65
40 0.15
41 0.15
42 0.15
43 0.15
5 -0.65
6 -0.9
7 -0.91
8 0.27
9 0.28

> <PUBCHEM_EFFECTIVE_ROTOR_COUNT>
7

> <PUBCHEM_PHARMACOPHORE_FEATURES>
11
1 2 acceptor
1 3 acceptor
1 3 donor
1 4 acceptor
1 5 acceptor
1 6 cation
1 6 donor
1 7 donor
3 13 14 15 hydrophobe
5 2 8 9 10 11 rings
6 16 17 18 19 20 21 rings

> <PUBCHEM_HEAVY_ATOM_COUNT>
22

> <PUBCHEM_ATOM_DEF_STEREO_COUNT>
3

> <PUBCHEM_ATOM_UDEF_STEREO_COUNT>
0

> <PUBCHEM_BOND_DEF_STEREO_COUNT>
0

> <PUBCHEM_BOND_UDEF_STEREO_COUNT>
0

> <PUBCHEM_ISOTOPIC_ATOM_COUNT>
0

> <PUBCHEM_COMPONENT_COUNT>
1

> <PUBCHEM_CACTVS_TAUTO_COUNT>
1

> <PUBCHEM_CONFORMER_ID>
0480993800000001

> <PUBCHEM_MMFF94_ENERGY>
29.3076

> <PUBCHEM_FEATURE_SELFOVERLAP>
55.839

> <PUBCHEM_SHAPE_FINGERPRINT>
10366900 7 17386009429374790338
10498660 4 13767935615244027572
10670039 82 14635142374579576758
12107183 9 18125731088836197697
12236239 1 18060422430349967561
12363563 72 18337672989134629004
12616971 3 17774996908408101205
13533116 47 18341613754319170681
13782708 43 18340483474247702319
13955234 65 18269272538000894800
14211702 104 18264772245931040603
14251740 57 18410849992640309163
14251764 30 18338235943072424622
15183329 4 18335419059122666541
15188451 53 17632290142940138787
15475509 8 17168425970291368941
15840311 113 9510922396259036371
17349148 13 17918277558310083839
17844677 252 18259701212150931165
17857418 61 18343304773232948807
1813 80 18200603492991923740
19784866 240 18342178834407598059
20028762 73 18201998828471113511
20388580 30 18409172087084715628
20567600 234 11959721694874693227
20645477 70 18333729139362138132
21344244 78 17275096232904594728
21641784 216 14996550782031430175
21792934 111 15195019215399101187
220451 1 18199758106141857845
22061861 79 18261103089502264703
221357 26 18040716935453707070
2215653 11 17821728347343359563
22849339 104 15936705847213158475
2303208 19 17458350771244468163
23081809 10 18131072680054435981
23522609 53 18120406248433368813
23559900 14 17023192659871716855
23569943 247 18187925011664956747
3004659 81 18272092720573822989
312423 11 18341903986470986392
3472631 163 10953755390823880210
34797466 226 16226056629844770095
3886686 26 16337541362182760279
4072396 5 16773802498144463773
46194498 28 17458348567541370780
465052 167 18342178864509559102
5104073 3 17846497006605461665
5374978 207 15554451824785669257
59682541 52 18334286596316132271
6025842 7 18262520424388934796
7970288 3 18268147565838857374
960060 61 17821734939812113134

> <PUBCHEM_SHAPE_MULTIPOLES>
423.16
15.82
2.69
1.36
18.34
0.31
0.2
11.69
-1.08
-4.42
-0.12
-0.08
-0.2
-0.62

> <PUBCHEM_SHAPE_SELFOVERLAP>
852.603

> <PUBCHEM_SHAPE_VOLUME>
250.1

> <PUBCHEM_COORDINATE_TYPE>
2
5
10

$$$$
