11883082
  -OEChem-12032416333D

 70 74  0     1  0  0  0  0  0999 V2000
    0.1865    2.9051    0.4418 S   0  0  0  0  0  0  0  0  0  0  0  0
   -7.0654    0.1068   -0.6562 O   0  0  0  0  0  0  0  0  0  0  0  0
   -6.8239    1.6538    1.1584 O   0  0  0  0  0  0  0  0  0  0  0  0
    0.7886   -1.6447   -1.8472 O   0  0  0  0  0  0  0  0  0  0  0  0
    3.7478    0.1236   -0.5306 O   0  0  0  0  0  0  0  0  0  0  0  0
    5.0201    3.2826    0.3151 O   0  0  0  0  0  0  0  0  0  0  0  0
    0.8708    0.5050   -0.2394 N   0  0  0  0  0  0  0  0  0  0  0  0
    1.7041   -2.7739   -0.0349 N   0  0  0  0  0  0  0  0  0  0  0  0
    2.6532    2.0982    0.0674 N   0  0  0  0  0  0  0  0  0  0  0  0
   -2.8263   -0.5196    0.1478 C   0  0  2  0  0  0  0  0  0  0  0  0
   -3.3519    0.9237   -0.2719 C   0  0  1  0  0  0  0  0  0  0  0  0
   -4.9070    1.1729   -0.1836 C   0  0  1  0  0  0  0  0  0  0  0  0
   -1.3434   -0.6895   -0.4232 C   0  0  1  0  0  0  0  0  0  0  0  0
   -3.7262   -1.6044   -0.4990 C   0  0  0  0  0  0  0  0  0  0  0  0
   -5.6555   -0.0250   -0.8340 C   0  0  1  0  0  0  0  0  0  0  0  0
   -2.4983    2.0511    0.3784 C   0  0  0  0  0  0  0  0  0  0  0  0
   -5.2160   -1.3778   -0.2849 C   0  0  0  0  0  0  0  0  0  0  0  0
   -2.8150   -0.7328    1.6815 C   0  0  0  0  0  0  0  0  0  0  0  0
   -0.5074    0.5301   -0.1316 C   0  0  0  0  0  0  0  0  0  0  0  0
   -5.4327    1.4412    1.2439 C   0  0  0  0  0  0  0  0  0  0  0  0
   -5.2644    2.4431   -1.0063 C   0  0  0  0  0  0  0  0  0  0  0  0
   -1.0467    1.7541    0.2084 C   0  0  0  0  0  0  0  0  0  0  0  0
   -0.6333   -1.9761    0.0187 C   0  0  0  0  0  0  0  0  0  0  0  0
    0.6795   -2.1119   -0.7106 C   0  0  0  0  0  0  0  0  0  0  0  0
    1.3434    1.6986    0.0474 C   0  0  0  0  0  0  0  0  0  0  0  0
    3.0081   -2.9480   -0.6783 C   0  0  0  0  0  0  0  0  0  0  0  0
    1.6182   -3.3005    1.3331 C   0  0  0  0  0  0  0  0  0  0  0  0
    3.4243   -4.4163   -0.6796 C   0  0  0  0  0  0  0  0  0  0  0  0
    2.0090   -4.7762    1.3711 C   0  0  0  0  0  0  0  0  0  0  0  0
    3.3765   -5.0056    0.7293 C   0  0  0  0  0  0  0  0  0  0  0  0
    3.7914    1.3110   -0.2172 C   0  0  0  0  0  0  0  0  0  0  0  0
    5.0833    2.0046   -0.0682 C   0  0  0  0  0  0  0  0  0  0  0  0
    6.3320    1.5503   -0.2587 C   0  0  0  0  0  0  0  0  0  0  0  0
    7.1611    2.6590    0.0345 C   0  0  0  0  0  0  0  0  0  0  0  0
    6.3155    3.6880    0.3784 C   0  0  0  0  0  0  0  0  0  0  0  0
   -3.1335    0.9803   -1.3527 H   0  0  0  0  0  0  0  0  0  0  0  0
   -1.4412   -0.7140   -1.5194 H   0  0  0  0  0  0  0  0  0  0  0  0
   -3.5390   -1.6395   -1.5805 H   0  0  0  0  0  0  0  0  0  0  0  0
   -3.4695   -2.5981   -0.1132 H   0  0  0  0  0  0  0  0  0  0  0  0
   -5.4707   -0.0278   -1.9168 H   0  0  0  0  0  0  0  0  0  0  0  0
   -2.7200    2.1412    1.4471 H   0  0  0  0  0  0  0  0  0  0  0  0
   -2.7257    3.0149   -0.0892 H   0  0  0  0  0  0  0  0  0  0  0  0
   -5.7802   -2.1712   -0.7919 H   0  0  0  0  0  0  0  0  0  0  0  0
   -5.4837   -1.4730    0.7733 H   0  0  0  0  0  0  0  0  0  0  0  0
   -2.1447   -0.0393    2.1972 H   0  0  0  0  0  0  0  0  0  0  0  0
   -3.7992   -0.6353    2.1326 H   0  0  0  0  0  0  0  0  0  0  0  0
   -2.4890   -1.7470    1.9381 H   0  0  0  0  0  0  0  0  0  0  0  0
   -5.2951    0.5964    1.9126 H   0  0  0  0  0  0  0  0  0  0  0  0
   -4.9700    2.3176    1.7083 H   0  0  0  0  0  0  0  0  0  0  0  0
   -4.8707    3.3515   -0.5380 H   0  0  0  0  0  0  0  0  0  0  0  0
   -4.8417    2.3841   -2.0162 H   0  0  0  0  0  0  0  0  0  0  0  0
   -6.3414    2.5938   -1.1286 H   0  0  0  0  0  0  0  0  0  0  0  0
   -1.2262   -2.8722   -0.1826 H   0  0  0  0  0  0  0  0  0  0  0  0
   -0.4696   -1.8798    1.0905 H   0  0  0  0  0  0  0  0  0  0  0  0
   -7.3846    0.7835   -1.2755 H   0  0  0  0  0  0  0  0  0  0  0  0
   -6.9745    2.5982    0.9841 H   0  0  0  0  0  0  0  0  0  0  0  0
    3.7350   -2.3620   -0.1061 H   0  0  0  0  0  0  0  0  0  0  0  0
    2.9968   -2.5616   -1.7019 H   0  0  0  0  0  0  0  0  0  0  0  0
    0.6260   -3.2225    1.7719 H   0  0  0  0  0  0  0  0  0  0  0  0
    2.2996   -2.7057    1.9527 H   0  0  0  0  0  0  0  0  0  0  0  0
    2.8009    3.0714    0.3235 H   0  0  0  0  0  0  0  0  0  0  0  0
    2.7484   -4.9856   -1.3299 H   0  0  0  0  0  0  0  0  0  0  0  0
    4.4340   -4.5177   -1.0919 H   0  0  0  0  0  0  0  0  0  0  0  0
    2.0207   -5.1327    2.4071 H   0  0  0  0  0  0  0  0  0  0  0  0
    1.2566   -5.3660    0.8326 H   0  0  0  0  0  0  0  0  0  0  0  0
    3.5947   -6.0786    0.6915 H   0  0  0  0  0  0  0  0  0  0  0  0
    4.1536   -4.5398    1.3475 H   0  0  0  0  0  0  0  0  0  0  0  0
    6.6419    0.5622   -0.5666 H   0  0  0  0  0  0  0  0  0  0  0  0
    8.2401    2.7029   -0.0002 H   0  0  0  0  0  0  0  0  0  0  0  0
    6.4700    4.7146    0.6772 H   0  0  0  0  0  0  0  0  0  0  0  0
  1 22  1  0  0  0  0
  1 25  1  0  0  0  0
  2 15  1  0  0  0  0
  2 55  1  0  0  0  0
  3 20  1  0  0  0  0
  3 56  1  0  0  0  0
  4 24  2  0  0  0  0
  5 31  2  0  0  0  0
  6 32  1  0  0  0  0
  6 35  1  0  0  0  0
  7 19  1  0  0  0  0
  7 25  2  0  0  0  0
  8 24  1  0  0  0  0
  8 26  1  0  0  0  0
  8 27  1  0  0  0  0
  9 25  1  0  0  0  0
  9 31  1  0  0  0  0
  9 61  1  0  0  0  0
 10 11  1  0  0  0  0
 10 13  1  0  0  0  0
 10 14  1  0  0  0  0
 10 18  1  0  0  0  0
 11 12  1  0  0  0  0
 11 16  1  0  0  0  0
 11 36  1  0  0  0  0
 12 15  1  0  0  0  0
 12 20  1  0  0  0  0
 12 21  1  0  0  0  0
 13 19  1  0  0  0  0
 13 23  1  0  0  0  0
 13 37  1  0  0  0  0
 14 17  1  0  0  0  0
 14 38  1  0  0  0  0
 14 39  1  0  0  0  0
 15 17  1  0  0  0  0
 15 40  1  0  0  0  0
 16 22  1  0  0  0  0
 16 41  1  0  0  0  0
 16 42  1  0  0  0  0
 17 43  1  0  0  0  0
 17 44  1  0  0  0  0
 18 45  1  0  0  0  0
 18 46  1  0  0  0  0
 18 47  1  0  0  0  0
 19 22  2  0  0  0  0
 20 48  1  0  0  0  0
 20 49  1  0  0  0  0
 21 50  1  0  0  0  0
 21 51  1  0  0  0  0
 21 52  1  0  0  0  0
 23 24  1  0  0  0  0
 23 53  1  0  0  0  0
 23 54  1  0  0  0  0
 26 28  1  0  0  0  0
 26 57  1  0  0  0  0
 26 58  1  0  0  0  0
 27 29  1  0  0  0  0
 27 59  1  0  0  0  0
 27 60  1  0  0  0  0
 28 30  1  0  0  0  0
 28 62  1  0  0  0  0
 28 63  1  0  0  0  0
 29 30  1  0  0  0  0
 29 64  1  0  0  0  0
 29 65  1  0  0  0  0
 30 66  1  0  0  0  0
 30 67  1  0  0  0  0
 31 32  1  0  0  0  0
 32 33  2  0  0  0  0
 33 34  1  0  0  0  0
 33 68  1  0  0  0  0
 34 35  2  0  0  0  0
 34 69  1  0  0  0  0
 35 70  1  0  0  0  0
M  END
> <PUBCHEM_COMPOUND_CID>
11883082

> <PUBCHEM_CONFORMER_RMSD>
1

> <PUBCHEM_CONFORMER_DIVERSEORDER>
1
7
5
8
3
6
4
2

> <PUBCHEM_MMFF94_PARTIAL_CHARGES>
31
1 -0.08
13 0.18
15 0.28
16 0.18
19 0.05
2 -0.68
20 0.28
22 -0.14
23 0.06
24 0.57
25 0.44
26 0.3
27 0.3
3 -0.68
31 0.71
32 0.05
33 -0.15
34 -0.15
35 -0.01
4 -0.57
5 -0.57
55 0.4
56 0.4
6 -0.28
61 0.37
68 0.15
69 0.15
7 -0.57
70 0.15
8 -0.66
9 -0.49

> <PUBCHEM_EFFECTIVE_ROTOR_COUNT>
9.4

> <PUBCHEM_PHARMACOPHORE_FEATURES>
13
1 2 acceptor
1 2 donor
1 3 acceptor
1 3 donor
1 4 acceptor
1 5 acceptor
1 6 acceptor
1 9 donor
5 1 7 19 22 25 rings
5 6 32 33 34 35 rings
6 10 11 12 14 15 17 rings
6 10 11 13 16 19 22 rings
6 8 26 27 28 29 30 rings

> <PUBCHEM_HEAVY_ATOM_COUNT>
35

> <PUBCHEM_ATOM_DEF_STEREO_COUNT>
5

> <PUBCHEM_ATOM_UDEF_STEREO_COUNT>
0

> <PUBCHEM_BOND_DEF_STEREO_COUNT>
0

> <PUBCHEM_BOND_UDEF_STEREO_COUNT>
0

> <PUBCHEM_ISOTOPIC_ATOM_COUNT>
0

> <PUBCHEM_COMPONENT_COUNT>
1

> <PUBCHEM_CACTVS_TAUTO_COUNT>
3

> <PUBCHEM_CONFORMER_ID>
00B5524A00000001

> <PUBCHEM_MMFF94_ENERGY>
98.0388

> <PUBCHEM_FEATURE_SELFOVERLAP>
66.12

> <PUBCHEM_SHAPE_FINGERPRINT>
10050765 1 18266739078801153109
10940486 97 17684652417508749252
11007060 377 17982733270772177744
11135926 11 18410568483367378301
11136131 41 18334847308665926242
11578080 2 17678440997018134741
11719270 70 18410848881050888128
11763715 3 17401225378088402710
11963148 33 18267855268040582639
12058002 1 17460060455395713204
12597179 24 18113905986854388418
12977781 61 17823156595288255987
13140716 1 17692819607259749867
13540713 5 18129944452064601833
14028597 1 17774181083527978747
14415360 78 18049985977427494996
14659021 117 17406537582865718674
14725015 67 17764026165622184234
14790565 3 18338799047512942492
15347591 1 18337669703875128677
15400415 2 18266457801451174584
15439362 3 18335979779571622097
15684970 41 17550697433589794942
15775530 1 17754435890481687796
15815584 197 18265920070748507159
15890870 6 18338516464845996388
15927050 60 18340766043460222998
16067689 302 18412828015177523567
16719943 64 18265893752069638258
16993438 75 17900264405468400866
18608769 82 18266743678784687859
20554085 129 18059278964237985496
20642791 35 18341059514660087806
21133410 230 17828232070270531058
21133665 82 18339644564408603660
21360443 120 18408324410848289084
21703447 108 18190738639938546274
22311459 1 18410855490731932001
23559900 14 18193830440871544307
244849 19 17896061887474764019
249999 5 18338233769913418082
3178227 256 18267595787084193609
3383291 50 18049438442443573050
3411729 13 18412826871876945942
4017518 198 18270407208910951214
4058900 60 18335143137280427594
4073 2 18408609188628613067
5104073 3 18340217285117289539
5265222 85 18192997251750302300
5385378 56 18410862040134506809
5776283 40 18338813273530784502
59755656 215 18411983580554332309
6371380 46 18198620128835159984
6376802 90 17894903015562847383
6669772 16 18333450928523896307
9981440 41 18261960763895094250

> <PUBCHEM_SHAPE_MULTIPOLES>
679.84
16.02
6.1
1.11
1.8
6.94
0.15
-14.33
-0.26
-11.74
1.3
0.62
0.58
-0.31

> <PUBCHEM_SHAPE_SELFOVERLAP>
1449.145

> <PUBCHEM_SHAPE_VOLUME>
380.6

> <PUBCHEM_COORDINATE_TYPE>
2
5
10

$$$$
