11912776
  -OEChem-12032416123D

 50 52  0     1  0  0  0  0  0999 V2000
    1.9281    0.3800   -1.2883 O   0  0  0  0  0  0  0  0  0  0  0  0
    0.4145   -2.0814   -0.2572 O   0  0  0  0  0  0  0  0  0  0  0  0
    3.8192   -1.0471    0.1566 O   0  0  0  0  0  0  0  0  0  0  0  0
    6.4359    1.2273    1.0289 O   0  0  0  0  0  0  0  0  0  0  0  0
    6.4247   -0.6183   -0.3574 O   0  0  0  0  0  0  0  0  0  0  0  0
   -1.0348    1.2267   -0.8753 N   0  0  0  0  0  0  0  0  0  0  0  0
   -3.0289    0.1804   -0.2164 N   0  0  0  0  0  0  0  0  0  0  0  0
   -2.7800    2.5729   -0.0705 N   0  0  0  0  0  0  0  0  0  0  0  0
    0.2185   -0.6706   -0.0249 C   0  0  1  0  0  0  0  0  0  0  0  0
    1.5958   -0.0418    0.0445 C   0  0  1  0  0  0  0  0  0  0  0  0
   -0.4151   -0.0300   -1.2375 C   0  0  2  0  0  0  0  0  0  0  0  0
    2.4594   -1.1944    0.4977 C   0  0  1  0  0  0  0  0  0  0  0  0
    0.7831    0.2137   -2.1386 C   0  0  0  0  0  0  0  0  0  0  0  0
    1.8196   -2.3687   -0.2082 C   0  0  0  0  0  0  0  0  0  0  0  0
   -2.3198    1.3298   -0.3723 C   0  0  0  0  0  0  0  0  0  0  0  0
    4.4194    0.0606    0.8235 C   0  0  0  0  0  0  0  0  0  0  0  0
   -5.0700   -0.9338    0.4540 C   0  0  0  0  0  0  0  0  0  0  0  0
   -4.2774    0.3176    0.2763 C   0  0  0  0  0  0  0  0  0  0  0  0
    5.8646    0.1524    0.4102 C   0  0  0  0  0  0  0  0  0  0  0  0
   -4.3397   -2.2547    0.0418 C   0  0  0  0  0  0  0  0  0  0  0  0
   -5.4822   -1.1352    1.9451 C   0  0  0  0  0  0  0  0  0  0  0  0
   -6.3781   -0.8998   -0.3955 C   0  0  0  0  0  0  0  0  0  0  0  0
   -4.8392    1.5318    0.6145 C   0  0  0  0  0  0  0  0  0  0  0  0
   -4.0362    2.6366    0.4177 C   0  0  0  0  0  0  0  0  0  0  0  0
    7.8186    1.4461    0.7312 C   0  0  0  0  0  0  0  0  0  0  0  0
   -0.3485   -0.5671    0.9056 H   0  0  0  0  0  0  0  0  0  0  0  0
    1.6369    0.8361    0.6959 H   0  0  0  0  0  0  0  0  0  0  0  0
   -1.1287   -0.6794   -1.7575 H   0  0  0  0  0  0  0  0  0  0  0  0
    2.3529   -1.3373    1.5816 H   0  0  0  0  0  0  0  0  0  0  0  0
    0.9779   -0.6579   -2.7732 H   0  0  0  0  0  0  0  0  0  0  0  0
    0.6821    1.0911   -2.7848 H   0  0  0  0  0  0  0  0  0  0  0  0
    1.9831   -3.3117    0.3219 H   0  0  0  0  0  0  0  0  0  0  0  0
    2.1918   -2.4928   -1.2313 H   0  0  0  0  0  0  0  0  0  0  0  0
   -0.4968    2.0836   -0.9381 H   0  0  0  0  0  0  0  0  0  0  0  0
    4.3711   -0.0910    1.9069 H   0  0  0  0  0  0  0  0  0  0  0  0
    3.9332    0.9970    0.5349 H   0  0  0  0  0  0  0  0  0  0  0  0
   -4.9752   -3.1341    0.1974 H   0  0  0  0  0  0  0  0  0  0  0  0
   -4.0552   -2.2309   -1.0167 H   0  0  0  0  0  0  0  0  0  0  0  0
   -3.4243   -2.3955    0.6284 H   0  0  0  0  0  0  0  0  0  0  0  0
   -4.5974   -1.1715    2.5915 H   0  0  0  0  0  0  0  0  0  0  0  0
   -6.0379   -2.0701    2.0821 H   0  0  0  0  0  0  0  0  0  0  0  0
   -6.1226   -0.3230    2.3064 H   0  0  0  0  0  0  0  0  0  0  0  0
   -6.1477   -0.7644   -1.4589 H   0  0  0  0  0  0  0  0  0  0  0  0
   -7.0411   -0.0814   -0.0940 H   0  0  0  0  0  0  0  0  0  0  0  0
   -6.9460   -1.8314   -0.2901 H   0  0  0  0  0  0  0  0  0  0  0  0
   -5.8404    1.6415    1.0095 H   0  0  0  0  0  0  0  0  0  0  0  0
   -4.3912    3.6339    0.6545 H   0  0  0  0  0  0  0  0  0  0  0  0
    7.9507    1.6328   -0.3388 H   0  0  0  0  0  0  0  0  0  0  0  0
    8.1500    2.3286    1.2849 H   0  0  0  0  0  0  0  0  0  0  0  0
    8.4153    0.5865    1.0506 H   0  0  0  0  0  0  0  0  0  0  0  0
  1 10  1  0  0  0  0
  1 13  1  0  0  0  0
  2  9  1  0  0  0  0
  2 14  1  0  0  0  0
  3 12  1  0  0  0  0
  3 16  1  0  0  0  0
  4 19  1  0  0  0  0
  4 25  1  0  0  0  0
  5 19  2  0  0  0  0
  6 11  1  0  0  0  0
  6 15  1  0  0  0  0
  6 34  1  0  0  0  0
  7 15  1  0  0  0  0
  7 18  2  0  0  0  0
  8 15  2  0  0  0  0
  8 24  1  0  0  0  0
  9 10  1  0  0  0  0
  9 11  1  0  0  0  0
  9 26  1  0  0  0  0
 10 12  1  0  0  0  0
 10 27  1  0  0  0  0
 11 13  1  0  0  0  0
 11 28  1  0  0  0  0
 12 14  1  0  0  0  0
 12 29  1  0  0  0  0
 13 30  1  0  0  0  0
 13 31  1  0  0  0  0
 14 32  1  0  0  0  0
 14 33  1  0  0  0  0
 16 19  1  0  0  0  0
 16 35  1  0  0  0  0
 16 36  1  0  0  0  0
 17 18  1  0  0  0  0
 17 20  1  0  0  0  0
 17 21  1  0  0  0  0
 17 22  1  0  0  0  0
 18 23  1  0  0  0  0
 20 37  1  0  0  0  0
 20 38  1  0  0  0  0
 20 39  1  0  0  0  0
 21 40  1  0  0  0  0
 21 41  1  0  0  0  0
 21 42  1  0  0  0  0
 22 43  1  0  0  0  0
 22 44  1  0  0  0  0
 22 45  1  0  0  0  0
 23 24  2  0  0  0  0
 23 46  1  0  0  0  0
 24 47  1  0  0  0  0
 25 48  1  0  0  0  0
 25 49  1  0  0  0  0
 25 50  1  0  0  0  0
M  END
> <PUBCHEM_COMPOUND_CID>
11912776

> <PUBCHEM_CONFORMER_RMSD>
0.8

> <PUBCHEM_CONFORMER_DIVERSEORDER>
1
176
215
166
20
127
150
80
44
224
146
232
227
161
195
119
180
210
135
155
65
214
128
57
223
118
133
14
154
90
204
159
95
220
74
78
91
4
103
193
233
186
222
213
165
234
84
162
23
76
145
152
218
134
53
221
167
111
168
217
45
143
196
188
30
158
197
200
179
12
97
226
183
136
185
47
231
36
108
27
163
206
190
93
219
199
125
123
13
198
230
142
121
225
52
170
64
110
129
96
229
100
51
122
62
174
169
83
19
137
177
209
6
175
18
104
15
160
139
88
194
117
147
192
33
131
203
25
49
191
138
151
228
112
106
181
235
87
42
9
178
153
32
157
72
187
66
67
113
29
130
34
201
140
182
99
107
60
43
212
120
171
102
148
7
184
144
40
5
54
71
82
39
22
24
31
141
173
208
101
156
116
216
17
105
98
164
85
211
37
132
73
92
81
149
3
59
16
75
35
50
126
46
58
172
56
86
69
115
109
26
207
41
124
21
55
70
28
202
114
68
38
205
189
10
48
11
8
2
63
89
94
61
79
77

> <PUBCHEM_MMFF94_PARTIAL_CHARGES>
25
1 -0.56
10 0.28
11 0.37
12 0.28
13 0.28
14 0.28
15 0.72
16 0.34
17 0.14
18 0.17
19 0.66
2 -0.56
23 -0.15
24 0.16
25 0.28
3 -0.56
34 0.4
4 -0.43
46 0.15
47 0.15
5 -0.57
6 -0.87
7 -0.62
8 -0.62
9 0.28

> <PUBCHEM_EFFECTIVE_ROTOR_COUNT>
8.2

> <PUBCHEM_PHARMACOPHORE_FEATURES>
11
1 1 acceptor
1 2 acceptor
1 3 acceptor
1 5 acceptor
1 6 donor
1 7 acceptor
4 17 20 21 22 hydrophobe
4 6 7 8 15 cation
5 1 9 10 11 13 rings
5 2 9 10 12 14 rings
6 7 8 15 18 23 24 rings

> <PUBCHEM_HEAVY_ATOM_COUNT>
25

> <PUBCHEM_ATOM_DEF_STEREO_COUNT>
4

> <PUBCHEM_ATOM_UDEF_STEREO_COUNT>
0

> <PUBCHEM_BOND_DEF_STEREO_COUNT>
0

> <PUBCHEM_BOND_UDEF_STEREO_COUNT>
0

> <PUBCHEM_ISOTOPIC_ATOM_COUNT>
0

> <PUBCHEM_COMPONENT_COUNT>
1

> <PUBCHEM_CACTVS_TAUTO_COUNT>
3

> <PUBCHEM_CONFORMER_ID>
00B5C64800000001

> <PUBCHEM_MMFF94_ENERGY>
77.3779

> <PUBCHEM_FEATURE_SELFOVERLAP>
56.548

> <PUBCHEM_SHAPE_FINGERPRINT>
10 15 18335414708363195504
10369192 42 17917991707162950204
10613725 11 11527947872198057312
106641 1 17895192246934028832
10803635 8 11097861782664367009
11315181 36 18335137605615744877
12553582 1 18267043777003182231
12596602 18 18260261915683157864
12616971 3 16733282161571124325
12670543 26 11240001161667380144
12730499 353 18272934900112233134
128238 76 18260833743175457670
12838862 33 18188477043937520023
13403585 85 18411418418935372481
13583140 156 18200865189459639373
13761468 95 11311238485661245907
14251732 16 18409728474048280624
14251752 14 10303820877916691952
14251764 18 17967533510983105644
14341114 176 18341336574162114817
1454969 45 18408881871137180639
14848160 23 12324247157145011372
14849402 71 18338238301263132208
14933364 13 18272933813221405832
15183329 4 10159704581523002424
15728490 51 18271801389022331815
16126227 98 18268427009833659072
16760501 71 18338795740926162376
17349148 13 17386018273033939429
17980427 23 18041006128481621293
18222031 100 16805609131668184350
19377110 9 18260555527810048452
20511986 3 17895464822675062073
21304303 282 13408451302339920871
21365058 27 16702304580730583974
21673915 165 18334859373007345235
21756936 100 18130774681984960420
22079108 93 18412256255891950898
22224240 67 18260543437893893786
23198884 109 8502377728507502235
23559900 14 17838053702371396503
3009799 131 14418129617047627439
339767 52 18113335319635922359
347723 3 13039187009494324094
350125 39 18337951302699249516
38570 142 12823303407232999183
392239 28 18341619247582524409
4325135 7 18201717379505779233
444769 64 9943536248953068276
5104073 3 18263364689756170834
550186 72 18335417950405134412
59682541 35 18340207496211673179
59755656 520 14549014395050319013
6442390 28 18410291389795580774
67856867 119 18114468950041124453
9689198 14 17917996088172101048
9953998 17 18407760326702047393

> <PUBCHEM_SHAPE_MULTIPOLES>
470.2
17.73
2.35
1.26
20.23
0.36
-0.21
2.73
7.16
-2.18
0.23
-0.21
0.01
0.8

> <PUBCHEM_SHAPE_SELFOVERLAP>
986.512

> <PUBCHEM_SHAPE_VOLUME>
266.4

> <PUBCHEM_COORDINATE_TYPE>
2
5
10

$$$$
