75536982
  -OEChem-12032416333D

 39 41  0     1  0  0  0  0  0999 V2000
   -4.4524    1.0942   -0.0364 S   0  0  0  0  0  0  0  0  0  0  0  0
    1.0531   -2.5930   -0.9669 O   0  0  0  0  0  0  0  0  0  0  0  0
   -4.5480    1.8623    1.1848 O   0  0  0  0  0  0  0  0  0  0  0  0
   -5.5935    0.4027   -0.5933 O   0  0  0  0  0  0  0  0  0  0  0  0
   -0.7793   -1.4847   -0.0004 N   0  0  0  0  0  0  0  0  0  0  0  0
   -3.1562   -0.0172    0.1140 N   0  0  2  0  0  0  0  0  0  0  0  0
    1.2618   -1.1258    0.8671 N   0  0  0  0  0  0  0  0  0  0  0  0
    3.7986    1.0216    1.0786 N   0  0  0  0  0  0  0  0  0  0  0  0
   -1.0191   -0.6465    1.1587 C   0  0  2  0  0  0  0  0  0  0  0  0
   -1.9300    0.5202    0.7928 C   0  0  0  0  0  0  0  0  0  0  0  0
    0.3821   -0.2416    1.6113 C   0  0  0  0  0  0  0  0  0  0  0  0
   -1.8999   -1.9458   -0.7963 C   0  0  0  0  0  0  0  0  0  0  0  0
   -2.8155   -0.7742   -1.1368 C   0  0  0  0  0  0  0  0  0  0  0  0
    0.5716   -1.8335   -0.1366 C   0  0  0  0  0  0  0  0  0  0  0  0
    2.6920   -1.1410    1.0813 C   0  0  0  0  0  0  0  0  0  0  0  0
   -3.7776    2.1454   -1.2959 C   0  0  0  0  0  0  0  0  0  0  0  0
    3.3829   -0.0324    0.3411 C   0  0  0  0  0  0  0  0  0  0  0  0
    3.5589   -0.1381   -1.0292 C   0  0  0  0  0  0  0  0  0  0  0  0
    4.2036    0.9050   -1.6847 C   0  0  0  0  0  0  0  0  0  0  0  0
    4.4210    2.0162    0.4070 C   0  0  0  0  0  0  0  0  0  0  0  0
    4.6460    2.0063   -0.9602 C   0  0  0  0  0  0  0  0  0  0  0  0
   -1.4962   -1.2820    1.9159 H   0  0  0  0  0  0  0  0  0  0  0  0
   -2.1982    1.0596    1.7063 H   0  0  0  0  0  0  0  0  0  0  0  0
   -1.4123    1.2100    0.1169 H   0  0  0  0  0  0  0  0  0  0  0  0
    0.6282    0.7932    1.3519 H   0  0  0  0  0  0  0  0  0  0  0  0
    0.5234   -0.3918    2.6859 H   0  0  0  0  0  0  0  0  0  0  0  0
   -2.4357   -2.6894   -0.1954 H   0  0  0  0  0  0  0  0  0  0  0  0
   -1.5327   -2.4396   -1.7012 H   0  0  0  0  0  0  0  0  0  0  0  0
   -2.2983   -0.1125   -1.8400 H   0  0  0  0  0  0  0  0  0  0  0  0
   -3.7236   -1.1572   -1.6122 H   0  0  0  0  0  0  0  0  0  0  0  0
    3.0899   -2.1038    0.7393 H   0  0  0  0  0  0  0  0  0  0  0  0
    2.8826   -1.0725    2.1581 H   0  0  0  0  0  0  0  0  0  0  0  0
   -4.4906    2.9605   -1.4488 H   0  0  0  0  0  0  0  0  0  0  0  0
   -2.8294    2.5713   -0.9688 H   0  0  0  0  0  0  0  0  0  0  0  0
   -3.6750    1.5978   -2.2328 H   0  0  0  0  0  0  0  0  0  0  0  0
    3.2184   -1.0022   -1.5883 H   0  0  0  0  0  0  0  0  0  0  0  0
    4.3624    0.8592   -2.7579 H   0  0  0  0  0  0  0  0  0  0  0  0
    4.7464    2.8521    1.0174 H   0  0  0  0  0  0  0  0  0  0  0  0
    5.1511    2.8308   -1.4502 H   0  0  0  0  0  0  0  0  0  0  0  0
  1  3  2  0  0  0  0
  1  4  2  0  0  0  0
  1  6  1  0  0  0  0
  1 16  1  0  0  0  0
  2 14  2  0  0  0  0
  5  9  1  0  0  0  0
  5 12  1  0  0  0  0
  5 14  1  0  0  0  0
  6 10  1  0  0  0  0
  6 13  1  0  0  0  0
  7 11  1  0  0  0  0
  7 14  1  0  0  0  0
  7 15  1  0  0  0  0
  8 17  1  0  0  0  0
  8 20  2  0  0  0  0
  9 10  1  0  0  0  0
  9 11  1  0  0  0  0
  9 22  1  0  0  0  0
 10 23  1  0  0  0  0
 10 24  1  0  0  0  0
 11 25  1  0  0  0  0
 11 26  1  0  0  0  0
 12 13  1  0  0  0  0
 12 27  1  0  0  0  0
 12 28  1  0  0  0  0
 13 29  1  0  0  0  0
 13 30  1  0  0  0  0
 15 17  1  0  0  0  0
 15 31  1  0  0  0  0
 15 32  1  0  0  0  0
 16 33  1  0  0  0  0
 16 34  1  0  0  0  0
 16 35  1  0  0  0  0
 17 18  2  0  0  0  0
 18 19  1  0  0  0  0
 18 36  1  0  0  0  0
 19 21  2  0  0  0  0
 19 37  1  0  0  0  0
 20 21  1  0  0  0  0
 20 38  1  0  0  0  0
 21 39  1  0  0  0  0
M  END
> <PUBCHEM_COMPOUND_CID>
75536982

> <PUBCHEM_CONFORMER_RMSD>
0.6

> <PUBCHEM_CONFORMER_DIVERSEORDER>
1
8
150
142
120
57
30
80
160
154
91
88
85
17
100
60
141
159
144
52
112
86
115
48
137
117
135
98
146
140
113
94
16
81
125
96
5
34
157
111
76
67
151
118
92
35
24
33
84
106
109
11
105
49
108
99
116
46
70
149
68
47
12
83
126
114
93
44
74
145
9
95
132
27
127
152
90
77
136
69
153
89
107
104
25
39
79
123
101
36
129
51
122
50
128
64
156
2
75
42
78
20
143
103
73
19
158
61
138
45
10
155
130
59
53
119
4
65
82
72
71
124
14
38
31
29
97
63
147
22
37
133
21
18
54
55
32
15
56
87
134
3
40
13
58
102
121
139
66
131
23
148
7
6
41
110
43
28
26
62

> <PUBCHEM_MMFF94_PARTIAL_CHARGES>
25
1 1.33
10 0.36
11 0.3
12 0.3
13 0.36
14 0.69
15 0.44
16 0.11
17 0.17
18 -0.15
19 -0.15
2 -0.57
20 0.16
21 -0.15
3 -0.65
36 0.15
37 0.15
38 0.15
39 0.15
4 -0.65
5 -0.66
6 -0.85
7 -0.66
8 -0.62
9 0.3

> <PUBCHEM_EFFECTIVE_ROTOR_COUNT>
4.2

> <PUBCHEM_PHARMACOPHORE_FEATURES>
7
1 2 acceptor
1 3 acceptor
1 4 acceptor
1 8 acceptor
5 5 7 9 11 14 rings
6 5 6 9 10 12 13 rings
6 8 17 18 19 20 21 rings

> <PUBCHEM_HEAVY_ATOM_COUNT>
21

> <PUBCHEM_ATOM_DEF_STEREO_COUNT>
1

> <PUBCHEM_ATOM_UDEF_STEREO_COUNT>
0

> <PUBCHEM_BOND_DEF_STEREO_COUNT>
0

> <PUBCHEM_BOND_UDEF_STEREO_COUNT>
0

> <PUBCHEM_ISOTOPIC_ATOM_COUNT>
0

> <PUBCHEM_COMPONENT_COUNT>
1

> <PUBCHEM_CACTVS_TAUTO_COUNT>
1

> <PUBCHEM_CONFORMER_ID>
04809A5600000001

> <PUBCHEM_MMFF94_ENERGY>
44.5202

> <PUBCHEM_FEATURE_SELFOVERLAP>
35.638

> <PUBCHEM_SHAPE_FINGERPRINT>
10498660 4 18272373109156098264
10670039 82 18340776944435210844
11640471 11 18115862074602704930
11796584 16 11599999947266586221
12173636 292 18262513805280075734
12410352 35 10447927265225016653
12596602 18 14562539499999663548
12633257 1 15213303083808142628
12670546 177 17704352199142943933
12824470 246 11023833868210661694
12839892 36 13479141194086167913
12892183 10 13118272707500004598
13828863 39 15359693213160674092
1420 369 9439405726489913788
14251751 18 12895064081439216084
14251764 38 17897720951473709397
14528608 73 18342455941650637861
14848178 5 10879990233447250428
15163728 17 18337687381190438238
15188451 53 7997694147184325401
15342168 16 17749113322015681766
15475509 35 9870022914985628981
15475509 8 15482684455189902649
15885798 251 8935002568203299835
17959699 21 18412827984104553480
18186145 218 17774731956123287066
18222031 100 12035452722394984539
193927 3 10375876302827512196
19784866 240 11743847966542851416
20403669 9 10015587207103447869
20567600 234 16298393487183352973
20626108 58 11600009829944006346
20645477 70 13686291392182022890
20871999 31 17917144021925287911
21033648 29 15791719789550099159
21065199 12 12396564270286547124
21503847 285 17749389222457151418
22079108 93 17385446540020149739
22646028 28 9727635016109565848
23227448 37 18335420218278669877
23366157 5 17982173318917438543
23559900 14 17916584220252057614
2838139 119 18260826016661589716
33382 64 12462991286764228453
3472631 163 18339361967169133820
4028521 119 18201163247225757112
4259306 186 13686306772375715148
4463277 69 11959728261510339408
474 4 17967814950771597498
4990 188 16271919394295757907
57724786 102 17241049920387053484
633830 44 18113053848627339458
7237137 82 18271232941821702767
76465 3 9151170943970554403
7808743 9 18116156760840945436
960060 61 15051733109844335704

> <PUBCHEM_SHAPE_MULTIPOLES>
398.49
11.06
2.43
1.51
2.25
0.08
0.01
8.9
1.93
-0.17
0.57
-0.39
0.09
-0.57

> <PUBCHEM_SHAPE_SELFOVERLAP>
825.903

> <PUBCHEM_SHAPE_VOLUME>
230.7

> <PUBCHEM_COORDINATE_TYPE>
2
5
10

$$$$
