75536885
  -OEChem-12032416333D

 37 38  0     1  0  0  0  0  0999 V2000
   -3.6273   -0.9818   -0.6116 O   0  0  0  0  0  0  0  0  0  0  0  0
   -2.3825    2.4219   -0.6209 O   0  0  0  0  0  0  0  0  0  0  0  0
    0.6866   -2.4648    0.9687 O   0  0  0  0  0  0  0  0  0  0  0  0
   -0.8098   -0.6773    0.7271 N   0  0  0  0  0  0  0  0  0  0  0  0
    2.4346   -0.7084   -0.7527 N   0  0  0  0  0  0  0  0  0  0  0  0
    3.4252    0.1896   -0.8888 N   0  0  0  0  0  0  0  0  0  0  0  0
   -1.0373    0.7244    0.3562 C   0  0  0  0  0  0  0  0  0  0  0  0
   -2.4519    1.0941   -0.0992 C   0  0  2  0  0  0  0  0  0  0  0  0
   -1.9643   -1.4910    1.1115 C   0  0  0  0  0  0  0  0  0  0  0  0
   -2.9983    0.1629   -1.1794 C   0  0  0  0  0  0  0  0  0  0  0  0
   -2.7300   -1.9695   -0.1155 C   0  0  0  0  0  0  0  0  0  0  0  0
    0.4553   -1.2872    0.6968 C   0  0  0  0  0  0  0  0  0  0  0  0
    1.6157   -0.4687    0.3114 C   0  0  0  0  0  0  0  0  0  0  0  0
    2.1048    0.6648    0.9136 C   0  0  0  0  0  0  0  0  0  0  0  0
    3.2184    1.0260    0.1319 C   0  0  0  0  0  0  0  0  0  0  0  0
   -2.3888    3.3851    0.4206 C   0  0  0  0  0  0  0  0  0  0  0  0
    2.3309   -1.7943   -1.6997 C   0  0  0  0  0  0  0  0  0  0  0  0
    4.1187    2.1743    0.3301 C   0  0  0  0  0  0  0  0  0  0  0  0
   -0.3305    1.0085   -0.4318 H   0  0  0  0  0  0  0  0  0  0  0  0
   -0.7647    1.3115    1.2400 H   0  0  0  0  0  0  0  0  0  0  0  0
   -3.1414    1.0671    0.7550 H   0  0  0  0  0  0  0  0  0  0  0  0
   -2.5938   -0.9102    1.7937 H   0  0  0  0  0  0  0  0  0  0  0  0
   -1.6088   -2.3678    1.6635 H   0  0  0  0  0  0  0  0  0  0  0  0
   -3.7707    0.6893   -1.7520 H   0  0  0  0  0  0  0  0  0  0  0  0
   -2.2292   -0.1322   -1.9037 H   0  0  0  0  0  0  0  0  0  0  0  0
   -2.0632   -2.3067   -0.9179 H   0  0  0  0  0  0  0  0  0  0  0  0
   -3.3516   -2.8241    0.1721 H   0  0  0  0  0  0  0  0  0  0  0  0
    1.7173    1.1569    1.7942 H   0  0  0  0  0  0  0  0  0  0  0  0
   -3.2682    3.2694    1.0620 H   0  0  0  0  0  0  0  0  0  0  0  0
   -2.4376    4.3761   -0.0403 H   0  0  0  0  0  0  0  0  0  0  0  0
   -1.4736    3.3435    1.0162 H   0  0  0  0  0  0  0  0  0  0  0  0
    1.2775   -1.9599   -1.9388 H   0  0  0  0  0  0  0  0  0  0  0  0
    2.8727   -1.5311   -2.6121 H   0  0  0  0  0  0  0  0  0  0  0  0
    2.7690   -2.6854   -1.2440 H   0  0  0  0  0  0  0  0  0  0  0  0
    5.1474    1.8362    0.4917 H   0  0  0  0  0  0  0  0  0  0  0  0
    4.1057    2.8319   -0.5453 H   0  0  0  0  0  0  0  0  0  0  0  0
    3.8208    2.7688    1.2000 H   0  0  0  0  0  0  0  0  0  0  0  0
  1 10  1  0  0  0  0
  1 11  1  0  0  0  0
  2  8  1  0  0  0  0
  2 16  1  0  0  0  0
  3 12  2  0  0  0  0
  4  7  1  0  0  0  0
  4  9  1  0  0  0  0
  4 12  1  0  0  0  0
  5  6  1  0  0  0  0
  5 13  1  0  0  0  0
  5 17  1  0  0  0  0
  6 15  2  0  0  0  0
  7  8  1  0  0  0  0
  7 19  1  0  0  0  0
  7 20  1  0  0  0  0
  8 10  1  0  0  0  0
  8 21  1  0  0  0  0
  9 11  1  0  0  0  0
  9 22  1  0  0  0  0
  9 23  1  0  0  0  0
 10 24  1  0  0  0  0
 10 25  1  0  0  0  0
 11 26  1  0  0  0  0
 11 27  1  0  0  0  0
 12 13  1  0  0  0  0
 13 14  2  0  0  0  0
 14 15  1  0  0  0  0
 14 28  1  0  0  0  0
 15 18  1  0  0  0  0
 16 29  1  0  0  0  0
 16 30  1  0  0  0  0
 16 31  1  0  0  0  0
 17 32  1  0  0  0  0
 17 33  1  0  0  0  0
 17 34  1  0  0  0  0
 18 35  1  0  0  0  0
 18 36  1  0  0  0  0
 18 37  1  0  0  0  0
M  END
> <PUBCHEM_COMPOUND_CID>
75536885

> <PUBCHEM_CONFORMER_RMSD>
0.6

> <PUBCHEM_CONFORMER_DIVERSEORDER>
1
58
66
94
31
65
96
85
91
41
16
46
43
53
50
35
73
62
111
89
30
82
14
67
17
69
81
26
24
34
75
100
28
78
57
20
39
49
40
70
5
19
59
74
42
83
15
54
56
99
55
93
25
44
102
71
72
92
104
68
23
3
79
13
29
60
61
107
18
76
103
48
11
10
6
108
88
36
8
33
87
12
27
7
106
63
45
105
77
95
32
38
101
51
21
80
97
52
37
9
22
4
47
64
110
109
98
84
90
86
2

> <PUBCHEM_MMFF94_PARTIAL_CHARGES>
19
1 -0.56
10 0.28
11 0.28
12 0.71
13 -0.24
14 -0.15
15 0.11
16 0.28
17 0.26
18 0.18
2 -0.56
28 0.15
3 -0.57
4 -0.66
5 0.31
6 -0.71
7 0.3
8 0.28
9 0.3

> <PUBCHEM_EFFECTIVE_ROTOR_COUNT>
4.4

> <PUBCHEM_PHARMACOPHORE_FEATURES>
6
1 1 acceptor
1 2 acceptor
1 3 acceptor
1 6 acceptor
5 5 6 13 14 15 rings
7 1 4 7 8 9 10 11 rings

> <PUBCHEM_HEAVY_ATOM_COUNT>
18

> <PUBCHEM_ATOM_DEF_STEREO_COUNT>
1

> <PUBCHEM_ATOM_UDEF_STEREO_COUNT>
0

> <PUBCHEM_BOND_DEF_STEREO_COUNT>
0

> <PUBCHEM_BOND_UDEF_STEREO_COUNT>
0

> <PUBCHEM_ISOTOPIC_ATOM_COUNT>
0

> <PUBCHEM_COMPONENT_COUNT>
1

> <PUBCHEM_CACTVS_TAUTO_COUNT>
1

> <PUBCHEM_CONFORMER_ID>
048099F500000001

> <PUBCHEM_MMFF94_ENERGY>
47.8237

> <PUBCHEM_FEATURE_SELFOVERLAP>
30.449

> <PUBCHEM_SHAPE_FINGERPRINT>
10498660 4 18335132098998290149
10608611 8 18412265038662520224
11615756 56 18336262461270690640
11640471 11 16950553393975570987
11715629 250 18262515892707677421
11759241 127 18270114767906767996
12173636 292 18338232644721813445
12403260 363 18336816568181536880
128993 33 17826801326121188493
13464514 151 18194408797125454606
13764800 53 17968106317232031955
14123250 116 18270400477885321193
14251745 187 18340760537348741552
14251764 3 17630581609508417744
14251764 38 18411412926100098864
14614273 12 17894899729248227551
16945 1 18335134289468443483
17134986 127 17905322923439022061
17980427 23 17835199434583533730
18186145 218 18342469135890281194
18981168 100 17096387037285032683
19784866 135 10950957138184010388
20344682 1 17913778485525768354
20361792 2 14333403437081068747
20465049 17 17477783285950309957
20510252 161 18335703904920919049
20671657 1 17974002851725335347
21501502 16 18263074427381938595
21524375 3 17827923914929700337
21618674 68 18342176716988688805
21731516 1 12823001015517662823
22169311 14 11025790994365125078
22802520 49 18269568168867448782
23114952 82 18202013092330757494
23402539 116 18192700366340606574
23419403 2 11874729836504829387
23557571 272 18190191250414404463
23558518 356 18408329877708952905
23559900 14 18410569613629117984
2637199 183 17693109469827756081
2748010 2 18335997414564862850
353137 74 18333722525191415691
4028521 119 18334285483645101013
5262128 65 17845101662183532956
526903 126 18408036312721076913
58051976 378 18411130376874603268
621550 34 18199482119374170402
74978 22 18124876759288870307
7832392 63 18123750846455232996
81228 2 18260843613068423609
9709674 26 18342459214251934052
9981440 41 18187914114625265482

> <PUBCHEM_SHAPE_MULTIPOLES>
337.88
6.73
3.06
1.19
2.42
1.8
-0.22
2.38
-1.44
-1.42
0.2
0.17
-0.51
0.79

> <PUBCHEM_SHAPE_SELFOVERLAP>
693.533

> <PUBCHEM_SHAPE_VOLUME>
195

> <PUBCHEM_COORDINATE_TYPE>
2
5
10

$$$$
