26743426
  -OEChem-12032416183D

 53 55  0     1  0  0  0  0  0999 V2000
   -7.8788   -2.4442   -0.6846 F   0  0  0  0  0  0  0  0  0  0  0  0
   -8.7422   -0.4897   -0.2818 F   0  0  0  0  0  0  0  0  0  0  0  0
   -8.2356   -1.8202    1.3616 F   0  0  0  0  0  0  0  0  0  0  0  0
    4.8243   -1.7517   -0.2649 O   0  0  0  0  0  0  0  0  0  0  0  0
    7.2558   -0.6852    0.1799 O   0  0  0  0  0  0  0  0  0  0  0  0
   10.7112   -0.3540    1.0775 O   0  0  0  0  0  0  0  0  0  0  0  0
    9.3248   -2.1592    1.1620 O   0  0  0  0  0  0  0  0  0  0  0  0
    3.9609    0.2703   -1.0257 N   0  0  0  0  0  0  0  0  0  0  0  0
   -2.6127    0.9471    0.3562 N   0  0  0  0  0  0  0  0  0  0  0  0
   -2.3921    2.0134    1.1439 N   0  0  0  0  0  0  0  0  0  0  0  0
    0.9393    1.3667   -0.4356 C   0  0  2  0  0  0  0  0  0  0  0  0
    1.6615    0.0360   -0.1395 C   0  0  0  0  0  0  0  0  0  0  0  0
    2.6268   -0.1866   -1.3102 C   0  0  1  0  0  0  0  0  0  0  0  0
   -0.4971    1.3844    0.0345 C   0  0  0  0  0  0  0  0  0  0  0  0
    1.1158    1.5055   -1.9200 C   0  0  0  0  0  0  0  0  0  0  0  0
    2.0386    0.6600   -2.3906 C   0  0  0  0  0  0  0  0  0  0  0  0
   -1.5097    0.5308   -0.3296 C   0  0  0  0  0  0  0  0  0  0  0  0
   -1.0979    2.2759    0.9433 C   0  0  0  0  0  0  0  0  0  0  0  0
   -1.5163   -0.6220   -1.2530 C   0  0  0  0  0  0  0  0  0  0  0  0
   -0.4692    3.4043    1.6525 C   0  0  0  0  0  0  0  0  0  0  0  0
   -3.8854    0.3777    0.3028 C   0  0  0  0  0  0  0  0  0  0  0  0
    4.9570   -0.5583   -0.5222 C   0  0  0  0  0  0  0  0  0  0  0  0
    6.2609    0.1834   -0.3189 C   0  0  0  0  0  0  0  0  0  0  0  0
   -4.9743    1.1401   -0.1203 C   0  0  0  0  0  0  0  0  0  0  0  0
   -4.0691   -0.9534    0.6766 C   0  0  0  0  0  0  0  0  0  0  0  0
   -6.2468    0.5711   -0.1697 C   0  0  0  0  0  0  0  0  0  0  0  0
   -5.3417   -1.5224    0.6274 C   0  0  0  0  0  0  0  0  0  0  0  0
   -6.4305   -0.7602    0.2041 C   0  0  0  0  0  0  0  0  0  0  0  0
   -7.7915   -1.3677    0.1517 C   0  0  0  0  0  0  0  0  0  0  0  0
    8.4956   -0.0129    0.3812 C   0  0  0  0  0  0  0  0  0  0  0  0
    9.5184   -0.9790    0.9113 C   0  0  0  0  0  0  0  0  0  0  0  0
    1.4867    2.1889    0.0432 H   0  0  0  0  0  0  0  0  0  0  0  0
    2.1740    0.0749    0.8295 H   0  0  0  0  0  0  0  0  0  0  0  0
    0.9640   -0.8080   -0.0832 H   0  0  0  0  0  0  0  0  0  0  0  0
    2.6490   -1.2442   -1.5933 H   0  0  0  0  0  0  0  0  0  0  0  0
    0.5885    2.2256   -2.5300 H   0  0  0  0  0  0  0  0  0  0  0  0
    2.3378    0.6073   -3.4279 H   0  0  0  0  0  0  0  0  0  0  0  0
    4.1749    1.2546   -1.1646 H   0  0  0  0  0  0  0  0  0  0  0  0
   -1.4186   -1.5611   -0.6990 H   0  0  0  0  0  0  0  0  0  0  0  0
   -2.4366   -0.6626   -1.8450 H   0  0  0  0  0  0  0  0  0  0  0  0
   -0.6956   -0.5804   -1.9726 H   0  0  0  0  0  0  0  0  0  0  0  0
   -0.0751    4.1349    0.9386 H   0  0  0  0  0  0  0  0  0  0  0  0
   -1.1798    3.9243    2.3037 H   0  0  0  0  0  0  0  0  0  0  0  0
    0.3587    3.0523    2.2765 H   0  0  0  0  0  0  0  0  0  0  0  0
    6.5768    0.5996   -1.2825 H   0  0  0  0  0  0  0  0  0  0  0  0
    6.0870    0.9999    0.3916 H   0  0  0  0  0  0  0  0  0  0  0  0
   -4.8484    2.1780   -0.4187 H   0  0  0  0  0  0  0  0  0  0  0  0
   -3.2373   -1.5609    1.0245 H   0  0  0  0  0  0  0  0  0  0  0  0
   -7.0815    1.1816   -0.5028 H   0  0  0  0  0  0  0  0  0  0  0  0
   -5.4758   -2.5592    0.9239 H   0  0  0  0  0  0  0  0  0  0  0  0
    8.8530    0.3862   -0.5740 H   0  0  0  0  0  0  0  0  0  0  0  0
    8.3617    0.7908    1.1129 H   0  0  0  0  0  0  0  0  0  0  0  0
   11.3985   -0.9627    1.4229 H   0  0  0  0  0  0  0  0  0  0  0  0
  1 29  1  0  0  0  0
  2 29  1  0  0  0  0
  3 29  1  0  0  0  0
  4 22  2  0  0  0  0
  5 23  1  0  0  0  0
  5 30  1  0  0  0  0
  6 31  1  0  0  0  0
  6 53  1  0  0  0  0
  7 31  2  0  0  0  0
  8 13  1  0  0  0  0
  8 22  1  0  0  0  0
  8 38  1  0  0  0  0
  9 10  1  0  0  0  0
  9 17  1  0  0  0  0
  9 21  1  0  0  0  0
 10 18  2  0  0  0  0
 11 12  1  0  0  0  0
 11 14  1  0  0  0  0
 11 15  1  0  0  0  0
 11 32  1  0  0  0  0
 12 13  1  0  0  0  0
 12 33  1  0  0  0  0
 12 34  1  0  0  0  0
 13 16  1  0  0  0  0
 13 35  1  0  0  0  0
 14 17  2  0  0  0  0
 14 18  1  0  0  0  0
 15 16  2  0  0  0  0
 15 36  1  0  0  0  0
 16 37  1  0  0  0  0
 17 19  1  0  0  0  0
 18 20  1  0  0  0  0
 19 39  1  0  0  0  0
 19 40  1  0  0  0  0
 19 41  1  0  0  0  0
 20 42  1  0  0  0  0
 20 43  1  0  0  0  0
 20 44  1  0  0  0  0
 21 24  2  0  0  0  0
 21 25  1  0  0  0  0
 22 23  1  0  0  0  0
 23 45  1  0  0  0  0
 23 46  1  0  0  0  0
 24 26  1  0  0  0  0
 24 47  1  0  0  0  0
 25 27  2  0  0  0  0
 25 48  1  0  0  0  0
 26 28  2  0  0  0  0
 26 49  1  0  0  0  0
 27 28  1  0  0  0  0
 27 50  1  0  0  0  0
 28 29  1  0  0  0  0
 30 31  1  0  0  0  0
 30 51  1  0  0  0  0
 30 52  1  0  0  0  0
M  END
> <PUBCHEM_COMPOUND_CID>
26743426

> <PUBCHEM_CONFORMER_RMSD>
1

> <PUBCHEM_CONFORMER_DIVERSEORDER>
1
4
30
26
8
7
19
38
28
11
27
25
21
29
12
41
31
9
20
37
35
24
17
6
2
14
18
23
22
39
40
36
10
32
34
16
3
15
13
33
5

> <PUBCHEM_MMFF94_PARTIAL_CHARGES>
38
1 -0.34
10 -0.71
11 0.32
13 0.44
14 -0.18
15 -0.29
16 -0.29
17 -0.33
18 0.11
19 0.18
2 -0.34
20 0.18
21 -0.02
22 0.57
23 0.34
24 -0.15
25 -0.15
26 -0.15
27 -0.15
28 -0.14
29 1.16
3 -0.34
30 0.34
31 0.66
36 0.15
37 0.15
38 0.37
4 -0.57
47 0.15
48 0.15
49 0.15
5 -0.56
50 0.15
53 0.5
6 -0.65
7 -0.57
8 -0.73
9 0.59

> <PUBCHEM_EFFECTIVE_ROTOR_COUNT>
9.6

> <PUBCHEM_PHARMACOPHORE_FEATURES>
10
1 10 acceptor
1 4 acceptor
1 5 acceptor
1 6 acceptor
1 7 acceptor
1 8 donor
3 6 7 31 anion
5 11 12 13 15 16 rings
5 9 10 14 17 18 rings
6 21 24 25 26 27 28 rings

> <PUBCHEM_HEAVY_ATOM_COUNT>
31

> <PUBCHEM_ATOM_DEF_STEREO_COUNT>
2

> <PUBCHEM_ATOM_UDEF_STEREO_COUNT>
0

> <PUBCHEM_BOND_DEF_STEREO_COUNT>
0

> <PUBCHEM_BOND_UDEF_STEREO_COUNT>
0

> <PUBCHEM_ISOTOPIC_ATOM_COUNT>
0

> <PUBCHEM_COMPONENT_COUNT>
1

> <PUBCHEM_CACTVS_TAUTO_COUNT>
2

> <PUBCHEM_CONFORMER_ID>
0198128200000001

> <PUBCHEM_MMFF94_ENERGY>
66.5279

> <PUBCHEM_FEATURE_SELFOVERLAP>
50.817

> <PUBCHEM_SHAPE_FINGERPRINT>
10 15 17703787008282028940
10165383 225 14836121057586515780
10369192 42 13758352255086325480
106641 1 16917067767436035974
10670039 82 13190331366806205015
10674148 151 15791728594438920901
10883706 17 17677059065452823307
11135609 99 18336830891686816870
11408170 108 17676488290253409914
12166972 35 18334583464218742237
12539745 222 18261671484994708588
12741549 16 18409167710540279325
14068700 675 18260269642060823780
14117953 113 12540698098963865554
14150022 121 16702029629893683121
14849402 71 13470400080861220282
15064981 194 9582933827302216414
15183329 4 16081087091148449997
15188451 53 18334297561293759652
15326923 82 18259983795350107828
15347590 135 17346604045469911826
15350500 16 17821726139809121846
15392192 104 15482670186749382934
15690457 1 18113335311082852666
15706992 2 12751240341391138886
15728490 51 18273210911294457598
18603816 31 18335135444963105743
20105231 36 18189335668879475890
20721686 146 10879728554718463387
21095123 293 11959731568920663394
21130935 74 18196935462578938690
212700 22 18113053831616756610
21307412 95 14923955552192324248
21360443 89 18334007290820158426
21585482 111 10375330902675673259
21792961 116 17967533498636078931
21895431 317 17096072586747248186
22224240 67 16056881329693469236
23522609 53 17909308907416382009
23559900 14 18117844524533347649
23576562 1 11026665179836236331
3004659 81 18113620114506184889
335352 9 11314030188195471635
4149490 64 17896331379086484409
4516262 110 11887679429084674753
45266715 3 15574711353778864610
5104073 3 17130444384064011350
5758199 1 13973965394149382148
59682541 35 17418091023190281834
6126387 218 18412546496907670273
6201320 82 9222414912981193603
9663363 56 18060416911644117685
9689198 14 11384114150588170236
9953998 17 15913324710720301287

> <PUBCHEM_SHAPE_MULTIPOLES>
577.72
30.08
2.31
1.45
43.41
0.96
-0.49
-23.78
11.43
-2.04
1.01
1.11
0.42
-1.05

> <PUBCHEM_SHAPE_SELFOVERLAP>
1234.505

> <PUBCHEM_SHAPE_VOLUME>
322.5

> <PUBCHEM_COORDINATE_TYPE>
2
5
10

$$$$
