75536048
  -OEChem-12032416323D

 75 78  0     1  0  0  0  0  0999 V2000
   -1.7702   -3.1914   -1.2365 O   0  0  0  0  0  0  0  0  0  0  0  0
   -2.7988    2.7958    0.4005 O   0  0  0  0  0  0  0  0  0  0  0  0
    1.9892    1.0666   -0.0197 N   0  0  0  0  0  0  0  0  0  0  0  0
    6.1119    1.6030   -0.9025 N   0  0  0  0  0  0  0  0  0  0  0  0
   -4.6299    1.5507   -0.2583 N   0  0  0  0  0  0  0  0  0  0  0  0
   -0.0654   -0.4275   -0.0363 C   0  0  1  0  0  0  0  0  0  0  0  0
   -0.4875   -1.5902    0.9238 C   0  0  2  0  0  0  0  0  0  0  0  0
    0.1480   -1.2210    2.3227 C   0  0  0  0  0  0  0  0  0  0  0  0
    1.3739   -0.1612    0.4648 C   0  0  2  0  0  0  0  0  0  0  0  0
    1.2412   -0.1664    1.9957 C   0  0  0  0  0  0  0  0  0  0  0  0
   -0.1530   -0.7843   -1.5388 C   0  0  0  0  0  0  0  0  0  0  0  0
   -0.0411   -2.9853    0.4188 C   0  0  0  0  0  0  0  0  0  0  0  0
   -0.9682    0.8214    0.1473 C   0  0  0  0  0  0  0  0  0  0  0  0
   -0.3554   -3.2486   -1.0545 C   0  0  2  0  0  0  0  0  0  0  0  0
    0.3279   -2.1806   -1.9093 C   0  0  0  0  0  0  0  0  0  0  0  0
    0.7826   -2.3949    3.0951 C   0  0  0  0  0  0  0  0  0  0  0  0
   -0.9248   -0.6269    3.2596 C   0  0  0  0  0  0  0  0  0  0  0  0
   -2.4142    0.5177   -0.1783 C   0  0  0  0  0  0  0  0  0  0  0  0
    3.4407    1.0227    0.1422 C   0  0  0  0  0  0  0  0  0  0  0  0
    0.1149   -4.6469   -1.4617 C   0  0  0  0  0  0  0  0  0  0  0  0
    4.0895    0.1770   -0.9576 C   0  0  0  0  0  0  0  0  0  0  0  0
    4.0192    2.4398    0.1208 C   0  0  0  0  0  0  0  0  0  0  0  0
   -3.2866    1.7318    0.0159 C   0  0  0  0  0  0  0  0  0  0  0  0
    5.6163    0.2204   -0.8540 C   0  0  0  0  0  0  0  0  0  0  0  0
    5.5484    2.4091    0.1893 C   0  0  0  0  0  0  0  0  0  0  0  0
   -5.6039    2.6228   -0.1137 C   0  0  0  0  0  0  0  0  0  0  0  0
   -5.2686    0.3219   -0.7191 C   0  0  0  0  0  0  0  0  0  0  0  0
    7.5735    1.6246   -0.8530 C   0  0  0  0  0  0  0  0  0  0  0  0
   -6.8498    2.1020   -0.8135 C   0  0  0  0  0  0  0  0  0  0  0  0
   -6.7599    0.5977   -0.5897 C   0  0  0  0  0  0  0  0  0  0  0  0
   -1.5719   -1.6628    1.0296 H   0  0  0  0  0  0  0  0  0  0  0  0
    1.9804   -1.0270    0.1779 H   0  0  0  0  0  0  0  0  0  0  0  0
    2.1981   -0.4067    2.4731 H   0  0  0  0  0  0  0  0  0  0  0  0
    0.9514    0.8240    2.3690 H   0  0  0  0  0  0  0  0  0  0  0  0
    0.4139   -0.0549   -2.1305 H   0  0  0  0  0  0  0  0  0  0  0  0
   -1.1650   -0.7363   -1.9362 H   0  0  0  0  0  0  0  0  0  0  0  0
    1.0387   -3.1143    0.5552 H   0  0  0  0  0  0  0  0  0  0  0  0
   -0.5364   -3.7454    1.0371 H   0  0  0  0  0  0  0  0  0  0  0  0
   -0.6223    1.6174   -0.5277 H   0  0  0  0  0  0  0  0  0  0  0  0
   -0.8837    1.2545    1.1461 H   0  0  0  0  0  0  0  0  0  0  0  0
    0.1025   -2.3501   -2.9701 H   0  0  0  0  0  0  0  0  0  0  0  0
    1.4178   -2.2406   -1.8028 H   0  0  0  0  0  0  0  0  0  0  0  0
    1.6521   -2.8116    2.5774 H   0  0  0  0  0  0  0  0  0  0  0  0
    1.1390   -2.0658    4.0789 H   0  0  0  0  0  0  0  0  0  0  0  0
    0.0592   -3.1997    3.2640 H   0  0  0  0  0  0  0  0  0  0  0  0
   -0.4754   -0.2690    4.1933 H   0  0  0  0  0  0  0  0  0  0  0  0
   -1.4664    0.2121    2.8211 H   0  0  0  0  0  0  0  0  0  0  0  0
   -1.6713   -1.3862    3.5207 H   0  0  0  0  0  0  0  0  0  0  0  0
    1.7614    1.2200   -1.0004 H   0  0  0  0  0  0  0  0  0  0  0  0
   -2.5783    0.2180   -1.2130 H   0  0  0  0  0  0  0  0  0  0  0  0
   -2.8189   -0.2525    0.4802 H   0  0  0  0  0  0  0  0  0  0  0  0
    3.7052    0.5939    1.1173 H   0  0  0  0  0  0  0  0  0  0  0  0
   -0.3772   -5.4177   -0.8577 H   0  0  0  0  0  0  0  0  0  0  0  0
    1.1982   -4.7590   -1.3490 H   0  0  0  0  0  0  0  0  0  0  0  0
   -0.1488   -4.8555   -2.5048 H   0  0  0  0  0  0  0  0  0  0  0  0
   -2.1758   -3.8636   -0.6627 H   0  0  0  0  0  0  0  0  0  0  0  0
    3.7750   -0.8705   -0.9034 H   0  0  0  0  0  0  0  0  0  0  0  0
    3.7877    0.5453   -1.9477 H   0  0  0  0  0  0  0  0  0  0  0  0
    3.7091    2.9633   -0.7939 H   0  0  0  0  0  0  0  0  0  0  0  0
    3.6295    3.0200    0.9664 H   0  0  0  0  0  0  0  0  0  0  0  0
    5.9374   -0.2788    0.0698 H   0  0  0  0  0  0  0  0  0  0  0  0
    6.0311   -0.3507   -1.6936 H   0  0  0  0  0  0  0  0  0  0  0  0
    5.9132    3.4408    0.1145 H   0  0  0  0  0  0  0  0  0  0  0  0
    5.8660    2.0216    1.1664 H   0  0  0  0  0  0  0  0  0  0  0  0
   -5.2259    3.5547   -0.5443 H   0  0  0  0  0  0  0  0  0  0  0  0
   -5.7769    2.7726    0.9578 H   0  0  0  0  0  0  0  0  0  0  0  0
   -4.9799    0.1653   -1.7641 H   0  0  0  0  0  0  0  0  0  0  0  0
   -4.9529   -0.5405   -0.1265 H   0  0  0  0  0  0  0  0  0  0  0  0
    7.9463    2.6513   -0.9400 H   0  0  0  0  0  0  0  0  0  0  0  0
    7.9630    1.1936    0.0764 H   0  0  0  0  0  0  0  0  0  0  0  0
    7.9955    1.0660   -1.6958 H   0  0  0  0  0  0  0  0  0  0  0  0
   -6.7972    2.3202   -1.8870 H   0  0  0  0  0  0  0  0  0  0  0  0
   -7.7701    2.5400   -0.4181 H   0  0  0  0  0  0  0  0  0  0  0  0
   -7.1004    0.3537    0.4239 H   0  0  0  0  0  0  0  0  0  0  0  0
   -7.3583    0.0220   -1.3009 H   0  0  0  0  0  0  0  0  0  0  0  0
  1 14  1  0  0  0  0
  1 56  1  0  0  0  0
  2 23  2  0  0  0  0
  3  9  1  0  0  0  0
  3 19  1  0  0  0  0
  3 49  1  0  0  0  0
  4 24  1  0  0  0  0
  4 25  1  0  0  0  0
  4 28  1  0  0  0  0
  5 23  1  0  0  0  0
  5 26  1  0  0  0  0
  5 27  1  0  0  0  0
  6  7  1  0  0  0  0
  6  9  1  0  0  0  0
  6 11  1  0  0  0  0
  6 13  1  0  0  0  0
  7  8  1  0  0  0  0
  7 12  1  0  0  0  0
  7 31  1  0  0  0  0
  8 10  1  0  0  0  0
  8 16  1  0  0  0  0
  8 17  1  0  0  0  0
  9 10  1  0  0  0  0
  9 32  1  0  0  0  0
 10 33  1  0  0  0  0
 10 34  1  0  0  0  0
 11 15  1  0  0  0  0
 11 35  1  0  0  0  0
 11 36  1  0  0  0  0
 12 14  1  0  0  0  0
 12 37  1  0  0  0  0
 12 38  1  0  0  0  0
 13 18  1  0  0  0  0
 13 39  1  0  0  0  0
 13 40  1  0  0  0  0
 14 15  1  0  0  0  0
 14 20  1  0  0  0  0
 15 41  1  0  0  0  0
 15 42  1  0  0  0  0
 16 43  1  0  0  0  0
 16 44  1  0  0  0  0
 16 45  1  0  0  0  0
 17 46  1  0  0  0  0
 17 47  1  0  0  0  0
 17 48  1  0  0  0  0
 18 23  1  0  0  0  0
 18 50  1  0  0  0  0
 18 51  1  0  0  0  0
 19 21  1  0  0  0  0
 19 22  1  0  0  0  0
 19 52  1  0  0  0  0
 20 53  1  0  0  0  0
 20 54  1  0  0  0  0
 20 55  1  0  0  0  0
 21 24  1  0  0  0  0
 21 57  1  0  0  0  0
 21 58  1  0  0  0  0
 22 25  1  0  0  0  0
 22 59  1  0  0  0  0
 22 60  1  0  0  0  0
 24 61  1  0  0  0  0
 24 62  1  0  0  0  0
 25 63  1  0  0  0  0
 25 64  1  0  0  0  0
 26 29  1  0  0  0  0
 26 65  1  0  0  0  0
 26 66  1  0  0  0  0
 27 30  1  0  0  0  0
 27 67  1  0  0  0  0
 27 68  1  0  0  0  0
 28 69  1  0  0  0  0
 28 70  1  0  0  0  0
 28 71  1  0  0  0  0
 29 30  1  0  0  0  0
 29 72  1  0  0  0  0
 29 73  1  0  0  0  0
 30 74  1  0  0  0  0
 30 75  1  0  0  0  0
M  END
> <PUBCHEM_COMPOUND_CID>
75536048

> <PUBCHEM_CONFORMER_RMSD>
1

> <PUBCHEM_CONFORMER_DIVERSEORDER>
1
49
40
51
50
29
10
38
45
46
53
20
7
42
34
16
3
48
41
39
17
12
13
15
14
35
28
43
8
44
24
37
27
47
22
4
5
52
32
25
36
21
33
11
30
31
23
26
9
6
18
19
2

> <PUBCHEM_MMFF94_PARTIAL_CHARGES>
17
1 -0.68
14 0.28
18 0.06
19 0.27
2 -0.57
23 0.57
24 0.27
25 0.27
26 0.3
27 0.3
28 0.27
3 -0.9
4 -0.81
49 0.36
5 -0.66
56 0.4
9 0.27

> <PUBCHEM_EFFECTIVE_ROTOR_COUNT>
9.6

> <PUBCHEM_PHARMACOPHORE_FEATURES>
11
1 1 acceptor
1 1 donor
1 2 acceptor
1 3 cation
1 3 donor
1 4 cation
3 8 16 17 hydrophobe
5 5 26 27 29 30 rings
5 6 7 8 9 10 rings
6 4 19 21 22 24 25 rings
6 6 7 11 12 14 15 rings

> <PUBCHEM_HEAVY_ATOM_COUNT>
30

> <PUBCHEM_ATOM_DEF_STEREO_COUNT>
4

> <PUBCHEM_ATOM_UDEF_STEREO_COUNT>
0

> <PUBCHEM_BOND_DEF_STEREO_COUNT>
0

> <PUBCHEM_BOND_UDEF_STEREO_COUNT>
0

> <PUBCHEM_ISOTOPIC_ATOM_COUNT>
0

> <PUBCHEM_COMPONENT_COUNT>
1

> <PUBCHEM_CACTVS_TAUTO_COUNT>
1

> <PUBCHEM_CONFORMER_ID>
048096B000000001

> <PUBCHEM_MMFF94_ENERGY>
86.7473

> <PUBCHEM_FEATURE_SELFOVERLAP>
55.94

> <PUBCHEM_SHAPE_FINGERPRINT>
10369192 42 18407759231554180037
10721379 63 17770795506684656575
10764073 3 13190602919986604927
107951 10 18113907078293046026
11421498 54 17489312919682387881
11443803 9 18337656590358825000
11488393 25 18125170342053429259
11823591 26 18114173138299886624
12422481 6 14417849245856769907
12597179 24 18261968378713893171
12788726 201 18049147071477194226
12977781 61 18043839544235430699
13150687 139 18411141316214173054
13257819 37 18342741835789857463
13590594 115 17544757185204280467
14713325 29 18269278035142198350
15131766 46 14997998972300583284
15297060 5 18273498992141482529
15961568 22 18187082806974577189
16114785 44 17971194978512080416
17980427 23 14851902382181454363
17980427 26 17532072934970512202
18681886 176 18341324583030701281
21344244 246 17915748574350948438
21756936 100 17822290240698033032
22224240 67 17095523998209421313
23419403 2 17614893596756143394
23559900 14 17696178220219350341
27425 322 17895201051664374292
2838139 119 18409165519362704692
3027735 51 13254256955343634580
3411729 13 18115304462940016289
3633792 109 17917439662247206516
4340502 62 17312821554547430105
4461854 278 18268162019100166603
44802255 64 18269289013727148358
46194498 28 18122623843474700367
57527293 21 13984666979376998360
57527573 199 17385731257729200265
58260988 587 18268441131142464783
59755656 520 18334569170361307156
6669772 16 18334861580467677958

> <PUBCHEM_SHAPE_MULTIPOLES>
590.7
14.35
4.28
2.2
0.65
3.99
-2.11
-19.6
6.67
-0.78
1.38
0.33
2.15
-0.31

> <PUBCHEM_SHAPE_SELFOVERLAP>
1220.535

> <PUBCHEM_SHAPE_VOLUME>
340

> <PUBCHEM_COORDINATE_TYPE>
2
5
10

$$$$
