26744329
  -OEChem-12032416373D

 44 47  0     1  0  0  0  0  0999 V2000
   -5.2026    2.7428    1.4081 O   0  0  0  0  0  0  0  0  0  0  0  0
   -1.3085    0.9163   -2.3321 O   0  0  0  0  0  0  0  0  0  0  0  0
    5.4335    0.4727    2.1853 O   0  5  0  0  0  0  0  0  0  0  0  0
    3.3487    0.3871    2.8676 O   0  0  0  0  0  0  0  0  0  0  0  0
   -3.0845   -0.0559    0.7354 N   0  0  1  0  0  0  0  0  0  0  0  0
   -0.3888    0.7031   -0.3011 N   0  0  0  0  0  0  0  0  0  0  0  0
    0.0781    0.9455   -2.5275 N   0  0  0  0  0  0  0  0  0  0  0  0
    0.5448   -3.3982   -0.2354 N   0  0  0  0  0  0  0  0  0  0  0  0
    4.2007    0.4903    1.9523 N   0  3  0  0  0  0  0  0  0  0  0  0
   -2.9331    0.7110   -0.5178 C   0  0  1  0  0  0  0  0  0  0  0  0
   -3.5147    2.1014   -0.2014 C   0  0  0  0  0  0  0  0  0  0  0  0
   -4.0085    2.0044    1.2367 C   0  0  2  0  0  0  0  0  0  0  0  0
   -4.2325    0.5174    1.4354 C   0  0  0  0  0  0  0  0  0  0  0  0
   -3.2347   -1.4887    0.5175 C   0  0  0  0  0  0  0  0  0  0  0  0
   -1.4971    0.7715   -0.9943 C   0  0  0  0  0  0  0  0  0  0  0  0
   -1.9117   -2.1574    0.2539 C   0  0  0  0  0  0  0  0  0  0  0  0
    0.5506    0.8143   -1.2844 C   0  0  0  0  0  0  0  0  0  0  0  0
   -1.7052   -2.8535   -0.9319 C   0  0  0  0  0  0  0  0  0  0  0  0
   -0.8913   -2.0811    1.1955 C   0  0  0  0  0  0  0  0  0  0  0  0
    1.9546    0.7922   -0.9910 C   0  0  0  0  0  0  0  0  0  0  0  0
   -0.4703   -3.4507   -1.1268 C   0  0  0  0  0  0  0  0  0  0  0  0
    0.3071   -2.7130    0.9055 C   0  0  0  0  0  0  0  0  0  0  0  0
    2.3905    0.6536    0.3268 C   0  0  0  0  0  0  0  0  0  0  0  0
    2.8841    0.9087   -2.0246 C   0  0  0  0  0  0  0  0  0  0  0  0
    3.7559    0.6314    0.6111 C   0  0  0  0  0  0  0  0  0  0  0  0
    4.2496    0.8868   -1.7403 C   0  0  0  0  0  0  0  0  0  0  0  0
    4.6855    0.7479   -0.4225 C   0  0  0  0  0  0  0  0  0  0  0  0
   -3.5456    0.2715   -1.3178 H   0  0  0  0  0  0  0  0  0  0  0  0
   -2.7818    2.9107   -0.2972 H   0  0  0  0  0  0  0  0  0  0  0  0
   -4.3424    2.3309   -0.8843 H   0  0  0  0  0  0  0  0  0  0  0  0
   -3.2496    2.3804    1.9338 H   0  0  0  0  0  0  0  0  0  0  0  0
   -4.2431    0.2559    2.4987 H   0  0  0  0  0  0  0  0  0  0  0  0
   -5.1906    0.2048    0.9993 H   0  0  0  0  0  0  0  0  0  0  0  0
   -3.9607   -1.7056   -0.2772 H   0  0  0  0  0  0  0  0  0  0  0  0
   -3.6392   -1.9632    1.4227 H   0  0  0  0  0  0  0  0  0  0  0  0
   -5.0058    3.6705    1.1928 H   0  0  0  0  0  0  0  0  0  0  0  0
   -2.4772   -2.9321   -1.6896 H   0  0  0  0  0  0  0  0  0  0  0  0
   -1.0164   -1.5505    2.1331 H   0  0  0  0  0  0  0  0  0  0  0  0
   -0.2583   -4.0042   -2.0357 H   0  0  0  0  0  0  0  0  0  0  0  0
    1.1349   -2.6820    1.6064 H   0  0  0  0  0  0  0  0  0  0  0  0
    1.6616    0.5630    1.1292 H   0  0  0  0  0  0  0  0  0  0  0  0
    2.5823    1.0180   -3.0633 H   0  0  0  0  0  0  0  0  0  0  0  0
    4.9734    0.9775   -2.5450 H   0  0  0  0  0  0  0  0  0  0  0  0
    5.7568    0.7346   -0.2388 H   0  0  0  0  0  0  0  0  0  0  0  0
  1 12  1  0  0  0  0
  1 36  1  0  0  0  0
  2  7  1  0  0  0  0
  2 15  1  0  0  0  0
  3  9  1  0  0  0  0
  4  9  2  0  0  0  0
  5 10  1  0  0  0  0
  5 13  1  0  0  0  0
  5 14  1  0  0  0  0
  6 15  2  0  0  0  0
  6 17  1  0  0  0  0
  7 17  2  0  0  0  0
  8 21  2  0  0  0  0
  8 22  1  0  0  0  0
  9 25  1  0  0  0  0
 10 11  1  0  0  0  0
 10 15  1  0  0  0  0
 10 28  1  0  0  0  0
 11 12  1  0  0  0  0
 11 29  1  0  0  0  0
 11 30  1  0  0  0  0
 12 13  1  0  0  0  0
 12 31  1  0  0  0  0
 13 32  1  0  0  0  0
 13 33  1  0  0  0  0
 14 16  1  0  0  0  0
 14 34  1  0  0  0  0
 14 35  1  0  0  0  0
 16 18  2  0  0  0  0
 16 19  1  0  0  0  0
 17 20  1  0  0  0  0
 18 21  1  0  0  0  0
 18 37  1  0  0  0  0
 19 22  2  0  0  0  0
 19 38  1  0  0  0  0
 20 23  2  0  0  0  0
 20 24  1  0  0  0  0
 21 39  1  0  0  0  0
 22 40  1  0  0  0  0
 23 25  1  0  0  0  0
 23 41  1  0  0  0  0
 24 26  2  0  0  0  0
 24 42  1  0  0  0  0
 25 27  2  0  0  0  0
 26 27  1  0  0  0  0
 26 43  1  0  0  0  0
 27 44  1  0  0  0  0
M  CHG  2   3  -1   9   1
M  END
> <PUBCHEM_COMPOUND_CID>
26744329

> <PUBCHEM_CONFORMER_RMSD>
0.8

> <PUBCHEM_CONFORMER_DIVERSEORDER>
1
9
73
26
6
29
66
53
70
10
44
46
40
23
45
69
68
79
18
75
31
61
74
50
39
21
55
15
8
51
2
24
57
25
52
11
42
47
41
4
77
56
32
76
48
43
30
17
72
19
80
3
65
16
54
34
37
12
58
38
60
49
59
67
63
7
71
35
27
28
62
64
14
20
13
5
33
36
22
78

> <PUBCHEM_MMFF94_PARTIAL_CHARGES>
35
1 -0.68
10 0.45
12 0.28
13 0.27
14 0.41
15 0.3
16 -0.14
17 0.46
18 -0.15
19 -0.15
2 -0.02
20 0.05
21 0.16
22 0.16
23 -0.15
24 -0.15
25 0.13
26 -0.15
27 -0.15
3 -0.52
36 0.4
37 0.15
38 0.15
39 0.15
4 -0.52
40 0.15
41 0.15
42 0.15
43 0.15
44 0.15
5 -0.81
6 -0.57
7 -0.41
8 -0.62
9 0.91

> <PUBCHEM_EFFECTIVE_ROTOR_COUNT>
6

> <PUBCHEM_PHARMACOPHORE_FEATURES>
12
1 1 acceptor
1 1 donor
1 3 acceptor
1 3 anion
1 4 acceptor
1 5 cation
1 8 acceptor
3 6 7 17 cation
5 2 6 7 15 17 rings
5 5 10 11 12 13 rings
6 20 23 24 25 26 27 rings
6 8 16 18 19 21 22 rings

> <PUBCHEM_HEAVY_ATOM_COUNT>
27

> <PUBCHEM_ATOM_DEF_STEREO_COUNT>
2

> <PUBCHEM_ATOM_UDEF_STEREO_COUNT>
0

> <PUBCHEM_BOND_DEF_STEREO_COUNT>
0

> <PUBCHEM_BOND_UDEF_STEREO_COUNT>
0

> <PUBCHEM_ISOTOPIC_ATOM_COUNT>
0

> <PUBCHEM_COMPONENT_COUNT>
1

> <PUBCHEM_CACTVS_TAUTO_COUNT>
1

> <PUBCHEM_CONFORMER_ID>
0198160900000001

> <PUBCHEM_MMFF94_ENERGY>
64.924

> <PUBCHEM_FEATURE_SELFOVERLAP>
60.978

> <PUBCHEM_SHAPE_FINGERPRINT>
11552529 35 18054500572355070518
11582403 64 17417237741668463493
11725454 13 17417812816267088453
12156800 1 12708330757814460482
12422481 6 17969221148675966755
12553582 1 17313377998216189596
12633257 1 18408320012322262640
12788726 201 17977399552634628679
13004483 165 17624691654377971439
131258 38 16530054269127982683
13583140 156 16916796239973069158
13642711 20 17203340995995774539
14468879 13 16773218708555905464
14739800 52 17628644055467623185
14840074 17 17458920308818008556
15420108 30 18339646625418068079
15537594 2 17240490225644172404
16752209 62 18264488553980571862
20261772 1 17822008726939820984
20554085 129 18271524192017612249
21033648 29 18060427910243311121
212916 134 18343025467177968361
22182313 1 17388545904707015293
23559900 14 18200612319123259324
23598288 3 17095792248607255852
23728640 28 18192165994915320311
3411729 13 18118138978473829257
495365 180 18125726678078396485
5265222 85 18124064418603288566
602551 16 18340772662610610622
6438718 38 18262805197631425174
7064713 232 18408322185464399144
9862522 239 18187072932643374229

> <PUBCHEM_SHAPE_MULTIPOLES>
507.27
9.45
3.38
2.31
4.68
3.45
-0.41
-6.89
-5.19
-3.54
0.3
2.19
-0.67
-1.14

> <PUBCHEM_SHAPE_SELFOVERLAP>
1109.65

> <PUBCHEM_SHAPE_VOLUME>
275.4

> <PUBCHEM_COORDINATE_TYPE>
2
5
10

$$$$
