7664036
  -OEChem-12032416133D

 62 64  0     1  0  0  0  0  0999 V2000
    3.2575   -2.1270   -0.7843 S   0  0  0  0  0  0  0  0  0  0  0  0
   -1.7898    1.7863    1.0308 O   0  0  0  0  0  0  0  0  0  0  0  0
    3.7507   -2.1896   -2.1433 O   0  0  0  0  0  0  0  0  0  0  0  0
    3.0338   -3.3325   -0.0155 O   0  0  0  0  0  0  0  0  0  0  0  0
   -0.8353   -2.2389   -1.1067 O   0  0  0  0  0  0  0  0  0  0  0  0
   -5.7252   -2.9863    0.2359 O   0  0  0  0  0  0  0  0  0  0  0  0
   -4.6315   -1.7285    1.8192 O   0  0  0  0  0  0  0  0  0  0  0  0
   -0.2451    0.7504   -0.3680 N   0  0  0  0  0  0  0  0  0  0  0  0
    1.8350   -1.1736   -0.7493 N   0  0  1  0  0  0  0  0  0  0  0  0
   -1.8192    5.4107    0.5336 N   0  0  0  0  0  0  0  0  0  0  0  0
   -2.5132   -1.2324    0.1545 N   0  0  0  0  0  0  0  0  0  0  0  0
   -0.2484   -0.4915    0.4139 C   0  0  2  0  0  0  0  0  0  0  0  0
   -1.2093    2.9513   -0.9434 C   0  0  0  0  0  0  0  0  0  0  0  0
    1.1375   -1.1124    0.5690 C   0  0  0  0  0  0  0  0  0  0  0  0
    0.5608    0.7442   -1.5987 C   0  0  0  0  0  0  0  0  0  0  0  0
    1.9545    0.1787   -1.3608 C   0  0  0  0  0  0  0  0  0  0  0  0
   -1.1148    1.7835   -0.0021 C   0  0  0  0  0  0  0  0  0  0  0  0
   -2.6104    3.5654   -0.9111 C   0  0  0  0  0  0  0  0  0  0  0  0
   -0.1444    4.0008   -0.6179 C   0  0  0  0  0  0  0  0  0  0  0  0
   -2.8523    4.3914    0.3532 C   0  0  0  0  0  0  0  0  0  0  0  0
   -0.4902    4.8085    0.6341 C   0  0  0  0  0  0  0  0  0  0  0  0
   -1.2083   -1.4256   -0.2654 C   0  0  0  0  0  0  0  0  0  0  0  0
    4.3469   -1.0883    0.1381 C   0  0  0  0  0  0  0  0  0  0  0  0
   -3.6304   -1.9888   -0.3633 C   0  0  2  0  0  0  0  0  0  0  0  0
    4.4353   -1.2257    1.5236 C   0  0  0  0  0  0  0  0  0  0  0  0
    5.1192   -0.1299   -0.5182 C   0  0  0  0  0  0  0  0  0  0  0  0
   -4.2221   -1.2928   -1.5790 C   0  0  0  0  0  0  0  0  0  0  0  0
   -4.7023   -2.2112    0.6934 C   0  0  0  0  0  0  0  0  0  0  0  0
    5.2956   -0.4047    2.2524 C   0  0  0  0  0  0  0  0  0  0  0  0
    5.9797    0.6910    0.2107 C   0  0  0  0  0  0  0  0  0  0  0  0
    6.0678    0.5535    1.5962 C   0  0  0  0  0  0  0  0  0  0  0  0
   -6.7821   -3.2360    1.1684 C   0  0  0  0  0  0  0  0  0  0  0  0
   -0.6258   -0.2851    1.4234 H   0  0  0  0  0  0  0  0  0  0  0  0
   -1.0868    2.6007   -1.9724 H   0  0  0  0  0  0  0  0  0  0  0  0
    1.7216   -0.4943    1.2597 H   0  0  0  0  0  0  0  0  0  0  0  0
    1.0419   -2.1162    0.9963 H   0  0  0  0  0  0  0  0  0  0  0  0
    0.0186    0.1431   -2.3378 H   0  0  0  0  0  0  0  0  0  0  0  0
    0.6863    1.7428   -2.0175 H   0  0  0  0  0  0  0  0  0  0  0  0
    2.5017    0.8521   -0.6926 H   0  0  0  0  0  0  0  0  0  0  0  0
    2.4788    0.1213   -2.3197 H   0  0  0  0  0  0  0  0  0  0  0  0
   -2.7335    4.2164   -1.7871 H   0  0  0  0  0  0  0  0  0  0  0  0
   -3.3782    2.7856   -0.9892 H   0  0  0  0  0  0  0  0  0  0  0  0
    0.8391    3.5369   -0.4794 H   0  0  0  0  0  0  0  0  0  0  0  0
   -0.0522    4.6874   -1.4696 H   0  0  0  0  0  0  0  0  0  0  0  0
   -3.8168    4.9022    0.2470 H   0  0  0  0  0  0  0  0  0  0  0  0
   -2.9426    3.7770    1.2532 H   0  0  0  0  0  0  0  0  0  0  0  0
    0.2490    5.6082    0.7552 H   0  0  0  0  0  0  0  0  0  0  0  0
   -0.4246    4.1807    1.5306 H   0  0  0  0  0  0  0  0  0  0  0  0
   -2.0141    5.9417    1.3818 H   0  0  0  0  0  0  0  0  0  0  0  0
   -2.7128   -0.5097    0.8401 H   0  0  0  0  0  0  0  0  0  0  0  0
   -3.2566   -2.9780   -0.6541 H   0  0  0  0  0  0  0  0  0  0  0  0
    3.8414   -1.9631    2.0560 H   0  0  0  0  0  0  0  0  0  0  0  0
    5.0664   -0.0036   -1.5958 H   0  0  0  0  0  0  0  0  0  0  0  0
   -5.0318   -1.8797   -2.0248 H   0  0  0  0  0  0  0  0  0  0  0  0
   -3.4607   -1.1325   -2.3501 H   0  0  0  0  0  0  0  0  0  0  0  0
   -4.6324   -0.3122   -1.3104 H   0  0  0  0  0  0  0  0  0  0  0  0
    5.3637   -0.5109    3.3311 H   0  0  0  0  0  0  0  0  0  0  0  0
    6.5806    1.4377   -0.3000 H   0  0  0  0  0  0  0  0  0  0  0  0
    6.7374    1.1931    2.1638 H   0  0  0  0  0  0  0  0  0  0  0  0
   -6.3973   -3.7686    2.0434 H   0  0  0  0  0  0  0  0  0  0  0  0
   -7.2554   -2.2951    1.4649 H   0  0  0  0  0  0  0  0  0  0  0  0
   -7.5288   -3.8643    0.6755 H   0  0  0  0  0  0  0  0  0  0  0  0
  1  3  2  0  0  0  0
  1  4  2  0  0  0  0
  1  9  1  0  0  0  0
  1 23  1  0  0  0  0
  2 17  2  0  0  0  0
  5 22  2  0  0  0  0
  6 28  1  0  0  0  0
  6 32  1  0  0  0  0
  7 28  2  0  0  0  0
  8 12  1  0  0  0  0
  8 15  1  0  0  0  0
  8 17  1  0  0  0  0
  9 14  1  0  0  0  0
  9 16  1  0  0  0  0
 10 20  1  0  0  0  0
 10 21  1  0  0  0  0
 10 49  1  0  0  0  0
 11 22  1  0  0  0  0
 11 24  1  0  0  0  0
 11 50  1  0  0  0  0
 12 14  1  0  0  0  0
 12 22  1  0  0  0  0
 12 33  1  0  0  0  0
 13 17  1  0  0  0  0
 13 18  1  0  0  0  0
 13 19  1  0  0  0  0
 13 34  1  0  0  0  0
 14 35  1  0  0  0  0
 14 36  1  0  0  0  0
 15 16  1  0  0  0  0
 15 37  1  0  0  0  0
 15 38  1  0  0  0  0
 16 39  1  0  0  0  0
 16 40  1  0  0  0  0
 18 20  1  0  0  0  0
 18 41  1  0  0  0  0
 18 42  1  0  0  0  0
 19 21  1  0  0  0  0
 19 43  1  0  0  0  0
 19 44  1  0  0  0  0
 20 45  1  0  0  0  0
 20 46  1  0  0  0  0
 21 47  1  0  0  0  0
 21 48  1  0  0  0  0
 23 25  2  0  0  0  0
 23 26  1  0  0  0  0
 24 27  1  0  0  0  0
 24 28  1  0  0  0  0
 24 51  1  0  0  0  0
 25 29  1  0  0  0  0
 25 52  1  0  0  0  0
 26 30  2  0  0  0  0
 26 53  1  0  0  0  0
 27 54  1  0  0  0  0
 27 55  1  0  0  0  0
 27 56  1  0  0  0  0
 29 31  2  0  0  0  0
 29 57  1  0  0  0  0
 30 31  1  0  0  0  0
 30 58  1  0  0  0  0
 31 59  1  0  0  0  0
 32 60  1  0  0  0  0
 32 61  1  0  0  0  0
 32 62  1  0  0  0  0
M  END
> <PUBCHEM_COMPOUND_CID>
7664036

> <PUBCHEM_CONFORMER_RMSD>
1.2

> <PUBCHEM_CONFORMER_DIVERSEORDER>
1
123
42
59
17
58
44
102
77
71
78
89
45
96
105
81
93
40
22
51
104
108
74
46
112
86
109
100
25
79
68
97
4
85
75
114
55
107
87
120
19
98
11
43
99
34
62
95
122
53
39
47
83
61
57
111
37
70
110
65
32
33
64
23
103
54
92
94
49
60
73
90
116
101
13
80
82
28
91
67
124
41
38
69
15
35
7
118
76
121
8
26
117
30
88
113
3
106
56
16
63
36
66
48
2
52
115
72
10
12
29
31
27
14
21
5
119
24
50
18
20
6
84
9

> <PUBCHEM_MMFF94_PARTIAL_CHARGES>
36
1 1.45
10 -0.9
11 -0.73
12 0.36
13 0.06
14 0.36
15 0.3
16 0.36
17 0.57
2 -0.57
20 0.27
21 0.27
22 0.57
23 -0.01
24 0.36
25 -0.15
26 -0.15
28 0.66
29 -0.15
3 -0.65
30 -0.15
31 -0.15
32 0.28
4 -0.65
49 0.36
5 -0.57
50 0.37
52 0.15
53 0.15
57 0.15
58 0.15
59 0.15
6 -0.43
7 -0.57
8 -0.66
9 -0.85

> <PUBCHEM_EFFECTIVE_ROTOR_COUNT>
11.4

> <PUBCHEM_PHARMACOPHORE_FEATURES>
11
1 10 cation
1 10 donor
1 11 donor
1 2 acceptor
1 3 acceptor
1 4 acceptor
1 5 acceptor
1 7 acceptor
6 10 13 18 19 20 21 rings
6 23 25 26 29 30 31 rings
6 8 9 12 14 15 16 rings

> <PUBCHEM_HEAVY_ATOM_COUNT>
32

> <PUBCHEM_ATOM_DEF_STEREO_COUNT>
2

> <PUBCHEM_ATOM_UDEF_STEREO_COUNT>
0

> <PUBCHEM_BOND_DEF_STEREO_COUNT>
0

> <PUBCHEM_BOND_UDEF_STEREO_COUNT>
0

> <PUBCHEM_ISOTOPIC_ATOM_COUNT>
0

> <PUBCHEM_COMPONENT_COUNT>
1

> <PUBCHEM_CACTVS_TAUTO_COUNT>
2

> <PUBCHEM_CONFORMER_ID>
0074F1A400000001

> <PUBCHEM_MMFF94_ENERGY>
60.7809

> <PUBCHEM_FEATURE_SELFOVERLAP>
55.84

> <PUBCHEM_SHAPE_FINGERPRINT>
10074138 170 18263639559468897025
10319926 262 18194950861096521338
11115154 58 18053908893982670485
11399510 152 18194933341882659050
11456790 92 18114755936373278491
11578080 2 18130228129989900120
11646440 116 18261958556144994219
12342043 65 17630350574575488070
12422481 6 18200052646150847659
12516196 113 18336547221966396307
12633046 712 16983807960603254878
12788726 201 18334018306651643194
13540713 4 18129383696786773358
13583140 156 17845358961164010574
13692114 37 17906728108110417285
13782708 43 18201724995053430270
13835254 42 18411422786706336651
14028597 1 17749103366482073939
14068700 686 18342741780214206558
14178342 30 18190174595169586046
14840074 17 18059570360230642078
14955137 171 18192713577512413747
15775530 1 17626684708113350447
17980427 23 16844448413593966935
17980427 26 17549259689382375989
1813 80 18340496654853396175
19301679 30 18409169883276616739
20238998 120 18339923813827766577
21049683 271 17972043797130679925
2132832 1 18114467837649752812
21344244 78 18339365287547904155
23845131 108 17833548990490089993
24771293 8 18058446693532635082
283562 15 18333731299388076203
3886686 26 17542484060693419922
469060 322 18410023134136740713
58260988 393 18335129908907653066
6004065 56 18192991741302019291
613672 6 18411135866091292975
653340 110 18339081475729325490
7399639 24 18201718440648129422
79837 15 17906172854369352481
9658208 31 17908432355069851780
9777508 108 18123471574944282360

> <PUBCHEM_SHAPE_MULTIPOLES>
607.25
13.12
6.27
1.64
3.15
9.78
0.1
-12.71
5.8
-9.38
0.64
0.97
-0.55
1.59

> <PUBCHEM_SHAPE_SELFOVERLAP>
1251.131

> <PUBCHEM_SHAPE_VOLUME>
348

> <PUBCHEM_COORDINATE_TYPE>
2
5
10

$$$$
