11879546
  -OEChem-12032416373D

 57 61  0     1  0  0  0  0  0999 V2000
    0.6720    0.2932   -1.1243 O   0  0  0  0  0  0  0  0  0  0  0  0
   -1.2617   -1.8410   -0.0011 O   0  0  0  0  0  0  0  0  0  0  0  0
    2.3119   -1.6020    0.0541 O   0  0  0  0  0  0  0  0  0  0  0  0
    2.9882    0.1098    1.4113 O   0  0  0  0  0  0  0  0  0  0  0  0
   -2.2428    1.6603   -0.4442 N   0  0  0  0  0  0  0  0  0  0  0  0
   -1.4565    2.7404   -0.3888 N   0  0  0  0  0  0  0  0  0  0  0  0
   -3.5301    3.2536    0.2492 N   0  0  0  0  0  0  0  0  0  0  0  0
   -2.2509    3.7152    0.0367 N   0  0  0  0  0  0  0  0  0  0  0  0
    4.4868   -1.0069    0.0016 N   0  0  0  0  0  0  0  0  0  0  0  0
   -7.8021   -1.6686    0.1711 N   0  0  0  0  0  0  0  0  0  0  0  0
   10.2060   -0.8933   -1.4408 N   0  0  0  0  0  0  0  0  0  0  0  0
   -1.1137   -0.4291    0.2669 C   0  0  1  0  0  0  0  0  0  0  0  0
    0.3709   -0.1270    0.2156 C   0  0  1  0  0  0  0  0  0  0  0  0
   -1.7042    0.3694   -0.8790 C   0  0  2  0  0  0  0  0  0  0  0  0
    0.9938   -1.4653    0.5343 C   0  0  1  0  0  0  0  0  0  0  0  0
   -0.5456    0.4446   -1.8683 C   0  0  0  0  0  0  0  0  0  0  0  0
    0.0405   -2.4266   -0.1366 C   0  0  0  0  0  0  0  0  0  0  0  0
   -3.5013    1.9767   -0.0560 C   0  0  0  0  0  0  0  0  0  0  0  0
    3.2572   -0.7413    0.5725 C   0  0  0  0  0  0  0  0  0  0  0  0
   -4.5999    1.0469    0.0021 C   0  0  0  0  0  0  0  0  0  0  0  0
   -5.4195    0.8620   -1.1125 C   0  0  0  0  0  0  0  0  0  0  0  0
   -4.8461    0.3277    1.1728 C   0  0  0  0  0  0  0  0  0  0  0  0
   -6.4824   -0.0395   -1.0565 C   0  0  0  0  0  0  0  0  0  0  0  0
   -5.9091   -0.5739    1.2288 C   0  0  0  0  0  0  0  0  0  0  0  0
   -6.7273   -0.7576    0.1140 C   0  0  0  0  0  0  0  0  0  0  0  0
    5.7194   -0.3608    0.2495 C   0  0  0  0  0  0  0  0  0  0  0  0
    6.8534   -0.7761   -0.4303 C   0  0  0  0  0  0  0  0  0  0  0  0
    5.7695    0.6760    1.1679 C   0  0  0  0  0  0  0  0  0  0  0  0
   -8.4716   -1.9363    1.4287 C   0  0  0  0  0  0  0  0  0  0  0  0
   -8.2427   -2.3600   -1.0243 C   0  0  0  0  0  0  0  0  0  0  0  0
    8.0693   -0.1378   -0.1853 C   0  0  0  0  0  0  0  0  0  0  0  0
    6.9854    1.3143    1.4127 C   0  0  0  0  0  0  0  0  0  0  0  0
    8.1352    0.9074    0.7362 C   0  0  0  0  0  0  0  0  0  0  0  0
    9.2479   -0.5545   -0.8778 C   0  0  0  0  0  0  0  0  0  0  0  0
   -1.5604   -0.2326    1.2465 H   0  0  0  0  0  0  0  0  0  0  0  0
    0.6560    0.6849    0.8899 H   0  0  0  0  0  0  0  0  0  0  0  0
   -2.5376   -0.1528   -1.3629 H   0  0  0  0  0  0  0  0  0  0  0  0
    0.9666   -1.6450    1.6176 H   0  0  0  0  0  0  0  0  0  0  0  0
   -0.5059    1.3682   -2.4532 H   0  0  0  0  0  0  0  0  0  0  0  0
   -0.5912   -0.3940   -2.5724 H   0  0  0  0  0  0  0  0  0  0  0  0
    0.0493   -3.4160    0.3303 H   0  0  0  0  0  0  0  0  0  0  0  0
    0.2622   -2.5585   -1.2017 H   0  0  0  0  0  0  0  0  0  0  0  0
   -5.2427    1.4156   -2.0318 H   0  0  0  0  0  0  0  0  0  0  0  0
   -4.2153    0.4574    2.0491 H   0  0  0  0  0  0  0  0  0  0  0  0
    4.5107   -1.7597   -0.6819 H   0  0  0  0  0  0  0  0  0  0  0  0
   -7.1073   -0.1501   -1.9382 H   0  0  0  0  0  0  0  0  0  0  0  0
   -6.0642   -1.1258    2.1516 H   0  0  0  0  0  0  0  0  0  0  0  0
    6.7974   -1.5916   -1.1481 H   0  0  0  0  0  0  0  0  0  0  0  0
    4.9240    1.0463    1.7291 H   0  0  0  0  0  0  0  0  0  0  0  0
   -7.8915   -2.6397    2.0352 H   0  0  0  0  0  0  0  0  0  0  0  0
   -8.6334   -1.0160    2.0014 H   0  0  0  0  0  0  0  0  0  0  0  0
   -9.4594   -2.3809    1.2632 H   0  0  0  0  0  0  0  0  0  0  0  0
   -7.3931   -2.7074   -1.6230 H   0  0  0  0  0  0  0  0  0  0  0  0
   -8.8340   -3.2476   -0.7726 H   0  0  0  0  0  0  0  0  0  0  0  0
   -8.8729   -1.7089   -1.6391 H   0  0  0  0  0  0  0  0  0  0  0  0
    7.0380    2.1283    2.1300 H   0  0  0  0  0  0  0  0  0  0  0  0
    9.0756    1.4147    0.9380 H   0  0  0  0  0  0  0  0  0  0  0  0
  1 13  1  0  0  0  0
  1 16  1  0  0  0  0
  2 12  1  0  0  0  0
  2 17  1  0  0  0  0
  3 15  1  0  0  0  0
  3 19  1  0  0  0  0
  4 19  2  0  0  0  0
  5  6  1  0  0  0  0
  5 14  1  0  0  0  0
  5 18  1  0  0  0  0
  6  8  2  0  0  0  0
  7  8  1  0  0  0  0
  7 18  2  0  0  0  0
  9 19  1  0  0  0  0
  9 26  1  0  0  0  0
  9 45  1  0  0  0  0
 10 25  1  0  0  0  0
 10 29  1  0  0  0  0
 10 30  1  0  0  0  0
 11 34  3  0  0  0  0
 12 13  1  0  0  0  0
 12 14  1  0  0  0  0
 12 35  1  0  0  0  0
 13 15  1  0  0  0  0
 13 36  1  0  0  0  0
 14 16  1  0  0  0  0
 14 37  1  0  0  0  0
 15 17  1  0  0  0  0
 15 38  1  0  0  0  0
 16 39  1  0  0  0  0
 16 40  1  0  0  0  0
 17 41  1  0  0  0  0
 17 42  1  0  0  0  0
 18 20  1  0  0  0  0
 20 21  2  0  0  0  0
 20 22  1  0  0  0  0
 21 23  1  0  0  0  0
 21 43  1  0  0  0  0
 22 24  2  0  0  0  0
 22 44  1  0  0  0  0
 23 25  2  0  0  0  0
 23 46  1  0  0  0  0
 24 25  1  0  0  0  0
 24 47  1  0  0  0  0
 26 27  1  0  0  0  0
 26 28  2  0  0  0  0
 27 31  2  0  0  0  0
 27 48  1  0  0  0  0
 28 32  1  0  0  0  0
 28 49  1  0  0  0  0
 29 50  1  0  0  0  0
 29 51  1  0  0  0  0
 29 52  1  0  0  0  0
 30 53  1  0  0  0  0
 30 54  1  0  0  0  0
 30 55  1  0  0  0  0
 31 33  1  0  0  0  0
 31 34  1  0  0  0  0
 32 33  2  0  0  0  0
 32 56  1  0  0  0  0
 33 57  1  0  0  0  0
M  END
> <PUBCHEM_COMPOUND_CID>
11879546

> <PUBCHEM_CONFORMER_RMSD>
1

> <PUBCHEM_CONFORMER_DIVERSEORDER>
1
23
47
95
37
41
68
10
55
99
120
100
106
112
89
43
60
36
163
69
179
167
7
172
177
130
34
58
56
79
108
33
147
140
103
122
180
175
39
97
12
65
118
75
90
129
146
77
52
139
92
173
131
151
15
44
132
13
45
102
169
26
83
165
40
176
17
50
104
178
137
76
168
66
14
63
171
156
59
24
30
16
49
46
3
70
117
123
87
101
64
6
4
113
141
96
48
166
35
67
73
144
85
28
150
19
153
25
20
31
11
88
8
51
42
121
72
94
154
127
128
116
115
57
86
21
149
32
109
143
170
157
107
84
18
5
160
38
174
54
136
81
110
93
145
133
91
135
164
53
61
78
142
111
134
119
2
98
74
138
159
80
71
126
155
105
29
9
62
148
22
161
27
152
114
124
162
125
158
82

> <PUBCHEM_MMFF94_PARTIAL_CHARGES>
42
1 -0.56
10 -0.84
11 -0.56
12 0.28
13 0.28
14 0.26
15 0.28
16 0.28
17 0.28
18 0.13
19 0.78
2 -0.56
20 0.05
21 -0.15
22 -0.15
23 -0.15
24 -0.15
25 0.1
26 0.12
27 -0.15
28 -0.15
29 0.37
3 -0.43
30 0.37
31 0.07
32 -0.15
33 -0.15
34 0.48
4 -0.57
43 0.15
44 0.15
45 0.37
46 0.15
47 0.15
48 0.15
49 0.15
5 0.31
56 0.15
57 0.15
6 -0.42
7 -0.34
9 -0.55

> <PUBCHEM_EFFECTIVE_ROTOR_COUNT>
8.2

> <PUBCHEM_PHARMACOPHORE_FEATURES>
12
1 1 acceptor
1 10 cation
1 11 acceptor
1 2 acceptor
1 4 acceptor
1 9 donor
3 5 7 18 cation
5 1 12 13 14 16 rings
5 2 12 13 15 17 rings
5 5 6 7 8 18 rings
6 20 21 22 23 24 25 rings
6 26 27 28 31 32 33 rings

> <PUBCHEM_HEAVY_ATOM_COUNT>
34

> <PUBCHEM_ATOM_DEF_STEREO_COUNT>
4

> <PUBCHEM_ATOM_UDEF_STEREO_COUNT>
0

> <PUBCHEM_BOND_DEF_STEREO_COUNT>
0

> <PUBCHEM_BOND_UDEF_STEREO_COUNT>
0

> <PUBCHEM_ISOTOPIC_ATOM_COUNT>
0

> <PUBCHEM_COMPONENT_COUNT>
1

> <PUBCHEM_CACTVS_TAUTO_COUNT>
2

> <PUBCHEM_CONFORMER_ID>
00B5447A00000001

> <PUBCHEM_MMFF94_ENERGY>
108.7847

> <PUBCHEM_FEATURE_SELFOVERLAP>
61.599

> <PUBCHEM_SHAPE_FINGERPRINT>
10 15 18260543438136350784
10076449 9 18060422421628080064
10369192 42 16988842769948486453
10674148 151 12103842350375670382
11135609 99 18041286586047357067
11146851 88 17676211299137802523
11211813 128 18342460352524392479
11273773 118 14907903730709928137
11315181 36 17749392542656989645
11497681 19 18260263006193776918
12144600 37 18270685251660639918
12373685 5 15647320910879866521
12643181 29 9655569704179333512
13782708 43 18196375818690285710
14118638 360 18114460064048869698
1454969 45 18186518804278524007
14856354 85 18341609343535840975
15183329 4 16056591024686237336
15461852 350 18113338608910893390
15728490 51 18335419088734477983
16628084 112 13182480815055481284
18335252 98 18413110550135306782
18603816 31 13045951243235014481
18608769 82 18342171189402890466
19611394 137 18261118525145059531
20105231 36 18202563986248253678
21365058 27 17132113550416771551
21792961 116 18130793318323227178
24771293 8 17749672900404036380
25019877 29 18131633387233290982
2747138 104 18411134757989347409
3092352 35 16343703244145472007
3383291 50 18335701667385493130
4098825 35 17632295641025525870
44317340 157 16987988523219179840
444769 64 10303808796142105029
4461854 278 18201164342928806103
474113 269 14490736958837107784
4874694 18 11458424648616085528
5381727 24 9727628420174267341
54039377 194 18261394494886975103
550186 72 18263359205126099460
563151 40 16343692261866416191
57527293 21 17315626288467003312
58260988 521 17489872652557494447
59682541 35 18409166644944297275
59755656 520 15051724296370958821
6009941 240 8574706910228084665
6126387 218 8790880775274753998
6673363 416 18413111650169492460
6703917 75 18336557049294219858
9663363 56 18408323299095506595

> <PUBCHEM_SHAPE_MULTIPOLES>
641.36
29.91
2.62
1.31
35.4
1.73
-0.06
-10.86
-0.54
-4.38
0.01
-0.06
-0.05
1.7

> <PUBCHEM_SHAPE_SELFOVERLAP>
1401.11

> <PUBCHEM_SHAPE_VOLUME>
348.8

> <PUBCHEM_COORDINATE_TYPE>
2
5
10

$$$$
