45361424
  -OEChem-12032416313D

 76 78  0     1  0  0  0  0  0999 V2000
    0.2983   -2.5489   -1.3740 O   0  0  0  0  0  0  0  0  0  0  0  0
    5.0252   -2.0541    1.0721 O   0  0  0  0  0  0  0  0  0  0  0  0
   -5.2589    1.5027   -1.8212 O   0  0  0  0  0  0  0  0  0  0  0  0
   -4.4734   -0.1716   -0.4146 N   0  0  0  0  0  0  0  0  0  0  0  0
    4.5904   -1.1888   -1.0356 N   0  0  0  0  0  0  0  0  0  0  0  0
    6.6187    0.9907    0.4538 N   0  0  0  0  0  0  0  0  0  0  0  0
   -0.4286    0.3926    0.9486 C   0  0  1  0  0  0  0  0  0  0  0  0
   -0.6471   -0.6152   -0.2285 C   0  0  2  0  0  0  0  0  0  0  0  0
   -2.1523   -1.0564   -0.3145 C   0  0  1  0  0  0  0  0  0  0  0  0
    0.3876   -1.7760   -0.1762 C   0  0  2  0  0  0  0  0  0  0  0  0
    1.0353    0.8926    0.9349 C   0  0  0  0  0  0  0  0  0  0  0  0
   -1.3466    1.6190    0.7394 C   0  0  0  0  0  0  0  0  0  0  0  0
    1.8459   -1.2690   -0.0850 C   0  0  1  0  0  0  0  0  0  0  0  0
   -3.0719    0.1899   -0.4493 C   0  0  2  0  0  0  0  0  0  0  0  0
    2.0506   -0.2389    1.0257 C   0  0  0  0  0  0  0  0  0  0  0  0
   -2.8187    1.2504    0.6218 C   0  0  0  0  0  0  0  0  0  0  0  0
   -0.7264   -0.2373    2.3330 C   0  0  0  0  0  0  0  0  0  0  0  0
    2.8392   -2.4232    0.0972 C   0  0  2  0  0  0  0  0  0  0  0  0
   -2.4443   -2.0276   -1.4709 C   0  0  0  0  0  0  0  0  0  0  0  0
    2.5167   -3.1972    1.3706 C   0  0  0  0  0  0  0  0  0  0  0  0
    4.2655   -1.8827    0.1210 C   0  0  0  0  0  0  0  0  0  0  0  0
   -5.4502    0.5202   -1.1074 C   0  0  0  0  0  0  0  0  0  0  0  0
   -6.8426   -0.0528   -0.8994 C   0  0  0  0  0  0  0  0  0  0  0  0
   -7.5963    0.5099    0.3290 C   0  0  0  0  0  0  0  0  0  0  0  0
    5.8846   -0.5826   -1.2455 C   0  0  0  0  0  0  0  0  0  0  0  0
   -8.9858   -0.1342    0.4691 C   0  0  0  0  0  0  0  0  0  0  0  0
   -6.7743    0.1734    1.5887 C   0  0  0  0  0  0  0  0  0  0  0  0
   -7.7512    2.0371    0.2439 C   0  0  0  0  0  0  0  0  0  0  0  0
    5.9439    0.8168   -0.7046 C   0  0  0  0  0  0  0  0  0  0  0  0
    5.3207    1.8402   -1.4004 C   0  0  0  0  0  0  0  0  0  0  0  0
    5.3953    3.1248   -0.8735 C   0  0  0  0  0  0  0  0  0  0  0  0
    6.6698    2.2528    0.9354 C   0  0  0  0  0  0  0  0  0  0  0  0
    6.0809    3.3435    0.3163 C   0  0  0  0  0  0  0  0  0  0  0  0
   -0.4478   -0.0733   -1.1670 H   0  0  0  0  0  0  0  0  0  0  0  0
   -2.4186   -1.5898    0.6068 H   0  0  0  0  0  0  0  0  0  0  0  0
    0.1138   -2.4294    0.6538 H   0  0  0  0  0  0  0  0  0  0  0  0
    1.2245    1.4573    0.0119 H   0  0  0  0  0  0  0  0  0  0  0  0
    1.2052    1.5941    1.7618 H   0  0  0  0  0  0  0  0  0  0  0  0
   -1.2213    2.3328    1.5635 H   0  0  0  0  0  0  0  0  0  0  0  0
   -1.0491    2.1508   -0.1745 H   0  0  0  0  0  0  0  0  0  0  0  0
    2.0572   -0.7643   -1.0372 H   0  0  0  0  0  0  0  0  0  0  0  0
   -2.8748    0.6514   -1.4268 H   0  0  0  0  0  0  0  0  0  0  0  0
    1.9856   -0.6762    2.0242 H   0  0  0  0  0  0  0  0  0  0  0  0
    3.0472    0.2128    0.9598 H   0  0  0  0  0  0  0  0  0  0  0  0
   -3.3932    2.1568    0.3903 H   0  0  0  0  0  0  0  0  0  0  0  0
   -3.1984    0.9066    1.5917 H   0  0  0  0  0  0  0  0  0  0  0  0
   -0.1205   -1.1265    2.5278 H   0  0  0  0  0  0  0  0  0  0  0  0
   -0.5182    0.4804    3.1353 H   0  0  0  0  0  0  0  0  0  0  0  0
   -1.7696   -0.5439    2.4442 H   0  0  0  0  0  0  0  0  0  0  0  0
    2.7759   -3.1135   -0.7538 H   0  0  0  0  0  0  0  0  0  0  0  0
   -2.0550   -1.6444   -2.4197 H   0  0  0  0  0  0  0  0  0  0  0  0
   -3.5177   -2.2007   -1.5991 H   0  0  0  0  0  0  0  0  0  0  0  0
   -2.0119   -3.0133   -1.2772 H   0  0  0  0  0  0  0  0  0  0  0  0
   -4.7434   -0.9505    0.1785 H   0  0  0  0  0  0  0  0  0  0  0  0
    0.4851   -1.9626   -2.1270 H   0  0  0  0  0  0  0  0  0  0  0  0
    2.5806   -2.6032    2.2852 H   0  0  0  0  0  0  0  0  0  0  0  0
    3.2518   -4.0032    1.4954 H   0  0  0  0  0  0  0  0  0  0  0  0
    1.5459   -3.6964    1.3362 H   0  0  0  0  0  0  0  0  0  0  0  0
   -6.7682   -1.1462   -0.8308 H   0  0  0  0  0  0  0  0  0  0  0  0
   -7.4164    0.1516   -1.8127 H   0  0  0  0  0  0  0  0  0  0  0  0
    3.9242   -1.1371   -1.7994 H   0  0  0  0  0  0  0  0  0  0  0  0
    6.6517   -1.2035   -0.7686 H   0  0  0  0  0  0  0  0  0  0  0  0
    6.0860   -0.5828   -2.3225 H   0  0  0  0  0  0  0  0  0  0  0  0
   -9.6042    0.0777   -0.4103 H   0  0  0  0  0  0  0  0  0  0  0  0
   -8.9075   -1.2227    0.5670 H   0  0  0  0  0  0  0  0  0  0  0  0
   -9.5165    0.2438    1.3501 H   0  0  0  0  0  0  0  0  0  0  0  0
   -7.3348    0.4360    2.4944 H   0  0  0  0  0  0  0  0  0  0  0  0
   -6.5503   -0.8974    1.6494 H   0  0  0  0  0  0  0  0  0  0  0  0
   -5.8355    0.7332    1.6380 H   0  0  0  0  0  0  0  0  0  0  0  0
   -8.2875    2.3248   -0.6672 H   0  0  0  0  0  0  0  0  0  0  0  0
   -8.3170    2.4242    1.0991 H   0  0  0  0  0  0  0  0  0  0  0  0
   -6.7824    2.5477    0.2388 H   0  0  0  0  0  0  0  0  0  0  0  0
    4.7878    1.6587   -2.3277 H   0  0  0  0  0  0  0  0  0  0  0  0
    4.9196    3.9538   -1.3888 H   0  0  0  0  0  0  0  0  0  0  0  0
    7.2158    2.3701    1.8657 H   0  0  0  0  0  0  0  0  0  0  0  0
    6.1517    4.3363    0.7455 H   0  0  0  0  0  0  0  0  0  0  0  0
  1 10  1  0  0  0  0
  1 55  1  0  0  0  0
  2 21  2  0  0  0  0
  3 22  2  0  0  0  0
  4 14  1  0  0  0  0
  4 22  1  0  0  0  0
  4 54  1  0  0  0  0
  5 21  1  0  0  0  0
  5 25  1  0  0  0  0
  5 61  1  0  0  0  0
  6 29  1  0  0  0  0
  6 32  2  0  0  0  0
  7  8  1  0  0  0  0
  7 11  1  0  0  0  0
  7 12  1  0  0  0  0
  7 17  1  0  0  0  0
  8  9  1  0  0  0  0
  8 10  1  0  0  0  0
  8 34  1  0  0  0  0
  9 14  1  0  0  0  0
  9 19  1  0  0  0  0
  9 35  1  0  0  0  0
 10 13  1  0  0  0  0
 10 36  1  0  0  0  0
 11 15  1  0  0  0  0
 11 37  1  0  0  0  0
 11 38  1  0  0  0  0
 12 16  1  0  0  0  0
 12 39  1  0  0  0  0
 12 40  1  0  0  0  0
 13 15  1  0  0  0  0
 13 18  1  0  0  0  0
 13 41  1  0  0  0  0
 14 16  1  0  0  0  0
 14 42  1  0  0  0  0
 15 43  1  0  0  0  0
 15 44  1  0  0  0  0
 16 45  1  0  0  0  0
 16 46  1  0  0  0  0
 17 47  1  0  0  0  0
 17 48  1  0  0  0  0
 17 49  1  0  0  0  0
 18 20  1  0  0  0  0
 18 21  1  0  0  0  0
 18 50  1  0  0  0  0
 19 51  1  0  0  0  0
 19 52  1  0  0  0  0
 19 53  1  0  0  0  0
 20 56  1  0  0  0  0
 20 57  1  0  0  0  0
 20 58  1  0  0  0  0
 22 23  1  0  0  0  0
 23 24  1  0  0  0  0
 23 59  1  0  0  0  0
 23 60  1  0  0  0  0
 24 26  1  0  0  0  0
 24 27  1  0  0  0  0
 24 28  1  0  0  0  0
 25 29  1  0  0  0  0
 25 62  1  0  0  0  0
 25 63  1  0  0  0  0
 26 64  1  0  0  0  0
 26 65  1  0  0  0  0
 26 66  1  0  0  0  0
 27 67  1  0  0  0  0
 27 68  1  0  0  0  0
 27 69  1  0  0  0  0
 28 70  1  0  0  0  0
 28 71  1  0  0  0  0
 28 72  1  0  0  0  0
 29 30  2  0  0  0  0
 30 31  1  0  0  0  0
 30 73  1  0  0  0  0
 31 33  2  0  0  0  0
 31 74  1  0  0  0  0
 32 33  1  0  0  0  0
 32 75  1  0  0  0  0
 33 76  1  0  0  0  0
M  END
> <PUBCHEM_COMPOUND_CID>
45361424

> <PUBCHEM_CONFORMER_RMSD>
1.2

> <PUBCHEM_CONFORMER_DIVERSEORDER>
1
21
46
42
56
87
43
41
110
25
99
115
81
20
31
37
98
113
86
85
44
109
94
126
50
122
128
112
74
130
83
47
29
125
127
71
30
32
26
35
62
92
136
89
78
40
95
80
124
55
6
104
123
117
84
88
64
5
93
57
51
39
108
49
77
18
97
90
11
60
70
34
54
133
59
68
132
135
131
36
134
111
33
2
16
119
91
52
79
76
19
121
53
24
107
3
17
23
4
96
82
14
105
73
28
38
67
75
22
120
69
27
8
63
118
72
15
114
48
66
10
13
65
45
9
61
103
106
7
58
12
100
116
102
101
129

> <PUBCHEM_MMFF94_PARTIAL_CHARGES>
25
1 -0.68
10 0.28
14 0.3
18 0.06
2 -0.57
21 0.57
22 0.57
23 0.06
25 0.44
29 0.17
3 -0.57
30 -0.15
31 -0.15
32 0.16
33 -0.15
4 -0.73
5 -0.73
54 0.37
55 0.4
6 -0.62
61 0.37
73 0.15
74 0.15
75 0.15
76 0.15

> <PUBCHEM_EFFECTIVE_ROTOR_COUNT>
10.6

> <PUBCHEM_PHARMACOPHORE_FEATURES>
12
1 1 acceptor
1 1 donor
1 2 acceptor
1 20 hydrophobe
1 3 acceptor
1 4 donor
1 5 donor
1 6 acceptor
4 24 26 27 28 hydrophobe
6 6 29 30 31 32 33 rings
6 7 8 10 11 13 15 rings
6 7 8 9 12 14 16 rings

> <PUBCHEM_HEAVY_ATOM_COUNT>
33

> <PUBCHEM_ATOM_DEF_STEREO_COUNT>
6

> <PUBCHEM_ATOM_UDEF_STEREO_COUNT>
1

> <PUBCHEM_BOND_DEF_STEREO_COUNT>
0

> <PUBCHEM_BOND_UDEF_STEREO_COUNT>
0

> <PUBCHEM_ISOTOPIC_ATOM_COUNT>
0

> <PUBCHEM_COMPONENT_COUNT>
1

> <PUBCHEM_CACTVS_TAUTO_COUNT>
4

> <PUBCHEM_CONFORMER_ID>
02B4291000000001

> <PUBCHEM_MMFF94_ENERGY>
93.5549

> <PUBCHEM_FEATURE_SELFOVERLAP>
60.911

> <PUBCHEM_SHAPE_FINGERPRINT>
10638233 991 18413111636793531889
10673678 19 18412548712578071270
10816530 90 17989481940030921528
10906281 52 17917721180010527399
11007060 377 18334864922431665675
11135609 187 18126848420536544192
11211813 74 18410290298884515229
11456790 92 17749938982977606848
13150687 139 18202010941354132318
13617811 41 16272212981201770552
13782708 43 11239997858637257961
14117953 113 18336831979210731724
14251757 52 18411419509793826945
14461889 52 17022911154920101267
14849402 71 18272089427088852905
15064981 194 18195827364783452502
15183329 4 17989490731644651865
15276724 80 18340205194257252541
15840311 113 18409733954083691918
16728300 4 7997431385527771144
16992787 43 18343868839846738681
17686467 74 18113902681127229821
19319366 153 18410004417013077810
20157964 124 18335420167087234780
20511986 3 18270951449596291396
20715895 44 18336824299608219660
21033648 29 17749955583105073582
21049683 118 17822562924293440498
21521721 280 18408888425711227755
21814621 53 17168977877620179551
23522609 53 17845954952132360441
23559900 14 17417236753609558424
23569914 2 16810338165128149012
3044373 193 17022906748600049268
34797466 226 18130793334743233622
3552219 110 17988936561300853105
397830 11 17895484712579238411
4073 2 18334015012913329219
4093350 32 18334011670811041890
4098825 35 18334575699281640081
4149490 64 18186799175786874050
4340502 62 17312822662944800938
439807 62 13542475241805986380
44317340 157 18408606963682696366
474113 269 10953731232075503521
5109719 28 17895202137632366428
5265222 85 18273212015480659439
6328613 192 18273498987783075243
9831232 110 12679459794139836876

> <PUBCHEM_SHAPE_MULTIPOLES>
646.57
23.02
3.19
1.55
25.26
0.09
-0.15
14.29
1.57
-6.31
0.01
0.23
-0.12
-0.69

> <PUBCHEM_SHAPE_SELFOVERLAP>
1333.647

> <PUBCHEM_SHAPE_VOLUME>
367.5

> <PUBCHEM_COORDINATE_TYPE>
2
5
10

$$$$
