51136635
  -OEChem-12032416143D

 64 67  0     1  0  0  0  0  0999 V2000
   -6.2752    3.9774    1.2371 Cl  0  0  0  0  0  0  0  0  0  0  0  0
   -0.7162    1.8435   -0.7449 S   0  0  0  0  0  0  0  0  0  0  0  0
   -0.5749    2.2025   -2.1393 O   0  0  0  0  0  0  0  0  0  0  0  0
    0.2817    2.2276    0.2297 O   0  0  0  0  0  0  0  0  0  0  0  0
   -3.0951   -6.0154   -0.7195 O   0  0  0  0  0  0  0  0  0  0  0  0
   -4.2638   -4.0659   -0.8398 O   0  0  0  0  0  0  0  0  0  0  0  0
    4.1466    0.2005   -2.4674 O   0  0  0  0  0  0  0  0  0  0  0  0
    5.4161    1.9171   -0.6933 O   0  0  0  0  0  0  0  0  0  0  0  0
   -0.9858    0.1552   -0.6277 N   0  0  1  0  0  0  0  0  0  0  0  0
    1.4704   -1.9811    2.5048 N   0  0  0  0  0  0  0  0  0  0  0  0
   -0.8713   -1.9227    0.7303 C   0  0  2  0  0  0  0  0  0  0  0  0
   -1.9852   -2.5355   -0.1529 C   0  0  1  0  0  0  0  0  0  0  0  0
   -1.0116   -0.3924    0.7612 C   0  0  0  0  0  0  0  0  0  0  0  0
   -2.0145   -1.8905   -1.5469 C   0  0  0  0  0  0  0  0  0  0  0  0
   -2.1070   -0.3706   -1.4574 C   0  0  0  0  0  0  0  0  0  0  0  0
    0.5493   -2.3248    0.3135 C   0  0  0  0  0  0  0  0  0  0  0  0
   -1.8952   -4.0572   -0.2646 C   0  0  0  0  0  0  0  0  0  0  0  0
    1.5548   -1.6954    1.2473 C   0  0  0  0  0  0  0  0  0  0  0  0
   -3.2190   -4.6657   -0.6365 C   0  0  0  0  0  0  0  0  0  0  0  0
    2.5797   -0.7802    0.6833 C   0  0  0  0  0  0  0  0  0  0  0  0
   -2.2798    2.4438   -0.1874 C   0  0  0  0  0  0  0  0  0  0  0  0
    3.2304    0.0711    1.5854 C   0  0  0  0  0  0  0  0  0  0  0  0
    2.8463    0.0148    3.0342 C   0  0  0  0  0  0  0  0  0  0  0  0
    2.4840   -1.4179    3.4030 C   0  0  0  0  0  0  0  0  0  0  0  0
    2.8887   -0.7395   -0.6776 C   0  0  0  0  0  0  0  0  0  0  0  0
   -2.4874    2.6943    1.1690 C   0  0  0  0  0  0  0  0  0  0  0  0
   -3.3076    2.6678   -1.1033 C   0  0  0  0  0  0  0  0  0  0  0  0
    4.1764    0.9845    1.1123 C   0  0  0  0  0  0  0  0  0  0  0  0
    3.8461    0.1652   -1.1384 C   0  0  0  0  0  0  0  0  0  0  0  0
    4.4862    1.0267   -0.2471 C   0  0  0  0  0  0  0  0  0  0  0  0
   -3.7228    3.1685    1.6096 C   0  0  0  0  0  0  0  0  0  0  0  0
   -4.5432    3.1421   -0.6628 C   0  0  0  0  0  0  0  0  0  0  0  0
   -4.7508    3.3924    0.6936 C   0  0  0  0  0  0  0  0  0  0  0  0
    3.3779    1.0838   -3.2814 C   0  0  0  0  0  0  0  0  0  0  0  0
    6.7719    1.4759   -0.7262 C   0  0  0  0  0  0  0  0  0  0  0  0
   -1.0387   -2.2819    1.7555 H   0  0  0  0  0  0  0  0  0  0  0  0
   -2.9355   -2.2815    0.3400 H   0  0  0  0  0  0  0  0  0  0  0  0
   -0.2371    0.0670    1.3796 H   0  0  0  0  0  0  0  0  0  0  0  0
   -1.9729   -0.1419    1.2265 H   0  0  0  0  0  0  0  0  0  0  0  0
   -2.8679   -2.2588   -2.1272 H   0  0  0  0  0  0  0  0  0  0  0  0
   -1.1148   -2.1663   -2.1106 H   0  0  0  0  0  0  0  0  0  0  0  0
   -2.0542    0.0407   -2.4706 H   0  0  0  0  0  0  0  0  0  0  0  0
   -3.0721   -0.1011   -1.0164 H   0  0  0  0  0  0  0  0  0  0  0  0
    0.6777   -3.4108    0.3951 H   0  0  0  0  0  0  0  0  0  0  0  0
    0.7075   -2.0708   -0.7317 H   0  0  0  0  0  0  0  0  0  0  0  0
   -1.6136   -4.4811    0.7068 H   0  0  0  0  0  0  0  0  0  0  0  0
   -1.1490   -4.3535   -1.0100 H   0  0  0  0  0  0  0  0  0  0  0  0
    1.9905    0.6809    3.1973 H   0  0  0  0  0  0  0  0  0  0  0  0
    3.6700    0.3566    3.6708 H   0  0  0  0  0  0  0  0  0  0  0  0
    3.3713   -2.0631    3.3881 H   0  0  0  0  0  0  0  0  0  0  0  0
    2.0930   -1.4367    4.4262 H   0  0  0  0  0  0  0  0  0  0  0  0
    2.4380   -1.4079   -1.4019 H   0  0  0  0  0  0  0  0  0  0  0  0
   -1.7023    2.5238    1.9002 H   0  0  0  0  0  0  0  0  0  0  0  0
   -3.1696    2.4790   -2.1641 H   0  0  0  0  0  0  0  0  0  0  0  0
    4.6725    1.6627    1.8022 H   0  0  0  0  0  0  0  0  0  0  0  0
   -3.9426   -6.4461   -0.9613 H   0  0  0  0  0  0  0  0  0  0  0  0
   -3.8708    3.3583    2.6696 H   0  0  0  0  0  0  0  0  0  0  0  0
   -5.3353    3.3116   -1.3876 H   0  0  0  0  0  0  0  0  0  0  0  0
    2.3192    0.8062   -3.2547 H   0  0  0  0  0  0  0  0  0  0  0  0
    3.5026    2.1197   -2.9505 H   0  0  0  0  0  0  0  0  0  0  0  0
    3.7358    1.0000   -4.3111 H   0  0  0  0  0  0  0  0  0  0  0  0
    7.1164    1.2203    0.2809 H   0  0  0  0  0  0  0  0  0  0  0  0
    6.8806    0.6132   -1.3910 H   0  0  0  0  0  0  0  0  0  0  0  0
    7.3888    2.2929   -1.1100 H   0  0  0  0  0  0  0  0  0  0  0  0
  1 33  1  0  0  0  0
  2  3  2  0  0  0  0
  2  4  2  0  0  0  0
  2  9  1  0  0  0  0
  2 21  1  0  0  0  0
  5 19  1  0  0  0  0
  5 56  1  0  0  0  0
  6 19  2  0  0  0  0
  7 29  1  0  0  0  0
  7 34  1  0  0  0  0
  8 30  1  0  0  0  0
  8 35  1  0  0  0  0
  9 13  1  0  0  0  0
  9 15  1  0  0  0  0
 10 18  2  0  0  0  0
 10 24  1  0  0  0  0
 11 12  1  0  0  0  0
 11 13  1  0  0  0  0
 11 16  1  0  0  0  0
 11 36  1  0  0  0  0
 12 14  1  0  0  0  0
 12 17  1  0  0  0  0
 12 37  1  0  0  0  0
 13 38  1  0  0  0  0
 13 39  1  0  0  0  0
 14 15  1  0  0  0  0
 14 40  1  0  0  0  0
 14 41  1  0  0  0  0
 15 42  1  0  0  0  0
 15 43  1  0  0  0  0
 16 18  1  0  0  0  0
 16 44  1  0  0  0  0
 16 45  1  0  0  0  0
 17 19  1  0  0  0  0
 17 46  1  0  0  0  0
 17 47  1  0  0  0  0
 18 20  1  0  0  0  0
 20 22  1  0  0  0  0
 20 25  2  0  0  0  0
 21 26  2  0  0  0  0
 21 27  1  0  0  0  0
 22 23  1  0  0  0  0
 22 28  2  0  0  0  0
 23 24  1  0  0  0  0
 23 48  1  0  0  0  0
 23 49  1  0  0  0  0
 24 50  1  0  0  0  0
 24 51  1  0  0  0  0
 25 29  1  0  0  0  0
 25 52  1  0  0  0  0
 26 31  1  0  0  0  0
 26 53  1  0  0  0  0
 27 32  2  0  0  0  0
 27 54  1  0  0  0  0
 28 30  1  0  0  0  0
 28 55  1  0  0  0  0
 29 30  2  0  0  0  0
 31 33  2  0  0  0  0
 31 57  1  0  0  0  0
 32 33  1  0  0  0  0
 32 58  1  0  0  0  0
 34 59  1  0  0  0  0
 34 60  1  0  0  0  0
 34 61  1  0  0  0  0
 35 62  1  0  0  0  0
 35 63  1  0  0  0  0
 35 64  1  0  0  0  0
M  END
> <PUBCHEM_COMPOUND_CID>
51136635

> <PUBCHEM_CONFORMER_RMSD>
1

> <PUBCHEM_CONFORMER_DIVERSEORDER>
1
67
71
89
18
26
106
91
49
96
64
47
75
81
108
40
94
32
31
55
58
34
27
35
16
117
77
24
11
13
85
7
70
109
42
116
53
93
57
104
79
69
82
65
90
20
6
66
36
114
99
41
110
74
52
37
38
51
102
73
76
100
98
12
103
54
119
72
39
29
97
95
112
59
5
113
14
115
30
80
101
78
44
23
83
56
19
22
15
68
8
111
107
105
50
28
45
48
62
61
3
9
92
46
88
86
43
2
84
17
4
33
118
87
25
21
60
63
10

> <PUBCHEM_MMFF94_PARTIAL_CHARGES>
39
1 -0.18
10 -0.7
13 0.36
15 0.36
16 0.06
17 0.06
18 0.3
19 0.66
2 1.45
20 0.09
21 -0.01
22 -0.14
23 0.14
24 0.25
25 -0.15
26 -0.15
27 -0.15
28 -0.15
29 0.08
3 -0.65
30 0.08
31 -0.15
32 -0.15
33 0.18
34 0.28
35 0.28
4 -0.65
5 -0.65
52 0.15
53 0.15
54 0.15
55 0.15
56 0.5
57 0.15
58 0.15
6 -0.57
7 -0.36
8 -0.36
9 -0.85

> <PUBCHEM_EFFECTIVE_ROTOR_COUNT>
9.6

> <PUBCHEM_PHARMACOPHORE_FEATURES>
12
1 10 acceptor
1 3 acceptor
1 4 acceptor
1 5 acceptor
1 6 acceptor
1 7 acceptor
1 8 acceptor
3 5 6 19 anion
6 10 18 20 22 23 24 rings
6 20 22 25 28 29 30 rings
6 21 26 27 31 32 33 rings
6 9 11 12 13 14 15 rings

> <PUBCHEM_HEAVY_ATOM_COUNT>
35

> <PUBCHEM_ATOM_DEF_STEREO_COUNT>
2

> <PUBCHEM_ATOM_UDEF_STEREO_COUNT>
0

> <PUBCHEM_BOND_DEF_STEREO_COUNT>
0

> <PUBCHEM_BOND_UDEF_STEREO_COUNT>
0

> <PUBCHEM_ISOTOPIC_ATOM_COUNT>
0

> <PUBCHEM_COMPONENT_COUNT>
1

> <PUBCHEM_CACTVS_TAUTO_COUNT>
1

> <PUBCHEM_CONFORMER_ID>
030C487B00000001

> <PUBCHEM_MMFF94_ENERGY>
98.9718

> <PUBCHEM_FEATURE_SELFOVERLAP>
61.006

> <PUBCHEM_SHAPE_FINGERPRINT>
10010297 198 17895766088613848851
10794284 68 18117864280992272667
11049842 53 18198048180408529042
11115154 58 18051966215824448527
12160290 23 18126817517961486823
12788726 201 18263635324678940275
13540713 5 18042104545351874226
13583140 156 16229126255603097265
13726171 33 18341617053229399728
14068700 675 17973717279634713198
14468879 13 16628805501089244080
14790565 3 18267302032949061733
14840074 17 18116158779349409365
150020 26 17113522728356155577
15297060 5 18200037218285422521
15448158 71 17676775279815459828
15968369 153 17902819653021020657
19311894 1 18409450280790951292
19319366 153 17895199848863061040
20505436 4 18113907005288813720
21315764 21 14116930458386626745
21756936 100 17170145692550597092
244849 19 17489575784676451090
469060 322 16732989755575500197
5252454 2 18262228937743399112
57527585 21 17412989404896518024
7808743 9 18410573985568559584
9658208 31 18201719505409050441

> <PUBCHEM_SHAPE_MULTIPOLES>
680.82
11.49
6.37
2.66
1.8
9.83
-0.68
-13.27
0.3
-11.97
1.11
3
-0.38
-3.79

> <PUBCHEM_SHAPE_SELFOVERLAP>
1430.987

> <PUBCHEM_SHAPE_VOLUME>
386.2

> <PUBCHEM_COORDINATE_TYPE>
2
5
10

$$$$
