7661884
  -OEChem-12032416153D

 60 64  0     1  0  0  0  0  0999 V2000
    2.6782    1.7917   -1.1420 S   0  0  0  0  0  0  0  0  0  0  0  0
   -3.9868   -1.1133   -1.0945 S   0  0  0  0  0  0  0  0  0  0  0  0
    3.3553    3.0400   -0.8611 O   0  0  0  0  0  0  0  0  0  0  0  0
    2.1770    1.4984   -2.4682 O   0  0  0  0  0  0  0  0  0  0  0  0
   -2.3262    4.8150    0.6174 O   0  0  0  0  0  0  0  0  0  0  0  0
   -4.8927   -0.3342   -0.2716 O   0  0  0  0  0  0  0  0  0  0  0  0
   -4.4167   -1.6058   -2.3895 O   0  0  0  0  0  0  0  0  0  0  0  0
    6.2731   -2.6036    0.4493 O   0  0  0  0  0  0  0  0  0  0  0  0
    1.4156    1.5721   -0.0083 N   0  0  2  0  0  0  0  0  0  0  0  0
   -1.4805    2.6308    0.7025 N   0  0  0  0  0  0  0  0  0  0  0  0
   -2.5152   -0.3002   -1.2526 N   0  0  0  0  0  0  0  0  0  0  0  0
    0.4513    1.9854    2.2565 C   0  0  1  0  0  0  0  0  0  0  0  0
   -0.5575    0.2915    0.7931 C   0  0  2  0  0  0  0  0  0  0  0  0
   -0.1912    0.6089    2.2413 C   0  0  0  0  0  0  0  0  0  0  0  0
    1.7172    2.0070    1.3851 C   0  0  0  0  0  0  0  0  0  0  0  0
    0.7236    0.2499   -0.0605 C   0  0  0  0  0  0  0  0  0  0  0  0
   -0.5898    3.0121    1.8061 C   0  0  0  0  0  0  0  0  0  0  0  0
   -1.5440    1.3081    0.2202 C   0  0  0  0  0  0  0  0  0  0  0  0
   -2.4531    1.0144   -0.7327 C   0  0  0  0  0  0  0  0  0  0  0  0
   -2.3295    3.6484    0.2224 C   0  0  0  0  0  0  0  0  0  0  0  0
   -3.3517    2.0015   -1.2594 C   0  0  0  0  0  0  0  0  0  0  0  0
   -3.3063    3.2634   -0.8290 C   0  0  0  0  0  0  0  0  0  0  0  0
    3.7545    0.4758   -0.6653 C   0  0  0  0  0  0  0  0  0  0  0  0
    3.6043   -0.7695   -1.2531 C   0  0  0  0  0  0  0  0  0  0  0  0
    4.7312    0.7103    0.2886 C   0  0  0  0  0  0  0  0  0  0  0  0
   -3.4791   -2.5127   -0.1395 C   0  0  0  0  0  0  0  0  0  0  0  0
    4.4545   -1.8094   -0.8767 C   0  0  0  0  0  0  0  0  0  0  0  0
    5.5814   -0.3294    0.6651 C   0  0  0  0  0  0  0  0  0  0  0  0
    5.4429   -1.5893    0.0825 C   0  0  0  0  0  0  0  0  0  0  0  0
   -3.5137   -2.4354    1.2415 C   0  0  0  0  0  0  0  0  0  0  0  0
   -3.0556   -3.6570   -0.7919 C   0  0  0  0  0  0  0  0  0  0  0  0
   -3.1118   -3.5385    1.9949 C   0  0  0  0  0  0  0  0  0  0  0  0
   -2.6538   -4.7601   -0.0386 C   0  0  0  0  0  0  0  0  0  0  0  0
   -2.6819   -4.7008    1.3548 C   0  0  0  0  0  0  0  0  0  0  0  0
    6.0768   -3.8656   -0.1869 C   0  0  0  0  0  0  0  0  0  0  0  0
    0.7553    2.2348    3.2810 H   0  0  0  0  0  0  0  0  0  0  0  0
   -1.0014   -0.7097    0.8045 H   0  0  0  0  0  0  0  0  0  0  0  0
    0.5032   -0.1431    2.6360 H   0  0  0  0  0  0  0  0  0  0  0  0
   -1.0825    0.5883    2.8810 H   0  0  0  0  0  0  0  0  0  0  0  0
    2.1272    3.0225    1.3805 H   0  0  0  0  0  0  0  0  0  0  0  0
    2.4616    1.3383    1.8301 H   0  0  0  0  0  0  0  0  0  0  0  0
    1.3761   -0.5354    0.3354 H   0  0  0  0  0  0  0  0  0  0  0  0
    0.4732    0.0020   -1.0974 H   0  0  0  0  0  0  0  0  0  0  0  0
   -1.2519    3.2328    2.6551 H   0  0  0  0  0  0  0  0  0  0  0  0
   -0.1044    3.9627    1.5510 H   0  0  0  0  0  0  0  0  0  0  0  0
   -4.0551    1.7261   -2.0382 H   0  0  0  0  0  0  0  0  0  0  0  0
   -3.9673    4.0257   -1.2239 H   0  0  0  0  0  0  0  0  0  0  0  0
   -1.6756   -0.8692   -1.0938 H   0  0  0  0  0  0  0  0  0  0  0  0
    2.8402   -0.9617   -2.0003 H   0  0  0  0  0  0  0  0  0  0  0  0
    4.8539    1.6823    0.7565 H   0  0  0  0  0  0  0  0  0  0  0  0
    4.2914   -2.7623   -1.3683 H   0  0  0  0  0  0  0  0  0  0  0  0
    6.3492   -0.1523    1.4133 H   0  0  0  0  0  0  0  0  0  0  0  0
   -3.8359   -1.5364    1.7578 H   0  0  0  0  0  0  0  0  0  0  0  0
   -3.0188   -3.7195   -1.8749 H   0  0  0  0  0  0  0  0  0  0  0  0
   -3.1310   -3.4913    3.0797 H   0  0  0  0  0  0  0  0  0  0  0  0
   -2.3168   -5.6645   -0.5368 H   0  0  0  0  0  0  0  0  0  0  0  0
   -2.3677   -5.5592    1.9413 H   0  0  0  0  0  0  0  0  0  0  0  0
    6.2574   -3.8049   -1.2655 H   0  0  0  0  0  0  0  0  0  0  0  0
    6.8226   -4.5541    0.2238 H   0  0  0  0  0  0  0  0  0  0  0  0
    5.0921   -4.2848    0.0463 H   0  0  0  0  0  0  0  0  0  0  0  0
  1  3  2  0  0  0  0
  1  4  2  0  0  0  0
  1  9  1  0  0  0  0
  1 23  1  0  0  0  0
  2  6  2  0  0  0  0
  2  7  2  0  0  0  0
  2 11  1  0  0  0  0
  2 26  1  0  0  0  0
  5 20  2  0  0  0  0
  8 29  1  0  0  0  0
  8 35  1  0  0  0  0
  9 15  1  0  0  0  0
  9 16  1  0  0  0  0
 10 17  1  0  0  0  0
 10 18  1  0  0  0  0
 10 20  1  0  0  0  0
 11 19  1  0  0  0  0
 11 48  1  0  0  0  0
 12 14  1  0  0  0  0
 12 15  1  0  0  0  0
 12 17  1  0  0  0  0
 12 36  1  0  0  0  0
 13 14  1  0  0  0  0
 13 16  1  0  0  0  0
 13 18  1  0  0  0  0
 13 37  1  0  0  0  0
 14 38  1  0  0  0  0
 14 39  1  0  0  0  0
 15 40  1  0  0  0  0
 15 41  1  0  0  0  0
 16 42  1  0  0  0  0
 16 43  1  0  0  0  0
 17 44  1  0  0  0  0
 17 45  1  0  0  0  0
 18 19  2  0  0  0  0
 19 21  1  0  0  0  0
 20 22  1  0  0  0  0
 21 22  2  0  0  0  0
 21 46  1  0  0  0  0
 22 47  1  0  0  0  0
 23 24  2  0  0  0  0
 23 25  1  0  0  0  0
 24 27  1  0  0  0  0
 24 49  1  0  0  0  0
 25 28  2  0  0  0  0
 25 50  1  0  0  0  0
 26 30  2  0  0  0  0
 26 31  1  0  0  0  0
 27 29  2  0  0  0  0
 27 51  1  0  0  0  0
 28 29  1  0  0  0  0
 28 52  1  0  0  0  0
 30 32  1  0  0  0  0
 30 53  1  0  0  0  0
 31 33  2  0  0  0  0
 31 54  1  0  0  0  0
 32 34  2  0  0  0  0
 32 55  1  0  0  0  0
 33 34  1  0  0  0  0
 33 56  1  0  0  0  0
 34 57  1  0  0  0  0
 35 58  1  0  0  0  0
 35 59  1  0  0  0  0
 35 60  1  0  0  0  0
M  END
> <PUBCHEM_COMPOUND_CID>
7661884

> <PUBCHEM_CONFORMER_RMSD>
1

> <PUBCHEM_CONFORMER_DIVERSEORDER>
1
22
19
30
16
26
23
28
9
10
8
29
13
20
7
12
25
32
31
3
33
6
17
4
24
2
27
14
15
21
18
5
11

> <PUBCHEM_MMFF94_PARTIAL_CHARGES>
45
1 1.45
10 -0.47
11 -0.75
13 0.14
15 0.36
16 0.36
17 0.3
18 -0.03
19 0.19
2 1.45
20 0.62
21 -0.15
22 -0.14
23 -0.01
24 -0.15
25 -0.15
26 -0.01
27 -0.15
28 -0.15
29 0.08
3 -0.65
30 -0.15
31 -0.15
32 -0.15
33 -0.15
34 -0.15
35 0.28
4 -0.65
46 0.15
47 0.15
48 0.42
49 0.15
5 -0.57
50 0.15
51 0.15
52 0.15
53 0.15
54 0.15
55 0.15
56 0.15
57 0.15
6 -0.65
7 -0.65
8 -0.36
9 -0.85

> <PUBCHEM_EFFECTIVE_ROTOR_COUNT>
7

> <PUBCHEM_PHARMACOPHORE_FEATURES>
12
1 11 donor
1 3 acceptor
1 4 acceptor
1 5 acceptor
1 6 acceptor
1 7 acceptor
1 8 acceptor
6 10 12 13 14 17 18 rings
6 10 18 19 20 21 22 rings
6 23 24 25 27 28 29 rings
6 26 30 31 32 33 34 rings
6 9 12 13 14 15 16 rings

> <PUBCHEM_HEAVY_ATOM_COUNT>
35

> <PUBCHEM_ATOM_DEF_STEREO_COUNT>
2

> <PUBCHEM_ATOM_UDEF_STEREO_COUNT>
0

> <PUBCHEM_BOND_DEF_STEREO_COUNT>
0

> <PUBCHEM_BOND_UDEF_STEREO_COUNT>
0

> <PUBCHEM_ISOTOPIC_ATOM_COUNT>
0

> <PUBCHEM_COMPONENT_COUNT>
1

> <PUBCHEM_CACTVS_TAUTO_COUNT>
1

> <PUBCHEM_CONFORMER_ID>
0074E93C00000001

> <PUBCHEM_MMFF94_ENERGY>
87.4222

> <PUBCHEM_FEATURE_SELFOVERLAP>
62.513

> <PUBCHEM_SHAPE_FINGERPRINT>
10305334 12 17692808190604356678
10764073 3 12458013698598880509
10928967 22 17910967064258616302
11285246 1 17967817175712434738
11488393 25 17543346507079205809
12712778 12 18339345393264962698
12977781 61 18128232623807311304
14114207 22 17254554898765578749
14251757 5 18409726244897314443
14844126 61 17773862130292473102
15439362 3 17110721168803770045
15463212 79 18120932798506781493
17909252 39 18192714672881782490
18603816 31 17897728653014598826
19315092 285 15981986055374955423
19611394 137 18200579381435642200
19958102 18 18262227820676693647
20775530 9 18197231453463590926
21458453 9 17773011246707500634
23428019 142 18265330616631296054
23559900 14 18263352736877834316
23572383 38 18272083843452058862
3737641 26 18052272969959843454
44062 13 18335143059712676878
463206 1 18411423920640941570
49967989 163 18338812130616478846
70634741 139 18411142424954135966
79837 15 18195537999471978729
9831232 110 17399799788354607171

> <PUBCHEM_SHAPE_MULTIPOLES>
677.82
11.98
6.58
1.94
16.16
3.29
-0.27
11.3
2.69
-5.47
-1.57
-0.92
-0.29
0.68

> <PUBCHEM_SHAPE_SELFOVERLAP>
1454.339

> <PUBCHEM_SHAPE_VOLUME>
373.2

> <PUBCHEM_COORDINATE_TYPE>
2
5
10

$$$$
