11883097
  -OEChem-12032416333D

 76 80  0     1  0  0  0  0  0999 V2000
   -0.3840   -3.3650   -0.1613 S   0  0  0  0  0  0  0  0  0  0  0  0
   -6.9766    0.8479    0.4842 O   0  0  0  0  0  0  0  0  0  0  0  0
   -7.0356   -0.9113   -1.1424 O   0  0  0  0  0  0  0  0  0  0  0  0
    0.9772    1.4277    1.7678 O   0  0  0  0  0  0  0  0  0  0  0  0
    3.6709   -1.2149    0.5643 O   0  0  0  0  0  0  0  0  0  0  0  0
    0.7416   -1.0743    0.2614 N   0  0  0  0  0  0  0  0  0  0  0  0
    1.6882    2.9035    0.1193 N   0  0  0  0  0  0  0  0  0  0  0  0
    2.1915   -2.9975    0.1667 N   0  0  0  0  0  0  0  0  0  0  0  0
   -2.6976    0.5744   -0.3056 C   0  0  2  0  0  0  0  0  0  0  0  0
   -3.4843   -0.6881    0.2622 C   0  0  1  0  0  0  0  0  0  0  0  0
   -5.0586   -0.6500    0.1733 C   0  0  1  0  0  0  0  0  0  0  0  0
   -1.2077    0.5268    0.2702 C   0  0  1  0  0  0  0  0  0  0  0  0
   -3.3755    1.8744    0.1996 C   0  0  0  0  0  0  0  0  0  0  0  0
   -5.5665    0.7325    0.6724 C   0  0  1  0  0  0  0  0  0  0  0  0
   -2.8600   -2.0215   -0.2430 C   0  0  0  0  0  0  0  0  0  0  0  0
   -4.8819    1.9083   -0.0154 C   0  0  0  0  0  0  0  0  0  0  0  0
   -2.6506    0.6076   -1.8532 C   0  0  0  0  0  0  0  0  0  0  0  0
   -0.6169   -0.8528    0.1316 C   0  0  0  0  0  0  0  0  0  0  0  0
   -5.6295   -0.9742   -1.2251 C   0  0  0  0  0  0  0  0  0  0  0  0
   -5.6465   -1.7298    1.1252 C   0  0  0  0  0  0  0  0  0  0  0  0
   -1.3780   -1.9844   -0.0802 C   0  0  0  0  0  0  0  0  0  0  0  0
   -0.2692    1.5995   -0.2987 C   0  0  0  0  0  0  0  0  0  0  0  0
    0.8477    1.9414    0.6599 C   0  0  0  0  0  0  0  0  0  0  0  0
    0.9803   -2.3599    0.1180 C   0  0  0  0  0  0  0  0  0  0  0  0
    2.8431    3.4254    0.8159 C   0  0  0  0  0  0  0  0  0  0  0  0
    3.0990    4.8885    0.4390 C   0  0  0  0  0  0  0  0  0  0  0  0
    4.0807    2.5601    0.5557 C   0  0  0  0  0  0  0  0  0  0  0  0
    4.6057   -3.4411    0.3673 C   0  0  0  0  0  0  0  0  0  0  0  0
    3.4533   -2.4156    0.3819 C   0  0  0  0  0  0  0  0  0  0  0  0
    3.6346    5.0408   -0.9847 C   0  0  0  0  0  0  0  0  0  0  0  0
    4.6148    2.7163   -0.8682 C   0  0  0  0  0  0  0  0  0  0  0  0
    6.0465   -2.8894    0.3737 C   0  0  0  0  0  0  0  0  0  0  0  0
    4.9479   -4.1061   -0.9823 C   0  0  0  0  0  0  0  0  0  0  0  0
    4.8723    4.1793   -1.2157 C   0  0  0  0  0  0  0  0  0  0  0  0
    6.4240   -4.0786   -0.5340 C   0  0  0  0  0  0  0  0  0  0  0  0
   -3.2777   -0.6627    1.3464 H   0  0  0  0  0  0  0  0  0  0  0  0
   -1.3034    0.6879    1.3546 H   0  0  0  0  0  0  0  0  0  0  0  0
   -3.1816    1.9962    1.2735 H   0  0  0  0  0  0  0  0  0  0  0  0
   -2.9440    2.7547   -0.2900 H   0  0  0  0  0  0  0  0  0  0  0  0
   -5.3861    0.8090    1.7529 H   0  0  0  0  0  0  0  0  0  0  0  0
   -3.0992   -2.1909   -1.2981 H   0  0  0  0  0  0  0  0  0  0  0  0
   -3.2633   -2.8657    0.3262 H   0  0  0  0  0  0  0  0  0  0  0  0
   -5.2813    2.8468    0.3901 H   0  0  0  0  0  0  0  0  0  0  0  0
   -5.1319    1.9331   -1.0819 H   0  0  0  0  0  0  0  0  0  0  0  0
   -2.0790    1.4700   -2.2137 H   0  0  0  0  0  0  0  0  0  0  0  0
   -3.6342    0.7102   -2.3068 H   0  0  0  0  0  0  0  0  0  0  0  0
   -2.1795   -0.2829   -2.2785 H   0  0  0  0  0  0  0  0  0  0  0  0
   -5.3215   -0.2623   -1.9865 H   0  0  0  0  0  0  0  0  0  0  0  0
   -5.3504   -1.9793   -1.5557 H   0  0  0  0  0  0  0  0  0  0  0  0
   -6.7328   -1.6409    1.2377 H   0  0  0  0  0  0  0  0  0  0  0  0
   -5.4435   -2.7441    0.7660 H   0  0  0  0  0  0  0  0  0  0  0  0
   -5.2177   -1.6419    2.1302 H   0  0  0  0  0  0  0  0  0  0  0  0
    0.1713    1.2772   -1.2506 H   0  0  0  0  0  0  0  0  0  0  0  0
   -0.8053    2.5362   -0.4818 H   0  0  0  0  0  0  0  0  0  0  0  0
   -7.2539    1.7045    0.8516 H   0  0  0  0  0  0  0  0  0  0  0  0
   -7.3876   -1.1260   -2.0228 H   0  0  0  0  0  0  0  0  0  0  0  0
    1.5192    3.2177   -0.8318 H   0  0  0  0  0  0  0  0  0  0  0  0
    2.6191    3.3836    1.8891 H   0  0  0  0  0  0  0  0  0  0  0  0
    2.1528   -4.0042    0.0296 H   0  0  0  0  0  0  0  0  0  0  0  0
    3.8305    5.3140    1.1380 H   0  0  0  0  0  0  0  0  0  0  0  0
    2.1788    5.4756    0.5457 H   0  0  0  0  0  0  0  0  0  0  0  0
    3.8585    1.5045    0.7468 H   0  0  0  0  0  0  0  0  0  0  0  0
    4.8708    2.8491    1.2606 H   0  0  0  0  0  0  0  0  0  0  0  0
    4.4654   -4.1880    1.1642 H   0  0  0  0  0  0  0  0  0  0  0  0
    2.8586    4.7709   -1.7104 H   0  0  0  0  0  0  0  0  0  0  0  0
    3.8828    6.0924   -1.1692 H   0  0  0  0  0  0  0  0  0  0  0  0
    5.5436    2.1445   -0.9754 H   0  0  0  0  0  0  0  0  0  0  0  0
    3.8976    2.2911   -1.5807 H   0  0  0  0  0  0  0  0  0  0  0  0
    6.1709   -1.9143   -0.1117 H   0  0  0  0  0  0  0  0  0  0  0  0
    6.5429   -2.8670    1.3474 H   0  0  0  0  0  0  0  0  0  0  0  0
    4.5251   -5.1012   -1.1434 H   0  0  0  0  0  0  0  0  0  0  0  0
    4.7403   -3.4834   -1.8604 H   0  0  0  0  0  0  0  0  0  0  0  0
    5.6994    4.5587   -0.6030 H   0  0  0  0  0  0  0  0  0  0  0  0
    5.1880    4.2601   -2.2620 H   0  0  0  0  0  0  0  0  0  0  0  0
    6.7357   -4.9737    0.0165 H   0  0  0  0  0  0  0  0  0  0  0  0
    7.1559   -3.8668   -1.3172 H   0  0  0  0  0  0  0  0  0  0  0  0
  1 21  1  0  0  0  0
  1 24  1  0  0  0  0
  2 14  1  0  0  0  0
  2 55  1  0  0  0  0
  3 19  1  0  0  0  0
  3 56  1  0  0  0  0
  4 23  2  0  0  0  0
  5 29  2  0  0  0  0
  6 18  1  0  0  0  0
  6 24  2  0  0  0  0
  7 23  1  0  0  0  0
  7 25  1  0  0  0  0
  7 57  1  0  0  0  0
  8 24  1  0  0  0  0
  8 29  1  0  0  0  0
  8 59  1  0  0  0  0
  9 10  1  0  0  0  0
  9 12  1  0  0  0  0
  9 13  1  0  0  0  0
  9 17  1  0  0  0  0
 10 11  1  0  0  0  0
 10 15  1  0  0  0  0
 10 36  1  0  0  0  0
 11 14  1  0  0  0  0
 11 19  1  0  0  0  0
 11 20  1  0  0  0  0
 12 18  1  0  0  0  0
 12 22  1  0  0  0  0
 12 37  1  0  0  0  0
 13 16  1  0  0  0  0
 13 38  1  0  0  0  0
 13 39  1  0  0  0  0
 14 16  1  0  0  0  0
 14 40  1  0  0  0  0
 15 21  1  0  0  0  0
 15 41  1  0  0  0  0
 15 42  1  0  0  0  0
 16 43  1  0  0  0  0
 16 44  1  0  0  0  0
 17 45  1  0  0  0  0
 17 46  1  0  0  0  0
 17 47  1  0  0  0  0
 18 21  2  0  0  0  0
 19 48  1  0  0  0  0
 19 49  1  0  0  0  0
 20 50  1  0  0  0  0
 20 51  1  0  0  0  0
 20 52  1  0  0  0  0
 22 23  1  0  0  0  0
 22 53  1  0  0  0  0
 22 54  1  0  0  0  0
 25 26  1  0  0  0  0
 25 27  1  0  0  0  0
 25 58  1  0  0  0  0
 26 30  1  0  0  0  0
 26 60  1  0  0  0  0
 26 61  1  0  0  0  0
 27 31  1  0  0  0  0
 27 62  1  0  0  0  0
 27 63  1  0  0  0  0
 28 29  1  0  0  0  0
 28 32  1  0  0  0  0
 28 33  1  0  0  0  0
 28 64  1  0  0  0  0
 30 34  1  0  0  0  0
 30 65  1  0  0  0  0
 30 66  1  0  0  0  0
 31 34  1  0  0  0  0
 31 67  1  0  0  0  0
 31 68  1  0  0  0  0
 32 35  1  0  0  0  0
 32 69  1  0  0  0  0
 32 70  1  0  0  0  0
 33 35  1  0  0  0  0
 33 71  1  0  0  0  0
 33 72  1  0  0  0  0
 34 73  1  0  0  0  0
 34 74  1  0  0  0  0
 35 75  1  0  0  0  0
 35 76  1  0  0  0  0
M  END
> <PUBCHEM_COMPOUND_CID>
11883097

> <PUBCHEM_CONFORMER_RMSD>
1.2

> <PUBCHEM_CONFORMER_DIVERSEORDER>
1
18
16
13
3
12
14
19
17
9
10
11
7
20
15
8
4
5
6
2

> <PUBCHEM_MMFF94_PARTIAL_CHARGES>
24
1 -0.08
12 0.18
14 0.28
15 0.18
18 0.05
19 0.28
2 -0.68
21 -0.14
22 0.06
23 0.57
24 0.44
25 0.3
28 0.05
29 0.58
3 -0.68
4 -0.57
5 -0.57
55 0.4
56 0.4
57 0.37
59 0.37
6 -0.57
7 -0.73
8 -0.49

> <PUBCHEM_EFFECTIVE_ROTOR_COUNT>
11.2

> <PUBCHEM_PHARMACOPHORE_FEATURES>
13
1 2 acceptor
1 2 donor
1 3 acceptor
1 3 donor
1 4 acceptor
1 5 acceptor
1 7 donor
1 8 donor
4 28 32 33 35 rings
5 1 6 18 21 24 rings
6 25 26 27 30 31 34 rings
6 9 10 11 13 14 16 rings
6 9 10 12 15 18 21 rings

> <PUBCHEM_HEAVY_ATOM_COUNT>
35

> <PUBCHEM_ATOM_DEF_STEREO_COUNT>
5

> <PUBCHEM_ATOM_UDEF_STEREO_COUNT>
0

> <PUBCHEM_BOND_DEF_STEREO_COUNT>
0

> <PUBCHEM_BOND_UDEF_STEREO_COUNT>
0

> <PUBCHEM_ISOTOPIC_ATOM_COUNT>
0

> <PUBCHEM_COMPONENT_COUNT>
1

> <PUBCHEM_CACTVS_TAUTO_COUNT>
6

> <PUBCHEM_CONFORMER_ID>
00B5525900000001

> <PUBCHEM_MMFF94_ENERGY>
91.4218

> <PUBCHEM_FEATURE_SELFOVERLAP>
66.119

> <PUBCHEM_SHAPE_FINGERPRINT>
10032420 55 17314507028542358699
10050765 1 18410576236580029827
10190108 129 17546737405461581195
11049842 53 18124016074393577088
11445158 3 18341884169544312823
11756154 67 18124318212484367162
11763715 3 17834137255175796734
12107183 9 18126573310537868665
12166972 35 17969512511316603270
12522641 126 18409445924891967934
13540713 4 18114466777336415755
14040222 275 18126025788428877174
14068700 675 18198905808510454466
14394314 77 18050571737777294226
14415361 192 17314494951980266074
14790565 3 18338800134155161409
14840074 17 17532925224365714037
14849402 71 18410579469972472248
14937079 2 18338518539003359779
14955137 171 18340207375594093570
15198563 99 17907582433061466932
15347591 1 18410856586638656089
15400415 2 17834115621288830964
15439362 3 18337389439035086921
15927050 60 18124881419392320254
16067689 302 18266180716063071751
167882 2 18410014372445673817
16993438 75 9258122094178749480
18681886 176 18340481150222405162
19611394 137 18189916256596799867
20721686 56 18409446981501726691
21133410 127 17968651756599728380
21133665 82 17978237381645533260
21360443 120 18264215875677307444
21716022 299 18339657650810600852
21781055 127 16558208016608797531
21927370 108 18123489188832556386
22311459 1 18122626051182926713
23559900 14 18339914936124688419
24771293 8 18128796639461598618
24771750 20 18264500645051670478
3103668 31 17760089519416346172
3298306 158 18198908209059783668
335352 9 18267299834347513527
469060 322 17981055115449059578
53794403 172 18335984250843521958
59755656 215 18338517572414678837

> <PUBCHEM_SHAPE_MULTIPOLES>
685.71
15.92
7.12
1.12
9.18
3.55
0.19
-5.22
1.74
-18.1
0.92
0.21
0.36
-0.52

> <PUBCHEM_SHAPE_SELFOVERLAP>
1433.551

> <PUBCHEM_SHAPE_VOLUME>
391.7

> <PUBCHEM_COORDINATE_TYPE>
2
5
10

$$$$
