11912132
  -OEChem-12032416133D

 72 75  0     1  0  0  0  0  0999 V2000
   -5.7758   -0.5546   -0.9773 S   0  0  0  0  0  0  0  0  0  0  0  0
    2.2999    2.1200    0.8664 O   0  0  0  0  0  0  0  0  0  0  0  0
   -0.8466   -0.8746   -1.2715 O   0  0  0  0  0  0  0  0  0  0  0  0
   -1.2059   -4.6529   -0.0164 O   0  0  0  0  0  0  0  0  0  0  0  0
   -3.5399   -1.7085    1.0020 O   0  0  0  0  0  0  0  0  0  0  0  0
    0.0536    1.7997    0.3597 N   0  0  0  0  0  0  0  0  0  0  0  0
   -2.4284    0.2821    0.5865 N   0  0  0  0  0  0  0  0  0  0  0  0
    0.0980   -2.2225    0.3747 N   0  0  0  0  0  0  0  0  0  0  0  0
    3.4357    5.4299   -0.2239 N   0  0  0  0  0  0  0  0  0  0  0  0
   -0.2307   -4.7806   -2.0917 N   0  0  0  0  0  0  0  0  0  0  0  0
    3.0349   -2.7686    0.4572 C   0  0  0  0  0  0  0  0  0  0  0  0
    3.4306   -1.9416   -0.7734 C   0  0  0  0  0  0  0  0  0  0  0  0
    4.2641   -3.4457    1.0787 C   0  0  0  0  0  0  0  0  0  0  0  0
    1.9747   -3.8058    0.0921 C   0  0  0  0  0  0  0  0  0  0  0  0
    4.5288   -0.9327   -0.4454 C   0  0  0  0  0  0  0  0  0  0  0  0
    5.3608   -2.4341    1.4038 C   0  0  0  0  0  0  0  0  0  0  0  0
    5.7452   -1.6081    0.1803 C   0  0  0  0  0  0  0  0  0  0  0  0
    0.6910   -3.2117   -0.4961 C   0  0  1  0  0  0  0  0  0  0  0  0
   -1.1483   -0.2801    1.0236 C   0  0  2  0  0  0  0  0  0  0  0  0
    1.4106    3.4200   -0.9029 C   0  0  0  0  0  0  0  0  0  0  0  0
   -0.1272    0.7894    1.4051 C   0  0  0  0  0  0  0  0  0  0  0  0
   -1.1195    2.1298   -0.4551 C   0  0  0  0  0  0  0  0  0  0  0  0
   -2.4310    1.6981    0.1901 C   0  0  0  0  0  0  0  0  0  0  0  0
    1.3070    2.3903    0.1869 C   0  0  0  0  0  0  0  0  0  0  0  0
    1.0460    4.8097   -0.3762 C   0  0  0  0  0  0  0  0  0  0  0  0
    2.8100    3.4193   -1.5217 C   0  0  0  0  0  0  0  0  0  0  0  0
   -0.6218   -1.1363   -0.0928 C   0  0  0  0  0  0  0  0  0  0  0  0
    2.1567    5.4128    0.4853 C   0  0  0  0  0  0  0  0  0  0  0  0
    3.8464    4.0810   -0.6122 C   0  0  0  0  0  0  0  0  0  0  0  0
   -0.3560   -4.2702   -0.8171 C   0  0  0  0  0  0  0  0  0  0  0  0
   -3.5858   -0.5237    0.6648 C   0  0  0  0  0  0  0  0  0  0  0  0
   -4.8611    0.0946    0.3166 C   0  0  0  0  0  0  0  0  0  0  0  0
   -5.4824    1.1791    0.8958 C   0  0  0  0  0  0  0  0  0  0  0  0
   -6.7260    1.4809    0.2691 C   0  0  0  0  0  0  0  0  0  0  0  0
   -7.0076    0.6157   -0.7651 C   0  0  0  0  0  0  0  0  0  0  0  0
    2.6209   -2.0852    1.2108 H   0  0  0  0  0  0  0  0  0  0  0  0
    2.5766   -1.3776   -1.1618 H   0  0  0  0  0  0  0  0  0  0  0  0
    3.7741   -2.6041   -1.5780 H   0  0  0  0  0  0  0  0  0  0  0  0
    4.6637   -4.2005    0.3893 H   0  0  0  0  0  0  0  0  0  0  0  0
    3.9771   -3.9737    1.9959 H   0  0  0  0  0  0  0  0  0  0  0  0
    2.3905   -4.5332   -0.6178 H   0  0  0  0  0  0  0  0  0  0  0  0
    1.7181   -4.3817    0.9919 H   0  0  0  0  0  0  0  0  0  0  0  0
    4.8289   -0.4043   -1.3575 H   0  0  0  0  0  0  0  0  0  0  0  0
    4.1354   -0.1771    0.2457 H   0  0  0  0  0  0  0  0  0  0  0  0
    5.0152   -1.7655    2.2018 H   0  0  0  0  0  0  0  0  0  0  0  0
    6.2436   -2.9584    1.7867 H   0  0  0  0  0  0  0  0  0  0  0  0
    6.2240   -2.2577   -0.5627 H   0  0  0  0  0  0  0  0  0  0  0  0
    6.4830   -0.8494    0.4642 H   0  0  0  0  0  0  0  0  0  0  0  0
    0.9237   -2.7110   -1.4435 H   0  0  0  0  0  0  0  0  0  0  0  0
   -1.3437   -0.9125    1.8989 H   0  0  0  0  0  0  0  0  0  0  0  0
    0.7313    3.1547   -1.7192 H   0  0  0  0  0  0  0  0  0  0  0  0
    0.8387    0.3355    1.6543 H   0  0  0  0  0  0  0  0  0  0  0  0
   -0.4696    1.3302    2.2962 H   0  0  0  0  0  0  0  0  0  0  0  0
   -0.9907    1.6391   -1.4258 H   0  0  0  0  0  0  0  0  0  0  0  0
   -1.1662    3.2052   -0.6400 H   0  0  0  0  0  0  0  0  0  0  0  0
   -2.6115    2.2803    1.1017 H   0  0  0  0  0  0  0  0  0  0  0  0
   -3.2477    1.8995   -0.5082 H   0  0  0  0  0  0  0  0  0  0  0  0
    0.1240    4.7865    0.2149 H   0  0  0  0  0  0  0  0  0  0  0  0
    0.8577    5.4741   -1.2298 H   0  0  0  0  0  0  0  0  0  0  0  0
    2.7770    3.9639   -2.4748 H   0  0  0  0  0  0  0  0  0  0  0  0
    3.1306    2.3966   -1.7555 H   0  0  0  0  0  0  0  0  0  0  0  0
    0.1660   -2.3769    1.3765 H   0  0  0  0  0  0  0  0  0  0  0  0
    2.2542    4.8660    1.4307 H   0  0  0  0  0  0  0  0  0  0  0  0
    1.8854    6.4424    0.7436 H   0  0  0  0  0  0  0  0  0  0  0  0
    4.7874    4.1604   -1.1691 H   0  0  0  0  0  0  0  0  0  0  0  0
    4.0780    3.4832    0.2736 H   0  0  0  0  0  0  0  0  0  0  0  0
    4.1496    5.8394    0.3778 H   0  0  0  0  0  0  0  0  0  0  0  0
    0.4887   -4.4698   -2.7368 H   0  0  0  0  0  0  0  0  0  0  0  0
   -0.8622   -5.4998   -2.4283 H   0  0  0  0  0  0  0  0  0  0  0  0
   -5.0752    1.7304    1.7339 H   0  0  0  0  0  0  0  0  0  0  0  0
   -7.3813    2.2903    0.5631 H   0  0  0  0  0  0  0  0  0  0  0  0
   -7.8780    0.6147   -1.4060 H   0  0  0  0  0  0  0  0  0  0  0  0
  1 32  1  0  0  0  0
  1 35  1  0  0  0  0
  2 24  2  0  0  0  0
  3 27  2  0  0  0  0
  4 30  2  0  0  0  0
  5 31  2  0  0  0  0
  6 21  1  0  0  0  0
  6 22  1  0  0  0  0
  6 24  1  0  0  0  0
  7 19  1  0  0  0  0
  7 23  1  0  0  0  0
  7 31  1  0  0  0  0
  8 18  1  0  0  0  0
  8 27  1  0  0  0  0
  8 62  1  0  0  0  0
  9 28  1  0  0  0  0
  9 29  1  0  0  0  0
  9 67  1  0  0  0  0
 10 30  1  0  0  0  0
 10 68  1  0  0  0  0
 10 69  1  0  0  0  0
 11 12  1  0  0  0  0
 11 13  1  0  0  0  0
 11 14  1  0  0  0  0
 11 36  1  0  0  0  0
 12 15  1  0  0  0  0
 12 37  1  0  0  0  0
 12 38  1  0  0  0  0
 13 16  1  0  0  0  0
 13 39  1  0  0  0  0
 13 40  1  0  0  0  0
 14 18  1  0  0  0  0
 14 41  1  0  0  0  0
 14 42  1  0  0  0  0
 15 17  1  0  0  0  0
 15 43  1  0  0  0  0
 15 44  1  0  0  0  0
 16 17  1  0  0  0  0
 16 45  1  0  0  0  0
 16 46  1  0  0  0  0
 17 47  1  0  0  0  0
 17 48  1  0  0  0  0
 18 30  1  0  0  0  0
 18 49  1  0  0  0  0
 19 21  1  0  0  0  0
 19 27  1  0  0  0  0
 19 50  1  0  0  0  0
 20 24  1  0  0  0  0
 20 25  1  0  0  0  0
 20 26  1  0  0  0  0
 20 51  1  0  0  0  0
 21 52  1  0  0  0  0
 21 53  1  0  0  0  0
 22 23  1  0  0  0  0
 22 54  1  0  0  0  0
 22 55  1  0  0  0  0
 23 56  1  0  0  0  0
 23 57  1  0  0  0  0
 25 28  1  0  0  0  0
 25 58  1  0  0  0  0
 25 59  1  0  0  0  0
 26 29  1  0  0  0  0
 26 60  1  0  0  0  0
 26 61  1  0  0  0  0
 28 63  1  0  0  0  0
 28 64  1  0  0  0  0
 29 65  1  0  0  0  0
 29 66  1  0  0  0  0
 31 32  1  0  0  0  0
 32 33  2  0  0  0  0
 33 34  1  0  0  0  0
 33 70  1  0  0  0  0
 34 35  2  0  0  0  0
 34 71  1  0  0  0  0
 35 72  1  0  0  0  0
M  END
> <PUBCHEM_COMPOUND_CID>
11912132

> <PUBCHEM_CONFORMER_RMSD>
1.2

> <PUBCHEM_CONFORMER_DIVERSEORDER>
1
11
16
46
83
40
12
91
64
53
31
41
71
86
37
45
33
17
62
60
7
73
57
103
51
104
88
67
49
82
27
48
78
22
58
90
99
52
66
59
50
76
84
56
13
80
79
9
42
69
94
96
18
39
75
95
89
63
92
26
55
6
68
19
10
29
100
72
65
3
36
54
14
30
8
21
25
47
5
77
20
34
74
32
35
24
61
87
38
98
70
2
102
43
93
4
44
101
23
97
28
85
81
15

> <PUBCHEM_MMFF94_PARTIAL_CHARGES>
33
1 -0.08
10 -0.8
18 0.36
19 0.36
2 -0.57
20 0.06
21 0.3
22 0.3
23 0.3
24 0.57
27 0.57
28 0.27
29 0.27
3 -0.57
30 0.57
31 0.71
32 -0.05
33 -0.15
34 -0.15
35 -0.11
4 -0.57
5 -0.57
6 -0.66
62 0.37
67 0.36
68 0.37
69 0.37
7 -0.66
70 0.15
71 0.15
72 0.15
8 -0.73
9 -0.9

> <PUBCHEM_EFFECTIVE_ROTOR_COUNT>
13.6

> <PUBCHEM_PHARMACOPHORE_FEATURES>
12
1 10 donor
1 2 acceptor
1 3 acceptor
1 4 acceptor
1 5 acceptor
1 8 donor
1 9 cation
1 9 donor
5 1 32 33 34 35 rings
6 11 12 13 15 16 17 rings
6 6 7 19 21 22 23 rings
6 9 20 25 26 28 29 rings

> <PUBCHEM_HEAVY_ATOM_COUNT>
35

> <PUBCHEM_ATOM_DEF_STEREO_COUNT>
2

> <PUBCHEM_ATOM_UDEF_STEREO_COUNT>
0

> <PUBCHEM_BOND_DEF_STEREO_COUNT>
0

> <PUBCHEM_BOND_UDEF_STEREO_COUNT>
0

> <PUBCHEM_ISOTOPIC_ATOM_COUNT>
0

> <PUBCHEM_COMPONENT_COUNT>
1

> <PUBCHEM_CACTVS_TAUTO_COUNT>
4

> <PUBCHEM_CONFORMER_ID>
00B5C3C400000001

> <PUBCHEM_MMFF94_ENERGY>
66.6083

> <PUBCHEM_FEATURE_SELFOVERLAP>
60.898

> <PUBCHEM_SHAPE_FINGERPRINT>
10050765 1 18336830909568260627
10906281 52 18266476308317313563
1100329 8 18411420648044978694
11445158 3 18410004421280892823
11763715 3 17547040445315500431
12440605 4 18050857903149274411
12977781 61 17677911204333746499
1361 2 18410575067752378322
13690498 29 16975637377965642503
140371 6 18267595611064114699
14068700 675 18129936785094129201
14068700 686 17838046006174759982
14117953 113 18340210670198084902
14725015 67 18120926210370237866
15400415 2 17904769130087642908
15439362 3 18337106873379574977
15664445 248 18127146194444248695
15927050 60 18124318469464831038
15961568 22 18195249918983727566
167882 2 18336830895881459769
17627616 140 18122063375363938718
18365409 1 17345450701118018831
20238998 120 18193554454905450297
20642791 178 18341896303291244107
22113638 7 18411136931496071302
22121540 332 17242144943177822429
22311459 1 18338798897700439363
23559900 14 18409443683620620329
24771293 8 18200870682511613394
24771750 20 18263095443110475381
25019877 29 17488731299448686878
3380486 145 17762355625412900545
3534868 343 17900552172424584478
469060 322 18124605184475658130
5309563 4 18265614278199774592
6004065 56 18410009897892007227
9961470 85 18197212766730838040

> <PUBCHEM_SHAPE_MULTIPOLES>
675.75
12.65
8.35
1.25
15.8
6.32
0.18
-2.54
-1.06
-11.44
2.11
-0.17
-0.47
-1.64

> <PUBCHEM_SHAPE_SELFOVERLAP>
1398.291

> <PUBCHEM_SHAPE_VOLUME>
384.9

> <PUBCHEM_COORDINATE_TYPE>
2
5
10

$$$$
