7144116
  -OEChem-12032416113D

 55 59  0     1  0  0  0  0  0999 V2000
    6.1190    3.4943   -1.1589 Cl  0  0  0  0  0  0  0  0  0  0  0  0
    2.5156   -0.8967    1.4641 S   0  0  0  0  0  0  0  0  0  0  0  0
    3.3324   -2.0745    1.6679 O   0  0  0  0  0  0  0  0  0  0  0  0
    1.8013   -0.2863    2.5655 O   0  0  0  0  0  0  0  0  0  0  0  0
   -1.8595   -4.9002    0.2689 O   0  0  0  0  0  0  0  0  0  0  0  0
   -3.8686    4.5794    0.2267 O   0  0  0  0  0  0  0  0  0  0  0  0
    1.4196   -1.1897    0.1835 N   0  0  2  0  0  0  0  0  0  0  0  0
   -1.2360   -2.7597   -0.4492 N   0  0  0  0  0  0  0  0  0  0  0  0
    0.8307   -2.3855   -1.9204 C   0  0  1  0  0  0  0  0  0  0  0  0
   -0.5212   -0.4682   -1.1969 C   0  0  2  0  0  0  0  0  0  0  0  0
    0.0749   -1.1646   -2.4179 C   0  0  0  0  0  0  0  0  0  0  0  0
    1.9587   -1.9769   -0.9606 C   0  0  0  0  0  0  0  0  0  0  0  0
    0.6160   -0.0138   -0.2609 C   0  0  0  0  0  0  0  0  0  0  0  0
   -0.1664   -3.3453   -1.2692 C   0  0  0  0  0  0  0  0  0  0  0  0
   -1.5050   -1.3765   -0.4540 C   0  0  0  0  0  0  0  0  0  0  0  0
   -2.5936   -0.8971    0.2025 C   0  0  0  0  0  0  0  0  0  0  0  0
   -2.0403   -3.6824    0.2433 C   0  0  0  0  0  0  0  0  0  0  0  0
   -3.4439   -1.8187    0.9319 C   0  0  0  0  0  0  0  0  0  0  0  0
   -3.1994   -3.1280    0.9786 C   0  0  0  0  0  0  0  0  0  0  0  0
    3.5325    0.3426    0.7238 C   0  0  0  0  0  0  0  0  0  0  0  0
   -2.9284    0.5438    0.2088 C   0  0  0  0  0  0  0  0  0  0  0  0
    3.1901    1.6766    0.8703 C   0  0  0  0  0  0  0  0  0  0  0  0
    4.6555   -0.0403    0.0090 C   0  0  0  0  0  0  0  0  0  0  0  0
   -2.4052    1.3704    1.1981 C   0  0  0  0  0  0  0  0  0  0  0  0
   -3.7651    1.0624   -0.7749 C   0  0  0  0  0  0  0  0  0  0  0  0
   -2.7217    2.7289    1.2041 C   0  0  0  0  0  0  0  0  0  0  0  0
   -4.0815    2.4209   -0.7690 C   0  0  0  0  0  0  0  0  0  0  0  0
    3.9934    2.6555    0.2854 C   0  0  0  0  0  0  0  0  0  0  0  0
    5.4589    0.9386   -0.5756 C   0  0  0  0  0  0  0  0  0  0  0  0
   -3.5598    3.2542    0.2205 C   0  0  0  0  0  0  0  0  0  0  0  0
    5.1279    2.2865   -0.4376 C   0  0  0  0  0  0  0  0  0  0  0  0
   -4.7310    5.0504   -0.8080 C   0  0  0  0  0  0  0  0  0  0  0  0
    1.2950   -2.8989   -2.7718 H   0  0  0  0  0  0  0  0  0  0  0  0
   -1.0326    0.4271   -1.5679 H   0  0  0  0  0  0  0  0  0  0  0  0
   -0.7134   -1.4557   -3.1234 H   0  0  0  0  0  0  0  0  0  0  0  0
    0.7510   -0.4878   -2.9545 H   0  0  0  0  0  0  0  0  0  0  0  0
    2.4570   -2.8803   -0.5935 H   0  0  0  0  0  0  0  0  0  0  0  0
    2.6928   -1.3796   -1.5115 H   0  0  0  0  0  0  0  0  0  0  0  0
    1.2502    0.6902   -0.8103 H   0  0  0  0  0  0  0  0  0  0  0  0
    0.2068    0.5027    0.6107 H   0  0  0  0  0  0  0  0  0  0  0  0
   -0.6798   -3.9044   -2.0640 H   0  0  0  0  0  0  0  0  0  0  0  0
    0.3625   -4.0974   -0.6699 H   0  0  0  0  0  0  0  0  0  0  0  0
   -4.3005   -1.4160    1.4645 H   0  0  0  0  0  0  0  0  0  0  0  0
   -3.8372   -3.8084    1.5300 H   0  0  0  0  0  0  0  0  0  0  0  0
    2.3108    1.9854    1.4272 H   0  0  0  0  0  0  0  0  0  0  0  0
    4.9290   -1.0839   -0.1131 H   0  0  0  0  0  0  0  0  0  0  0  0
   -1.7576    0.9749    1.9765 H   0  0  0  0  0  0  0  0  0  0  0  0
   -4.1780    0.4240   -1.5521 H   0  0  0  0  0  0  0  0  0  0  0  0
   -2.3136    3.3727    1.9785 H   0  0  0  0  0  0  0  0  0  0  0  0
   -4.7377    2.7626   -1.5621 H   0  0  0  0  0  0  0  0  0  0  0  0
    3.7229    3.7020    0.4007 H   0  0  0  0  0  0  0  0  0  0  0  0
    6.3393    0.6365   -1.1369 H   0  0  0  0  0  0  0  0  0  0  0  0
   -4.8695    6.1249   -0.6492 H   0  0  0  0  0  0  0  0  0  0  0  0
   -5.7220    4.5878   -0.7474 H   0  0  0  0  0  0  0  0  0  0  0  0
   -4.2761    4.9295   -1.7970 H   0  0  0  0  0  0  0  0  0  0  0  0
  1 31  1  0  0  0  0
  2  3  2  0  0  0  0
  2  4  2  0  0  0  0
  2  7  1  0  0  0  0
  2 20  1  0  0  0  0
  5 17  2  0  0  0  0
  6 30  1  0  0  0  0
  6 32  1  0  0  0  0
  7 12  1  0  0  0  0
  7 13  1  0  0  0  0
  8 14  1  0  0  0  0
  8 15  1  0  0  0  0
  8 17  1  0  0  0  0
  9 11  1  0  0  0  0
  9 12  1  0  0  0  0
  9 14  1  0  0  0  0
  9 33  1  0  0  0  0
 10 11  1  0  0  0  0
 10 13  1  0  0  0  0
 10 15  1  0  0  0  0
 10 34  1  0  0  0  0
 11 35  1  0  0  0  0
 11 36  1  0  0  0  0
 12 37  1  0  0  0  0
 12 38  1  0  0  0  0
 13 39  1  0  0  0  0
 13 40  1  0  0  0  0
 14 41  1  0  0  0  0
 14 42  1  0  0  0  0
 15 16  2  0  0  0  0
 16 18  1  0  0  0  0
 16 21  1  0  0  0  0
 17 19  1  0  0  0  0
 18 19  2  0  0  0  0
 18 43  1  0  0  0  0
 19 44  1  0  0  0  0
 20 22  2  0  0  0  0
 20 23  1  0  0  0  0
 21 24  2  0  0  0  0
 21 25  1  0  0  0  0
 22 28  1  0  0  0  0
 22 45  1  0  0  0  0
 23 29  2  0  0  0  0
 23 46  1  0  0  0  0
 24 26  1  0  0  0  0
 24 47  1  0  0  0  0
 25 27  2  0  0  0  0
 25 48  1  0  0  0  0
 26 30  2  0  0  0  0
 26 49  1  0  0  0  0
 27 30  1  0  0  0  0
 27 50  1  0  0  0  0
 28 31  2  0  0  0  0
 28 51  1  0  0  0  0
 29 31  1  0  0  0  0
 29 52  1  0  0  0  0
 32 53  1  0  0  0  0
 32 54  1  0  0  0  0
 32 55  1  0  0  0  0
M  END
> <PUBCHEM_COMPOUND_CID>
7144116

> <PUBCHEM_CONFORMER_RMSD>
0.8

> <PUBCHEM_CONFORMER_DIVERSEORDER>
1
5
4
8
9
2
3
7
6

> <PUBCHEM_MMFF94_PARTIAL_CHARGES>
40
1 -0.18
10 0.14
12 0.36
13 0.36
14 0.3
15 -0.03
16 -0.03
17 0.62
18 -0.15
19 -0.14
2 1.45
20 -0.01
21 0.03
22 -0.15
23 -0.15
24 -0.15
25 -0.15
26 -0.15
27 -0.15
28 -0.15
29 -0.15
3 -0.65
30 0.08
31 0.18
32 0.28
4 -0.65
43 0.15
44 0.15
45 0.15
46 0.15
47 0.15
48 0.15
49 0.15
5 -0.57
50 0.15
51 0.15
52 0.15
6 -0.36
7 -0.85
8 -0.47

> <PUBCHEM_EFFECTIVE_ROTOR_COUNT>
5

> <PUBCHEM_PHARMACOPHORE_FEATURES>
9
1 3 acceptor
1 4 acceptor
1 5 acceptor
1 6 acceptor
6 20 22 23 28 29 31 rings
6 21 24 25 26 27 30 rings
6 7 9 10 11 12 13 rings
6 8 15 16 17 18 19 rings
6 8 9 10 11 14 15 rings

> <PUBCHEM_HEAVY_ATOM_COUNT>
32

> <PUBCHEM_ATOM_DEF_STEREO_COUNT>
2

> <PUBCHEM_ATOM_UDEF_STEREO_COUNT>
0

> <PUBCHEM_BOND_DEF_STEREO_COUNT>
0

> <PUBCHEM_BOND_UDEF_STEREO_COUNT>
0

> <PUBCHEM_ISOTOPIC_ATOM_COUNT>
0

> <PUBCHEM_COMPONENT_COUNT>
1

> <PUBCHEM_CACTVS_TAUTO_COUNT>
1

> <PUBCHEM_CONFORMER_ID>
006D02B400000001

> <PUBCHEM_MMFF94_ENERGY>
89.6163

> <PUBCHEM_FEATURE_SELFOVERLAP>
47.275

> <PUBCHEM_SHAPE_FINGERPRINT>
10165383 225 17344089590793845994
10670039 82 18126008397963402820
10675989 125 17765152769872242433
10842077 115 17628323229262562288
10906281 52 18343027696782569841
11297750 10 17767452008180129927
11578080 2 17772783561447588595
11763715 3 17833835254323622798
12107183 9 18117828920458200154
12156800 1 14968775103504816995
12633257 1 18045489820877610786
12788726 201 18267004215521796595
13726171 33 18271540778849176016
13761468 95 17914922991468535224
13965767 371 17679026997754948151
13994607 96 18271801371731075839
14251751 93 18270121343828641488
14713325 29 18198355141715171666
14848178 96 18055069852948166401
14856354 85 17834685168659763238
14955137 171 17402338568675228806
15163728 17 18268711606607807529
15439362 3 18125445215897267588
15575132 122 18339365287120779045
15684970 41 17254305803521698522
17980427 26 17906437845599263583
20764821 26 16682605386873638272
21475661 188 18052814754541088591
21860390 5 17554320315770405239
22907989 373 18268976747702364727
23559900 14 17842270363643677571
27425 322 17895479094646230601
3298306 158 18059000679974004457
3380486 145 18194977455486629523
376196 1 18197779908144890719
4058900 60 18195816158808231697
4144715 1 18336554876178340538
474 4 17982724182732064401
5109719 28 18122350073928996401
550186 7 18056776531396817180
550186 72 18049446147040155340
57527585 21 18272355487153391645
7808743 9 18411702123052928640
9849439 229 18119817911281448413
9981440 41 18339073771190889395

> <PUBCHEM_SHAPE_MULTIPOLES>
630.82
11.02
6.36
1.69
12.47
2.96
-0.02
13.21
-0.4
-8.02
-0.89
0.58
-0.65
0.02

> <PUBCHEM_SHAPE_SELFOVERLAP>
1364.302

> <PUBCHEM_SHAPE_VOLUME>
347.1

> <PUBCHEM_COORDINATE_TYPE>
2
5
10

$$$$
