75536200
  -OEChem-12032416343D

 37 38  0     1  0  0  0  0  0999 V2000
    3.5819    1.4654    0.6265 O   0  0  0  0  0  0  0  0  0  0  0  0
    2.4107   -0.9993   -0.2411 N   0  0  1  0  0  0  0  0  0  0  0  0
   -0.9281    0.0179    0.5601 N   0  0  0  0  0  0  0  0  0  0  0  0
   -0.1674    0.3033   -1.5067 N   0  0  0  0  0  0  0  0  0  0  0  0
    1.5800    0.0950    0.3224 C   0  0  2  0  0  0  0  0  0  0  0  0
   -3.4035    0.0078    0.2909 C   0  0  0  0  0  0  0  0  0  0  0  0
    0.1689    0.1438   -0.2460 C   0  0  0  0  0  0  0  0  0  0  0  0
    2.2630    1.4556    0.0811 C   0  0  0  0  0  0  0  0  0  0  0  0
   -2.0345    0.1027   -0.2375 C   0  0  0  0  0  0  0  0  0  0  0  0
    3.7871   -0.9143    0.2792 C   0  0  0  0  0  0  0  0  0  0  0  0
    4.3830    0.4607    0.0093 C   0  0  0  0  0  0  0  0  0  0  0  0
   -4.1912   -1.1953   -0.3342 C   0  0  0  0  0  0  0  0  0  0  0  0
   -3.5328   -0.1974    1.8459 C   0  0  0  0  0  0  0  0  0  0  0  0
   -4.2390    1.3004   -0.0086 C   0  0  0  0  0  0  0  0  0  0  0  0
   -1.5396    0.2786   -1.5082 C   0  0  0  0  0  0  0  0  0  0  0  0
    1.8616   -2.3249    0.0670 C   0  0  0  0  0  0  0  0  0  0  0  0
    1.5175   -0.0520    1.4109 H   0  0  0  0  0  0  0  0  0  0  0  0
    2.3101    1.7095   -0.9862 H   0  0  0  0  0  0  0  0  0  0  0  0
    1.6992    2.2550    0.5758 H   0  0  0  0  0  0  0  0  0  0  0  0
    4.4181   -1.6717   -0.2002 H   0  0  0  0  0  0  0  0  0  0  0  0
    3.7929   -1.1032    1.3609 H   0  0  0  0  0  0  0  0  0  0  0  0
   -0.9127   -0.1141    1.5626 H   0  0  0  0  0  0  0  0  0  0  0  0
    5.3868    0.5232    0.4416 H   0  0  0  0  0  0  0  0  0  0  0  0
    4.4714    0.6634   -1.0650 H   0  0  0  0  0  0  0  0  0  0  0  0
   -3.6861   -2.1436   -0.1163 H   0  0  0  0  0  0  0  0  0  0  0  0
   -4.2545   -1.0975   -1.4241 H   0  0  0  0  0  0  0  0  0  0  0  0
   -5.2135   -1.2554    0.0556 H   0  0  0  0  0  0  0  0  0  0  0  0
   -3.0683    0.6340    2.3888 H   0  0  0  0  0  0  0  0  0  0  0  0
   -3.0352   -1.1223    2.1598 H   0  0  0  0  0  0  0  0  0  0  0  0
   -4.5812   -0.2581    2.1597 H   0  0  0  0  0  0  0  0  0  0  0  0
   -4.3040    1.4830   -1.0875 H   0  0  0  0  0  0  0  0  0  0  0  0
   -3.7690    2.1794    0.4476 H   0  0  0  0  0  0  0  0  0  0  0  0
   -5.2610    1.2200    0.3785 H   0  0  0  0  0  0  0  0  0  0  0  0
   -2.0986    0.3889   -2.4263 H   0  0  0  0  0  0  0  0  0  0  0  0
    2.5038   -3.1110   -0.3464 H   0  0  0  0  0  0  0  0  0  0  0  0
    1.7654   -2.4922    1.1459 H   0  0  0  0  0  0  0  0  0  0  0  0
    0.8783   -2.4635   -0.3945 H   0  0  0  0  0  0  0  0  0  0  0  0
  1  8  1  0  0  0  0
  1 11  1  0  0  0  0
  2  5  1  0  0  0  0
  2 10  1  0  0  0  0
  2 16  1  0  0  0  0
  3  7  1  0  0  0  0
  3  9  1  0  0  0  0
  3 22  1  0  0  0  0
  4  7  2  0  0  0  0
  4 15  1  0  0  0  0
  5  7  1  0  0  0  0
  5  8  1  0  0  0  0
  5 17  1  0  0  0  0
  6  9  1  0  0  0  0
  6 12  1  0  0  0  0
  6 13  1  0  0  0  0
  6 14  1  0  0  0  0
  8 18  1  0  0  0  0
  8 19  1  0  0  0  0
  9 15  2  0  0  0  0
 10 11  1  0  0  0  0
 10 20  1  0  0  0  0
 10 21  1  0  0  0  0
 11 23  1  0  0  0  0
 11 24  1  0  0  0  0
 12 25  1  0  0  0  0
 12 26  1  0  0  0  0
 12 27  1  0  0  0  0
 13 28  1  0  0  0  0
 13 29  1  0  0  0  0
 13 30  1  0  0  0  0
 14 31  1  0  0  0  0
 14 32  1  0  0  0  0
 14 33  1  0  0  0  0
 15 34  1  0  0  0  0
 16 35  1  0  0  0  0
 16 36  1  0  0  0  0
 16 37  1  0  0  0  0
M  END
> <PUBCHEM_COMPOUND_CID>
75536200

> <PUBCHEM_CONFORMER_RMSD>
0.6

> <PUBCHEM_CONFORMER_DIVERSEORDER>
1
13
11
8
9
16
22
23
3
21
6
10
15
7
5
14
2
18
17
4
19
12
20

> <PUBCHEM_MMFF94_PARTIAL_CHARGES>
15
1 -0.56
10 0.27
11 0.28
15 0.08
16 0.27
2 -0.81
22 0.27
3 0.03
34 0.15
4 -0.57
5 0.45
6 0.18
7 0.01
8 0.28
9 -0.33

> <PUBCHEM_EFFECTIVE_ROTOR_COUNT>
3.2

> <PUBCHEM_PHARMACOPHORE_FEATURES>
7
1 1 acceptor
1 2 cation
1 3 donor
3 3 4 7 cation
4 6 12 13 14 hydrophobe
5 3 4 7 9 15 rings
6 1 2 5 8 10 11 rings

> <PUBCHEM_HEAVY_ATOM_COUNT>
16

> <PUBCHEM_ATOM_DEF_STEREO_COUNT>
1

> <PUBCHEM_ATOM_UDEF_STEREO_COUNT>
0

> <PUBCHEM_BOND_DEF_STEREO_COUNT>
0

> <PUBCHEM_BOND_UDEF_STEREO_COUNT>
0

> <PUBCHEM_ISOTOPIC_ATOM_COUNT>
0

> <PUBCHEM_COMPONENT_COUNT>
1

> <PUBCHEM_CACTVS_TAUTO_COUNT>
2

> <PUBCHEM_CONFORMER_ID>
0480974800000001

> <PUBCHEM_MMFF94_ENERGY>
30.0103

> <PUBCHEM_FEATURE_SELFOVERLAP>
35.522

> <PUBCHEM_SHAPE_FINGERPRINT>
10366900 7 18187364354405704569
10498660 4 14548744945866077099
10980938 120 18341895194951869520
11132069 177 17967811699323189786
11471102 20 18411978049074226580
11615757 297 18131353020204901065
12107183 9 17622733016257259571
12236239 1 17561081410712641336
12251169 10 18343865524073314079
12500047 106 18409726253645218379
12507557 5 17846495950360082601
12507560 40 18336270059426416433
12670546 56 18059852848671798153
13296908 3 18040713649692988383
13538477 17 17131539626452090854
13583140 156 18202558510465072537
13675066 3 18041008302209806673
13760787 19 18131068238488539775
14144814 61 16845575305310888801
14252887 29 17967259675755981210
14289901 80 18411418427625527385
14943859 89 15985104132463558884
15219456 202 18187639167967150044
15342168 16 18120653789042090300
15375358 24 17603863399454118739
17834072 33 18272927250194840583
17844478 74 18113896039947442396
18175812 5 17967816058720263447
18186145 218 18202572769181462780
19422 9 17775286070822578134
200 152 18341323466359647455
20233049 118 16128657435906714288
20279233 1 17458343044134267123
20281475 54 16370445548918353233
20645477 70 18340480054578022095
22485316 2 18334292041923219503
22854114 59 18408603677636861592
23048698 100 18060419101444221675
23402539 116 16008743623965954982
23493267 7 16845584122942382199
23557571 272 17168137880479297550
23559900 14 18335979779223222232
26918003 58 18334573525268202080
474 4 17772738614667746256
5104073 3 18410572877107944475
581208 293 18260828223989657142
5902787 121 15864646066778244041
69090 78 18334008427894793419
77492 1 17489298694386459132
77779 3 18413107260105429325
81228 2 16951405408477211253
8272917 22 18129667378880587407
9981440 41 16121585609504269944

> <PUBCHEM_SHAPE_MULTIPOLES>
308.46
8.93
1.54
1.16
0.69
0.49
0.03
-0.41
1.72
-0.91
0.04
0.97
-0.04
0.24

> <PUBCHEM_SHAPE_SELFOVERLAP>
630.706

> <PUBCHEM_SHAPE_VOLUME>
179.8

> <PUBCHEM_COORDINATE_TYPE>
2
5
10

$$$$
