40777258
  -OEChem-12032416173D

 57 61  0     1  0  0  0  0  0999 V2000
   -2.3751   -2.3839    1.1880 Br  0  0  0  0  0  0  0  0  0  0  0  0
    4.6530   -1.6837    0.2647 S   0  0  0  0  0  0  0  0  0  0  0  0
    2.4842   -2.5383   -1.5126 S   0  0  0  0  0  0  0  0  0  0  0  0
    5.1296   -1.9041    1.6168 O   0  0  0  0  0  0  0  0  0  0  0  0
    5.4910   -2.0251   -0.8687 O   0  0  0  0  0  0  0  0  0  0  0  0
    1.9613    2.6092    1.6549 N   0  0  2  0  0  0  0  0  0  0  0  0
    4.1339   -0.0691    0.1077 N   0  0  0  0  0  0  0  0  0  0  0  0
   -0.6815    1.2563   -1.8102 N   0  0  0  0  0  0  0  0  0  0  0  0
   -2.6440   -0.1400   -1.7292 N   0  0  0  0  0  0  0  0  0  0  0  0
    1.2012    3.1545   -0.7757 C   0  0  2  0  0  0  0  0  0  0  0  0
   -0.0034    2.6618    0.0731 C   0  0  2  0  0  0  0  0  0  0  0  0
    2.8634    1.9432    0.6788 C   0  0  2  0  0  0  0  0  0  0  0  0
    2.3113    2.0825   -0.7562 C   0  0  0  0  0  0  0  0  0  0  0  0
    1.7648    4.4040   -0.0656 C   0  0  0  0  0  0  0  0  0  0  0  0
    0.5610    2.1682    1.4360 C   0  0  0  0  0  0  0  0  0  0  0  0
    2.0295    4.0703    1.4130 C   0  0  0  0  0  0  0  0  0  0  0  0
    3.1410    0.4833    1.0437 C   0  0  0  0  0  0  0  0  0  0  0  0
   -0.9608    1.6579   -0.5529 C   0  0  0  0  0  0  0  0  0  0  0  0
   -2.0479    1.2120    0.1708 C   0  0  0  0  0  0  0  0  0  0  0  0
   -2.8633    0.3046   -0.4744 C   0  0  0  0  0  0  0  0  0  0  0  0
   -1.5517    0.3694   -2.3298 C   0  0  0  0  0  0  0  0  0  0  0  0
    3.1360   -2.5701    0.0705 C   0  0  0  0  0  0  0  0  0  0  0  0
   -4.0340   -0.2374    0.1730 C   0  0  0  0  0  0  0  0  0  0  0  0
   -1.2772   -0.0969   -3.7195 C   0  0  0  0  0  0  0  0  0  0  0  0
    2.3502   -3.2957    0.9386 C   0  0  0  0  0  0  0  0  0  0  0  0
   -3.9845   -1.4046    0.9350 C   0  0  0  0  0  0  0  0  0  0  0  0
   -5.2413    0.4439    0.0183 C   0  0  0  0  0  0  0  0  0  0  0  0
    1.1978   -3.8328    0.2955 C   0  0  0  0  0  0  0  0  0  0  0  0
    1.1468   -3.4972   -1.0395 C   0  0  0  0  0  0  0  0  0  0  0  0
   -5.1423   -1.8906    1.5424 C   0  0  0  0  0  0  0  0  0  0  0  0
   -6.3992   -0.0421    0.6256 C   0  0  0  0  0  0  0  0  0  0  0  0
   -6.3497   -1.2093    1.3877 C   0  0  0  0  0  0  0  0  0  0  0  0
    0.9085    3.3978   -1.8025 H   0  0  0  0  0  0  0  0  0  0  0  0
   -0.6262    3.5484    0.2694 H   0  0  0  0  0  0  0  0  0  0  0  0
    3.8361    2.4562    0.7185 H   0  0  0  0  0  0  0  0  0  0  0  0
    1.9125    1.1341   -1.1330 H   0  0  0  0  0  0  0  0  0  0  0  0
    3.1209    2.3838   -1.4326 H   0  0  0  0  0  0  0  0  0  0  0  0
    1.0564    5.2376   -0.1379 H   0  0  0  0  0  0  0  0  0  0  0  0
    2.6934    4.7235   -0.5541 H   0  0  0  0  0  0  0  0  0  0  0  0
   -0.0641    2.5638    2.2479 H   0  0  0  0  0  0  0  0  0  0  0  0
    0.4924    1.0790    1.5362 H   0  0  0  0  0  0  0  0  0  0  0  0
    3.0129    4.4541    1.7112 H   0  0  0  0  0  0  0  0  0  0  0  0
    1.3053    4.5876    2.0552 H   0  0  0  0  0  0  0  0  0  0  0  0
    2.2241   -0.1093    0.9836 H   0  0  0  0  0  0  0  0  0  0  0  0
    3.5330    0.4153    2.0644 H   0  0  0  0  0  0  0  0  0  0  0  0
    4.0014    0.2343   -0.8654 H   0  0  0  0  0  0  0  0  0  0  0  0
   -2.2520    1.5567    1.1777 H   0  0  0  0  0  0  0  0  0  0  0  0
   -1.7745    0.5634   -4.4357 H   0  0  0  0  0  0  0  0  0  0  0  0
   -0.2021   -0.0925   -3.9250 H   0  0  0  0  0  0  0  0  0  0  0  0
   -1.6459   -1.1169   -3.8668 H   0  0  0  0  0  0  0  0  0  0  0  0
    2.5876   -3.4359    1.9852 H   0  0  0  0  0  0  0  0  0  0  0  0
   -5.3004    1.3552   -0.5724 H   0  0  0  0  0  0  0  0  0  0  0  0
    0.4464   -4.4370    0.7868 H   0  0  0  0  0  0  0  0  0  0  0  0
    0.3876   -3.7685   -1.7595 H   0  0  0  0  0  0  0  0  0  0  0  0
   -5.1246   -2.7984    2.1401 H   0  0  0  0  0  0  0  0  0  0  0  0
   -7.3393    0.4882    0.5051 H   0  0  0  0  0  0  0  0  0  0  0  0
   -7.2514   -1.5876    1.8605 H   0  0  0  0  0  0  0  0  0  0  0  0
  1 26  1  0  0  0  0
  2  4  2  0  0  0  0
  2  5  2  0  0  0  0
  2  7  1  0  0  0  0
  2 22  1  0  0  0  0
  3 22  1  0  0  0  0
  3 29  1  0  0  0  0
  6 12  1  0  0  0  0
  6 15  1  0  0  0  0
  6 16  1  0  0  0  0
  7 17  1  0  0  0  0
  7 46  1  0  0  0  0
  8 18  2  0  0  0  0
  8 21  1  0  0  0  0
  9 20  1  0  0  0  0
  9 21  2  0  0  0  0
 10 11  1  0  0  0  0
 10 13  1  0  0  0  0
 10 14  1  0  0  0  0
 10 33  1  0  0  0  0
 11 15  1  0  0  0  0
 11 18  1  0  0  0  0
 11 34  1  0  0  0  0
 12 13  1  0  0  0  0
 12 17  1  0  0  0  0
 12 35  1  0  0  0  0
 13 36  1  0  0  0  0
 13 37  1  0  0  0  0
 14 16  1  0  0  0  0
 14 38  1  0  0  0  0
 14 39  1  0  0  0  0
 15 40  1  0  0  0  0
 15 41  1  0  0  0  0
 16 42  1  0  0  0  0
 16 43  1  0  0  0  0
 17 44  1  0  0  0  0
 17 45  1  0  0  0  0
 18 19  1  0  0  0  0
 19 20  2  0  0  0  0
 19 47  1  0  0  0  0
 20 23  1  0  0  0  0
 21 24  1  0  0  0  0
 22 25  2  0  0  0  0
 23 26  1  0  0  0  0
 23 27  2  0  0  0  0
 24 48  1  0  0  0  0
 24 49  1  0  0  0  0
 24 50  1  0  0  0  0
 25 28  1  0  0  0  0
 25 51  1  0  0  0  0
 26 30  2  0  0  0  0
 27 31  1  0  0  0  0
 27 52  1  0  0  0  0
 28 29  2  0  0  0  0
 28 53  1  0  0  0  0
 29 54  1  0  0  0  0
 30 32  1  0  0  0  0
 30 55  1  0  0  0  0
 31 32  2  0  0  0  0
 31 56  1  0  0  0  0
 32 57  1  0  0  0  0
M  END
> <PUBCHEM_COMPOUND_CID>
40777258

> <PUBCHEM_CONFORMER_RMSD>
1.4

> <PUBCHEM_CONFORMER_DIVERSEORDER>
1
68
12
58
90
82
36
69
37
29
46
85
27
67
71
56
39
16
55
57
80
84
13
50
83
25
7
44
87
60
70
15
91
75
51
42
40
88
34
43
54
78
63
45
89
72
79
11
61
8
17
23
30
74
86
28
62
20
53
64
52
14
32
48
21
73
26
33
35
24
6
38
49
18
81
77
65
66
41
76
3
31
19
47
5
22
59
9
4
2
10

> <PUBCHEM_MMFF94_PARTIAL_CHARGES>
37
1 -0.11
11 0.14
12 0.27
15 0.27
16 0.27
17 0.36
18 0.17
19 -0.15
2 1.5
20 0.31
21 0.48
22 -0.02
24 0.14
25 -0.15
26 0.11
27 -0.15
28 -0.15
29 -0.11
3 -0.08
30 -0.15
31 -0.15
32 -0.15
4 -0.65
46 0.42
47 0.15
5 -0.65
51 0.15
52 0.15
53 0.15
54 0.15
55 0.15
56 0.15
57 0.15
6 -0.81
7 -0.91
8 -0.62
9 -0.62

> <PUBCHEM_EFFECTIVE_ROTOR_COUNT>
7.2

> <PUBCHEM_PHARMACOPHORE_FEATURES>
11
1 1 hydrophobe
1 4 acceptor
1 5 acceptor
1 6 cation
1 7 donor
1 8 acceptor
3 8 9 21 cation
5 3 22 25 28 29 rings
6 23 26 27 30 31 32 rings
6 8 9 18 19 20 21 rings
8 6 10 11 12 13 14 15 16 rings

> <PUBCHEM_HEAVY_ATOM_COUNT>
32

> <PUBCHEM_ATOM_DEF_STEREO_COUNT>
3

> <PUBCHEM_ATOM_UDEF_STEREO_COUNT>
0

> <PUBCHEM_BOND_DEF_STEREO_COUNT>
0

> <PUBCHEM_BOND_UDEF_STEREO_COUNT>
0

> <PUBCHEM_ISOTOPIC_ATOM_COUNT>
0

> <PUBCHEM_COMPONENT_COUNT>
1

> <PUBCHEM_CACTVS_TAUTO_COUNT>
1

> <PUBCHEM_CONFORMER_ID>
026E362A00000001

> <PUBCHEM_MMFF94_ENERGY>
80.7179

> <PUBCHEM_FEATURE_SELFOVERLAP>
55.839

> <PUBCHEM_SHAPE_FINGERPRINT>
11513181 2 17906747142857619982
12106331 60 17978492163041777234
12128747 34 18336826382504107397
12156800 1 15821365732802447266
12422481 6 17632019641731528605
12522641 24 18270417087256714779
12553582 1 18198887138018496078
13165053 68 18198899413922206503
13402501 40 18333734615102945706
13533116 47 18340773745042862505
151778 21 18267022953936114313
15328829 1 17202461404416164151
15927050 60 17908710871088148830
161222 10 16155399912389267091
19311894 1 16319777514944155675
19319366 153 17913210050894485361
1979834 28 18202566172291512138
20429552 37 18411141329510739027
20764821 26 18266443468770456318
20775530 9 18339634534705074656
21315759 227 18115578228524569498
21796203 349 18342171181461601528
23559900 14 18261396680565983637
3493558 16 16338370390007986529
35225 105 16908920618134150719
3737641 26 17985829220981141686
394071 54 18272384040238614291
4394409 98 15731744436869311674
46194498 28 17603586369774270108
463206 1 18341607131384946830
469060 322 18046080267670395256
5265222 85 17541965507262964685
5309563 4 18411135792754432498
563151 40 17541673050703672500
86090 222 18041007262538013299

> <PUBCHEM_SHAPE_MULTIPOLES>
640.52
11.45
5.5
2.15
12.21
1.2
1.85
-6.91
-4.87
-7.01
-1.19
0.66
-0.02
1.74

> <PUBCHEM_SHAPE_SELFOVERLAP>
1349.975

> <PUBCHEM_SHAPE_VOLUME>
368.7

> <PUBCHEM_COORDINATE_TYPE>
2
5
10

$$$$
