75536631
  -OEChem-12032416303D

 47 49  0     1  0  0  0  0  0999 V2000
    3.9387    0.9653    0.5504 O   0  0  0  0  0  0  0  0  0  0  0  0
    4.6250   -1.9283   -0.6431 O   0  0  0  0  0  0  0  0  0  0  0  0
    0.1881    0.5187   -2.1625 O   0  0  0  0  0  0  0  0  0  0  0  0
    1.5083   -0.8798    0.9138 N   0  0  0  0  0  0  0  0  0  0  0  0
    1.7854    1.5927   -0.8670 N   0  0  0  0  0  0  0  0  0  0  0  0
   -4.2221   -1.4282   -2.6063 N   0  0  0  0  0  0  0  0  0  0  0  0
    2.9414   -1.1600    0.8560 C   0  0  1  0  0  0  0  0  0  0  0  0
    3.4683   -1.0918   -0.5667 C   0  0  1  0  0  0  0  0  0  0  0  0
    3.8920    0.3641   -0.7570 C   0  0  1  0  0  0  0  0  0  0  0  0
    3.7337   -0.0547    1.5351 C   0  0  0  0  0  0  0  0  0  0  0  0
    2.9313    1.1691   -1.6189 C   0  0  0  0  0  0  0  0  0  0  0  0
    0.7275   -2.0923    0.6991 C   0  0  0  0  0  0  0  0  0  0  0  0
   -0.7528   -1.8202    0.7392 C   0  0  0  0  0  0  0  0  0  0  0  0
    0.4856    1.2276   -1.2046 C   0  0  0  0  0  0  0  0  0  0  0  0
   -1.4867   -1.7705   -0.4460 C   0  0  0  0  0  0  0  0  0  0  0  0
   -1.3907   -1.6193    1.9635 C   0  0  0  0  0  0  0  0  0  0  0  0
   -0.5939    1.7704   -0.3404 C   0  0  0  0  0  0  0  0  0  0  0  0
   -2.8582   -1.5198   -0.4073 C   0  0  0  0  0  0  0  0  0  0  0  0
   -2.7624   -1.3689    2.0022 C   0  0  0  0  0  0  0  0  0  0  0  0
   -3.4962   -1.3189    0.8169 C   0  0  0  0  0  0  0  0  0  0  0  0
   -1.8749    1.9575   -0.8597 C   0  0  0  0  0  0  0  0  0  0  0  0
   -0.3264    2.0938    0.9899 C   0  0  0  0  0  0  0  0  0  0  0  0
   -2.8887    2.4678   -0.0486 C   0  0  0  0  0  0  0  0  0  0  0  0
   -1.3401    2.6041    1.8010 C   0  0  0  0  0  0  0  0  0  0  0  0
   -2.6213    2.7909    1.2817 C   0  0  0  0  0  0  0  0  0  0  0  0
   -3.6108   -1.4693   -1.6207 C   0  0  0  0  0  0  0  0  0  0  0  0
    3.1673   -2.1075    1.3604 H   0  0  0  0  0  0  0  0  0  0  0  0
    2.7703   -1.4522   -1.3284 H   0  0  0  0  0  0  0  0  0  0  0  0
    4.8964    0.4232   -1.1925 H   0  0  0  0  0  0  0  0  0  0  0  0
    3.2453    0.3758    2.4149 H   0  0  0  0  0  0  0  0  0  0  0  0
    4.7205   -0.4182    1.8454 H   0  0  0  0  0  0  0  0  0  0  0  0
    2.6479    0.6281   -2.5272 H   0  0  0  0  0  0  0  0  0  0  0  0
    3.4270    2.0961   -1.9296 H   0  0  0  0  0  0  0  0  0  0  0  0
    1.2767   -0.5047    1.8339 H   0  0  0  0  0  0  0  0  0  0  0  0
    0.9595   -2.8436    1.4656 H   0  0  0  0  0  0  0  0  0  0  0  0
    0.9827   -2.5494   -0.2648 H   0  0  0  0  0  0  0  0  0  0  0  0
    4.9744   -1.8580   -1.5480 H   0  0  0  0  0  0  0  0  0  0  0  0
    1.9541    2.2480   -0.1114 H   0  0  0  0  0  0  0  0  0  0  0  0
   -0.9895   -1.9316   -1.4001 H   0  0  0  0  0  0  0  0  0  0  0  0
   -0.8301   -1.6555    2.8938 H   0  0  0  0  0  0  0  0  0  0  0  0
   -3.2588   -1.2112    2.9553 H   0  0  0  0  0  0  0  0  0  0  0  0
   -4.5644   -1.1211    0.8635 H   0  0  0  0  0  0  0  0  0  0  0  0
   -2.1021    1.7155   -1.8946 H   0  0  0  0  0  0  0  0  0  0  0  0
    0.6493    1.9435    1.4415 H   0  0  0  0  0  0  0  0  0  0  0  0
   -3.8864    2.6125   -0.4526 H   0  0  0  0  0  0  0  0  0  0  0  0
   -1.1340    2.8500    2.8386 H   0  0  0  0  0  0  0  0  0  0  0  0
   -3.4111    3.1859    1.9139 H   0  0  0  0  0  0  0  0  0  0  0  0
  1  9  1  0  0  0  0
  1 10  1  0  0  0  0
  2  8  1  0  0  0  0
  2 37  1  0  0  0  0
  3 14  2  0  0  0  0
  4  7  1  0  0  0  0
  4 12  1  0  0  0  0
  4 34  1  0  0  0  0
  5 11  1  0  0  0  0
  5 14  1  0  0  0  0
  5 38  1  0  0  0  0
  6 26  3  0  0  0  0
  7  8  1  0  0  0  0
  7 10  1  0  0  0  0
  7 27  1  0  0  0  0
  8  9  1  0  0  0  0
  8 28  1  0  0  0  0
  9 11  1  0  0  0  0
  9 29  1  0  0  0  0
 10 30  1  0  0  0  0
 10 31  1  0  0  0  0
 11 32  1  0  0  0  0
 11 33  1  0  0  0  0
 12 13  1  0  0  0  0
 12 35  1  0  0  0  0
 12 36  1  0  0  0  0
 13 15  2  0  0  0  0
 13 16  1  0  0  0  0
 14 17  1  0  0  0  0
 15 18  1  0  0  0  0
 15 39  1  0  0  0  0
 16 19  2  0  0  0  0
 16 40  1  0  0  0  0
 17 21  2  0  0  0  0
 17 22  1  0  0  0  0
 18 20  2  0  0  0  0
 18 26  1  0  0  0  0
 19 20  1  0  0  0  0
 19 41  1  0  0  0  0
 20 42  1  0  0  0  0
 21 23  1  0  0  0  0
 21 43  1  0  0  0  0
 22 24  2  0  0  0  0
 22 44  1  0  0  0  0
 23 25  2  0  0  0  0
 23 45  1  0  0  0  0
 24 25  1  0  0  0  0
 24 46  1  0  0  0  0
 25 47  1  0  0  0  0
M  END
> <PUBCHEM_COMPOUND_CID>
75536631

> <PUBCHEM_CONFORMER_RMSD>
1.2

> <PUBCHEM_CONFORMER_DIVERSEORDER>
4
21
40
30
68
2
115
116
101
107
94
29
13
113
84
63
58
22
98
89
61
17
99
80
71
18
42
59
82
79
87
10
85
111
66
36
33
91
64
28
32
93
92
38
49
1
67
54
51
55
62
106
24
47
39
31
8
53
81
43
41
46
86
105
19
96
76
37
48
78
44
117
95
104
75
73
5
72
100
88
74
112
83
23
90
110
34
56
35
65
52
27
102
97
25
16
50
103
109
77
57
26
12
14
114
15
11
60
20
108
6
9
7
70
3
69
45

> <PUBCHEM_MMFF94_PARTIAL_CHARGES>
38
1 -0.56
10 0.28
11 0.3
12 0.41
13 -0.14
14 0.54
15 -0.15
16 -0.15
17 0.09
18 0.07
19 -0.15
2 -0.68
20 -0.15
21 -0.15
22 -0.15
23 -0.15
24 -0.15
25 -0.15
26 0.48
3 -0.57
34 0.36
37 0.4
38 0.37
39 0.15
4 -0.9
40 0.15
41 0.15
42 0.15
43 0.15
44 0.15
45 0.15
46 0.15
47 0.15
5 -0.73
6 -0.56
7 0.27
8 0.28
9 0.28

> <PUBCHEM_EFFECTIVE_ROTOR_COUNT>
8

> <PUBCHEM_PHARMACOPHORE_FEATURES>
11
1 1 acceptor
1 2 acceptor
1 2 donor
1 3 acceptor
1 4 cation
1 4 donor
1 5 donor
1 6 acceptor
5 1 7 8 9 10 rings
6 13 15 16 18 19 20 rings
6 17 21 22 23 24 25 rings

> <PUBCHEM_HEAVY_ATOM_COUNT>
26

> <PUBCHEM_ATOM_DEF_STEREO_COUNT>
3

> <PUBCHEM_ATOM_UDEF_STEREO_COUNT>
0

> <PUBCHEM_BOND_DEF_STEREO_COUNT>
0

> <PUBCHEM_BOND_UDEF_STEREO_COUNT>
0

> <PUBCHEM_ISOTOPIC_ATOM_COUNT>
0

> <PUBCHEM_COMPONENT_COUNT>
1

> <PUBCHEM_CACTVS_TAUTO_COUNT>
2

> <PUBCHEM_CONFORMER_ID>
048098F700000004

> <PUBCHEM_MMFF94_ENERGY>
58.6367

> <PUBCHEM_FEATURE_SELFOVERLAP>
55.823

> <PUBCHEM_SHAPE_FINGERPRINT>
104564 63 18335997431491375097
12422481 6 17976859465229896745
12553582 1 18196383725629300404
12633257 1 16773536394365387690
12788726 201 18267327467270810145
13140716 1 18261395482248781936
13224815 77 18186805772834781040
13583140 156 16844996915377747954
14081887 123 18272925038081162928
14251757 17 17168694358006810431
14464042 87 18411417319877295183
14787075 74 18126837425103676952
16752209 62 18409168822381861766
17357779 13 18409442626373051403
20261772 1 17970084261283214208
20775438 99 17044822459158074479
21236236 1 18335431140971399110
23419403 2 17471796728177545824
23557571 272 18200857540043855226
238 59 16894543464203251823
2818148 4 17751373776658480266
3027735 51 18410012100735495939
35225 105 17914634768649771032
4340502 62 18124047728318950449
469060 322 16660661655928538563
57527306 92 15751003950766997993
6287921 2 17121705311602553561
6438718 38 18199771188253539033

> <PUBCHEM_SHAPE_MULTIPOLES>
502.52
7.55
3.33
2.13
5.07
1.35
-0.35
-2.4
-1.51
-2.42
0.74
-1.35
-0.19
-1.13

> <PUBCHEM_SHAPE_SELFOVERLAP>
1072.501

> <PUBCHEM_SHAPE_VOLUME>
277.2

> <PUBCHEM_COORDINATE_TYPE>
2
5
10

$$$$
