45784003
  -OEChem-12032416263D

 64 66  0     1  0  0  0  0  0999 V2000
   -5.8005   -1.7019    2.4869 O   0  0  0  0  0  0  0  0  0  0  0  0
    3.6064   -0.5008    1.0089 O   0  0  0  0  0  0  0  0  0  0  0  0
   -3.9752    0.2690   -0.0761 N   0  0  1  0  0  0  0  0  0  0  0  0
    3.9936   -2.1332   -0.4709 N   0  0  0  0  0  0  0  0  0  0  0  0
    5.2116   -1.5928   -0.1026 N   0  0  0  0  0  0  0  0  0  0  0  0
   -0.2204    1.0268   -0.0682 C   0  0  1  0  0  0  0  0  0  0  0  0
   -1.5858    0.5275   -0.6034 C   0  0  2  0  0  0  0  0  0  0  0  0
    0.9222    0.5284   -0.9663 C   0  0  0  0  0  0  0  0  0  0  0  0
   -2.6750    0.6396    0.4693 C   0  0  0  0  0  0  0  0  0  0  0  0
    0.9652   -1.0087   -1.0553 C   0  0  2  0  0  0  0  0  0  0  0  0
   -0.1730    2.5546    0.0318 C   0  0  0  0  0  0  0  0  0  0  0  0
   -4.9646   -0.0689    0.9565 C   0  0  1  0  0  0  0  0  0  0  0  0
   -1.5347   -0.8904   -1.1224 C   0  0  0  0  0  0  0  0  0  0  0  0
   -0.4067   -1.5962   -1.3171 C   0  0  0  0  0  0  0  0  0  0  0  0
   -4.5764    1.3738   -0.8273 C   0  0  0  0  0  0  0  0  0  0  0  0
   -6.2883    0.0037    0.1920 C   0  0  0  0  0  0  0  0  0  0  0  0
   -6.0264    0.9450   -0.9786 C   0  0  0  0  0  0  0  0  0  0  0  0
    1.5916   -1.6175    0.2042 C   0  0  0  0  0  0  0  0  0  0  0  0
    0.1380    3.1675   -1.3299 C   0  0  0  0  0  0  0  0  0  0  0  0
    0.8586    2.9882    1.0685 C   0  0  0  0  0  0  0  0  0  0  0  0
   -4.7453   -1.4424    1.5779 C   0  0  0  0  0  0  0  0  0  0  0  0
   -0.4509   -3.0004   -1.8523 C   0  0  0  0  0  0  0  0  0  0  0  0
    3.0859   -1.4656    0.2021 C   0  0  0  0  0  0  0  0  0  0  0  0
    4.9372   -0.6440    0.7618 C   0  0  0  0  0  0  0  0  0  0  0  0
    5.8459    0.2574    1.4811 C   0  0  0  0  0  0  0  0  0  0  0  0
    5.8843    1.6803    0.8829 C   0  0  0  0  0  0  0  0  0  0  0  0
    6.3824    1.7012   -0.5535 C   0  0  0  0  0  0  0  0  0  0  0  0
   -0.0868    0.6109    0.9391 H   0  0  0  0  0  0  0  0  0  0  0  0
   -1.8679    1.1502   -1.4613 H   0  0  0  0  0  0  0  0  0  0  0  0
    0.7844    0.8797   -1.9973 H   0  0  0  0  0  0  0  0  0  0  0  0
    1.8916    0.9130   -0.6328 H   0  0  0  0  0  0  0  0  0  0  0  0
   -2.3983   -0.0374    1.2875 H   0  0  0  0  0  0  0  0  0  0  0  0
   -2.7139    1.6380    0.9190 H   0  0  0  0  0  0  0  0  0  0  0  0
    1.5966   -1.2544   -1.9216 H   0  0  0  0  0  0  0  0  0  0  0  0
   -1.1393    2.9475    0.3639 H   0  0  0  0  0  0  0  0  0  0  0  0
   -4.9860    0.6962    1.7461 H   0  0  0  0  0  0  0  0  0  0  0  0
   -2.4785   -1.3602   -1.3899 H   0  0  0  0  0  0  0  0  0  0  0  0
   -4.5321    2.3200   -0.2726 H   0  0  0  0  0  0  0  0  0  0  0  0
   -4.1101    1.5229   -1.8059 H   0  0  0  0  0  0  0  0  0  0  0  0
   -6.6013   -0.9751   -0.1914 H   0  0  0  0  0  0  0  0  0  0  0  0
   -7.0937    0.3831    0.8304 H   0  0  0  0  0  0  0  0  0  0  0  0
   -6.7044    1.8044   -0.9689 H   0  0  0  0  0  0  0  0  0  0  0  0
   -6.1757    0.4097   -1.9238 H   0  0  0  0  0  0  0  0  0  0  0  0
    1.3924   -2.6941    0.2625 H   0  0  0  0  0  0  0  0  0  0  0  0
    1.1755   -1.1858    1.1209 H   0  0  0  0  0  0  0  0  0  0  0  0
   -0.5229    2.8010   -2.1208 H   0  0  0  0  0  0  0  0  0  0  0  0
   -0.0145    4.2528   -1.2786 H   0  0  0  0  0  0  0  0  0  0  0  0
    1.1802    3.0288   -1.6363 H   0  0  0  0  0  0  0  0  0  0  0  0
    1.8726    2.6725    0.8039 H   0  0  0  0  0  0  0  0  0  0  0  0
    0.6210    2.5739    2.0542 H   0  0  0  0  0  0  0  0  0  0  0  0
    0.8687    4.0795    1.1647 H   0  0  0  0  0  0  0  0  0  0  0  0
   -4.7386   -2.2303    0.8165 H   0  0  0  0  0  0  0  0  0  0  0  0
   -3.8040   -1.4905    2.1328 H   0  0  0  0  0  0  0  0  0  0  0  0
    0.1542   -3.0794   -2.7613 H   0  0  0  0  0  0  0  0  0  0  0  0
   -1.4692   -3.3110   -2.1100 H   0  0  0  0  0  0  0  0  0  0  0  0
   -0.0687   -3.7138   -1.1167 H   0  0  0  0  0  0  0  0  0  0  0  0
   -5.6423   -2.5832    2.8661 H   0  0  0  0  0  0  0  0  0  0  0  0
    6.8583   -0.1638    1.4779 H   0  0  0  0  0  0  0  0  0  0  0  0
    5.5386    0.3245    2.5315 H   0  0  0  0  0  0  0  0  0  0  0  0
    6.5443    2.3016    1.4995 H   0  0  0  0  0  0  0  0  0  0  0  0
    4.8851    2.1306    0.9244 H   0  0  0  0  0  0  0  0  0  0  0  0
    6.4679    2.7344   -0.9053 H   0  0  0  0  0  0  0  0  0  0  0  0
    5.6960    1.1786   -1.2267 H   0  0  0  0  0  0  0  0  0  0  0  0
    7.3692    1.2343   -0.6341 H   0  0  0  0  0  0  0  0  0  0  0  0
  1 21  1  0  0  0  0
  1 57  1  0  0  0  0
  2 23  1  0  0  0  0
  2 24  1  0  0  0  0
  3  9  1  0  0  0  0
  3 12  1  0  0  0  0
  3 15  1  0  0  0  0
  4  5  1  0  0  0  0
  4 23  2  0  0  0  0
  5 24  2  0  0  0  0
  6  7  1  0  0  0  0
  6  8  1  0  0  0  0
  6 11  1  0  0  0  0
  6 28  1  0  0  0  0
  7  9  1  0  0  0  0
  7 13  1  0  0  0  0
  7 29  1  0  0  0  0
  8 10  1  0  0  0  0
  8 30  1  0  0  0  0
  8 31  1  0  0  0  0
  9 32  1  0  0  0  0
  9 33  1  0  0  0  0
 10 14  1  0  0  0  0
 10 18  1  0  0  0  0
 10 34  1  0  0  0  0
 11 19  1  0  0  0  0
 11 20  1  0  0  0  0
 11 35  1  0  0  0  0
 12 16  1  0  0  0  0
 12 21  1  0  0  0  0
 12 36  1  0  0  0  0
 13 14  2  0  0  0  0
 13 37  1  0  0  0  0
 14 22  1  0  0  0  0
 15 17  1  0  0  0  0
 15 38  1  0  0  0  0
 15 39  1  0  0  0  0
 16 17  1  0  0  0  0
 16 40  1  0  0  0  0
 16 41  1  0  0  0  0
 17 42  1  0  0  0  0
 17 43  1  0  0  0  0
 18 23  1  0  0  0  0
 18 44  1  0  0  0  0
 18 45  1  0  0  0  0
 19 46  1  0  0  0  0
 19 47  1  0  0  0  0
 19 48  1  0  0  0  0
 20 49  1  0  0  0  0
 20 50  1  0  0  0  0
 20 51  1  0  0  0  0
 21 52  1  0  0  0  0
 21 53  1  0  0  0  0
 22 54  1  0  0  0  0
 22 55  1  0  0  0  0
 22 56  1  0  0  0  0
 24 25  1  0  0  0  0
 25 26  1  0  0  0  0
 25 58  1  0  0  0  0
 25 59  1  0  0  0  0
 26 27  1  0  0  0  0
 26 60  1  0  0  0  0
 26 61  1  0  0  0  0
 27 62  1  0  0  0  0
 27 63  1  0  0  0  0
 27 64  1  0  0  0  0
M  END
> <PUBCHEM_COMPOUND_CID>
45784003

> <PUBCHEM_CONFORMER_RMSD>
1

> <PUBCHEM_CONFORMER_DIVERSEORDER>
1
10
66
71
78
90
44
49
70
48
88
14
81
74
61
28
30
40
32
16
86
23
17
91
93
92
82
27
75
36
69
94
7
46
65
53
80
76
38
87
5
20
43
85
67
29
72
57
47
68
52
63
77
79
19
24
31
33
21
3
34
41
59
26
39
62
60
35
73
45
83
9
58
8
55
13
64
89
22
18
51
37
6
4
54
50
12
2
15
42
25
11
56
84

> <PUBCHEM_MMFF94_PARTIAL_CHARGES>
20
1 -0.68
10 0.14
12 0.27
13 -0.29
14 -0.28
15 0.27
18 0.18
2 -0.28
21 0.28
22 0.14
23 0.3
24 0.3
25 0.18
3 -0.81
37 0.15
4 -0.34
5 -0.34
57 0.4
7 0.14
9 0.27

> <PUBCHEM_EFFECTIVE_ROTOR_COUNT>
9.8

> <PUBCHEM_PHARMACOPHORE_FEATURES>
8
1 1 acceptor
1 1 donor
1 27 hydrophobe
1 3 cation
3 11 19 20 hydrophobe
5 2 4 5 23 24 rings
5 3 12 15 16 17 rings
6 6 7 8 10 13 14 rings

> <PUBCHEM_HEAVY_ATOM_COUNT>
27

> <PUBCHEM_ATOM_DEF_STEREO_COUNT>
4

> <PUBCHEM_ATOM_UDEF_STEREO_COUNT>
0

> <PUBCHEM_BOND_DEF_STEREO_COUNT>
0

> <PUBCHEM_BOND_UDEF_STEREO_COUNT>
0

> <PUBCHEM_ISOTOPIC_ATOM_COUNT>
0

> <PUBCHEM_COMPONENT_COUNT>
1

> <PUBCHEM_CACTVS_TAUTO_COUNT>
1

> <PUBCHEM_CONFORMER_ID>
02BA9BC300000001

> <PUBCHEM_MMFF94_ENERGY>
38.7817

> <PUBCHEM_FEATURE_SELFOVERLAP>
40.596

> <PUBCHEM_SHAPE_FINGERPRINT>
10 15 18334571361005611442
10675989 125 16963778037195437797
10906281 52 18269285573395124693
1100329 8 18129371760476422048
11796584 16 17458349602786906531
12516196 113 18335419045789547097
12596602 18 17894909624894952520
13899415 154 18060419131710005256
14020679 6 18187642569592045314
14251751 18 17603591841699313291
14787075 74 18260826020903497602
14790565 3 18201434732019464240
14840074 17 18273491269157437789
14955137 171 18342745108618194831
15183329 4 7997972396724590074
15849732 13 18342451543556388165
17980427 23 17561074848023907605
19319366 153 18335409159118262506
20600515 1 17896334514987519941
21033648 29 17916565558750278673
21521239 73 11819283273334240393
23559900 14 17967813882058308037
394071 54 17846781849385469904
397830 11 18114185279987601931
5104073 3 18195522593645665762
8988823 20 14345801561136335454

> <PUBCHEM_SHAPE_MULTIPOLES>
528.97
15.5
3.1
1.62
1.37
0.8
0.38
0.78
6.34
1.59
-0.78
-1.26
-0.54
1.43

> <PUBCHEM_SHAPE_SELFOVERLAP>
1080.409

> <PUBCHEM_SHAPE_VOLUME>
308.3

> <PUBCHEM_COORDINATE_TYPE>
2
5
10

$$$$
