75367098
  -OEChem-12032416393D

 44 46  0     1  0  0  0  0  0999 V2000
    4.1319   -1.4299    0.0173 S   0  0  0  0  0  0  0  0  0  0  0  0
   -0.2317   -1.2167    1.3518 O   0  0  0  0  0  0  0  0  0  0  0  0
   -1.0339   -1.0178   -2.1443 O   0  0  0  0  0  0  0  0  0  0  0  0
    4.1558   -1.9254   -1.3457 O   0  0  0  0  0  0  0  0  0  0  0  0
    4.9482   -2.0604    1.0370 O   0  0  0  0  0  0  0  0  0  0  0  0
   -3.3296   -0.1093   -0.2000 N   0  0  0  0  0  0  0  0  0  0  0  0
    2.5221   -1.3585    0.5629 N   0  0  0  0  0  0  0  0  0  0  0  0
   -5.9604    1.2625    0.9251 N   0  0  0  0  0  0  0  0  0  0  0  0
   -6.6941    0.0227   -0.7651 N   0  0  0  0  0  0  0  0  0  0  0  0
   -2.1776   -0.9704    0.0121 C   0  0  1  0  0  0  0  0  0  0  0  0
   -0.9615   -0.5725   -0.8038 C   0  0  1  0  0  0  0  0  0  0  0  0
    0.1503   -1.2713   -0.0328 C   0  0  1  0  0  0  0  0  0  0  0  0
   -1.6301   -0.8883    1.4276 C   0  0  0  0  0  0  0  0  0  0  0  0
    1.5094   -0.6197   -0.2163 C   0  0  0  0  0  0  0  0  0  0  0  0
   -4.5443   -0.7172    0.3298 C   0  0  0  0  0  0  0  0  0  0  0  0
   -5.7459    0.1684    0.1338 C   0  0  0  0  0  0  0  0  0  0  0  0
    4.5785    0.2802   -0.0168 C   0  0  0  0  0  0  0  0  0  0  0  0
    5.1384    0.8772    1.1126 C   0  0  0  0  0  0  0  0  0  0  0  0
    4.3673    1.0333   -1.1717 C   0  0  0  0  0  0  0  0  0  0  0  0
   -7.1190    1.8521    0.5040 C   0  0  0  0  0  0  0  0  0  0  0  0
   -7.5532    1.0691   -0.5396 C   0  0  0  0  0  0  0  0  0  0  0  0
    5.4873    2.2276    1.0872 C   0  0  0  0  0  0  0  0  0  0  0  0
    4.7161    2.3835   -1.1972 C   0  0  0  0  0  0  0  0  0  0  0  0
    5.2761    2.9808   -0.0678 C   0  0  0  0  0  0  0  0  0  0  0  0
   -2.4301   -2.0103   -0.2393 H   0  0  0  0  0  0  0  0  0  0  0  0
   -0.8221    0.5157   -0.7998 H   0  0  0  0  0  0  0  0  0  0  0  0
    0.2140   -2.3310   -0.3133 H   0  0  0  0  0  0  0  0  0  0  0  0
   -1.7017    0.1231    1.8441 H   0  0  0  0  0  0  0  0  0  0  0  0
   -2.1277   -1.5799    2.1141 H   0  0  0  0  0  0  0  0  0  0  0  0
    1.4898    0.4107    0.1559 H   0  0  0  0  0  0  0  0  0  0  0  0
    1.7708   -0.6123   -1.2787 H   0  0  0  0  0  0  0  0  0  0  0  0
   -3.4487    0.0484   -1.2011 H   0  0  0  0  0  0  0  0  0  0  0  0
    2.3444   -1.4285    1.5727 H   0  0  0  0  0  0  0  0  0  0  0  0
   -4.4422   -0.9221    1.4025 H   0  0  0  0  0  0  0  0  0  0  0  0
   -4.7420   -1.6739   -0.1696 H   0  0  0  0  0  0  0  0  0  0  0  0
   -1.1579   -1.9820   -2.1399 H   0  0  0  0  0  0  0  0  0  0  0  0
   -5.3707    1.5794    1.6832 H   0  0  0  0  0  0  0  0  0  0  0  0
    5.3043    0.3119    2.0252 H   0  0  0  0  0  0  0  0  0  0  0  0
    3.9300    0.5897   -2.0615 H   0  0  0  0  0  0  0  0  0  0  0  0
   -7.5134    2.7434    0.9699 H   0  0  0  0  0  0  0  0  0  0  0  0
   -8.4406    1.2057   -1.1402 H   0  0  0  0  0  0  0  0  0  0  0  0
    5.9214    2.6933    1.9671 H   0  0  0  0  0  0  0  0  0  0  0  0
    4.5508    2.9703   -2.0961 H   0  0  0  0  0  0  0  0  0  0  0  0
    5.5469    4.0324   -0.0875 H   0  0  0  0  0  0  0  0  0  0  0  0
  1  4  2  0  0  0  0
  1  5  2  0  0  0  0
  1  7  1  0  0  0  0
  1 17  1  0  0  0  0
  2 12  1  0  0  0  0
  2 13  1  0  0  0  0
  3 11  1  0  0  0  0
  3 36  1  0  0  0  0
  6 10  1  0  0  0  0
  6 15  1  0  0  0  0
  6 32  1  0  0  0  0
  7 14  1  0  0  0  0
  7 33  1  0  0  0  0
  8 16  1  0  0  0  0
  8 20  1  0  0  0  0
  8 37  1  0  0  0  0
  9 16  2  0  0  0  0
  9 21  1  0  0  0  0
 10 11  1  0  0  0  0
 10 13  1  0  0  0  0
 10 25  1  0  0  0  0
 11 12  1  0  0  0  0
 11 26  1  0  0  0  0
 12 14  1  0  0  0  0
 12 27  1  0  0  0  0
 13 28  1  0  0  0  0
 13 29  1  0  0  0  0
 14 30  1  0  0  0  0
 14 31  1  0  0  0  0
 15 16  1  0  0  0  0
 15 34  1  0  0  0  0
 15 35  1  0  0  0  0
 17 18  2  0  0  0  0
 17 19  1  0  0  0  0
 18 22  1  0  0  0  0
 18 38  1  0  0  0  0
 19 23  2  0  0  0  0
 19 39  1  0  0  0  0
 20 21  2  0  0  0  0
 20 40  1  0  0  0  0
 21 41  1  0  0  0  0
 22 24  2  0  0  0  0
 22 42  1  0  0  0  0
 23 24  1  0  0  0  0
 23 43  1  0  0  0  0
 24 44  1  0  0  0  0
M  END
> <PUBCHEM_COMPOUND_CID>
75367098

> <PUBCHEM_CONFORMER_RMSD>
1

> <PUBCHEM_CONFORMER_DIVERSEORDER>
1
62
56
47
2
31
125
101
21
16
90
38
40
53
76
149
34
133
29
25
57
142
94
129
50
68
88
85
58
96
44
42
54
121
116
123
150
118
148
111
14
43
147
100
98
36
134
46
143
86
32
26
97
104
137
8
51
132
10
15
127
92
95
81
138
89
145
117
87
136
93
65
60
22
64
41
13
126
24
140
5
109
66
112
74
105
19
27
103
39
99
119
23
72
79
49
33
135
6
144
12
114
30
67
48
91
35
17
120
55
20
75
131
78
84
70
102
115
113
71
122
45
9
139
52
124
7
4
3
141
110
107
130
77
82
83
63
61
69
146
59
11
128
18
73
106
108
80
37
28

> <PUBCHEM_MMFF94_PARTIAL_CHARGES>
35
1 1.45
10 0.27
11 0.28
12 0.28
13 0.28
14 0.36
15 0.45
16 0.01
17 -0.01
18 -0.15
19 -0.15
2 -0.56
20 -0.3
21 0.08
22 -0.15
23 -0.15
24 -0.15
3 -0.68
32 0.36
33 0.42
36 0.4
37 0.27
38 0.15
39 0.15
4 -0.65
40 0.15
41 0.15
42 0.15
43 0.15
44 0.15
5 -0.65
6 -0.9
7 -0.91
8 0.03
9 -0.57

> <PUBCHEM_EFFECTIVE_ROTOR_COUNT>
8

> <PUBCHEM_PHARMACOPHORE_FEATURES>
13
1 2 acceptor
1 3 acceptor
1 3 donor
1 4 acceptor
1 5 acceptor
1 6 cation
1 6 donor
1 7 donor
1 8 donor
3 8 9 16 cation
5 2 10 11 12 13 rings
5 8 9 16 20 21 rings
6 17 18 19 22 23 24 rings

> <PUBCHEM_HEAVY_ATOM_COUNT>
24

> <PUBCHEM_ATOM_DEF_STEREO_COUNT>
3

> <PUBCHEM_ATOM_UDEF_STEREO_COUNT>
0

> <PUBCHEM_BOND_DEF_STEREO_COUNT>
0

> <PUBCHEM_BOND_UDEF_STEREO_COUNT>
0

> <PUBCHEM_ISOTOPIC_ATOM_COUNT>
0

> <PUBCHEM_COMPONENT_COUNT>
1

> <PUBCHEM_CACTVS_TAUTO_COUNT>
1

> <PUBCHEM_CONFORMER_ID>
047E02BA00000001

> <PUBCHEM_MMFF94_ENERGY>
30.347

> <PUBCHEM_FEATURE_SELFOVERLAP>
65.992

> <PUBCHEM_SHAPE_FINGERPRINT>
10 15 16443068313634725845
10554248 39 17916859119759666223
11408170 132 13901360183708231545
11991303 11 16917061188168553975
125118 31 18335984186340280857
13167372 99 18410856512669735409
13533116 47 17895191039716338346
13782708 43 9367348115825783833
13878862 14 18337379492238839844
13955234 65 17895467012834902386
14251764 30 9223232931928922131
14347332 77 10879725255693007819
15183329 4 17275107228163335777
15348495 7 17240772817053742049
155225 6 17898579928085700540
15840311 113 18334579010690525429
18335252 114 18131073736516326572
19427546 62 18410575093633802542
1979834 28 15285351808706794002
20157964 124 18412827975583340058
20281389 69 18261392218195092301
20397935 70 8502655900680567100
21150785 3 16988840610001559319
21298829 104 18339643450999983892
21344244 181 11600004366709190205
21521239 73 11743836954658343365
21637258 2 8574433093552115241
21641784 216 16415490315689396401
21792934 111 16009014057072228487
220451 1 10881694498314138635
22122407 14 18339934787068385689
2215653 11 13470692567806542742
22224240 67 17385442116731576427
2303208 19 10807939241243256203
23081809 10 18273207600101337103
23559900 14 17168154446822902310
249057 25 17774729640771937699
2748736 6 18335979844012150705
2838139 119 18341891870911446185
328310 630 18201445766344030681
33382 64 8935003663535738493
33532 11 9295282842703244401
3472631 163 17917712461047347708
34797466 226 18272376347735662303
397830 11 17968390043088253539
44555599 121 18200038339667876889
465052 167 7853582309599445280
5104073 3 15647916949308840977
5718773 13 10951510171227490900
59682541 52 17131844139944678884
6328613 192 18342175566586507801
6898599 12 18058166313925644135
960060 61 12823026360879312400

> <PUBCHEM_SHAPE_MULTIPOLES>
454.36
20.68
2.54
1.34
28.55
1.21
0.2
13.91
-0.86
-4.11
-0.07
-0.7
-0.1
-0.34

> <PUBCHEM_SHAPE_SELFOVERLAP>
944.116

> <PUBCHEM_SHAPE_VOLUME>
259.8

> <PUBCHEM_COORDINATE_TYPE>
2
5
10

$$$$
