7144163
  -OEChem-12032416413D

 53 57  0     1  0  0  0  0  0999 V2000
    2.3962    2.0306    1.2899 S   0  0  0  0  0  0  0  0  0  0  0  0
   -1.2003   -2.4382   -0.4873 S   0  0  0  0  0  0  0  0  0  0  0  0
   -3.7146    0.2706    2.8514 O   0  0  0  0  0  0  0  0  0  0  0  0
   -3.8825   -1.3551   -2.1560 O   0  0  0  0  0  0  0  0  0  0  0  0
    1.9883   -4.4895    0.3738 O   0  0  0  0  0  0  0  0  0  0  0  0
   -0.0202   -4.3483    1.4281 O   0  0  0  0  0  0  0  0  0  0  0  0
   -2.3829    0.4078   -1.9542 N   0  0  0  0  0  0  0  0  0  0  0  0
   -2.3196    1.0840    1.1548 N   0  0  0  0  0  0  0  0  0  0  0  0
   -3.2503    2.4428   -0.8098 C   0  0  1  0  0  0  0  0  0  0  0  0
   -0.8505    1.9213   -0.7058 C   0  0  2  0  0  0  0  0  0  0  0  0
   -1.8604    3.0579   -0.8549 C   0  0  0  0  0  0  0  0  0  0  0  0
   -3.4342    1.4249   -1.9474 C   0  0  0  0  0  0  0  0  0  0  0  0
   -3.4554    1.8064    0.5654 C   0  0  0  0  0  0  0  0  0  0  0  0
   -1.0133    0.9329   -1.8796 C   0  0  0  0  0  0  0  0  0  0  0  0
   -1.0166    1.1898    0.6291 C   0  0  0  0  0  0  0  0  0  0  0  0
    0.0281    0.6288    1.2924 C   0  0  0  0  0  0  0  0  0  0  0  0
   -2.5997    0.3828    2.3412 C   0  0  0  0  0  0  0  0  0  0  0  0
   -2.7231   -0.9373   -2.0955 C   0  0  0  0  0  0  0  0  0  0  0  0
   -0.2231   -0.1056    2.5178 C   0  0  0  0  0  0  0  0  0  0  0  0
   -1.4477   -0.2486    3.0238 C   0  0  0  0  0  0  0  0  0  0  0  0
    1.4156    0.7298    0.7893 C   0  0  0  0  0  0  0  0  0  0  0  0
   -1.5813   -1.9194   -2.1667 C   0  0  0  0  0  0  0  0  0  0  0  0
    2.0765   -0.1139   -0.0709 C   0  0  0  0  0  0  0  0  0  0  0  0
    3.4239    0.3035   -0.3368 C   0  0  0  0  0  0  0  0  0  0  0  0
    3.7349    1.4792    0.3532 C   0  0  0  0  0  0  0  0  0  0  0  0
    4.4236   -0.2775   -1.1540 C   0  0  0  0  0  0  0  0  0  0  0  0
    5.0043    2.0810    0.2482 C   0  0  0  0  0  0  0  0  0  0  0  0
    0.1596   -3.5768   -0.8483 C   0  0  0  0  0  0  0  0  0  0  0  0
    5.6838    0.3170   -1.2604 C   0  0  0  0  0  0  0  0  0  0  0  0
    5.9688    1.4840   -0.5658 C   0  0  0  0  0  0  0  0  0  0  0  0
    0.6720   -4.1650    0.4348 C   0  0  0  0  0  0  0  0  0  0  0  0
   -4.0048    3.2278   -0.9434 H   0  0  0  0  0  0  0  0  0  0  0  0
    0.1438    2.3745   -0.7793 H   0  0  0  0  0  0  0  0  0  0  0  0
   -1.7356    3.7968   -0.0535 H   0  0  0  0  0  0  0  0  0  0  0  0
   -1.7064    3.5852   -1.8043 H   0  0  0  0  0  0  0  0  0  0  0  0
   -4.4239    0.9602   -1.8834 H   0  0  0  0  0  0  0  0  0  0  0  0
   -3.3837    1.9368   -2.9163 H   0  0  0  0  0  0  0  0  0  0  0  0
   -3.7018    2.6010    1.2836 H   0  0  0  0  0  0  0  0  0  0  0  0
   -4.3258    1.1379    0.5497 H   0  0  0  0  0  0  0  0  0  0  0  0
   -0.8220    1.4466   -2.8300 H   0  0  0  0  0  0  0  0  0  0  0  0
   -0.2651    0.1479   -1.7946 H   0  0  0  0  0  0  0  0  0  0  0  0
    0.6212   -0.5637    3.0246 H   0  0  0  0  0  0  0  0  0  0  0  0
   -1.6268   -0.8050    3.9360 H   0  0  0  0  0  0  0  0  0  0  0  0
   -0.7161   -1.5360   -2.7094 H   0  0  0  0  0  0  0  0  0  0  0  0
   -1.9337   -2.7910   -2.7305 H   0  0  0  0  0  0  0  0  0  0  0  0
    1.6305   -0.9980   -0.5022 H   0  0  0  0  0  0  0  0  0  0  0  0
    4.2150   -1.1918   -1.7042 H   0  0  0  0  0  0  0  0  0  0  0  0
    5.2363    2.9945    0.7883 H   0  0  0  0  0  0  0  0  0  0  0  0
    0.9637   -3.0310   -1.3484 H   0  0  0  0  0  0  0  0  0  0  0  0
   -0.1854   -4.3928   -1.4894 H   0  0  0  0  0  0  0  0  0  0  0  0
    6.4425   -0.1384   -1.8907 H   0  0  0  0  0  0  0  0  0  0  0  0
    6.9515    1.9392   -0.6548 H   0  0  0  0  0  0  0  0  0  0  0  0
    2.3089   -4.8779    1.2157 H   0  0  0  0  0  0  0  0  0  0  0  0
  1 21  1  0  0  0  0
  1 25  1  0  0  0  0
  2 22  1  0  0  0  0
  2 28  1  0  0  0  0
  3 17  2  0  0  0  0
  4 18  2  0  0  0  0
  5 31  1  0  0  0  0
  5 53  1  0  0  0  0
  6 31  2  0  0  0  0
  7 12  1  0  0  0  0
  7 14  1  0  0  0  0
  7 18  1  0  0  0  0
  8 13  1  0  0  0  0
  8 15  1  0  0  0  0
  8 17  1  0  0  0  0
  9 11  1  0  0  0  0
  9 12  1  0  0  0  0
  9 13  1  0  0  0  0
  9 32  1  0  0  0  0
 10 11  1  0  0  0  0
 10 14  1  0  0  0  0
 10 15  1  0  0  0  0
 10 33  1  0  0  0  0
 11 34  1  0  0  0  0
 11 35  1  0  0  0  0
 12 36  1  0  0  0  0
 12 37  1  0  0  0  0
 13 38  1  0  0  0  0
 13 39  1  0  0  0  0
 14 40  1  0  0  0  0
 14 41  1  0  0  0  0
 15 16  2  0  0  0  0
 16 19  1  0  0  0  0
 16 21  1  0  0  0  0
 17 20  1  0  0  0  0
 18 22  1  0  0  0  0
 19 20  2  0  0  0  0
 19 42  1  0  0  0  0
 20 43  1  0  0  0  0
 21 23  2  0  0  0  0
 22 44  1  0  0  0  0
 22 45  1  0  0  0  0
 23 24  1  0  0  0  0
 23 46  1  0  0  0  0
 24 25  1  0  0  0  0
 24 26  2  0  0  0  0
 25 27  2  0  0  0  0
 26 29  1  0  0  0  0
 26 47  1  0  0  0  0
 27 30  1  0  0  0  0
 27 48  1  0  0  0  0
 28 31  1  0  0  0  0
 28 49  1  0  0  0  0
 28 50  1  0  0  0  0
 29 30  2  0  0  0  0
 29 51  1  0  0  0  0
 30 52  1  0  0  0  0
M  END
> <PUBCHEM_COMPOUND_CID>
7144163

> <PUBCHEM_CONFORMER_RMSD>
1

> <PUBCHEM_CONFORMER_DIVERSEORDER>
1
25
18
26
13
6
24
27
23
21
11
15
3
12
20
9
16
4
7
10
2
14
22
19
8
5
17

> <PUBCHEM_MMFF94_PARTIAL_CHARGES>
36
1 -0.08
10 0.14
12 0.3
13 0.3
14 0.3
15 -0.03
16 0.05
17 0.62
18 0.57
19 -0.15
2 -0.46
20 -0.14
21 -0.01
22 0.29
23 -0.15
25 0.04
26 -0.15
27 -0.15
28 0.29
29 -0.15
3 -0.57
30 -0.15
31 0.66
4 -0.57
42 0.15
43 0.15
46 0.15
47 0.15
48 0.15
5 -0.65
51 0.15
52 0.15
53 0.5
6 -0.57
7 -0.66
8 -0.47

> <PUBCHEM_EFFECTIVE_ROTOR_COUNT>
7

> <PUBCHEM_PHARMACOPHORE_FEATURES>
10
1 3 acceptor
1 4 acceptor
1 5 acceptor
1 6 acceptor
3 5 6 31 anion
5 1 21 23 24 25 rings
6 24 25 26 27 29 30 rings
6 7 9 10 11 12 14 rings
6 8 15 16 17 19 20 rings
6 8 9 10 11 13 15 rings

> <PUBCHEM_HEAVY_ATOM_COUNT>
31

> <PUBCHEM_ATOM_DEF_STEREO_COUNT>
2

> <PUBCHEM_ATOM_UDEF_STEREO_COUNT>
0

> <PUBCHEM_BOND_DEF_STEREO_COUNT>
0

> <PUBCHEM_BOND_UDEF_STEREO_COUNT>
0

> <PUBCHEM_ISOTOPIC_ATOM_COUNT>
0

> <PUBCHEM_COMPONENT_COUNT>
1

> <PUBCHEM_CACTVS_TAUTO_COUNT>
1

> <PUBCHEM_CONFORMER_ID>
006D02E300000001

> <PUBCHEM_MMFF94_ENERGY>
79.7897

> <PUBCHEM_FEATURE_SELFOVERLAP>
52.43

> <PUBCHEM_SHAPE_FINGERPRINT>
107951 10 18412539916300400710
11578080 2 17176348943152908877
121448 382 18270104829663544456
13111901 51 18338497734788790754
13994607 96 17385438847217108589
14251740 79 18130784615864676958
14747281 78 17545060207404233085
15463212 79 18336812165739935628
20642791 178 17481410596554192077
21033648 29 18411420609870698112
23419403 2 17756170902724035403
3027735 51 18342733065614883918
3298306 158 18191318082914693466
35225 105 17414191136702857303
469060 322 18261684786640006967
5080951 261 18119242007827222074
54131252 152 18412268334178783628
59755656 520 17632312145857129753

> <PUBCHEM_SHAPE_MULTIPOLES>
612.23
8.83
4.42
2.74
13.65
6.87
-1.13
-5.35
3.3
-0.39
-0.14
-3.18
0.17
-0.14

> <PUBCHEM_SHAPE_SELFOVERLAP>
1314.31

> <PUBCHEM_SHAPE_VOLUME>
339

> <PUBCHEM_COORDINATE_TYPE>
2
5
10

$$$$
