45783542
  -OEChem-12032416263D

 56 59  0     1  0  0  0  0  0999 V2000
    1.0813    4.4098    0.6300 F   0  0  0  0  0  0  0  0  0  0  0  0
    0.6479    2.4847   -0.3090 F   0  0  0  0  0  0  0  0  0  0  0  0
    0.4400    4.3607   -1.4586 F   0  0  0  0  0  0  0  0  0  0  0  0
   -2.4628   -1.1286    2.0093 O   0  0  0  0  0  0  0  0  0  0  0  0
   -1.0745    3.9031    0.1934 O   0  0  0  0  0  0  0  0  0  0  0  0
    5.0092   -0.5351    0.7107 O   0  0  0  0  0  0  0  0  0  0  0  0
    7.6196   -1.2571   -1.7131 O   0  0  0  0  0  0  0  0  0  0  0  0
   -4.0047   -1.5691   -1.1175 N   0  0  1  0  0  0  0  0  0  0  0  0
   -1.1910   -1.7412    0.2703 N   0  0  0  0  0  0  0  0  0  0  0  0
   -1.1515   -0.7612    2.3372 N   0  0  0  0  0  0  0  0  0  0  0  0
    2.9794   -1.2654   -0.1442 N   0  0  0  0  0  0  0  0  0  0  0  0
   -3.7042   -2.1871    0.1895 C   0  0  1  0  0  0  0  0  0  0  0  0
   -3.7029   -3.7022   -0.0853 C   0  0  0  0  0  0  0  0  0  0  0  0
   -4.0720   -3.8401   -1.5555 C   0  0  0  0  0  0  0  0  0  0  0  0
   -4.7976   -2.5460   -1.8641 C   0  0  0  0  0  0  0  0  0  0  0  0
   -4.6835   -0.2847   -1.0030 C   0  0  0  0  0  0  0  0  0  0  0  0
   -2.3970   -1.6986    0.7776 C   0  0  0  0  0  0  0  0  0  0  0  0
   -3.7233    0.8304   -0.6844 C   0  0  0  0  0  0  0  0  0  0  0  0
   -3.8969    1.5922    0.4712 C   0  0  0  0  0  0  0  0  0  0  0  0
   -2.6596    1.1015   -1.5451 C   0  0  0  0  0  0  0  0  0  0  0  0
   -0.4610   -1.1547    1.2629 C   0  0  0  0  0  0  0  0  0  0  0  0
   -3.0069    2.6249    0.7660 C   0  0  0  0  0  0  0  0  0  0  0  0
   -1.7696    2.1343   -1.2504 C   0  0  0  0  0  0  0  0  0  0  0  0
    0.9581   -0.9784    1.1506 C   0  0  0  0  0  0  0  0  0  0  0  0
   -1.9434    2.8960   -0.0949 C   0  0  0  0  0  0  0  0  0  0  0  0
    1.6880   -0.3789    2.1710 C   0  0  0  0  0  0  0  0  0  0  0  0
    1.6447   -1.4005    0.0237 C   0  0  0  0  0  0  0  0  0  0  0  0
    3.0630   -0.2220    2.0350 C   0  0  0  0  0  0  0  0  0  0  0  0
    3.6556   -0.6781    0.8685 C   0  0  0  0  0  0  0  0  0  0  0  0
    0.2718    3.7800   -0.2516 C   0  0  0  0  0  0  0  0  0  0  0  0
    5.5664   -1.0202   -0.5052 C   0  0  0  0  0  0  0  0  0  0  0  0
    7.0593   -0.7539   -0.5063 C   0  0  0  0  0  0  0  0  0  0  0  0
    9.0180   -1.0146   -1.7786 C   0  0  0  0  0  0  0  0  0  0  0  0
   -4.5105   -1.9869    0.9092 H   0  0  0  0  0  0  0  0  0  0  0  0
   -2.7458   -4.1923    0.1234 H   0  0  0  0  0  0  0  0  0  0  0  0
   -4.4692   -4.1885    0.5309 H   0  0  0  0  0  0  0  0  0  0  0  0
   -4.6890   -4.7231   -1.7463 H   0  0  0  0  0  0  0  0  0  0  0  0
   -3.1615   -3.9223   -2.1621 H   0  0  0  0  0  0  0  0  0  0  0  0
   -5.8321   -2.5939   -1.5008 H   0  0  0  0  0  0  0  0  0  0  0  0
   -4.8062   -2.3361   -2.9381 H   0  0  0  0  0  0  0  0  0  0  0  0
   -5.1465   -0.0206   -1.9644 H   0  0  0  0  0  0  0  0  0  0  0  0
   -5.5092   -0.3242   -0.2806 H   0  0  0  0  0  0  0  0  0  0  0  0
   -4.7195    1.3906    1.1520 H   0  0  0  0  0  0  0  0  0  0  0  0
   -2.5191    0.5247   -2.4555 H   0  0  0  0  0  0  0  0  0  0  0  0
   -3.1463    3.2139    1.6684 H   0  0  0  0  0  0  0  0  0  0  0  0
   -0.9785    2.3363   -1.9663 H   0  0  0  0  0  0  0  0  0  0  0  0
    1.2179   -0.0225    3.0838 H   0  0  0  0  0  0  0  0  0  0  0  0
    1.1445   -1.8765   -0.8146 H   0  0  0  0  0  0  0  0  0  0  0  0
    3.6469    0.2437    2.8213 H   0  0  0  0  0  0  0  0  0  0  0  0
    5.3907   -2.0991   -0.6051 H   0  0  0  0  0  0  0  0  0  0  0  0
    5.1109   -0.5170   -1.3680 H   0  0  0  0  0  0  0  0  0  0  0  0
    7.2460    0.3237   -0.4223 H   0  0  0  0  0  0  0  0  0  0  0  0
    7.5272   -1.2409    0.3578 H   0  0  0  0  0  0  0  0  0  0  0  0
    9.3946   -1.4228   -2.7203 H   0  0  0  0  0  0  0  0  0  0  0  0
    9.5330   -1.5128   -0.9514 H   0  0  0  0  0  0  0  0  0  0  0  0
    9.2224    0.0602   -1.7575 H   0  0  0  0  0  0  0  0  0  0  0  0
  1 30  1  0  0  0  0
  2 30  1  0  0  0  0
  3 30  1  0  0  0  0
  4 10  1  0  0  0  0
  4 17  1  0  0  0  0
  5 25  1  0  0  0  0
  5 30  1  0  0  0  0
  6 29  1  0  0  0  0
  6 31  1  0  0  0  0
  7 32  1  0  0  0  0
  7 33  1  0  0  0  0
  8 12  1  0  0  0  0
  8 15  1  0  0  0  0
  8 16  1  0  0  0  0
  9 17  2  0  0  0  0
  9 21  1  0  0  0  0
 10 21  2  0  0  0  0
 11 27  1  0  0  0  0
 11 29  2  0  0  0  0
 12 13  1  0  0  0  0
 12 17  1  0  0  0  0
 12 34  1  0  0  0  0
 13 14  1  0  0  0  0
 13 35  1  0  0  0  0
 13 36  1  0  0  0  0
 14 15  1  0  0  0  0
 14 37  1  0  0  0  0
 14 38  1  0  0  0  0
 15 39  1  0  0  0  0
 15 40  1  0  0  0  0
 16 18  1  0  0  0  0
 16 41  1  0  0  0  0
 16 42  1  0  0  0  0
 18 19  2  0  0  0  0
 18 20  1  0  0  0  0
 19 22  1  0  0  0  0
 19 43  1  0  0  0  0
 20 23  2  0  0  0  0
 20 44  1  0  0  0  0
 21 24  1  0  0  0  0
 22 25  2  0  0  0  0
 22 45  1  0  0  0  0
 23 25  1  0  0  0  0
 23 46  1  0  0  0  0
 24 26  1  0  0  0  0
 24 27  2  0  0  0  0
 26 28  2  0  0  0  0
 26 47  1  0  0  0  0
 27 48  1  0  0  0  0
 28 29  1  0  0  0  0
 28 49  1  0  0  0  0
 31 32  1  0  0  0  0
 31 50  1  0  0  0  0
 31 51  1  0  0  0  0
 32 52  1  0  0  0  0
 32 53  1  0  0  0  0
 33 54  1  0  0  0  0
 33 55  1  0  0  0  0
 33 56  1  0  0  0  0
M  END
> <PUBCHEM_COMPOUND_CID>
45783542

> <PUBCHEM_CONFORMER_RMSD>
1

> <PUBCHEM_CONFORMER_DIVERSEORDER>
2
30
15
33
21
26
34
13
38
51
36
43
52
54
41
47
45
18
46
55
50
19
5
27
28
20
14
3
53
44
25
35
11
49
4
9
23
31
10
22
48
6
29
12
8
32
16
40
1
7
39
24
37
17
42

> <PUBCHEM_MMFF94_PARTIAL_CHARGES>
38
1 -0.34
10 -0.41
11 -0.62
12 0.45
15 0.27
16 0.41
17 0.3
18 -0.14
19 -0.15
2 -0.34
20 -0.15
21 0.46
22 -0.15
23 -0.15
24 0.05
25 0.08
26 -0.15
27 0.16
28 -0.15
29 0.39
3 -0.34
30 1.3
31 0.28
32 0.28
33 0.28
4 -0.02
43 0.15
44 0.15
45 0.15
46 0.15
47 0.15
48 0.15
49 0.15
5 -0.36
6 -0.36
7 -0.56
8 -0.81
9 -0.57

> <PUBCHEM_EFFECTIVE_ROTOR_COUNT>
11

> <PUBCHEM_PHARMACOPHORE_FEATURES>
8
1 5 acceptor
1 7 acceptor
1 8 cation
3 9 10 21 cation
5 4 9 10 17 21 rings
5 8 12 13 14 15 rings
6 11 24 26 27 28 29 rings
6 18 19 20 22 23 25 rings

> <PUBCHEM_HEAVY_ATOM_COUNT>
33

> <PUBCHEM_ATOM_DEF_STEREO_COUNT>
1

> <PUBCHEM_ATOM_UDEF_STEREO_COUNT>
0

> <PUBCHEM_BOND_DEF_STEREO_COUNT>
0

> <PUBCHEM_BOND_UDEF_STEREO_COUNT>
0

> <PUBCHEM_ISOTOPIC_ATOM_COUNT>
0

> <PUBCHEM_COMPONENT_COUNT>
1

> <PUBCHEM_CACTVS_TAUTO_COUNT>
1

> <PUBCHEM_CONFORMER_ID>
02BA99F600000002

> <PUBCHEM_MMFF94_ENERGY>
78.8366

> <PUBCHEM_FEATURE_SELFOVERLAP>
40.598

> <PUBCHEM_SHAPE_FINGERPRINT>
10454371 7 18336275548795619284
10670039 82 18333452019767206142
1100329 8 18336813261536974541
11477941 20 18408322203119113388
11513181 2 17908691070919831071
12788726 201 18116425947515263328
13757389 114 18268995293588004449
13761468 95 17826226290055618878
13782708 43 17989486325747002694
14117953 113 18342161281651953967
15183329 4 17894911781644456474
15876981 60 18334866021342023910
17492 54 17969205764736329353
17818456 19 17685178743658781507
20028762 73 15667604022985751211
21057603 43 18055639679640205075
255183 451 18051971721466158639
3610482 184 18042982986449253430
4280585 95 18191556784005868977
484985 159 14476950191105110703
5171179 24 18341048631302825456
531348 171 18268711619551368370
57527585 103 17170116099983010323
6608658 132 18260823761734758606

> <PUBCHEM_SHAPE_MULTIPOLES>
613.9
14.83
5.15
1.97
41.67
5.01
0.37
-11.82
-10.27
-6.06
-1.6
0.73
-0.65
-0.29

> <PUBCHEM_SHAPE_SELFOVERLAP>
1318.302

> <PUBCHEM_SHAPE_VOLUME>
342.5

> <PUBCHEM_COORDINATE_TYPE>
2
5
10

$$$$
