38027563
  -OEChem-12032416143D

 62 64  0     1  0  0  0  0  0999 V2000
    5.2370    1.3701   -2.0367 F   0  0  0  0  0  0  0  0  0  0  0  0
   -1.6896    3.4220   -0.7114 O   0  0  0  0  0  0  0  0  0  0  0  0
    0.9792   -3.1181    0.9950 O   0  0  0  0  0  0  0  0  0  0  0  0
   -3.1426    1.7030   -0.1062 N   0  0  0  0  0  0  0  0  0  0  0  0
    1.2262   -1.1212    2.1579 N   0  0  0  0  0  0  0  0  0  0  0  0
   -1.4187   -0.4324   -1.3357 C   0  0  1  0  0  0  0  0  0  0  0  0
   -2.9543   -0.2975   -1.4886 C   0  0  2  0  0  0  0  0  0  0  0  0
   -1.0392   -1.8810   -0.9927 C   0  0  0  0  0  0  0  0  0  0  0  0
   -1.7038   -2.3646    0.3100 C   0  0  2  0  0  0  0  0  0  0  0  0
   -0.6797    0.0114   -2.6020 C   0  0  0  0  0  0  0  0  0  0  0  0
   -3.3914    1.1697   -1.4087 C   0  0  0  0  0  0  0  0  0  0  0  0
   -3.1798   -2.0244    0.3490 C   0  0  0  0  0  0  0  0  0  0  0  0
   -2.1969    3.1778    1.5727 C   0  0  0  0  0  0  0  0  0  0  0  0
   -3.7232   -1.1078   -0.4715 C   0  0  0  0  0  0  0  0  0  0  0  0
   -0.9685    3.9023    2.0396 C   0  0  0  0  0  0  0  0  0  0  0  0
   -1.1970    2.4751    2.4433 C   0  0  0  0  0  0  0  0  0  0  0  0
   -0.9793   -1.8064    1.5399 C   0  0  0  0  0  0  0  0  0  0  0  0
   -2.3091    2.7893    0.1358 C   0  0  0  0  0  0  0  0  0  0  0  0
   -0.6743   -1.1104   -3.6355 C   0  0  0  0  0  0  0  0  0  0  0  0
    0.7438    0.4426   -2.2640 C   0  0  0  0  0  0  0  0  0  0  0  0
   -4.0269   -2.7957    1.3227 C   0  0  0  0  0  0  0  0  0  0  0  0
    0.5008   -2.1146    1.5165 C   0  0  0  0  0  0  0  0  0  0  0  0
    2.6647   -1.1545    2.2891 C   0  0  0  0  0  0  0  0  0  0  0  0
    3.3499   -0.4813    1.1352 C   0  0  0  0  0  0  0  0  0  0  0  0
    3.6991   -1.2193    0.0042 C   0  0  0  0  0  0  0  0  0  0  0  0
    3.6381    0.8822    1.1947 C   0  0  0  0  0  0  0  0  0  0  0  0
    4.3361   -0.5938   -1.0676 C   0  0  0  0  0  0  0  0  0  0  0  0
    4.2753    1.5078    0.1230 C   0  0  0  0  0  0  0  0  0  0  0  0
    4.6243    0.7698   -1.0082 C   0  0  0  0  0  0  0  0  0  0  0  0
   -1.0881    0.2026   -0.5046 H   0  0  0  0  0  0  0  0  0  0  0  0
   -3.2592   -0.6745   -2.4729 H   0  0  0  0  0  0  0  0  0  0  0  0
    0.0453   -2.0093   -0.9692 H   0  0  0  0  0  0  0  0  0  0  0  0
   -1.4048   -2.5626   -1.7727 H   0  0  0  0  0  0  0  0  0  0  0  0
   -1.6061   -3.4595    0.3210 H   0  0  0  0  0  0  0  0  0  0  0  0
   -1.1743    0.8805   -3.0477 H   0  0  0  0  0  0  0  0  0  0  0  0
   -4.4716    1.2521   -1.5802 H   0  0  0  0  0  0  0  0  0  0  0  0
   -2.9062    1.7842   -2.1718 H   0  0  0  0  0  0  0  0  0  0  0  0
   -3.1344    3.4653    2.0392 H   0  0  0  0  0  0  0  0  0  0  0  0
   -4.7975   -0.9382   -0.4318 H   0  0  0  0  0  0  0  0  0  0  0  0
   -1.0919    4.6659    2.7982 H   0  0  0  0  0  0  0  0  0  0  0  0
   -0.1653    4.0985    1.3401 H   0  0  0  0  0  0  0  0  0  0  0  0
   -0.5585    1.7223    1.9981 H   0  0  0  0  0  0  0  0  0  0  0  0
   -1.4731    2.2785    3.4719 H   0  0  0  0  0  0  0  0  0  0  0  0
   -1.3784   -2.2544    2.4582 H   0  0  0  0  0  0  0  0  0  0  0  0
   -1.1421   -0.7252    1.6189 H   0  0  0  0  0  0  0  0  0  0  0  0
   -3.6361    1.2938    0.6823 H   0  0  0  0  0  0  0  0  0  0  0  0
    0.0016   -1.9321   -3.3765 H   0  0  0  0  0  0  0  0  0  0  0  0
   -0.3093   -0.7158   -4.5919 H   0  0  0  0  0  0  0  0  0  0  0  0
   -1.6733   -1.5119   -3.8289 H   0  0  0  0  0  0  0  0  0  0  0  0
    1.3345   -0.3805   -1.8534 H   0  0  0  0  0  0  0  0  0  0  0  0
    0.7451    1.2598   -1.5346 H   0  0  0  0  0  0  0  0  0  0  0  0
    1.2592    0.8015   -3.1616 H   0  0  0  0  0  0  0  0  0  0  0  0
   -3.9240   -3.8714    1.1468 H   0  0  0  0  0  0  0  0  0  0  0  0
   -5.0898   -2.5475    1.2314 H   0  0  0  0  0  0  0  0  0  0  0  0
   -3.7263   -2.5800    2.3523 H   0  0  0  0  0  0  0  0  0  0  0  0
    0.7405   -0.3232    2.5563 H   0  0  0  0  0  0  0  0  0  0  0  0
    2.9987   -2.1952    2.3765 H   0  0  0  0  0  0  0  0  0  0  0  0
    2.9212   -0.6581    3.2318 H   0  0  0  0  0  0  0  0  0  0  0  0
    3.4827   -2.2824   -0.0556 H   0  0  0  0  0  0  0  0  0  0  0  0
    3.3690    1.4685    2.0693 H   0  0  0  0  0  0  0  0  0  0  0  0
    4.6075   -1.1679   -1.9485 H   0  0  0  0  0  0  0  0  0  0  0  0
    4.4992    2.5694    0.1685 H   0  0  0  0  0  0  0  0  0  0  0  0
  1 29  1  0  0  0  0
  2 18  2  0  0  0  0
  3 22  2  0  0  0  0
  4 11  1  0  0  0  0
  4 18  1  0  0  0  0
  4 46  1  0  0  0  0
  5 22  1  0  0  0  0
  5 23  1  0  0  0  0
  5 56  1  0  0  0  0
  6  7  1  0  0  0  0
  6  8  1  0  0  0  0
  6 10  1  0  0  0  0
  6 30  1  0  0  0  0
  7 11  1  0  0  0  0
  7 14  1  0  0  0  0
  7 31  1  0  0  0  0
  8  9  1  0  0  0  0
  8 32  1  0  0  0  0
  8 33  1  0  0  0  0
  9 12  1  0  0  0  0
  9 17  1  0  0  0  0
  9 34  1  0  0  0  0
 10 19  1  0  0  0  0
 10 20  1  0  0  0  0
 10 35  1  0  0  0  0
 11 36  1  0  0  0  0
 11 37  1  0  0  0  0
 12 14  2  0  0  0  0
 12 21  1  0  0  0  0
 13 15  1  0  0  0  0
 13 16  1  0  0  0  0
 13 18  1  0  0  0  0
 13 38  1  0  0  0  0
 14 39  1  0  0  0  0
 15 16  1  0  0  0  0
 15 40  1  0  0  0  0
 15 41  1  0  0  0  0
 16 42  1  0  0  0  0
 16 43  1  0  0  0  0
 17 22  1  0  0  0  0
 17 44  1  0  0  0  0
 17 45  1  0  0  0  0
 19 47  1  0  0  0  0
 19 48  1  0  0  0  0
 19 49  1  0  0  0  0
 20 50  1  0  0  0  0
 20 51  1  0  0  0  0
 20 52  1  0  0  0  0
 21 53  1  0  0  0  0
 21 54  1  0  0  0  0
 21 55  1  0  0  0  0
 23 24  1  0  0  0  0
 23 57  1  0  0  0  0
 23 58  1  0  0  0  0
 24 25  2  0  0  0  0
 24 26  1  0  0  0  0
 25 27  1  0  0  0  0
 25 59  1  0  0  0  0
 26 28  2  0  0  0  0
 26 60  1  0  0  0  0
 27 29  2  0  0  0  0
 27 61  1  0  0  0  0
 28 29  1  0  0  0  0
 28 62  1  0  0  0  0
M  END
> <PUBCHEM_COMPOUND_CID>
38027563

> <PUBCHEM_CONFORMER_RMSD>
1

> <PUBCHEM_CONFORMER_DIVERSEORDER>
1
70
91
94
108
128
26
2
105
76
73
33
92
97
138
78
131
60
49
50
62
87
116
95
53
130
111
122
30
42
140
64
90
86
85
28
3
37
148
6
45
72
83
142
12
146
147
24
101
125
57
137
129
114
48
29
126
93
84
135
133
36
74
40
134
100
68
106
143
25
144
67
136
54
58
80
99
46
124
65
77
104
17
63
56
22
113
32
71
66
13
98
8
121
123
7
27
20
119
118
52
81
149
15
79
51
110
9
31
88
109
115
82
5
120
55
102
145
89
127
139
10
47
39
59
43
112
75
69
44
141
103
41
4
61
96
23
11
35
117
38
16
132
150
21
19
107
34
14
18

> <PUBCHEM_MMFF94_PARTIAL_CHARGES>
36
1 -0.19
11 0.3
12 -0.28
13 -0.1
14 -0.29
15 -0.2
16 -0.2
17 0.06
18 0.63
2 -0.57
21 0.14
22 0.57
23 0.44
24 -0.14
25 -0.15
26 -0.15
27 -0.15
28 -0.15
29 0.19
3 -0.57
38 0.1
39 0.15
4 -0.73
40 0.1
41 0.1
42 0.1
43 0.1
46 0.37
5 -0.73
56 0.37
59 0.15
60 0.15
61 0.15
62 0.15
7 0.14
9 0.14

> <PUBCHEM_EFFECTIVE_ROTOR_COUNT>
11.4

> <PUBCHEM_PHARMACOPHORE_FEATURES>
7
1 2 acceptor
1 3 acceptor
1 4 donor
1 5 donor
3 10 19 20 hydrophobe
6 24 25 26 27 28 29 rings
6 6 7 8 9 12 14 rings

> <PUBCHEM_HEAVY_ATOM_COUNT>
29

> <PUBCHEM_ATOM_DEF_STEREO_COUNT>
3

> <PUBCHEM_ATOM_UDEF_STEREO_COUNT>
0

> <PUBCHEM_BOND_DEF_STEREO_COUNT>
0

> <PUBCHEM_BOND_UDEF_STEREO_COUNT>
0

> <PUBCHEM_ISOTOPIC_ATOM_COUNT>
0

> <PUBCHEM_COMPONENT_COUNT>
1

> <PUBCHEM_CACTVS_TAUTO_COUNT>
4

> <PUBCHEM_CONFORMER_ID>
0244412B00000001

> <PUBCHEM_MMFF94_ENERGY>
55.1503

> <PUBCHEM_FEATURE_SELFOVERLAP>
35.521

> <PUBCHEM_SHAPE_FINGERPRINT>
10708813 3 17894912927477012964
11578080 2 17201108927625616035
12156800 1 17398171166249737049
12539773 59 17838580454229300853
12596599 1 18187082806794494398
12788726 201 18411703218169356136
14279260 333 18268431240466181058
15664445 248 16764451284234975607
16067690 210 18271819999100086740
22907989 373 18342182141453379601
23419403 2 17251117044529817967
3459 83 18119532025689842218
35225 105 18269821052152210436
469060 322 16081946973517966784
50150288 127 17117263615102638904

> <PUBCHEM_SHAPE_MULTIPOLES>
567.83
8.37
4.2
3.09
9.34
3.98
-1.26
0.13
-1.39
-3.96
2.61
0.22
-0.48
-0.49

> <PUBCHEM_SHAPE_SELFOVERLAP>
1174.824

> <PUBCHEM_SHAPE_VOLUME>
326.5

> <PUBCHEM_COORDINATE_TYPE>
2
5
10

$$$$
