25390395
  -OEChem-12032416173D

 54 54  0     1  0  0  0  0  0999 V2000
    1.9228    0.0549   -0.5873 O   0  0  0  0  0  0  0  0  0  0  0  0
    4.3609    2.3689    0.6781 O   0  0  0  0  0  0  0  0  0  0  0  0
    4.8198    0.5766   -1.3580 O   0  0  0  0  0  0  0  0  0  0  0  0
   -0.2466    1.7035   -1.2480 O   0  0  0  0  0  0  0  0  0  0  0  0
   -0.0002   -1.3761    1.1180 O   0  0  0  0  0  0  0  0  0  0  0  0
    1.6245   -2.6888    0.1125 N   0  0  0  0  0  0  0  0  0  0  0  0
   -1.1402    2.5846    0.7079 N   0  0  0  0  0  0  0  0  0  0  0  0
   -0.5590   -3.2812   -0.0828 N   0  0  0  0  0  0  0  0  0  0  0  0
   -4.7082    1.7705    0.0179 N   0  0  0  0  0  0  0  0  0  0  0  0
    3.5950    1.1840    0.6325 C   0  0  2  0  0  0  0  0  0  0  0  0
    4.2604    0.0689   -0.1473 C   0  0  1  0  0  0  0  0  0  0  0  0
    2.3028    1.3698   -0.1446 C   0  0  2  0  0  0  0  0  0  0  0  0
    3.0736   -0.8172   -0.5094 C   0  0  1  0  0  0  0  0  0  0  0  0
    1.1831    1.9739    0.6840 C   0  0  0  0  0  0  0  0  0  0  0  0
    2.7816   -1.8809    0.5402 C   0  0  0  0  0  0  0  0  0  0  0  0
   -0.1257    2.0594   -0.0790 C   0  0  0  0  0  0  0  0  0  0  0  0
    0.3329   -2.3526    0.4478 C   0  0  0  0  0  0  0  0  0  0  0  0
   -2.4900    2.7778    0.2300 C   0  0  0  0  0  0  0  0  0  0  0  0
   -3.3451    1.5445    0.4810 C   0  0  0  0  0  0  0  0  0  0  0  0
   -1.9878   -3.1893    0.1043 C   0  0  0  0  0  0  0  0  0  0  0  0
   -2.6068   -4.5803    0.1462 C   0  0  0  0  0  0  0  0  0  0  0  0
   -2.6168   -2.3378   -0.9915 C   0  0  0  0  0  0  0  0  0  0  0  0
   -5.6379    0.8552    0.6829 C   0  0  0  0  0  0  0  0  0  0  0  0
   -4.7931    1.6117   -1.4352 C   0  0  0  0  0  0  0  0  0  0  0  0
    3.3887    0.8558    1.6583 H   0  0  0  0  0  0  0  0  0  0  0  0
    5.0577   -0.4347    0.4068 H   0  0  0  0  0  0  0  0  0  0  0  0
    2.4675    1.9866   -1.0379 H   0  0  0  0  0  0  0  0  0  0  0  0
    3.1944   -1.2821   -1.4949 H   0  0  0  0  0  0  0  0  0  0  0  0
    1.4591    2.9793    1.0218 H   0  0  0  0  0  0  0  0  0  0  0  0
    0.9970    1.3536    1.5699 H   0  0  0  0  0  0  0  0  0  0  0  0
    2.5431   -1.4371    1.5125 H   0  0  0  0  0  0  0  0  0  0  0  0
    3.6275   -2.5653    0.6551 H   0  0  0  0  0  0  0  0  0  0  0  0
    5.2166    2.1472    1.0830 H   0  0  0  0  0  0  0  0  0  0  0  0
    5.2011   -0.1770   -1.8403 H   0  0  0  0  0  0  0  0  0  0  0  0
    1.7965   -3.5130   -0.4546 H   0  0  0  0  0  0  0  0  0  0  0  0
   -0.9387    2.8421    1.6698 H   0  0  0  0  0  0  0  0  0  0  0  0
   -2.8955    3.6455    0.7623 H   0  0  0  0  0  0  0  0  0  0  0  0
   -2.4368    3.0292   -0.8338 H   0  0  0  0  0  0  0  0  0  0  0  0
   -2.8987    0.6522    0.0258 H   0  0  0  0  0  0  0  0  0  0  0  0
   -3.3391    1.3634    1.5647 H   0  0  0  0  0  0  0  0  0  0  0  0
   -0.1946   -4.0114   -0.6874 H   0  0  0  0  0  0  0  0  0  0  0  0
   -2.1737   -2.6988    1.0675 H   0  0  0  0  0  0  0  0  0  0  0  0
   -2.4417   -5.1188   -0.7938 H   0  0  0  0  0  0  0  0  0  0  0  0
   -2.1638   -5.1781    0.9503 H   0  0  0  0  0  0  0  0  0  0  0  0
   -3.6861   -4.5234    0.3216 H   0  0  0  0  0  0  0  0  0  0  0  0
   -2.4769   -2.7952   -1.9774 H   0  0  0  0  0  0  0  0  0  0  0  0
   -2.1601   -1.3435   -1.0273 H   0  0  0  0  0  0  0  0  0  0  0  0
   -3.6914   -2.2128   -0.8226 H   0  0  0  0  0  0  0  0  0  0  0  0
   -6.6655    1.0413    0.3514 H   0  0  0  0  0  0  0  0  0  0  0  0
   -5.3952   -0.1951    0.4840 H   0  0  0  0  0  0  0  0  0  0  0  0
   -5.6274    1.0140    1.7670 H   0  0  0  0  0  0  0  0  0  0  0  0
   -4.4919    0.6092   -1.7612 H   0  0  0  0  0  0  0  0  0  0  0  0
   -5.8208    1.7832   -1.7762 H   0  0  0  0  0  0  0  0  0  0  0  0
   -4.1762    2.3464   -1.9612 H   0  0  0  0  0  0  0  0  0  0  0  0
  1 12  1  0  0  0  0
  1 13  1  0  0  0  0
  2 10  1  0  0  0  0
  2 33  1  0  0  0  0
  3 11  1  0  0  0  0
  3 34  1  0  0  0  0
  4 16  2  0  0  0  0
  5 17  2  0  0  0  0
  6 15  1  0  0  0  0
  6 17  1  0  0  0  0
  6 35  1  0  0  0  0
  7 16  1  0  0  0  0
  7 18  1  0  0  0  0
  7 36  1  0  0  0  0
  8 17  1  0  0  0  0
  8 20  1  0  0  0  0
  8 41  1  0  0  0  0
  9 19  1  0  0  0  0
  9 23  1  0  0  0  0
  9 24  1  0  0  0  0
 10 11  1  0  0  0  0
 10 12  1  0  0  0  0
 10 25  1  0  0  0  0
 11 13  1  0  0  0  0
 11 26  1  0  0  0  0
 12 14  1  0  0  0  0
 12 27  1  0  0  0  0
 13 15  1  0  0  0  0
 13 28  1  0  0  0  0
 14 16  1  0  0  0  0
 14 29  1  0  0  0  0
 14 30  1  0  0  0  0
 15 31  1  0  0  0  0
 15 32  1  0  0  0  0
 18 19  1  0  0  0  0
 18 37  1  0  0  0  0
 18 38  1  0  0  0  0
 19 39  1  0  0  0  0
 19 40  1  0  0  0  0
 20 21  1  0  0  0  0
 20 22  1  0  0  0  0
 20 42  1  0  0  0  0
 21 43  1  0  0  0  0
 21 44  1  0  0  0  0
 21 45  1  0  0  0  0
 22 46  1  0  0  0  0
 22 47  1  0  0  0  0
 22 48  1  0  0  0  0
 23 49  1  0  0  0  0
 23 50  1  0  0  0  0
 23 51  1  0  0  0  0
 24 52  1  0  0  0  0
 24 53  1  0  0  0  0
 24 54  1  0  0  0  0
M  END
> <PUBCHEM_COMPOUND_CID>
25390395

> <PUBCHEM_CONFORMER_RMSD>
1.2

> <PUBCHEM_CONFORMER_DIVERSEORDER>
1
103
46
150
81
73
165
20
77
4
41
119
113
107
170
110
43
148
70
136
33
100
14
131
126
25
31
36
93
163
137
58
90
6
66
116
132
56
30
168
16
108
164
139
96
17
175
52
51
72
138
94
59
45
161
62
63
65
85
135
123
80
95
157
48
114
29
142
11
34
140
104
5
160
76
53
18
89
146
152
84
28
115
71
23
122
87
69
106
39
21
171
156
124
50
67
57
145
13
109
61
24
68
38
26
54
64
144
112
40
153
79
99
151
74
169
121
22
91
44
27
82
173
141
111
117
174
149
7
78
49
98
97
125
75
158
86
10
55
120
60
32
92
133
154
143
130
35
42
166
134
88
83
19
47
15
105
129
12
102
159
167
128
8
9
101
118
147
127
172
37
155
3
162
2

> <PUBCHEM_MMFF94_PARTIAL_CHARGES>
27
1 -0.56
10 0.28
11 0.28
12 0.28
13 0.28
14 0.06
15 0.3
16 0.57
17 0.69
18 0.3
19 0.27
2 -0.68
20 0.3
23 0.27
24 0.27
3 -0.68
33 0.4
34 0.4
35 0.37
36 0.37
4 -0.57
41 0.37
5 -0.57
6 -0.73
7 -0.73
8 -0.73
9 -0.81

> <PUBCHEM_EFFECTIVE_ROTOR_COUNT>
12

> <PUBCHEM_PHARMACOPHORE_FEATURES>
13
1 1 acceptor
1 2 acceptor
1 2 donor
1 3 acceptor
1 3 donor
1 4 acceptor
1 5 acceptor
1 6 donor
1 7 donor
1 8 donor
1 9 cation
3 20 21 22 hydrophobe
5 1 10 11 12 13 rings

> <PUBCHEM_HEAVY_ATOM_COUNT>
24

> <PUBCHEM_ATOM_DEF_STEREO_COUNT>
4

> <PUBCHEM_ATOM_UDEF_STEREO_COUNT>
0

> <PUBCHEM_BOND_DEF_STEREO_COUNT>
0

> <PUBCHEM_BOND_UDEF_STEREO_COUNT>
0

> <PUBCHEM_ISOTOPIC_ATOM_COUNT>
0

> <PUBCHEM_COMPONENT_COUNT>
1

> <PUBCHEM_CACTVS_TAUTO_COUNT>
6

> <PUBCHEM_CONFORMER_ID>
01836D3B00000001

> <PUBCHEM_MMFF94_ENERGY>
40.1645

> <PUBCHEM_FEATURE_SELFOVERLAP>
66.047

> <PUBCHEM_SHAPE_FINGERPRINT>
10064457 181 18410859824168784780
108634 29 18342745125787729158
1100329 8 18265889164570468586
11014199 57 17762062442450454939
11578080 2 16916203615990386250
116883 192 18051414264553433616
12293681 25 17630075718222001686
138480 1 17185878290293253811
14681490 219 17909812573376716599
14765038 42 18129962138602835505
14787075 74 18131345306481314177
14790565 3 18268714913880637065
14866123 147 18410570686643623794
14931854 50 18339909485921966775
15629462 23 16843908381934261648
17138139 8 17914301741981920773
19591789 44 18194684761099890323
20028762 73 17983847896184555863
21197605 99 18340211877410883867
21673915 165 18411418384676101049
23559900 14 17689705368848392209
3014063 31 18123183769544746439
3052486 1 18262798583349783504
33824 294 18337108960775658152
338550 245 18262806284416146909
6438718 38 18060129959940819271
653340 110 18125149700118338288

> <PUBCHEM_SHAPE_MULTIPOLES>
444.64
9.73
5.21
1.03
3.73
5.44
-0.22
-5.39
-0.93
4.19
0.49
0.2
-0.23
0.09

> <PUBCHEM_SHAPE_SELFOVERLAP>
875.052

> <PUBCHEM_SHAPE_VOLUME>
268

> <PUBCHEM_COORDINATE_TYPE>
2
5
10

$$$$
