11882070
  -OEChem-12032416353D

 65 68  0     1  0  0  0  0  0999 V2000
   -5.0111    4.0454    2.2581 S   0  0  0  0  0  0  0  0  0  0  0  0
    8.5334   -0.4451    1.2910 S   0  0  0  0  0  0  0  0  0  0  0  0
   -2.8692    0.0746   -1.8054 O   0  0  0  0  0  0  0  0  0  0  0  0
   -2.2601   -1.6293    1.3364 O   0  0  0  0  0  0  0  0  0  0  0  0
    2.2276    1.6092   -1.0916 O   0  0  0  0  0  0  0  0  0  0  0  0
   -1.3872    3.7203   -2.4090 O   0  0  0  0  0  0  0  0  0  0  0  0
   -1.2315   -1.7419   -0.7507 N   0  0  0  0  0  0  0  0  0  0  0  0
    1.6072   -0.5965   -1.3993 N   0  0  0  0  0  0  0  0  0  0  0  0
   -1.8554    1.7516   -0.5489 N   0  0  0  0  0  0  0  0  0  0  0  0
    3.7002   -0.1437   -0.5725 N   0  0  0  0  0  0  0  0  0  0  0  0
   -1.0075   -4.5055    0.3101 N   0  0  0  0  0  0  0  0  0  0  0  0
   -3.6566    3.8586   -2.7366 N   0  0  0  0  0  0  0  0  0  0  0  0
   -3.5946   -5.5763    0.4722 N   0  0  0  0  0  0  0  0  0  0  0  0
    0.2819   -0.3288   -1.9061 C   0  0  2  0  0  0  0  0  0  0  0  0
   -0.7559   -0.3631   -0.7842 C   0  0  1  0  0  0  0  0  0  0  0  0
   -0.1780   -1.4412   -2.8506 C   0  0  0  0  0  0  0  0  0  0  0  0
   -0.7655   -2.4916   -1.9168 C   0  0  0  0  0  0  0  0  0  0  0  0
   -1.9479    0.4877   -1.1060 C   0  0  0  0  0  0  0  0  0  0  0  0
   -1.8731   -2.2703    0.3620 C   0  0  0  0  0  0  0  0  0  0  0  0
   -2.8642    2.7706   -0.7288 C   0  0  1  0  0  0  0  0  0  0  0  0
    2.4996    0.4130   -1.0220 C   0  0  0  0  0  0  0  0  0  0  0  0
   -2.1015   -3.7211    0.3779 C   0  0  0  0  0  0  0  0  0  0  0  0
   -2.9147    3.7537    0.4471 C   0  0  0  0  0  0  0  0  0  0  0  0
   -2.5326    3.5044   -2.0201 C   0  0  0  0  0  0  0  0  0  0  0  0
   -3.3723   -4.2471    0.4574 C   0  0  0  0  0  0  0  0  0  0  0  0
   -3.6643    3.1928    1.6325 C   0  0  0  0  0  0  0  0  0  0  0  0
    4.8501    0.5344   -0.1051 C   0  0  0  0  0  0  0  0  0  0  0  0
   -3.4174    2.0316    2.3315 C   0  0  0  0  0  0  0  0  0  0  0  0
   -1.2299   -5.8347    0.3251 C   0  0  0  0  0  0  0  0  0  0  0  0
    5.9689   -0.1900    0.3064 C   0  0  0  0  0  0  0  0  0  0  0  0
   -2.5006   -6.3607    0.4046 C   0  0  0  0  0  0  0  0  0  0  0  0
    4.8651    1.9282   -0.0560 C   0  0  0  0  0  0  0  0  0  0  0  0
   -4.3465    1.8394    3.3945 C   0  0  0  0  0  0  0  0  0  0  0  0
   -5.2678    2.8608    3.4675 C   0  0  0  0  0  0  0  0  0  0  0  0
    7.1026    0.4796    0.7669 C   0  0  0  0  0  0  0  0  0  0  0  0
    5.9987    2.5979    0.4046 C   0  0  0  0  0  0  0  0  0  0  0  0
    7.1174    1.8736    0.8160 C   0  0  0  0  0  0  0  0  0  0  0  0
    7.8528   -1.4404    2.6478 C   0  0  0  0  0  0  0  0  0  0  0  0
    0.3010    0.6362   -2.4251 H   0  0  0  0  0  0  0  0  0  0  0  0
   -0.3496   -0.0949    0.1982 H   0  0  0  0  0  0  0  0  0  0  0  0
   -0.9672   -1.0607   -3.5106 H   0  0  0  0  0  0  0  0  0  0  0  0
    0.6194   -1.8468   -3.4810 H   0  0  0  0  0  0  0  0  0  0  0  0
    0.0157   -3.1878   -1.5962 H   0  0  0  0  0  0  0  0  0  0  0  0
   -1.5878   -3.0543   -2.3679 H   0  0  0  0  0  0  0  0  0  0  0  0
    1.8826   -1.5622   -1.2479 H   0  0  0  0  0  0  0  0  0  0  0  0
   -1.0057    2.0090   -0.0545 H   0  0  0  0  0  0  0  0  0  0  0  0
   -3.8336    2.2695   -0.8494 H   0  0  0  0  0  0  0  0  0  0  0  0
   -3.3847    4.6906    0.1201 H   0  0  0  0  0  0  0  0  0  0  0  0
   -1.8996    4.0214    0.7696 H   0  0  0  0  0  0  0  0  0  0  0  0
    3.7636   -1.1586   -0.5800 H   0  0  0  0  0  0  0  0  0  0  0  0
   -4.2573   -3.6239    0.5102 H   0  0  0  0  0  0  0  0  0  0  0  0
   -3.5759    4.3406   -3.6258 H   0  0  0  0  0  0  0  0  0  0  0  0
   -4.5975    3.6710   -2.4055 H   0  0  0  0  0  0  0  0  0  0  0  0
   -2.6083    1.3492    2.1070 H   0  0  0  0  0  0  0  0  0  0  0  0
   -0.3514   -6.4654    0.2703 H   0  0  0  0  0  0  0  0  0  0  0  0
    5.9504   -1.2768    0.2573 H   0  0  0  0  0  0  0  0  0  0  0  0
    4.0397    2.5579   -0.3563 H   0  0  0  0  0  0  0  0  0  0  0  0
   -2.6785   -7.4289    0.4162 H   0  0  0  0  0  0  0  0  0  0  0  0
   -4.3382    0.9957    4.0722 H   0  0  0  0  0  0  0  0  0  0  0  0
   -6.0790    2.9682    4.1737 H   0  0  0  0  0  0  0  0  0  0  0  0
    6.0114    3.6834    0.4433 H   0  0  0  0  0  0  0  0  0  0  0  0
    7.9917    2.4129    1.1719 H   0  0  0  0  0  0  0  0  0  0  0  0
    8.6641   -1.9957    3.1257 H   0  0  0  0  0  0  0  0  0  0  0  0
    7.1174   -2.1563    2.2723 H   0  0  0  0  0  0  0  0  0  0  0  0
    7.3837   -0.7945    3.3950 H   0  0  0  0  0  0  0  0  0  0  0  0
  1 26  1  0  0  0  0
  1 34  1  0  0  0  0
  2 35  1  0  0  0  0
  2 38  1  0  0  0  0
  3 18  2  0  0  0  0
  4 19  2  0  0  0  0
  5 21  2  0  0  0  0
  6 24  2  0  0  0  0
  7 15  1  0  0  0  0
  7 17  1  0  0  0  0
  7 19  1  0  0  0  0
  8 14  1  0  0  0  0
  8 21  1  0  0  0  0
  8 45  1  0  0  0  0
  9 18  1  0  0  0  0
  9 20  1  0  0  0  0
  9 46  1  0  0  0  0
 10 21  1  0  0  0  0
 10 27  1  0  0  0  0
 10 50  1  0  0  0  0
 11 22  2  0  0  0  0
 11 29  1  0  0  0  0
 12 24  1  0  0  0  0
 12 52  1  0  0  0  0
 12 53  1  0  0  0  0
 13 25  2  0  0  0  0
 13 31  1  0  0  0  0
 14 15  1  0  0  0  0
 14 16  1  0  0  0  0
 14 39  1  0  0  0  0
 15 18  1  0  0  0  0
 15 40  1  0  0  0  0
 16 17  1  0  0  0  0
 16 41  1  0  0  0  0
 16 42  1  0  0  0  0
 17 43  1  0  0  0  0
 17 44  1  0  0  0  0
 19 22  1  0  0  0  0
 20 23  1  0  0  0  0
 20 24  1  0  0  0  0
 20 47  1  0  0  0  0
 22 25  1  0  0  0  0
 23 26  1  0  0  0  0
 23 48  1  0  0  0  0
 23 49  1  0  0  0  0
 25 51  1  0  0  0  0
 26 28  2  0  0  0  0
 27 30  2  0  0  0  0
 27 32  1  0  0  0  0
 28 33  1  0  0  0  0
 28 54  1  0  0  0  0
 29 31  2  0  0  0  0
 29 55  1  0  0  0  0
 30 35  1  0  0  0  0
 30 56  1  0  0  0  0
 31 58  1  0  0  0  0
 32 36  2  0  0  0  0
 32 57  1  0  0  0  0
 33 34  2  0  0  0  0
 33 59  1  0  0  0  0
 34 60  1  0  0  0  0
 35 37  2  0  0  0  0
 36 37  1  0  0  0  0
 36 61  1  0  0  0  0
 37 62  1  0  0  0  0
 38 63  1  0  0  0  0
 38 64  1  0  0  0  0
 38 65  1  0  0  0  0
M  END
> <PUBCHEM_COMPOUND_CID>
11882070

> <PUBCHEM_CONFORMER_RMSD>
1.2

> <PUBCHEM_CONFORMER_DIVERSEORDER>
1
46
38
15
50
49
8
52
28
31
13
39
20
48
25
34
42
36
17
26
35
30
9
12
40
37
41
22
24
18
11
45
43
51
44
10
5
47
19
27
29
14
23
33
32
16
6
3
4
2
21
7

> <PUBCHEM_MMFF94_PARTIAL_CHARGES>
52
1 -0.08
10 -0.55
11 -0.62
12 -0.8
13 -0.62
14 0.3
15 0.36
17 0.3
18 0.57
19 0.54
2 -0.33
20 0.36
21 0.69
22 0.4
23 0.18
24 0.57
25 0.16
26 -0.14
27 0.12
28 -0.15
29 0.16
3 -0.57
30 -0.15
31 0.16
32 -0.15
33 -0.15
34 -0.11
35 0.1
36 -0.15
37 -0.15
38 0.23
4 -0.57
45 0.37
46 0.37
5 -0.57
50 0.37
51 0.15
52 0.37
53 0.37
54 0.15
55 0.15
56 0.15
57 0.15
58 0.15
59 0.15
6 -0.57
60 0.15
61 0.15
62 0.15
7 -0.66
8 -0.73
9 -0.73

> <PUBCHEM_EFFECTIVE_ROTOR_COUNT>
14

> <PUBCHEM_PHARMACOPHORE_FEATURES>
15
1 10 donor
1 11 acceptor
1 12 donor
1 13 acceptor
1 3 acceptor
1 38 hydrophobe
1 4 acceptor
1 5 acceptor
1 6 acceptor
1 8 donor
1 9 donor
5 1 26 28 33 34 rings
5 7 14 15 16 17 rings
6 11 13 22 25 29 31 rings
6 27 30 32 35 36 37 rings

> <PUBCHEM_HEAVY_ATOM_COUNT>
38

> <PUBCHEM_ATOM_DEF_STEREO_COUNT>
3

> <PUBCHEM_ATOM_UDEF_STEREO_COUNT>
0

> <PUBCHEM_BOND_DEF_STEREO_COUNT>
0

> <PUBCHEM_BOND_UDEF_STEREO_COUNT>
0

> <PUBCHEM_ISOTOPIC_ATOM_COUNT>
0

> <PUBCHEM_COMPONENT_COUNT>
1

> <PUBCHEM_CACTVS_TAUTO_COUNT>
12

> <PUBCHEM_CONFORMER_ID>
00B54E5600000001

> <PUBCHEM_MMFF94_ENERGY>
101.4958

> <PUBCHEM_FEATURE_SELFOVERLAP>
76.181

> <PUBCHEM_SHAPE_FINGERPRINT>
10074138 170 18338530715214785395
12608794 3 18336275599882234669
12988421 55 18268147556842182121
14068700 675 17680418150853388790
14150022 121 18198068177833833376
14565420 104 17984156863652895801
15513586 35 18124593339299584324
15950262 2 15263449451504268027
16114785 44 18272943725963896243
18393751 57 18338251357915940865
255183 313 18335998497123501081
3504750 166 18336543932169218562
4144715 1 18411414026070051964
5104073 3 18339067282028301768
56638632 10 17763196734486042999
6691757 9 18338228281040328196
6697151 62 17407396309816284351
7288768 16 18058460828375709169
9555976 147 18339643443021147500
9981440 41 17970339322506954069

> <PUBCHEM_SHAPE_MULTIPOLES>
731.38
16.98
8.63
3.08
49.17
14.22
-0.52
-12.94
-15.16
-17.07
-2.2
-3.84
-2.92
-1.97

> <PUBCHEM_SHAPE_SELFOVERLAP>
1534.538

> <PUBCHEM_SHAPE_VOLUME>
413.7

> <PUBCHEM_COORDINATE_TYPE>
2
5
10

$$$$
