45783618
  -OEChem-12032416203D

 63 66  0     1  0  0  0  0  0999 V2000
   -1.0231   -1.1246    2.8100 O   0  0  0  0  0  0  0  0  0  0  0  0
   -0.5332    1.3037   -2.7679 O   0  0  0  0  0  0  0  0  0  0  0  0
   -4.5805    1.0892   -0.2162 O   0  0  0  0  0  0  0  0  0  0  0  0
   -2.7619    2.5567   -1.7034 O   0  0  0  0  0  0  0  0  0  0  0  0
    4.4169    1.5547   -0.7191 O   0  0  0  0  0  0  0  0  0  0  0  0
    5.3031   -0.8001   -1.3996 O   0  0  0  0  0  0  0  0  0  0  0  0
   -0.6590   -3.2342   -0.1769 N   0  0  1  0  0  0  0  0  0  0  0  0
    0.2310   -0.6469    1.0167 N   0  0  0  0  0  0  0  0  0  0  0  0
   -0.6563    0.2211    2.9385 N   0  0  0  0  0  0  0  0  0  0  0  0
    2.5216    0.6924    0.3803 N   0  0  0  0  0  0  0  0  0  0  0  0
    2.4264    3.0337    0.5643 N   0  0  0  0  0  0  0  0  0  0  0  0
    0.6005    4.0951    1.7248 N   0  0  0  0  0  0  0  0  0  0  0  0
   -0.7116   -3.0055    1.2809 C   0  0  1  0  0  0  0  0  0  0  0  0
    0.3439   -3.9624    1.8653 C   0  0  0  0  0  0  0  0  0  0  0  0
    0.8915   -4.7286    0.6696 C   0  0  0  0  0  0  0  0  0  0  0  0
   -0.2119   -4.6148   -0.3628 C   0  0  0  0  0  0  0  0  0  0  0  0
   -1.9276   -2.9741   -0.8453 C   0  0  0  0  0  0  0  0  0  0  0  0
   -0.4593   -1.5594    1.6528 C   0  0  0  0  0  0  0  0  0  0  0  0
   -2.1497   -1.5025   -1.0733 C   0  0  0  0  0  0  0  0  0  0  0  0
   -3.2729   -0.8749   -0.5349 C   0  0  0  0  0  0  0  0  0  0  0  0
   -1.2319   -0.7667   -1.8230 C   0  0  0  0  0  0  0  0  0  0  0  0
    0.0813    0.4282    1.8435 C   0  0  0  0  0  0  0  0  0  0  0  0
   -1.4374    0.5967   -2.0342 C   0  0  0  0  0  0  0  0  0  0  0  0
   -3.4784    0.4886   -0.7460 C   0  0  0  0  0  0  0  0  0  0  0  0
   -2.5607    1.2243   -1.4958 C   0  0  0  0  0  0  0  0  0  0  0  0
    0.6834    1.6960    1.5472 C   0  0  0  0  0  0  0  0  0  0  0  0
    1.8610    1.8407    0.8427 C   0  0  0  0  0  0  0  0  0  0  0  0
    0.0912    2.8696    1.9676 C   0  0  0  0  0  0  0  0  0  0  0  0
    0.5870    0.5858   -3.2821 C   0  0  0  0  0  0  0  0  0  0  0  0
   -5.4681    0.2652    0.5372 C   0  0  0  0  0  0  0  0  0  0  0  0
   -2.2043    3.4522   -0.7441 C   0  0  0  0  0  0  0  0  0  0  0  0
    1.7530    4.1037    1.0283 C   0  0  0  0  0  0  0  0  0  0  0  0
    3.7131    0.6218   -0.3443 C   0  0  0  0  0  0  0  0  0  0  0  0
    4.0970   -0.8065   -0.6644 C   0  0  0  0  0  0  0  0  0  0  0  0
    5.7259   -2.1180   -1.7367 C   0  0  0  0  0  0  0  0  0  0  0  0
   -1.6893   -3.3020    1.6863 H   0  0  0  0  0  0  0  0  0  0  0  0
    1.1510   -3.4547    2.4046 H   0  0  0  0  0  0  0  0  0  0  0  0
   -0.1371   -4.6618    2.5600 H   0  0  0  0  0  0  0  0  0  0  0  0
    1.1295   -5.7672    0.9172 H   0  0  0  0  0  0  0  0  0  0  0  0
    1.8072   -4.2460    0.3056 H   0  0  0  0  0  0  0  0  0  0  0  0
    0.1645   -4.7937   -1.3748 H   0  0  0  0  0  0  0  0  0  0  0  0
   -1.0115   -5.3346   -0.1461 H   0  0  0  0  0  0  0  0  0  0  0  0
   -1.9252   -3.4377   -1.8420 H   0  0  0  0  0  0  0  0  0  0  0  0
   -2.7693   -3.4341   -0.3113 H   0  0  0  0  0  0  0  0  0  0  0  0
   -3.9509   -1.4957    0.0406 H   0  0  0  0  0  0  0  0  0  0  0  0
   -0.3810   -1.3077   -2.2232 H   0  0  0  0  0  0  0  0  0  0  0  0
   -0.8417    2.8833    2.5234 H   0  0  0  0  0  0  0  0  0  0  0  0
    1.2045    1.3037   -3.8319 H   0  0  0  0  0  0  0  0  0  0  0  0
    0.2792   -0.1832   -3.9988 H   0  0  0  0  0  0  0  0  0  0  0  0
    1.2117    0.1817   -2.4785 H   0  0  0  0  0  0  0  0  0  0  0  0
   -6.2861    0.9059    0.8830 H   0  0  0  0  0  0  0  0  0  0  0  0
   -4.9822   -0.1388    1.4320 H   0  0  0  0  0  0  0  0  0  0  0  0
   -5.9186   -0.5167   -0.0836 H   0  0  0  0  0  0  0  0  0  0  0  0
    2.0875   -0.1995    0.6002 H   0  0  0  0  0  0  0  0  0  0  0  0
   -2.5387    3.1995    0.2669 H   0  0  0  0  0  0  0  0  0  0  0  0
   -1.1124    3.4319   -0.8019 H   0  0  0  0  0  0  0  0  0  0  0  0
   -2.5458    4.4635   -0.9811 H   0  0  0  0  0  0  0  0  0  0  0  0
    2.1844    5.0748    0.8186 H   0  0  0  0  0  0  0  0  0  0  0  0
    3.2954   -1.2644   -1.2551 H   0  0  0  0  0  0  0  0  0  0  0  0
    4.2281   -1.3564    0.2743 H   0  0  0  0  0  0  0  0  0  0  0  0
    5.9085   -2.7037   -0.8306 H   0  0  0  0  0  0  0  0  0  0  0  0
    4.9748   -2.6116   -2.3609 H   0  0  0  0  0  0  0  0  0  0  0  0
    6.6589   -2.0455   -2.3017 H   0  0  0  0  0  0  0  0  0  0  0  0
  1  9  1  0  0  0  0
  1 18  1  0  0  0  0
  2 23  1  0  0  0  0
  2 29  1  0  0  0  0
  3 24  1  0  0  0  0
  3 30  1  0  0  0  0
  4 25  1  0  0  0  0
  4 31  1  0  0  0  0
  5 33  2  0  0  0  0
  6 34  1  0  0  0  0
  6 35  1  0  0  0  0
  7 13  1  0  0  0  0
  7 16  1  0  0  0  0
  7 17  1  0  0  0  0
  8 18  2  0  0  0  0
  8 22  1  0  0  0  0
  9 22  2  0  0  0  0
 10 27  1  0  0  0  0
 10 33  1  0  0  0  0
 10 54  1  0  0  0  0
 11 27  2  0  0  0  0
 11 32  1  0  0  0  0
 12 28  1  0  0  0  0
 12 32  2  0  0  0  0
 13 14  1  0  0  0  0
 13 18  1  0  0  0  0
 13 36  1  0  0  0  0
 14 15  1  0  0  0  0
 14 37  1  0  0  0  0
 14 38  1  0  0  0  0
 15 16  1  0  0  0  0
 15 39  1  0  0  0  0
 15 40  1  0  0  0  0
 16 41  1  0  0  0  0
 16 42  1  0  0  0  0
 17 19  1  0  0  0  0
 17 43  1  0  0  0  0
 17 44  1  0  0  0  0
 19 20  2  0  0  0  0
 19 21  1  0  0  0  0
 20 24  1  0  0  0  0
 20 45  1  0  0  0  0
 21 23  2  0  0  0  0
 21 46  1  0  0  0  0
 22 26  1  0  0  0  0
 23 25  1  0  0  0  0
 24 25  2  0  0  0  0
 26 27  1  0  0  0  0
 26 28  2  0  0  0  0
 28 47  1  0  0  0  0
 29 48  1  0  0  0  0
 29 49  1  0  0  0  0
 29 50  1  0  0  0  0
 30 51  1  0  0  0  0
 30 52  1  0  0  0  0
 30 53  1  0  0  0  0
 31 55  1  0  0  0  0
 31 56  1  0  0  0  0
 31 57  1  0  0  0  0
 32 58  1  0  0  0  0
 33 34  1  0  0  0  0
 34 59  1  0  0  0  0
 34 60  1  0  0  0  0
 35 61  1  0  0  0  0
 35 62  1  0  0  0  0
 35 63  1  0  0  0  0
M  END
> <PUBCHEM_COMPOUND_CID>
45783618

> <PUBCHEM_CONFORMER_RMSD>
1.2

> <PUBCHEM_CONFORMER_DIVERSEORDER>
3
22
4
28
1
30
20
12
17
9
38
15
31
37
5
24
2
10
14
13
33
25
21
34
16
11
18
8
27
35
7
32
29
6
23
26
36
19

> <PUBCHEM_MMFF94_PARTIAL_CHARGES>
38
1 -0.02
10 -0.55
11 -0.62
12 -0.62
13 0.45
16 0.27
17 0.41
18 0.3
19 -0.14
2 -0.36
20 -0.15
21 -0.15
22 0.46
23 0.08
24 0.08
25 0.08
26 0.05
27 0.43
28 0.16
29 0.28
3 -0.36
30 0.28
31 0.28
32 0.47
33 0.57
34 0.34
35 0.28
4 -0.36
45 0.15
46 0.15
47 0.15
5 -0.57
54 0.37
58 0.15
6 -0.56
7 -0.81
8 -0.57
9 -0.41

> <PUBCHEM_EFFECTIVE_ROTOR_COUNT>
12

> <PUBCHEM_PHARMACOPHORE_FEATURES>
13
1 10 donor
1 2 acceptor
1 3 acceptor
1 4 acceptor
1 5 acceptor
1 6 acceptor
1 7 cation
3 11 12 32 cation
3 8 9 22 cation
5 1 8 9 18 22 rings
5 7 13 14 15 16 rings
6 11 12 26 27 28 32 rings
6 19 20 21 23 24 25 rings

> <PUBCHEM_HEAVY_ATOM_COUNT>
35

> <PUBCHEM_ATOM_DEF_STEREO_COUNT>
1

> <PUBCHEM_ATOM_UDEF_STEREO_COUNT>
0

> <PUBCHEM_BOND_DEF_STEREO_COUNT>
0

> <PUBCHEM_BOND_UDEF_STEREO_COUNT>
0

> <PUBCHEM_ISOTOPIC_ATOM_COUNT>
0

> <PUBCHEM_COMPONENT_COUNT>
1

> <PUBCHEM_CACTVS_TAUTO_COUNT>
14

> <PUBCHEM_CONFORMER_ID>
02BA9A4200000003

> <PUBCHEM_MMFF94_ENERGY>
107.9843

> <PUBCHEM_FEATURE_SELFOVERLAP>
65.993

> <PUBCHEM_SHAPE_FINGERPRINT>
10165383 225 18334290972602898581
11578080 2 17903658601931419596
12156800 1 16691056271898703069
12788726 201 17914048690877390622
14659021 117 18271810052556410250
15210252 30 16171133455282918933
17809404 112 17845649391337645250
20465049 17 18341607106063107163
20600515 1 13884846694867296422
21987440 362 17177942153177973228
23557571 272 17108451213729853162
3027735 51 17984707706093275274
3380486 77 14692297308162877793
35225 105 17763514652254388260
3729539 64 18338524015108508270
3797600 57 14490456591403185913

> <PUBCHEM_SHAPE_MULTIPOLES>
655.18
7.31
6.01
2.86
4.93
2.73
0.25
-0.59
4.3
1.49
-2.5
0.05
-0.49
1.54

> <PUBCHEM_SHAPE_SELFOVERLAP>
1401.326

> <PUBCHEM_SHAPE_VOLUME>
363.6

> <PUBCHEM_COORDINATE_TYPE>
2
5
10

$$$$
