7164917
  -OEChem-12032416353D

 69 72  0     1  0  0  0  0  0999 V2000
    2.8637   -4.2170    1.4286 S   0  0  0  0  0  0  0  0  0  0  0  0
    0.4144    0.0923    1.1669 O   0  0  0  0  0  0  0  0  0  0  0  0
   -0.4312    3.7339   -0.2486 O   0  0  0  0  0  0  0  0  0  0  0  0
    2.9186   -1.8047   -0.6747 O   0  0  0  0  0  0  0  0  0  0  0  0
   -3.3742    0.9784   -1.6882 O   0  0  0  0  0  0  0  0  0  0  0  0
    1.2868    1.5483   -0.4263 N   0  0  0  0  0  0  0  0  0  0  0  0
    0.6056   -1.9417   -0.5897 N   0  0  0  0  0  0  0  0  0  0  0  0
   -2.0254   -0.6932   -0.8287 N   0  0  0  0  0  0  0  0  0  0  0  0
    0.2947    4.0608    1.9054 N   0  0  0  0  0  0  0  0  0  0  0  0
   -4.2009   -0.3713    0.0194 N   0  0  0  0  0  0  0  0  0  0  0  0
    4.0873    2.5750   -0.2434 C   0  0  0  0  0  0  0  0  0  0  0  0
    5.2451    3.4359   -0.7664 C   0  0  0  0  0  0  0  0  0  0  0  0
    4.4867    1.8485    1.0480 C   0  0  0  0  0  0  0  0  0  0  0  0
    2.8398    3.4274   -0.0191 C   0  0  0  0  0  0  0  0  0  0  0  0
    6.5202    2.6157   -0.9482 C   0  0  0  0  0  0  0  0  0  0  0  0
    5.7632    1.0309    0.8633 C   0  0  0  0  0  0  0  0  0  0  0  0
    6.9091    1.8881    0.3351 C   0  0  0  0  0  0  0  0  0  0  0  0
    1.6182    2.6385    0.4625 C   0  0  1  0  0  0  0  0  0  0  0  0
    0.4483   -0.5866   -1.1247 C   0  0  1  0  0  0  0  0  0  0  0  0
   -0.9292   -0.3476   -1.7392 C   0  0  0  0  0  0  0  0  0  0  0  0
    0.7114    0.3661    0.0069 C   0  0  0  0  0  0  0  0  0  0  0  0
   -0.6271   -2.7010   -0.3363 C   0  0  0  0  0  0  0  0  0  0  0  0
   -1.7901   -1.8135    0.0910 C   0  0  0  0  0  0  0  0  0  0  0  0
    0.3846    3.5132    0.6434 C   0  0  0  0  0  0  0  0  0  0  0  0
    1.9072   -2.4737   -0.4529 C   0  0  0  0  0  0  0  0  0  0  0  0
   -3.2309    0.0453   -0.8953 C   0  0  0  0  0  0  0  0  0  0  0  0
    2.0238   -3.8629   -0.0211 C   0  0  0  0  0  0  0  0  0  0  0  0
    1.5381   -5.0001   -0.6281 C   0  0  0  0  0  0  0  0  0  0  0  0
   -5.5020    0.1591    0.2030 C   0  0  0  0  0  0  0  0  0  0  0  0
    1.8595   -6.1777    0.1068 C   0  0  0  0  0  0  0  0  0  0  0  0
    2.5787   -5.8956    1.2473 C   0  0  0  0  0  0  0  0  0  0  0  0
   -6.3208   -0.3376    1.2174 C   0  0  0  0  0  0  0  0  0  0  0  0
   -5.9641    1.1782   -0.6299 C   0  0  0  0  0  0  0  0  0  0  0  0
   -7.6015    0.1846    1.3986 C   0  0  0  0  0  0  0  0  0  0  0  0
   -7.2447    1.7004   -0.4485 C   0  0  0  0  0  0  0  0  0  0  0  0
   -8.0633    1.2035    0.5658 C   0  0  0  0  0  0  0  0  0  0  0  0
    3.8692    1.8185   -1.0092 H   0  0  0  0  0  0  0  0  0  0  0  0
    5.4436    4.2594   -0.0683 H   0  0  0  0  0  0  0  0  0  0  0  0
    4.9698    3.8917   -1.7250 H   0  0  0  0  0  0  0  0  0  0  0  0
    4.6338    2.5739    1.8581 H   0  0  0  0  0  0  0  0  0  0  0  0
    3.7019    1.1575    1.3717 H   0  0  0  0  0  0  0  0  0  0  0  0
    3.0565    4.2269    0.7018 H   0  0  0  0  0  0  0  0  0  0  0  0
    2.5846    3.9358   -0.9591 H   0  0  0  0  0  0  0  0  0  0  0  0
    6.3717    1.8842   -1.7520 H   0  0  0  0  0  0  0  0  0  0  0  0
    7.3391    3.2727   -1.2618 H   0  0  0  0  0  0  0  0  0  0  0  0
    6.0522    0.5779    1.8184 H   0  0  0  0  0  0  0  0  0  0  0  0
    5.5709    0.2073    0.1644 H   0  0  0  0  0  0  0  0  0  0  0  0
    7.7865    1.2581    0.1506 H   0  0  0  0  0  0  0  0  0  0  0  0
    7.1970    2.6223    1.0976 H   0  0  0  0  0  0  0  0  0  0  0  0
    1.8325    2.2013    1.4450 H   0  0  0  0  0  0  0  0  0  0  0  0
    1.2131   -0.4412   -1.8982 H   0  0  0  0  0  0  0  0  0  0  0  0
    1.4098    1.7003   -1.4234 H   0  0  0  0  0  0  0  0  0  0  0  0
   -1.0575   -0.9801   -2.6264 H   0  0  0  0  0  0  0  0  0  0  0  0
   -1.0291    0.6930   -2.0669 H   0  0  0  0  0  0  0  0  0  0  0  0
   -0.8741   -3.2197   -1.2704 H   0  0  0  0  0  0  0  0  0  0  0  0
   -0.4607   -3.4564    0.4364 H   0  0  0  0  0  0  0  0  0  0  0  0
   -1.6264   -1.3940    1.0889 H   0  0  0  0  0  0  0  0  0  0  0  0
   -2.6859   -2.4411    0.1375 H   0  0  0  0  0  0  0  0  0  0  0  0
   -0.4771    4.6706    2.1539 H   0  0  0  0  0  0  0  0  0  0  0  0
    0.9863    3.8865    2.6275 H   0  0  0  0  0  0  0  0  0  0  0  0
   -3.9604   -1.0966    0.6853 H   0  0  0  0  0  0  0  0  0  0  0  0
    0.9846   -4.9972   -1.5585 H   0  0  0  0  0  0  0  0  0  0  0  0
    1.5791   -7.1808   -0.1871 H   0  0  0  0  0  0  0  0  0  0  0  0
    2.9508   -6.5951    1.9825 H   0  0  0  0  0  0  0  0  0  0  0  0
   -5.9733   -1.1315    1.8737 H   0  0  0  0  0  0  0  0  0  0  0  0
   -5.4029    1.6089   -1.4461 H   0  0  0  0  0  0  0  0  0  0  0  0
   -8.2391   -0.2022    2.1881 H   0  0  0  0  0  0  0  0  0  0  0  0
   -7.6073    2.4917   -1.0984 H   0  0  0  0  0  0  0  0  0  0  0  0
   -9.0608    1.6096    0.7063 H   0  0  0  0  0  0  0  0  0  0  0  0
  1 27  1  0  0  0  0
  1 31  1  0  0  0  0
  2 21  2  0  0  0  0
  3 24  2  0  0  0  0
  4 25  2  0  0  0  0
  5 26  2  0  0  0  0
  6 18  1  0  0  0  0
  6 21  1  0  0  0  0
  6 52  1  0  0  0  0
  7 19  1  0  0  0  0
  7 22  1  0  0  0  0
  7 25  1  0  0  0  0
  8 20  1  0  0  0  0
  8 23  1  0  0  0  0
  8 26  1  0  0  0  0
  9 24  1  0  0  0  0
  9 59  1  0  0  0  0
  9 60  1  0  0  0  0
 10 26  1  0  0  0  0
 10 29  1  0  0  0  0
 10 61  1  0  0  0  0
 11 12  1  0  0  0  0
 11 13  1  0  0  0  0
 11 14  1  0  0  0  0
 11 37  1  0  0  0  0
 12 15  1  0  0  0  0
 12 38  1  0  0  0  0
 12 39  1  0  0  0  0
 13 16  1  0  0  0  0
 13 40  1  0  0  0  0
 13 41  1  0  0  0  0
 14 18  1  0  0  0  0
 14 42  1  0  0  0  0
 14 43  1  0  0  0  0
 15 17  1  0  0  0  0
 15 44  1  0  0  0  0
 15 45  1  0  0  0  0
 16 17  1  0  0  0  0
 16 46  1  0  0  0  0
 16 47  1  0  0  0  0
 17 48  1  0  0  0  0
 17 49  1  0  0  0  0
 18 24  1  0  0  0  0
 18 50  1  0  0  0  0
 19 20  1  0  0  0  0
 19 21  1  0  0  0  0
 19 51  1  0  0  0  0
 20 53  1  0  0  0  0
 20 54  1  0  0  0  0
 22 23  1  0  0  0  0
 22 55  1  0  0  0  0
 22 56  1  0  0  0  0
 23 57  1  0  0  0  0
 23 58  1  0  0  0  0
 25 27  1  0  0  0  0
 27 28  2  0  0  0  0
 28 30  1  0  0  0  0
 28 62  1  0  0  0  0
 29 32  2  0  0  0  0
 29 33  1  0  0  0  0
 30 31  2  0  0  0  0
 30 63  1  0  0  0  0
 31 64  1  0  0  0  0
 32 34  1  0  0  0  0
 32 65  1  0  0  0  0
 33 35  2  0  0  0  0
 33 66  1  0  0  0  0
 34 36  2  0  0  0  0
 34 67  1  0  0  0  0
 35 36  1  0  0  0  0
 35 68  1  0  0  0  0
 36 69  1  0  0  0  0
M  END
> <PUBCHEM_COMPOUND_CID>
7164917

> <PUBCHEM_CONFORMER_RMSD>
1.2

> <PUBCHEM_CONFORMER_DIVERSEORDER>
1
12
45
68
55
70
3
31
79
20
67
21
80
27
77
58
53
74
62
11
33
66
78
23
64
36
73
14
26
7
81
38
52
25
46
63
75
51
4
48
28
56
35
41
2
59
57
71
69
76
61
6
5
43
47
32
44
72
54
42
65
9
37
18
19
39
17
29
13
60
49
16
40
15
50
10
8
24
30
34
22

> <PUBCHEM_MMFF94_PARTIAL_CHARGES>
41
1 -0.08
10 -0.55
18 0.36
19 0.36
2 -0.57
20 0.3
21 0.57
22 0.3
23 0.3
24 0.57
25 0.71
26 0.69
27 -0.05
28 -0.15
29 0.12
3 -0.57
30 -0.15
31 -0.11
32 -0.15
33 -0.15
34 -0.15
35 -0.15
36 -0.15
4 -0.57
5 -0.57
52 0.37
59 0.37
6 -0.73
60 0.37
61 0.37
62 0.15
63 0.15
64 0.15
65 0.15
66 0.15
67 0.15
68 0.15
69 0.15
7 -0.66
8 -0.66
9 -0.8

> <PUBCHEM_EFFECTIVE_ROTOR_COUNT>
13.4

> <PUBCHEM_PHARMACOPHORE_FEATURES>
11
1 10 donor
1 2 acceptor
1 3 acceptor
1 4 acceptor
1 5 acceptor
1 6 donor
1 9 donor
5 1 27 28 30 31 rings
6 11 12 13 15 16 17 rings
6 29 32 33 34 35 36 rings
6 7 8 19 20 22 23 rings

> <PUBCHEM_HEAVY_ATOM_COUNT>
36

> <PUBCHEM_ATOM_DEF_STEREO_COUNT>
2

> <PUBCHEM_ATOM_UDEF_STEREO_COUNT>
0

> <PUBCHEM_BOND_DEF_STEREO_COUNT>
0

> <PUBCHEM_BOND_UDEF_STEREO_COUNT>
0

> <PUBCHEM_ISOTOPIC_ATOM_COUNT>
0

> <PUBCHEM_COMPONENT_COUNT>
1

> <PUBCHEM_CACTVS_TAUTO_COUNT>
8

> <PUBCHEM_CONFORMER_ID>
006D53F500000001

> <PUBCHEM_MMFF94_ENERGY>
86.5774

> <PUBCHEM_FEATURE_SELFOVERLAP>
55.824

> <PUBCHEM_SHAPE_FINGERPRINT>
10675989 125 18341895225376122772
11135926 11 18410001148516040053
11136131 41 18337110064217951328
11763715 3 17546185003884399102
12660671 118 18057610871316489679
12677640 9 17980194515239820439
14028597 1 18060706073779209289
14150023 79 18410574019812337591
14394314 77 18196923582536082384
14400156 413 18192137218977517557
14400156 96 18335698330902981029
15351339 4 18201726119580351336
15890870 6 18410577327174591036
15927050 60 18341049730682759863
19319366 153 18412545431059377637
21033648 29 18197210575902144672
21927370 108 17833260927139204978
22889206 1 18259701185785470787
22956985 138 18120936097357714832
24180151 40 17987245442906605232
24893992 56 18129945715132990513
249999 5 18409450250109118543
3178227 256 18339650039485168929
3411729 13 18410012130546942471
3418910 222 17832140521181595938
4058900 60 18410300241490575730
5265222 85 18191026905269881452
5385378 56 18411136926520219109
6371380 46 18199747123568409200
6679774 75 18262783181924459498
79837 15 17834386100789931162

> <PUBCHEM_SHAPE_MULTIPOLES>
696.33
17.08
8.05
1.35
28.64
12.53
0.12
-15.85
3.27
-14.07
1.79
0.31
-0.03
-0.77

> <PUBCHEM_SHAPE_SELFOVERLAP>
1455.447

> <PUBCHEM_SHAPE_VOLUME>
392.1

> <PUBCHEM_COORDINATE_TYPE>
2
5
10

$$$$
