26742708
  -OEChem-12032416183D

 60 63  0     1  0  0  0  0  0999 V2000
   -5.2314    0.0366    1.0028 O   0  0  0  0  0  0  0  0  0  0  0  0
    1.6809   -0.9045    1.5869 O   0  0  0  0  0  0  0  0  0  0  0  0
    6.8880    1.2859   -0.0209 O   0  0  0  0  0  0  0  0  0  0  0  0
   -0.0043   -2.1448    0.5776 N   0  0  0  0  0  0  0  0  0  0  0  0
   -3.9815    0.2311   -0.9419 N   0  0  0  0  0  0  0  0  0  0  0  0
   -1.9856   -2.3344   -0.9162 C   0  0  2  0  0  0  0  0  0  0  0  0
   -2.8777   -2.4078    0.3454 C   0  0  1  0  0  0  0  0  0  0  0  0
   -2.2256   -1.6921    1.5430 C   0  0  0  0  0  0  0  0  0  0  0  0
   -0.5712   -2.8494   -0.5795 C   0  0  0  0  0  0  0  0  0  0  0  0
   -1.8963   -0.9454   -1.5763 C   0  0  0  0  0  0  0  0  0  0  0  0
   -4.3315   -1.9776    0.1113 C   0  0  0  0  0  0  0  0  0  0  0  0
   -0.8137   -2.2168    1.7940 C   0  0  0  0  0  0  0  0  0  0  0  0
   -3.2460   -0.4035   -2.0335 C   0  0  0  0  0  0  0  0  0  0  0  0
   -4.5624   -0.4783    0.1032 C   0  0  0  0  0  0  0  0  0  0  0  0
    1.2145   -1.4677    0.5933 C   0  0  0  0  0  0  0  0  0  0  0  0
   -4.0819    1.6841   -0.9818 C   0  0  0  0  0  0  0  0  0  0  0  0
    1.9868   -1.4364   -0.7013 C   0  0  0  0  0  0  0  0  0  0  0  0
   -2.9126    2.3467   -0.3126 C   0  0  0  0  0  0  0  0  0  0  0  0
    3.2862   -0.7151   -0.5233 C   0  0  0  0  0  0  0  0  0  0  0  0
   -2.9644    2.6421    1.0496 C   0  0  0  0  0  0  0  0  0  0  0  0
   -1.7745    2.6668   -1.0527 C   0  0  0  0  0  0  0  0  0  0  0  0
    3.3541    0.6624   -0.7333 C   0  0  0  0  0  0  0  0  0  0  0  0
    4.4289   -1.4200   -0.1449 C   0  0  0  0  0  0  0  0  0  0  0  0
   -1.8783    3.2577    1.6718 C   0  0  0  0  0  0  0  0  0  0  0  0
   -0.6883    3.2823   -0.4308 C   0  0  0  0  0  0  0  0  0  0  0  0
   -0.7402    3.5778    0.9316 C   0  0  0  0  0  0  0  0  0  0  0  0
    4.5646    1.3347   -0.5650 C   0  0  0  0  0  0  0  0  0  0  0  0
    5.6393   -0.7477    0.0234 C   0  0  0  0  0  0  0  0  0  0  0  0
    5.7073    0.6296   -0.1867 C   0  0  0  0  0  0  0  0  0  0  0  0
    8.0166    0.5037    0.3668 C   0  0  0  0  0  0  0  0  0  0  0  0
   -2.4070   -3.0206   -1.6642 H   0  0  0  0  0  0  0  0  0  0  0  0
   -2.9306   -3.4747    0.6115 H   0  0  0  0  0  0  0  0  0  0  0  0
   -2.8325   -1.8386    2.4441 H   0  0  0  0  0  0  0  0  0  0  0  0
   -2.1728   -0.6123    1.3629 H   0  0  0  0  0  0  0  0  0  0  0  0
   -0.6170   -3.9119   -0.3092 H   0  0  0  0  0  0  0  0  0  0  0  0
    0.0695   -2.7812   -1.4607 H   0  0  0  0  0  0  0  0  0  0  0  0
   -1.2583   -1.0385   -2.4650 H   0  0  0  0  0  0  0  0  0  0  0  0
   -1.3967   -0.2328   -0.9121 H   0  0  0  0  0  0  0  0  0  0  0  0
   -4.9459   -2.3848    0.9259 H   0  0  0  0  0  0  0  0  0  0  0  0
   -4.7336   -2.4176   -0.8077 H   0  0  0  0  0  0  0  0  0  0  0  0
   -0.3494   -1.6494    2.6067 H   0  0  0  0  0  0  0  0  0  0  0  0
   -0.8443   -3.2675    2.1056 H   0  0  0  0  0  0  0  0  0  0  0  0
   -3.0885    0.3301   -2.8322 H   0  0  0  0  0  0  0  0  0  0  0  0
   -3.8634   -1.1996   -2.4634 H   0  0  0  0  0  0  0  0  0  0  0  0
   -5.0062    1.9956   -0.4788 H   0  0  0  0  0  0  0  0  0  0  0  0
   -4.1885    2.0214   -2.0200 H   0  0  0  0  0  0  0  0  0  0  0  0
    1.3872   -0.9393   -1.4726 H   0  0  0  0  0  0  0  0  0  0  0  0
    2.1836   -2.4612   -1.0369 H   0  0  0  0  0  0  0  0  0  0  0  0
   -3.8445    2.4009    1.6393 H   0  0  0  0  0  0  0  0  0  0  0  0
   -1.7209    2.4433   -2.1148 H   0  0  0  0  0  0  0  0  0  0  0  0
    2.4702    1.2234   -1.0255 H   0  0  0  0  0  0  0  0  0  0  0  0
    4.3875   -2.4929    0.0239 H   0  0  0  0  0  0  0  0  0  0  0  0
   -1.9186    3.4877    2.7324 H   0  0  0  0  0  0  0  0  0  0  0  0
    0.1984    3.5303   -1.0067 H   0  0  0  0  0  0  0  0  0  0  0  0
    0.1059    4.0564    1.4160 H   0  0  0  0  0  0  0  0  0  0  0  0
    4.6111    2.4078   -0.7289 H   0  0  0  0  0  0  0  0  0  0  0  0
    6.4871   -1.3561    0.3190 H   0  0  0  0  0  0  0  0  0  0  0  0
    8.8689    1.1858    0.4517 H   0  0  0  0  0  0  0  0  0  0  0  0
    8.2748   -0.2368   -0.3978 H   0  0  0  0  0  0  0  0  0  0  0  0
    7.8717    0.0492    1.3527 H   0  0  0  0  0  0  0  0  0  0  0  0
  1 14  2  0  0  0  0
  2 15  2  0  0  0  0
  3 29  1  0  0  0  0
  3 30  1  0  0  0  0
  4  9  1  0  0  0  0
  4 12  1  0  0  0  0
  4 15  1  0  0  0  0
  5 13  1  0  0  0  0
  5 14  1  0  0  0  0
  5 16  1  0  0  0  0
  6  7  1  0  0  0  0
  6  9  1  0  0  0  0
  6 10  1  0  0  0  0
  6 31  1  0  0  0  0
  7  8  1  0  0  0  0
  7 11  1  0  0  0  0
  7 32  1  0  0  0  0
  8 12  1  0  0  0  0
  8 33  1  0  0  0  0
  8 34  1  0  0  0  0
  9 35  1  0  0  0  0
  9 36  1  0  0  0  0
 10 13  1  0  0  0  0
 10 37  1  0  0  0  0
 10 38  1  0  0  0  0
 11 14  1  0  0  0  0
 11 39  1  0  0  0  0
 11 40  1  0  0  0  0
 12 41  1  0  0  0  0
 12 42  1  0  0  0  0
 13 43  1  0  0  0  0
 13 44  1  0  0  0  0
 15 17  1  0  0  0  0
 16 18  1  0  0  0  0
 16 45  1  0  0  0  0
 16 46  1  0  0  0  0
 17 19  1  0  0  0  0
 17 47  1  0  0  0  0
 17 48  1  0  0  0  0
 18 20  2  0  0  0  0
 18 21  1  0  0  0  0
 19 22  2  0  0  0  0
 19 23  1  0  0  0  0
 20 24  1  0  0  0  0
 20 49  1  0  0  0  0
 21 25  2  0  0  0  0
 21 50  1  0  0  0  0
 22 27  1  0  0  0  0
 22 51  1  0  0  0  0
 23 28  2  0  0  0  0
 23 52  1  0  0  0  0
 24 26  2  0  0  0  0
 24 53  1  0  0  0  0
 25 26  1  0  0  0  0
 25 54  1  0  0  0  0
 26 55  1  0  0  0  0
 27 29  2  0  0  0  0
 27 56  1  0  0  0  0
 28 29  1  0  0  0  0
 28 57  1  0  0  0  0
 30 58  1  0  0  0  0
 30 59  1  0  0  0  0
 30 60  1  0  0  0  0
M  END
> <PUBCHEM_COMPOUND_CID>
26742708

> <PUBCHEM_CONFORMER_RMSD>
1

> <PUBCHEM_CONFORMER_DIVERSEORDER>
1
43
20
26
104
170
177
101
24
73
100
111
35
103
145
159
116
117
187
84
182
118
65
134
132
49
22
138
12
78
97
156
124
180
135
44
153
115
41
3
57
137
85
112
36
168
184
77
14
81
150
19
90
34
186
158
52
56
179
32
114
51
15
63
109
155
9
166
55
108
152
189
123
105
40
31
142
42
147
154
165
69
163
47
126
178
167
113
110
174
169
140
67
88
161
94
45
136
6
183
176
33
16
11
129
37
89
5
75
58
172
188
190
68
66
25
76
50
98
4
13
151
162
160
122
71
133
86
185
96
131
7
83
149
21
121
93
80
146
70
125
39
92
87
8
95
181
53
120
141
27
64
143
10
107
74
23
30
175
128
29
59
106
79
61
102
82
72
17
38
164
46
28
144
2
91
171
99
62
60
139
173
18
148
119
48
54
157
130
127

> <PUBCHEM_MMFF94_PARTIAL_CHARGES>
35
1 -0.57
11 0.06
12 0.3
13 0.3
14 0.57
15 0.57
16 0.44
17 0.2
18 -0.14
19 -0.14
2 -0.57
20 -0.15
21 -0.15
22 -0.15
23 -0.15
24 -0.15
25 -0.15
26 -0.15
27 -0.15
28 -0.15
29 0.08
3 -0.36
30 0.28
4 -0.66
49 0.15
5 -0.66
50 0.15
51 0.15
52 0.15
53 0.15
54 0.15
55 0.15
56 0.15
57 0.15
9 0.3

> <PUBCHEM_EFFECTIVE_ROTOR_COUNT>
7.6

> <PUBCHEM_PHARMACOPHORE_FEATURES>
7
1 1 acceptor
1 2 acceptor
1 3 acceptor
6 18 20 21 24 25 26 rings
6 19 22 23 27 28 29 rings
6 4 6 7 8 9 12 rings
7 5 6 7 10 11 13 14 rings

> <PUBCHEM_HEAVY_ATOM_COUNT>
30

> <PUBCHEM_ATOM_DEF_STEREO_COUNT>
2

> <PUBCHEM_ATOM_UDEF_STEREO_COUNT>
0

> <PUBCHEM_BOND_DEF_STEREO_COUNT>
0

> <PUBCHEM_BOND_UDEF_STEREO_COUNT>
0

> <PUBCHEM_ISOTOPIC_ATOM_COUNT>
0

> <PUBCHEM_COMPONENT_COUNT>
1

> <PUBCHEM_CACTVS_TAUTO_COUNT>
2

> <PUBCHEM_CONFORMER_ID>
01980FB400000001

> <PUBCHEM_MMFF94_ENERGY>
85.0767

> <PUBCHEM_FEATURE_SELFOVERLAP>
35.549

> <PUBCHEM_SHAPE_FINGERPRINT>
100830 39 18409728435931904844
10087517 78 18410008858208799524
10291535 26 18410013256018180802
10454371 7 18340778113330966908
10670039 82 18410566293376694576
10816530 145 18338529650131851707
11578080 2 15194182418315315857
12104220 1 18333444336318893764
12156800 1 17546505168089288513
12788726 201 18340478985009683680
13402501 40 18411981381531277724
13947920 24 18342737399173043352
14114206 34 18196908051285376853
14279260 333 18338231554185573222
14394314 77 18411984620427956969
14713325 29 18412550881653139123
14931854 50 18337941316852820869
15119646 57 17274553009493565681
15297060 5 18201441333135889009
15876981 60 18337670948577304151
17492 54 18262781996671493677
18336668 15 18040999582946356397
19930381 70 16826150551453688767
20764821 26 18268430324773029264
20775438 99 16760241353540418703
21236236 1 18411138031023302372
22956985 138 16961841234404453555
392239 28 18336274504353544937
469060 322 17022912237299169981
5047190 69 18340477968068110560
5171179 24 17986097741819672408
6299153 45 18042394748013204170
6700243 42 17483429643326249702
7226269 152 18334008432690407246

> <PUBCHEM_SHAPE_MULTIPOLES>
589.82
13.78
4.25
1.52
29.24
2.74
0.14
2.4
-0.53
-4.08
0.93
-1.4
-0.05
-0.22

> <PUBCHEM_SHAPE_SELFOVERLAP>
1256.635

> <PUBCHEM_SHAPE_VOLUME>
323.8

> <PUBCHEM_COORDINATE_TYPE>
2
5
10

$$$$
