11885153
  -OEChem-12032416233D

 56 60  0     1  0  0  0  0  0999 V2000
   -1.4572    2.3234   -0.4327 S   0  0  0  0  0  0  0  0  0  0  0  0
    0.1114   -2.4463   -1.1661 O   0  0  0  0  0  0  0  0  0  0  0  0
   -3.5269    1.1310   -2.7671 O   0  0  0  0  0  0  0  0  0  0  0  0
    0.3688    4.8530    1.8875 O   0  0  0  0  0  0  0  0  0  0  0  0
    1.1675    3.4808    0.2613 O   0  0  0  0  0  0  0  0  0  0  0  0
   -4.1242    0.2127   -0.7180 N   0  0  0  0  0  0  0  0  0  0  0  0
   -1.7293   -1.7424    0.0812 N   0  0  0  0  0  0  0  0  0  0  0  0
   -4.1390   -2.2818   -0.5957 C   0  0  1  0  0  0  0  0  0  0  0  0
   -3.7063   -0.9634    1.4341 C   0  0  2  0  0  0  0  0  0  0  0  0
   -4.4305   -2.1962    0.8975 C   0  0  0  0  0  0  0  0  0  0  0  0
   -4.6416   -1.0190   -1.3171 C   0  0  0  0  0  0  0  0  0  0  0  0
   -2.6344   -2.4989   -0.7950 C   0  0  0  0  0  0  0  0  0  0  0  0
   -4.2568    0.3001    0.7440 C   0  0  0  0  0  0  0  0  0  0  0  0
   -2.2102   -1.0644    1.2037 C   0  0  0  0  0  0  0  0  0  0  0  0
   -1.3530   -0.4814    2.0567 C   0  0  0  0  0  0  0  0  0  0  0  0
   -0.3528   -1.8288   -0.2059 C   0  0  0  0  0  0  0  0  0  0  0  0
   -3.6300    1.2245   -1.5413 C   0  0  0  0  0  0  0  0  0  0  0  0
    0.5809   -1.1340    0.7482 C   0  0  0  0  0  0  0  0  0  0  0  0
    0.0621   -0.5146    1.8190 C   0  0  0  0  0  0  0  0  0  0  0  0
   -3.1955    2.4977   -0.8603 C   0  0  0  0  0  0  0  0  0  0  0  0
    2.0361   -1.1207    0.5185 C   0  0  0  0  0  0  0  0  0  0  0  0
    2.6163   -0.0969   -0.2321 C   0  0  0  0  0  0  0  0  0  0  0  0
    2.8339   -2.1298    1.0510 C   0  0  0  0  0  0  0  0  0  0  0  0
    4.0019   -0.0704   -0.4595 C   0  0  0  0  0  0  0  0  0  0  0  0
    4.2124   -2.1192    0.8354 C   0  0  0  0  0  0  0  0  0  0  0  0
    4.8120   -1.0966    0.0823 C   0  0  0  0  0  0  0  0  0  0  0  0
   -1.1979    3.9367    0.3458 C   0  0  0  0  0  0  0  0  0  0  0  0
    4.6014    0.9525   -1.2122 C   0  0  0  0  0  0  0  0  0  0  0  0
    6.1977   -1.0700   -0.1451 C   0  0  0  0  0  0  0  0  0  0  0  0
    5.9797    0.9632   -1.4284 C   0  0  0  0  0  0  0  0  0  0  0  0
    0.2274    4.0454    0.8061 C   0  0  0  0  0  0  0  0  0  0  0  0
    6.7762   -0.0462   -0.8959 C   0  0  0  0  0  0  0  0  0  0  0  0
   -4.6695   -3.1409   -1.0249 H   0  0  0  0  0  0  0  0  0  0  0  0
   -3.9114   -0.8880    2.5100 H   0  0  0  0  0  0  0  0  0  0  0  0
   -4.0887   -3.1035    1.4112 H   0  0  0  0  0  0  0  0  0  0  0  0
   -5.5100   -2.1143    1.0733 H   0  0  0  0  0  0  0  0  0  0  0  0
   -4.3908   -1.0673   -2.3820 H   0  0  0  0  0  0  0  0  0  0  0  0
   -5.7352   -0.9645   -1.2492 H   0  0  0  0  0  0  0  0  0  0  0  0
   -2.4056   -3.5578   -0.6117 H   0  0  0  0  0  0  0  0  0  0  0  0
   -2.3532   -2.3065   -1.8381 H   0  0  0  0  0  0  0  0  0  0  0  0
   -5.3273    0.4098    0.9574 H   0  0  0  0  0  0  0  0  0  0  0  0
   -3.7601    1.1747    1.1639 H   0  0  0  0  0  0  0  0  0  0  0  0
   -1.7005    0.0604    2.9301 H   0  0  0  0  0  0  0  0  0  0  0  0
    0.6910    0.0036    2.5369 H   0  0  0  0  0  0  0  0  0  0  0  0
   -3.8259    2.7672   -0.0118 H   0  0  0  0  0  0  0  0  0  0  0  0
   -3.2976    3.3107   -1.5886 H   0  0  0  0  0  0  0  0  0  0  0  0
    1.9866    0.6890   -0.6475 H   0  0  0  0  0  0  0  0  0  0  0  0
    2.3972   -2.9349    1.6372 H   0  0  0  0  0  0  0  0  0  0  0  0
    4.8156   -2.9185    1.2611 H   0  0  0  0  0  0  0  0  0  0  0  0
   -1.8629    4.0167    1.2108 H   0  0  0  0  0  0  0  0  0  0  0  0
   -1.4014    4.7457   -0.3608 H   0  0  0  0  0  0  0  0  0  0  0  0
    3.9982    1.7520   -1.6376 H   0  0  0  0  0  0  0  0  0  0  0  0
    6.8396   -1.8487    0.2616 H   0  0  0  0  0  0  0  0  0  0  0  0
    6.4308    1.7600   -2.0124 H   0  0  0  0  0  0  0  0  0  0  0  0
    7.8492   -0.0373   -1.0645 H   0  0  0  0  0  0  0  0  0  0  0  0
    1.3046    4.9207    2.1738 H   0  0  0  0  0  0  0  0  0  0  0  0
  1 20  1  0  0  0  0
  1 27  1  0  0  0  0
  2 16  2  0  0  0  0
  3 17  2  0  0  0  0
  4 31  1  0  0  0  0
  4 56  1  0  0  0  0
  5 31  2  0  0  0  0
  6 11  1  0  0  0  0
  6 13  1  0  0  0  0
  6 17  1  0  0  0  0
  7 12  1  0  0  0  0
  7 14  1  0  0  0  0
  7 16  1  0  0  0  0
  8 10  1  0  0  0  0
  8 11  1  0  0  0  0
  8 12  1  0  0  0  0
  8 33  1  0  0  0  0
  9 10  1  0  0  0  0
  9 13  1  0  0  0  0
  9 14  1  0  0  0  0
  9 34  1  0  0  0  0
 10 35  1  0  0  0  0
 10 36  1  0  0  0  0
 11 37  1  0  0  0  0
 11 38  1  0  0  0  0
 12 39  1  0  0  0  0
 12 40  1  0  0  0  0
 13 41  1  0  0  0  0
 13 42  1  0  0  0  0
 14 15  2  0  0  0  0
 15 19  1  0  0  0  0
 15 43  1  0  0  0  0
 16 18  1  0  0  0  0
 17 20  1  0  0  0  0
 18 19  2  0  0  0  0
 18 21  1  0  0  0  0
 19 44  1  0  0  0  0
 20 45  1  0  0  0  0
 20 46  1  0  0  0  0
 21 22  2  0  0  0  0
 21 23  1  0  0  0  0
 22 24  1  0  0  0  0
 22 47  1  0  0  0  0
 23 25  2  0  0  0  0
 23 48  1  0  0  0  0
 24 26  1  0  0  0  0
 24 28  2  0  0  0  0
 25 26  1  0  0  0  0
 25 49  1  0  0  0  0
 26 29  2  0  0  0  0
 27 31  1  0  0  0  0
 27 50  1  0  0  0  0
 27 51  1  0  0  0  0
 28 30  1  0  0  0  0
 28 52  1  0  0  0  0
 29 32  1  0  0  0  0
 29 53  1  0  0  0  0
 30 32  2  0  0  0  0
 30 54  1  0  0  0  0
 32 55  1  0  0  0  0
M  END
> <PUBCHEM_COMPOUND_CID>
11885153

> <PUBCHEM_CONFORMER_RMSD>
1

> <PUBCHEM_CONFORMER_DIVERSEORDER>
1
44
30
13
12
4
28
29
3
25
11
33
18
23
6
39
37
22
19
14
16
21
35
10
2
42
26
15
43
20
48
46
45
7
32
31
27
36
24
34
9
17
8
40
38
5
47
41

> <PUBCHEM_MMFF94_PARTIAL_CHARGES>
38
1 -0.46
11 0.3
12 0.3
13 0.3
14 -0.03
15 -0.15
16 0.62
17 0.57
18 -0.01
19 -0.15
2 -0.57
20 0.29
21 0.03
22 -0.15
23 -0.15
25 -0.15
27 0.29
28 -0.15
29 -0.15
3 -0.57
30 -0.15
31 0.66
32 -0.15
4 -0.65
43 0.15
44 0.15
47 0.15
48 0.15
49 0.15
5 -0.57
52 0.15
53 0.15
54 0.15
55 0.15
56 0.5
6 -0.66
7 -0.47
9 0.14

> <PUBCHEM_EFFECTIVE_ROTOR_COUNT>
7

> <PUBCHEM_PHARMACOPHORE_FEATURES>
10
1 2 acceptor
1 3 acceptor
1 4 acceptor
1 5 acceptor
3 4 5 31 anion
6 21 22 23 24 25 26 rings
6 24 26 28 29 30 32 rings
6 6 8 9 10 11 13 rings
6 7 14 15 16 18 19 rings
6 7 8 9 10 12 14 rings

> <PUBCHEM_HEAVY_ATOM_COUNT>
32

> <PUBCHEM_ATOM_DEF_STEREO_COUNT>
2

> <PUBCHEM_ATOM_UDEF_STEREO_COUNT>
0

> <PUBCHEM_BOND_DEF_STEREO_COUNT>
0

> <PUBCHEM_BOND_UDEF_STEREO_COUNT>
0

> <PUBCHEM_ISOTOPIC_ATOM_COUNT>
0

> <PUBCHEM_COMPONENT_COUNT>
1

> <PUBCHEM_CACTVS_TAUTO_COUNT>
1

> <PUBCHEM_CONFORMER_ID>
00B55A6100000001

> <PUBCHEM_MMFF94_ENERGY>
87.149

> <PUBCHEM_FEATURE_SELFOVERLAP>
52.398

> <PUBCHEM_SHAPE_FINGERPRINT>
12236239 1 18341620330394817890
12788726 201 18336543820504726978
13383661 66 16467815330978856783
13761468 95 17900822647868231132
14068700 675 17988919020627437487
14363568 33 18194128640339999689
15183329 4 18409168810040792254
15297060 5 18128255584354484336
17492 54 18188756250823501573
17818456 19 17976804407733158770
17844677 252 18040721342254456022
19958102 18 17989212512722936598
20764821 26 18410580604103048544
20775438 99 17405663410781735655
21033648 144 18194128632293396590
21049683 271 17971770014561773955
22907989 373 18268990886471043593
23559900 14 18041837454041387053
3493558 16 18115309951881717348
469060 322 17417514861311200252
5081480 168 18060129981310147625
5171179 24 18270952574503890657

> <PUBCHEM_SHAPE_MULTIPOLES>
628.96
12.84
4.47
1.77
16.9
6.38
-0.08
-3.97
-5.11
-2.07
1.42
-1.21
0.46
-0.17

> <PUBCHEM_SHAPE_SELFOVERLAP>
1367.802

> <PUBCHEM_SHAPE_VOLUME>
343.3

> <PUBCHEM_COORDINATE_TYPE>
2
5
10

$$$$
