56774302
  -OEChem-12032416323D

 52 53  0     1  0  0  0  0  0999 V2000
    3.7642    1.4304    0.0645 O   0  0  0  0  0  0  0  0  0  0  0  0
   -4.7488   -1.2141   -0.7470 O   0  0  0  0  0  0  0  0  0  0  0  0
   -3.4095    0.6630   -0.5251 N   0  0  0  0  0  0  0  0  0  0  0  0
    2.4410    1.4730    0.4870 N   0  0  0  0  0  0  0  0  0  0  0  0
   -1.6088   -0.9337    0.3291 C   0  0  0  0  0  0  0  0  0  0  0  0
   -0.1992   -0.3863    0.0218 C   0  0  1  0  0  0  0  0  0  0  0  0
   -2.1279   -0.0123   -0.7942 C   0  0  2  0  0  0  0  0  0  0  0  0
   -0.8937    0.8755   -0.5316 C   0  0  0  0  0  0  0  0  0  0  0  0
    0.7195   -0.1419    1.1960 C   0  0  0  0  0  0  0  0  0  0  0  0
   -2.0889   -0.6186    1.7287 C   0  0  0  0  0  0  0  0  0  0  0  0
   -1.8267   -2.4056    0.0299 C   0  0  0  0  0  0  0  0  0  0  0  0
    2.1093    0.1988    0.7138 C   0  0  0  0  0  0  0  0  0  0  0  0
   -4.6240   -0.0114   -0.5261 C   0  0  0  0  0  0  0  0  0  0  0  0
    3.1722   -0.6836    0.4543 C   0  0  0  0  0  0  0  0  0  0  0  0
   -5.8075    0.9063   -0.2277 C   0  0  0  0  0  0  0  0  0  0  0  0
    4.1883    0.1408    0.0491 C   0  0  0  0  0  0  0  0  0  0  0  0
    5.5744   -0.0880   -0.3759 C   0  0  0  0  0  0  0  0  0  0  0  0
   -7.0546    0.4092   -0.9558 C   0  0  0  0  0  0  0  0  0  0  0  0
   -6.0666    0.9967    1.2744 C   0  0  0  0  0  0  0  0  0  0  0  0
    6.4265   -0.7849    0.7420 C   0  0  0  0  0  0  0  0  0  0  0  0
    6.4035    1.1942   -0.7627 C   0  0  0  0  0  0  0  0  0  0  0  0
    5.6575   -1.0077   -1.6444 C   0  0  0  0  0  0  0  0  0  0  0  0
    0.2905   -0.9722   -0.7720 H   0  0  0  0  0  0  0  0  0  0  0  0
   -2.1159   -0.4567   -1.7984 H   0  0  0  0  0  0  0  0  0  0  0  0
   -1.0481    1.6828    0.1946 H   0  0  0  0  0  0  0  0  0  0  0  0
   -0.4312    1.3048   -1.4256 H   0  0  0  0  0  0  0  0  0  0  0  0
    0.7974   -1.0515    1.8053 H   0  0  0  0  0  0  0  0  0  0  0  0
    0.3572    0.6531    1.8585 H   0  0  0  0  0  0  0  0  0  0  0  0
   -1.5305   -1.1860    2.4821 H   0  0  0  0  0  0  0  0  0  0  0  0
   -2.0040    0.4429    1.9853 H   0  0  0  0  0  0  0  0  0  0  0  0
   -3.1435   -0.8892    1.8571 H   0  0  0  0  0  0  0  0  0  0  0  0
   -1.5314   -2.6604   -0.9940 H   0  0  0  0  0  0  0  0  0  0  0  0
   -1.2291   -3.0308    0.7031 H   0  0  0  0  0  0  0  0  0  0  0  0
   -2.8736   -2.6978    0.1552 H   0  0  0  0  0  0  0  0  0  0  0  0
   -3.4169    1.6604   -0.3254 H   0  0  0  0  0  0  0  0  0  0  0  0
    3.1961   -1.7593    0.5477 H   0  0  0  0  0  0  0  0  0  0  0  0
   -5.5773    1.9102   -0.6060 H   0  0  0  0  0  0  0  0  0  0  0  0
   -7.3656   -0.5773   -0.5942 H   0  0  0  0  0  0  0  0  0  0  0  0
   -7.8909    1.1012   -0.8113 H   0  0  0  0  0  0  0  0  0  0  0  0
   -6.8682    0.3237   -2.0319 H   0  0  0  0  0  0  0  0  0  0  0  0
   -6.2947    0.0118    1.6965 H   0  0  0  0  0  0  0  0  0  0  0  0
   -6.9059    1.6662    1.4887 H   0  0  0  0  0  0  0  0  0  0  0  0
   -5.1838    1.3797    1.7976 H   0  0  0  0  0  0  0  0  0  0  0  0
    5.9915   -1.7524    1.0182 H   0  0  0  0  0  0  0  0  0  0  0  0
    6.4575   -0.1663    1.6464 H   0  0  0  0  0  0  0  0  0  0  0  0
    7.4567   -0.9628    0.4138 H   0  0  0  0  0  0  0  0  0  0  0  0
    6.4642    1.8851    0.0862 H   0  0  0  0  0  0  0  0  0  0  0  0
    5.9240    1.7285   -1.5910 H   0  0  0  0  0  0  0  0  0  0  0  0
    7.4250    0.9415   -1.0682 H   0  0  0  0  0  0  0  0  0  0  0  0
    5.1253   -0.5521   -2.4876 H   0  0  0  0  0  0  0  0  0  0  0  0
    5.1959   -1.9828   -1.4504 H   0  0  0  0  0  0  0  0  0  0  0  0
    6.6951   -1.1835   -1.9497 H   0  0  0  0  0  0  0  0  0  0  0  0
  1  4  1  0  0  0  0
  1 16  1  0  0  0  0
  2 13  2  0  0  0  0
  3  7  1  0  0  0  0
  3 13  1  0  0  0  0
  3 35  1  0  0  0  0
  4 12  2  0  0  0  0
  5  6  1  0  0  0  0
  5  7  1  0  0  0  0
  5 10  1  0  0  0  0
  5 11  1  0  0  0  0
  6  8  1  0  0  0  0
  6  9  1  0  0  0  0
  6 23  1  0  0  0  0
  7  8  1  0  0  0  0
  7 24  1  0  0  0  0
  8 25  1  0  0  0  0
  8 26  1  0  0  0  0
  9 12  1  0  0  0  0
  9 27  1  0  0  0  0
  9 28  1  0  0  0  0
 10 29  1  0  0  0  0
 10 30  1  0  0  0  0
 10 31  1  0  0  0  0
 11 32  1  0  0  0  0
 11 33  1  0  0  0  0
 11 34  1  0  0  0  0
 12 14  1  0  0  0  0
 13 15  1  0  0  0  0
 14 16  2  0  0  0  0
 14 36  1  0  0  0  0
 15 18  1  0  0  0  0
 15 19  1  0  0  0  0
 15 37  1  0  0  0  0
 16 17  1  0  0  0  0
 17 20  1  0  0  0  0
 17 21  1  0  0  0  0
 17 22  1  0  0  0  0
 18 38  1  0  0  0  0
 18 39  1  0  0  0  0
 18 40  1  0  0  0  0
 19 41  1  0  0  0  0
 19 42  1  0  0  0  0
 19 43  1  0  0  0  0
 20 44  1  0  0  0  0
 20 45  1  0  0  0  0
 20 46  1  0  0  0  0
 21 47  1  0  0  0  0
 21 48  1  0  0  0  0
 21 49  1  0  0  0  0
 22 50  1  0  0  0  0
 22 51  1  0  0  0  0
 22 52  1  0  0  0  0
M  END
> <PUBCHEM_COMPOUND_CID>
56774302

> <PUBCHEM_CONFORMER_RMSD>
0.8

> <PUBCHEM_CONFORMER_DIVERSEORDER>
2
57
43
47
25
11
64
58
55
78
39
28
41
21
31
63
3
26
72
66
73
7
13
30
70
37
67
14
62
19
40
27
17
65
29
50
68
45
46
44
80
77
12
79
1
71
36
76
4
18
42
59
20
60
75
23
10
74
24
9
56
6
32
52
34
16
5
48
38
15
22
69
35
51
33
8
61
49
53
54

> <PUBCHEM_MMFF94_PARTIAL_CHARGES>
14
1 -0.02
12 0.11
13 0.57
14 -0.15
15 0.06
16 -0.04
17 0.18
2 -0.57
3 -0.65
35 0.37
36 0.15
4 -0.41
7 0.22
9 0.18

> <PUBCHEM_EFFECTIVE_ROTOR_COUNT>
6.8

> <PUBCHEM_PHARMACOPHORE_FEATURES>
8
1 2 acceptor
1 3 donor
1 4 acceptor
3 15 18 19 hydrophobe
3 5 10 11 hydrophobe
4 17 20 21 22 hydrophobe
4 5 6 7 8 rings
5 1 4 12 14 16 rings

> <PUBCHEM_HEAVY_ATOM_COUNT>
22

> <PUBCHEM_ATOM_DEF_STEREO_COUNT>
2

> <PUBCHEM_ATOM_UDEF_STEREO_COUNT>
0

> <PUBCHEM_BOND_DEF_STEREO_COUNT>
0

> <PUBCHEM_BOND_UDEF_STEREO_COUNT>
0

> <PUBCHEM_ISOTOPIC_ATOM_COUNT>
0

> <PUBCHEM_COMPONENT_COUNT>
1

> <PUBCHEM_CACTVS_TAUTO_COUNT>
2

> <PUBCHEM_CONFORMER_ID>
03624E9E00000002

> <PUBCHEM_MMFF94_ENERGY>
45.0519

> <PUBCHEM_FEATURE_SELFOVERLAP>
40.596

> <PUBCHEM_SHAPE_FINGERPRINT>
10 15 13045947923683742708
10354089 29 13479132393882313156
10613725 11 17775566429292265177
106641 1 14273464686617954025
10835480 77 18129939104730176128
11315181 36 17203331143435275042
11796584 16 18202001058181144630
12166972 35 16128654162830580577
12236239 1 14490193808176407802
12390115 104 18115868495489538405
12596602 18 11887680567720617286
12616971 3 13551469315555968938
12670543 26 17775568619720278863
12730499 353 17386008351865299018
12788726 201 18271804553922463008
12916748 109 16081085961951684068
13533116 47 14979961328979467958
13668630 136 15195567913632955445
13914758 101 16271935869885108091
14251732 16 12252192882604847165
14251752 14 17060340695371942545
14251764 18 18342174475363802761
14848160 23 12751234809452039181
15048467 5 15791729694208679709
15183329 4 18272652328900334520
15716309 27 8862944978797793337
15849732 13 17022904553692549671
18222031 100 14908186369823131808
19377110 9 10953733456362543692
19489759 90 15770059424032276459
200 152 16988843886597531850
20281389 69 17168139027256891564
21150785 3 18333729148194769879
22079108 93 12396304776810227368
221357 26 18411979148596943132
2215653 11 18060139838507738854
22224240 67 13551192195222584945
23035841 295 18408319978220421931
23198884 109 18342459240137944681
23402539 116 18059851775272728933
23536379 177 17489868228524842577
23559900 14 18059285569201295761
23622692 88 15864073182708099919
26918003 58 12103840181084460309
29717793 49 17561087999366702636
3004659 81 16415761938264440352
3009799 131 12967128294385438531
347723 3 14476960091173597343
3545911 37 16877942724562415146
4325135 7 11746938685349578881
4340502 62 11891330946182395680
5104073 3 18188764084621998600
59682541 35 15502386638434548105
5969126 39 9295292703858589771
59755656 215 18201440242145662871
59755656 520 17967247603241611963
8988823 20 16056872530007079914

> <PUBCHEM_SHAPE_MULTIPOLES>
431.05
18.5
1.46
1.26
0.63
0.39
-0.09
-3.74
3.88
-0.01
0.04
-0.16
0.13
-0.1

> <PUBCHEM_SHAPE_SELFOVERLAP>
878.467

> <PUBCHEM_SHAPE_VOLUME>
255.2

> <PUBCHEM_COORDINATE_TYPE>
2
5
10

$$$$
