38029166
  -OEChem-12032416253D

 73 75  0     1  0  0  0  0  0999 V2000
   -3.5194    3.0936    0.1586 O   0  0  0  0  0  0  0  0  0  0  0  0
    0.2254   -3.2626    1.1250 O   0  0  0  0  0  0  0  0  0  0  0  0
    5.6276   -0.6025   -1.6717 O   0  0  0  0  0  0  0  0  0  0  0  0
   -1.0367   -2.8561   -0.7709 N   0  0  0  0  0  0  0  0  0  0  0  0
   -1.3096    3.5156   -0.4055 N   0  0  0  0  0  0  0  0  0  0  0  0
    1.1863   -2.2325   -0.7528 N   0  0  0  0  0  0  0  0  0  0  0  0
    3.2731    3.6440    0.6202 N   0  0  0  0  0  0  0  0  0  0  0  0
   -3.0458   -1.2124    0.7475 C   0  0  1  0  0  0  0  0  0  0  0  0
   -3.3663   -2.3352   -0.2706 C   0  0  1  0  0  0  0  0  0  0  0  0
   -3.9004    0.0316    0.4606 C   0  0  0  0  0  0  0  0  0  0  0  0
   -3.6711    0.5809   -0.9601 C   0  0  2  0  0  0  0  0  0  0  0  0
   -3.2688   -1.6732    2.1914 C   0  0  0  0  0  0  0  0  0  0  0  0
   -3.7062   -0.5190   -2.0016 C   0  0  0  0  0  0  0  0  0  0  0  0
   -3.5818   -1.8173   -1.6733 C   0  0  0  0  0  0  0  0  0  0  0  0
   -2.2648   -3.4012   -0.2834 C   0  0  0  0  0  0  0  0  0  0  0  0
   -2.3610    1.3722   -1.0415 C   0  0  0  0  0  0  0  0  0  0  0  0
   -2.4215   -0.8443    3.1514 C   0  0  0  0  0  0  0  0  0  0  0  0
   -4.7469   -1.5812    2.5568 C   0  0  0  0  0  0  0  0  0  0  0  0
   -3.9335   -0.0956   -3.4261 C   0  0  0  0  0  0  0  0  0  0  0  0
   -2.4668    2.7303   -0.3728 C   0  0  0  0  0  0  0  0  0  0  0  0
    0.1525   -2.8217   -0.0195 C   0  0  0  0  0  0  0  0  0  0  0  0
   -0.0740    3.0637   -1.0410 C   0  0  0  0  0  0  0  0  0  0  0  0
   -1.2493    4.8438    0.1922 C   0  0  0  0  0  0  0  0  0  0  0  0
    1.0567    2.9575   -0.0590 C   0  0  0  0  0  0  0  0  0  0  0  0
    2.5240   -2.0163   -0.3477 C   0  0  0  0  0  0  0  0  0  0  0  0
    0.9714    2.1155    1.0441 C   0  0  0  0  0  0  0  0  0  0  0  0
    2.2186    3.6940   -0.2244 C   0  0  0  0  0  0  0  0  0  0  0  0
    3.4271   -1.4080   -1.2195 C   0  0  0  0  0  0  0  0  0  0  0  0
    2.9405   -2.4122    0.9235 C   0  0  0  0  0  0  0  0  0  0  0  0
    2.0357    2.0368    1.9356 C   0  0  0  0  0  0  0  0  0  0  0  0
    4.7467   -1.1952   -0.8203 C   0  0  0  0  0  0  0  0  0  0  0  0
    3.1537    2.8144    1.6810 C   0  0  0  0  0  0  0  0  0  0  0  0
    4.2601   -2.1997    1.3226 C   0  0  0  0  0  0  0  0  0  0  0  0
    5.1631   -1.5911    0.4509 C   0  0  0  0  0  0  0  0  0  0  0  0
    6.9614   -0.4165   -1.1998 C   0  0  0  0  0  0  0  0  0  0  0  0
   -1.9918   -0.9313    0.6405 H   0  0  0  0  0  0  0  0  0  0  0  0
   -4.2997   -2.8353    0.0169 H   0  0  0  0  0  0  0  0  0  0  0  0
   -3.7190    0.8121    1.2057 H   0  0  0  0  0  0  0  0  0  0  0  0
   -4.9694   -0.2120    0.5144 H   0  0  0  0  0  0  0  0  0  0  0  0
   -4.5120    1.2550   -1.1761 H   0  0  0  0  0  0  0  0  0  0  0  0
   -2.9542   -2.7148    2.3127 H   0  0  0  0  0  0  0  0  0  0  0  0
   -3.6617   -2.5675   -2.4577 H   0  0  0  0  0  0  0  0  0  0  0  0
   -2.5369   -4.2168   -0.9643 H   0  0  0  0  0  0  0  0  0  0  0  0
   -2.1220   -3.8534    0.7015 H   0  0  0  0  0  0  0  0  0  0  0  0
   -2.1186    1.5623   -2.0932 H   0  0  0  0  0  0  0  0  0  0  0  0
   -1.5399    0.8043   -0.5947 H   0  0  0  0  0  0  0  0  0  0  0  0
   -2.6876    0.2171    3.1319 H   0  0  0  0  0  0  0  0  0  0  0  0
   -1.3568   -0.9311    2.9087 H   0  0  0  0  0  0  0  0  0  0  0  0
   -2.5533   -1.1974    4.1801 H   0  0  0  0  0  0  0  0  0  0  0  0
   -5.0917   -0.5517    2.6998 H   0  0  0  0  0  0  0  0  0  0  0  0
   -4.9117   -2.0858    3.5170 H   0  0  0  0  0  0  0  0  0  0  0  0
   -5.3940   -2.0815    1.8305 H   0  0  0  0  0  0  0  0  0  0  0  0
   -4.8412    0.5117   -3.5021 H   0  0  0  0  0  0  0  0  0  0  0  0
   -4.0590   -0.9545   -4.0943 H   0  0  0  0  0  0  0  0  0  0  0  0
   -3.0898    0.4896   -3.8024 H   0  0  0  0  0  0  0  0  0  0  0  0
   -0.9978   -2.5351   -1.7334 H   0  0  0  0  0  0  0  0  0  0  0  0
    0.1625    3.8008   -1.8193 H   0  0  0  0  0  0  0  0  0  0  0  0
   -0.1576    2.1096   -1.5629 H   0  0  0  0  0  0  0  0  0  0  0  0
   -0.5988    4.8253    1.0706 H   0  0  0  0  0  0  0  0  0  0  0  0
   -2.2441    5.1684    0.5095 H   0  0  0  0  0  0  0  0  0  0  0  0
   -0.8658    5.5564   -0.5437 H   0  0  0  0  0  0  0  0  0  0  0  0
    0.9564   -1.9162   -1.6916 H   0  0  0  0  0  0  0  0  0  0  0  0
    0.0857    1.5115    1.2201 H   0  0  0  0  0  0  0  0  0  0  0  0
    2.3468    4.3690   -1.0649 H   0  0  0  0  0  0  0  0  0  0  0  0
    3.1093   -1.0964   -2.2118 H   0  0  0  0  0  0  0  0  0  0  0  0
    2.3013   -2.8878    1.6537 H   0  0  0  0  0  0  0  0  0  0  0  0
    1.9921    1.3852    2.8008 H   0  0  0  0  0  0  0  0  0  0  0  0
    4.0112    2.7881    2.3453 H   0  0  0  0  0  0  0  0  0  0  0  0
    4.5845   -2.5075    2.3126 H   0  0  0  0  0  0  0  0  0  0  0  0
    6.1721   -1.4561    0.8252 H   0  0  0  0  0  0  0  0  0  0  0  0
    7.5244    0.0674   -2.0046 H   0  0  0  0  0  0  0  0  0  0  0  0
    7.4533   -1.3736   -0.9960 H   0  0  0  0  0  0  0  0  0  0  0  0
    6.9924    0.2583   -0.3375 H   0  0  0  0  0  0  0  0  0  0  0  0
  1 20  2  0  0  0  0
  2 21  2  0  0  0  0
  3 31  1  0  0  0  0
  3 35  1  0  0  0  0
  4 15  1  0  0  0  0
  4 21  1  0  0  0  0
  4 56  1  0  0  0  0
  5 20  1  0  0  0  0
  5 22  1  0  0  0  0
  5 23  1  0  0  0  0
  6 21  1  0  0  0  0
  6 25  1  0  0  0  0
  6 62  1  0  0  0  0
  7 27  1  0  0  0  0
  7 32  2  0  0  0  0
  8  9  1  0  0  0  0
  8 10  1  0  0  0  0
  8 12  1  0  0  0  0
  8 36  1  0  0  0  0
  9 14  1  0  0  0  0
  9 15  1  0  0  0  0
  9 37  1  0  0  0  0
 10 11  1  0  0  0  0
 10 38  1  0  0  0  0
 10 39  1  0  0  0  0
 11 13  1  0  0  0  0
 11 16  1  0  0  0  0
 11 40  1  0  0  0  0
 12 17  1  0  0  0  0
 12 18  1  0  0  0  0
 12 41  1  0  0  0  0
 13 14  2  0  0  0  0
 13 19  1  0  0  0  0
 14 42  1  0  0  0  0
 15 43  1  0  0  0  0
 15 44  1  0  0  0  0
 16 20  1  0  0  0  0
 16 45  1  0  0  0  0
 16 46  1  0  0  0  0
 17 47  1  0  0  0  0
 17 48  1  0  0  0  0
 17 49  1  0  0  0  0
 18 50  1  0  0  0  0
 18 51  1  0  0  0  0
 18 52  1  0  0  0  0
 19 53  1  0  0  0  0
 19 54  1  0  0  0  0
 19 55  1  0  0  0  0
 22 24  1  0  0  0  0
 22 57  1  0  0  0  0
 22 58  1  0  0  0  0
 23 59  1  0  0  0  0
 23 60  1  0  0  0  0
 23 61  1  0  0  0  0
 24 26  1  0  0  0  0
 24 27  2  0  0  0  0
 25 28  2  0  0  0  0
 25 29  1  0  0  0  0
 26 30  2  0  0  0  0
 26 63  1  0  0  0  0
 27 64  1  0  0  0  0
 28 31  1  0  0  0  0
 28 65  1  0  0  0  0
 29 33  2  0  0  0  0
 29 66  1  0  0  0  0
 30 32  1  0  0  0  0
 30 67  1  0  0  0  0
 31 34  2  0  0  0  0
 32 68  1  0  0  0  0
 33 34  1  0  0  0  0
 33 69  1  0  0  0  0
 34 70  1  0  0  0  0
 35 71  1  0  0  0  0
 35 72  1  0  0  0  0
 35 73  1  0  0  0  0
M  END
> <PUBCHEM_COMPOUND_CID>
38029166

> <PUBCHEM_CONFORMER_RMSD>
1.4

> <PUBCHEM_CONFORMER_DIVERSEORDER>
1
5
97
8
42
14
94
108
102
52
44
103
88
65
71
91
48
96
118
40
56
92
110
46
17
121
120
82
100
85
80
19
45
51
107
36
43
6
93
38
57
26
72
73
113
111
30
95
98
63
101
33
39
87
117
64
75
23
53
7
68
78
37
89
112
84
54
18
70
66
49
34
55
21
16
79
86
60
99
76
20
119
81
9
106
10
47
104
11
123
74
3
90
61
50
41
122
15
29
77
69
27
25
31
4
116
105
83
2
124
28
24
115
67
59
35
13
114
12
22
109
32
62
58

> <PUBCHEM_MMFF94_PARTIAL_CHARGES>
41
1 -0.57
11 0.14
13 -0.28
14 -0.29
15 0.3
16 0.06
19 0.14
2 -0.57
20 0.57
21 0.69
22 0.44
23 0.3
24 -0.14
25 0.12
26 -0.15
27 0.16
28 -0.15
29 -0.15
3 -0.36
30 -0.15
31 0.08
32 0.16
33 -0.15
34 -0.15
35 0.28
4 -0.73
42 0.15
5 -0.66
56 0.37
6 -0.55
62 0.37
63 0.15
64 0.15
65 0.15
66 0.15
67 0.15
68 0.15
69 0.15
7 -0.62
70 0.15
9 0.14

> <PUBCHEM_EFFECTIVE_ROTOR_COUNT>
12.8

> <PUBCHEM_PHARMACOPHORE_FEATURES>
10
1 1 acceptor
1 2 acceptor
1 3 acceptor
1 4 donor
1 6 donor
1 7 acceptor
3 12 17 18 hydrophobe
6 25 28 29 31 33 34 rings
6 7 24 26 27 30 32 rings
6 8 9 10 11 13 14 rings

> <PUBCHEM_HEAVY_ATOM_COUNT>
35

> <PUBCHEM_ATOM_DEF_STEREO_COUNT>
3

> <PUBCHEM_ATOM_UDEF_STEREO_COUNT>
0

> <PUBCHEM_BOND_DEF_STEREO_COUNT>
0

> <PUBCHEM_BOND_UDEF_STEREO_COUNT>
0

> <PUBCHEM_ISOTOPIC_ATOM_COUNT>
0

> <PUBCHEM_COMPONENT_COUNT>
1

> <PUBCHEM_CACTVS_TAUTO_COUNT>
3

> <PUBCHEM_CONFORMER_ID>
0244476E00000001

> <PUBCHEM_MMFF94_ENERGY>
97.7134

> <PUBCHEM_FEATURE_SELFOVERLAP>
50.796

> <PUBCHEM_SHAPE_FINGERPRINT>
10032420 55 17902208054162980596
10864689 126 17982166726300440140
13560911 43 18337383954420093594
13615921 28 16917349225111597832
14020679 6 18119259367858822049
15264996 142 17181106423009475898
15406563 228 18114192938938184628
15968369 153 18343295955581058329
19315092 285 16556469825425655085
19319366 153 17250613167097584793
20764821 26 18409442622199247348
20775530 9 18341891896248707544
238918 7 17839718689857243480
354706 35 16750123698669144445
3737641 26 18267029525331510048
4112364 45 17842874134037036547
463206 1 18121220875143761624
469060 322 18341336656474317123
5081480 168 18269004227029887154
508706 21 18341320154570720450
5171179 24 18201425991955812600
6036956 94 18260833652823669116

> <PUBCHEM_SHAPE_MULTIPOLES>
682.75
11.31
6.1
2.48
12.42
5.77
0.36
-5.52
-2.4
0.82
0.78
-2.67
-0.78
1.67

> <PUBCHEM_SHAPE_SELFOVERLAP>
1421.995

> <PUBCHEM_SHAPE_VOLUME>
385.3

> <PUBCHEM_COORDINATE_TYPE>
2
5
10

$$$$
