45783633
  -OEChem-12032416273D

 51 53  0     1  0  0  0  0  0999 V2000
   -2.8361   -1.2238   -1.6437 O   0  0  0  0  0  0  0  0  0  0  0  0
    7.6048    1.0313    0.9801 O   0  0  0  0  0  0  0  0  0  0  0  0
    5.0276    1.4011    0.8554 O   0  0  0  0  0  0  0  0  0  0  0  0
   -4.5427    0.8677    0.6063 N   0  0  1  0  0  0  0  0  0  0  0  0
   -1.6810    0.3857   -0.5985 N   0  0  0  0  0  0  0  0  0  0  0  0
   -1.4932   -1.6199   -1.6830 N   0  0  0  0  0  0  0  0  0  0  0  0
    2.6929   -1.6616   -1.1470 N   0  0  0  0  0  0  0  0  0  0  0  0
    4.6377   -0.6102   -0.3069 N   0  0  0  0  0  0  0  0  0  0  0  0
   -4.2156    0.6140   -0.8110 C   0  0  1  0  0  0  0  0  0  0  0  0
   -4.3087    1.9944   -1.4871 C   0  0  0  0  0  0  0  0  0  0  0  0
   -5.4207    2.0378    0.6249 C   0  0  0  0  0  0  0  0  0  0  0  0
   -4.7523    2.9472   -0.3862 C   0  0  0  0  0  0  0  0  0  0  0  0
   -5.1452   -0.2806    1.2713 C   0  0  0  0  0  0  0  0  0  0  0  0
   -4.0960   -1.2952    1.7575 C   0  0  0  0  0  0  0  0  0  0  0  0
   -2.8583   -0.0336   -0.9885 C   0  0  0  0  0  0  0  0  0  0  0  0
   -3.1481   -0.6211    2.7531 C   0  0  0  0  0  0  0  0  0  0  0  0
   -4.7287   -2.5299    2.4046 C   0  0  0  0  0  0  0  0  0  0  0  0
   -0.8754   -0.6201   -1.0470 C   0  0  0  0  0  0  0  0  0  0  0  0
    0.5444   -0.5951   -0.8444 C   0  0  0  0  0  0  0  0  0  0  0  0
    1.1549    0.4624   -0.1791 C   0  0  0  0  0  0  0  0  0  0  0  0
    1.3506   -1.6235   -1.3048 C   0  0  0  0  0  0  0  0  0  0  0  0
    2.5334    0.4591    0.0028 C   0  0  0  0  0  0  0  0  0  0  0  0
    3.2508   -0.6165   -0.4956 C   0  0  0  0  0  0  0  0  0  0  0  0
    5.4151    0.3605    0.3328 C   0  0  0  0  0  0  0  0  0  0  0  0
    6.8863    0.0069    0.3244 C   0  0  0  0  0  0  0  0  0  0  0  0
    9.0034    0.7630    1.0096 C   0  0  0  0  0  0  0  0  0  0  0  0
   -4.9752   -0.0289   -1.2776 H   0  0  0  0  0  0  0  0  0  0  0  0
   -3.3708    2.3329   -1.9404 H   0  0  0  0  0  0  0  0  0  0  0  0
   -5.0707    1.9672   -2.2757 H   0  0  0  0  0  0  0  0  0  0  0  0
   -6.4383    1.7884    0.2982 H   0  0  0  0  0  0  0  0  0  0  0  0
   -5.4675    2.5030    1.6144 H   0  0  0  0  0  0  0  0  0  0  0  0
   -5.4241    3.7261   -0.7589 H   0  0  0  0  0  0  0  0  0  0  0  0
   -3.8767    3.4360    0.0587 H   0  0  0  0  0  0  0  0  0  0  0  0
   -5.8866   -0.7743    0.6297 H   0  0  0  0  0  0  0  0  0  0  0  0
   -5.7003    0.0615    2.1563 H   0  0  0  0  0  0  0  0  0  0  0  0
   -3.5069   -1.6666    0.9152 H   0  0  0  0  0  0  0  0  0  0  0  0
   -3.6931   -0.2225    3.6158 H   0  0  0  0  0  0  0  0  0  0  0  0
   -2.4105   -1.3394    3.1279 H   0  0  0  0  0  0  0  0  0  0  0  0
   -2.5900    0.2004    2.2933 H   0  0  0  0  0  0  0  0  0  0  0  0
   -5.3226   -2.2562    3.2832 H   0  0  0  0  0  0  0  0  0  0  0  0
   -3.9605   -3.2430    2.7216 H   0  0  0  0  0  0  0  0  0  0  0  0
   -5.3888   -3.0402    1.6954 H   0  0  0  0  0  0  0  0  0  0  0  0
    0.5804    1.3004    0.2076 H   0  0  0  0  0  0  0  0  0  0  0  0
    0.9530   -2.4848   -1.8332 H   0  0  0  0  0  0  0  0  0  0  0  0
    2.9349    1.3108    0.5268 H   0  0  0  0  0  0  0  0  0  0  0  0
    5.1177   -1.4206   -0.6909 H   0  0  0  0  0  0  0  0  0  0  0  0
    7.2218   -0.0858   -0.7146 H   0  0  0  0  0  0  0  0  0  0  0  0
    7.0235   -0.9464    0.8470 H   0  0  0  0  0  0  0  0  0  0  0  0
    9.2027   -0.1646    1.5547 H   0  0  0  0  0  0  0  0  0  0  0  0
    9.4009    0.6966   -0.0077 H   0  0  0  0  0  0  0  0  0  0  0  0
    9.5005    1.5877    1.5272 H   0  0  0  0  0  0  0  0  0  0  0  0
  1  6  1  0  0  0  0
  1 15  1  0  0  0  0
  2 25  1  0  0  0  0
  2 26  1  0  0  0  0
  3 24  2  0  0  0  0
  4  9  1  0  0  0  0
  4 11  1  0  0  0  0
  4 13  1  0  0  0  0
  5 15  2  0  0  0  0
  5 18  1  0  0  0  0
  6 18  2  0  0  0  0
  7 21  1  0  0  0  0
  7 23  2  0  0  0  0
  8 23  1  0  0  0  0
  8 24  1  0  0  0  0
  8 46  1  0  0  0  0
  9 10  1  0  0  0  0
  9 15  1  0  0  0  0
  9 27  1  0  0  0  0
 10 12  1  0  0  0  0
 10 28  1  0  0  0  0
 10 29  1  0  0  0  0
 11 12  1  0  0  0  0
 11 30  1  0  0  0  0
 11 31  1  0  0  0  0
 12 32  1  0  0  0  0
 12 33  1  0  0  0  0
 13 14  1  0  0  0  0
 13 34  1  0  0  0  0
 13 35  1  0  0  0  0
 14 16  1  0  0  0  0
 14 17  1  0  0  0  0
 14 36  1  0  0  0  0
 16 37  1  0  0  0  0
 16 38  1  0  0  0  0
 16 39  1  0  0  0  0
 17 40  1  0  0  0  0
 17 41  1  0  0  0  0
 17 42  1  0  0  0  0
 18 19  1  0  0  0  0
 19 20  1  0  0  0  0
 19 21  2  0  0  0  0
 20 22  2  0  0  0  0
 20 43  1  0  0  0  0
 21 44  1  0  0  0  0
 22 23  1  0  0  0  0
 22 45  1  0  0  0  0
 24 25  1  0  0  0  0
 25 47  1  0  0  0  0
 25 48  1  0  0  0  0
 26 49  1  0  0  0  0
 26 50  1  0  0  0  0
 26 51  1  0  0  0  0
M  END
> <PUBCHEM_COMPOUND_CID>
45783633

> <PUBCHEM_CONFORMER_RMSD>
1

> <PUBCHEM_CONFORMER_DIVERSEORDER>
1
3
19
12
21
16
14
18
17
2
22
23
10
5
9
24
13
7
8
6
4
15
11
20

> <PUBCHEM_MMFF94_PARTIAL_CHARGES>
25
1 -0.02
11 0.27
13 0.27
15 0.3
18 0.46
19 0.05
2 -0.56
20 -0.15
21 0.16
22 -0.15
23 0.43
24 0.57
25 0.34
26 0.28
3 -0.57
4 -0.81
43 0.15
44 0.15
45 0.15
46 0.37
5 -0.57
6 -0.41
7 -0.62
8 -0.55
9 0.45

> <PUBCHEM_EFFECTIVE_ROTOR_COUNT>
9

> <PUBCHEM_PHARMACOPHORE_FEATURES>
9
1 2 acceptor
1 3 acceptor
1 4 cation
1 8 donor
3 14 16 17 hydrophobe
3 5 6 18 cation
5 1 5 6 15 18 rings
5 4 9 10 11 12 rings
6 7 19 20 21 22 23 rings

> <PUBCHEM_HEAVY_ATOM_COUNT>
26

> <PUBCHEM_ATOM_DEF_STEREO_COUNT>
1

> <PUBCHEM_ATOM_UDEF_STEREO_COUNT>
0

> <PUBCHEM_BOND_DEF_STEREO_COUNT>
0

> <PUBCHEM_BOND_UDEF_STEREO_COUNT>
0

> <PUBCHEM_ISOTOPIC_ATOM_COUNT>
0

> <PUBCHEM_COMPONENT_COUNT>
1

> <PUBCHEM_CACTVS_TAUTO_COUNT>
11

> <PUBCHEM_CONFORMER_ID>
02BA9A5100000001

> <PUBCHEM_MMFF94_ENERGY>
52.1373

> <PUBCHEM_FEATURE_SELFOVERLAP>
45.681

> <PUBCHEM_SHAPE_FINGERPRINT>
10 15 18412261736006548016
10319926 262 18113628858400470038
10577160 183 12679192561960176996
10670039 82 14333408934660176777
10930396 42 18040999523661235377
11089746 13 15338830972203228034
11315181 36 17385723625197346679
11477941 20 13254789127386930739
12091667 2 18409722976395189828
12403259 118 18261401056805297421
12523318 42 18113628893451142795
13583140 156 18411706478466394923
13761468 95 13972032392430699195
13782708 43 14129328595215810848
14844126 61 17749683977942435531
14856354 85 17385730196328777406
15183329 4 15123792860287850156
15188451 53 17386010632509127339
15348495 7 18113339725850388064
15352257 5 16877939405022584338
15716309 27 14923945643808020356
17093844 174 18335695048598146956
1754908 1 16878212148700306920
17780758 139 17385442124751687865
17857418 61 15213299754923664618
17913733 40 18341339924453507274
18643901 69 10159687011566616649
18927931 339 12324242733138630053
20281389 69 18202559575527323708
21033648 144 17489587835800776389
21033648 29 18340496560458710813
21033650 10 12751245791847367895
21095123 145 18187932837210802962
21756936 100 18408316692212030191
22393880 68 10375869637059108357
23081809 10 14979959138683329182
23198884 109 14620797089279210829
23402539 116 12468353544310690694
23523787 8 16591636571692508079
23559900 14 17825971237955765535
2838139 119 15698002946564572170
312425 54 17530964644692800906
328310 630 16988562459240313672
397830 11 18261117391674957042
4169191 19 17131834270579207116
445580 204 15770062726825398922
4938544 92 17095514051091551357
5104073 3 18334576789470078074
5364581 5 18115597078830472877
5924683 9 17822019735379091171
602551 16 17458360640604937179
6608658 132 14979677650320427147
9953998 17 17167579392833638712
999808 66 11819277720089316800

> <PUBCHEM_SHAPE_MULTIPOLES>
492.55
19.69
2.26
1.98
42.89
0.3
0.26
-3.77
-12.49
-6.14
-1.02
-0.63
0.7
1.87

> <PUBCHEM_SHAPE_SELFOVERLAP>
1030.624

> <PUBCHEM_SHAPE_VOLUME>
280.6

> <PUBCHEM_COORDINATE_TYPE>
2
5
10

$$$$
