45784264
  -OEChem-12032416243D

 43 46  0     1  0  0  0  0  0999 V2000
   -5.1797   -2.1582   -0.7440 F   0  0  0  0  0  0  0  0  0  0  0  0
    7.5801    0.6364   -0.6119 F   0  0  0  0  0  0  0  0  0  0  0  0
    7.2387   -0.6116    1.1356 F   0  0  0  0  0  0  0  0  0  0  0  0
    7.0328   -1.4542   -0.8523 F   0  0  0  0  0  0  0  0  0  0  0  0
   -2.8003   -0.1385    0.0063 N   0  0  1  0  0  0  0  0  0  0  0  0
    1.8614   -1.0182    0.6802 N   0  0  0  0  0  0  0  0  0  0  0  0
    1.2769    0.9769   -0.1056 N   0  0  0  0  0  0  0  0  0  0  0  0
   -0.5959   -0.5076    0.7161 C   0  0  1  0  0  0  0  0  0  0  0  0
   -1.3047    0.4330    1.7061 C   0  0  0  0  0  0  0  0  0  0  0  0
   -1.4877   -0.5006   -0.5328 C   0  0  0  0  0  0  0  0  0  0  0  0
   -2.5324    0.9384    0.9594 C   0  0  0  0  0  0  0  0  0  0  0  0
    0.8409   -0.1477    0.4161 C   0  0  0  0  0  0  0  0  0  0  0  0
   -3.7364    0.2621   -1.0337 C   0  0  0  0  0  0  0  0  0  0  0  0
   -5.1629    0.2081   -0.5551 C   0  0  0  0  0  0  0  0  0  0  0  0
    3.0341   -0.4154    0.3035 C   0  0  0  0  0  0  0  0  0  0  0  0
    2.6427    0.8286   -0.1836 C   0  0  0  0  0  0  0  0  0  0  0  0
    4.3629   -0.8384    0.3457 C   0  0  0  0  0  0  0  0  0  0  0  0
    3.6219    1.7163   -0.6608 C   0  0  0  0  0  0  0  0  0  0  0  0
   -5.8150   -1.0190   -0.4354 C   0  0  0  0  0  0  0  0  0  0  0  0
   -5.8323    1.3881   -0.2313 C   0  0  0  0  0  0  0  0  0  0  0  0
    5.3243    0.0576   -0.1332 C   0  0  0  0  0  0  0  0  0  0  0  0
    4.9625    1.3128   -0.6279 C   0  0  0  0  0  0  0  0  0  0  0  0
   -7.1365   -1.0663    0.0084 C   0  0  0  0  0  0  0  0  0  0  0  0
   -7.1540    1.3410    0.2125 C   0  0  0  0  0  0  0  0  0  0  0  0
    6.7647   -0.3374   -0.1147 C   0  0  0  0  0  0  0  0  0  0  0  0
   -7.8060    0.1138    0.3324 C   0  0  0  0  0  0  0  0  0  0  0  0
   -0.6183   -1.5175    1.1508 H   0  0  0  0  0  0  0  0  0  0  0  0
   -1.6109   -0.1360    2.5929 H   0  0  0  0  0  0  0  0  0  0  0  0
   -0.6751    1.2625    2.0451 H   0  0  0  0  0  0  0  0  0  0  0  0
   -1.1401    0.2366   -1.2688 H   0  0  0  0  0  0  0  0  0  0  0  0
   -1.5041   -1.4843   -1.0146 H   0  0  0  0  0  0  0  0  0  0  0  0
   -2.2927    1.8832    0.4547 H   0  0  0  0  0  0  0  0  0  0  0  0
   -3.3662    1.1102    1.6472 H   0  0  0  0  0  0  0  0  0  0  0  0
   -3.4974    1.2520   -1.4456 H   0  0  0  0  0  0  0  0  0  0  0  0
   -3.6623   -0.4266   -1.8873 H   0  0  0  0  0  0  0  0  0  0  0  0
    1.7717   -1.9425    1.0812 H   0  0  0  0  0  0  0  0  0  0  0  0
    4.6331   -1.8153    0.7320 H   0  0  0  0  0  0  0  0  0  0  0  0
    3.3505    2.6936   -1.0471 H   0  0  0  0  0  0  0  0  0  0  0  0
   -5.3356    2.3508   -0.3185 H   0  0  0  0  0  0  0  0  0  0  0  0
    5.7158    2.0038   -0.9985 H   0  0  0  0  0  0  0  0  0  0  0  0
   -7.6439   -2.0219    0.1017 H   0  0  0  0  0  0  0  0  0  0  0  0
   -7.6751    2.2597    0.4652 H   0  0  0  0  0  0  0  0  0  0  0  0
   -8.8350    0.0770    0.6781 H   0  0  0  0  0  0  0  0  0  0  0  0
  1 19  1  0  0  0  0
  2 25  1  0  0  0  0
  3 25  1  0  0  0  0
  4 25  1  0  0  0  0
  5 10  1  0  0  0  0
  5 11  1  0  0  0  0
  5 13  1  0  0  0  0
  6 12  1  0  0  0  0
  6 15  1  0  0  0  0
  6 36  1  0  0  0  0
  7 12  2  0  0  0  0
  7 16  1  0  0  0  0
  8  9  1  0  0  0  0
  8 10  1  0  0  0  0
  8 12  1  0  0  0  0
  8 27  1  0  0  0  0
  9 11  1  0  0  0  0
  9 28  1  0  0  0  0
  9 29  1  0  0  0  0
 10 30  1  0  0  0  0
 10 31  1  0  0  0  0
 11 32  1  0  0  0  0
 11 33  1  0  0  0  0
 13 14  1  0  0  0  0
 13 34  1  0  0  0  0
 13 35  1  0  0  0  0
 14 19  1  0  0  0  0
 14 20  2  0  0  0  0
 15 16  2  0  0  0  0
 15 17  1  0  0  0  0
 16 18  1  0  0  0  0
 17 21  2  0  0  0  0
 17 37  1  0  0  0  0
 18 22  2  0  0  0  0
 18 38  1  0  0  0  0
 19 23  2  0  0  0  0
 20 24  1  0  0  0  0
 20 39  1  0  0  0  0
 21 22  1  0  0  0  0
 21 25  1  0  0  0  0
 22 40  1  0  0  0  0
 23 26  1  0  0  0  0
 23 41  1  0  0  0  0
 24 26  2  0  0  0  0
 24 42  1  0  0  0  0
 26 43  1  0  0  0  0
M  END
> <PUBCHEM_COMPOUND_CID>
45784264

> <PUBCHEM_CONFORMER_RMSD>
0.8

> <PUBCHEM_CONFORMER_DIVERSEORDER>
1
47
71
52
33
70
11
54
68
50
45
48
19
73
78
49
14
64
3
18
24
51
81
61
53
80
41
67
36
79
20
76
44
83
32
65
13
60
72
27
46
57
55
56
30
82
17
8
58
75
7
62
37
43
12
16
22
25
28
69
40
31
74
2
59
21
77
9
10
6
5
29
4
39
34
63
35
42
26
38
66
23
15
84

> <PUBCHEM_MMFF94_PARTIAL_CHARGES>
33
1 -0.19
10 0.27
11 0.27
12 0.01
13 0.41
14 -0.14
15 -0.15
16 0.23
17 -0.15
18 -0.15
19 0.19
2 -0.34
20 -0.15
21 -0.14
22 -0.15
23 -0.15
24 -0.15
25 1.16
26 -0.15
3 -0.34
36 0.27
37 0.15
38 0.15
39 0.15
4 -0.34
40 0.15
41 0.15
42 0.15
43 0.15
5 -0.81
6 0.03
7 -0.57
8 0.18

> <PUBCHEM_EFFECTIVE_ROTOR_COUNT>
5

> <PUBCHEM_PHARMACOPHORE_FEATURES>
7
1 5 cation
1 6 donor
3 6 7 12 cation
5 5 8 9 10 11 rings
5 6 7 12 15 16 rings
6 14 19 20 23 24 26 rings
6 15 16 17 18 21 22 rings

> <PUBCHEM_HEAVY_ATOM_COUNT>
26

> <PUBCHEM_ATOM_DEF_STEREO_COUNT>
1

> <PUBCHEM_ATOM_UDEF_STEREO_COUNT>
0

> <PUBCHEM_BOND_DEF_STEREO_COUNT>
0

> <PUBCHEM_BOND_UDEF_STEREO_COUNT>
0

> <PUBCHEM_ISOTOPIC_ATOM_COUNT>
0

> <PUBCHEM_COMPONENT_COUNT>
1

> <PUBCHEM_CACTVS_TAUTO_COUNT>
2

> <PUBCHEM_CONFORMER_ID>
02BA9CC800000001

> <PUBCHEM_MMFF94_ENERGY>
47.3463

> <PUBCHEM_FEATURE_SELFOVERLAP>
35.63

> <PUBCHEM_SHAPE_FINGERPRINT>
10 15 12107791812926410294
10066227 49 18059017168664846646
10299344 5 18408886248278638623
10595046 47 18334292059630453569
106641 1 11530491033982199477
11135926 11 18340758270028249551
11315181 36 16343984719955222923
11408170 108 18058450899451012286
11524674 6 16558747940978788511
11719270 70 17989488502889175598
12091667 2 18259705597543992569
12166972 35 18335139816775485340
12236239 1 18342457058014950860
12730499 353 17313103033787485707
13533116 47 16588292853055731424
13668630 136 18343304756137573462
13885169 127 18343585114406858697
13914758 101 18335985285350521600
14170010 4 18113336427632080812
14251752 14 18202001027883771153
14251764 18 17676487237437360304
14251764 46 18411418410086864371
14294032 229 17701553809308053025
14856354 85 18343302596433583911
14933364 13 18407760339713380637
15183329 4 18260259746618904799
15419008 47 16773791476567663680
15840311 113 10809352139882545874
15849732 13 18273494576535300964
17093844 174 15123790691751436751
18006028 8 13830130590049480883
18681886 176 18343013428052010322
19841028 212 18269837524249225806
20281389 69 13479133501725536382
21033648 29 17168428293921669840
21095086 128 18260829319934382835
21150785 3 18407760344029219402
21267235 1 18411140229350245181
21315763 28 18408885157378083421
21792961 116 18060420184540864689
221357 26 18113334206880950324
22224240 67 10663816369376124468
23035841 295 18272370889000773975
23198884 109 18259985985751727929
23536379 177 18409165507115489041
23559900 14 17703496800613647097
23569943 247 16951954060252441747
23576562 1 17532390840434535286
249057 3 18409447007840813703
2838139 119 17530682117333213949
29717793 49 18272656744812510828
3004659 81 18411697690414460264
314173 85 15195288642586189377
335352 9 18041002843691371934
3545911 37 17240482511402724305
4073 2 17749394822567310155
4098825 35 18334293128613281453
4325135 7 18334294271570181631
4339292 15 17417237862935513463
4340502 62 14836405822735184492
5283156 175 17918278627640856778
5758199 1 17530965774295462907
59755656 215 17603867784658049746
59755656 520 17095520721133602851
9663363 56 16343980300238657513

> <PUBCHEM_SHAPE_MULTIPOLES>
491.03
24
1.44
1.01
0.61
0.03
0.2
-1.48
-2.81
-0.47
-0.22
-0.07
0.01
-0.9

> <PUBCHEM_SHAPE_SELFOVERLAP>
1082.453

> <PUBCHEM_SHAPE_VOLUME>
268.4

> <PUBCHEM_COORDINATE_TYPE>
2
5
10

$$$$
