38027302
  -OEChem-12032416143D

 66 68  0     1  0  0  0  0  0999 V2000
   -2.9290    2.6440   -1.4334 O   0  0  0  0  0  0  0  0  0  0  0  0
    0.7896   -2.1826    2.5193 O   0  0  0  0  0  0  0  0  0  0  0  0
   -0.6869    2.7316   -0.8279 N   0  0  0  0  0  0  0  0  0  0  0  0
    0.0577   -2.7585    0.3936 N   0  0  0  0  0  0  0  0  0  0  0  0
    6.7783    0.3205   -1.3208 N   0  0  0  0  0  0  0  0  0  0  0  0
   -2.4238   -1.0773    0.6381 C   0  0  1  0  0  0  0  0  0  0  0  0
   -2.3562   -2.5371    0.1237 C   0  0  1  0  0  0  0  0  0  0  0  0
   -3.2726   -0.2143   -0.3079 C   0  0  0  0  0  0  0  0  0  0  0  0
   -2.7139   -0.2008   -1.7432 C   0  0  2  0  0  0  0  0  0  0  0  0
   -2.9907   -1.0006    2.0591 C   0  0  0  0  0  0  0  0  0  0  0  0
   -2.3683   -1.5948   -2.2262 C   0  0  0  0  0  0  0  0  0  0  0  0
   -2.2258   -2.6292   -1.3786 C   0  0  0  0  0  0  0  0  0  0  0  0
   -1.5048    0.7345   -1.8565 C   0  0  0  0  0  0  0  0  0  0  0  0
   -1.2047   -3.3035    0.7842 C   0  0  0  0  0  0  0  0  0  0  0  0
   -0.6900    4.0663   -0.2818 C   0  0  0  0  0  0  0  0  0  0  0  0
   -2.5121    0.2695    2.7551 C   0  0  0  0  0  0  0  0  0  0  0  0
   -4.5145   -1.0589    2.0278 C   0  0  0  0  0  0  0  0  0  0  0  0
    0.6820    4.7199   -0.3864 C   0  0  0  0  0  0  0  0  0  0  0  0
   -0.9501    4.0656    1.2199 C   0  0  0  0  0  0  0  0  0  0  0  0
   -2.2350   -1.7831   -3.7118 C   0  0  0  0  0  0  0  0  0  0  0  0
   -1.8165    2.1289   -1.3618 C   0  0  0  0  0  0  0  0  0  0  0  0
    1.4586    4.1750    0.8091 C   0  0  0  0  0  0  0  0  0  0  0  0
    0.4120    3.7945    1.8566 C   0  0  0  0  0  0  0  0  0  0  0  0
    0.9716   -2.2319    1.3056 C   0  0  0  0  0  0  0  0  0  0  0  0
    2.2281   -1.6796    0.7371 C   0  0  0  0  0  0  0  0  0  0  0  0
    2.9166   -0.6729    1.4144 C   0  0  0  0  0  0  0  0  0  0  0  0
    2.7196   -2.1677   -0.4736 C   0  0  0  0  0  0  0  0  0  0  0  0
    4.0966   -0.1546    0.8808 C   0  0  0  0  0  0  0  0  0  0  0  0
    3.8995   -1.6492   -1.0073 C   0  0  0  0  0  0  0  0  0  0  0  0
    4.5880   -0.6426   -0.3301 C   0  0  0  0  0  0  0  0  0  0  0  0
    5.7967   -0.1111   -0.8768 C   0  0  0  0  0  0  0  0  0  0  0  0
   -1.4101   -0.6580    0.6492 H   0  0  0  0  0  0  0  0  0  0  0  0
   -3.2855   -3.0603    0.3819 H   0  0  0  0  0  0  0  0  0  0  0  0
   -3.4018    0.7950    0.0891 H   0  0  0  0  0  0  0  0  0  0  0  0
   -4.2842   -0.6333   -0.3967 H   0  0  0  0  0  0  0  0  0  0  0  0
   -3.5146    0.1933   -2.3848 H   0  0  0  0  0  0  0  0  0  0  0  0
   -2.6314   -1.8428    2.6591 H   0  0  0  0  0  0  0  0  0  0  0  0
   -2.0240   -3.6181   -1.7857 H   0  0  0  0  0  0  0  0  0  0  0  0
   -1.1929    0.8355   -2.9033 H   0  0  0  0  0  0  0  0  0  0  0  0
   -0.6493    0.3188   -1.3103 H   0  0  0  0  0  0  0  0  0  0  0  0
   -1.2093   -4.3490    0.4526 H   0  0  0  0  0  0  0  0  0  0  0  0
   -1.2979   -3.3225    1.8734 H   0  0  0  0  0  0  0  0  0  0  0  0
   -1.4487    4.6546   -0.8091 H   0  0  0  0  0  0  0  0  0  0  0  0
   -2.8654    1.1757    2.2541 H   0  0  0  0  0  0  0  0  0  0  0  0
   -1.4181    0.3077    2.7941 H   0  0  0  0  0  0  0  0  0  0  0  0
   -2.8787    0.3010    3.7870 H   0  0  0  0  0  0  0  0  0  0  0  0
   -4.9741   -0.1360    1.6586 H   0  0  0  0  0  0  0  0  0  0  0  0
   -4.8901   -1.1893    3.0504 H   0  0  0  0  0  0  0  0  0  0  0  0
   -4.8934   -1.9071    1.4500 H   0  0  0  0  0  0  0  0  0  0  0  0
    0.5822    5.8077   -0.2854 H   0  0  0  0  0  0  0  0  0  0  0  0
    1.1913    4.5145   -1.3333 H   0  0  0  0  0  0  0  0  0  0  0  0
   -1.7005    3.3332    1.5329 H   0  0  0  0  0  0  0  0  0  0  0  0
   -1.2992    5.0574    1.5329 H   0  0  0  0  0  0  0  0  0  0  0  0
   -3.1484   -1.4571   -4.2196 H   0  0  0  0  0  0  0  0  0  0  0  0
   -2.0647   -2.8310   -3.9811 H   0  0  0  0  0  0  0  0  0  0  0  0
   -1.3931   -1.2028   -4.1011 H   0  0  0  0  0  0  0  0  0  0  0  0
    2.1709    4.9123    1.1931 H   0  0  0  0  0  0  0  0  0  0  0  0
    2.0325    3.2870    0.5189 H   0  0  0  0  0  0  0  0  0  0  0  0
    0.5108    2.7333    2.1128 H   0  0  0  0  0  0  0  0  0  0  0  0
    0.5366    4.3671    2.7814 H   0  0  0  0  0  0  0  0  0  0  0  0
    0.1791    2.2028   -0.7787 H   0  0  0  0  0  0  0  0  0  0  0  0
    0.2726   -2.7587   -0.5973 H   0  0  0  0  0  0  0  0  0  0  0  0
    2.5467   -0.2755    2.3559 H   0  0  0  0  0  0  0  0  0  0  0  0
    2.2337   -2.9722   -1.0173 H   0  0  0  0  0  0  0  0  0  0  0  0
    4.6210    0.6310    1.4194 H   0  0  0  0  0  0  0  0  0  0  0  0
    4.2740   -2.0444   -1.9487 H   0  0  0  0  0  0  0  0  0  0  0  0
  1 21  2  0  0  0  0
  2 24  2  0  0  0  0
  3 15  1  0  0  0  0
  3 21  1  0  0  0  0
  3 61  1  0  0  0  0
  4 14  1  0  0  0  0
  4 24  1  0  0  0  0
  4 62  1  0  0  0  0
  5 31  3  0  0  0  0
  6  7  1  0  0  0  0
  6  8  1  0  0  0  0
  6 10  1  0  0  0  0
  6 32  1  0  0  0  0
  7 12  1  0  0  0  0
  7 14  1  0  0  0  0
  7 33  1  0  0  0  0
  8  9  1  0  0  0  0
  8 34  1  0  0  0  0
  8 35  1  0  0  0  0
  9 11  1  0  0  0  0
  9 13  1  0  0  0  0
  9 36  1  0  0  0  0
 10 16  1  0  0  0  0
 10 17  1  0  0  0  0
 10 37  1  0  0  0  0
 11 12  2  0  0  0  0
 11 20  1  0  0  0  0
 12 38  1  0  0  0  0
 13 21  1  0  0  0  0
 13 39  1  0  0  0  0
 13 40  1  0  0  0  0
 14 41  1  0  0  0  0
 14 42  1  0  0  0  0
 15 18  1  0  0  0  0
 15 19  1  0  0  0  0
 15 43  1  0  0  0  0
 16 44  1  0  0  0  0
 16 45  1  0  0  0  0
 16 46  1  0  0  0  0
 17 47  1  0  0  0  0
 17 48  1  0  0  0  0
 17 49  1  0  0  0  0
 18 22  1  0  0  0  0
 18 50  1  0  0  0  0
 18 51  1  0  0  0  0
 19 23  1  0  0  0  0
 19 52  1  0  0  0  0
 19 53  1  0  0  0  0
 20 54  1  0  0  0  0
 20 55  1  0  0  0  0
 20 56  1  0  0  0  0
 22 23  1  0  0  0  0
 22 57  1  0  0  0  0
 22 58  1  0  0  0  0
 23 59  1  0  0  0  0
 23 60  1  0  0  0  0
 24 25  1  0  0  0  0
 25 26  2  0  0  0  0
 25 27  1  0  0  0  0
 26 28  1  0  0  0  0
 26 63  1  0  0  0  0
 27 29  2  0  0  0  0
 27 64  1  0  0  0  0
 28 30  2  0  0  0  0
 28 65  1  0  0  0  0
 29 30  1  0  0  0  0
 29 66  1  0  0  0  0
 30 31  1  0  0  0  0
M  END
> <PUBCHEM_COMPOUND_CID>
38027302

> <PUBCHEM_CONFORMER_RMSD>
1

> <PUBCHEM_CONFORMER_DIVERSEORDER>
1
43
97
153
138
208
163
203
121
247
21
172
120
102
31
44
148
86
181
7
45
65
40
110
209
218
116
70
90
155
152
169
62
8
244
215
108
193
191
12
132
61
80
109
41
74
161
165
72
239
82
207
2
156
235
13
75
79
18
28
125
47
6
173
167
5
198
24
160
232
188
106
56
236
242
48
107
83
184
248
201
204
58
87
57
145
11
98
94
164
243
216
3
84
174
143
149
37
49
22
233
54
16
186
231
38
100
170
129
225
151
99
68
224
147
92
226
157
202
19
210
36
4
176
177
205
32
64
105
131
245
63
228
95
166
104
112
50
29
200
113
185
39
128
130
249
66
69
158
162
77
134
240
159
195
59
55
189
73
60
51
219
168
135
78
26
81
96
180
222
196
126
206
111
223
217
14
234
10
241
141
144
133
199
85
229
101
15
171
123
117
211
35
122
197
142
124
213
246
146
115
137
212
34
118
139
93
140
42
89
187
103
237
227
17
46
27
114
190
194
20
76
230
214
127
119
175
150
88
192
30
53
9
33
179
67
182
91
25
220
238
221
178
52
183
23
154
136
71

> <PUBCHEM_MMFF94_PARTIAL_CHARGES>
29
1 -0.57
11 -0.28
12 -0.29
13 0.06
14 0.3
15 0.3
2 -0.57
20 0.14
21 0.57
24 0.54
25 0.09
26 -0.15
27 -0.15
28 -0.15
29 -0.15
3 -0.73
30 0.07
31 0.48
38 0.15
4 -0.73
5 -0.56
61 0.37
62 0.37
63 0.15
64 0.15
65 0.15
66 0.15
7 0.14
9 0.14

> <PUBCHEM_EFFECTIVE_ROTOR_COUNT>
10.8

> <PUBCHEM_PHARMACOPHORE_FEATURES>
9
1 1 acceptor
1 2 acceptor
1 3 donor
1 4 donor
1 5 acceptor
3 10 16 17 hydrophobe
5 15 18 19 22 23 rings
6 25 26 27 28 29 30 rings
6 6 7 8 9 11 12 rings

> <PUBCHEM_HEAVY_ATOM_COUNT>
31

> <PUBCHEM_ATOM_DEF_STEREO_COUNT>
3

> <PUBCHEM_ATOM_UDEF_STEREO_COUNT>
0

> <PUBCHEM_BOND_DEF_STEREO_COUNT>
0

> <PUBCHEM_BOND_UDEF_STEREO_COUNT>
0

> <PUBCHEM_ISOTOPIC_ATOM_COUNT>
0

> <PUBCHEM_COMPONENT_COUNT>
1

> <PUBCHEM_CACTVS_TAUTO_COUNT>
4

> <PUBCHEM_CONFORMER_ID>
0244402600000001

> <PUBCHEM_MMFF94_ENERGY>
62.0567

> <PUBCHEM_FEATURE_SELFOVERLAP>
45.671

> <PUBCHEM_SHAPE_FINGERPRINT>
10006869 2 18120938291906655323
10816530 145 18263659505397356970
11059048 146 17763751988300675020
12156800 1 16894615581199202025
12788726 201 18195510502970212324
13761468 95 18128550262519358350
14114206 34 18264746827876227148
14279260 333 17901951838580527466
17980427 23 18129682833032794363
20764821 26 18191842644128676616
35225 105 17836635332176146137
5081480 168 18128543845864721632
57527306 92 18342190942321397787
57527573 199 15383321206556174291
6287921 2 17693937797004055122

> <PUBCHEM_SHAPE_MULTIPOLES>
611.28
8.75
6.05
2.85
14.87
9.28
-0.57
-4.34
-1.74
-0.44
0.6
-2.86
-1.02
0.11

> <PUBCHEM_SHAPE_SELFOVERLAP>
1272.906

> <PUBCHEM_SHAPE_VOLUME>
344.2

> <PUBCHEM_COORDINATE_TYPE>
2
5
10

$$$$
