45783719
  -OEChem-12032416273D

 48 51  0     1  0  0  0  0  0999 V2000
    1.8473    2.2217    1.5126 O   0  0  0  0  0  0  0  0  0  0  0  0
   -7.6344   -1.5208    0.0555 O   0  0  0  0  0  0  0  0  0  0  0  0
    3.9174    0.1198   -0.7025 N   0  0  0  0  0  0  0  0  0  0  0  0
    1.0714    0.9107   -0.1292 N   0  0  0  0  0  0  0  0  0  0  0  0
    3.7839   -1.2125    1.1941 N   0  0  0  0  0  0  0  0  0  0  0  0
    4.5878   -2.0942   -0.8997 N   0  0  0  0  0  0  0  0  0  0  0  0
    0.4586    2.1619    1.6854 N   0  0  0  0  0  0  0  0  0  0  0  0
   -3.6143    1.2061    1.1282 N   0  0  0  0  0  0  0  0  0  0  0  0
   -5.2921    0.0663   -0.1214 N   0  0  0  0  0  0  0  0  0  0  0  0
    3.5854    1.3582    0.0205 C   0  0  1  0  0  0  0  0  0  0  0  0
    3.9833    2.4669   -0.9699 C   0  0  0  0  0  0  0  0  0  0  0  0
    3.7862    1.8274   -2.3348 C   0  0  0  0  0  0  0  0  0  0  0  0
    4.2198    0.3818   -2.1119 C   0  0  0  0  0  0  0  0  0  0  0  0
    2.1242    1.4585    0.4231 C   0  0  0  0  0  0  0  0  0  0  0  0
    4.1044   -1.1160   -0.1103 C   0  0  0  0  0  0  0  0  0  0  0  0
    0.0733    1.3708    0.6797 C   0  0  0  0  0  0  0  0  0  0  0  0
   -1.2998    1.0221    0.4547 C   0  0  0  0  0  0  0  0  0  0  0  0
    3.9786   -2.4311    1.7394 C   0  0  0  0  0  0  0  0  0  0  0  0
    4.7577   -3.2858   -0.2902 C   0  0  0  0  0  0  0  0  0  0  0  0
    4.4675   -3.5152    1.0392 C   0  0  0  0  0  0  0  0  0  0  0  0
   -1.6655    0.1971   -0.6033 C   0  0  0  0  0  0  0  0  0  0  0  0
   -2.3031    1.4962    1.2842 C   0  0  0  0  0  0  0  0  0  0  0  0
   -3.0046   -0.1238   -0.7964 C   0  0  0  0  0  0  0  0  0  0  0  0
   -3.9317    0.4015    0.0892 C   0  0  0  0  0  0  0  0  0  0  0  0
   -5.7218   -0.7744   -1.1911 C   0  0  0  0  0  0  0  0  0  0  0  0
   -7.2343   -0.9143   -1.1668 C   0  0  0  0  0  0  0  0  0  0  0  0
   -9.0450   -1.6787    0.1215 C   0  0  0  0  0  0  0  0  0  0  0  0
    4.2042    1.4544    0.9220 H   0  0  0  0  0  0  0  0  0  0  0  0
    3.4085    3.3911   -0.8538 H   0  0  0  0  0  0  0  0  0  0  0  0
    5.0455    2.7099   -0.8392 H   0  0  0  0  0  0  0  0  0  0  0  0
    4.3623    2.3199   -3.1232 H   0  0  0  0  0  0  0  0  0  0  0  0
    2.7265    1.8621   -2.6150 H   0  0  0  0  0  0  0  0  0  0  0  0
    5.2966    0.2773   -2.2885 H   0  0  0  0  0  0  0  0  0  0  0  0
    3.6791   -0.2945   -2.7825 H   0  0  0  0  0  0  0  0  0  0  0  0
    5.1467   -4.0778   -0.9212 H   0  0  0  0  0  0  0  0  0  0  0  0
    3.7220   -2.5150    2.7900 H   0  0  0  0  0  0  0  0  0  0  0  0
    4.6136   -4.4818    1.5023 H   0  0  0  0  0  0  0  0  0  0  0  0
   -0.9287   -0.2094   -1.2914 H   0  0  0  0  0  0  0  0  0  0  0  0
   -2.1018    2.1447    2.1318 H   0  0  0  0  0  0  0  0  0  0  0  0
   -3.2547   -0.7702   -1.6293 H   0  0  0  0  0  0  0  0  0  0  0  0
   -5.9598    0.4539    0.5353 H   0  0  0  0  0  0  0  0  0  0  0  0
   -5.4342   -0.3556   -2.1624 H   0  0  0  0  0  0  0  0  0  0  0  0
   -5.2800   -1.7727   -1.0853 H   0  0  0  0  0  0  0  0  0  0  0  0
   -7.7087    0.0705   -1.2586 H   0  0  0  0  0  0  0  0  0  0  0  0
   -7.5568   -1.5394   -2.0076 H   0  0  0  0  0  0  0  0  0  0  0  0
   -9.5429   -0.7056    0.0705 H   0  0  0  0  0  0  0  0  0  0  0  0
   -9.3972   -2.3257   -0.6877 H   0  0  0  0  0  0  0  0  0  0  0  0
   -9.2944   -2.1481    1.0769 H   0  0  0  0  0  0  0  0  0  0  0  0
  1  7  1  0  0  0  0
  1 14  1  0  0  0  0
  2 26  1  0  0  0  0
  2 27  1  0  0  0  0
  3 10  1  0  0  0  0
  3 13  1  0  0  0  0
  3 15  1  0  0  0  0
  4 14  2  0  0  0  0
  4 16  1  0  0  0  0
  5 15  2  0  0  0  0
  5 18  1  0  0  0  0
  6 15  1  0  0  0  0
  6 19  2  0  0  0  0
  7 16  2  0  0  0  0
  8 22  1  0  0  0  0
  8 24  2  0  0  0  0
  9 24  1  0  0  0  0
  9 25  1  0  0  0  0
  9 41  1  0  0  0  0
 10 11  1  0  0  0  0
 10 14  1  0  0  0  0
 10 28  1  0  0  0  0
 11 12  1  0  0  0  0
 11 29  1  0  0  0  0
 11 30  1  0  0  0  0
 12 13  1  0  0  0  0
 12 31  1  0  0  0  0
 12 32  1  0  0  0  0
 13 33  1  0  0  0  0
 13 34  1  0  0  0  0
 16 17  1  0  0  0  0
 17 21  1  0  0  0  0
 17 22  2  0  0  0  0
 18 20  2  0  0  0  0
 18 36  1  0  0  0  0
 19 20  1  0  0  0  0
 19 35  1  0  0  0  0
 20 37  1  0  0  0  0
 21 23  2  0  0  0  0
 21 38  1  0  0  0  0
 22 39  1  0  0  0  0
 23 24  1  0  0  0  0
 23 40  1  0  0  0  0
 25 26  1  0  0  0  0
 25 42  1  0  0  0  0
 25 43  1  0  0  0  0
 26 44  1  0  0  0  0
 26 45  1  0  0  0  0
 27 46  1  0  0  0  0
 27 47  1  0  0  0  0
 27 48  1  0  0  0  0
M  END
> <PUBCHEM_COMPOUND_CID>
45783719

> <PUBCHEM_CONFORMER_RMSD>
1

> <PUBCHEM_CONFORMER_DIVERSEORDER>
1
11
38
44
41
34
32
16
45
29
9
21
31
33
26
28
37
12
5
7
40
13
36
25
30
42
18
19
35
8
27
10
39
23
2
4
24
17
14
43
6
3
20
15
22

> <PUBCHEM_MMFF94_PARTIAL_CHARGES>
32
1 -0.02
10 0.55
13 0.37
14 0.3
15 0.72
16 0.46
17 0.05
18 0.16
19 0.16
2 -0.56
20 -0.15
21 -0.15
22 0.16
23 -0.15
24 0.41
25 0.37
26 0.28
27 0.28
3 -0.84
35 0.15
36 0.15
37 0.15
38 0.15
39 0.15
4 -0.57
40 0.15
41 0.4
5 -0.62
6 -0.62
7 -0.41
8 -0.62
9 -0.87

> <PUBCHEM_EFFECTIVE_ROTOR_COUNT>
8

> <PUBCHEM_PHARMACOPHORE_FEATURES>
10
1 2 acceptor
1 6 acceptor
1 9 donor
3 4 7 16 cation
3 8 9 24 cation
4 3 5 6 15 cation
5 1 4 7 14 16 rings
5 3 10 11 12 13 rings
6 5 6 15 18 19 20 rings
6 8 17 21 22 23 24 rings

> <PUBCHEM_HEAVY_ATOM_COUNT>
27

> <PUBCHEM_ATOM_DEF_STEREO_COUNT>
1

> <PUBCHEM_ATOM_UDEF_STEREO_COUNT>
0

> <PUBCHEM_BOND_DEF_STEREO_COUNT>
0

> <PUBCHEM_BOND_UDEF_STEREO_COUNT>
0

> <PUBCHEM_ISOTOPIC_ATOM_COUNT>
0

> <PUBCHEM_COMPONENT_COUNT>
1

> <PUBCHEM_CACTVS_TAUTO_COUNT>
8

> <PUBCHEM_CONFORMER_ID>
02BA9AA700000001

> <PUBCHEM_MMFF94_ENERGY>
73.4038

> <PUBCHEM_FEATURE_SELFOVERLAP>
50.747

> <PUBCHEM_SHAPE_FINGERPRINT>
10042902 136 17839191706287344414
10319926 262 16128666228311385233
10498660 4 12685391621032960942
10622 236 18192708934679322442
11801155 225 18268422620077545479
12166972 35 18262798458801435718
125118 31 9006791895265158391
12661589 4 18059289967517267287
13073987 5 18202278096060947969
13533116 47 18413102888081936259
13782708 43 18411972573502595039
14251740 57 18130222645654707982
14347332 77 18341328908210234073
15342168 16 7997964687110847857
15348495 7 12319736986207090133
15352257 5 18261393403833478179
15475509 35 18272922830251630115
17134984 74 18260831522635622154
17324776 126 17463958069297768339
1813 80 18118970187910800118
18681886 176 17274833463091200068
1979834 28 16343705408745354463
20626108 58 18267864983018397560
20721686 124 16950562225488576690
20775438 99 18187362164458389002
21304303 94 18187644734434949506
21344244 181 18113900477218898307
21360442 33 17968087595301589331
21599406 157 17677319641408932175
21641784 216 14707478154155435591
21792934 111 14333137360749122211
23081809 10 18411987953675317961
23522609 53 18126880203384575737
25222932 49 17915169333554346454
2748736 6 11097845299313101383
3004659 81 18410575050672696846
34797466 226 17022901294112993837
397830 11 11239708743509742813
4073 2 17983289619587386953
439807 62 18410293606204057199
46194498 28 17603301553407390084
5104073 3 17418374692911372297
5281201 14 17603869957953855556
5719381 36 17987221409235403063
59682541 52 17894345571087456637
7970288 3 18124874565009910302
960060 61 18260271841146843524
9831232 110 18114170892501742471

> <PUBCHEM_SHAPE_MULTIPOLES>
509.04
19.04
3.36
1.72
46.92
2.41
-0.25
15.21
-5.28
-6.41
0.74
-1.53
-0.56
-2.46

> <PUBCHEM_SHAPE_SELFOVERLAP>
1093.342

> <PUBCHEM_SHAPE_VOLUME>
280.6

> <PUBCHEM_COORDINATE_TYPE>
2
5
10

$$$$
