71693354
  -OEChem-12032416233D

 48 50  0     1  0  0  0  0  0999 V2000
   -2.0490   -1.8526    1.2068 O   0  0  0  0  0  0  0  0  0  0  0  0
    4.9295   -1.3400    0.4658 O   0  0  0  0  0  0  0  0  0  0  0  0
   -5.0146   -0.9069   -1.7457 O   0  0  0  0  0  0  0  0  0  0  0  0
   -3.2283    1.4343    2.1851 O   0  0  0  0  0  0  0  0  0  0  0  0
   -3.0843    0.5012    0.0607 N   0  0  0  0  0  0  0  0  0  0  0  0
    3.6575    0.3245   -0.6099 N   0  0  0  0  0  0  0  0  0  0  0  0
    6.0708    0.4935   -0.4354 C   0  0  0  0  0  0  0  0  0  0  0  0
    6.9650    0.8579    0.6999 C   0  0  0  0  0  0  0  0  0  0  0  0
    6.1455    1.9117    0.0173 C   0  0  0  0  0  0  0  0  0  0  0  0
   -2.8557   -0.7082   -0.7411 C   0  0  1  0  0  0  0  0  0  0  0  0
   -1.7111   -1.5545   -0.1529 C   0  0  1  0  0  0  0  0  0  0  0  0
    4.8252   -0.2819   -0.1393 C   0  0  0  0  0  0  0  0  0  0  0  0
   -3.6826    1.6491   -0.6085 C   0  0  0  0  0  0  0  0  0  0  0  0
   -0.2799   -1.0536   -0.2754 C   0  0  0  0  0  0  0  0  0  0  0  0
   -4.1503   -1.5311   -0.8188 C   0  0  0  0  0  0  0  0  0  0  0  0
   -2.9035    0.5085    1.4394 C   0  0  0  0  0  0  0  0  0  0  0  0
   -2.1869   -0.7055    2.0142 C   0  0  0  0  0  0  0  0  0  0  0  0
   -2.8193    2.8879   -0.4081 C   0  0  0  0  0  0  0  0  0  0  0  0
   -5.1032    1.8792   -0.1081 C   0  0  0  0  0  0  0  0  0  0  0  0
    2.3449   -0.1353   -0.4984 C   0  0  0  0  0  0  0  0  0  0  0  0
    0.7685   -1.8009    0.2616 C   0  0  0  0  0  0  0  0  0  0  0  0
   -0.0157    0.1527   -0.9241 C   0  0  0  0  0  0  0  0  0  0  0  0
    2.0809   -1.3418    0.1502 C   0  0  0  0  0  0  0  0  0  0  0  0
    1.2966    0.6119   -1.0355 C   0  0  0  0  0  0  0  0  0  0  0  0
    6.5532    0.2387   -1.3730 H   0  0  0  0  0  0  0  0  0  0  0  0
    8.0337    0.8578    0.5230 H   0  0  0  0  0  0  0  0  0  0  0  0
    6.6805    0.5752    1.7061 H   0  0  0  0  0  0  0  0  0  0  0  0
    5.3223    2.3393    0.5766 H   0  0  0  0  0  0  0  0  0  0  0  0
    6.6630    2.6185   -0.6201 H   0  0  0  0  0  0  0  0  0  0  0  0
   -2.5879   -0.4007   -1.7597 H   0  0  0  0  0  0  0  0  0  0  0  0
   -1.7119   -2.5166   -0.6836 H   0  0  0  0  0  0  0  0  0  0  0  0
   -3.7226    1.4467   -1.6852 H   0  0  0  0  0  0  0  0  0  0  0  0
   -4.6554   -1.6008    0.1504 H   0  0  0  0  0  0  0  0  0  0  0  0
   -3.9513   -2.5425   -1.1875 H   0  0  0  0  0  0  0  0  0  0  0  0
   -1.1919   -0.3776    2.3371 H   0  0  0  0  0  0  0  0  0  0  0  0
   -2.7310   -1.0106    2.9146 H   0  0  0  0  0  0  0  0  0  0  0  0
    3.7669    1.2088   -1.1018 H   0  0  0  0  0  0  0  0  0  0  0  0
   -2.7992    3.2376    0.6279 H   0  0  0  0  0  0  0  0  0  0  0  0
   -1.7851    2.7111   -0.7170 H   0  0  0  0  0  0  0  0  0  0  0  0
   -3.2052    3.7153   -1.0145 H   0  0  0  0  0  0  0  0  0  0  0  0
   -5.1361    2.2624    0.9163 H   0  0  0  0  0  0  0  0  0  0  0  0
   -5.7022    0.9646   -0.1330 H   0  0  0  0  0  0  0  0  0  0  0  0
   -5.6057    2.6217   -0.7383 H   0  0  0  0  0  0  0  0  0  0  0  0
    0.5744   -2.7434    0.7668 H   0  0  0  0  0  0  0  0  0  0  0  0
   -0.7913    0.7564   -1.3769 H   0  0  0  0  0  0  0  0  0  0  0  0
    2.8390   -1.9745    0.5902 H   0  0  0  0  0  0  0  0  0  0  0  0
    1.4887    1.5515   -1.5475 H   0  0  0  0  0  0  0  0  0  0  0  0
   -5.8288   -1.4371   -1.7830 H   0  0  0  0  0  0  0  0  0  0  0  0
  1 11  1  0  0  0  0
  1 17  1  0  0  0  0
  2 12  2  0  0  0  0
  3 15  1  0  0  0  0
  3 48  1  0  0  0  0
  4 16  2  0  0  0  0
  5 10  1  0  0  0  0
  5 13  1  0  0  0  0
  5 16  1  0  0  0  0
  6 12  1  0  0  0  0
  6 20  1  0  0  0  0
  6 37  1  0  0  0  0
  7  8  1  0  0  0  0
  7  9  1  0  0  0  0
  7 12  1  0  0  0  0
  7 25  1  0  0  0  0
  8  9  1  0  0  0  0
  8 26  1  0  0  0  0
  8 27  1  0  0  0  0
  9 28  1  0  0  0  0
  9 29  1  0  0  0  0
 10 11  1  0  0  0  0
 10 15  1  0  0  0  0
 10 30  1  0  0  0  0
 11 14  1  0  0  0  0
 11 31  1  0  0  0  0
 13 18  1  0  0  0  0
 13 19  1  0  0  0  0
 13 32  1  0  0  0  0
 14 21  2  0  0  0  0
 14 22  1  0  0  0  0
 15 33  1  0  0  0  0
 15 34  1  0  0  0  0
 16 17  1  0  0  0  0
 17 35  1  0  0  0  0
 17 36  1  0  0  0  0
 18 38  1  0  0  0  0
 18 39  1  0  0  0  0
 18 40  1  0  0  0  0
 19 41  1  0  0  0  0
 19 42  1  0  0  0  0
 19 43  1  0  0  0  0
 20 23  2  0  0  0  0
 20 24  1  0  0  0  0
 21 23  1  0  0  0  0
 21 44  1  0  0  0  0
 22 24  2  0  0  0  0
 22 45  1  0  0  0  0
 23 46  1  0  0  0  0
 24 47  1  0  0  0  0
M  END
> <PUBCHEM_COMPOUND_CID>
71693354

> <PUBCHEM_CONFORMER_RMSD>
0.8

> <PUBCHEM_CONFORMER_DIVERSEORDER>
3
12
7
8
14
24
10
19
4
25
17
15
23
16
26
6
5
27
11
21
18
9
13
2
20
1
22

> <PUBCHEM_MMFF94_PARTIAL_CHARGES>
33
1 -0.56
10 0.3
11 0.42
12 0.63
13 0.3
14 -0.14
15 0.28
16 0.57
17 0.34
2 -0.57
20 0.12
21 -0.15
22 -0.15
23 -0.15
24 -0.15
25 0.1
26 0.1
27 0.1
28 0.1
29 0.1
3 -0.68
37 0.37
4 -0.57
44 0.15
45 0.15
46 0.15
47 0.15
48 0.4
5 -0.66
6 -0.55
7 -0.1
8 -0.2
9 -0.2

> <PUBCHEM_EFFECTIVE_ROTOR_COUNT>
7.6

> <PUBCHEM_PHARMACOPHORE_FEATURES>
9
1 1 acceptor
1 2 acceptor
1 3 acceptor
1 3 donor
1 4 acceptor
1 6 donor
3 13 18 19 hydrophobe
6 1 5 10 11 16 17 rings
6 14 20 21 22 23 24 rings

> <PUBCHEM_HEAVY_ATOM_COUNT>
24

> <PUBCHEM_ATOM_DEF_STEREO_COUNT>
2

> <PUBCHEM_ATOM_UDEF_STEREO_COUNT>
0

> <PUBCHEM_BOND_DEF_STEREO_COUNT>
0

> <PUBCHEM_BOND_UDEF_STEREO_COUNT>
0

> <PUBCHEM_ISOTOPIC_ATOM_COUNT>
0

> <PUBCHEM_COMPONENT_COUNT>
1

> <PUBCHEM_CACTVS_TAUTO_COUNT>
6

> <PUBCHEM_CONFORMER_ID>
0445F42A00000003

> <PUBCHEM_MMFF94_ENERGY>
69.9153

> <PUBCHEM_FEATURE_SELFOVERLAP>
45.672

> <PUBCHEM_SHAPE_FINGERPRINT>
10 15 17895203216053941752
10076449 9 17274814797421196847
10291535 26 18408324389188972657
11089746 13 18409443700737224580
11315181 36 17821728381491978244
11370993 144 17967814895264174078
11405975 8 13840267022095292670
11524674 6 13695582256694341424
12107183 9 17903348217946116690
12236239 1 18342172263218710438
12507557 5 17822294629695589087
12616971 3 14490476409094231918
12633257 1 15647069156549368444
13631057 29 18130498755980097559
14251764 75 17197156058353850001
14466204 15 18408038503397133856
15183329 4 17561092367685916654
15209294 21 18408325475773305646
17093844 174 14129333035784525972
17844677 252 18411706491599073836
17980427 23 18272098222395807189
19489759 90 18343018917320985542
19784866 240 10879698893536887025
21033648 29 18271795865799520560
21150785 3 15410613744464263712
21236236 1 18411415115852340405
21315763 191 9079115583500210690
22950370 63 9079114471151381174
23035841 295 9655585118980047852
23379529 103 10230881488264779068
23466295 7 12606248864281798045
23559900 14 18267293412332175697
34797466 226 17489313044257232846
484985 159 11891336499859888145
5104073 3 18040431088743862050
90127 26 18409176493763261974
9981440 41 18187368714072018403

> <PUBCHEM_SHAPE_MULTIPOLES>
460.47
14.48
2.29
1.4
23.04
0.86
0.61
6.26
-0.06
-1.87
0.05
-1.69
-0.03
-0.4

> <PUBCHEM_SHAPE_SELFOVERLAP>
966.002

> <PUBCHEM_SHAPE_VOLUME>
257.2

> <PUBCHEM_COORDINATE_TYPE>
2
5
10

$$$$
