11912116
  -OEChem-12032416113D

 69 73  0     1  0  0  0  0  0999 V2000
    3.0824    1.8371    2.3331 O   0  0  0  0  0  0  0  0  0  0  0  0
    0.7326   -2.7574    1.6150 O   0  0  0  0  0  0  0  0  0  0  0  0
   -2.0278   -1.0695   -1.9866 O   0  0  0  0  0  0  0  0  0  0  0  0
   -7.0258    1.3228    1.4255 O   0  0  0  0  0  0  0  0  0  0  0  0
    4.1891    0.7089    0.6367 N   0  0  0  0  0  0  0  0  0  0  0  0
    2.4976   -1.9526    0.3123 N   0  0  0  0  0  0  0  0  0  0  0  0
    2.6658    2.4576    0.1662 N   0  0  0  0  0  0  0  0  0  0  0  0
   -1.0839   -2.5256   -0.4337 N   0  0  0  0  0  0  0  0  0  0  0  0
    4.8609   -1.6153    1.2391 C   0  0  1  0  0  0  0  0  0  0  0  0
    4.3748   -1.0509   -1.1063 C   0  0  2  0  0  0  0  0  0  0  0  0
    5.3053   -1.8552   -0.1994 C   0  0  0  0  0  0  0  0  0  0  0  0
    4.9394   -0.1168    1.5871 C   0  0  0  0  0  0  0  0  0  0  0  0
    4.5119    0.4486   -0.7769 C   0  0  0  0  0  0  0  0  0  0  0  0
    3.4436   -2.1743    1.4151 C   0  0  0  0  0  0  0  0  0  0  0  0
    2.9323   -1.4869   -0.9333 C   0  0  0  0  0  0  0  0  0  0  0  0
    3.3004    1.6801    1.1269 C   0  0  0  0  0  0  0  0  0  0  0  0
    1.7178    3.4913    0.5181 C   0  0  0  0  0  0  0  0  0  0  0  0
    2.0702   -1.3974   -1.9599 C   0  0  0  0  0  0  0  0  0  0  0  0
    1.1581   -2.3263    0.5423 C   0  0  0  0  0  0  0  0  0  0  0  0
    1.7719    4.6517   -0.4813 C   0  0  0  0  0  0  0  0  0  0  0  0
    0.2995    2.9224    0.6323 C   0  0  0  0  0  0  0  0  0  0  0  0
    1.1750    4.2823   -1.8393 C   0  0  0  0  0  0  0  0  0  0  0  0
   -0.2950    2.5558   -0.7275 C   0  0  0  0  0  0  0  0  0  0  0  0
    0.2242   -2.1883   -0.6201 C   0  0  0  0  0  0  0  0  0  0  0  0
    0.6893   -1.7546   -1.7965 C   0  0  0  0  0  0  0  0  0  0  0  0
   -0.2401    3.7293   -1.7007 C   0  0  0  0  0  0  0  0  0  0  0  0
   -2.1367   -1.9438   -1.1302 C   0  0  0  0  0  0  0  0  0  0  0  0
   -3.4702   -2.5281   -0.7017 C   0  0  0  0  0  0  0  0  0  0  0  0
   -4.4168   -1.5031   -0.1349 C   0  0  0  0  0  0  0  0  0  0  0  0
   -4.4120   -1.2295    1.2328 C   0  0  0  0  0  0  0  0  0  0  0  0
   -5.2984   -0.8271   -0.9784 C   0  0  0  0  0  0  0  0  0  0  0  0
   -5.2889   -0.2800    1.7572 C   0  0  0  0  0  0  0  0  0  0  0  0
   -6.1754    0.1224   -0.4540 C   0  0  0  0  0  0  0  0  0  0  0  0
   -6.1707    0.3960    0.9137 C   0  0  0  0  0  0  0  0  0  0  0  0
   -7.9003    1.9766    0.5071 C   0  0  0  0  0  0  0  0  0  0  0  0
    5.5300   -2.1500    1.9245 H   0  0  0  0  0  0  0  0  0  0  0  0
    4.6901   -1.2093   -2.1457 H   0  0  0  0  0  0  0  0  0  0  0  0
    6.3456   -1.5361   -0.3369 H   0  0  0  0  0  0  0  0  0  0  0  0
    5.2617   -2.9237   -0.4452 H   0  0  0  0  0  0  0  0  0  0  0  0
    4.5910    0.0483    2.6119 H   0  0  0  0  0  0  0  0  0  0  0  0
    5.9822    0.2211    1.5456 H   0  0  0  0  0  0  0  0  0  0  0  0
    3.9048    1.0285   -1.4709 H   0  0  0  0  0  0  0  0  0  0  0  0
    5.5493    0.7731   -0.9276 H   0  0  0  0  0  0  0  0  0  0  0  0
    3.5083   -3.2646    1.5332 H   0  0  0  0  0  0  0  0  0  0  0  0
    2.9943   -1.7972    2.3425 H   0  0  0  0  0  0  0  0  0  0  0  0
    2.0063    3.8833    1.5012 H   0  0  0  0  0  0  0  0  0  0  0  0
    2.3816   -1.0311   -2.9326 H   0  0  0  0  0  0  0  0  0  0  0  0
    2.7706    2.2577   -0.8172 H   0  0  0  0  0  0  0  0  0  0  0  0
    2.8068    4.9878   -0.6187 H   0  0  0  0  0  0  0  0  0  0  0  0
    1.2130    5.5023   -0.0707 H   0  0  0  0  0  0  0  0  0  0  0  0
    0.2892    2.0385    1.2814 H   0  0  0  0  0  0  0  0  0  0  0  0
   -0.3469    3.6713    1.1077 H   0  0  0  0  0  0  0  0  0  0  0  0
    1.8102    3.5441   -2.3427 H   0  0  0  0  0  0  0  0  0  0  0  0
    1.1580    5.1697   -2.4824 H   0  0  0  0  0  0  0  0  0  0  0  0
    0.2488    1.7027   -1.1512 H   0  0  0  0  0  0  0  0  0  0  0  0
   -1.3348    2.2340   -0.5981 H   0  0  0  0  0  0  0  0  0  0  0  0
   -0.9091    4.5247   -1.3496 H   0  0  0  0  0  0  0  0  0  0  0  0
   -0.6100    3.4121   -2.6822 H   0  0  0  0  0  0  0  0  0  0  0  0
    0.0888   -1.6810   -2.6953 H   0  0  0  0  0  0  0  0  0  0  0  0
   -1.2969   -3.0578    0.4063 H   0  0  0  0  0  0  0  0  0  0  0  0
   -3.3390   -3.3419    0.0220 H   0  0  0  0  0  0  0  0  0  0  0  0
   -3.9162   -3.0010   -1.5863 H   0  0  0  0  0  0  0  0  0  0  0  0
   -3.7280   -1.7483    1.8991 H   0  0  0  0  0  0  0  0  0  0  0  0
   -5.3096   -1.0308   -2.0460 H   0  0  0  0  0  0  0  0  0  0  0  0
   -5.2801   -0.0705    2.8234 H   0  0  0  0  0  0  0  0  0  0  0  0
   -6.8328    0.6106   -1.1653 H   0  0  0  0  0  0  0  0  0  0  0  0
   -7.3431    2.5664   -0.2287 H   0  0  0  0  0  0  0  0  0  0  0  0
   -8.5905    1.2689    0.0352 H   0  0  0  0  0  0  0  0  0  0  0  0
   -8.5092    2.6796    1.0851 H   0  0  0  0  0  0  0  0  0  0  0  0
  1 16  2  0  0  0  0
  2 19  2  0  0  0  0
  3 27  2  0  0  0  0
  4 34  1  0  0  0  0
  4 35  1  0  0  0  0
  5 12  1  0  0  0  0
  5 13  1  0  0  0  0
  5 16  1  0  0  0  0
  6 14  1  0  0  0  0
  6 15  1  0  0  0  0
  6 19  1  0  0  0  0
  7 16  1  0  0  0  0
  7 17  1  0  0  0  0
  7 48  1  0  0  0  0
  8 24  1  0  0  0  0
  8 27  1  0  0  0  0
  8 60  1  0  0  0  0
  9 11  1  0  0  0  0
  9 12  1  0  0  0  0
  9 14  1  0  0  0  0
  9 36  1  0  0  0  0
 10 11  1  0  0  0  0
 10 13  1  0  0  0  0
 10 15  1  0  0  0  0
 10 37  1  0  0  0  0
 11 38  1  0  0  0  0
 11 39  1  0  0  0  0
 12 40  1  0  0  0  0
 12 41  1  0  0  0  0
 13 42  1  0  0  0  0
 13 43  1  0  0  0  0
 14 44  1  0  0  0  0
 14 45  1  0  0  0  0
 15 18  2  0  0  0  0
 17 20  1  0  0  0  0
 17 21  1  0  0  0  0
 17 46  1  0  0  0  0
 18 25  1  0  0  0  0
 18 47  1  0  0  0  0
 19 24  1  0  0  0  0
 20 22  1  0  0  0  0
 20 49  1  0  0  0  0
 20 50  1  0  0  0  0
 21 23  1  0  0  0  0
 21 51  1  0  0  0  0
 21 52  1  0  0  0  0
 22 26  1  0  0  0  0
 22 53  1  0  0  0  0
 22 54  1  0  0  0  0
 23 26  1  0  0  0  0
 23 55  1  0  0  0  0
 23 56  1  0  0  0  0
 24 25  2  0  0  0  0
 25 59  1  0  0  0  0
 26 57  1  0  0  0  0
 26 58  1  0  0  0  0
 27 28  1  0  0  0  0
 28 29  1  0  0  0  0
 28 61  1  0  0  0  0
 28 62  1  0  0  0  0
 29 30  2  0  0  0  0
 29 31  1  0  0  0  0
 30 32  1  0  0  0  0
 30 63  1  0  0  0  0
 31 33  2  0  0  0  0
 31 64  1  0  0  0  0
 32 34  2  0  0  0  0
 32 65  1  0  0  0  0
 33 34  1  0  0  0  0
 33 66  1  0  0  0  0
 35 67  1  0  0  0  0
 35 68  1  0  0  0  0
 35 69  1  0  0  0  0
M  END
> <PUBCHEM_COMPOUND_CID>
11912116

> <PUBCHEM_CONFORMER_RMSD>
1

> <PUBCHEM_CONFORMER_DIVERSEORDER>
1
97
7
66
55
83
76
71
67
59
50
57
43
69
30
64
22
54
8
42
94
85
101
53
86
80
96
52
92
40
73
84
48
91
13
95
35
56
27
98
72
21
70
33
74
16
6
25
41
44
68
45
75
93
90
24
18
47
11
32
9
12
5
65
89
81
63
17
79
100
10
19
36
77
46
29
15
2
31
20
87
3
61
88
99
4
78
23
28
62
51
34
60
26
82
49
39
38
37
14
58

> <PUBCHEM_MMFF94_PARTIAL_CHARGES>
36
1 -0.57
10 0.14
12 0.3
13 0.3
14 0.3
15 -0.03
16 0.69
17 0.3
18 -0.15
19 0.62
2 -0.57
24 0.12
25 -0.15
27 0.57
28 0.2
29 -0.14
3 -0.57
30 -0.15
31 -0.15
32 -0.15
33 -0.15
34 0.08
35 0.28
4 -0.36
47 0.15
48 0.37
5 -0.66
59 0.15
6 -0.47
60 0.37
63 0.15
64 0.15
65 0.15
66 0.15
7 -0.73
8 -0.54

> <PUBCHEM_EFFECTIVE_ROTOR_COUNT>
10.2

> <PUBCHEM_PHARMACOPHORE_FEATURES>
11
1 1 acceptor
1 2 acceptor
1 3 acceptor
1 4 acceptor
1 7 donor
1 8 donor
6 17 20 21 22 23 26 rings
6 29 30 31 32 33 34 rings
6 5 9 10 11 12 13 rings
6 6 15 18 19 24 25 rings
6 6 9 10 11 14 15 rings

> <PUBCHEM_HEAVY_ATOM_COUNT>
35

> <PUBCHEM_ATOM_DEF_STEREO_COUNT>
2

> <PUBCHEM_ATOM_UDEF_STEREO_COUNT>
0

> <PUBCHEM_BOND_DEF_STEREO_COUNT>
0

> <PUBCHEM_BOND_UDEF_STEREO_COUNT>
0

> <PUBCHEM_ISOTOPIC_ATOM_COUNT>
0

> <PUBCHEM_COMPONENT_COUNT>
1

> <PUBCHEM_CACTVS_TAUTO_COUNT>
4

> <PUBCHEM_CONFORMER_ID>
00B5C3B400000001

> <PUBCHEM_MMFF94_ENERGY>
88.5077

> <PUBCHEM_FEATURE_SELFOVERLAP>
57.404

> <PUBCHEM_SHAPE_FINGERPRINT>
10864689 126 17765439747197314469
11059048 146 17325495899990840301
12422481 6 18342451560741791433
13150687 139 9438825262889605018
13560911 23 18266446775489437035
14020679 6 18040441027198179019
15001296 14 18271239521379212993
15475509 84 17972864870403069378
15781502 409 17539438799677199278
20715895 44 17918275341922868803
21860390 5 18268708501541586334
21987440 362 17690283029492681252
22122407 14 18411709772906589547
22223350 30 17459480025104719995
338550 245 18340773736083980737
3493558 16 17846228751691159403
3680242 22 18409444778178170330
392239 28 18334283271478909335
4144715 1 18269560601035840342
550186 83 18042104574841833536
6086070 43 18263339500432713695

> <PUBCHEM_SHAPE_MULTIPOLES>
676.88
15.22
5.31
1.95
28.3
6.74
-0.02
-0.9
-6
-2.94
1.35
-0.47
0.07
-0.81

> <PUBCHEM_SHAPE_SELFOVERLAP>
1452.446

> <PUBCHEM_SHAPE_VOLUME>
365.8

> <PUBCHEM_COORDINATE_TYPE>
2
5
10

$$$$
