11885093
  -OEChem-12032416133D

 78 81  0     1  0  0  0  0  0999 V2000
   -1.1264    3.2213    0.2554 S   0  0  0  0  0  0  0  0  0  0  0  0
    5.9379   -1.8631   -1.7720 F   0  0  0  0  0  0  0  0  0  0  0  0
    4.6071   -1.6841    2.7693 F   0  0  0  0  0  0  0  0  0  0  0  0
   -7.9620   -0.5172   -0.7059 O   0  0  0  0  0  0  0  0  0  0  0  0
   -7.9803    1.2630    0.8989 O   0  0  0  0  0  0  0  0  0  0  0  0
   -0.0139   -1.6812   -1.5533 O   0  0  0  0  0  0  0  0  0  0  0  0
    2.8131    0.7789   -0.2312 O   0  0  0  0  0  0  0  0  0  0  0  0
   -0.1480    0.8507   -0.0849 N   0  0  0  0  0  0  0  0  0  0  0  0
    0.5003   -3.1824    0.1448 N   0  0  0  0  0  0  0  0  0  0  0  0
    1.4297    2.6663    0.0702 N   0  0  0  0  0  0  0  0  0  0  0  0
   -3.7225   -0.5402    0.3111 C   0  0  2  0  0  0  0  0  0  0  0  0
   -4.3848    0.7679   -0.3100 C   0  0  1  0  0  0  0  0  0  0  0  0
   -5.9603    0.8436   -0.3057 C   0  0  1  0  0  0  0  0  0  0  0  0
   -2.2046   -0.6068   -0.1840 C   0  0  1  0  0  0  0  0  0  0  0  0
   -4.4646   -1.7949   -0.2181 C   0  0  0  0  0  0  0  0  0  0  0  0
   -6.5393   -0.5053   -0.8188 C   0  0  1  0  0  0  0  0  0  0  0  0
   -3.6936    2.0597    0.2157 C   0  0  0  0  0  0  0  0  0  0  0  0
   -5.9788   -1.7181   -0.0842 C   0  0  0  0  0  0  0  0  0  0  0  0
   -3.7603   -0.5564    1.8591 C   0  0  0  0  0  0  0  0  0  0  0  0
   -1.5240    0.7287   -0.0264 C   0  0  0  0  0  0  0  0  0  0  0  0
   -6.5797    1.2261    1.0567 C   0  0  0  0  0  0  0  0  0  0  0  0
   -6.4174    1.9502   -1.2980 C   0  0  0  0  0  0  0  0  0  0  0  0
   -2.2116    1.9145    0.1335 C   0  0  0  0  0  0  0  0  0  0  0  0
   -1.3775   -1.7364    0.4446 C   0  0  0  0  0  0  0  0  0  0  0  0
   -0.2388   -2.1698   -0.4493 C   0  0  0  0  0  0  0  0  0  0  0  0
    0.1748    2.1177    0.0594 C   0  0  0  0  0  0  0  0  0  0  0  0
    1.6490   -3.7942   -0.4833 C   0  0  0  0  0  0  0  0  0  0  0  0
    2.6533    1.9843   -0.0722 C   0  0  0  0  0  0  0  0  0  0  0  0
    2.9244   -3.0813   -0.1378 C   0  0  0  0  0  0  0  0  0  0  0  0
    3.8304    2.9488   -0.0080 C   0  0  0  0  0  0  0  0  0  0  0  0
    5.1774    2.2449   -0.1589 C   0  0  0  0  0  0  0  0  0  0  0  0
    3.1777   -2.7050    1.1813 C   0  0  0  0  0  0  0  0  0  0  0  0
    3.8566   -2.7966   -1.1356 C   0  0  0  0  0  0  0  0  0  0  0  0
    6.3342    3.2444   -0.1282 C   0  0  0  0  0  0  0  0  0  0  0  0
    5.0421   -2.1357   -0.8143 C   0  0  0  0  0  0  0  0  0  0  0  0
    4.3631   -2.0439    1.5025 C   0  0  0  0  0  0  0  0  0  0  0  0
    7.6838    2.5367   -0.2454 C   0  0  0  0  0  0  0  0  0  0  0  0
    5.2954   -1.7593    0.5047 C   0  0  0  0  0  0  0  0  0  0  0  0
    8.8379    3.5242   -0.1817 C   0  0  0  0  0  0  0  0  0  0  0  0
   -4.1233    0.7136   -1.3812 H   0  0  0  0  0  0  0  0  0  0  0  0
   -2.2539   -0.7747   -1.2704 H   0  0  0  0  0  0  0  0  0  0  0  0
   -4.2232   -1.9442   -1.2789 H   0  0  0  0  0  0  0  0  0  0  0  0
   -4.1244   -2.6974    0.3022 H   0  0  0  0  0  0  0  0  0  0  0  0
   -6.3077   -0.6086   -1.8873 H   0  0  0  0  0  0  0  0  0  0  0  0
   -4.0041    2.9230   -0.3822 H   0  0  0  0  0  0  0  0  0  0  0  0
   -3.9757    2.2596    1.2548 H   0  0  0  0  0  0  0  0  0  0  0  0
   -6.4228   -2.6309   -0.5020 H   0  0  0  0  0  0  0  0  0  0  0  0
   -6.2862   -1.7111    0.9673 H   0  0  0  0  0  0  0  0  0  0  0  0
   -3.2723   -1.4527    2.2579 H   0  0  0  0  0  0  0  0  0  0  0  0
   -4.7714   -0.5825    2.2599 H   0  0  0  0  0  0  0  0  0  0  0  0
   -3.2495    0.3035    2.3010 H   0  0  0  0  0  0  0  0  0  0  0  0
   -6.2467    2.2128    1.3926 H   0  0  0  0  0  0  0  0  0  0  0  0
   -6.3647    0.5039    1.8402 H   0  0  0  0  0  0  0  0  0  0  0  0
   -5.9432    1.8188   -2.2775 H   0  0  0  0  0  0  0  0  0  0  0  0
   -6.1610    2.9519   -0.9376 H   0  0  0  0  0  0  0  0  0  0  0  0
   -7.4998    1.9377   -1.4681 H   0  0  0  0  0  0  0  0  0  0  0  0
   -0.9659   -1.4342    1.4159 H   0  0  0  0  0  0  0  0  0  0  0  0
   -1.9890   -2.6297    0.6070 H   0  0  0  0  0  0  0  0  0  0  0  0
   -8.2804   -1.3564   -1.0799 H   0  0  0  0  0  0  0  0  0  0  0  0
   -8.3621    1.5139    1.7571 H   0  0  0  0  0  0  0  0  0  0  0  0
    0.2339   -3.5146    1.0674 H   0  0  0  0  0  0  0  0  0  0  0  0
    1.4560    3.6752    0.1951 H   0  0  0  0  0  0  0  0  0  0  0  0
    1.4866   -3.8065   -1.5669 H   0  0  0  0  0  0  0  0  0  0  0  0
    1.7053   -4.8318   -0.1366 H   0  0  0  0  0  0  0  0  0  0  0  0
    3.7048    3.6907   -0.8057 H   0  0  0  0  0  0  0  0  0  0  0  0
    3.7889    3.4757    0.9528 H   0  0  0  0  0  0  0  0  0  0  0  0
    5.2003    1.6834   -1.1012 H   0  0  0  0  0  0  0  0  0  0  0  0
    5.2997    1.5128    0.6489 H   0  0  0  0  0  0  0  0  0  0  0  0
    2.4702   -2.9260    1.9759 H   0  0  0  0  0  0  0  0  0  0  0  0
    3.6733   -3.0847   -2.1672 H   0  0  0  0  0  0  0  0  0  0  0  0
    6.3000    3.8152    0.8078 H   0  0  0  0  0  0  0  0  0  0  0  0
    6.2224    3.9631   -0.9492 H   0  0  0  0  0  0  0  0  0  0  0  0
    7.7928    1.8053    0.5640 H   0  0  0  0  0  0  0  0  0  0  0  0
    7.7332    1.9838   -1.1907 H   0  0  0  0  0  0  0  0  0  0  0  0
    6.2179   -1.2436    0.7545 H   0  0  0  0  0  0  0  0  0  0  0  0
    8.7763    4.2526   -0.9966 H   0  0  0  0  0  0  0  0  0  0  0  0
    8.8361    4.0693    0.7676 H   0  0  0  0  0  0  0  0  0  0  0  0
    9.7931    2.9970   -0.2687 H   0  0  0  0  0  0  0  0  0  0  0  0
  1 23  1  0  0  0  0
  1 26  1  0  0  0  0
  2 35  1  0  0  0  0
  3 36  1  0  0  0  0
  4 16  1  0  0  0  0
  4 59  1  0  0  0  0
  5 21  1  0  0  0  0
  5 60  1  0  0  0  0
  6 25  2  0  0  0  0
  7 28  2  0  0  0  0
  8 20  1  0  0  0  0
  8 26  2  0  0  0  0
  9 25  1  0  0  0  0
  9 27  1  0  0  0  0
  9 61  1  0  0  0  0
 10 26  1  0  0  0  0
 10 28  1  0  0  0  0
 10 62  1  0  0  0  0
 11 12  1  0  0  0  0
 11 14  1  0  0  0  0
 11 15  1  0  0  0  0
 11 19  1  0  0  0  0
 12 13  1  0  0  0  0
 12 17  1  0  0  0  0
 12 40  1  0  0  0  0
 13 16  1  0  0  0  0
 13 21  1  0  0  0  0
 13 22  1  0  0  0  0
 14 20  1  0  0  0  0
 14 24  1  0  0  0  0
 14 41  1  0  0  0  0
 15 18  1  0  0  0  0
 15 42  1  0  0  0  0
 15 43  1  0  0  0  0
 16 18  1  0  0  0  0
 16 44  1  0  0  0  0
 17 23  1  0  0  0  0
 17 45  1  0  0  0  0
 17 46  1  0  0  0  0
 18 47  1  0  0  0  0
 18 48  1  0  0  0  0
 19 49  1  0  0  0  0
 19 50  1  0  0  0  0
 19 51  1  0  0  0  0
 20 23  2  0  0  0  0
 21 52  1  0  0  0  0
 21 53  1  0  0  0  0
 22 54  1  0  0  0  0
 22 55  1  0  0  0  0
 22 56  1  0  0  0  0
 24 25  1  0  0  0  0
 24 57  1  0  0  0  0
 24 58  1  0  0  0  0
 27 29  1  0  0  0  0
 27 63  1  0  0  0  0
 27 64  1  0  0  0  0
 28 30  1  0  0  0  0
 29 32  2  0  0  0  0
 29 33  1  0  0  0  0
 30 31  1  0  0  0  0
 30 65  1  0  0  0  0
 30 66  1  0  0  0  0
 31 34  1  0  0  0  0
 31 67  1  0  0  0  0
 31 68  1  0  0  0  0
 32 36  1  0  0  0  0
 32 69  1  0  0  0  0
 33 35  2  0  0  0  0
 33 70  1  0  0  0  0
 34 37  1  0  0  0  0
 34 71  1  0  0  0  0
 34 72  1  0  0  0  0
 35 38  1  0  0  0  0
 36 38  2  0  0  0  0
 37 39  1  0  0  0  0
 37 73  1  0  0  0  0
 37 74  1  0  0  0  0
 38 75  1  0  0  0  0
 39 76  1  0  0  0  0
 39 77  1  0  0  0  0
 39 78  1  0  0  0  0
M  END
> <PUBCHEM_COMPOUND_CID>
11885093

> <PUBCHEM_CONFORMER_RMSD>
1.2

> <PUBCHEM_CONFORMER_DIVERSEORDER>
1
26
4
11
16
53
40
33
25
18
19
15
43
39
49
34
48
46
30
35
27
24
54
8
21
38
20
37
12
52
42
28
13
36
50
14
10
22
29
41
55
7
23
51
31
2
6
32
44
3
47
9
5
45
17

> <PUBCHEM_MMFF94_PARTIAL_CHARGES>
35
1 -0.08
10 -0.49
14 0.18
16 0.28
17 0.18
2 -0.19
20 0.05
21 0.28
23 -0.14
24 0.06
25 0.57
26 0.44
27 0.44
28 0.57
29 -0.14
3 -0.19
30 0.06
32 -0.15
33 -0.15
35 0.19
36 0.19
38 -0.15
4 -0.68
5 -0.68
59 0.4
6 -0.57
60 0.4
61 0.37
62 0.37
69 0.15
7 -0.57
70 0.15
75 0.15
8 -0.57
9 -0.73

> <PUBCHEM_EFFECTIVE_ROTOR_COUNT>
13.2

> <PUBCHEM_PHARMACOPHORE_FEATURES>
14
1 10 donor
1 39 hydrophobe
1 4 acceptor
1 4 donor
1 5 acceptor
1 5 donor
1 6 acceptor
1 7 acceptor
1 9 donor
4 30 31 34 37 hydrophobe
5 1 8 20 23 26 rings
6 11 12 13 15 16 18 rings
6 11 12 14 17 20 23 rings
6 29 32 33 35 36 38 rings

> <PUBCHEM_HEAVY_ATOM_COUNT>
39

> <PUBCHEM_ATOM_DEF_STEREO_COUNT>
5

> <PUBCHEM_ATOM_UDEF_STEREO_COUNT>
0

> <PUBCHEM_BOND_DEF_STEREO_COUNT>
0

> <PUBCHEM_BOND_UDEF_STEREO_COUNT>
0

> <PUBCHEM_ISOTOPIC_ATOM_COUNT>
0

> <PUBCHEM_COMPONENT_COUNT>
1

> <PUBCHEM_CACTVS_TAUTO_COUNT>
6

> <PUBCHEM_CONFORMER_ID>
00B55A2500000001

> <PUBCHEM_MMFF94_ENERGY>
95.0889

> <PUBCHEM_FEATURE_SELFOVERLAP>
71.192

> <PUBCHEM_SHAPE_FINGERPRINT>
10050765 1 18338798888652244340
11135609 187 18410855481677351656
11135926 11 18336258037233174316
11136131 41 18334570240431097858
12522641 33 18337394941953959420
13111901 25 18337379526951759410
1361 2 18410292506296621850
13811026 1 18335138722191437787
14394314 77 18412267267582339569
14840074 17 17845362263862207287
15001296 14 18408037429080011258
15082195 135 18341335479130622798
15183329 4 18336546019770568703
15351339 4 18342179964812510376
15400415 2 18122906692499106396
15890870 6 18338236072480170844
15927050 60 18197775711988443486
15968369 153 18130212800893093004
16067689 302 18341619248279213759
20609170 92 18260537919014250797
20642791 35 18410297999681541334
20721686 56 18408890654366529714
21360443 120 18335420214189593196
23559900 14 18340478972899968819
24771293 8 18200860812466036930
24771750 20 18189632677485949453
25269216 80 15431186693277394851
3004659 81 18333733485557694950
3411729 13 18335138726565117046
4017518 198 18129106783107172294
4073 2 18188214328428451297
4169191 19 18411698790364152053
5776283 40 18340222843074190790
99344 41 18410292540398384468

> <PUBCHEM_SHAPE_MULTIPOLES>
753.48
21.47
5.14
1.25
0.67
0.4
-0.42
-12.38
1.44
9.65
0.29
0.41
0.76
-0.55

> <PUBCHEM_SHAPE_SELFOVERLAP>
1573.131

> <PUBCHEM_SHAPE_VOLUME>
430.6

> <PUBCHEM_COORDINATE_TYPE>
2
5
10

$$$$
