38028297
  -OEChem-12032416253D

 64 65  0     1  0  0  0  0  0999 V2000
   -1.5281    2.8043    0.1983 O   0  0  0  0  0  0  0  0  0  0  0  0
    2.8161   -3.1990   -0.7520 O   0  0  0  0  0  0  0  0  0  0  0  0
    0.0036   -3.2380    0.7164 O   0  0  0  0  0  0  0  0  0  0  0  0
    3.4758   -1.3989    0.5629 N   0  0  0  0  0  0  0  0  0  0  0  0
   -2.1863    1.1020    1.6370 N   0  0  0  0  0  0  0  0  0  0  0  0
   -3.9804    0.8313   -0.8451 N   0  0  0  0  0  0  0  0  0  0  0  0
    2.0386    0.5963   -1.1684 C   0  0  1  0  0  0  0  0  0  0  0  0
    3.4865    0.7267   -0.6331 C   0  0  1  0  0  0  0  0  0  0  0  0
    1.2629    1.9026   -0.9402 C   0  0  0  0  0  0  0  0  0  0  0  0
    1.1996    2.2900    0.5493 C   0  0  2  0  0  0  0  0  0  0  0  0
    2.0128    0.2308   -2.6558 C   0  0  0  0  0  0  0  0  0  0  0  0
    2.5555    2.1827    1.2171 C   0  0  0  0  0  0  0  0  0  0  0  0
    3.5694    1.4910    0.6674 C   0  0  0  0  0  0  0  0  0  0  0  0
    4.1378   -0.6500   -0.4588 C   0  0  0  0  0  0  0  0  0  0  0  0
    0.1534    1.4530    1.2937 C   0  0  0  0  0  0  0  0  0  0  0  0
    0.7010   -0.4620   -3.0109 C   0  0  0  0  0  0  0  0  0  0  0  0
    2.2165    1.4758   -3.5131 C   0  0  0  0  0  0  0  0  0  0  0  0
    2.7338    2.9274    2.5109 C   0  0  0  0  0  0  0  0  0  0  0  0
   -1.2582    1.8824    0.9634 C   0  0  0  0  0  0  0  0  0  0  0  0
    2.8585   -2.6301    0.3354 C   0  0  0  0  0  0  0  0  0  0  0  0
    2.2368   -3.1995    1.6008 C   0  0  0  0  0  0  0  0  0  0  0  0
   -3.6136    1.2892    1.5123 C   0  0  0  0  0  0  0  0  0  0  0  0
    0.7930   -2.7653    1.8002 C   0  0  0  0  0  0  0  0  0  0  0  0
   -4.2002    0.4325    0.4278 C   0  0  0  0  0  0  0  0  0  0  0  0
   -4.9208   -0.6996    0.7726 C   0  0  0  0  0  0  0  0  0  0  0  0
   -5.4497   -1.4722   -0.2553 C   0  0  0  0  0  0  0  0  0  0  0  0
   -1.3596   -2.8640    0.8623 C   0  0  0  0  0  0  0  0  0  0  0  0
   -4.5099    0.0554   -1.8173 C   0  0  0  0  0  0  0  0  0  0  0  0
   -5.2448   -1.0946   -1.5777 C   0  0  0  0  0  0  0  0  0  0  0  0
    1.5292   -0.2005   -0.6140 H   0  0  0  0  0  0  0  0  0  0  0  0
    4.0953    1.2855   -1.3550 H   0  0  0  0  0  0  0  0  0  0  0  0
    0.2541    1.8396   -1.3598 H   0  0  0  0  0  0  0  0  0  0  0  0
    1.7607    2.7418   -1.4431 H   0  0  0  0  0  0  0  0  0  0  0  0
    0.9031    3.3477    0.5866 H   0  0  0  0  0  0  0  0  0  0  0  0
    2.8156   -0.4761   -2.8893 H   0  0  0  0  0  0  0  0  0  0  0  0
    4.5355    1.4873    1.1684 H   0  0  0  0  0  0  0  0  0  0  0  0
    5.1804   -0.5363   -0.1377 H   0  0  0  0  0  0  0  0  0  0  0  0
    4.1601   -1.2138   -1.3952 H   0  0  0  0  0  0  0  0  0  0  0  0
    0.2651    1.5603    2.3793 H   0  0  0  0  0  0  0  0  0  0  0  0
    0.2544    0.3886    1.0651 H   0  0  0  0  0  0  0  0  0  0  0  0
   -0.1682    0.1822   -2.8465 H   0  0  0  0  0  0  0  0  0  0  0  0
    0.5654   -1.3719   -2.4162 H   0  0  0  0  0  0  0  0  0  0  0  0
    0.6975   -0.7560   -4.0663 H   0  0  0  0  0  0  0  0  0  0  0  0
    1.3414    2.1339   -3.5312 H   0  0  0  0  0  0  0  0  0  0  0  0
    2.3814    1.1721   -4.5544 H   0  0  0  0  0  0  0  0  0  0  0  0
    3.0971    2.0536   -3.2173 H   0  0  0  0  0  0  0  0  0  0  0  0
    2.4794    3.9841    2.3793 H   0  0  0  0  0  0  0  0  0  0  0  0
    3.7671    2.8826    2.8715 H   0  0  0  0  0  0  0  0  0  0  0  0
    2.0959    2.5105    3.2954 H   0  0  0  0  0  0  0  0  0  0  0  0
    3.4995   -1.0354    1.5113 H   0  0  0  0  0  0  0  0  0  0  0  0
   -1.8605    0.3499    2.2375 H   0  0  0  0  0  0  0  0  0  0  0  0
    2.8387   -2.9133    2.4705 H   0  0  0  0  0  0  0  0  0  0  0  0
    2.2906   -4.2916    1.5151 H   0  0  0  0  0  0  0  0  0  0  0  0
   -3.8249    2.3425    1.2946 H   0  0  0  0  0  0  0  0  0  0  0  0
   -4.0599    1.0616    2.4865 H   0  0  0  0  0  0  0  0  0  0  0  0
    0.4135   -3.1849    2.7389 H   0  0  0  0  0  0  0  0  0  0  0  0
    0.7317   -1.6742    1.8520 H   0  0  0  0  0  0  0  0  0  0  0  0
   -5.0739   -0.9892    1.8066 H   0  0  0  0  0  0  0  0  0  0  0  0
   -6.0196   -2.3677   -0.0264 H   0  0  0  0  0  0  0  0  0  0  0  0
   -1.9194   -3.2640    0.0127 H   0  0  0  0  0  0  0  0  0  0  0  0
   -1.4581   -1.7748    0.8609 H   0  0  0  0  0  0  0  0  0  0  0  0
   -1.7777   -3.2804    1.7838 H   0  0  0  0  0  0  0  0  0  0  0  0
   -4.3212    0.3929   -2.8311 H   0  0  0  0  0  0  0  0  0  0  0  0
   -5.6472   -1.6819   -2.3950 H   0  0  0  0  0  0  0  0  0  0  0  0
  1 19  2  0  0  0  0
  2 20  2  0  0  0  0
  3 23  1  0  0  0  0
  3 27  1  0  0  0  0
  4 14  1  0  0  0  0
  4 20  1  0  0  0  0
  4 50  1  0  0  0  0
  5 19  1  0  0  0  0
  5 22  1  0  0  0  0
  5 51  1  0  0  0  0
  6 24  1  0  0  0  0
  6 28  2  0  0  0  0
  7  8  1  0  0  0  0
  7  9  1  0  0  0  0
  7 11  1  0  0  0  0
  7 30  1  0  0  0  0
  8 13  1  0  0  0  0
  8 14  1  0  0  0  0
  8 31  1  0  0  0  0
  9 10  1  0  0  0  0
  9 32  1  0  0  0  0
  9 33  1  0  0  0  0
 10 12  1  0  0  0  0
 10 15  1  0  0  0  0
 10 34  1  0  0  0  0
 11 16  1  0  0  0  0
 11 17  1  0  0  0  0
 11 35  1  0  0  0  0
 12 13  2  0  0  0  0
 12 18  1  0  0  0  0
 13 36  1  0  0  0  0
 14 37  1  0  0  0  0
 14 38  1  0  0  0  0
 15 19  1  0  0  0  0
 15 39  1  0  0  0  0
 15 40  1  0  0  0  0
 16 41  1  0  0  0  0
 16 42  1  0  0  0  0
 16 43  1  0  0  0  0
 17 44  1  0  0  0  0
 17 45  1  0  0  0  0
 17 46  1  0  0  0  0
 18 47  1  0  0  0  0
 18 48  1  0  0  0  0
 18 49  1  0  0  0  0
 20 21  1  0  0  0  0
 21 23  1  0  0  0  0
 21 52  1  0  0  0  0
 21 53  1  0  0  0  0
 22 24  1  0  0  0  0
 22 54  1  0  0  0  0
 22 55  1  0  0  0  0
 23 56  1  0  0  0  0
 23 57  1  0  0  0  0
 24 25  2  0  0  0  0
 25 26  1  0  0  0  0
 25 58  1  0  0  0  0
 26 29  2  0  0  0  0
 26 59  1  0  0  0  0
 27 60  1  0  0  0  0
 27 61  1  0  0  0  0
 27 62  1  0  0  0  0
 28 29  1  0  0  0  0
 28 63  1  0  0  0  0
 29 64  1  0  0  0  0
M  END
> <PUBCHEM_COMPOUND_CID>
38028297

> <PUBCHEM_CONFORMER_RMSD>
1.2

> <PUBCHEM_CONFORMER_DIVERSEORDER>
1
76
32
67
8
29
22
73
79
62
44
25
64
38
13
58
26
46
21
43
39
11
54
42
19
10
78
34
56
69
59
41
2
45
23
47
48
17
70
28
6
63
49
27
14
18
40
33
55
24
31
52
35
51
9
16
61
53
71
36
72
50
15
12
75
3
74
57
5
68
7
37
66
60
20
4
77
65
30

> <PUBCHEM_MMFF94_PARTIAL_CHARGES>
31
1 -0.57
10 0.14
12 -0.28
13 -0.29
14 0.3
15 0.06
18 0.14
19 0.57
2 -0.57
20 0.57
21 0.06
22 0.44
23 0.28
24 0.17
25 -0.15
26 -0.15
27 0.28
28 0.16
29 -0.15
3 -0.56
36 0.15
4 -0.73
5 -0.73
50 0.37
51 0.37
58 0.15
59 0.15
6 -0.62
63 0.15
64 0.15
8 0.14

> <PUBCHEM_EFFECTIVE_ROTOR_COUNT>
12.8

> <PUBCHEM_PHARMACOPHORE_FEATURES>
9
1 1 acceptor
1 2 acceptor
1 3 acceptor
1 4 donor
1 5 donor
1 6 acceptor
3 11 16 17 hydrophobe
6 6 24 25 26 28 29 rings
6 7 8 9 10 12 13 rings

> <PUBCHEM_HEAVY_ATOM_COUNT>
29

> <PUBCHEM_ATOM_DEF_STEREO_COUNT>
3

> <PUBCHEM_ATOM_UDEF_STEREO_COUNT>
0

> <PUBCHEM_BOND_DEF_STEREO_COUNT>
0

> <PUBCHEM_BOND_UDEF_STEREO_COUNT>
0

> <PUBCHEM_ISOTOPIC_ATOM_COUNT>
0

> <PUBCHEM_COMPONENT_COUNT>
1

> <PUBCHEM_CACTVS_TAUTO_COUNT>
4

> <PUBCHEM_CONFORMER_ID>
0244440900000001

> <PUBCHEM_MMFF94_ENERGY>
55.5741

> <PUBCHEM_FEATURE_SELFOVERLAP>
45.672

> <PUBCHEM_SHAPE_FINGERPRINT>
11513181 2 16541857994512980237
11828532 37 16822190097945014343
12156800 1 15190456438931656650
12422481 6 17461122618034739490
13583140 156 18269818853113442636
13617811 41 17969215798359792293
14787075 74 18341620274607169960
17138139 8 18340783567437843926
18336668 15 18116151065508595754
20764821 26 18048886491743043371
20775530 9 17610627406052191714
21304303 282 16235358726192601620
21927370 108 13540243117595797852
25222932 49 17984690371626511223
3052486 1 17972889338651828378
35225 105 17901408983950383143
46194498 28 16299823947009804365
463206 1 18337681810570246123
508706 21 17386002850170753223
563151 248 17201327859483436648
66674814 147 17895761690451026490
6669772 16 18125708226250027145

> <PUBCHEM_SHAPE_MULTIPOLES>
564.26
9.89
4.09
2.85
14.74
2.91
-2.22
1.27
-1.55
-3.02
2.52
-1.43
-0.88
-0.36

> <PUBCHEM_SHAPE_SELFOVERLAP>
1144.579

> <PUBCHEM_SHAPE_VOLUME>
326.2

> <PUBCHEM_COORDINATE_TYPE>
2
5
10

$$$$
