7143880
  -OEChem-12032416113D

 62 65  0     1  0  0  0  0  0999 V2000
    1.1570    1.5021    1.7634 O   0  0  0  0  0  0  0  0  0  0  0  0
   -2.9277   -1.6481    1.5763 O   0  0  0  0  0  0  0  0  0  0  0  0
   -3.3788    0.1622    0.2001 N   0  0  0  0  0  0  0  0  0  0  0  0
   -0.6963    1.8210    0.3842 N   0  0  0  0  0  0  0  0  0  0  0  0
   -2.6605   -1.9107   -0.6854 N   0  0  0  0  0  0  0  0  0  0  0  0
    2.5427   -2.5757    0.8219 N   0  0  0  0  0  0  0  0  0  0  0  0
   -3.0228    2.3643    1.3082 C   0  0  1  0  0  0  0  0  0  0  0  0
   -2.6901    2.1467   -1.1210 C   0  0  2  0  0  0  0  0  0  0  0  0
   -3.2336    3.0671   -0.0284 C   0  0  0  0  0  0  0  0  0  0  0  0
   -3.7603    1.0117    1.3316 C   0  0  0  0  0  0  0  0  0  0  0  0
   -1.5156    2.2031    1.5438 C   0  0  0  0  0  0  0  0  0  0  0  0
   -3.4816    0.8239   -1.1119 C   0  0  0  0  0  0  0  0  0  0  0  0
   -1.2143    1.8641   -0.9129 C   0  0  0  0  0  0  0  0  0  0  0  0
   -0.4166    1.6230   -1.9654 C   0  0  0  0  0  0  0  0  0  0  0  0
    0.6552    1.5151    0.6380 C   0  0  0  0  0  0  0  0  0  0  0  0
   -2.9888   -1.1657    0.4403 C   0  0  0  0  0  0  0  0  0  0  0  0
    1.5151    1.2113   -0.5592 C   0  0  0  0  0  0  0  0  0  0  0  0
    0.9663    1.2866   -1.7810 C   0  0  0  0  0  0  0  0  0  0  0  0
    2.9293    0.8280   -0.4056 C   0  0  0  0  0  0  0  0  0  0  0  0
   -2.2297   -3.2883   -0.5969 C   0  0  0  0  0  0  0  0  0  0  0  0
    3.3101   -0.5076   -0.2573 C   0  0  0  0  0  0  0  0  0  0  0  0
    3.9026    1.8297   -0.4097 C   0  0  0  0  0  0  0  0  0  0  0  0
   -3.4295   -4.2268   -0.6302 C   0  0  0  0  0  0  0  0  0  0  0  0
   -1.2472   -3.6086   -1.7159 C   0  0  0  0  0  0  0  0  0  0  0  0
    2.2985   -1.6082   -0.2474 C   0  0  0  0  0  0  0  0  0  0  0  0
    4.6573   -0.8396   -0.1137 C   0  0  0  0  0  0  0  0  0  0  0  0
    5.2498    1.4976   -0.2660 C   0  0  0  0  0  0  0  0  0  0  0  0
    5.6271    0.1629   -0.1180 C   0  0  0  0  0  0  0  0  0  0  0  0
    1.5323   -3.6327    0.7951 C   0  0  0  0  0  0  0  0  0  0  0  0
    2.5499   -1.9083    2.1231 C   0  0  0  0  0  0  0  0  0  0  0  0
   -3.4346    2.9807    2.1167 H   0  0  0  0  0  0  0  0  0  0  0  0
   -2.8434    2.6384   -2.0903 H   0  0  0  0  0  0  0  0  0  0  0  0
   -2.7180    4.0355   -0.0426 H   0  0  0  0  0  0  0  0  0  0  0  0
   -4.2994    3.2679   -0.1912 H   0  0  0  0  0  0  0  0  0  0  0  0
   -3.5801    0.5031    2.2842 H   0  0  0  0  0  0  0  0  0  0  0  0
   -4.8423    1.1754    1.2553 H   0  0  0  0  0  0  0  0  0  0  0  0
   -1.1092    3.1638    1.8886 H   0  0  0  0  0  0  0  0  0  0  0  0
   -1.3287    1.4880    2.3550 H   0  0  0  0  0  0  0  0  0  0  0  0
   -4.5469    1.0179   -1.2882 H   0  0  0  0  0  0  0  0  0  0  0  0
   -3.1378    0.1962   -1.9336 H   0  0  0  0  0  0  0  0  0  0  0  0
   -0.7963    1.6385   -2.9817 H   0  0  0  0  0  0  0  0  0  0  0  0
    1.5421    1.0746   -2.6772 H   0  0  0  0  0  0  0  0  0  0  0  0
   -2.8523   -1.5630   -1.6143 H   0  0  0  0  0  0  0  0  0  0  0  0
   -1.7178   -3.4284    0.3614 H   0  0  0  0  0  0  0  0  0  0  0  0
    3.6264    2.8754   -0.5230 H   0  0  0  0  0  0  0  0  0  0  0  0
   -4.1166   -4.0152    0.1963 H   0  0  0  0  0  0  0  0  0  0  0  0
   -3.1118   -5.2712   -0.5455 H   0  0  0  0  0  0  0  0  0  0  0  0
   -3.9939   -4.1159   -1.5628 H   0  0  0  0  0  0  0  0  0  0  0  0
   -0.8734   -4.6339   -1.6277 H   0  0  0  0  0  0  0  0  0  0  0  0
   -1.7161   -3.4999   -2.7002 H   0  0  0  0  0  0  0  0  0  0  0  0
   -0.3886   -2.9291   -1.6858 H   0  0  0  0  0  0  0  0  0  0  0  0
    1.2728   -1.2340   -0.1591 H   0  0  0  0  0  0  0  0  0  0  0  0
    2.3587   -2.1132   -1.2209 H   0  0  0  0  0  0  0  0  0  0  0  0
    4.9806   -1.8725   -0.0140 H   0  0  0  0  0  0  0  0  0  0  0  0
    6.0050    2.2780   -0.2700 H   0  0  0  0  0  0  0  0  0  0  0  0
    6.6764   -0.0956   -0.0100 H   0  0  0  0  0  0  0  0  0  0  0  0
    0.5276   -3.2453    0.9915 H   0  0  0  0  0  0  0  0  0  0  0  0
    1.7576   -4.3967    1.5475 H   0  0  0  0  0  0  0  0  0  0  0  0
    1.5290   -4.1414   -0.1751 H   0  0  0  0  0  0  0  0  0  0  0  0
    3.3831   -1.2108    2.2493 H   0  0  0  0  0  0  0  0  0  0  0  0
    2.6740   -2.6491    2.9224 H   0  0  0  0  0  0  0  0  0  0  0  0
    1.6139   -1.3703    2.3156 H   0  0  0  0  0  0  0  0  0  0  0  0
  1 15  2  0  0  0  0
  2 16  2  0  0  0  0
  3 10  1  0  0  0  0
  3 12  1  0  0  0  0
  3 16  1  0  0  0  0
  4 11  1  0  0  0  0
  4 13  1  0  0  0  0
  4 15  1  0  0  0  0
  5 16  1  0  0  0  0
  5 20  1  0  0  0  0
  5 43  1  0  0  0  0
  6 25  1  0  0  0  0
  6 29  1  0  0  0  0
  6 30  1  0  0  0  0
  7  9  1  0  0  0  0
  7 10  1  0  0  0  0
  7 11  1  0  0  0  0
  7 31  1  0  0  0  0
  8  9  1  0  0  0  0
  8 12  1  0  0  0  0
  8 13  1  0  0  0  0
  8 32  1  0  0  0  0
  9 33  1  0  0  0  0
  9 34  1  0  0  0  0
 10 35  1  0  0  0  0
 10 36  1  0  0  0  0
 11 37  1  0  0  0  0
 11 38  1  0  0  0  0
 12 39  1  0  0  0  0
 12 40  1  0  0  0  0
 13 14  2  0  0  0  0
 14 18  1  0  0  0  0
 14 41  1  0  0  0  0
 15 17  1  0  0  0  0
 17 18  2  0  0  0  0
 17 19  1  0  0  0  0
 18 42  1  0  0  0  0
 19 21  1  0  0  0  0
 19 22  2  0  0  0  0
 20 23  1  0  0  0  0
 20 24  1  0  0  0  0
 20 44  1  0  0  0  0
 21 25  1  0  0  0  0
 21 26  2  0  0  0  0
 22 27  1  0  0  0  0
 22 45  1  0  0  0  0
 23 46  1  0  0  0  0
 23 47  1  0  0  0  0
 23 48  1  0  0  0  0
 24 49  1  0  0  0  0
 24 50  1  0  0  0  0
 24 51  1  0  0  0  0
 25 52  1  0  0  0  0
 25 53  1  0  0  0  0
 26 28  1  0  0  0  0
 26 54  1  0  0  0  0
 27 28  2  0  0  0  0
 27 55  1  0  0  0  0
 28 56  1  0  0  0  0
 29 57  1  0  0  0  0
 29 58  1  0  0  0  0
 29 59  1  0  0  0  0
 30 60  1  0  0  0  0
 30 61  1  0  0  0  0
 30 62  1  0  0  0  0
M  END
> <PUBCHEM_COMPOUND_CID>
7143880

> <PUBCHEM_CONFORMER_RMSD>
0.8

> <PUBCHEM_CONFORMER_DIVERSEORDER>
4
16
21
26
13
8
22
20
11
5
2
3
25
15
14
12
23
1
24
17
9
6
18
19
7
10

> <PUBCHEM_MMFF94_PARTIAL_CHARGES>
33
1 -0.57
10 0.3
11 0.3
12 0.3
13 -0.03
14 -0.15
15 0.62
16 0.69
17 -0.01
18 -0.15
19 0.03
2 -0.57
20 0.3
21 -0.14
22 -0.15
25 0.41
26 -0.15
27 -0.15
28 -0.15
29 0.27
3 -0.66
30 0.27
4 -0.47
41 0.15
42 0.15
43 0.37
45 0.15
5 -0.73
54 0.15
55 0.15
56 0.15
6 -0.81
8 0.14

> <PUBCHEM_EFFECTIVE_ROTOR_COUNT>
7

> <PUBCHEM_PHARMACOPHORE_FEATURES>
9
1 1 acceptor
1 2 acceptor
1 5 donor
1 6 cation
3 20 23 24 hydrophobe
6 19 21 22 26 27 28 rings
6 3 7 8 9 10 12 rings
6 4 13 14 15 17 18 rings
6 4 7 8 9 11 13 rings

> <PUBCHEM_HEAVY_ATOM_COUNT>
30

> <PUBCHEM_ATOM_DEF_STEREO_COUNT>
2

> <PUBCHEM_ATOM_UDEF_STEREO_COUNT>
0

> <PUBCHEM_BOND_DEF_STEREO_COUNT>
0

> <PUBCHEM_BOND_UDEF_STEREO_COUNT>
0

> <PUBCHEM_ISOTOPIC_ATOM_COUNT>
0

> <PUBCHEM_COMPONENT_COUNT>
1

> <PUBCHEM_CACTVS_TAUTO_COUNT>
2

> <PUBCHEM_CONFORMER_ID>
006D01C800000004

> <PUBCHEM_MMFF94_ENERGY>
81.7886

> <PUBCHEM_FEATURE_SELFOVERLAP>
47.26

> <PUBCHEM_SHAPE_FINGERPRINT>
10483366 6 18270102627100105783
10616163 171 18408606946049016430
10675989 125 17475511673073284148
11014199 57 17834961145545714822
11370993 70 18267869380421421389
11513181 2 17987236625402322855
11552529 35 18342739658257431212
12156800 1 10438903934368757675
12422481 6 17975170632618034633
12633257 1 18049157770187565074
13122387 1 18121217580497683163
13583140 156 18343297050708489396
13631057 29 18268709583630550236
14081887 123 18271515515660960528
14117953 113 17545309779479393718
14787075 74 18053668267960109636
16067690 210 16342855413427197986
17138139 8 17841675682883337607
17980427 23 16515697662673224332
20511986 3 18187633692163675824
20775530 9 18051119586963897359
21304303 282 14348003822238157612
21673915 165 18335424586371134044
21796203 349 17400952707746929866
23559900 14 17699292053743415164
35225 105 17632285783574785591
3633792 109 18193267495619694805
392239 28 18199465653012967960
463206 1 17977670041254314219
469060 322 17604137238010626334

> <PUBCHEM_SHAPE_MULTIPOLES>
585.72
9.17
4.86
1.71
8.22
5.35
-0.2
-0.77
-0.38
-4.1
0.43
-0.61
-0.05
-1.65

> <PUBCHEM_SHAPE_SELFOVERLAP>
1251.429

> <PUBCHEM_SHAPE_VOLUME>
322.2

> <PUBCHEM_COORDINATE_TYPE>
2
5
10

$$$$
