75537128
  -OEChem-12032416333D

 49 52  0     1  0  0  0  0  0999 V2000
    2.7312    2.7084   -0.1117 O   0  0  0  0  0  0  0  0  0  0  0  0
    2.4430    0.3683   -0.1798 N   0  0  0  0  0  0  0  0  0  0  0  0
    0.6242    1.6823   -0.2767 N   0  0  0  0  0  0  0  0  0  0  0  0
   -2.0949    1.1741    0.2322 N   0  0  2  0  0  0  0  0  0  0  0  0
   -5.7908   -2.1153   -0.6870 N   0  0  0  0  0  0  0  0  0  0  0  0
    0.1134    0.3406   -0.4653 C   0  0  1  0  0  0  0  0  0  0  0  0
    3.8051   -0.0890   -0.0462 C   0  0  0  0  0  0  0  0  0  0  0  0
    1.3177   -0.5508   -0.1690 C   0  0  0  0  0  0  0  0  0  0  0  0
   -1.0993    0.1019    0.4338 C   0  0  0  0  0  0  0  0  0  0  0  0
    4.2378   -0.8585   -1.2965 C   0  0  0  0  0  0  0  0  0  0  0  0
    3.9700   -0.9392    1.2163 C   0  0  0  0  0  0  0  0  0  0  0  0
    2.0222    1.7134   -0.1847 C   0  0  0  0  0  0  0  0  0  0  0  0
   -0.2945    2.8012   -0.3061 C   0  0  0  0  0  0  0  0  0  0  0  0
   -1.5199    2.4948    0.5586 C   0  0  0  0  0  0  0  0  0  0  0  0
    5.6586   -1.3997   -1.1605 C   0  0  0  0  0  0  0  0  0  0  0  0
    5.3918   -1.4786    1.3488 C   0  0  0  0  0  0  0  0  0  0  0  0
    5.8217   -2.2437    0.1004 C   0  0  0  0  0  0  0  0  0  0  0  0
   -3.2856    0.9223    1.0435 C   0  0  0  0  0  0  0  0  0  0  0  0
   -4.1625   -0.1409    0.4374 C   0  0  0  0  0  0  0  0  0  0  0  0
   -4.9668    0.1574   -0.6569 C   0  0  0  0  0  0  0  0  0  0  0  0
   -4.1713   -1.4253    0.9701 C   0  0  0  0  0  0  0  0  0  0  0  0
   -5.7556   -0.8559   -1.1773 C   0  0  0  0  0  0  0  0  0  0  0  0
   -4.9956   -2.3679    0.3767 C   0  0  0  0  0  0  0  0  0  0  0  0
   -0.1690    0.2517   -1.5226 H   0  0  0  0  0  0  0  0  0  0  0  0
    4.4469    0.7965    0.0481 H   0  0  0  0  0  0  0  0  0  0  0  0
    1.2412   -1.0102    0.8212 H   0  0  0  0  0  0  0  0  0  0  0  0
    1.4344   -1.3295   -0.9268 H   0  0  0  0  0  0  0  0  0  0  0  0
   -1.5129   -0.8794    0.1778 H   0  0  0  0  0  0  0  0  0  0  0  0
   -0.7911    0.0662    1.4877 H   0  0  0  0  0  0  0  0  0  0  0  0
    3.5637   -1.7023   -1.4869 H   0  0  0  0  0  0  0  0  0  0  0  0
    4.1757   -0.2081   -2.1775 H   0  0  0  0  0  0  0  0  0  0  0  0
    3.7154   -0.3486    2.1047 H   0  0  0  0  0  0  0  0  0  0  0  0
    3.2858   -1.7963    1.2026 H   0  0  0  0  0  0  0  0  0  0  0  0
   -0.5885    2.9531   -1.3510 H   0  0  0  0  0  0  0  0  0  0  0  0
    0.2174    3.7057    0.0372 H   0  0  0  0  0  0  0  0  0  0  0  0
   -1.2356    2.5299    1.6188 H   0  0  0  0  0  0  0  0  0  0  0  0
   -2.2623    3.2842    0.3903 H   0  0  0  0  0  0  0  0  0  0  0  0
    6.3663   -0.5620   -1.1327 H   0  0  0  0  0  0  0  0  0  0  0  0
    5.9105   -2.0006   -2.0416 H   0  0  0  0  0  0  0  0  0  0  0  0
    5.4576   -2.1347    2.2241 H   0  0  0  0  0  0  0  0  0  0  0  0
    6.0832   -0.6448    1.5221 H   0  0  0  0  0  0  0  0  0  0  0  0
    6.8668   -2.5572    0.2017 H   0  0  0  0  0  0  0  0  0  0  0  0
    5.2213   -3.1571    0.0078 H   0  0  0  0  0  0  0  0  0  0  0  0
   -3.0263    0.6745    2.0820 H   0  0  0  0  0  0  0  0  0  0  0  0
   -3.9004    1.8311    1.1105 H   0  0  0  0  0  0  0  0  0  0  0  0
   -4.9844    1.1485   -1.0974 H   0  0  0  0  0  0  0  0  0  0  0  0
   -3.5570   -1.6936    1.8228 H   0  0  0  0  0  0  0  0  0  0  0  0
   -6.4009   -0.6746   -2.0306 H   0  0  0  0  0  0  0  0  0  0  0  0
   -5.0389   -3.3842    0.7543 H   0  0  0  0  0  0  0  0  0  0  0  0
  1 12  2  0  0  0  0
  2  7  1  0  0  0  0
  2  8  1  0  0  0  0
  2 12  1  0  0  0  0
  3  6  1  0  0  0  0
  3 12  1  0  0  0  0
  3 13  1  0  0  0  0
  4  9  1  0  0  0  0
  4 14  1  0  0  0  0
  4 18  1  0  0  0  0
  5 22  2  0  0  0  0
  5 23  1  0  0  0  0
  6  8  1  0  0  0  0
  6  9  1  0  0  0  0
  6 24  1  0  0  0  0
  7 10  1  0  0  0  0
  7 11  1  0  0  0  0
  7 25  1  0  0  0  0
  8 26  1  0  0  0  0
  8 27  1  0  0  0  0
  9 28  1  0  0  0  0
  9 29  1  0  0  0  0
 10 15  1  0  0  0  0
 10 30  1  0  0  0  0
 10 31  1  0  0  0  0
 11 16  1  0  0  0  0
 11 32  1  0  0  0  0
 11 33  1  0  0  0  0
 13 14  1  0  0  0  0
 13 34  1  0  0  0  0
 13 35  1  0  0  0  0
 14 36  1  0  0  0  0
 14 37  1  0  0  0  0
 15 17  1  0  0  0  0
 15 38  1  0  0  0  0
 15 39  1  0  0  0  0
 16 17  1  0  0  0  0
 16 40  1  0  0  0  0
 16 41  1  0  0  0  0
 17 42  1  0  0  0  0
 17 43  1  0  0  0  0
 18 19  1  0  0  0  0
 18 44  1  0  0  0  0
 18 45  1  0  0  0  0
 19 20  2  0  0  0  0
 19 21  1  0  0  0  0
 20 22  1  0  0  0  0
 20 46  1  0  0  0  0
 21 23  2  0  0  0  0
 21 47  1  0  0  0  0
 22 48  1  0  0  0  0
 23 49  1  0  0  0  0
M  END
> <PUBCHEM_COMPOUND_CID>
75537128

> <PUBCHEM_CONFORMER_RMSD>
0.8

> <PUBCHEM_CONFORMER_DIVERSEORDER>
1
17
27
9
15
10
33
16
12
21
22
18
4
26
24
32
23
29
5
8
3
6
11
20
31
35
28
36
19
30
2
34
25
14
7
13

> <PUBCHEM_MMFF94_PARTIAL_CHARGES>
22
1 -0.57
12 0.69
13 0.3
14 0.27
18 0.41
19 -0.14
2 -0.66
20 -0.15
21 -0.15
22 0.16
23 0.16
3 -0.66
4 -0.81
46 0.15
47 0.15
48 0.15
49 0.15
5 -0.62
6 0.3
7 0.3
8 0.3
9 0.27

> <PUBCHEM_EFFECTIVE_ROTOR_COUNT>
5.4

> <PUBCHEM_PHARMACOPHORE_FEATURES>
7
1 1 acceptor
1 4 cation
1 5 acceptor
5 2 3 6 8 12 rings
6 3 4 6 9 13 14 rings
6 5 19 20 21 22 23 rings
6 7 10 11 15 16 17 rings

> <PUBCHEM_HEAVY_ATOM_COUNT>
23

> <PUBCHEM_ATOM_DEF_STEREO_COUNT>
1

> <PUBCHEM_ATOM_UDEF_STEREO_COUNT>
0

> <PUBCHEM_BOND_DEF_STEREO_COUNT>
0

> <PUBCHEM_BOND_UDEF_STEREO_COUNT>
0

> <PUBCHEM_ISOTOPIC_ATOM_COUNT>
0

> <PUBCHEM_COMPONENT_COUNT>
1

> <PUBCHEM_CACTVS_TAUTO_COUNT>
1

> <PUBCHEM_CONFORMER_ID>
04809AE800000001

> <PUBCHEM_MMFF94_ENERGY>
46.7279

> <PUBCHEM_FEATURE_SELFOVERLAP>
35.618

> <PUBCHEM_SHAPE_FINGERPRINT>
10 15 11959729391530064279
10378564 45 12252178542474028106
10622 236 17771609424890165479
10692045 39 11671793624481190388
10721379 63 7997427056786682568
11069576 57 16879055357410857106
11545043 162 17703789163485251978
12166972 35 17968099767633869383
12293681 160 12179844987474808948
12422481 6 17274826835080449751
12596602 18 17560798797633317282
12616971 3 18341626923068773537
12760667 363 18408604725608953323
12839892 36 18060419092770430527
12892183 10 16414921833775918280
13533116 47 18341048626643471400
13540713 5 18267607795613033393
13583140 156 15338838591169398985
13782708 43 17775006718282814430
13862211 1 18410292484732400094
13885169 86 10231458753133155915
14123256 34 18411990160455149158
14211702 104 18338517563930395291
14251740 57 18270961353247556674
14848178 5 18342454850623345803
15183329 4 15140956227690722667
15188451 53 17917423220648329347
15880784 105 18060142033046006402
17349148 13 18200887248248050339
17492 89 18265337403249225571
17857418 61 18334293145650803970
18222031 100 18410856551440251600
18927931 339 18340496586376356631
193927 3 18342747316257713199
200 152 18341611542812011073
20028762 73 18273212006253084118
20281389 69 9223228537750266463
20645477 70 18337111271087969340
21033648 29 16987138445573918896
21033650 10 16660634130016219957
21267235 1 18410583889942258179
21279426 13 18259977189584703239
21756936 100 8646477514661933705
22393880 68 17968365828126000027
2303208 19 17131560427611864294
23402539 116 18411700950579519757
23402655 69 11169913904887261064
23522609 53 18049197481424490340
23559900 14 18334573598625803729
23569914 152 12976374014686205282
23622692 118 18410573968019600400
25122255 55 18341617018542210567
2838139 119 8069739655495291314
2916195 48 7781507101468093591
293599 30 8502653718409880341
3004659 81 18259703414972794295
312425 54 17417540098723731819
314194 84 18187655665332381058
392239 28 15841546401342125523
465052 167 18413675716470967414
5104073 3 18201165429180219497
543368 44 10737290156102873415
559249 180 18412825755918444457
5718773 13 18200304563574733639
59682541 52 14273726323072120826
6034566 193 10375290305953038674
76465 3 18408885131022847185
7808743 9 9439395818190051661
7970288 3 18337669724601658402
960060 61 16950281810551252946

> <PUBCHEM_SHAPE_MULTIPOLES>
447.54
15.31
2.86
1.14
0.53
1.17
-0.02
-13.9
1.46
0.4
-0.08
-0.4
-0.38
-0.56

> <PUBCHEM_SHAPE_SELFOVERLAP>
946.051

> <PUBCHEM_SHAPE_VOLUME>
249

> <PUBCHEM_COORDINATE_TYPE>
2
5
10

$$$$
