7144135
  -OEChem-12032416113D

 47 50  0     1  0  0  0  0  0999 V2000
    6.1329   -1.4236   -0.8522 Cl  0  0  0  0  0  0  0  0  0  0  0  0
   -2.6279   -3.8018    1.1827 S   0  0  0  0  0  0  0  0  0  0  0  0
   -2.5112    2.7358    2.1460 O   0  0  0  0  0  0  0  0  0  0  0  0
   -3.7634   -1.7785   -0.2618 O   0  0  0  0  0  0  0  0  0  0  0  0
   -1.9660   -0.7840   -1.3468 N   0  0  0  0  0  0  0  0  0  0  0  0
   -1.2865    1.7996    0.3826 N   0  0  0  0  0  0  0  0  0  0  0  0
   -2.2686    1.6064   -1.9775 C   0  0  1  0  0  0  0  0  0  0  0  0
   -0.0120    0.7496   -1.5133 C   0  0  2  0  0  0  0  0  0  0  0  0
   -0.8182    1.6684   -2.4298 C   0  0  0  0  0  0  0  0  0  0  0  0
   -2.8082    0.1695   -2.0688 C   0  0  0  0  0  0  0  0  0  0  0  0
   -2.3581    2.1613   -0.5555 C   0  0  0  0  0  0  0  0  0  0  0  0
   -0.5317   -0.6969   -1.6509 C   0  0  0  0  0  0  0  0  0  0  0  0
   -0.0867    1.2022   -0.0525 C   0  0  0  0  0  0  0  0  0  0  0  0
    0.9365    1.0238    0.8234 C   0  0  0  0  0  0  0  0  0  0  0  0
   -1.4905    2.1981    1.7157 C   0  0  0  0  0  0  0  0  0  0  0  0
   -2.5544   -1.7249   -0.5023 C   0  0  0  0  0  0  0  0  0  0  0  0
    0.7610    1.4195    2.2079 C   0  0  0  0  0  0  0  0  0  0  0  0
   -0.3723    1.9592    2.6559 C   0  0  0  0  0  0  0  0  0  0  0  0
    2.2211    0.4186    0.4087 C   0  0  0  0  0  0  0  0  0  0  0  0
   -1.6285   -2.7201    0.1503 C   0  0  0  0  0  0  0  0  0  0  0  0
    2.3874   -0.9614    0.4736 C   0  0  0  0  0  0  0  0  0  0  0  0
    3.2548    1.2335   -0.0429 C   0  0  0  0  0  0  0  0  0  0  0  0
    3.5990   -1.5320    0.0833 C   0  0  0  0  0  0  0  0  0  0  0  0
    4.4663    0.6629   -0.4334 C   0  0  0  0  0  0  0  0  0  0  0  0
    4.6384   -0.7198   -0.3702 C   0  0  0  0  0  0  0  0  0  0  0  0
   -1.3131   -4.8654    1.8278 C   0  0  0  0  0  0  0  0  0  0  0  0
   -2.8857    2.2335   -2.6328 H   0  0  0  0  0  0  0  0  0  0  0  0
    1.0226    0.7759   -1.8729 H   0  0  0  0  0  0  0  0  0  0  0  0
   -0.4389    2.6969   -2.3808 H   0  0  0  0  0  0  0  0  0  0  0  0
   -0.7289    1.3429   -3.4735 H   0  0  0  0  0  0  0  0  0  0  0  0
   -3.8405    0.1288   -1.7054 H   0  0  0  0  0  0  0  0  0  0  0  0
   -2.8253   -0.1555   -3.1165 H   0  0  0  0  0  0  0  0  0  0  0  0
   -2.3430    3.2589   -0.6085 H   0  0  0  0  0  0  0  0  0  0  0  0
   -3.3231    1.8977   -0.1039 H   0  0  0  0  0  0  0  0  0  0  0  0
   -0.4108   -1.0376   -2.6870 H   0  0  0  0  0  0  0  0  0  0  0  0
    0.0502   -1.3797   -1.0331 H   0  0  0  0  0  0  0  0  0  0  0  0
    1.5833    1.2544    2.8980 H   0  0  0  0  0  0  0  0  0  0  0  0
   -0.4966    2.2465    3.6931 H   0  0  0  0  0  0  0  0  0  0  0  0
   -0.9094   -2.1903    0.7803 H   0  0  0  0  0  0  0  0  0  0  0  0
   -1.1184   -3.3075   -0.6179 H   0  0  0  0  0  0  0  0  0  0  0  0
    1.5919   -1.6075    0.8352 H   0  0  0  0  0  0  0  0  0  0  0  0
    3.1345    2.3125   -0.0980 H   0  0  0  0  0  0  0  0  0  0  0  0
    3.7196   -2.6107    0.1400 H   0  0  0  0  0  0  0  0  0  0  0  0
    5.2673    1.3081   -0.7851 H   0  0  0  0  0  0  0  0  0  0  0  0
   -0.8104   -5.3871    1.0093 H   0  0  0  0  0  0  0  0  0  0  0  0
   -1.7489   -5.6095    2.4996 H   0  0  0  0  0  0  0  0  0  0  0  0
   -0.5860   -4.2728    2.3890 H   0  0  0  0  0  0  0  0  0  0  0  0
  1 25  1  0  0  0  0
  2 20  1  0  0  0  0
  2 26  1  0  0  0  0
  3 15  2  0  0  0  0
  4 16  2  0  0  0  0
  5 10  1  0  0  0  0
  5 12  1  0  0  0  0
  5 16  1  0  0  0  0
  6 11  1  0  0  0  0
  6 13  1  0  0  0  0
  6 15  1  0  0  0  0
  7  9  1  0  0  0  0
  7 10  1  0  0  0  0
  7 11  1  0  0  0  0
  7 27  1  0  0  0  0
  8  9  1  0  0  0  0
  8 12  1  0  0  0  0
  8 13  1  0  0  0  0
  8 28  1  0  0  0  0
  9 29  1  0  0  0  0
  9 30  1  0  0  0  0
 10 31  1  0  0  0  0
 10 32  1  0  0  0  0
 11 33  1  0  0  0  0
 11 34  1  0  0  0  0
 12 35  1  0  0  0  0
 12 36  1  0  0  0  0
 13 14  2  0  0  0  0
 14 17  1  0  0  0  0
 14 19  1  0  0  0  0
 15 18  1  0  0  0  0
 16 20  1  0  0  0  0
 17 18  2  0  0  0  0
 17 37  1  0  0  0  0
 18 38  1  0  0  0  0
 19 21  2  0  0  0  0
 19 22  1  0  0  0  0
 20 39  1  0  0  0  0
 20 40  1  0  0  0  0
 21 23  1  0  0  0  0
 21 41  1  0  0  0  0
 22 24  2  0  0  0  0
 22 42  1  0  0  0  0
 23 25  2  0  0  0  0
 23 43  1  0  0  0  0
 24 25  1  0  0  0  0
 24 44  1  0  0  0  0
 26 45  1  0  0  0  0
 26 46  1  0  0  0  0
 26 47  1  0  0  0  0
M  END
> <PUBCHEM_COMPOUND_CID>
7144135

> <PUBCHEM_CONFORMER_RMSD>
0.8

> <PUBCHEM_CONFORMER_DIVERSEORDER>
1
4
3
2
5

> <PUBCHEM_MMFF94_PARTIAL_CHARGES>
30
1 -0.18
10 0.3
11 0.3
12 0.3
13 -0.03
14 -0.03
15 0.62
16 0.57
17 -0.15
18 -0.14
19 0.03
2 -0.46
20 0.29
21 -0.15
22 -0.15
23 -0.15
24 -0.15
25 0.18
26 0.23
3 -0.57
37 0.15
38 0.15
4 -0.57
41 0.15
42 0.15
43 0.15
44 0.15
5 -0.66
6 -0.47
8 0.14

> <PUBCHEM_EFFECTIVE_ROTOR_COUNT>
5

> <PUBCHEM_PHARMACOPHORE_FEATURES>
7
1 26 hydrophobe
1 3 acceptor
1 4 acceptor
6 19 21 22 23 24 25 rings
6 5 7 8 9 10 12 rings
6 6 13 14 15 17 18 rings
6 6 7 8 9 11 13 rings

> <PUBCHEM_HEAVY_ATOM_COUNT>
26

> <PUBCHEM_ATOM_DEF_STEREO_COUNT>
2

> <PUBCHEM_ATOM_UDEF_STEREO_COUNT>
0

> <PUBCHEM_BOND_DEF_STEREO_COUNT>
0

> <PUBCHEM_BOND_UDEF_STEREO_COUNT>
0

> <PUBCHEM_ISOTOPIC_ATOM_COUNT>
0

> <PUBCHEM_COMPONENT_COUNT>
1

> <PUBCHEM_CACTVS_TAUTO_COUNT>
1

> <PUBCHEM_CONFORMER_ID>
006D02C700000001

> <PUBCHEM_MMFF94_ENERGY>
73.9953

> <PUBCHEM_FEATURE_SELFOVERLAP>
37.086

> <PUBCHEM_SHAPE_FINGERPRINT>
10764073 3 13320735605870226628
107951 10 17841730520625092157
121448 382 17749101219267366242
12156800 1 17549317752728816499
12363563 72 17059473210957882676
12553582 1 17274814813983945916
12788726 201 17845365548963230937
13135754 10 17771382800523390514
13140716 1 16702007656746271504
14251740 79 18410292476142595466
14787075 74 18129934573629219693
14844126 61 17202751584948918886
16752209 62 17202466824085064508
17974551 9 17843416325986735259
20645476 183 17914340082628074584
20775530 9 17973444587634936546
23466295 7 18261121802316596618
35225 105 17841749289848421147
3759504 43 17986116205820884721
394222 165 16978150865772600633
4058900 60 17835532513608571409
437815 12 18269274737082133423
469060 322 17531547432842024210
484985 159 18340495473711353914
4921388 177 18335420149659381110
5895379 119 11636633991140381634
59755656 520 18196104239739367106
6287921 2 16535674993642972882
70251023 43 17559369535116083255
9981440 41 16843884144842661660

> <PUBCHEM_SHAPE_MULTIPOLES>
519.09
7.65
4.34
2.45
13.35
5.85
-0.63
4.09
2.43
-4.95
-2.62
-1.77
-1.59
0.94

> <PUBCHEM_SHAPE_SELFOVERLAP>
1101.668

> <PUBCHEM_SHAPE_VOLUME>
292.3

> <PUBCHEM_COORDINATE_TYPE>
2
5
10

$$$$
