38027418
  -OEChem-12032416243D

 74 75  0     1  0  0  0  0  0999 V2000
    3.2821   -0.9220    1.7245 O   0  0  0  0  0  0  0  0  0  0  0  0
   -2.5978    0.0641   -2.4231 O   0  0  0  0  0  0  0  0  0  0  0  0
   -2.7223   -1.3203   -0.5630 N   0  0  0  0  0  0  0  0  0  0  0  0
   -3.1704    0.9377   -0.3496 N   0  0  0  0  0  0  0  0  0  0  0  0
    2.0269    1.0182    1.4777 N   0  0  0  0  0  0  0  0  0  0  0  0
    4.4689    2.9116   -0.6011 N   0  0  0  0  0  0  0  0  0  0  0  0
    0.1274   -2.2309   -0.8693 C   0  0  1  0  0  0  0  0  0  0  0  0
   -1.1002   -3.1409   -0.6139 C   0  0  1  0  0  0  0  0  0  0  0  0
    1.2774   -2.6034    0.0788 C   0  0  0  0  0  0  0  0  0  0  0  0
    0.8755   -2.4764    1.5603 C   0  0  2  0  0  0  0  0  0  0  0  0
    0.6050   -2.3150   -2.3224 C   0  0  0  0  0  0  0  0  0  0  0  0
   -0.4664   -3.1236    1.8372 C   0  0  0  0  0  0  0  0  0  0  0  0
   -1.3304   -3.4255    0.8519 C   0  0  0  0  0  0  0  0  0  0  0  0
   -2.3715   -2.5386   -1.2229 C   0  0  0  0  0  0  0  0  0  0  0  0
    0.8813   -1.0113    2.0106 C   0  0  0  0  0  0  0  0  0  0  0  0
    1.3609   -1.0475   -2.7081 C   0  0  0  0  0  0  0  0  0  0  0  0
    1.4789   -3.5486   -2.5245 C   0  0  0  0  0  0  0  0  0  0  0  0
   -0.7738   -3.4582    3.2703 C   0  0  0  0  0  0  0  0  0  0  0  0
   -3.3332    2.3122   -0.7686 C   0  0  0  0  0  0  0  0  0  0  0  0
    2.2036   -0.3348    1.7273 C   0  0  0  0  0  0  0  0  0  0  0  0
   -4.4141    3.0159    0.0588 C   0  0  0  0  0  0  0  0  0  0  0  0
   -2.0026    3.0695   -0.7032 C   0  0  0  0  0  0  0  0  0  0  0  0
   -3.9648    3.2930    1.4934 C   0  0  0  0  0  0  0  0  0  0  0  0
   -1.5572    3.3464    0.7327 C   0  0  0  0  0  0  0  0  0  0  0  0
   -2.6448    4.0570    1.5325 C   0  0  0  0  0  0  0  0  0  0  0  0
   -2.8119   -0.0871   -1.2210 C   0  0  0  0  0  0  0  0  0  0  0  0
    3.1198    1.9148    1.1782 C   0  0  0  0  0  0  0  0  0  0  0  0
    3.3834    1.9815   -0.3189 C   0  0  0  0  0  0  0  0  0  0  0  0
    4.4037    3.3757   -1.9883 C   0  0  0  0  0  0  0  0  0  0  0  0
    5.7664    2.2867   -0.3362 C   0  0  0  0  0  0  0  0  0  0  0  0
   -0.1523   -1.1912   -0.6591 H   0  0  0  0  0  0  0  0  0  0  0  0
   -0.9402   -4.1152   -1.0926 H   0  0  0  0  0  0  0  0  0  0  0  0
    2.1782   -2.0297   -0.1501 H   0  0  0  0  0  0  0  0  0  0  0  0
    1.5517   -3.6586   -0.0558 H   0  0  0  0  0  0  0  0  0  0  0  0
    1.6397   -3.0165    2.1370 H   0  0  0  0  0  0  0  0  0  0  0  0
   -0.2503   -2.3905   -3.0016 H   0  0  0  0  0  0  0  0  0  0  0  0
   -2.2595   -3.9328    1.1048 H   0  0  0  0  0  0  0  0  0  0  0  0
   -3.2169   -3.2236   -1.0850 H   0  0  0  0  0  0  0  0  0  0  0  0
   -2.2732   -2.3793   -2.3000 H   0  0  0  0  0  0  0  0  0  0  0  0
    0.7183   -0.9405    3.0930 H   0  0  0  0  0  0  0  0  0  0  0  0
    0.0625   -0.4615    1.5305 H   0  0  0  0  0  0  0  0  0  0  0  0
    2.2649   -0.9030   -2.1087 H   0  0  0  0  0  0  0  0  0  0  0  0
    0.7286   -0.1614   -2.5861 H   0  0  0  0  0  0  0  0  0  0  0  0
    1.6672   -1.0900   -3.7591 H   0  0  0  0  0  0  0  0  0  0  0  0
    2.4710   -3.4533   -2.0710 H   0  0  0  0  0  0  0  0  0  0  0  0
    1.6554   -3.6919   -3.5978 H   0  0  0  0  0  0  0  0  0  0  0  0
    1.0042   -4.4665   -2.1653 H   0  0  0  0  0  0  0  0  0  0  0  0
   -0.8420   -2.5482    3.8738 H   0  0  0  0  0  0  0  0  0  0  0  0
    0.0113   -4.0965    3.6884 H   0  0  0  0  0  0  0  0  0  0  0  0
   -1.7234   -3.9938    3.3743 H   0  0  0  0  0  0  0  0  0  0  0  0
   -2.9856   -1.3551    0.4172 H   0  0  0  0  0  0  0  0  0  0  0  0
   -3.6625    2.2943   -1.8150 H   0  0  0  0  0  0  0  0  0  0  0  0
   -5.3320    2.4159    0.0752 H   0  0  0  0  0  0  0  0  0  0  0  0
   -4.6662    3.9698   -0.4218 H   0  0  0  0  0  0  0  0  0  0  0  0
   -2.1122    4.0272   -1.2280 H   0  0  0  0  0  0  0  0  0  0  0  0
   -1.2156    2.5115   -1.2247 H   0  0  0  0  0  0  0  0  0  0  0  0
   -3.8600    2.3507    2.0438 H   0  0  0  0  0  0  0  0  0  0  0  0
   -4.7374    3.8732    2.0110 H   0  0  0  0  0  0  0  0  0  0  0  0
   -0.6484    3.9589    0.7228 H   0  0  0  0  0  0  0  0  0  0  0  0
   -1.2966    2.4026    1.2273 H   0  0  0  0  0  0  0  0  0  0  0  0
   -2.7954    5.0648    1.1262 H   0  0  0  0  0  0  0  0  0  0  0  0
   -2.3192    4.1779    2.5718 H   0  0  0  0  0  0  0  0  0  0  0  0
   -3.2473    0.7154    0.6379 H   0  0  0  0  0  0  0  0  0  0  0  0
    1.0925    1.4154    1.5030 H   0  0  0  0  0  0  0  0  0  0  0  0
    2.8389    2.9003    1.5663 H   0  0  0  0  0  0  0  0  0  0  0  0
    3.9979    1.5711    1.7336 H   0  0  0  0  0  0  0  0  0  0  0  0
    3.5794    0.9837   -0.7335 H   0  0  0  0  0  0  0  0  0  0  0  0
    2.4548    2.3271   -0.7945 H   0  0  0  0  0  0  0  0  0  0  0  0
    3.4612    3.9022   -2.1757 H   0  0  0  0  0  0  0  0  0  0  0  0
    4.4876    2.5496   -2.7039 H   0  0  0  0  0  0  0  0  0  0  0  0
    5.2064    4.0932   -2.1929 H   0  0  0  0  0  0  0  0  0  0  0  0
    5.8778    2.0120    0.7170 H   0  0  0  0  0  0  0  0  0  0  0  0
    6.5778    2.9922   -0.5501 H   0  0  0  0  0  0  0  0  0  0  0  0
    5.9279    1.3908   -0.9470 H   0  0  0  0  0  0  0  0  0  0  0  0
  1 20  2  0  0  0  0
  2 26  2  0  0  0  0
  3 14  1  0  0  0  0
  3 26  1  0  0  0  0
  3 51  1  0  0  0  0
  4 19  1  0  0  0  0
  4 26  1  0  0  0  0
  4 63  1  0  0  0  0
  5 20  1  0  0  0  0
  5 27  1  0  0  0  0
  5 64  1  0  0  0  0
  6 28  1  0  0  0  0
  6 29  1  0  0  0  0
  6 30  1  0  0  0  0
  7  8  1  0  0  0  0
  7  9  1  0  0  0  0
  7 11  1  0  0  0  0
  7 31  1  0  0  0  0
  8 13  1  0  0  0  0
  8 14  1  0  0  0  0
  8 32  1  0  0  0  0
  9 10  1  0  0  0  0
  9 33  1  0  0  0  0
  9 34  1  0  0  0  0
 10 12  1  0  0  0  0
 10 15  1  0  0  0  0
 10 35  1  0  0  0  0
 11 16  1  0  0  0  0
 11 17  1  0  0  0  0
 11 36  1  0  0  0  0
 12 13  2  0  0  0  0
 12 18  1  0  0  0  0
 13 37  1  0  0  0  0
 14 38  1  0  0  0  0
 14 39  1  0  0  0  0
 15 20  1  0  0  0  0
 15 40  1  0  0  0  0
 15 41  1  0  0  0  0
 16 42  1  0  0  0  0
 16 43  1  0  0  0  0
 16 44  1  0  0  0  0
 17 45  1  0  0  0  0
 17 46  1  0  0  0  0
 17 47  1  0  0  0  0
 18 48  1  0  0  0  0
 18 49  1  0  0  0  0
 18 50  1  0  0  0  0
 19 21  1  0  0  0  0
 19 22  1  0  0  0  0
 19 52  1  0  0  0  0
 21 23  1  0  0  0  0
 21 53  1  0  0  0  0
 21 54  1  0  0  0  0
 22 24  1  0  0  0  0
 22 55  1  0  0  0  0
 22 56  1  0  0  0  0
 23 25  1  0  0  0  0
 23 57  1  0  0  0  0
 23 58  1  0  0  0  0
 24 25  1  0  0  0  0
 24 59  1  0  0  0  0
 24 60  1  0  0  0  0
 25 61  1  0  0  0  0
 25 62  1  0  0  0  0
 27 28  1  0  0  0  0
 27 65  1  0  0  0  0
 27 66  1  0  0  0  0
 28 67  1  0  0  0  0
 28 68  1  0  0  0  0
 29 69  1  0  0  0  0
 29 70  1  0  0  0  0
 29 71  1  0  0  0  0
 30 72  1  0  0  0  0
 30 73  1  0  0  0  0
 30 74  1  0  0  0  0
M  END
> <PUBCHEM_COMPOUND_CID>
38027418

> <PUBCHEM_CONFORMER_RMSD>
1.2

> <PUBCHEM_CONFORMER_DIVERSEORDER>
1
113
121
31
18
105
114
83
53
69
94
38
36
106
61
19
47
96
91
12
120
98
103
75
62
116
117
46
11
112
51
27
21
43
37
60
115
57
85
88
16
97
30
87
80
74
100
118
76
3
52
77
111
79
110
22
67
39
63
55
5
86
56
54
34
90
13
41
71
45
28
26
68
119
64
104
89
81
66
44
48
72
59
32
49
50
78
2
24
25
29
109
58
23
70
101
9
33
73
99
35
93
102
10
82
20
65
14
107
95
40
42
7
84
17
4
8
92
15
108
6

> <PUBCHEM_MMFF94_PARTIAL_CHARGES>
24
1 -0.57
10 0.14
12 -0.28
13 -0.29
14 0.3
15 0.06
18 0.14
19 0.3
2 -0.57
20 0.57
26 0.69
27 0.3
28 0.27
29 0.27
3 -0.73
30 0.27
37 0.15
4 -0.73
5 -0.73
51 0.37
6 -0.81
63 0.37
64 0.37
8 0.14

> <PUBCHEM_EFFECTIVE_ROTOR_COUNT>
14

> <PUBCHEM_PHARMACOPHORE_FEATURES>
9
1 1 acceptor
1 2 acceptor
1 3 donor
1 4 donor
1 5 donor
1 6 cation
3 11 16 17 hydrophobe
6 19 21 22 23 24 25 rings
6 7 8 9 10 12 13 rings

> <PUBCHEM_HEAVY_ATOM_COUNT>
30

> <PUBCHEM_ATOM_DEF_STEREO_COUNT>
3

> <PUBCHEM_ATOM_UDEF_STEREO_COUNT>
0

> <PUBCHEM_BOND_DEF_STEREO_COUNT>
0

> <PUBCHEM_BOND_UDEF_STEREO_COUNT>
0

> <PUBCHEM_ISOTOPIC_ATOM_COUNT>
0

> <PUBCHEM_COMPONENT_COUNT>
1

> <PUBCHEM_CACTVS_TAUTO_COUNT>
6

> <PUBCHEM_CONFORMER_ID>
0244409A00000001

> <PUBCHEM_MMFF94_ENERGY>
42.3958

> <PUBCHEM_FEATURE_SELFOVERLAP>
45.719

> <PUBCHEM_SHAPE_FINGERPRINT>
11578080 2 17842029785699955187
12156800 1 17391679735435317921
12788726 201 18193265519205926161
13615921 28 17250049598372993350
14040221 299 11891875161752190152
14279260 333 18115857672725515512
16067690 210 17975137844453101004
3493558 16 17824261721023342700
35225 105 18123443215338576524
469060 322 14058388237718737378
50150288 127 17107680365843200213
5776283 40 18126872429355886188

> <PUBCHEM_SHAPE_MULTIPOLES>
585.72
7.9
7.06
2.98
1.02
1.16
0.1
13.53
-0.99
0.85
0.57
0.96
-2.48
-1.45

> <PUBCHEM_SHAPE_SELFOVERLAP>
1165.524

> <PUBCHEM_SHAPE_VOLUME>
345.1

> <PUBCHEM_COORDINATE_TYPE>
2
5
10

$$$$
