45783299
  -OEChem-12032416273D

 55 59  0     1  0  0  0  0  0999 V2000
    3.2237    2.8400   -2.3862 O   0  0  0  0  0  0  0  0  0  0  0  0
    1.9985   -2.8050   -0.3500 O   0  0  0  0  0  0  0  0  0  0  0  0
   -5.4180    2.9175    1.0036 O   0  0  0  0  0  0  0  0  0  0  0  0
    3.3297    0.3474    0.9904 N   0  0  1  0  0  0  0  0  0  0  0  0
    0.7777   -1.0637    0.3527 N   0  0  0  0  0  0  0  0  0  0  0  0
    0.6887   -3.0479   -0.7826 N   0  0  0  0  0  0  0  0  0  0  0  0
   -3.9997    0.6207    0.2213 N   0  0  0  0  0  0  0  0  0  0  0  0
   -4.1176   -1.4277   -0.9584 N   0  0  0  0  0  0  0  0  0  0  0  0
    3.7692    0.9992   -0.2408 C   0  0  0  0  0  0  0  0  0  0  0  0
    3.2751   -1.1243    0.8825 C   0  0  1  0  0  0  0  0  0  0  0  0
    4.2134    0.6467    2.1173 C   0  0  0  0  0  0  0  0  0  0  0  0
    3.5264   -1.6311    2.3146 C   0  0  0  0  0  0  0  0  0  0  0  0
    3.7716   -0.3778    3.1428 C   0  0  0  0  0  0  0  0  0  0  0  0
    3.8532    2.5182   -0.0609 C   0  0  0  0  0  0  0  0  0  0  0  0
    2.8180    0.6597   -1.3920 C   0  0  0  0  0  0  0  0  0  0  0  0
    1.9630   -1.6177    0.3096 C   0  0  0  0  0  0  0  0  0  0  0  0
    4.1824    3.1917   -1.3886 C   0  0  0  0  0  0  0  0  0  0  0  0
    3.2045    1.4363   -2.6459 C   0  0  0  0  0  0  0  0  0  0  0  0
    0.0289   -1.9774   -0.3303 C   0  0  0  0  0  0  0  0  0  0  0  0
   -1.3774   -1.7914   -0.5423 C   0  0  0  0  0  0  0  0  0  0  0  0
   -3.5606    1.9489   -0.2204 C   0  0  0  0  0  0  0  0  0  0  0  0
   -5.4150    0.5251    0.6046 C   0  0  0  0  0  0  0  0  0  0  0  0
   -3.3733   -0.5242   -0.2820 C   0  0  0  0  0  0  0  0  0  0  0  0
   -2.0139   -0.6577   -0.0493 C   0  0  0  0  0  0  0  0  0  0  0  0
   -4.0098    3.0015    0.7871 C   0  0  0  0  0  0  0  0  0  0  0  0
   -5.7646    1.6532    1.5685 C   0  0  0  0  0  0  0  0  0  0  0  0
   -2.1096   -2.7435   -1.2430 C   0  0  0  0  0  0  0  0  0  0  0  0
   -3.4646   -2.5166   -1.4225 C   0  0  0  0  0  0  0  0  0  0  0  0
    4.7724    0.6386   -0.5126 H   0  0  0  0  0  0  0  0  0  0  0  0
    4.0946   -1.4972    0.2517 H   0  0  0  0  0  0  0  0  0  0  0  0
    4.0747    1.6569    2.5139 H   0  0  0  0  0  0  0  0  0  0  0  0
    5.2709    0.4978    1.8647 H   0  0  0  0  0  0  0  0  0  0  0  0
    2.6977   -2.2153    2.7292 H   0  0  0  0  0  0  0  0  0  0  0  0
    4.4235   -2.2621    2.3302 H   0  0  0  0  0  0  0  0  0  0  0  0
    2.8379   -0.0608    3.6239 H   0  0  0  0  0  0  0  0  0  0  0  0
    4.5196   -0.5388    3.9247 H   0  0  0  0  0  0  0  0  0  0  0  0
    2.8886    2.8986    0.3002 H   0  0  0  0  0  0  0  0  0  0  0  0
    4.6204    2.8035    0.6665 H   0  0  0  0  0  0  0  0  0  0  0  0
    1.7901    0.9331   -1.1232 H   0  0  0  0  0  0  0  0  0  0  0  0
    2.8518   -0.3978   -1.6652 H   0  0  0  0  0  0  0  0  0  0  0  0
    5.1865    2.9209   -1.7360 H   0  0  0  0  0  0  0  0  0  0  0  0
    4.1558    4.2797   -1.2705 H   0  0  0  0  0  0  0  0  0  0  0  0
    2.4709    1.2544   -3.4378 H   0  0  0  0  0  0  0  0  0  0  0  0
    4.1846    1.1227   -3.0245 H   0  0  0  0  0  0  0  0  0  0  0  0
   -2.4730    2.0103   -0.3344 H   0  0  0  0  0  0  0  0  0  0  0  0
   -4.0112    2.1559   -1.1989 H   0  0  0  0  0  0  0  0  0  0  0  0
   -6.0337    0.6021   -0.2979 H   0  0  0  0  0  0  0  0  0  0  0  0
   -5.6293   -0.4343    1.0903 H   0  0  0  0  0  0  0  0  0  0  0  0
   -1.4705    0.0942    0.5154 H   0  0  0  0  0  0  0  0  0  0  0  0
   -3.7878    4.0027    0.4044 H   0  0  0  0  0  0  0  0  0  0  0  0
   -3.4860    2.8878    1.7439 H   0  0  0  0  0  0  0  0  0  0  0  0
   -5.2513    1.5309    2.5300 H   0  0  0  0  0  0  0  0  0  0  0  0
   -6.8413    1.6560    1.7655 H   0  0  0  0  0  0  0  0  0  0  0  0
   -1.6677   -3.6467   -1.6508 H   0  0  0  0  0  0  0  0  0  0  0  0
   -4.0806   -3.2284   -1.9621 H   0  0  0  0  0  0  0  0  0  0  0  0
  1 17  1  0  0  0  0
  1 18  1  0  0  0  0
  2  6  1  0  0  0  0
  2 16  1  0  0  0  0
  3 25  1  0  0  0  0
  3 26  1  0  0  0  0
  4  9  1  0  0  0  0
  4 10  1  0  0  0  0
  4 11  1  0  0  0  0
  5 16  2  0  0  0  0
  5 19  1  0  0  0  0
  6 19  2  0  0  0  0
  7 21  1  0  0  0  0
  7 22  1  0  0  0  0
  7 23  1  0  0  0  0
  8 23  2  0  0  0  0
  8 28  1  0  0  0  0
  9 14  1  0  0  0  0
  9 15  1  0  0  0  0
  9 29  1  0  0  0  0
 10 12  1  0  0  0  0
 10 16  1  0  0  0  0
 10 30  1  0  0  0  0
 11 13  1  0  0  0  0
 11 31  1  0  0  0  0
 11 32  1  0  0  0  0
 12 13  1  0  0  0  0
 12 33  1  0  0  0  0
 12 34  1  0  0  0  0
 13 35  1  0  0  0  0
 13 36  1  0  0  0  0
 14 17  1  0  0  0  0
 14 37  1  0  0  0  0
 14 38  1  0  0  0  0
 15 18  1  0  0  0  0
 15 39  1  0  0  0  0
 15 40  1  0  0  0  0
 17 41  1  0  0  0  0
 17 42  1  0  0  0  0
 18 43  1  0  0  0  0
 18 44  1  0  0  0  0
 19 20  1  0  0  0  0
 20 24  2  0  0  0  0
 20 27  1  0  0  0  0
 21 25  1  0  0  0  0
 21 45  1  0  0  0  0
 21 46  1  0  0  0  0
 22 26  1  0  0  0  0
 22 47  1  0  0  0  0
 22 48  1  0  0  0  0
 23 24  1  0  0  0  0
 24 49  1  0  0  0  0
 25 50  1  0  0  0  0
 25 51  1  0  0  0  0
 26 52  1  0  0  0  0
 26 53  1  0  0  0  0
 27 28  2  0  0  0  0
 27 54  1  0  0  0  0
 28 55  1  0  0  0  0
M  END
> <PUBCHEM_COMPOUND_CID>
45783299

> <PUBCHEM_CONFORMER_RMSD>
0.8

> <PUBCHEM_CONFORMER_DIVERSEORDER>
1
73
52
119
82
46
117
64
85
121
22
25
9
98
113
67
105
16
29
112
91
76
39
114
5
60
41
36
95
66
122
116
83
111
123
68
97
115
96
27
87
90
4
107
62
77
45
63
110
81
33
84
43
24
31
120
124
49
102
69
34
50
104
51
14
26
57
18
61
37
59
94
72
44
109
99
92
70
10
23
108
58
80
75
55
19
103
89
17
93
86
47
8
56
88
71
35
74
7
28
42
100
79
15
13
48
21
106
20
3
65
2
11
6
118
12
78
53
38
40
30
101
54
32

> <PUBCHEM_MMFF94_PARTIAL_CHARGES>
27
1 -0.56
10 0.45
11 0.27
16 0.3
17 0.28
18 0.28
19 0.46
2 -0.02
20 0.05
21 0.37
22 0.37
23 0.41
24 -0.15
25 0.28
26 0.28
27 -0.15
28 0.16
3 -0.56
4 -0.81
49 0.15
5 -0.57
54 0.15
55 0.15
6 -0.41
7 -0.84
8 -0.62
9 0.27

> <PUBCHEM_EFFECTIVE_ROTOR_COUNT>
7.4

> <PUBCHEM_PHARMACOPHORE_FEATURES>
10
1 1 acceptor
1 3 acceptor
1 4 cation
3 5 6 19 cation
3 7 8 23 cation
5 2 5 6 16 19 rings
5 4 10 11 12 13 rings
6 1 9 14 15 17 18 rings
6 3 7 21 22 25 26 rings
6 8 20 23 24 27 28 rings

> <PUBCHEM_HEAVY_ATOM_COUNT>
28

> <PUBCHEM_ATOM_DEF_STEREO_COUNT>
1

> <PUBCHEM_ATOM_UDEF_STEREO_COUNT>
0

> <PUBCHEM_BOND_DEF_STEREO_COUNT>
0

> <PUBCHEM_BOND_UDEF_STEREO_COUNT>
0

> <PUBCHEM_ISOTOPIC_ATOM_COUNT>
0

> <PUBCHEM_COMPONENT_COUNT>
1

> <PUBCHEM_CACTVS_TAUTO_COUNT>
1

> <PUBCHEM_CONFORMER_ID>
02BA990300000001

> <PUBCHEM_MMFF94_ENERGY>
67.4747

> <PUBCHEM_FEATURE_SELFOVERLAP>
50.749

> <PUBCHEM_SHAPE_FINGERPRINT>
10615611 76 18260829340633577469
10670039 82 18341335590730597012
11049842 53 18272375248108438446
11135609 201 18195541499796212569
11640471 11 17827069916781411166
11720765 8 17416426276966188660
11796584 16 10881394314407450643
1200032 147 18116739415951359388
12107183 9 17982994675251345706
12422481 6 18115860802844109461
12633257 1 17676198065837401802
12655387 17 16516822326099724037
12788726 201 18124032600953276583
12925494 130 17550389536723723561
12978246 48 18339642222702511169
13257819 101 16413773025030542528
13583140 156 17169818991135612507
13617811 41 17700405073318501935
13965767 371 18194379148903167130
14739800 52 17909528895092287080
14950920 106 17386008343196405593
15021287 119 17969487247986256210
15297060 5 18059310823915106872
15475509 8 18335708213854681302
16120349 67 17318759111555753764
19377110 9 18262518216765221051
20764821 26 18270382992973310441
21033650 10 18129671940257324238
21302155 148 18342458132295053233
21864079 5 18336552715033720062
22122407 14 17386828583139170733
235170 7 15554159380388410767
23559900 14 17846503578111496902
245318 6 18337405863422732109
338550 245 18339925900701636176
341906 21 18130780204706325970
34797466 226 15697989739872491225
38570 142 17823715220926670612
4409770 3 16678924226740166182
44280116 191 14686423434069783305
474 4 17388240497993286622
474144 1 18260832621915401108
5223283 242 15338300955853362881
57307002 182 18113336410325396865
5895379 119 18343020034223583156
5951187 136 17060617772233895848
6700243 42 17414169219316377159
7064713 232 18342444924816612289
7808743 9 18342744064972887709
86090 222 16387588820882184492
9849439 229 18272368646964594225
9982175 69 17034990123597539781

> <PUBCHEM_SHAPE_MULTIPOLES>
533.71
12.71
4.13
2.36
10.8
0.94
-0.59
9.49
-3.99
0.96
1.4
-3.46
0.56
-5.01

> <PUBCHEM_SHAPE_SELFOVERLAP>
1147.591

> <PUBCHEM_SHAPE_VOLUME>
293.8

> <PUBCHEM_COORDINATE_TYPE>
2
5
10

$$$$
