11912820
  -OEChem-12032416283D

 58 61  0     1  0  0  0  0  0999 V2000
    1.1970    0.4092    1.8678 O   0  0  0  0  0  0  0  0  0  0  0  0
    2.7856   -2.2734    1.7386 O   0  0  0  0  0  0  0  0  0  0  0  0
    5.9305    0.0257   -0.0816 O   0  0  0  0  0  0  0  0  0  0  0  0
   -6.1465    3.1199    0.5686 O   0  0  0  0  0  0  0  0  0  0  0  0
    3.8466    0.9313    0.3291 N   0  0  0  0  0  0  0  0  0  0  0  0
    0.0786   -2.6913    0.2977 N   0  0  0  0  0  0  0  0  0  0  0  0
   -1.8525   -1.4250   -0.1187 N   0  0  0  0  0  0  0  0  0  0  0  0
   -1.3145   -3.3432   -1.4744 N   0  0  0  0  0  0  0  0  0  0  0  0
    2.6828   -1.1465    0.8524 C   0  0  1  0  0  0  0  0  0  0  0  0
    1.2481   -0.6590    0.9071 C   0  0  1  0  0  0  0  0  0  0  0  0
    3.4873    0.0168    1.3858 C   0  0  2  0  0  0  0  0  0  0  0  0
    0.4710   -1.8529    1.4093 C   0  0  2  0  0  0  0  0  0  0  0  0
    2.5202    0.6591    2.3644 C   0  0  0  0  0  0  0  0  0  0  0  0
    1.4886   -2.5719    2.2757 C   0  0  0  0  0  0  0  0  0  0  0  0
    5.0639    0.8630   -0.3349 C   0  0  0  0  0  0  0  0  0  0  0  0
    5.2479    1.9310   -1.4335 C   0  0  0  0  0  0  0  0  0  0  0  0
   -1.0634   -2.4801   -0.4543 C   0  0  0  0  0  0  0  0  0  0  0  0
    6.6356    1.7654   -2.0792 C   0  0  0  0  0  0  0  0  0  0  0  0
    4.1775    1.7572   -2.5216 C   0  0  0  0  0  0  0  0  0  0  0  0
    5.1575    3.3377   -0.8224 C   0  0  0  0  0  0  0  0  0  0  0  0
   -2.9575   -1.2488   -0.8724 C   0  0  0  0  0  0  0  0  0  0  0  0
   -2.4361   -3.1081   -2.1866 C   0  0  0  0  0  0  0  0  0  0  0  0
   -3.3033   -2.0662   -1.9291 C   0  0  0  0  0  0  0  0  0  0  0  0
   -3.7803   -0.1228   -0.5000 C   0  0  0  0  0  0  0  0  0  0  0  0
   -5.1596   -0.1607   -0.7155 C   0  0  0  0  0  0  0  0  0  0  0  0
   -3.1995    1.0090    0.0765 C   0  0  0  0  0  0  0  0  0  0  0  0
   -5.9542    0.9281   -0.3564 C   0  0  0  0  0  0  0  0  0  0  0  0
   -3.9942    2.0976    0.4357 C   0  0  0  0  0  0  0  0  0  0  0  0
   -5.3715    2.0572    0.2192 C   0  0  0  0  0  0  0  0  0  0  0  0
   -5.4857    4.2417    1.1525 C   0  0  0  0  0  0  0  0  0  0  0  0
    2.9826   -1.4847   -0.1448 H   0  0  0  0  0  0  0  0  0  0  0  0
    0.9021   -0.2520   -0.0484 H   0  0  0  0  0  0  0  0  0  0  0  0
    4.3989   -0.3006    1.9034 H   0  0  0  0  0  0  0  0  0  0  0  0
   -0.3988   -1.5879    2.0214 H   0  0  0  0  0  0  0  0  0  0  0  0
    2.6648    1.7369    2.4864 H   0  0  0  0  0  0  0  0  0  0  0  0
    2.5909    0.1880    3.3510 H   0  0  0  0  0  0  0  0  0  0  0  0
    1.3534   -3.6574    2.3133 H   0  0  0  0  0  0  0  0  0  0  0  0
    1.4679   -2.1887    3.3019 H   0  0  0  0  0  0  0  0  0  0  0  0
    3.1534    1.6127    0.0366 H   0  0  0  0  0  0  0  0  0  0  0  0
    0.6862   -3.4486    0.0061 H   0  0  0  0  0  0  0  0  0  0  0  0
    6.7473    0.7733   -2.5320 H   0  0  0  0  0  0  0  0  0  0  0  0
    6.8013    2.5110   -2.8650 H   0  0  0  0  0  0  0  0  0  0  0  0
    7.4348    1.8793   -1.3375 H   0  0  0  0  0  0  0  0  0  0  0  0
    3.1691    1.9505   -2.1403 H   0  0  0  0  0  0  0  0  0  0  0  0
    4.1841    0.7354   -2.9181 H   0  0  0  0  0  0  0  0  0  0  0  0
    4.3475    2.4451   -3.3576 H   0  0  0  0  0  0  0  0  0  0  0  0
    5.8697    3.4533    0.0027 H   0  0  0  0  0  0  0  0  0  0  0  0
    5.3779    4.1086   -1.5694 H   0  0  0  0  0  0  0  0  0  0  0  0
    4.1598    3.5476   -0.4220 H   0  0  0  0  0  0  0  0  0  0  0  0
   -2.6211   -3.8003   -3.0010 H   0  0  0  0  0  0  0  0  0  0  0  0
   -4.1737   -1.9218   -2.5560 H   0  0  0  0  0  0  0  0  0  0  0  0
   -5.6583   -1.0291   -1.1377 H   0  0  0  0  0  0  0  0  0  0  0  0
   -2.1276    1.0764    0.2487 H   0  0  0  0  0  0  0  0  0  0  0  0
   -7.0274    0.8894   -0.5224 H   0  0  0  0  0  0  0  0  0  0  0  0
   -3.4767    2.9432    0.8758 H   0  0  0  0  0  0  0  0  0  0  0  0
   -4.7778    4.7002    0.4537 H   0  0  0  0  0  0  0  0  0  0  0  0
   -6.2531    4.9923    1.3685 H   0  0  0  0  0  0  0  0  0  0  0  0
   -5.0165    3.9804    2.1071 H   0  0  0  0  0  0  0  0  0  0  0  0
  1 10  1  0  0  0  0
  1 13  1  0  0  0  0
  2  9  1  0  0  0  0
  2 14  1  0  0  0  0
  3 15  2  0  0  0  0
  4 29  1  0  0  0  0
  4 30  1  0  0  0  0
  5 11  1  0  0  0  0
  5 15  1  0  0  0  0
  5 39  1  0  0  0  0
  6 12  1  0  0  0  0
  6 17  1  0  0  0  0
  6 40  1  0  0  0  0
  7 17  1  0  0  0  0
  7 21  2  0  0  0  0
  8 17  2  0  0  0  0
  8 22  1  0  0  0  0
  9 10  1  0  0  0  0
  9 11  1  0  0  0  0
  9 31  1  0  0  0  0
 10 12  1  0  0  0  0
 10 32  1  0  0  0  0
 11 13  1  0  0  0  0
 11 33  1  0  0  0  0
 12 14  1  0  0  0  0
 12 34  1  0  0  0  0
 13 35  1  0  0  0  0
 13 36  1  0  0  0  0
 14 37  1  0  0  0  0
 14 38  1  0  0  0  0
 15 16  1  0  0  0  0
 16 18  1  0  0  0  0
 16 19  1  0  0  0  0
 16 20  1  0  0  0  0
 18 41  1  0  0  0  0
 18 42  1  0  0  0  0
 18 43  1  0  0  0  0
 19 44  1  0  0  0  0
 19 45  1  0  0  0  0
 19 46  1  0  0  0  0
 20 47  1  0  0  0  0
 20 48  1  0  0  0  0
 20 49  1  0  0  0  0
 21 23  1  0  0  0  0
 21 24  1  0  0  0  0
 22 23  2  0  0  0  0
 22 50  1  0  0  0  0
 23 51  1  0  0  0  0
 24 25  2  0  0  0  0
 24 26  1  0  0  0  0
 25 27  1  0  0  0  0
 25 52  1  0  0  0  0
 26 28  2  0  0  0  0
 26 53  1  0  0  0  0
 27 29  2  0  0  0  0
 27 54  1  0  0  0  0
 28 29  1  0  0  0  0
 28 55  1  0  0  0  0
 30 56  1  0  0  0  0
 30 57  1  0  0  0  0
 30 58  1  0  0  0  0
M  END
> <PUBCHEM_COMPOUND_CID>
11912820

> <PUBCHEM_CONFORMER_RMSD>
1

> <PUBCHEM_CONFORMER_DIVERSEORDER>
1
13
72
39
36
93
53
115
12
112
105
103
69
29
108
21
19
23
91
97
67
109
31
78
90
43
100
98
44
28
7
30
50
11
58
94
113
34
33
63
111
106
9
121
3
75
119
120
54
81
17
6
86
42
20
110
65
85
49
89
8
52
87
76
45
24
46
73
61
77
32
51
92
117
122
95
80
5
62
118
99
26
107
22
48
88
70
40
41
68
10
83
35
104
57
56
38
114
96
71
14
4
47
16
18
66
82
37
27
102
116
101
64
74
55
59
84
2
15
25
79
60

> <PUBCHEM_MMFF94_PARTIAL_CHARGES>
34
1 -0.56
10 0.28
11 0.3
12 0.37
13 0.28
14 0.28
15 0.57
16 0.06
17 0.72
2 -0.56
21 0.31
22 0.16
23 -0.15
25 -0.15
26 -0.15
27 -0.15
28 -0.15
29 0.08
3 -0.57
30 0.28
39 0.37
4 -0.36
40 0.4
5 -0.73
50 0.15
51 0.15
52 0.15
53 0.15
54 0.15
55 0.15
6 -0.87
7 -0.62
8 -0.62
9 0.28

> <PUBCHEM_EFFECTIVE_ROTOR_COUNT>
8.2

> <PUBCHEM_PHARMACOPHORE_FEATURES>
13
1 1 acceptor
1 2 acceptor
1 3 acceptor
1 4 acceptor
1 5 donor
1 6 donor
1 7 acceptor
4 16 18 19 20 hydrophobe
4 6 7 8 17 cation
5 1 9 10 11 13 rings
5 2 9 10 12 14 rings
6 24 25 26 27 28 29 rings
6 7 8 17 21 22 23 rings

> <PUBCHEM_HEAVY_ATOM_COUNT>
30

> <PUBCHEM_ATOM_DEF_STEREO_COUNT>
4

> <PUBCHEM_ATOM_UDEF_STEREO_COUNT>
0

> <PUBCHEM_BOND_DEF_STEREO_COUNT>
0

> <PUBCHEM_BOND_UDEF_STEREO_COUNT>
0

> <PUBCHEM_ISOTOPIC_ATOM_COUNT>
0

> <PUBCHEM_COMPONENT_COUNT>
1

> <PUBCHEM_CACTVS_TAUTO_COUNT>
6

> <PUBCHEM_CONFORMER_ID>
00B5C67400000001

> <PUBCHEM_MMFF94_ENERGY>
99.7344

> <PUBCHEM_FEATURE_SELFOVERLAP>
66.678

> <PUBCHEM_SHAPE_FINGERPRINT>
100830 2 18335428945484300365
10670039 82 18341040895665103479
10917259 128 18268417101444919208
11049842 53 18129083572751521794
11374522 72 18042965377379402061
11399939 17 16831515579497521464
11410812 94 18271815674785314964
1200032 147 18197796422436432281
12104220 4 18188508903377539132
12977781 61 10375024026502653922
13782708 43 15983691354728075663
13828863 39 17676775352491532751
13885169 86 17968383445512435156
13944108 23 17480305569951258553
14114211 68 17774448153706714739
14187579 7 18052537973948431748
14251764 75 18409454648387764353
14790565 3 18409730651354476649
14840074 17 17821446876239961597
14950920 106 10666598181492322910
15021287 119 17824522103247397138
15131766 46 17749379416809659485
15163728 17 18342179955558054207
15183329 4 17060346214362784810
15198563 99 17844224428900535223
15575132 122 18260260820540707597
16067690 210 18270964677521303828
16120349 67 18336839657698899182
16628084 112 17326041859708715082
16992727 255 18343303639578133856
19304671 126 16056300740689711161
19319366 153 18187641375522448234
21033650 10 18269557315928229810
21223535 225 18263370355746955780
21315764 119 18131079208161957958
21458453 9 14057580044647807829
21756936 100 18188213224864546666
21772528 278 17531259386770663016
21774942 28 18339361989757481884
245318 6 18339364042213330733
24771750 20 17773884095499426687
3459 110 14779831640831927662
3552219 110 18042964475436159255
3610482 184 18336833107895034862
3729539 64 14620803682391705669
38570 142 18187092754059980318
4058900 60 18269277855507608331
4258327 124 18040705988315514175
4394409 98 17916600730623335102
469060 322 14274291608944841219
508706 21 17059764654295101887
5252454 2 18339345393143357425
57634706 229 17386868269090607216
57724786 102 18189332381588318931
5911458 16 18334862705485300653
6058803 2 18192404485838831531
6523845 18 17632308886731456395
6608658 132 18410565215498678973
7288768 16 17386006221013121467
7808743 9 18413666911830065463

> <PUBCHEM_SHAPE_MULTIPOLES>
573.98
16.12
4.57
2.33
2.92
1.13
-0.13
18.66
-5.46
-4.15
-0.31
2.36
-0.74
-5.91

> <PUBCHEM_SHAPE_SELFOVERLAP>
1233.46

> <PUBCHEM_SHAPE_VOLUME>
317.3

> <PUBCHEM_COORDINATE_TYPE>
2
5
10

$$$$
