11911833
  -OEChem-12032416373D

 54 58  0     1  0  0  0  0  0999 V2000
   -5.4344    0.0467   -0.0751 S   0  0  0  0  0  0  0  0  0  0  0  0
   -0.0645    0.2681   -1.7398 O   0  0  0  0  0  0  0  0  0  0  0  0
   -1.5558   -2.1206   -0.4647 O   0  0  0  0  0  0  0  0  0  0  0  0
    1.9347   -1.3631   -0.7339 O   0  0  0  0  0  0  0  0  0  0  0  0
    2.8141   -0.5210    1.2020 O   0  0  0  0  0  0  0  0  0  0  0  0
   -9.1681    0.2138    0.2794 O   0  0  0  0  0  0  0  0  0  0  0  0
    9.4628    1.6148    1.8204 O   0  0  0  0  0  0  0  0  0  0  0  0
   -3.0724    1.1984   -0.7836 N   0  0  0  0  0  0  0  0  0  0  0  0
   -2.4496    2.3850   -0.8031 N   0  0  0  0  0  0  0  0  0  0  0  0
   -4.4994    2.6053    0.0456 N   0  0  0  0  0  0  0  0  0  0  0  0
   -3.3272    3.2417   -0.2951 N   0  0  0  0  0  0  0  0  0  0  0  0
    4.1415   -0.8983   -0.6891 N   0  0  0  0  0  0  0  0  0  0  0  0
   -1.5909   -0.7011   -0.1981 C   0  0  1  0  0  0  0  0  0  0  0  0
   -0.1771   -0.1860   -0.3820 C   0  0  1  0  0  0  0  0  0  0  0  0
   -2.3939   -0.0019   -1.2779 C   0  0  2  0  0  0  0  0  0  0  0  0
    0.6605   -1.4179   -0.1341 C   0  0  1  0  0  0  0  0  0  0  0  0
   -1.3543    0.2373   -2.3680 C   0  0  0  0  0  0  0  0  0  0  0  0
   -0.2002   -2.5107   -0.7241 C   0  0  0  0  0  0  0  0  0  0  0  0
   -4.3200    1.3422   -0.2654 C   0  0  0  0  0  0  0  0  0  0  0  0
    2.9701   -0.8858    0.0431 C   0  0  0  0  0  0  0  0  0  0  0  0
   -6.8659    0.9011    0.6492 C   0  0  0  0  0  0  0  0  0  0  0  0
    5.4310   -0.4937   -0.2751 C   0  0  0  0  0  0  0  0  0  0  0  0
   -7.9947   -0.0542    0.9099 C   0  0  0  0  0  0  0  0  0  0  0  0
    6.5059   -0.5781   -1.1600 C   0  0  0  0  0  0  0  0  0  0  0  0
    5.6287   -0.0113    1.0186 C   0  0  0  0  0  0  0  0  0  0  0  0
   -8.1078   -1.1888    1.6792 C   0  0  0  0  0  0  0  0  0  0  0  0
    7.7787   -0.1799   -0.7511 C   0  0  0  0  0  0  0  0  0  0  0  0
    6.9015    0.3868    1.4275 C   0  0  0  0  0  0  0  0  0  0  0  0
    7.9764    0.3026    0.5426 C   0  0  0  0  0  0  0  0  0  0  0  0
   -9.4361   -1.6475    1.5105 C   0  0  0  0  0  0  0  0  0  0  0  0
  -10.0399   -0.7603    0.6501 C   0  0  0  0  0  0  0  0  0  0  0  0
    9.3035    0.7181    0.9683 C   0  0  0  0  0  0  0  0  0  0  0  0
   10.5432    0.0584    0.3737 C   0  0  0  0  0  0  0  0  0  0  0  0
   -1.9705   -0.5674    0.8198 H   0  0  0  0  0  0  0  0  0  0  0  0
    0.0776    0.6547    0.2697 H   0  0  0  0  0  0  0  0  0  0  0  0
   -3.1802   -0.6412   -1.6946 H   0  0  0  0  0  0  0  0  0  0  0  0
    0.7249   -1.6028    0.9472 H   0  0  0  0  0  0  0  0  0  0  0  0
   -1.5030    1.1540   -2.9462 H   0  0  0  0  0  0  0  0  0  0  0  0
   -1.3414   -0.6021   -3.0725 H   0  0  0  0  0  0  0  0  0  0  0  0
   -0.0606   -2.6126   -1.8062 H   0  0  0  0  0  0  0  0  0  0  0  0
   -0.0046   -3.4868   -0.2701 H   0  0  0  0  0  0  0  0  0  0  0  0
    4.0709   -1.2398   -1.6444 H   0  0  0  0  0  0  0  0  0  0  0  0
   -6.5711    1.3681    1.5951 H   0  0  0  0  0  0  0  0  0  0  0  0
   -7.1964    1.6919   -0.0330 H   0  0  0  0  0  0  0  0  0  0  0  0
    6.3645   -0.9499   -2.1717 H   0  0  0  0  0  0  0  0  0  0  0  0
    4.8455    0.0813    1.7582 H   0  0  0  0  0  0  0  0  0  0  0  0
   -7.3334   -1.6323    2.2886 H   0  0  0  0  0  0  0  0  0  0  0  0
    8.5952   -0.2444   -1.4649 H   0  0  0  0  0  0  0  0  0  0  0  0
    7.0385    0.7566    2.4406 H   0  0  0  0  0  0  0  0  0  0  0  0
   -9.8959   -2.5156    1.9601 H   0  0  0  0  0  0  0  0  0  0  0  0
  -11.0309   -0.6864    0.2267 H   0  0  0  0  0  0  0  0  0  0  0  0
   11.3493    0.0821    1.1132 H   0  0  0  0  0  0  0  0  0  0  0  0
   10.3480   -0.9904    0.1343 H   0  0  0  0  0  0  0  0  0  0  0  0
   10.8528    0.6021   -0.5221 H   0  0  0  0  0  0  0  0  0  0  0  0
  1 19  1  0  0  0  0
  1 21  1  0  0  0  0
  2 14  1  0  0  0  0
  2 17  1  0  0  0  0
  3 13  1  0  0  0  0
  3 18  1  0  0  0  0
  4 16  1  0  0  0  0
  4 20  1  0  0  0  0
  5 20  2  0  0  0  0
  6 23  1  0  0  0  0
  6 31  1  0  0  0  0
  7 32  2  0  0  0  0
  8  9  1  0  0  0  0
  8 15  1  0  0  0  0
  8 19  1  0  0  0  0
  9 11  2  0  0  0  0
 10 11  1  0  0  0  0
 10 19  2  0  0  0  0
 12 20  1  0  0  0  0
 12 22  1  0  0  0  0
 12 42  1  0  0  0  0
 13 14  1  0  0  0  0
 13 15  1  0  0  0  0
 13 34  1  0  0  0  0
 14 16  1  0  0  0  0
 14 35  1  0  0  0  0
 15 17  1  0  0  0  0
 15 36  1  0  0  0  0
 16 18  1  0  0  0  0
 16 37  1  0  0  0  0
 17 38  1  0  0  0  0
 17 39  1  0  0  0  0
 18 40  1  0  0  0  0
 18 41  1  0  0  0  0
 21 23  1  0  0  0  0
 21 43  1  0  0  0  0
 21 44  1  0  0  0  0
 22 24  2  0  0  0  0
 22 25  1  0  0  0  0
 23 26  2  0  0  0  0
 24 27  1  0  0  0  0
 24 45  1  0  0  0  0
 25 28  2  0  0  0  0
 25 46  1  0  0  0  0
 26 30  1  0  0  0  0
 26 47  1  0  0  0  0
 27 29  2  0  0  0  0
 27 48  1  0  0  0  0
 28 29  1  0  0  0  0
 28 49  1  0  0  0  0
 29 32  1  0  0  0  0
 30 31  2  0  0  0  0
 30 50  1  0  0  0  0
 31 51  1  0  0  0  0
 32 33  1  0  0  0  0
 33 52  1  0  0  0  0
 33 53  1  0  0  0  0
 33 54  1  0  0  0  0
M  END
> <PUBCHEM_COMPOUND_CID>
11911833

> <PUBCHEM_CONFORMER_RMSD>
1

> <PUBCHEM_CONFORMER_DIVERSEORDER>
1
108
132
19
86
27
95
131
99
33
123
16
13
24
79
89
129
65
88
137
23
92
113
133
30
126
17
59
107
106
36
61
18
69
100
58
97
105
49
42
77
120
20
73
78
15
80
81
109
41
110
103
121
48
12
39
112
75
63
115
4
40
87
130
102
111
44
53
5
76
31
37
117
66
29
74
93
98
45
10
124
3
21
55
101
94
134
116
90
125
85
72
35
114
82
9
25
7
64
57
11
6
62
135
22
43
83
46
104
119
71
60
38
54
26
32
2
118
51
8
136
47
28
128
67
50
14
122
127
91
34
84
68
52
56
70
96

> <PUBCHEM_MMFF94_PARTIAL_CHARGES>
40
1 -0.29
10 -0.34
12 -0.55
13 0.28
14 0.28
15 0.26
16 0.28
17 0.28
18 0.28
19 0.24
2 -0.56
20 0.78
21 0.41
22 0.12
23 -0.04
24 -0.15
25 -0.15
26 -0.15
27 -0.15
28 -0.15
29 0.09
3 -0.56
30 -0.15
31 -0.01
32 0.42
33 0.06
4 -0.43
42 0.37
45 0.15
46 0.15
47 0.15
48 0.15
49 0.15
5 -0.57
50 0.15
51 0.15
6 -0.28
7 -0.57
8 0.31
9 -0.42

> <PUBCHEM_EFFECTIVE_ROTOR_COUNT>
10.2

> <PUBCHEM_PHARMACOPHORE_FEATURES>
12
1 12 donor
1 2 acceptor
1 3 acceptor
1 5 acceptor
1 6 acceptor
1 7 acceptor
3 8 10 19 cation
5 2 13 14 15 17 rings
5 3 13 14 16 18 rings
5 6 23 26 30 31 rings
5 8 9 10 11 19 rings
6 22 24 25 27 28 29 rings

> <PUBCHEM_HEAVY_ATOM_COUNT>
33

> <PUBCHEM_ATOM_DEF_STEREO_COUNT>
4

> <PUBCHEM_ATOM_UDEF_STEREO_COUNT>
0

> <PUBCHEM_BOND_DEF_STEREO_COUNT>
0

> <PUBCHEM_BOND_UDEF_STEREO_COUNT>
0

> <PUBCHEM_ISOTOPIC_ATOM_COUNT>
0

> <PUBCHEM_COMPONENT_COUNT>
1

> <PUBCHEM_CACTVS_TAUTO_COUNT>
9

> <PUBCHEM_CONFORMER_ID>
00B5C29900000001

> <PUBCHEM_MMFF94_ENERGY>
75.9696

> <PUBCHEM_FEATURE_SELFOVERLAP>
61.6

> <PUBCHEM_SHAPE_FINGERPRINT>
10 15 18410291397825989162
10162869 55 16225767428612218522
10165383 225 18131350812592210923
10369192 42 17988639670810446940
10483366 6 9583522006167633279
106641 1 18186802482541763419
10674148 151 11887668459843702215
10883706 142 18334575733878528026
11135609 99 17531822367432888523
11211813 128 18341618101306570375
11408170 108 13840259252140855809
11408170 132 11671770586224224402
11409948 8 18341053008090297363
11672396 167 8862679993198103424
11828042 206 10879985857709526362
12664476 115 17988920085557969728
13740195 50 18409167731286147539
14150022 121 18271530789409522297
15065858 18 12107792929522994229
15183329 4 15697994124965431244
15350500 16 15936408948855737189
15392192 104 17967811635785345954
15706992 2 17489313013622820738
15728490 51 18113902671941690179
16992610 120 12175625079670922697
1768 4 17846777416372182209
18335252 98 18410577262269962006
18603816 31 13984669178606093073
18608769 82 18342175579070482839
19302320 297 18411978101279096088
20501277 279 18202565081617414043
21033648 29 17845072105099634890
21130935 74 18043529417352091730
21360443 89 17458061598963865035
21792965 270 18199744907296862824
21792965 39 18261671464554275962
21795232 338 17703785973063756911
22224240 67 18408326575475383091
23576562 1 12031199825195231515
2747138 104 18410303488907682089
3092352 35 15626222407987386087
335352 9 9943804470256710959
3633792 109 12751232619567656282
3986486 107 13262666077384423395
4149490 64 16372156458738348161
4173938 188 17312823818021666761
4403749 210 18337669708180762741
44280117 145 17273685662381205143
474113 269 14345791652019016126
5381727 24 18333447621947749986
54076057 127 18341612565125672938
57676310 115 11023564480031980315
57828716 8 15719388460382929187
59521270 166 11167950143150646811
59682541 35 18411421717834226643
6126387 218 15574711379532693645
6201320 82 12030971062917206699
9663363 56 18335420167815007543
9689198 14 17275109388595045897
9953998 17 18343866637024186183

> <PUBCHEM_SHAPE_MULTIPOLES>
622.85
36.78
2.05
1.54
12.4
0.93
-0.12
0.94
21.16
-3.09
-0.16
0.32
0
2.76

> <PUBCHEM_SHAPE_SELFOVERLAP>
1339.029

> <PUBCHEM_SHAPE_VOLUME>
346.4

> <PUBCHEM_COORDINATE_TYPE>
2
5
10

$$$$
