38344319
  -OEChem-12032416353D

 52 56  0     1  0  0  0  0  0999 V2000
    1.8858   -1.6618    2.1229 O   0  0  0  0  0  0  0  0  0  0  0  0
   -5.4717    4.3400   -0.0775 O   0  0  0  0  0  0  0  0  0  0  0  0
   -3.6996    5.1540   -1.2452 O   0  0  0  0  0  0  0  0  0  0  0  0
   -1.2271   -1.3518    0.4761 N   0  0  1  0  0  0  0  0  0  0  0  0
   -3.3124   -4.0836   -1.0258 N   0  0  0  0  0  0  0  0  0  0  0  0
   -1.3494   -5.0090   -1.5630 N   0  0  0  0  0  0  0  0  0  0  0  0
    1.9085   -0.7489    0.0776 N   0  0  0  0  0  0  0  0  0  0  0  0
    3.0608   -0.9030    2.0480 N   0  0  0  0  0  0  0  0  0  0  0  0
   -0.0559   -2.2553    0.7452 C   0  0  1  0  0  0  0  0  0  0  0  0
    0.1416   -3.3328   -0.3795 C   0  0  0  0  0  0  0  0  0  0  0  0
   -2.5121   -2.1044    0.3846 C   0  0  0  0  0  0  0  0  0  0  0  0
   -2.3494   -3.3071   -0.4570 C   0  0  0  0  0  0  0  0  0  0  0  0
   -1.1591   -3.8967   -0.7935 C   0  0  0  0  0  0  0  0  0  0  0  0
   -1.3789   -0.3125    1.5033 C   0  0  0  0  0  0  0  0  0  0  0  0
    1.2670   -1.5167    0.9219 C   0  0  0  0  0  0  0  0  0  0  0  0
   -2.1127    0.8926    0.9776 C   0  0  0  0  0  0  0  0  0  0  0  0
   -2.6597   -5.0974   -1.6829 C   0  0  0  0  0  0  0  0  0  0  0  0
   -1.4559    1.8012    0.1477 C   0  0  0  0  0  0  0  0  0  0  0  0
   -3.4489    1.1003    1.3201 C   0  0  0  0  0  0  0  0  0  0  0  0
    3.0024   -0.3960    0.8130 C   0  0  0  0  0  0  0  0  0  0  0  0
   -2.1352    2.9176   -0.3397 C   0  0  0  0  0  0  0  0  0  0  0  0
   -4.1281    2.2168    0.8327 C   0  0  0  0  0  0  0  0  0  0  0  0
    4.0206    0.4644    0.2832 C   0  0  0  0  0  0  0  0  0  0  0  0
   -3.4714    3.1254    0.0027 C   0  0  0  0  0  0  0  0  0  0  0  0
    3.9071    0.9633   -1.0144 C   0  0  0  0  0  0  0  0  0  0  0  0
    5.1243    0.8022    1.0665 C   0  0  0  0  0  0  0  0  0  0  0  0
    4.8974    1.8001   -1.5288 C   0  0  0  0  0  0  0  0  0  0  0  0
   -4.1805    4.2888   -0.5059 C   0  0  0  0  0  0  0  0  0  0  0  0
    6.1145    1.6389    0.5520 C   0  0  0  0  0  0  0  0  0  0  0  0
    6.0012    2.1378   -0.7457 C   0  0  0  0  0  0  0  0  0  0  0  0
    4.7769    2.3335   -2.9162 C   0  0  0  0  0  0  0  0  0  0  0  0
   -0.2629   -2.7900    1.6849 H   0  0  0  0  0  0  0  0  0  0  0  0
    0.8034   -4.1288   -0.0183 H   0  0  0  0  0  0  0  0  0  0  0  0
    0.6195   -2.8832   -1.2594 H   0  0  0  0  0  0  0  0  0  0  0  0
   -3.2871   -1.4669   -0.0553 H   0  0  0  0  0  0  0  0  0  0  0  0
   -2.8519   -2.4247    1.3781 H   0  0  0  0  0  0  0  0  0  0  0  0
   -0.4098    0.0674    1.8491 H   0  0  0  0  0  0  0  0  0  0  0  0
   -1.8557   -0.7020    2.4132 H   0  0  0  0  0  0  0  0  0  0  0  0
   -4.3135   -3.9478   -0.9740 H   0  0  0  0  0  0  0  0  0  0  0  0
   -3.1971   -5.8619   -2.2257 H   0  0  0  0  0  0  0  0  0  0  0  0
   -0.4149    1.6500   -0.1261 H   0  0  0  0  0  0  0  0  0  0  0  0
   -3.9720    0.3996    1.9654 H   0  0  0  0  0  0  0  0  0  0  0  0
   -1.6057    3.6136   -0.9851 H   0  0  0  0  0  0  0  0  0  0  0  0
   -5.1675    2.3397    1.1241 H   0  0  0  0  0  0  0  0  0  0  0  0
    3.0548    0.7100   -1.6411 H   0  0  0  0  0  0  0  0  0  0  0  0
    5.2470    0.4329    2.0816 H   0  0  0  0  0  0  0  0  0  0  0  0
    6.9743    1.9020    1.1614 H   0  0  0  0  0  0  0  0  0  0  0  0
    6.7808    2.7872   -1.1351 H   0  0  0  0  0  0  0  0  0  0  0  0
    5.1672    1.6051   -3.6339 H   0  0  0  0  0  0  0  0  0  0  0  0
    3.7318    2.5485   -3.1640 H   0  0  0  0  0  0  0  0  0  0  0  0
    5.3327    3.2701   -3.0332 H   0  0  0  0  0  0  0  0  0  0  0  0
   -5.9409    5.1278   -0.4260 H   0  0  0  0  0  0  0  0  0  0  0  0
  1  8  1  0  0  0  0
  1 15  1  0  0  0  0
  2 28  1  0  0  0  0
  2 52  1  0  0  0  0
  3 28  2  0  0  0  0
  4  9  1  0  0  0  0
  4 11  1  0  0  0  0
  4 14  1  0  0  0  0
  5 12  1  0  0  0  0
  5 17  1  0  0  0  0
  5 39  1  0  0  0  0
  6 13  1  0  0  0  0
  6 17  2  0  0  0  0
  7 15  2  0  0  0  0
  7 20  1  0  0  0  0
  8 20  2  0  0  0  0
  9 10  1  0  0  0  0
  9 15  1  0  0  0  0
  9 32  1  0  0  0  0
 10 13  1  0  0  0  0
 10 33  1  0  0  0  0
 10 34  1  0  0  0  0
 11 12  1  0  0  0  0
 11 35  1  0  0  0  0
 11 36  1  0  0  0  0
 12 13  2  0  0  0  0
 14 16  1  0  0  0  0
 14 37  1  0  0  0  0
 14 38  1  0  0  0  0
 16 18  2  0  0  0  0
 16 19  1  0  0  0  0
 17 40  1  0  0  0  0
 18 21  1  0  0  0  0
 18 41  1  0  0  0  0
 19 22  2  0  0  0  0
 19 42  1  0  0  0  0
 20 23  1  0  0  0  0
 21 24  2  0  0  0  0
 21 43  1  0  0  0  0
 22 24  1  0  0  0  0
 22 44  1  0  0  0  0
 23 25  1  0  0  0  0
 23 26  2  0  0  0  0
 24 28  1  0  0  0  0
 25 27  2  0  0  0  0
 25 45  1  0  0  0  0
 26 29  1  0  0  0  0
 26 46  1  0  0  0  0
 27 30  1  0  0  0  0
 27 31  1  0  0  0  0
 29 30  2  0  0  0  0
 29 47  1  0  0  0  0
 30 48  1  0  0  0  0
 31 49  1  0  0  0  0
 31 50  1  0  0  0  0
 31 51  1  0  0  0  0
M  END
> <PUBCHEM_COMPOUND_CID>
38344319

> <PUBCHEM_CONFORMER_RMSD>
0.8

> <PUBCHEM_CONFORMER_DIVERSEORDER>
1
15
43
110
91
68
84
32
103
123
48
58
36
16
94
56
13
120
88
82
101
57
122
52
29
49
115
59
74
8
61
99
78
105
38
62
108
12
107
100
93
54
76
55
87
117
51
28
97
86
90
5
116
111
65
104
72
40
22
2
92
35
60
20
64
118
79
102
77
75
119
98
33
53
37
23
73
106
44
9
39
4
112
24
46
47
66
121
114
80
14
109
26
71
41
18
34
42
63
81
31
95
6
50
19
67
11
30
83
7
69
85
25
89
96
3
21
27
45
17
113
70
10

> <PUBCHEM_MMFF94_PARTIAL_CHARGES>
42
1 -0.02
10 0.18
11 0.45
12 -0.33
13 0.05
14 0.41
15 0.3
16 -0.14
17 0.04
18 -0.15
19 -0.15
2 -0.65
20 0.46
21 -0.15
22 -0.15
23 0.05
24 0.09
25 -0.15
26 -0.15
27 -0.14
28 0.63
29 -0.15
3 -0.57
30 -0.15
31 0.14
39 0.27
4 -0.81
40 0.15
41 0.15
42 0.15
43 0.15
44 0.15
45 0.15
46 0.15
47 0.15
48 0.15
5 0.03
52 0.5
6 -0.57
7 -0.57
8 -0.41
9 0.45

> <PUBCHEM_EFFECTIVE_ROTOR_COUNT>
5.8

> <PUBCHEM_PHARMACOPHORE_FEATURES>
12
1 2 acceptor
1 3 acceptor
1 4 cation
1 5 donor
3 2 3 28 anion
3 5 6 17 cation
3 7 8 20 cation
5 1 7 8 15 20 rings
5 5 6 12 13 17 rings
6 16 18 19 21 22 24 rings
6 23 25 26 27 29 30 rings
6 4 9 10 11 12 13 rings

> <PUBCHEM_HEAVY_ATOM_COUNT>
31

> <PUBCHEM_ATOM_DEF_STEREO_COUNT>
1

> <PUBCHEM_ATOM_UDEF_STEREO_COUNT>
0

> <PUBCHEM_BOND_DEF_STEREO_COUNT>
0

> <PUBCHEM_BOND_UDEF_STEREO_COUNT>
0

> <PUBCHEM_ISOTOPIC_ATOM_COUNT>
0

> <PUBCHEM_COMPONENT_COUNT>
1

> <PUBCHEM_CACTVS_TAUTO_COUNT>
2

> <PUBCHEM_CONFORMER_ID>
0249167F00000001

> <PUBCHEM_MMFF94_ENERGY>
74.5178

> <PUBCHEM_FEATURE_SELFOVERLAP>
61.054

> <PUBCHEM_SHAPE_FINGERPRINT>
10673678 19 18122623847607059801
10871710 139 18263652925080002691
10937287 8 18340205163812224793
11386260 185 16680894551514084933
11477941 20 17838337737543949620
11513181 2 18267306430446563908
12107183 9 18190730948348523658
12788726 201 18265040504559996283
13540713 5 18188756315527592746
13617811 41 17981889953822906182
13911987 19 18271526382361457633
14040221 178 17976253535650014285
14068700 675 17976249454807895300
14114211 80 18199481982046493945
14294032 229 18412550932965309145
14556957 393 18046625874145066414
14910302 57 17773055231235534774
15198563 99 18197495340902386623
15420108 30 18334852775773912004
15448158 71 18187374216294779168
15684973 49 18265313132500469218
15705408 1 17046823050496935847
15968369 153 17903376023253602968
16067690 210 17686653502790319188
16988056 13 17040915365503568757
16992828 155 18259985980814079548
17980427 26 17530959134434909650
21033650 10 18193299570740539028
21641784 216 18123193669143683542
21792964 463 17821729481046012327
22149856 69 17840584804989990361
23516275 100 17115225322519520316
23559900 14 17474106502124158033
23929065 36 18125699413562769856
24941158 1 17400626139702480165
3057174 1 17985825935019865583
3388396 114 17399246733767933492
340366 18 18195810670299106258
376196 1 17972320603736376761
4066623 53 17837476815390940221
44249763 50 18200308944129898832
5219985 13 18337113362985202761
6608658 132 18120664783999326692
6700243 42 17698472106080024918
7808743 9 18410573994158423000

> <PUBCHEM_SHAPE_MULTIPOLES>
595.45
12.18
7.77
1.85
17.95
0.84
0.46
-12.84
2.68
-16.21
4.85
1.67
0.32
-2.96

> <PUBCHEM_SHAPE_SELFOVERLAP>
1317.621

> <PUBCHEM_SHAPE_VOLUME>
319.7

> <PUBCHEM_COORDINATE_TYPE>
2
5
10

$$$$
