25390225
  -OEChem-12032416253D

 58 60  0     1  0  0  0  0  0999 V2000
   -2.7898    0.1590   -0.9410 O   0  0  0  0  0  0  0  0  0  0  0  0
   -4.7139    0.8344    1.3164 O   0  0  0  0  0  0  0  0  0  0  0  0
   -3.1427    3.0835    1.1138 O   0  0  0  0  0  0  0  0  0  0  0  0
    2.1633   -4.3851   -0.1044 O   0  0  0  0  0  0  0  0  0  0  0  0
   -2.4728   -2.8160   -0.8150 O   0  0  0  0  0  0  0  0  0  0  0  0
    0.4210    3.8280   -0.8212 O   0  0  0  0  0  0  0  0  0  0  0  0
   -0.4996    1.7742   -1.3908 N   0  0  0  0  0  0  0  0  0  0  0  0
    1.7179    1.9030   -0.7617 N   0  0  0  0  0  0  0  0  0  0  0  0
   -0.3940   -3.2257    0.1343 N   0  0  0  0  0  0  0  0  0  0  0  0
   -2.9563   -0.4665    0.3520 C   0  0  2  0  0  0  0  0  0  0  0  0
   -3.2985    0.6525    1.3296 C   0  0  1  0  0  0  0  0  0  0  0  0
   -2.8497    1.5872   -0.7801 C   0  0  1  0  0  0  0  0  0  0  0  0
   -2.6095    1.8444    0.6981 C   0  0  1  0  0  0  0  0  0  0  0  0
   -1.6561   -1.1808    0.6949 C   0  0  0  0  0  0  0  0  0  0  0  0
   -1.8209    2.2468   -1.6810 C   0  0  0  0  0  0  0  0  0  0  0  0
    2.9490    2.5250   -0.3273 C   0  0  0  0  0  0  0  0  0  0  0  0
    3.0185    2.6001    1.2017 C   0  0  0  0  0  0  0  0  0  0  0  0
    4.1676    1.7964   -0.9036 C   0  0  0  0  0  0  0  0  0  0  0  0
    3.2443    1.2318    1.8448 C   0  0  0  0  0  0  0  0  0  0  0  0
    4.3915    0.4293   -0.2570 C   0  0  0  0  0  0  0  0  0  0  0  0
    4.4685    0.5314    1.2632 C   0  0  0  0  0  0  0  0  0  0  0  0
   -1.5532   -2.4791   -0.0651 C   0  0  0  0  0  0  0  0  0  0  0  0
    0.5396    2.6131   -0.9757 C   0  0  0  0  0  0  0  0  0  0  0  0
   -0.2111   -4.4958   -0.5681 C   0  0  0  0  0  0  0  0  0  0  0  0
    0.6579   -2.9201    1.1098 C   0  0  0  0  0  0  0  0  0  0  0  0
    1.1969   -4.5884   -1.1387 C   0  0  0  0  0  0  0  0  0  0  0  0
    2.0320   -3.0829    0.4721 C   0  0  0  0  0  0  0  0  0  0  0  0
   -3.7946   -1.1684    0.2729 H   0  0  0  0  0  0  0  0  0  0  0  0
   -2.9944    0.4723    2.3645 H   0  0  0  0  0  0  0  0  0  0  0  0
   -3.8504    1.9207   -1.0818 H   0  0  0  0  0  0  0  0  0  0  0  0
   -1.5447    1.8198    0.9540 H   0  0  0  0  0  0  0  0  0  0  0  0
   -1.6386   -1.4200    1.7641 H   0  0  0  0  0  0  0  0  0  0  0  0
   -0.7919   -0.5580    0.4415 H   0  0  0  0  0  0  0  0  0  0  0  0
   -1.8716    3.3367   -1.5944 H   0  0  0  0  0  0  0  0  0  0  0  0
   -2.0161    1.9764   -2.7244 H   0  0  0  0  0  0  0  0  0  0  0  0
    2.9486    3.5503   -0.7180 H   0  0  0  0  0  0  0  0  0  0  0  0
    2.1017    3.0443    1.6077 H   0  0  0  0  0  0  0  0  0  0  0  0
    3.8448    3.2634    1.4878 H   0  0  0  0  0  0  0  0  0  0  0  0
    5.0610    2.4130   -0.7420 H   0  0  0  0  0  0  0  0  0  0  0  0
    4.0592    1.6719   -1.9877 H   0  0  0  0  0  0  0  0  0  0  0  0
    2.3581    0.6024    1.6968 H   0  0  0  0  0  0  0  0  0  0  0  0
    3.3697    1.3518    2.9269 H   0  0  0  0  0  0  0  0  0  0  0  0
    5.3207   -0.0073   -0.6409 H   0  0  0  0  0  0  0  0  0  0  0  0
    3.5842   -0.2556   -0.5393 H   0  0  0  0  0  0  0  0  0  0  0  0
    5.3728    1.0844    1.5458 H   0  0  0  0  0  0  0  0  0  0  0  0
    4.5596   -0.4713    1.6957 H   0  0  0  0  0  0  0  0  0  0  0  0
   -0.2955    0.7909   -1.5409 H   0  0  0  0  0  0  0  0  0  0  0  0
    1.6838    0.8917   -0.8444 H   0  0  0  0  0  0  0  0  0  0  0  0
   -5.1131    0.0379    1.7062 H   0  0  0  0  0  0  0  0  0  0  0  0
   -3.0675    3.1233    2.0825 H   0  0  0  0  0  0  0  0  0  0  0  0
   -0.9539   -4.6183   -1.3620 H   0  0  0  0  0  0  0  0  0  0  0  0
   -0.3719   -5.2871    0.1736 H   0  0  0  0  0  0  0  0  0  0  0  0
    0.5358   -3.6402    1.9275 H   0  0  0  0  0  0  0  0  0  0  0  0
    0.5601   -1.9179    1.5298 H   0  0  0  0  0  0  0  0  0  0  0  0
    1.3652   -5.5816   -1.5662 H   0  0  0  0  0  0  0  0  0  0  0  0
    1.3565   -3.8491   -1.9327 H   0  0  0  0  0  0  0  0  0  0  0  0
    2.2013   -2.3273   -0.3039 H   0  0  0  0  0  0  0  0  0  0  0  0
    2.8145   -2.9683    1.2285 H   0  0  0  0  0  0  0  0  0  0  0  0
  1 10  1  0  0  0  0
  1 12  1  0  0  0  0
  2 11  1  0  0  0  0
  2 49  1  0  0  0  0
  3 13  1  0  0  0  0
  3 50  1  0  0  0  0
  4 26  1  0  0  0  0
  4 27  1  0  0  0  0
  5 22  2  0  0  0  0
  6 23  2  0  0  0  0
  7 15  1  0  0  0  0
  7 23  1  0  0  0  0
  7 47  1  0  0  0  0
  8 16  1  0  0  0  0
  8 23  1  0  0  0  0
  8 48  1  0  0  0  0
  9 22  1  0  0  0  0
  9 24  1  0  0  0  0
  9 25  1  0  0  0  0
 10 11  1  0  0  0  0
 10 14  1  0  0  0  0
 10 28  1  0  0  0  0
 11 13  1  0  0  0  0
 11 29  1  0  0  0  0
 12 13  1  0  0  0  0
 12 15  1  0  0  0  0
 12 30  1  0  0  0  0
 13 31  1  0  0  0  0
 14 22  1  0  0  0  0
 14 32  1  0  0  0  0
 14 33  1  0  0  0  0
 15 34  1  0  0  0  0
 15 35  1  0  0  0  0
 16 17  1  0  0  0  0
 16 18  1  0  0  0  0
 16 36  1  0  0  0  0
 17 19  1  0  0  0  0
 17 37  1  0  0  0  0
 17 38  1  0  0  0  0
 18 20  1  0  0  0  0
 18 39  1  0  0  0  0
 18 40  1  0  0  0  0
 19 21  1  0  0  0  0
 19 41  1  0  0  0  0
 19 42  1  0  0  0  0
 20 21  1  0  0  0  0
 20 43  1  0  0  0  0
 20 44  1  0  0  0  0
 21 45  1  0  0  0  0
 21 46  1  0  0  0  0
 24 26  1  0  0  0  0
 24 51  1  0  0  0  0
 24 52  1  0  0  0  0
 25 27  1  0  0  0  0
 25 53  1  0  0  0  0
 25 54  1  0  0  0  0
 26 55  1  0  0  0  0
 26 56  1  0  0  0  0
 27 57  1  0  0  0  0
 27 58  1  0  0  0  0
M  END
> <PUBCHEM_COMPOUND_CID>
25390225

> <PUBCHEM_CONFORMER_RMSD>
1.2

> <PUBCHEM_CONFORMER_DIVERSEORDER>
3
28
41
61
37
60
31
53
95
42
99
97
47
71
72
83
40
108
66
56
94
93
73
21
81
106
30
58
89
90
86
55
52
70
67
17
22
20
64
109
84
23
68
1
77
79
49
15
88
18
39
76
62
78
38
50
51
103
11
32
80
59
100
44
107
16
91
87
46
12
29
112
33
75
27
35
110
26
101
45
111
63
98
54
25
48
43
102
57
4
82
36
8
96
85
6
19
74
14
10
105
92
24
104
2
13
65
34
69
7
9
5

> <PUBCHEM_MMFF94_PARTIAL_CHARGES>
26
1 -0.56
10 0.28
11 0.28
12 0.28
13 0.28
14 0.06
15 0.3
16 0.3
2 -0.68
22 0.57
23 0.69
24 0.3
25 0.3
26 0.28
27 0.28
3 -0.68
4 -0.56
47 0.37
48 0.37
49 0.4
5 -0.57
50 0.4
6 -0.57
7 -0.73
8 -0.73
9 -0.66

> <PUBCHEM_EFFECTIVE_ROTOR_COUNT>
11.4

> <PUBCHEM_PHARMACOPHORE_FEATURES>
13
1 1 acceptor
1 2 acceptor
1 2 donor
1 3 acceptor
1 3 donor
1 4 acceptor
1 5 acceptor
1 6 acceptor
1 7 donor
1 8 donor
5 1 10 11 12 13 rings
6 16 17 18 19 20 21 rings
6 4 9 24 25 26 27 rings

> <PUBCHEM_HEAVY_ATOM_COUNT>
27

> <PUBCHEM_ATOM_DEF_STEREO_COUNT>
4

> <PUBCHEM_ATOM_UDEF_STEREO_COUNT>
0

> <PUBCHEM_BOND_DEF_STEREO_COUNT>
0

> <PUBCHEM_BOND_UDEF_STEREO_COUNT>
0

> <PUBCHEM_ISOTOPIC_ATOM_COUNT>
0

> <PUBCHEM_COMPONENT_COUNT>
1

> <PUBCHEM_CACTVS_TAUTO_COUNT>
3

> <PUBCHEM_CONFORMER_ID>
01836C9100000003

> <PUBCHEM_MMFF94_ENERGY>
46.3189

> <PUBCHEM_FEATURE_SELFOVERLAP>
66.036

> <PUBCHEM_SHAPE_FINGERPRINT>
11014199 57 17183912905132795870
11552529 35 17981325913021247892
12156800 1 12981280241558738400
12553582 1 16824192321075704242
12633257 1 18340207487516593832
12788726 201 17689445200882144171
13122387 1 18336260146414972478
14081887 123 17548122785685080336
14114211 80 18195554608426880462
14251757 5 17975715079815537932
14363568 33 18050869731240819266
151778 21 18338521846033271368
19930381 70 18265618675934815523
20764821 26 18336259047156741086
20775530 9 17111846527232528950
21344244 246 18337375056091245069
22113638 7 17759514869376047943
238918 7 18268973342400258986
25265897 201 17630351690813297950
3027735 51 18266435759346001343
3493558 16 16547775604996920769
463206 1 16246879494568652762
5265222 85 18190483669664319764
532947 4 18192988219349091829
6287921 2 18269272361732785603

> <PUBCHEM_SHAPE_MULTIPOLES>
505.49
7.65
6.82
1.54
5.13
8.45
-0.16
-4.78
-2.19
-1.22
1.63
0.14
-0.72
-0.79

> <PUBCHEM_SHAPE_SELFOVERLAP>
1034.328

> <PUBCHEM_SHAPE_VOLUME>
289.1

> <PUBCHEM_COORDINATE_TYPE>
2
5
10

$$$$
