7155460
  -OEChem-12032416153D

 52 56  0     1  0  0  0  0  0999 V2000
   -1.8219    3.0171   -2.6647 O   0  0  0  0  0  0  0  0  0  0  0  0
    2.6908    0.2970   -0.3444 O   0  0  0  0  0  0  0  0  0  0  0  0
    4.1762   -0.5755   -2.9298 O   0  0  0  0  0  0  0  0  0  0  0  0
    0.9216    1.7283    1.2827 N   0  0  2  0  0  0  0  0  0  0  0  0
   -1.5830    1.8085   -0.6727 N   0  0  0  0  0  0  0  0  0  0  0  0
   -1.2182    2.9879    1.5772 C   0  0  1  0  0  0  0  0  0  0  0  0
   -1.2743    0.5437    1.4758 C   0  0  2  0  0  0  0  0  0  0  0  0
   -1.8964    1.7591    2.1586 C   0  0  0  0  0  0  0  0  0  0  0  0
    0.3007    2.9363    1.8373 C   0  0  0  0  0  0  0  0  0  0  0  0
    0.2463    0.5149    1.7634 C   0  0  0  0  0  0  0  0  0  0  0  0
   -1.5533    3.0670    0.0863 C   0  0  0  0  0  0  0  0  0  0  0  0
   -1.5441    0.5517   -0.0338 C   0  0  0  0  0  0  0  0  0  0  0  0
    2.3502    1.6872    1.5856 C   0  0  0  0  0  0  0  0  0  0  0  0
   -1.7237   -0.5829   -0.7621 C   0  0  0  0  0  0  0  0  0  0  0  0
   -1.7674    1.9459   -2.0600 C   0  0  0  0  0  0  0  0  0  0  0  0
   -1.9114   -0.4774   -2.1982 C   0  0  0  0  0  0  0  0  0  0  0  0
   -1.9222    0.6940   -2.8334 C   0  0  0  0  0  0  0  0  0  0  0  0
    3.0272    0.5080    0.9391 C   0  0  0  0  0  0  0  0  0  0  0  0
   -1.7125   -1.8734   -0.1285 C   0  0  0  0  0  0  0  0  0  0  0  0
    3.9201   -0.3916    1.4069 C   0  0  0  0  0  0  0  0  0  0  0  0
   -0.5119   -2.5625    0.0149 C   0  0  0  0  0  0  0  0  0  0  0  0
   -2.9022   -2.4247    0.3381 C   0  0  0  0  0  0  0  0  0  0  0  0
    3.4032   -0.7956   -0.7254 C   0  0  0  0  0  0  0  0  0  0  0  0
    4.1747   -1.2565    0.3159 C   0  0  0  0  0  0  0  0  0  0  0  0
   -0.5008   -3.8143    0.6303 C   0  0  0  0  0  0  0  0  0  0  0  0
   -2.8911   -3.6765    0.9534 C   0  0  0  0  0  0  0  0  0  0  0  0
   -1.6904   -4.3713    1.0995 C   0  0  0  0  0  0  0  0  0  0  0  0
    3.2138   -1.2442   -2.1120 C   0  0  0  0  0  0  0  0  0  0  0  0
   -1.6069    3.8889    2.0682 H   0  0  0  0  0  0  0  0  0  0  0  0
   -1.7240   -0.3385    1.9450 H   0  0  0  0  0  0  0  0  0  0  0  0
   -2.9802    1.7921    1.9914 H   0  0  0  0  0  0  0  0  0  0  0  0
   -1.7395    1.7120    3.2431 H   0  0  0  0  0  0  0  0  0  0  0  0
    0.7642    3.8251    1.3909 H   0  0  0  0  0  0  0  0  0  0  0  0
    0.4761    2.9939    2.9202 H   0  0  0  0  0  0  0  0  0  0  0  0
    0.3963    0.4018    2.8465 H   0  0  0  0  0  0  0  0  0  0  0  0
    0.6654   -0.3806    1.2978 H   0  0  0  0  0  0  0  0  0  0  0  0
   -2.5591    3.4969   -0.0203 H   0  0  0  0  0  0  0  0  0  0  0  0
   -0.8754    3.7656   -0.4209 H   0  0  0  0  0  0  0  0  0  0  0  0
    2.5258    1.6601    2.6690 H   0  0  0  0  0  0  0  0  0  0  0  0
    2.8382    2.5916    1.2004 H   0  0  0  0  0  0  0  0  0  0  0  0
   -2.0346   -1.3943   -2.7675 H   0  0  0  0  0  0  0  0  0  0  0  0
   -2.0578    0.7602   -3.9063 H   0  0  0  0  0  0  0  0  0  0  0  0
    4.3462   -0.4402    2.3984 H   0  0  0  0  0  0  0  0  0  0  0  0
    0.4230   -2.1482   -0.3538 H   0  0  0  0  0  0  0  0  0  0  0  0
   -3.8463   -1.8958    0.2325 H   0  0  0  0  0  0  0  0  0  0  0  0
    4.8382   -2.1092    0.2939 H   0  0  0  0  0  0  0  0  0  0  0  0
    0.4339   -4.3559    0.7422 H   0  0  0  0  0  0  0  0  0  0  0  0
   -3.8173   -4.1102    1.3191 H   0  0  0  0  0  0  0  0  0  0  0  0
   -1.6818   -5.3461    1.5784 H   0  0  0  0  0  0  0  0  0  0  0  0
    3.3784   -2.3216   -2.2050 H   0  0  0  0  0  0  0  0  0  0  0  0
    2.2114   -1.0156   -2.4869 H   0  0  0  0  0  0  0  0  0  0  0  0
    3.9574    0.3724   -2.9240 H   0  0  0  0  0  0  0  0  0  0  0  0
  1 15  2  0  0  0  0
  2 18  1  0  0  0  0
  2 23  1  0  0  0  0
  3 28  1  0  0  0  0
  3 52  1  0  0  0  0
  4  9  1  0  0  0  0
  4 10  1  0  0  0  0
  4 13  1  0  0  0  0
  5 11  1  0  0  0  0
  5 12  1  0  0  0  0
  5 15  1  0  0  0  0
  6  8  1  0  0  0  0
  6  9  1  0  0  0  0
  6 11  1  0  0  0  0
  6 29  1  0  0  0  0
  7  8  1  0  0  0  0
  7 10  1  0  0  0  0
  7 12  1  0  0  0  0
  7 30  1  0  0  0  0
  8 31  1  0  0  0  0
  8 32  1  0  0  0  0
  9 33  1  0  0  0  0
  9 34  1  0  0  0  0
 10 35  1  0  0  0  0
 10 36  1  0  0  0  0
 11 37  1  0  0  0  0
 11 38  1  0  0  0  0
 12 14  2  0  0  0  0
 13 18  1  0  0  0  0
 13 39  1  0  0  0  0
 13 40  1  0  0  0  0
 14 16  1  0  0  0  0
 14 19  1  0  0  0  0
 15 17  1  0  0  0  0
 16 17  2  0  0  0  0
 16 41  1  0  0  0  0
 17 42  1  0  0  0  0
 18 20  2  0  0  0  0
 19 21  2  0  0  0  0
 19 22  1  0  0  0  0
 20 24  1  0  0  0  0
 20 43  1  0  0  0  0
 21 25  1  0  0  0  0
 21 44  1  0  0  0  0
 22 26  2  0  0  0  0
 22 45  1  0  0  0  0
 23 24  2  0  0  0  0
 23 28  1  0  0  0  0
 24 46  1  0  0  0  0
 25 27  2  0  0  0  0
 25 47  1  0  0  0  0
 26 27  1  0  0  0  0
 26 48  1  0  0  0  0
 27 49  1  0  0  0  0
 28 50  1  0  0  0  0
 28 51  1  0  0  0  0
M  END
> <PUBCHEM_COMPOUND_CID>
7155460

> <PUBCHEM_CONFORMER_RMSD>
0.8

> <PUBCHEM_CONFORMER_DIVERSEORDER>
1
11
5
9
7
3
2
8
10
12
6
4

> <PUBCHEM_MMFF94_PARTIAL_CHARGES>
36
1 -0.57
10 0.27
11 0.3
12 -0.03
13 0.45
14 -0.03
15 0.62
16 -0.15
17 -0.14
18 -0.04
19 0.03
2 -0.28
20 -0.15
21 -0.15
22 -0.15
23 -0.04
24 -0.15
25 -0.15
26 -0.15
27 -0.15
28 0.46
3 -0.68
4 -0.81
41 0.15
42 0.15
43 0.15
44 0.15
45 0.15
46 0.15
47 0.15
48 0.15
49 0.15
5 -0.47
52 0.4
7 0.14
9 0.27

> <PUBCHEM_EFFECTIVE_ROTOR_COUNT>
5

> <PUBCHEM_PHARMACOPHORE_FEATURES>
10
1 1 acceptor
1 2 acceptor
1 3 acceptor
1 3 donor
1 4 cation
5 2 18 20 23 24 rings
6 19 21 22 25 26 27 rings
6 4 6 7 8 9 10 rings
6 5 12 14 15 16 17 rings
6 5 6 7 8 11 12 rings

> <PUBCHEM_HEAVY_ATOM_COUNT>
28

> <PUBCHEM_ATOM_DEF_STEREO_COUNT>
2

> <PUBCHEM_ATOM_UDEF_STEREO_COUNT>
0

> <PUBCHEM_BOND_DEF_STEREO_COUNT>
0

> <PUBCHEM_BOND_UDEF_STEREO_COUNT>
0

> <PUBCHEM_ISOTOPIC_ATOM_COUNT>
0

> <PUBCHEM_COMPONENT_COUNT>
1

> <PUBCHEM_CACTVS_TAUTO_COUNT>
1

> <PUBCHEM_CONFORMER_ID>
006D2F0400000001

> <PUBCHEM_MMFF94_ENERGY>
66.9455

> <PUBCHEM_FEATURE_SELFOVERLAP>
52.297

> <PUBCHEM_SHAPE_FINGERPRINT>
10165383 225 17688348640081627638
10190108 129 18195819475346066705
10764073 3 17055879921132707635
107951 10 17625011259884054780
12156800 1 15900465909322373466
12539773 59 17391402542726053516
12553582 1 17844244257962407288
13135754 10 17701291146149954018
15003188 3 17977667837725108027
15664445 248 17392765073665937781
17974551 9 17701267064616732587
1813 80 17534901098263284163
20600515 1 18191307280744812047
21285901 2 17834357445115772831
21330990 113 18335139765883834361
22907989 373 18260266347704057918
23419403 2 18052807333138580471
35225 105 18118996644202715298
469060 322 17968957390545094098
57527585 103 18343023272381056354
6287921 2 16605753458091988402

> <PUBCHEM_SHAPE_MULTIPOLES>
548.66
5.86
5
2.83
7.27
1.62
2.09
4.13
1.12
-4.23
-1.78
0.09
-1.4
2.43

> <PUBCHEM_SHAPE_SELFOVERLAP>
1212.46

> <PUBCHEM_SHAPE_VOLUME>
288.8

> <PUBCHEM_COORDINATE_TYPE>
2
5
10

$$$$
