25390318
  -OEChem-12032416173D

 44 45  0     1  0  0  0  0  0999 V2000
    5.5718    0.3810   -0.9228 F   0  0  0  0  0  0  0  0  0  0  0  0
   -1.8435   -0.6450    0.5524 O   0  0  0  0  0  0  0  0  0  0  0  0
   -4.3069   -2.3445    1.1018 O   0  0  0  0  0  0  0  0  0  0  0  0
   -5.1943   -0.4955   -0.7317 O   0  0  0  0  0  0  0  0  0  0  0  0
   -1.4155    1.9452    1.5366 O   0  0  0  0  0  0  0  0  0  0  0  0
    0.5383   -0.1707   -1.1448 O   0  0  0  0  0  0  0  0  0  0  0  0
    0.2453   -2.3460   -0.3925 N   0  0  0  0  0  0  0  0  0  0  0  0
   -1.3604    3.4265   -0.2532 N   0  0  0  0  0  0  0  0  0  0  0  0
   -3.5418   -2.1809   -0.0917 C   0  0  1  0  0  0  0  0  0  0  0  0
   -3.8229   -0.8294   -0.7151 C   0  0  2  0  0  0  0  0  0  0  0  0
   -2.0743   -2.0502    0.3011 C   0  0  1  0  0  0  0  0  0  0  0  0
   -3.0220    0.0944    0.1867 C   0  0  2  0  0  0  0  0  0  0  0  0
   -1.1207   -2.4889   -0.8018 C   0  0  0  0  0  0  0  0  0  0  0  0
   -2.6213    1.3949   -0.4866 C   0  0  0  0  0  0  0  0  0  0  0  0
   -1.7390    2.2597    0.3945 C   0  0  0  0  0  0  0  0  0  0  0  0
    0.9775   -1.1800   -0.5998 C   0  0  0  0  0  0  0  0  0  0  0  0
    2.3902   -1.2006   -0.1408 C   0  0  0  0  0  0  0  0  0  0  0  0
   -0.5203    4.4310    0.3574 C   0  0  0  0  0  0  0  0  0  0  0  0
    3.3366   -0.3838   -0.7596 C   0  0  0  0  0  0  0  0  0  0  0  0
    2.7704   -2.0373    0.9086 C   0  0  0  0  0  0  0  0  0  0  0  0
    4.6631   -0.4036   -0.3290 C   0  0  0  0  0  0  0  0  0  0  0  0
    4.0969   -2.0571    1.3391 C   0  0  0  0  0  0  0  0  0  0  0  0
    0.8937    4.1673    0.0927 C   0  0  0  0  0  0  0  0  0  0  0  0
    5.0434   -1.2405    0.7203 C   0  0  0  0  0  0  0  0  0  0  0  0
    2.0556    3.9542   -0.1221 C   0  0  0  0  0  0  0  0  0  0  0  0
   -3.7674   -3.0216   -0.7538 H   0  0  0  0  0  0  0  0  0  0  0  0
   -3.4391   -0.8004   -1.7419 H   0  0  0  0  0  0  0  0  0  0  0  0
   -1.8485   -2.5864    1.2303 H   0  0  0  0  0  0  0  0  0  0  0  0
   -3.5739    0.3175    1.1092 H   0  0  0  0  0  0  0  0  0  0  0  0
   -1.2702   -1.8973   -1.7118 H   0  0  0  0  0  0  0  0  0  0  0  0
   -1.2799   -3.5438   -1.0480 H   0  0  0  0  0  0  0  0  0  0  0  0
   -3.5119    1.9700   -0.7641 H   0  0  0  0  0  0  0  0  0  0  0  0
   -2.0517    1.1830   -1.4003 H   0  0  0  0  0  0  0  0  0  0  0  0
   -4.0669   -3.2056    1.4850 H   0  0  0  0  0  0  0  0  0  0  0  0
   -5.6576   -1.1915   -1.2281 H   0  0  0  0  0  0  0  0  0  0  0  0
    0.6854   -3.1643    0.0143 H   0  0  0  0  0  0  0  0  0  0  0  0
   -1.6699    3.5857   -1.2078 H   0  0  0  0  0  0  0  0  0  0  0  0
   -0.8167    5.3984   -0.0599 H   0  0  0  0  0  0  0  0  0  0  0  0
   -0.7114    4.4526    1.4353 H   0  0  0  0  0  0  0  0  0  0  0  0
    3.0611    0.2723   -1.5809 H   0  0  0  0  0  0  0  0  0  0  0  0
    2.0600   -2.6649    1.4381 H   0  0  0  0  0  0  0  0  0  0  0  0
    4.3921   -2.7029    2.1610 H   0  0  0  0  0  0  0  0  0  0  0  0
    6.0759   -1.2544    1.0564 H   0  0  0  0  0  0  0  0  0  0  0  0
    3.0856    3.7626   -0.3129 H   0  0  0  0  0  0  0  0  0  0  0  0
  1 21  1  0  0  0  0
  2 11  1  0  0  0  0
  2 12  1  0  0  0  0
  3  9  1  0  0  0  0
  3 34  1  0  0  0  0
  4 10  1  0  0  0  0
  4 35  1  0  0  0  0
  5 15  2  0  0  0  0
  6 16  2  0  0  0  0
  7 13  1  0  0  0  0
  7 16  1  0  0  0  0
  7 36  1  0  0  0  0
  8 15  1  0  0  0  0
  8 18  1  0  0  0  0
  8 37  1  0  0  0  0
  9 10  1  0  0  0  0
  9 11  1  0  0  0  0
  9 26  1  0  0  0  0
 10 12  1  0  0  0  0
 10 27  1  0  0  0  0
 11 13  1  0  0  0  0
 11 28  1  0  0  0  0
 12 14  1  0  0  0  0
 12 29  1  0  0  0  0
 13 30  1  0  0  0  0
 13 31  1  0  0  0  0
 14 15  1  0  0  0  0
 14 32  1  0  0  0  0
 14 33  1  0  0  0  0
 16 17  1  0  0  0  0
 17 19  2  0  0  0  0
 17 20  1  0  0  0  0
 18 23  1  0  0  0  0
 18 38  1  0  0  0  0
 18 39  1  0  0  0  0
 19 21  1  0  0  0  0
 19 40  1  0  0  0  0
 20 22  2  0  0  0  0
 20 41  1  0  0  0  0
 21 24  2  0  0  0  0
 22 24  1  0  0  0  0
 22 42  1  0  0  0  0
 23 25  3  0  0  0  0
 24 43  1  0  0  0  0
 25 44  1  0  0  0  0
M  END
> <PUBCHEM_COMPOUND_CID>
25390318

> <PUBCHEM_CONFORMER_RMSD>
1.2

> <PUBCHEM_CONFORMER_DIVERSEORDER>
1
19
28
81
105
94
68
30
114
85
101
69
32
12
61
77
33
93
60
11
65
104
126
111
4
103
53
112
127
115
120
83
18
37
34
29
8
44
123
80
107
110
41
109
118
76
108
55
52
75
96
92
40
57
90
72
49
48
106
89
38
84
27
21
129
99
116
50
66
117
58
42
16
91
46
56
88
98
7
95
87
39
13
47
35
59
100
5
130
64
23
62
119
122
43
36
26
79
73
124
31
113
70
71
24
63
82
25
67
97
128
51
45
102
54
14
78
121
9
125
20
6
10
74
15
86
17
22
3
2

> <PUBCHEM_MMFF94_PARTIAL_CHARGES>
34
1 -0.19
10 0.28
11 0.28
12 0.28
13 0.3
14 0.06
15 0.57
16 0.54
17 0.09
18 0.5
19 -0.15
2 -0.56
20 -0.15
21 0.19
22 -0.15
23 -0.2
24 -0.15
25 -0.18
3 -0.68
34 0.4
35 0.4
36 0.37
37 0.37
4 -0.68
40 0.15
41 0.15
42 0.15
43 0.15
44 0.18
5 -0.57
6 -0.57
7 -0.73
8 -0.73
9 0.28

> <PUBCHEM_EFFECTIVE_ROTOR_COUNT>
9

> <PUBCHEM_PHARMACOPHORE_FEATURES>
12
1 2 acceptor
1 25 hydrophobe
1 3 acceptor
1 3 donor
1 4 acceptor
1 4 donor
1 5 acceptor
1 6 acceptor
1 7 donor
1 8 donor
5 2 9 10 11 12 rings
6 17 19 20 21 22 24 rings

> <PUBCHEM_HEAVY_ATOM_COUNT>
25

> <PUBCHEM_ATOM_DEF_STEREO_COUNT>
4

> <PUBCHEM_ATOM_UDEF_STEREO_COUNT>
0

> <PUBCHEM_BOND_DEF_STEREO_COUNT>
0

> <PUBCHEM_BOND_UDEF_STEREO_COUNT>
0

> <PUBCHEM_ISOTOPIC_ATOM_COUNT>
0

> <PUBCHEM_COMPONENT_COUNT>
1

> <PUBCHEM_CACTVS_TAUTO_COUNT>
4

> <PUBCHEM_CONFORMER_ID>
01836CEE00000001

> <PUBCHEM_MMFF94_ENERGY>
52.3229

> <PUBCHEM_FEATURE_SELFOVERLAP>
60.913

> <PUBCHEM_SHAPE_FINGERPRINT>
10670039 82 18339655443117769990
1100329 8 18266742557022633719
11370993 70 17473819524825186920
11578080 2 17751336573366556093
12107183 9 17469593015350814514
12156800 1 15407289872740747680
12596602 18 17748545961258013394
12788726 201 18335987489059063082
138480 1 14952373095684426456
14142880 1 18058740087628739123
14790565 3 17692535511921355569
15927050 60 17404026319350802383
167882 2 18122897896800859373
17627616 140 17975418233204109364
17818456 19 17975406924380807882
19930381 70 17905605854040101608
21033648 29 17560506335898239114
21344244 246 17836911671084050055
23402539 116 18272077289184200815
23559900 14 18338507655223954801
3298306 158 17834393797682542629
469060 322 18341630195665405723
532947 4 18123463053966706445
9981440 41 17327173252250215153

> <PUBCHEM_SHAPE_MULTIPOLES>
467.91
9.58
5.37
1.06
5.76
8.44
0.15
-6.13
0.06
-0.99
0.69
0.27
-0.26
-0.78

> <PUBCHEM_SHAPE_SELFOVERLAP>
975.701

> <PUBCHEM_SHAPE_VOLUME>
264.4

> <PUBCHEM_COORDINATE_TYPE>
2
5
10

$$$$
