11884340
  -OEChem-12032416143D

 30 31  0     1  0  0  0  0  0999 V2000
   -1.6615   -0.9424   -1.0597 O   0  0  0  0  0  0  0  0  0  0  0  0
   -2.3381    1.5020    0.6435 O   0  0  0  0  0  0  0  0  0  0  0  0
   -4.2664   -1.3944   -0.2069 O   0  0  0  0  0  0  0  0  0  0  0  0
    2.5591    1.3392   -0.8581 O   0  0  0  0  0  0  0  0  0  0  0  0
    4.6373   -0.1242    0.0285 O   0  0  0  0  0  0  0  0  0  0  0  0
    1.0123   -0.0053    0.2431 N   0  0  0  0  0  0  0  0  0  0  0  0
   -1.3330    0.4779    0.8070 C   0  0  1  0  0  0  0  0  0  0  0  0
   -1.9564   -0.8231    0.3431 C   0  0  1  0  0  0  0  0  0  0  0  0
   -0.1959    0.7097   -0.1645 C   0  0  2  0  0  0  0  0  0  0  0  0
   -3.4273   -0.5844    0.5851 C   0  0  1  0  0  0  0  0  0  0  0  0
   -0.7516    0.1002   -1.4434 C   0  0  0  0  0  0  0  0  0  0  0  0
   -3.5718    0.8831    0.2502 C   0  0  0  0  0  0  0  0  0  0  0  0
    2.2894    0.3775   -0.1437 C   0  0  0  0  0  0  0  0  0  0  0  0
    3.3486   -0.5424    0.4252 C   0  0  0  0  0  0  0  0  0  0  0  0
    5.6553   -0.9733    0.5505 C   0  0  0  0  0  0  0  0  0  0  0  0
   -1.0355    0.4669    1.8603 H   0  0  0  0  0  0  0  0  0  0  0  0
   -1.5666   -1.7145    0.8427 H   0  0  0  0  0  0  0  0  0  0  0  0
    0.0500    1.7665   -0.3106 H   0  0  0  0  0  0  0  0  0  0  0  0
   -3.6632   -0.7488    1.6428 H   0  0  0  0  0  0  0  0  0  0  0  0
   -1.3300    0.8405   -2.0071 H   0  0  0  0  0  0  0  0  0  0  0  0
    0.0131   -0.3143   -2.1075 H   0  0  0  0  0  0  0  0  0  0  0  0
   -3.7282    1.0570   -0.8203 H   0  0  0  0  0  0  0  0  0  0  0  0
   -4.4028    1.3504    0.7872 H   0  0  0  0  0  0  0  0  0  0  0  0
    0.9012   -0.8495    0.7978 H   0  0  0  0  0  0  0  0  0  0  0  0
   -4.0049   -1.2798   -1.1365 H   0  0  0  0  0  0  0  0  0  0  0  0
    3.2709   -0.5267    1.5185 H   0  0  0  0  0  0  0  0  0  0  0  0
    3.1569   -1.5583    0.0605 H   0  0  0  0  0  0  0  0  0  0  0  0
    5.6397   -0.9603    1.6445 H   0  0  0  0  0  0  0  0  0  0  0  0
    6.6237   -0.5981    0.2092 H   0  0  0  0  0  0  0  0  0  0  0  0
    5.5257   -1.9957    0.1825 H   0  0  0  0  0  0  0  0  0  0  0  0
  1  8  1  0  0  0  0
  1 11  1  0  0  0  0
  2  7  1  0  0  0  0
  2 12  1  0  0  0  0
  3 10  1  0  0  0  0
  3 25  1  0  0  0  0
  4 13  2  0  0  0  0
  5 14  1  0  0  0  0
  5 15  1  0  0  0  0
  6  9  1  0  0  0  0
  6 13  1  0  0  0  0
  6 24  1  0  0  0  0
  7  8  1  0  0  0  0
  7  9  1  0  0  0  0
  7 16  1  0  0  0  0
  8 10  1  0  0  0  0
  8 17  1  0  0  0  0
  9 11  1  0  0  0  0
  9 18  1  0  0  0  0
 10 12  1  0  0  0  0
 10 19  1  0  0  0  0
 11 20  1  0  0  0  0
 11 21  1  0  0  0  0
 12 22  1  0  0  0  0
 12 23  1  0  0  0  0
 13 14  1  0  0  0  0
 14 26  1  0  0  0  0
 14 27  1  0  0  0  0
 15 28  1  0  0  0  0
 15 29  1  0  0  0  0
 15 30  1  0  0  0  0
M  END
> <PUBCHEM_COMPOUND_CID>
11884340

> <PUBCHEM_CONFORMER_RMSD>
0.6

> <PUBCHEM_CONFORMER_DIVERSEORDER>
1
31
38
25
21
20
36
2
4
5
23
29
16
32
34
14
8
24
28
22
37
18
26
12
35
13
19
11
3
27
9
33
30
10
15
7
17
6

> <PUBCHEM_MMFF94_PARTIAL_CHARGES>
17
1 -0.56
10 0.28
11 0.28
12 0.28
13 0.57
14 0.34
15 0.28
2 -0.56
24 0.37
25 0.4
3 -0.68
4 -0.57
5 -0.56
6 -0.73
7 0.28
8 0.28
9 0.3

> <PUBCHEM_EFFECTIVE_ROTOR_COUNT>
5.2

> <PUBCHEM_PHARMACOPHORE_FEATURES>
9
1 1 acceptor
1 2 acceptor
1 3 acceptor
1 3 donor
1 4 acceptor
1 5 acceptor
1 6 donor
5 1 7 8 9 11 rings
5 2 7 8 10 12 rings

> <PUBCHEM_HEAVY_ATOM_COUNT>
15

> <PUBCHEM_ATOM_DEF_STEREO_COUNT>
4

> <PUBCHEM_ATOM_UDEF_STEREO_COUNT>
0

> <PUBCHEM_BOND_DEF_STEREO_COUNT>
0

> <PUBCHEM_BOND_UDEF_STEREO_COUNT>
0

> <PUBCHEM_ISOTOPIC_ATOM_COUNT>
0

> <PUBCHEM_COMPONENT_COUNT>
1

> <PUBCHEM_CACTVS_TAUTO_COUNT>
2

> <PUBCHEM_CONFORMER_ID>
00B5573400000001

> <PUBCHEM_MMFF94_ENERGY>
38.4538

> <PUBCHEM_FEATURE_SELFOVERLAP>
46.403

> <PUBCHEM_SHAPE_FINGERPRINT>
10465860 250 17918273138804677656
11132069 177 16486980617556593685
12251169 10 18131632296480057452
124424 183 18201717340661397009
12916754 54 17967534618161235597
13024252 1 13190339063413692901
13288520 33 18261111851056154474
13581323 91 17918277562351817356
13675066 3 17917711284310457486
16945 1 17418099832078587109
17834072 33 18335987549320318052
18186145 218 16081086017142920841
187816 3 13984659261252136611
19026448 5 18334584567792799573
19422 9 18334583472407184556
200 152 18187361047280789066
20279233 1 16415482644772322684
204376 136 14549012196116824652
20645464 45 15769775766621426556
20645477 56 16056874732929715560
20871999 31 14346065404570858070
21119208 17 12107788510349890746
22485316 2 18260265227044640898
23402539 116 18202278092250991237
23402655 69 9439410116236484850
23532345 12 18410859854291493544
23559900 14 18263921197358997945
3286 77 18334576884259791876
42 15 18344148081540025794
449060 50 14189576351543599016
5104073 3 18342463685160136425
573450 72 18411698755703499888
76465 3 18128530656057254359

> <PUBCHEM_SHAPE_MULTIPOLES>
274.37
9.5
1.24
0.99
11.34
0.05
-0.23
-3.08
1.6
-0.48
-0.01
-0.31
0.04
-0.67

> <PUBCHEM_SHAPE_SELFOVERLAP>
563.652

> <PUBCHEM_SHAPE_VOLUME>
159.6

> <PUBCHEM_COORDINATE_TYPE>
2
5
10

$$$$
