11884107
  -OEChem-12032416123D

 62 66  0     1  0  0  0  0  0999 V2000
    4.0834    0.0585   -2.3250 S   0  0  0  0  0  0  0  0  0  0  0  0
   -0.1812    1.5840   -0.8945 O   0  0  0  0  0  0  0  0  0  0  0  0
    1.7515    1.9833    1.4648 O   0  0  0  0  0  0  0  0  0  0  0  0
   -1.8139    1.6544    1.3466 O   0  0  0  0  0  0  0  0  0  0  0  0
    4.4293    1.2614   -3.0578 O   0  0  0  0  0  0  0  0  0  0  0  0
    4.1969   -1.2407   -2.9596 O   0  0  0  0  0  0  0  0  0  0  0  0
   -2.4169   -0.4677    0.7442 O   0  0  0  0  0  0  0  0  0  0  0  0
    2.5201    0.2179   -1.6820 N   0  0  0  0  0  0  0  0  0  0  0  0
   -3.9806    1.2713    0.8505 N   0  0  0  0  0  0  0  0  0  0  0  0
    4.2266   -2.1410   -0.3178 N   0  0  0  0  0  0  0  0  0  0  0  0
    1.6325    0.9281    0.4880 C   0  0  1  0  0  0  0  0  0  0  0  0
    0.1521    0.7410    0.2208 C   0  0  1  0  0  0  0  0  0  0  0  0
    2.1866    1.3893   -0.8371 C   0  0  2  0  0  0  0  0  0  0  0  0
   -0.4776    1.2332    1.5017 C   0  0  1  0  0  0  0  0  0  0  0  0
    1.0206    2.1443   -1.4451 C   0  0  0  0  0  0  0  0  0  0  0  0
    0.4371    2.3732    1.8884 C   0  0  0  0  0  0  0  0  0  0  0  0
    5.0758    0.0064   -0.8632 C   0  0  0  0  0  0  0  0  0  0  0  0
   -2.7278    0.6984    0.9540 C   0  0  0  0  0  0  0  0  0  0  0  0
    5.0271   -1.0981   -0.0272 C   0  0  0  0  0  0  0  0  0  0  0  0
    5.8878    1.1058   -0.6025 C   0  0  0  0  0  0  0  0  0  0  0  0
    5.8408   -1.0828    1.1249 C   0  0  0  0  0  0  0  0  0  0  0  0
    6.6867    1.1141    0.5341 C   0  0  0  0  0  0  0  0  0  0  0  0
   -5.1941    0.6491    0.4785 C   0  0  0  0  0  0  0  0  0  0  0  0
    6.6646    0.0225    1.3974 C   0  0  0  0  0  0  0  0  0  0  0  0
    5.7991   -2.1948    1.9768 C   0  0  0  0  0  0  0  0  0  0  0  0
   -6.3569    1.4017    0.4333 C   0  0  0  0  0  0  0  0  0  0  0  0
   -5.1976   -0.7010    0.1665 C   0  0  0  0  0  0  0  0  0  0  0  0
   -7.5738   -0.5701   -0.2505 C   0  0  0  0  0  0  0  0  0  0  0  0
    4.2156   -3.1947    0.5303 C   0  0  0  0  0  0  0  0  0  0  0  0
   -8.8543   -1.2266   -0.6428 C   0  0  0  0  0  0  0  0  0  0  0  0
    4.9752   -3.2710    1.6799 C   0  0  0  0  0  0  0  0  0  0  0  0
   -7.5546    0.7880    0.0665 C   0  0  0  0  0  0  0  0  0  0  0  0
   -6.3953   -1.3148   -0.2005 C   0  0  0  0  0  0  0  0  0  0  0  0
   -8.8152   -1.7824   -2.0789 C   0  0  0  0  0  0  0  0  0  0  0  0
   -9.2696   -2.3400    0.3373 C   0  0  0  0  0  0  0  0  0  0  0  0
    2.1137    0.0369    0.9025 H   0  0  0  0  0  0  0  0  0  0  0  0
   -0.1001   -0.2872   -0.0515 H   0  0  0  0  0  0  0  0  0  0  0  0
    3.0473    2.0565   -0.7378 H   0  0  0  0  0  0  0  0  0  0  0  0
   -0.4146    0.4565    2.2758 H   0  0  0  0  0  0  0  0  0  0  0  0
    0.9782    2.0875   -2.5371 H   0  0  0  0  0  0  0  0  0  0  0  0
    1.0451    3.2007   -1.1560 H   0  0  0  0  0  0  0  0  0  0  0  0
    0.4386    2.5579    2.9669 H   0  0  0  0  0  0  0  0  0  0  0  0
    0.1676    3.3112    1.3901 H   0  0  0  0  0  0  0  0  0  0  0  0
    1.8806   -0.5853   -1.6584 H   0  0  0  0  0  0  0  0  0  0  0  0
    5.9204    1.9708   -1.2573 H   0  0  0  0  0  0  0  0  0  0  0  0
   -4.0397    2.2631    1.0680 H   0  0  0  0  0  0  0  0  0  0  0  0
    7.3236    1.9668    0.7489 H   0  0  0  0  0  0  0  0  0  0  0  0
    7.2937    0.0392    2.2847 H   0  0  0  0  0  0  0  0  0  0  0  0
    6.4087   -2.2283    2.8769 H   0  0  0  0  0  0  0  0  0  0  0  0
   -6.3529    2.4602    0.6782 H   0  0  0  0  0  0  0  0  0  0  0  0
   -4.3275   -1.3411    0.1824 H   0  0  0  0  0  0  0  0  0  0  0  0
   -9.6579   -0.4777   -0.6210 H   0  0  0  0  0  0  0  0  0  0  0  0
    3.5525   -4.0055    0.2469 H   0  0  0  0  0  0  0  0  0  0  0  0
    4.9305   -4.1385    2.3275 H   0  0  0  0  0  0  0  0  0  0  0  0
   -8.4636    1.3828    0.0327 H   0  0  0  0  0  0  0  0  0  0  0  0
   -6.3883   -2.3739   -0.4435 H   0  0  0  0  0  0  0  0  0  0  0  0
   -8.0910   -2.5975   -2.1832 H   0  0  0  0  0  0  0  0  0  0  0  0
   -9.7981   -2.1711   -2.3668 H   0  0  0  0  0  0  0  0  0  0  0  0
   -8.5419   -0.9973   -2.7926 H   0  0  0  0  0  0  0  0  0  0  0  0
   -9.3230   -1.9562    1.3621 H   0  0  0  0  0  0  0  0  0  0  0  0
  -10.2571   -2.7343    0.0740 H   0  0  0  0  0  0  0  0  0  0  0  0
   -8.5635   -3.1774    0.3292 H   0  0  0  0  0  0  0  0  0  0  0  0
  1  5  2  0  0  0  0
  1  6  2  0  0  0  0
  1  8  1  0  0  0  0
  1 17  1  0  0  0  0
  2 12  1  0  0  0  0
  2 15  1  0  0  0  0
  3 11  1  0  0  0  0
  3 16  1  0  0  0  0
  4 14  1  0  0  0  0
  4 18  1  0  0  0  0
  7 18  2  0  0  0  0
  8 13  1  0  0  0  0
  8 44  1  0  0  0  0
  9 18  1  0  0  0  0
  9 23  1  0  0  0  0
  9 46  1  0  0  0  0
 10 19  1  0  0  0  0
 10 29  2  0  0  0  0
 11 12  1  0  0  0  0
 11 13  1  0  0  0  0
 11 36  1  0  0  0  0
 12 14  1  0  0  0  0
 12 37  1  0  0  0  0
 13 15  1  0  0  0  0
 13 38  1  0  0  0  0
 14 16  1  0  0  0  0
 14 39  1  0  0  0  0
 15 40  1  0  0  0  0
 15 41  1  0  0  0  0
 16 42  1  0  0  0  0
 16 43  1  0  0  0  0
 17 19  1  0  0  0  0
 17 20  2  0  0  0  0
 19 21  2  0  0  0  0
 20 22  1  0  0  0  0
 20 45  1  0  0  0  0
 21 24  1  0  0  0  0
 21 25  1  0  0  0  0
 22 24  2  0  0  0  0
 22 47  1  0  0  0  0
 23 26  2  0  0  0  0
 23 27  1  0  0  0  0
 24 48  1  0  0  0  0
 25 31  2  0  0  0  0
 25 49  1  0  0  0  0
 26 32  1  0  0  0  0
 26 50  1  0  0  0  0
 27 33  2  0  0  0  0
 27 51  1  0  0  0  0
 28 30  1  0  0  0  0
 28 32  2  0  0  0  0
 28 33  1  0  0  0  0
 29 31  1  0  0  0  0
 29 53  1  0  0  0  0
 30 34  1  0  0  0  0
 30 35  1  0  0  0  0
 30 52  1  0  0  0  0
 31 54  1  0  0  0  0
 32 55  1  0  0  0  0
 33 56  1  0  0  0  0
 34 57  1  0  0  0  0
 34 58  1  0  0  0  0
 34 59  1  0  0  0  0
 35 60  1  0  0  0  0
 35 61  1  0  0  0  0
 35 62  1  0  0  0  0
M  END
> <PUBCHEM_COMPOUND_CID>
11884107

> <PUBCHEM_CONFORMER_RMSD>
1

> <PUBCHEM_CONFORMER_DIVERSEORDER>
1
18
10
188
237
85
226
242
176
155
36
60
183
204
243
38
129
131
187
157
195
113
97
192
214
142
175
111
211
32
62
107
173
73
247
74
94
79
171
231
228
229
5
217
169
201
225
246
88
112
64
50
152
54
84
86
202
199
61
205
148
67
21
212
124
30
3
159
134
230
180
174
11
80
151
43
184
141
165
63
66
218
76
109
203
170
177
22
40
121
181
147
118
191
116
150
59
132
70
9
196
162
163
127
72
106
120
168
103
154
221
216
206
78
47
158
133
46
14
7
90
197
252
251
17
128
238
250
52
136
82
69
55
81
222
115
53
31
144
56
68
167
13
58
227
161
91
232
198
23
41
87
20
99
164
213
145
241
96
37
2
16
49
182
95
93
178
51
102
98
24
65
160
253
193
33
27
236
110
166
25
101
4
77
114
28
254
185
126
108
15
179
105
153
45
39
146
189
245
130
234
186
48
156
119
194
249
122
26
6
75
143
200
117
220
207
83
248
240
35
235
71
12
233
210
219
239
224
190
104
215
172
139
223
8
137
44
138
100
140
209
42
149
208
57
89
244
34
135
19
92
123
125
29

> <PUBCHEM_MMFF94_PARTIAL_CHARGES>
44
1 1.45
10 -0.62
11 0.28
12 0.28
13 0.36
14 0.28
15 0.28
16 0.28
17 -0.01
18 0.78
19 0.31
2 -0.56
20 -0.15
22 -0.15
23 0.12
24 -0.15
25 -0.15
26 -0.15
27 -0.15
28 -0.14
29 0.16
3 -0.56
30 0.14
31 -0.15
32 -0.15
33 -0.15
4 -0.43
44 0.42
45 0.15
46 0.37
47 0.15
48 0.15
49 0.15
5 -0.65
50 0.15
51 0.15
53 0.15
54 0.15
55 0.15
56 0.15
6 -0.65
7 -0.57
8 -0.91
9 -0.55

> <PUBCHEM_EFFECTIVE_ROTOR_COUNT>
9.2

> <PUBCHEM_PHARMACOPHORE_FEATURES>
14
1 10 acceptor
1 2 acceptor
1 3 acceptor
1 5 acceptor
1 6 acceptor
1 7 acceptor
1 8 donor
1 9 donor
3 30 34 35 hydrophobe
5 2 11 12 13 15 rings
5 3 11 12 14 16 rings
6 10 19 21 25 29 31 rings
6 17 19 20 21 22 24 rings
6 23 26 27 28 32 33 rings

> <PUBCHEM_HEAVY_ATOM_COUNT>
35

> <PUBCHEM_ATOM_DEF_STEREO_COUNT>
4

> <PUBCHEM_ATOM_UDEF_STEREO_COUNT>
0

> <PUBCHEM_BOND_DEF_STEREO_COUNT>
0

> <PUBCHEM_BOND_UDEF_STEREO_COUNT>
0

> <PUBCHEM_ISOTOPIC_ATOM_COUNT>
0

> <PUBCHEM_COMPONENT_COUNT>
1

> <PUBCHEM_CACTVS_TAUTO_COUNT>
2

> <PUBCHEM_CONFORMER_ID>
00B5564B00000001

> <PUBCHEM_MMFF94_ENERGY>
92.4557

> <PUBCHEM_FEATURE_SELFOVERLAP>
71.815

> <PUBCHEM_SHAPE_FINGERPRINT>
10554248 39 17022914444769896413
11135609 127 17604717814779343148
11386260 185 16298392382843995846
12013929 112 12540968543631234299
13560911 43 18202566207273437649
13782708 43 18272933821948665933
14068700 675 18411704279369968265
14068700 686 16557919905053162709
14117953 113 17676214546660910610
14347332 77 18261957345380889413
14537116 161 14201113501189486490
15119646 104 18187367597179775146
15183329 4 18113629971123826629
15392192 104 15841262769948687545
17134984 74 18409173228992290814
18335252 114 15357694232117348725
19315092 285 18191861229153383986
19841028 212 18262797350795248018
21130935 74 16701754752281767159
21133410 58 17312820493907403554
21458453 9 14476952406965499941
21895439 516 17095530617287054763
22149856 69 16486710099136517713
3711267 37 10809340019289768927
394071 54 14548720799786629946
4066623 53 16153422831494824540
42767 39 18040991813613910751
437795 51 14261349159074443166
57359948 33 13623533455293264094
59682541 52 17603871112914585245
6201320 221 18192692489577139167
6438161 24 18412541029472285715
8988823 20 18409169896830950712
9962374 69 17274247479375369429

> <PUBCHEM_SHAPE_MULTIPOLES>
673.97
27.43
2.9
2.2
57.07
1.86
-1.36
16.88
-3.52
-2.31
0.85
-3
-0.22
-3.37

> <PUBCHEM_SHAPE_SELFOVERLAP>
1460.597

> <PUBCHEM_SHAPE_VOLUME>
370.5

> <PUBCHEM_COORDINATE_TYPE>
2
5
10

$$$$
