11867292
  -OEChem-12032416173D

 69 72  0     1  0  0  0  0  0999 V2000
   -0.5984    3.2662    0.1993 S   0  0  0  0  0  0  0  0  0  0  0  0
   -7.1250   -1.0096   -0.6642 O   0  0  0  0  0  0  0  0  0  0  0  0
   -7.2811    0.8010    0.8985 O   0  0  0  0  0  0  0  0  0  0  0  0
    0.8895   -1.5770   -1.4957 O   0  0  0  0  0  0  0  0  0  0  0  0
    3.5222    1.1250   -0.2358 O   0  0  0  0  0  0  0  0  0  0  0  0
    5.6338    2.7646   -0.2063 O   0  0  0  0  0  0  0  0  0  0  0  0
    0.5600    0.9708   -0.0868 N   0  0  0  0  0  0  0  0  0  0  0  0
    1.5173   -2.9938    0.2363 N   0  0  0  0  0  0  0  0  0  0  0  0
    1.9930    2.9058    0.0235 N   0  0  0  0  0  0  0  0  0  0  0  0
    5.9568   -1.6389   -0.8065 N   0  0  0  0  0  0  0  0  0  0  0  0
   -2.8967   -0.6819    0.3468 C   0  0  2  0  0  0  0  0  0  0  0  0
   -3.6577    0.5564   -0.3037 C   0  0  1  0  0  0  0  0  0  0  0  0
   -5.2344    0.5105   -0.2989 C   0  0  1  0  0  0  0  0  0  0  0  0
   -1.3780   -0.6428   -0.1487 C   0  0  1  0  0  0  0  0  0  0  0  0
   -3.5397   -2.0021   -0.1517 C   0  0  0  0  0  0  0  0  0  0  0  0
   -5.7075   -0.8907   -0.7795 C   0  0  1  0  0  0  0  0  0  0  0  0
   -3.0684    1.9096    0.1906 C   0  0  0  0  0  0  0  0  0  0  0  0
   -5.0554   -2.0391   -0.0175 C   0  0  0  0  0  0  0  0  0  0  0  0
   -2.9338   -0.6646    1.8949 C   0  0  0  0  0  0  0  0  0  0  0  0
   -0.8025    0.7445   -0.0235 C   0  0  0  0  0  0  0  0  0  0  0  0
   -5.8819    0.8759    1.0551 C   0  0  0  0  0  0  0  0  0  0  0  0
   -5.7751    1.5550   -1.3161 C   0  0  0  0  0  0  0  0  0  0  0  0
   -1.5795    1.8772    0.1097 C   0  0  0  0  0  0  0  0  0  0  0  0
   -0.4666   -1.6902    0.5050 C   0  0  0  0  0  0  0  0  0  0  0  0
    0.7025   -2.0554   -0.3802 C   0  0  0  0  0  0  0  0  0  0  0  0
    0.7841    2.2619    0.0274 C   0  0  0  0  0  0  0  0  0  0  0  0
    2.7099   -3.5298   -0.3789 C   0  0  0  0  0  0  0  0  0  0  0  0
    3.2639    2.3166   -0.1048 C   0  0  0  0  0  0  0  0  0  0  0  0
    3.9264   -2.7128   -0.0521 C   0  0  0  0  0  0  0  0  0  0  0  0
    4.3630    3.3629   -0.0639 C   0  0  0  0  0  0  0  0  0  0  0  0
    4.1697   -2.2775    1.2460 C   0  0  0  0  0  0  0  0  0  0  0  0
    4.8425   -2.3699   -1.0335 C   0  0  0  0  0  0  0  0  0  0  0  0
    5.3054   -1.5231    1.5189 C   0  0  0  0  0  0  0  0  0  0  0  0
    6.1598   -1.2335    0.4672 C   0  0  0  0  0  0  0  0  0  0  0  0
    6.6820    3.7288   -0.1709 C   0  0  0  0  0  0  0  0  0  0  0  0
   -3.3925    0.4973   -1.3737 H   0  0  0  0  0  0  0  0  0  0  0  0
   -1.4139   -0.8395   -1.2308 H   0  0  0  0  0  0  0  0  0  0  0  0
   -3.1310   -2.8632    0.3890 H   0  0  0  0  0  0  0  0  0  0  0  0
   -3.2872   -2.1572   -1.2091 H   0  0  0  0  0  0  0  0  0  0  0  0
   -5.4682   -1.0009   -1.8456 H   0  0  0  0  0  0  0  0  0  0  0  0
   -3.4443    2.7322   -0.4270 H   0  0  0  0  0  0  0  0  0  0  0  0
   -3.3654    2.1115    1.2251 H   0  0  0  0  0  0  0  0  0  0  0  0
   -5.4275   -2.9929   -0.4133 H   0  0  0  0  0  0  0  0  0  0  0  0
   -5.3628   -2.0312    1.0340 H   0  0  0  0  0  0  0  0  0  0  0  0
   -2.3783   -1.5110    2.3138 H   0  0  0  0  0  0  0  0  0  0  0  0
   -3.9400   -0.7591    2.2976 H   0  0  0  0  0  0  0  0  0  0  0  0
   -2.4910    0.2423    2.3157 H   0  0  0  0  0  0  0  0  0  0  0  0
   -5.6261    1.8930    1.3673 H   0  0  0  0  0  0  0  0  0  0  0  0
   -5.6122    0.1911    1.8549 H   0  0  0  0  0  0  0  0  0  0  0  0
   -5.5969    2.5816   -0.9797 H   0  0  0  0  0  0  0  0  0  0  0  0
   -6.8532    1.4551   -1.4844 H   0  0  0  0  0  0  0  0  0  0  0  0
   -5.2918    1.4375   -2.2930 H   0  0  0  0  0  0  0  0  0  0  0  0
   -0.0798   -1.3346    1.4684 H   0  0  0  0  0  0  0  0  0  0  0  0
   -1.0074   -2.6240    0.6891 H   0  0  0  0  0  0  0  0  0  0  0  0
   -7.3776   -1.8794   -1.0180 H   0  0  0  0  0  0  0  0  0  0  0  0
   -7.6815    1.0417    1.7511 H   0  0  0  0  0  0  0  0  0  0  0  0
    1.2783   -3.3224    1.1677 H   0  0  0  0  0  0  0  0  0  0  0  0
    1.9417    3.9162    0.1250 H   0  0  0  0  0  0  0  0  0  0  0  0
    2.8460   -4.5515   -0.0086 H   0  0  0  0  0  0  0  0  0  0  0  0
    2.5517   -3.5783   -1.4622 H   0  0  0  0  0  0  0  0  0  0  0  0
    4.1927    4.0751   -0.8797 H   0  0  0  0  0  0  0  0  0  0  0  0
    4.3035    3.8880    0.8966 H   0  0  0  0  0  0  0  0  0  0  0  0
    3.4918   -2.5229    2.0586 H   0  0  0  0  0  0  0  0  0  0  0  0
    4.7093   -2.6802   -2.0652 H   0  0  0  0  0  0  0  0  0  0  0  0
    5.5160   -1.1738    2.5232 H   0  0  0  0  0  0  0  0  0  0  0  0
    7.0587   -0.6472    0.6273 H   0  0  0  0  0  0  0  0  0  0  0  0
    6.5730    4.4418   -0.9937 H   0  0  0  0  0  0  0  0  0  0  0  0
    6.6842    4.2554    0.7884 H   0  0  0  0  0  0  0  0  0  0  0  0
    7.6344    3.2045   -0.2851 H   0  0  0  0  0  0  0  0  0  0  0  0
  1 23  1  0  0  0  0
  1 26  1  0  0  0  0
  2 16  1  0  0  0  0
  2 55  1  0  0  0  0
  3 21  1  0  0  0  0
  3 56  1  0  0  0  0
  4 25  2  0  0  0  0
  5 28  2  0  0  0  0
  6 30  1  0  0  0  0
  6 35  1  0  0  0  0
  7 20  1  0  0  0  0
  7 26  2  0  0  0  0
  8 25  1  0  0  0  0
  8 27  1  0  0  0  0
  8 57  1  0  0  0  0
  9 26  1  0  0  0  0
  9 28  1  0  0  0  0
  9 58  1  0  0  0  0
 10 32  1  0  0  0  0
 10 34  2  0  0  0  0
 11 12  1  0  0  0  0
 11 14  1  0  0  0  0
 11 15  1  0  0  0  0
 11 19  1  0  0  0  0
 12 13  1  0  0  0  0
 12 17  1  0  0  0  0
 12 36  1  0  0  0  0
 13 16  1  0  0  0  0
 13 21  1  0  0  0  0
 13 22  1  0  0  0  0
 14 20  1  0  0  0  0
 14 24  1  0  0  0  0
 14 37  1  0  0  0  0
 15 18  1  0  0  0  0
 15 38  1  0  0  0  0
 15 39  1  0  0  0  0
 16 18  1  0  0  0  0
 16 40  1  0  0  0  0
 17 23  1  0  0  0  0
 17 41  1  0  0  0  0
 17 42  1  0  0  0  0
 18 43  1  0  0  0  0
 18 44  1  0  0  0  0
 19 45  1  0  0  0  0
 19 46  1  0  0  0  0
 19 47  1  0  0  0  0
 20 23  2  0  0  0  0
 21 48  1  0  0  0  0
 21 49  1  0  0  0  0
 22 50  1  0  0  0  0
 22 51  1  0  0  0  0
 22 52  1  0  0  0  0
 24 25  1  0  0  0  0
 24 53  1  0  0  0  0
 24 54  1  0  0  0  0
 27 29  1  0  0  0  0
 27 59  1  0  0  0  0
 27 60  1  0  0  0  0
 28 30  1  0  0  0  0
 29 31  1  0  0  0  0
 29 32  2  0  0  0  0
 30 61  1  0  0  0  0
 30 62  1  0  0  0  0
 31 33  2  0  0  0  0
 31 63  1  0  0  0  0
 32 64  1  0  0  0  0
 33 34  1  0  0  0  0
 33 65  1  0  0  0  0
 34 66  1  0  0  0  0
 35 67  1  0  0  0  0
 35 68  1  0  0  0  0
 35 69  1  0  0  0  0
M  END
> <PUBCHEM_COMPOUND_CID>
11867292

> <PUBCHEM_CONFORMER_RMSD>
1.2

> <PUBCHEM_CONFORMER_DIVERSEORDER>
1
14
13
7
6
8
9
10
15
3
5
12
17
11
4
2
16

> <PUBCHEM_MMFF94_PARTIAL_CHARGES>
36
1 -0.08
10 -0.62
14 0.18
16 0.28
17 0.18
2 -0.68
20 0.05
21 0.28
23 -0.14
24 0.06
25 0.57
26 0.44
27 0.44
28 0.57
29 -0.14
3 -0.68
30 0.34
31 -0.15
32 0.16
33 -0.15
34 0.16
35 0.28
4 -0.57
5 -0.57
55 0.4
56 0.4
57 0.37
58 0.37
6 -0.56
63 0.15
64 0.15
65 0.15
66 0.15
7 -0.57
8 -0.73
9 -0.49

> <PUBCHEM_EFFECTIVE_ROTOR_COUNT>
11.2

> <PUBCHEM_PHARMACOPHORE_FEATURES>
14
1 10 acceptor
1 2 acceptor
1 2 donor
1 3 acceptor
1 3 donor
1 4 acceptor
1 5 acceptor
1 6 acceptor
1 8 donor
1 9 donor
5 1 7 20 23 26 rings
6 10 29 31 32 33 34 rings
6 11 12 13 15 16 18 rings
6 11 12 14 17 20 23 rings

> <PUBCHEM_HEAVY_ATOM_COUNT>
35

> <PUBCHEM_ATOM_DEF_STEREO_COUNT>
5

> <PUBCHEM_ATOM_UDEF_STEREO_COUNT>
0

> <PUBCHEM_BOND_DEF_STEREO_COUNT>
0

> <PUBCHEM_BOND_UDEF_STEREO_COUNT>
0

> <PUBCHEM_ISOTOPIC_ATOM_COUNT>
0

> <PUBCHEM_COMPONENT_COUNT>
1

> <PUBCHEM_CACTVS_TAUTO_COUNT>
6

> <PUBCHEM_CONFORMER_ID>
00B5149C00000001

> <PUBCHEM_MMFF94_ENERGY>
102.8943

> <PUBCHEM_FEATURE_SELFOVERLAP>
71.203

> <PUBCHEM_SHAPE_FINGERPRINT>
10838868 158 17462862200128650443
11135609 187 18339078314939610768
11135926 11 18337667615572087413
11227688 84 17334762571923168647
11621639 179 17608635130434154029
12516196 113 18340204086002748047
13533116 47 18342737425323161688
1361 2 18410291419907337818
13811026 1 18334573598673341419
14394314 77 18340488971036052320
14415360 78 17395843277371573117
14725015 67 18261946355070840578
14784336 7 17988077919264002105
14840074 17 17917139503361288583
14931854 50 18264794141884468726
15001296 14 18336261327531024402
15183329 4 18410576175827560205
15400415 2 18050567645260043132
15927050 60 18125157393074886198
15968369 153 18202272615935632108
16067689 302 18340210812449223391
17980427 23 17346319242272809291
20642791 35 18410298012677115486
20721686 56 18408325505896144698
21279426 13 18334851706501044261
21344244 246 18338792438016619015
21781055 127 16629699366601061683
2260408 40 17273719597577348723
23559900 14 18340196415253844035
24771293 8 18272639143925885618
24771750 20 18189350119713386461
25269216 80 15430901936497309611
3004659 81 18260266335299164468
335352 9 18339075983600128557
3411729 13 18335138747960812700
350125 39 18410573946507294980
4073 2 18116718606623683928
5104073 3 18336555988389741187
53794403 172 18336549408526126084
99344 41 18410571829537415108

> <PUBCHEM_SHAPE_MULTIPOLES>
674.86
17.51
4.77
1.09
3.35
1.91
-0.2
0.83
0.34
-8.47
0.33
0.23
-0.4
-0.4

> <PUBCHEM_SHAPE_SELFOVERLAP>
1415.804

> <PUBCHEM_SHAPE_VOLUME>
383.3

> <PUBCHEM_COORDINATE_TYPE>
2
5
10

$$$$
