75367103
  -OEChem-12032416383D

 52 54  0     1  0  0  0  0  0999 V2000
    0.1414   -0.9467   -0.4958 O   0  0  0  0  0  0  0  0  0  0  0  0
    1.2918    2.4530   -0.3418 O   0  0  0  0  0  0  0  0  0  0  0  0
   -7.0736   -1.1864    0.5913 O   0  0  0  0  0  0  0  0  0  0  0  0
   -3.1599    1.8393    0.4939 O   0  0  0  0  0  0  0  0  0  0  0  0
    3.5308    0.3153   -0.8827 N   0  0  0  0  0  0  0  0  0  0  0  0
   -2.4966    0.1467   -0.9059 N   0  0  0  0  0  0  0  0  0  0  0  0
   -4.4998   -0.0474    0.3341 N   0  0  0  0  0  0  0  0  0  0  0  0
    2.2138    0.1933   -0.2793 C   0  0  1  0  0  0  0  0  0  0  0  0
    4.5447   -0.3584   -0.0736 C   0  0  0  0  0  0  0  0  0  0  0  0
    1.1853    1.1432   -0.8648 C   0  0  1  0  0  0  0  0  0  0  0  0
   -0.1121    0.4671   -0.4428 C   0  0  1  0  0  0  0  0  0  0  0  0
    5.7755   -0.6677   -0.9328 C   0  0  0  0  0  0  0  0  0  0  0  0
    4.9159    0.5151    1.1297 C   0  0  0  0  0  0  0  0  0  0  0  0
    1.5639   -1.1546   -0.5448 C   0  0  0  0  0  0  0  0  0  0  0  0
    6.8885   -1.3041   -0.1019 C   0  0  0  0  0  0  0  0  0  0  0  0
    6.0295   -0.1233    1.9582 C   0  0  0  0  0  0  0  0  0  0  0  0
    7.2531   -0.4434    1.1043 C   0  0  0  0  0  0  0  0  0  0  0  0
   -1.2880    0.8118   -1.3391 C   0  0  0  0  0  0  0  0  0  0  0  0
   -3.3721    0.7242    0.0061 C   0  0  0  0  0  0  0  0  0  0  0  0
   -4.7502   -1.4356   -0.0793 C   0  0  0  0  0  0  0  0  0  0  0  0
   -5.4722    0.4811    1.2934 C   0  0  0  0  0  0  0  0  0  0  0  0
   -6.2142   -1.6330   -0.4581 C   0  0  0  0  0  0  0  0  0  0  0  0
   -6.8956    0.2105    0.8319 C   0  0  0  0  0  0  0  0  0  0  0  0
    2.2456    0.3785    0.8009 H   0  0  0  0  0  0  0  0  0  0  0  0
    4.1637   -1.3218    0.2904 H   0  0  0  0  0  0  0  0  0  0  0  0
    1.2690    1.1908   -1.9577 H   0  0  0  0  0  0  0  0  0  0  0  0
   -0.3591    0.7157    0.5977 H   0  0  0  0  0  0  0  0  0  0  0  0
    3.7754    1.2986   -0.9961 H   0  0  0  0  0  0  0  0  0  0  0  0
    6.1563    0.2533   -1.3940 H   0  0  0  0  0  0  0  0  0  0  0  0
    5.5040   -1.3444   -1.7525 H   0  0  0  0  0  0  0  0  0  0  0  0
    4.0605    0.6842    1.7917 H   0  0  0  0  0  0  0  0  0  0  0  0
    5.2519    1.5043    0.7905 H   0  0  0  0  0  0  0  0  0  0  0  0
    1.7989   -1.5409   -1.5434 H   0  0  0  0  0  0  0  0  0  0  0  0
    1.8422   -1.9134    0.1926 H   0  0  0  0  0  0  0  0  0  0  0  0
    7.7751   -1.4551   -0.7281 H   0  0  0  0  0  0  0  0  0  0  0  0
    6.5669   -2.2954    0.2407 H   0  0  0  0  0  0  0  0  0  0  0  0
    5.6567   -1.0446    2.4227 H   0  0  0  0  0  0  0  0  0  0  0  0
    6.3162    0.5516    2.7727 H   0  0  0  0  0  0  0  0  0  0  0  0
    8.0028   -0.9607    1.7134 H   0  0  0  0  0  0  0  0  0  0  0  0
    7.7113    0.4918    0.7593 H   0  0  0  0  0  0  0  0  0  0  0  0
   -1.1039    0.4678   -2.3630 H   0  0  0  0  0  0  0  0  0  0  0  0
   -1.4551    1.8938   -1.3631 H   0  0  0  0  0  0  0  0  0  0  0  0
    1.2194    2.4028    0.6264 H   0  0  0  0  0  0  0  0  0  0  0  0
   -2.6593   -0.7721   -1.2916 H   0  0  0  0  0  0  0  0  0  0  0  0
   -4.1252   -1.7633   -0.9080 H   0  0  0  0  0  0  0  0  0  0  0  0
   -4.5044   -2.0568    0.7902 H   0  0  0  0  0  0  0  0  0  0  0  0
   -5.2793   -0.0346    2.2417 H   0  0  0  0  0  0  0  0  0  0  0  0
   -5.3250    1.5529    1.4566 H   0  0  0  0  0  0  0  0  0  0  0  0
   -6.4606   -1.0941   -1.3808 H   0  0  0  0  0  0  0  0  0  0  0  0
   -6.4164   -2.6951   -0.6290 H   0  0  0  0  0  0  0  0  0  0  0  0
   -7.6063    0.5120    1.6076 H   0  0  0  0  0  0  0  0  0  0  0  0
   -7.1356    0.7708   -0.0796 H   0  0  0  0  0  0  0  0  0  0  0  0
  1 11  1  0  0  0  0
  1 14  1  0  0  0  0
  2 10  1  0  0  0  0
  2 43  1  0  0  0  0
  3 22  1  0  0  0  0
  3 23  1  0  0  0  0
  4 19  2  0  0  0  0
  5  8  1  0  0  0  0
  5  9  1  0  0  0  0
  5 28  1  0  0  0  0
  6 18  1  0  0  0  0
  6 19  1  0  0  0  0
  6 44  1  0  0  0  0
  7 19  1  0  0  0  0
  7 20  1  0  0  0  0
  7 21  1  0  0  0  0
  8 10  1  0  0  0  0
  8 14  1  0  0  0  0
  8 24  1  0  0  0  0
  9 12  1  0  0  0  0
  9 13  1  0  0  0  0
  9 25  1  0  0  0  0
 10 11  1  0  0  0  0
 10 26  1  0  0  0  0
 11 18  1  0  0  0  0
 11 27  1  0  0  0  0
 12 15  1  0  0  0  0
 12 29  1  0  0  0  0
 12 30  1  0  0  0  0
 13 16  1  0  0  0  0
 13 31  1  0  0  0  0
 13 32  1  0  0  0  0
 14 33  1  0  0  0  0
 14 34  1  0  0  0  0
 15 17  1  0  0  0  0
 15 35  1  0  0  0  0
 15 36  1  0  0  0  0
 16 17  1  0  0  0  0
 16 37  1  0  0  0  0
 16 38  1  0  0  0  0
 17 39  1  0  0  0  0
 17 40  1  0  0  0  0
 18 41  1  0  0  0  0
 18 42  1  0  0  0  0
 20 22  1  0  0  0  0
 20 45  1  0  0  0  0
 20 46  1  0  0  0  0
 21 23  1  0  0  0  0
 21 47  1  0  0  0  0
 21 48  1  0  0  0  0
 22 49  1  0  0  0  0
 22 50  1  0  0  0  0
 23 51  1  0  0  0  0
 23 52  1  0  0  0  0
M  END
> <PUBCHEM_COMPOUND_CID>
75367103

> <PUBCHEM_CONFORMER_RMSD>
1

> <PUBCHEM_CONFORMER_DIVERSEORDER>
1
38
25
14
46
33
6
42
21
34
5
4
47
30
28
31
22
10
8
32
27
9
19
44
18
41
12
17
43
13
20
7
23
26
35
40
37
16
15
45
39
2
36
24
3
11
29

> <PUBCHEM_MMFF94_PARTIAL_CHARGES>
21
1 -0.56
10 0.28
11 0.28
14 0.28
18 0.3
19 0.69
2 -0.68
20 0.3
21 0.3
22 0.28
23 0.28
28 0.36
3 -0.56
4 -0.57
43 0.4
44 0.37
5 -0.9
6 -0.73
7 -0.66
8 0.27
9 0.27

> <PUBCHEM_EFFECTIVE_ROTOR_COUNT>
9.4

> <PUBCHEM_PHARMACOPHORE_FEATURES>
11
1 1 acceptor
1 2 acceptor
1 2 donor
1 3 acceptor
1 4 acceptor
1 5 cation
1 5 donor
1 6 donor
5 1 8 10 11 14 rings
6 3 7 20 21 22 23 rings
6 9 12 13 15 16 17 rings

> <PUBCHEM_HEAVY_ATOM_COUNT>
23

> <PUBCHEM_ATOM_DEF_STEREO_COUNT>
3

> <PUBCHEM_ATOM_UDEF_STEREO_COUNT>
0

> <PUBCHEM_BOND_DEF_STEREO_COUNT>
0

> <PUBCHEM_BOND_UDEF_STEREO_COUNT>
0

> <PUBCHEM_ISOTOPIC_ATOM_COUNT>
0

> <PUBCHEM_COMPONENT_COUNT>
1

> <PUBCHEM_CACTVS_TAUTO_COUNT>
2

> <PUBCHEM_CONFORMER_ID>
047E02BF00000001

> <PUBCHEM_MMFF94_ENERGY>
32.7958

> <PUBCHEM_FEATURE_SELFOVERLAP>
55.822

> <PUBCHEM_SHAPE_FINGERPRINT>
10 15 16917349250886610498
106641 1 18409444817682000824
11315181 36 14490479677252789767
11646440 116 18131072632081964736
12166972 35 18410578400784695616
125118 31 16200440147542297112
12596602 18 17561365084233021251
12670543 26 10665222640484523044
13167372 99 15554450665645490690
13668630 136 15357696379337220114
13673619 4 17749106694807694188
13685833 64 18186801387662700076
13862211 1 18113053839815488446
14251752 14 14490185025395581523
14251764 18 18408604790455390916
14849402 71 18058166305441743768
14933364 13 17275385404536409002
15048467 5 13686295781686046008
15183329 4 12035439532581917125
15348495 7 17846211215445035394
15475509 35 17313649504806181816
15706992 2 15984824899997788890
15716309 27 18259705596684240431
17834072 8 11530484428111332744
20028762 73 18410856585595073950
20157964 124 14692575408112620716
20281389 69 15410895149967136946
20735858 18 18342738515991257294
21150785 3 12612756817507706034
21267235 1 18334579015138408462
21521239 73 13840261469045535184
21637258 2 17095517392549447308
22224240 67 17775564239101934071
22956985 138 17535740799141497170
23035841 295 17967535679345387059
23081809 10 16588310441115593788
23198884 109 11097850792370122159
23402539 116 16515684412018484405
23522609 53 17606431828241415621
23559900 14 14852178376579675861
23576562 1 10230881496996554410
2767999 5 12535627163393087594
2838139 119 14476952372595173200
29717793 49 13118003288459862694
3009799 131 11386369244393916758
397830 11 17274534451055786726
4340502 62 16774081765423582358
465052 167 17385446510134804198
5104073 3 17987239928067966898
59682541 35 18201434817976254802
59682541 52 11891324319664965200
5969126 39 16950277395546367773
59755656 215 11241964876201572200
9953998 17 17918276455126130331

> <PUBCHEM_SHAPE_MULTIPOLES>
434.91
21.8
1.55
1.29
2.66
0.25
-0.33
-8.09
-8.9
1.04
0.19
-1.05
0.14
-0.13

> <PUBCHEM_SHAPE_SELFOVERLAP>
883.244

> <PUBCHEM_SHAPE_VOLUME>
251.8

> <PUBCHEM_COORDINATE_TYPE>
2
5
10

$$$$
