28961576
  -OEChem-12032416133D

 44 45  0     1  0  0  0  0  0999 V2000
    1.0893    1.3752    0.8042 O   0  0  0  0  0  0  0  0  0  0  0  0
   -0.6802    1.4336   -1.6111 O   0  0  0  0  0  0  0  0  0  0  0  0
    2.0407    3.9699    0.2872 O   0  0  0  0  0  0  0  0  0  0  0  0
   -1.9590   -0.5302    0.0439 N   0  0  0  0  0  0  0  0  0  0  0  0
    2.3526   -1.1450    0.3728 N   0  0  0  0  0  0  0  0  0  0  0  0
   -1.1244    0.5239    0.6011 C   0  0  1  0  0  0  0  0  0  0  0  0
    0.3325    0.1481    0.9010 C   0  0  1  0  0  0  0  0  0  0  0  0
   -0.9865    1.7676   -0.2636 C   0  0  1  0  0  0  0  0  0  0  0  0
    0.2080    2.4413    0.4013 C   0  0  2  0  0  0  0  0  0  0  0  0
   -2.4442   -1.4573    1.0660 C   0  0  0  0  0  0  0  0  0  0  0  0
   -3.1649   -0.0072   -0.5974 C   0  0  0  0  0  0  0  0  0  0  0  0
   -3.5654   -2.1970    0.3511 C   0  0  0  0  0  0  0  0  0  0  0  0
   -4.0366   -1.2455   -0.7442 C   0  0  0  0  0  0  0  0  0  0  0  0
    0.9852   -0.8607   -0.0374 C   0  0  0  0  0  0  0  0  0  0  0  0
    0.9731    3.4214   -0.4689 C   0  0  0  0  0  0  0  0  0  0  0  0
    2.9733   -2.1167   -0.5179 C   0  0  0  0  0  0  0  0  0  0  0  0
    2.5156   -3.5284   -0.1622 C   0  0  0  0  0  0  0  0  0  0  0  0
    4.4909   -1.9930   -0.4258 C   0  0  0  0  0  0  0  0  0  0  0  0
   -1.5667    0.8778    1.5462 H   0  0  0  0  0  0  0  0  0  0  0  0
    0.4101   -0.2169    1.9331 H   0  0  0  0  0  0  0  0  0  0  0  0
   -1.8743    2.4086   -0.2554 H   0  0  0  0  0  0  0  0  0  0  0  0
   -0.1043    2.9358    1.3301 H   0  0  0  0  0  0  0  0  0  0  0  0
   -2.8540   -0.9321    1.9383 H   0  0  0  0  0  0  0  0  0  0  0  0
   -1.6658   -2.1454    1.4098 H   0  0  0  0  0  0  0  0  0  0  0  0
   -2.9838    0.4398   -1.5789 H   0  0  0  0  0  0  0  0  0  0  0  0
   -3.6800    0.7258    0.0372 H   0  0  0  0  0  0  0  0  0  0  0  0
   -4.3767   -2.4577    1.0383 H   0  0  0  0  0  0  0  0  0  0  0  0
   -3.1943   -3.1254   -0.0988 H   0  0  0  0  0  0  0  0  0  0  0  0
   -3.8911   -1.7110   -1.7262 H   0  0  0  0  0  0  0  0  0  0  0  0
   -5.0993   -1.0036   -0.6414 H   0  0  0  0  0  0  0  0  0  0  0  0
    0.9940   -0.4630   -1.0588 H   0  0  0  0  0  0  0  0  0  0  0  0
    0.3928   -1.7799   -0.0361 H   0  0  0  0  0  0  0  0  0  0  0  0
    0.3249    4.2350   -0.8083 H   0  0  0  0  0  0  0  0  0  0  0  0
    1.4186    2.9223   -1.3353 H   0  0  0  0  0  0  0  0  0  0  0  0
   -0.7112    2.2541   -2.1318 H   0  0  0  0  0  0  0  0  0  0  0  0
    2.8827   -0.2735    0.3641 H   0  0  0  0  0  0  0  0  0  0  0  0
    2.7060   -1.9094   -1.5624 H   0  0  0  0  0  0  0  0  0  0  0  0
    2.5100    4.5949   -0.2913 H   0  0  0  0  0  0  0  0  0  0  0  0
    2.7268   -3.7654    0.8869 H   0  0  0  0  0  0  0  0  0  0  0  0
    1.4446   -3.6726   -0.3336 H   0  0  0  0  0  0  0  0  0  0  0  0
    3.0402   -4.2671   -0.7787 H   0  0  0  0  0  0  0  0  0  0  0  0
    4.8492   -2.1874    0.5915 H   0  0  0  0  0  0  0  0  0  0  0  0
    4.8248   -0.9908   -0.7170 H   0  0  0  0  0  0  0  0  0  0  0  0
    4.9790   -2.7101   -1.0948 H   0  0  0  0  0  0  0  0  0  0  0  0
  1  7  1  0  0  0  0
  1  9  1  0  0  0  0
  2  8  1  0  0  0  0
  2 35  1  0  0  0  0
  3 15  1  0  0  0  0
  3 38  1  0  0  0  0
  4  6  1  0  0  0  0
  4 10  1  0  0  0  0
  4 11  1  0  0  0  0
  5 14  1  0  0  0  0
  5 16  1  0  0  0  0
  5 36  1  0  0  0  0
  6  7  1  0  0  0  0
  6  8  1  0  0  0  0
  6 19  1  0  0  0  0
  7 14  1  0  0  0  0
  7 20  1  0  0  0  0
  8  9  1  0  0  0  0
  8 21  1  0  0  0  0
  9 15  1  0  0  0  0
  9 22  1  0  0  0  0
 10 12  1  0  0  0  0
 10 23  1  0  0  0  0
 10 24  1  0  0  0  0
 11 13  1  0  0  0  0
 11 25  1  0  0  0  0
 11 26  1  0  0  0  0
 12 13  1  0  0  0  0
 12 27  1  0  0  0  0
 12 28  1  0  0  0  0
 13 29  1  0  0  0  0
 13 30  1  0  0  0  0
 14 31  1  0  0  0  0
 14 32  1  0  0  0  0
 15 33  1  0  0  0  0
 15 34  1  0  0  0  0
 16 17  1  0  0  0  0
 16 18  1  0  0  0  0
 16 37  1  0  0  0  0
 17 39  1  0  0  0  0
 17 40  1  0  0  0  0
 17 41  1  0  0  0  0
 18 42  1  0  0  0  0
 18 43  1  0  0  0  0
 18 44  1  0  0  0  0
M  END
> <PUBCHEM_COMPOUND_CID>
28961576

> <PUBCHEM_CONFORMER_RMSD>
0.8

> <PUBCHEM_CONFORMER_DIVERSEORDER>
1
2
10
4
8
12
7
11
6
5
9
3

> <PUBCHEM_MMFF94_PARTIAL_CHARGES>
17
1 -0.56
10 0.27
11 0.27
14 0.27
15 0.28
16 0.27
2 -0.68
3 -0.68
35 0.4
36 0.36
38 0.4
4 -0.81
5 -0.9
6 0.27
7 0.28
8 0.28
9 0.28

> <PUBCHEM_EFFECTIVE_ROTOR_COUNT>
7

> <PUBCHEM_PHARMACOPHORE_FEATURES>
11
1 1 acceptor
1 2 acceptor
1 2 donor
1 3 acceptor
1 3 donor
1 4 cation
1 5 cation
1 5 donor
3 16 17 18 hydrophobe
5 1 6 7 8 9 rings
5 4 10 11 12 13 rings

> <PUBCHEM_HEAVY_ATOM_COUNT>
18

> <PUBCHEM_ATOM_DEF_STEREO_COUNT>
4

> <PUBCHEM_ATOM_UDEF_STEREO_COUNT>
0

> <PUBCHEM_BOND_DEF_STEREO_COUNT>
0

> <PUBCHEM_BOND_UDEF_STEREO_COUNT>
0

> <PUBCHEM_ISOTOPIC_ATOM_COUNT>
0

> <PUBCHEM_COMPONENT_COUNT>
1

> <PUBCHEM_CACTVS_TAUTO_COUNT>
1

> <PUBCHEM_CONFORMER_ID>
01B9EB2800000001

> <PUBCHEM_MMFF94_ENERGY>
30.8038

> <PUBCHEM_FEATURE_SELFOVERLAP>
55.825

> <PUBCHEM_SHAPE_FINGERPRINT>
12138202 78 18337386149211275521
12173636 292 17328868690958991252
12553582 1 18337676308490981515
12788726 201 17974006141749613322
12839892 36 17619053379887657187
12841375 25 18411420592131009691
13533116 47 18128256899601329683
14508225 48 18268140972741317396
14790565 3 17475236799550971888
14863182 85 17685783818967601431
15042514 8 17906180546713587835
15502722 9 18194120952390399631
16945 1 18266743669646029745
1813 80 18129120973051682031
18915476 22 18193539289512370629
19591789 44 17546451536479163906
20602899 9 17475259240865544880
20645477 70 18192417796437665111
20671657 53 18413110545761023323
20871999 31 18191299373672791581
21304303 282 16890564911912024116
21339142 36 18265329508566215342
21524375 3 17324072019742939297
21665056 4 17114103266300951934
23114952 82 18189046650573220925
23419403 2 17915429780044193041
23530152 11 17618503628357887682
23557571 272 18266164038408642674
23559900 14 18411127061017296161
2748010 2 18268407088872941784
3060560 45 17832421273600695013
314173 41 18410577271108128363
458136 41 17833848426992905449
532947 4 18196377133487841572
6669772 16 17837784687622202812
7364860 26 18266458900408102505
81228 2 18195522584697060889
84936 31 18198614634732782724

> <PUBCHEM_SHAPE_MULTIPOLES>
342.86
6.35
4.57
1
1.55
3.6
-0.09
-7.58
-1.22
3.02
-0.15
-0.34
0.08
0.63

> <PUBCHEM_SHAPE_SELFOVERLAP>
686.971

> <PUBCHEM_SHAPE_VOLUME>
204.9

> <PUBCHEM_COORDINATE_TYPE>
2
5
10

$$$$
