7051292
  -OEChem-12032416413D

 58 61  0     1  0  0  0  0  0999 V2000
    1.7440    1.8403    1.3711 S   0  0  0  0  0  0  0  0  0  0  0  0
    5.8488   -2.0909   -1.5928 F   0  0  0  0  0  0  0  0  0  0  0  0
    4.2976   -2.8089   -0.2578 F   0  0  0  0  0  0  0  0  0  0  0  0
    3.7580   -1.9076   -2.1618 F   0  0  0  0  0  0  0  0  0  0  0  0
   -1.2725    2.6130    1.5946 O   0  0  0  0  0  0  0  0  0  0  0  0
   -3.2729   -2.3570    1.6998 O   0  0  0  0  0  0  0  0  0  0  0  0
   -0.7335   -3.1716    1.5361 O   0  0  0  0  0  0  0  0  0  0  0  0
    2.0709    2.8206    2.3892 O   0  0  0  0  0  0  0  0  0  0  0  0
    0.9571    0.6695    1.7098 O   0  0  0  0  0  0  0  0  0  0  0  0
   -3.9792   -1.2267   -0.2035 N   0  0  0  0  0  0  0  0  0  0  0  0
   -2.5450    1.6283   -0.1087 N   0  0  0  0  0  0  0  0  0  0  0  0
    1.0620    2.6164    0.0303 N   0  0  0  0  0  0  0  0  0  0  0  0
   -5.0140    1.0163    0.1685 C   0  0  1  0  0  0  0  0  0  0  0  0
   -3.8695    0.5375   -1.9551 C   0  0  2  0  0  0  0  0  0  0  0  0
   -5.0898    1.2193   -1.3398 C   0  0  0  0  0  0  0  0  0  0  0  0
   -5.0181   -0.4834    0.5120 C   0  0  0  0  0  0  0  0  0  0  0  0
   -3.7646    1.7264    0.7029 C   0  0  0  0  0  0  0  0  0  0  0  0
   -3.9128   -0.9728   -1.6505 C   0  0  0  0  0  0  0  0  0  0  0  0
   -2.5810    1.1339   -1.4195 C   0  0  0  0  0  0  0  0  0  0  0  0
   -1.4768    1.1596   -2.1882 C   0  0  0  0  0  0  0  0  0  0  0  0
   -1.3634    2.1508    0.4580 C   0  0  0  0  0  0  0  0  0  0  0  0
   -3.2019   -2.1588    0.4841 C   0  0  0  0  0  0  0  0  0  0  0  0
   -0.1741    2.1307   -0.4304 C   0  0  0  0  0  0  0  0  0  0  0  0
   -0.2326    1.6718   -1.6810 C   0  0  0  0  0  0  0  0  0  0  0  0
   -2.2169   -2.9534   -0.3357 C   0  0  0  0  0  0  0  0  0  0  0  0
   -1.4646   -3.9093    0.5646 C   0  0  0  0  0  0  0  0  0  0  0  0
    3.2689    1.2696    0.6802 C   0  0  0  0  0  0  0  0  0  0  0  0
    3.3360    0.0116    0.0814 C   0  0  0  0  0  0  0  0  0  0  0  0
    4.4044    2.0778    0.7342 C   0  0  0  0  0  0  0  0  0  0  0  0
    0.0045   -4.0299    2.3950 C   0  0  0  0  0  0  0  0  0  0  0  0
    4.5388   -0.4382   -0.4633 C   0  0  0  0  0  0  0  0  0  0  0  0
    5.6072    1.6282    0.1893 C   0  0  0  0  0  0  0  0  0  0  0  0
    5.6743    0.3701   -0.4094 C   0  0  0  0  0  0  0  0  0  0  0  0
    4.6110   -1.7831   -1.1035 C   0  0  0  0  0  0  0  0  0  0  0  0
   -5.8941    1.4665    0.6443 H   0  0  0  0  0  0  0  0  0  0  0  0
   -3.9153    0.6724   -3.0436 H   0  0  0  0  0  0  0  0  0  0  0  0
   -6.0142    0.7846   -1.7390 H   0  0  0  0  0  0  0  0  0  0  0  0
   -5.1045    2.2884   -1.5861 H   0  0  0  0  0  0  0  0  0  0  0  0
   -4.9194   -0.6236    1.5938 H   0  0  0  0  0  0  0  0  0  0  0  0
   -5.9778   -0.9275    0.2195 H   0  0  0  0  0  0  0  0  0  0  0  0
   -3.9794    2.8009    0.7835 H   0  0  0  0  0  0  0  0  0  0  0  0
   -3.5350    1.3885    1.7213 H   0  0  0  0  0  0  0  0  0  0  0  0
   -4.8142   -1.4183   -2.0895 H   0  0  0  0  0  0  0  0  0  0  0  0
   -3.0588   -1.4727   -2.1126 H   0  0  0  0  0  0  0  0  0  0  0  0
   -1.4809    0.7722   -3.2016 H   0  0  0  0  0  0  0  0  0  0  0  0
    0.6272    1.6526   -2.3421 H   0  0  0  0  0  0  0  0  0  0  0  0
   -1.5075   -2.2556   -0.7942 H   0  0  0  0  0  0  0  0  0  0  0  0
   -2.7493   -3.5111   -1.1122 H   0  0  0  0  0  0  0  0  0  0  0  0
    1.7241    2.8124   -0.7339 H   0  0  0  0  0  0  0  0  0  0  0  0
   -0.7666   -4.4994   -0.0409 H   0  0  0  0  0  0  0  0  0  0  0  0
   -2.1543   -4.6002    1.0652 H   0  0  0  0  0  0  0  0  0  0  0  0
    2.4560   -0.6243    0.0271 H   0  0  0  0  0  0  0  0  0  0  0  0
    4.3726    3.0635    1.1895 H   0  0  0  0  0  0  0  0  0  0  0  0
    0.7318   -4.6134    1.8223 H   0  0  0  0  0  0  0  0  0  0  0  0
    0.5448   -3.4117    3.1170 H   0  0  0  0  0  0  0  0  0  0  0  0
   -0.6689   -4.6971    2.9416 H   0  0  0  0  0  0  0  0  0  0  0  0
    6.4909    2.2582    0.2298 H   0  0  0  0  0  0  0  0  0  0  0  0
    6.6200    0.0377   -0.8284 H   0  0  0  0  0  0  0  0  0  0  0  0
  1  8  2  0  0  0  0
  1  9  2  0  0  0  0
  1 12  1  0  0  0  0
  1 27  1  0  0  0  0
  2 34  1  0  0  0  0
  3 34  1  0  0  0  0
  4 34  1  0  0  0  0
  5 21  2  0  0  0  0
  6 22  2  0  0  0  0
  7 26  1  0  0  0  0
  7 30  1  0  0  0  0
 10 16  1  0  0  0  0
 10 18  1  0  0  0  0
 10 22  1  0  0  0  0
 11 17  1  0  0  0  0
 11 19  1  0  0  0  0
 11 21  1  0  0  0  0
 12 23  1  0  0  0  0
 12 49  1  0  0  0  0
 13 15  1  0  0  0  0
 13 16  1  0  0  0  0
 13 17  1  0  0  0  0
 13 35  1  0  0  0  0
 14 15  1  0  0  0  0
 14 18  1  0  0  0  0
 14 19  1  0  0  0  0
 14 36  1  0  0  0  0
 15 37  1  0  0  0  0
 15 38  1  0  0  0  0
 16 39  1  0  0  0  0
 16 40  1  0  0  0  0
 17 41  1  0  0  0  0
 17 42  1  0  0  0  0
 18 43  1  0  0  0  0
 18 44  1  0  0  0  0
 19 20  2  0  0  0  0
 20 24  1  0  0  0  0
 20 45  1  0  0  0  0
 21 23  1  0  0  0  0
 22 25  1  0  0  0  0
 23 24  2  0  0  0  0
 24 46  1  0  0  0  0
 25 26  1  0  0  0  0
 25 47  1  0  0  0  0
 25 48  1  0  0  0  0
 26 50  1  0  0  0  0
 26 51  1  0  0  0  0
 27 28  1  0  0  0  0
 27 29  2  0  0  0  0
 28 31  2  0  0  0  0
 28 52  1  0  0  0  0
 29 32  1  0  0  0  0
 29 53  1  0  0  0  0
 30 54  1  0  0  0  0
 30 55  1  0  0  0  0
 30 56  1  0  0  0  0
 31 33  1  0  0  0  0
 31 34  1  0  0  0  0
 32 33  2  0  0  0  0
 32 57  1  0  0  0  0
 33 58  1  0  0  0  0
M  END
> <PUBCHEM_COMPOUND_CID>
7051292

> <PUBCHEM_CONFORMER_RMSD>
1

> <PUBCHEM_CONFORMER_DIVERSEORDER>
1
50
60
16
53
12
92
52
44
80
15
76
74
38
64
40
90
31
43
2
75
45
17
83
29
49
39
58
41
54
72
69
68
14
46
94
24
4
21
63
51
89
73
32
13
25
61
70
93
42
87
66
37
9
47
30
78
19
88
22
33
79
91
26
84
67
81
6
23
7
3
77
59
65
57
34
10
71
5
8
36
86
27
11
48
55
28
20
82
18
95
35
85
56
62

> <PUBCHEM_MMFF94_PARTIAL_CHARGES>
39
1 1.45
10 -0.66
11 -0.47
12 -0.75
14 0.14
16 0.3
17 0.3
18 0.3
19 -0.03
2 -0.34
20 -0.15
21 0.62
22 0.57
23 0.21
24 -0.15
25 0.06
26 0.28
27 -0.01
28 -0.15
29 -0.15
3 -0.34
30 0.28
31 -0.14
32 -0.15
33 -0.15
34 1.16
4 -0.34
45 0.15
46 0.15
49 0.42
5 -0.57
52 0.15
53 0.15
57 0.15
58 0.15
6 -0.57
7 -0.56
8 -0.65
9 -0.65

> <PUBCHEM_EFFECTIVE_ROTOR_COUNT>
9

> <PUBCHEM_PHARMACOPHORE_FEATURES>
10
1 12 donor
1 5 acceptor
1 6 acceptor
1 7 acceptor
1 8 acceptor
1 9 acceptor
6 10 13 14 15 16 18 rings
6 11 13 14 15 17 19 rings
6 11 19 20 21 23 24 rings
6 27 28 29 31 32 33 rings

> <PUBCHEM_HEAVY_ATOM_COUNT>
34

> <PUBCHEM_ATOM_DEF_STEREO_COUNT>
2

> <PUBCHEM_ATOM_UDEF_STEREO_COUNT>
0

> <PUBCHEM_BOND_DEF_STEREO_COUNT>
0

> <PUBCHEM_BOND_UDEF_STEREO_COUNT>
0

> <PUBCHEM_ISOTOPIC_ATOM_COUNT>
0

> <PUBCHEM_COMPONENT_COUNT>
1

> <PUBCHEM_CACTVS_TAUTO_COUNT>
1

> <PUBCHEM_CONFORMER_ID>
006B981C00000001

> <PUBCHEM_MMFF94_ENERGY>
72.5284

> <PUBCHEM_FEATURE_SELFOVERLAP>
52.341

> <PUBCHEM_SHAPE_FINGERPRINT>
10305334 12 17266388972400669080
11014199 57 17249775815567347219
11135609 12 18117005575042816809
11370993 144 18272651281297819805
12596602 18 14836113412286161716
13402501 40 18411138060486940270
13617811 41 17821722811288999053
14251757 17 18411981368947063058
14251757 5 17969784283492485834
14279260 333 17983859974450503942
14840074 17 17530966860943450117
15264996 163 16895404889210007950
15361156 5 18341897415487320868
15406563 42 18043258036360390294
15799311 1 18267604531500665908
161222 10 17677329553818131326
17627616 140 17972034738902786434
19958102 18 18260543416355883478
20764821 26 18263346045625346754
23559900 14 18341604983801578968
24941158 1 17058915844620007618
3383291 50 18189615115666187667
4073 2 18342174509840222536
4435113 14 18339938103036358446
469060 322 16950286238731418687
474144 1 17752754737034331682
508706 21 18189048853717798755
5265222 85 18114178696409756077

> <PUBCHEM_SHAPE_MULTIPOLES>
637.44
12.63
4.56
2.09
9.95
4.89
0.01
0.67
3.68
-0.21
-2.05
0.01
0.24
2.82

> <PUBCHEM_SHAPE_SELFOVERLAP>
1360.479

> <PUBCHEM_SHAPE_VOLUME>
355.9

> <PUBCHEM_COORDINATE_TYPE>
2
5
10

$$$$
