7673876
  -OEChem-12032416403D

 56 60  0     1  0  0  0  0  0999 V2000
    3.8196    1.4573    0.9540 S   0  0  0  0  0  0  0  0  0  0  0  0
    3.8191    1.4763    2.4015 O   0  0  0  0  0  0  0  0  0  0  0  0
    3.1879    2.5161    0.1952 O   0  0  0  0  0  0  0  0  0  0  0  0
   -1.3154   -1.7666    1.5662 O   0  0  0  0  0  0  0  0  0  0  0  0
   -3.3359    1.2342   -1.6610 O   0  0  0  0  0  0  0  0  0  0  0  0
    3.2177   -0.0508    0.4134 N   0  0  2  0  0  0  0  0  0  0  0  0
    0.5206   -1.6739    0.1237 N   0  0  0  0  0  0  0  0  0  0  0  0
   -3.0002   -0.5917   -0.2596 N   0  0  0  0  0  0  0  0  0  0  0  0
  -10.2580    0.8319    1.2149 N   0  0  0  0  0  0  0  0  0  0  0  0
    2.8533   -2.4915    0.7929 C   0  0  1  0  0  0  0  0  0  0  0  0
    2.4903   -1.5386   -1.4416 C   0  0  2  0  0  0  0  0  0  0  0  0
    3.0334   -2.7547   -0.6964 C   0  0  0  0  0  0  0  0  0  0  0  0
    3.6322   -1.2358    1.2176 C   0  0  0  0  0  0  0  0  0  0  0  0
    3.3078   -0.2918   -1.0578 C   0  0  0  0  0  0  0  0  0  0  0  0
    1.3550   -2.3836    1.1024 C   0  0  0  0  0  0  0  0  0  0  0  0
    1.0201   -1.3221   -1.1342 C   0  0  0  0  0  0  0  0  0  0  0  0
    0.2082   -0.7761   -2.0552 C   0  0  0  0  0  0  0  0  0  0  0  0
   -0.8269   -1.4594    0.4778 C   0  0  0  0  0  0  0  0  0  0  0  0
   -1.6927   -0.8275   -0.5678 C   0  0  0  0  0  0  0  0  0  0  0  0
   -1.1747   -0.5237   -1.7626 C   0  0  0  0  0  0  0  0  0  0  0  0
    5.4970    1.3314    0.4173 C   0  0  0  0  0  0  0  0  0  0  0  0
    5.8401    1.7824   -0.8468 C   0  0  0  0  0  0  0  0  0  0  0  0
    6.4417    0.7831    1.2689 C   0  0  0  0  0  0  0  0  0  0  0  0
    7.1651    1.6823   -1.2708 C   0  0  0  0  0  0  0  0  0  0  0  0
    7.7668    0.6830    0.8447 C   0  0  0  0  0  0  0  0  0  0  0  0
   -3.7478    0.4308   -0.8278 C   0  0  0  0  0  0  0  0  0  0  0  0
    8.1286    1.1326   -0.4251 C   0  0  0  0  0  0  0  0  0  0  0  0
   -5.1635    0.5170   -0.3842 C   0  0  0  0  0  0  0  0  0  0  0  0
   -6.0956    1.0711   -1.2364 C   0  0  0  0  0  0  0  0  0  0  0  0
   -5.4994    0.0411    0.8661 C   0  0  0  0  0  0  0  0  0  0  0  0
   -7.4242    1.1528   -0.8197 C   0  0  0  0  0  0  0  0  0  0  0  0
   -6.8280    0.1228    1.2828 C   0  0  0  0  0  0  0  0  0  0  0  0
   -7.7904    0.6787    0.4400 C   0  0  0  0  0  0  0  0  0  0  0  0
   -9.1515    0.7632    0.8675 C   0  0  0  0  0  0  0  0  0  0  0  0
    3.2587   -3.3367    1.3634 H   0  0  0  0  0  0  0  0  0  0  0  0
    2.6180   -1.7157   -2.5177 H   0  0  0  0  0  0  0  0  0  0  0  0
    2.5002   -3.6657   -0.9955 H   0  0  0  0  0  0  0  0  0  0  0  0
    4.0929   -2.9104   -0.9335 H   0  0  0  0  0  0  0  0  0  0  0  0
    3.4504   -1.0491    2.2813 H   0  0  0  0  0  0  0  0  0  0  0  0
    4.7024   -1.4223    1.0799 H   0  0  0  0  0  0  0  0  0  0  0  0
    4.3490   -0.4592   -1.3523 H   0  0  0  0  0  0  0  0  0  0  0  0
    2.9271    0.5792   -1.6028 H   0  0  0  0  0  0  0  0  0  0  0  0
    0.9370   -3.3979    1.1651 H   0  0  0  0  0  0  0  0  0  0  0  0
    1.1964   -1.9322    2.0899 H   0  0  0  0  0  0  0  0  0  0  0  0
    0.5734   -0.4906   -3.0363 H   0  0  0  0  0  0  0  0  0  0  0  0
   -1.7463   -0.1217   -2.5901 H   0  0  0  0  0  0  0  0  0  0  0  0
   -3.3594   -1.1208    0.5274 H   0  0  0  0  0  0  0  0  0  0  0  0
    5.1061    2.2119   -1.5216 H   0  0  0  0  0  0  0  0  0  0  0  0
    6.1809    0.4243    2.2598 H   0  0  0  0  0  0  0  0  0  0  0  0
    7.4467    2.0317   -2.2599 H   0  0  0  0  0  0  0  0  0  0  0  0
    8.5168    0.2540    1.5027 H   0  0  0  0  0  0  0  0  0  0  0  0
    9.1602    1.0542   -0.7556 H   0  0  0  0  0  0  0  0  0  0  0  0
   -5.8279    1.4400   -2.2219 H   0  0  0  0  0  0  0  0  0  0  0  0
   -4.7828   -0.3584    1.5748 H   0  0  0  0  0  0  0  0  0  0  0  0
   -8.1633    1.5878   -1.4883 H   0  0  0  0  0  0  0  0  0  0  0  0
   -7.0971   -0.2419    2.2714 H   0  0  0  0  0  0  0  0  0  0  0  0
  1  2  2  0  0  0  0
  1  3  2  0  0  0  0
  1  6  1  0  0  0  0
  1 21  1  0  0  0  0
  4 18  2  0  0  0  0
  5 26  2  0  0  0  0
  6 13  1  0  0  0  0
  6 14  1  0  0  0  0
  7 15  1  0  0  0  0
  7 16  1  0  0  0  0
  7 18  1  0  0  0  0
  8 19  1  0  0  0  0
  8 26  1  0  0  0  0
  8 47  1  0  0  0  0
  9 34  3  0  0  0  0
 10 12  1  0  0  0  0
 10 13  1  0  0  0  0
 10 15  1  0  0  0  0
 10 35  1  0  0  0  0
 11 12  1  0  0  0  0
 11 14  1  0  0  0  0
 11 16  1  0  0  0  0
 11 36  1  0  0  0  0
 12 37  1  0  0  0  0
 12 38  1  0  0  0  0
 13 39  1  0  0  0  0
 13 40  1  0  0  0  0
 14 41  1  0  0  0  0
 14 42  1  0  0  0  0
 15 43  1  0  0  0  0
 15 44  1  0  0  0  0
 16 17  2  0  0  0  0
 17 20  1  0  0  0  0
 17 45  1  0  0  0  0
 18 19  1  0  0  0  0
 19 20  2  0  0  0  0
 20 46  1  0  0  0  0
 21 22  2  0  0  0  0
 21 23  1  0  0  0  0
 22 24  1  0  0  0  0
 22 48  1  0  0  0  0
 23 25  2  0  0  0  0
 23 49  1  0  0  0  0
 24 27  2  0  0  0  0
 24 50  1  0  0  0  0
 25 27  1  0  0  0  0
 25 51  1  0  0  0  0
 26 28  1  0  0  0  0
 27 52  1  0  0  0  0
 28 29  2  0  0  0  0
 28 30  1  0  0  0  0
 29 31  1  0  0  0  0
 29 53  1  0  0  0  0
 30 32  2  0  0  0  0
 30 54  1  0  0  0  0
 31 33  2  0  0  0  0
 31 55  1  0  0  0  0
 32 33  1  0  0  0  0
 32 56  1  0  0  0  0
 33 34  1  0  0  0  0
M  END
> <PUBCHEM_COMPOUND_CID>
7673876

> <PUBCHEM_CONFORMER_RMSD>
0.8

> <PUBCHEM_CONFORMER_DIVERSEORDER>
1
12
17
14
13
3
16
18
2
10
19
4
15
6
8
11
7
9
5

> <PUBCHEM_MMFF94_PARTIAL_CHARGES>
44
1 1.45
11 0.14
13 0.36
14 0.36
15 0.3
16 -0.03
17 -0.15
18 0.62
19 0.12
2 -0.65
20 -0.15
21 -0.01
22 -0.15
23 -0.15
24 -0.15
25 -0.15
26 0.54
27 -0.15
28 0.09
29 -0.15
3 -0.65
30 -0.15
31 -0.15
32 -0.15
33 0.07
34 0.48
4 -0.57
45 0.15
46 0.15
47 0.37
48 0.15
49 0.15
5 -0.57
50 0.15
51 0.15
52 0.15
53 0.15
54 0.15
55 0.15
56 0.15
6 -0.85
7 -0.47
8 -0.54
9 -0.56

> <PUBCHEM_EFFECTIVE_ROTOR_COUNT>
6

> <PUBCHEM_PHARMACOPHORE_FEATURES>
11
1 2 acceptor
1 3 acceptor
1 4 acceptor
1 5 acceptor
1 8 donor
1 9 acceptor
6 21 22 23 24 25 27 rings
6 28 29 30 31 32 33 rings
6 6 10 11 12 13 14 rings
6 7 10 11 12 15 16 rings
6 7 16 17 18 19 20 rings

> <PUBCHEM_HEAVY_ATOM_COUNT>
34

> <PUBCHEM_ATOM_DEF_STEREO_COUNT>
2

> <PUBCHEM_ATOM_UDEF_STEREO_COUNT>
0

> <PUBCHEM_BOND_DEF_STEREO_COUNT>
0

> <PUBCHEM_BOND_UDEF_STEREO_COUNT>
0

> <PUBCHEM_ISOTOPIC_ATOM_COUNT>
0

> <PUBCHEM_COMPONENT_COUNT>
1

> <PUBCHEM_CACTVS_TAUTO_COUNT>
2

> <PUBCHEM_CONFORMER_ID>
0075181400000001

> <PUBCHEM_MMFF94_ENERGY>
86.8512

> <PUBCHEM_FEATURE_SELFOVERLAP>
57.426

> <PUBCHEM_SHAPE_FINGERPRINT>
10 15 17676488354424256317
10165383 225 18260832618358223646
106641 1 16225766332836557900
10670039 82 15410903942055349083
11115154 58 13110968634372033491
11411753 29 18119250566937745039
11578080 2 18335985345475256890
11621639 336 17274271521864367272
11828532 37 13398335941224392573
1200032 147 18131634478192205446
12013929 112 15338850737722598841
13540713 4 16807836660215985559
13751561 76 18113624452011918642
14040221 8 10519995876571549123
14068700 675 8142093069859363942
14118638 360 18202004274858396713
14294032 229 18264491852399891234
15183329 4 12391517481961210007
15326923 82 11386370361407284070
15347590 135 17821447933318958593
15510800 12 8141805044519689928
15706992 2 18411428322919090245
1577012 14 17561357367073088989
18335252 114 17561362877125973044
18608769 82 18260550060575085123
19302320 297 17894919567787110140
20105231 36 15213011619370231968
20505436 4 18130781270091182126
20554085 129 18334583447202163046
20771845 140 14707205518595978970
21033650 10 14836135346832478787
21315764 119 14979958098900550796
22149856 69 17678191408501250689
23576562 1 15697135479362042193
24771293 8 18040435516659971679
24893992 56 18340768234156573435
25223398 141 15194425607236054852
25269216 80 16056303026150012325
2838139 119 18201990049763051748
3004659 81 12679458681579471351
3178227 256 18334571370033954340
34797466 226 18271529698249932367
3633792 109 16128661855512528892
397830 11 18335989744376063371
4093350 32 17775007855952658703
504579 68 15195287525863212419
5104073 3 17750228102632054981
513532 50 14692274171654089666
5385378 56 18408880721025377066
54076057 127 18343589507995502551
59682541 35 17603309258847743921
6126387 218 12973874923714311655
6438161 24 11746937603323924637

> <PUBCHEM_SHAPE_MULTIPOLES>
660.15
26.54
2.4
1.78
40.22
0.93
-0.06
-19.5
6.35
-3.53
0.17
-0.24
0.01
0.23

> <PUBCHEM_SHAPE_SELFOVERLAP>
1441.706

> <PUBCHEM_SHAPE_VOLUME>
355.6

> <PUBCHEM_COORDINATE_TYPE>
2
5
10

$$$$
