25388703
  -OEChem-12032416173D

 51 55  0     1  0  0  0  0  0999 V2000
   -4.6852    0.8238    2.4255 F   0  0  0  0  0  0  0  0  0  0  0  0
   -6.3003    1.2612    1.0370 F   0  0  0  0  0  0  0  0  0  0  0  0
   -4.4550    2.4090    0.9632 F   0  0  0  0  0  0  0  0  0  0  0  0
   -0.9373   -2.0365    1.3745 O   0  0  0  0  0  0  0  0  0  0  0  0
    2.7173    1.3701    2.4162 O   0  0  0  0  0  0  0  0  0  0  0  0
    3.5856   -0.0633    0.7838 N   0  0  0  0  0  0  0  0  0  0  0  0
    1.0856   -1.9087    0.2208 N   0  0  0  0  0  0  0  0  0  0  0  0
    0.9158    3.0013   -1.2537 N   0  0  0  0  0  0  0  0  0  0  0  0
    3.0730    4.0585   -1.0653 N   0  0  0  0  0  0  0  0  0  0  0  0
    3.3327   -2.4795    1.3124 C   0  0  1  0  0  0  0  0  0  0  0  0
    3.2632   -1.7266   -1.0310 C   0  0  2  0  0  0  0  0  0  0  0  0
    3.7727   -2.8302   -0.1051 C   0  0  0  0  0  0  0  0  0  0  0  0
    3.9216   -1.1213    1.7361 C   0  0  0  0  0  0  0  0  0  0  0  0
    1.7996   -2.4875    1.3686 C   0  0  0  0  0  0  0  0  0  0  0  0
    3.8901   -0.3778   -0.6218 C   0  0  0  0  0  0  0  0  0  0  0  0
    1.7512   -1.6205   -0.9734 C   0  0  0  0  0  0  0  0  0  0  0  0
    1.0605   -1.2097   -2.0489 C   0  0  0  0  0  0  0  0  0  0  0  0
   -0.3091   -1.7614    0.3507 C   0  0  0  0  0  0  0  0  0  0  0  0
    2.9727    1.1052    1.2425 C   0  0  0  0  0  0  0  0  0  0  0  0
   -1.0493   -1.2536   -0.8571 C   0  0  0  0  0  0  0  0  0  0  0  0
   -0.3605   -1.0199   -1.9839 C   0  0  0  0  0  0  0  0  0  0  0  0
    2.5686    2.1071    0.2503 C   0  0  0  0  0  0  0  0  0  0  0  0
   -2.4986   -0.9982   -0.8111 C   0  0  0  0  0  0  0  0  0  0  0  0
   -3.0165   -0.0795    0.1019 C   0  0  0  0  0  0  0  0  0  0  0  0
   -3.3540   -1.6756   -1.6803 C   0  0  0  0  0  0  0  0  0  0  0  0
    1.3205    2.0965   -0.3383 C   0  0  0  0  0  0  0  0  0  0  0  0
    3.4116    3.1213   -0.1558 C   0  0  0  0  0  0  0  0  0  0  0  0
   -4.3898    0.1619    0.1457 C   0  0  0  0  0  0  0  0  0  0  0  0
   -4.7271   -1.4344   -1.6363 C   0  0  0  0  0  0  0  0  0  0  0  0
   -5.2450   -0.5155   -0.7235 C   0  0  0  0  0  0  0  0  0  0  0  0
   -4.9432    1.1433    1.1228 C   0  0  0  0  0  0  0  0  0  0  0  0
    1.8287    3.9407   -1.5664 C   0  0  0  0  0  0  0  0  0  0  0  0
    3.7080   -3.2366    2.0118 H   0  0  0  0  0  0  0  0  0  0  0  0
    3.5819   -1.9624   -2.0545 H   0  0  0  0  0  0  0  0  0  0  0  0
    3.3706   -3.8062   -0.4044 H   0  0  0  0  0  0  0  0  0  0  0  0
    4.8657   -2.9022   -0.1598 H   0  0  0  0  0  0  0  0  0  0  0  0
    3.5814   -0.8595    2.7436 H   0  0  0  0  0  0  0  0  0  0  0  0
    5.0162   -1.1831    1.7706 H   0  0  0  0  0  0  0  0  0  0  0  0
    1.4564   -3.5291    1.4339 H   0  0  0  0  0  0  0  0  0  0  0  0
    1.4473   -1.9962    2.2843 H   0  0  0  0  0  0  0  0  0  0  0  0
    4.9827   -0.4313   -0.7049 H   0  0  0  0  0  0  0  0  0  0  0  0
    3.5606    0.4164   -1.2962 H   0  0  0  0  0  0  0  0  0  0  0  0
    1.5557   -0.9647   -2.9826 H   0  0  0  0  0  0  0  0  0  0  0  0
   -0.8404   -0.6433   -2.8826 H   0  0  0  0  0  0  0  0  0  0  0  0
   -2.3558    0.4573    0.7796 H   0  0  0  0  0  0  0  0  0  0  0  0
   -2.9711   -2.4001   -2.3951 H   0  0  0  0  0  0  0  0  0  0  0  0
    0.5780    1.3512   -0.0754 H   0  0  0  0  0  0  0  0  0  0  0  0
    4.4152    3.2176    0.2465 H   0  0  0  0  0  0  0  0  0  0  0  0
   -5.3933   -1.9630   -2.3119 H   0  0  0  0  0  0  0  0  0  0  0  0
   -6.3175   -0.3424   -0.7053 H   0  0  0  0  0  0  0  0  0  0  0  0
    1.5302    4.6802   -2.2993 H   0  0  0  0  0  0  0  0  0  0  0  0
  1 31  1  0  0  0  0
  2 31  1  0  0  0  0
  3 31  1  0  0  0  0
  4 18  2  0  0  0  0
  5 19  2  0  0  0  0
  6 13  1  0  0  0  0
  6 15  1  0  0  0  0
  6 19  1  0  0  0  0
  7 14  1  0  0  0  0
  7 16  1  0  0  0  0
  7 18  1  0  0  0  0
  8 26  2  0  0  0  0
  8 32  1  0  0  0  0
  9 27  1  0  0  0  0
  9 32  2  0  0  0  0
 10 12  1  0  0  0  0
 10 13  1  0  0  0  0
 10 14  1  0  0  0  0
 10 33  1  0  0  0  0
 11 12  1  0  0  0  0
 11 15  1  0  0  0  0
 11 16  1  0  0  0  0
 11 34  1  0  0  0  0
 12 35  1  0  0  0  0
 12 36  1  0  0  0  0
 13 37  1  0  0  0  0
 13 38  1  0  0  0  0
 14 39  1  0  0  0  0
 14 40  1  0  0  0  0
 15 41  1  0  0  0  0
 15 42  1  0  0  0  0
 16 17  2  0  0  0  0
 17 21  1  0  0  0  0
 17 43  1  0  0  0  0
 18 20  1  0  0  0  0
 19 22  1  0  0  0  0
 20 21  2  0  0  0  0
 20 23  1  0  0  0  0
 21 44  1  0  0  0  0
 22 26  1  0  0  0  0
 22 27  2  0  0  0  0
 23 24  2  0  0  0  0
 23 25  1  0  0  0  0
 24 28  1  0  0  0  0
 24 45  1  0  0  0  0
 25 29  2  0  0  0  0
 25 46  1  0  0  0  0
 26 47  1  0  0  0  0
 27 48  1  0  0  0  0
 28 30  2  0  0  0  0
 28 31  1  0  0  0  0
 29 30  1  0  0  0  0
 29 49  1  0  0  0  0
 30 50  1  0  0  0  0
 32 51  1  0  0  0  0
M  END
> <PUBCHEM_COMPOUND_CID>
25388703

> <PUBCHEM_CONFORMER_RMSD>
0.8

> <PUBCHEM_CONFORMER_DIVERSEORDER>
1
7
10
11
13
12
3
6
15
9
8
2
14
4
5

> <PUBCHEM_MMFF94_PARTIAL_CHARGES>
39
1 -0.34
11 0.14
13 0.3
14 0.3
15 0.3
16 -0.03
17 -0.15
18 0.62
19 0.54
2 -0.34
20 -0.01
21 -0.15
22 0.09
23 0.03
24 -0.15
25 -0.15
26 0.16
27 0.16
28 -0.14
29 -0.15
3 -0.34
30 -0.15
31 1.16
32 0.47
4 -0.57
43 0.15
44 0.15
45 0.15
46 0.15
47 0.15
48 0.15
49 0.15
5 -0.57
50 0.15
51 0.15
6 -0.66
7 -0.47
8 -0.62
9 -0.62

> <PUBCHEM_EFFECTIVE_ROTOR_COUNT>
5

> <PUBCHEM_PHARMACOPHORE_FEATURES>
9
1 4 acceptor
1 5 acceptor
1 8 acceptor
3 8 9 32 cation
6 23 24 25 28 29 30 rings
6 6 10 11 12 13 15 rings
6 7 10 11 12 14 16 rings
6 7 16 17 18 20 21 rings
6 8 9 22 26 27 32 rings

> <PUBCHEM_HEAVY_ATOM_COUNT>
32

> <PUBCHEM_ATOM_DEF_STEREO_COUNT>
2

> <PUBCHEM_ATOM_UDEF_STEREO_COUNT>
0

> <PUBCHEM_BOND_DEF_STEREO_COUNT>
0

> <PUBCHEM_BOND_UDEF_STEREO_COUNT>
0

> <PUBCHEM_ISOTOPIC_ATOM_COUNT>
0

> <PUBCHEM_COMPONENT_COUNT>
1

> <PUBCHEM_CACTVS_TAUTO_COUNT>
3

> <PUBCHEM_CONFORMER_ID>
0183669F00000001

> <PUBCHEM_MMFF94_ENERGY>
87.843

> <PUBCHEM_FEATURE_SELFOVERLAP>
47.266

> <PUBCHEM_SHAPE_FINGERPRINT>
10074138 170 15305879317131092427
10615611 76 18271814531790464793
10674148 151 18201162170107611036
11421498 54 17751931211852657850
11578080 2 17824852119532809370
12422481 6 18055042438456318282
12633257 1 17751616940299550570
12788726 201 17901108517171816158
13583140 156 18040991873686080035
13590594 115 18265055721633874324
13965767 371 17915713480441866146
14251764 38 18339081600694599915
14705955 166 15505982023459751973
14849402 71 18334580165772899188
15163728 17 17900839437169619524
15475509 84 17178830446286284283
1601671 61 18059295357827518918
17818456 19 17989489585078086665
20567600 9 18339930432240390900
20691752 17 18187076252331301415
20715895 44 17559395739344480641
20739085 24 18340484478615642590
21033648 29 17167849864657811103
21304253 335 17703500043551364602
21860390 5 18411414042537881774
22122407 14 18191321394661753961
23559900 14 18410290341533618606
3052486 1 18044940065280032772
338550 245 18341055129440651081
38570 142 18192161605801544964
4058900 60 17898292959818651676
44280116 191 13535772459740399299
474 4 18264478658275506719
513532 50 17275109457335849212
5895379 119 17560252318562697969
6086070 43 18045190818345100303

> <PUBCHEM_SHAPE_MULTIPOLES>
605.06
10.95
4.28
2.05
16.28
4.13
-0.32
1.88
-3.11
-5.03
0.89
0.36
-0.01
-2.62

> <PUBCHEM_SHAPE_SELFOVERLAP>
1344.607

> <PUBCHEM_SHAPE_VOLUME>
320.8

> <PUBCHEM_COORDINATE_TYPE>
2
5
10

$$$$
