51137435
  -OEChem-12032416223D

 46 49  0     1  0  0  0  0  0999 V2000
    1.7705   -0.7268    0.1971 O   0  0  0  0  0  0  0  0  0  0  0  0
   -5.1038   -1.1894   -1.4800 O   0  0  0  0  0  0  0  0  0  0  0  0
   -2.2723   -0.5127   -0.0612 N   0  0  1  0  0  0  0  0  0  0  0  0
    1.8825   -2.9594    0.1119 N   0  0  0  0  0  0  0  0  0  0  0  0
    3.1660   -2.4621   -0.0160 N   0  0  0  0  0  0  0  0  0  0  0  0
   -0.3986   -1.8439    0.4041 C   0  0  1  0  0  0  0  0  0  0  0  0
   -0.8722   -1.1527    1.6946 C   0  0  0  0  0  0  0  0  0  0  0  0
   -1.0951   -1.0748   -0.7266 C   0  0  0  0  0  0  0  0  0  0  0  0
   -1.7797   -0.0226    1.2261 C   0  0  0  0  0  0  0  0  0  0  0  0
   -2.9069    0.5353   -0.8470 C   0  0  0  0  0  0  0  0  0  0  0  0
    1.1015   -1.9116    0.2337 C   0  0  0  0  0  0  0  0  0  0  0  0
   -4.3186    0.7984   -0.3946 C   0  0  0  0  0  0  0  0  0  0  0  0
   -5.3505   -0.0769   -0.7332 C   0  0  0  0  0  0  0  0  0  0  0  0
    3.0525   -1.1556    0.0391 C   0  0  0  0  0  0  0  0  0  0  0  0
   -4.5889    1.9323    0.3714 C   0  0  0  0  0  0  0  0  0  0  0  0
    4.0519   -0.1301   -0.0395 C   0  0  0  0  0  0  0  0  0  0  0  0
   -6.6528    0.1819   -0.3058 C   0  0  0  0  0  0  0  0  0  0  0  0
   -5.8913    2.1910    0.7987 C   0  0  0  0  0  0  0  0  0  0  0  0
   -6.9233    1.3159    0.4601 C   0  0  0  0  0  0  0  0  0  0  0  0
    5.3939   -0.4752   -0.2008 C   0  0  0  0  0  0  0  0  0  0  0  0
    3.6823    1.2123    0.0449 C   0  0  0  0  0  0  0  0  0  0  0  0
    6.3660    0.5220   -0.2775 C   0  0  0  0  0  0  0  0  0  0  0  0
    4.6544    2.2095   -0.0318 C   0  0  0  0  0  0  0  0  0  0  0  0
    5.9963    1.8644   -0.1930 C   0  0  0  0  0  0  0  0  0  0  0  0
    7.0361    2.9306   -0.2747 C   0  0  0  0  0  0  0  0  0  0  0  0
   -0.7748   -2.8763    0.4168 H   0  0  0  0  0  0  0  0  0  0  0  0
   -1.4443   -1.8674    2.2995 H   0  0  0  0  0  0  0  0  0  0  0  0
   -0.0520   -0.7754    2.3145 H   0  0  0  0  0  0  0  0  0  0  0  0
   -1.3756   -1.7447   -1.5468 H   0  0  0  0  0  0  0  0  0  0  0  0
   -0.4514   -0.2845   -1.1350 H   0  0  0  0  0  0  0  0  0  0  0  0
   -1.1929    0.8987    1.1175 H   0  0  0  0  0  0  0  0  0  0  0  0
   -2.5848    0.1572    1.9454 H   0  0  0  0  0  0  0  0  0  0  0  0
   -2.3163    1.4618   -0.8475 H   0  0  0  0  0  0  0  0  0  0  0  0
   -2.9561    0.2357   -1.9034 H   0  0  0  0  0  0  0  0  0  0  0  0
   -3.7947    2.6222    0.6444 H   0  0  0  0  0  0  0  0  0  0  0  0
   -7.4664   -0.4913   -0.5620 H   0  0  0  0  0  0  0  0  0  0  0  0
   -6.1018    3.0737    1.3955 H   0  0  0  0  0  0  0  0  0  0  0  0
   -7.9372    1.5174    0.7931 H   0  0  0  0  0  0  0  0  0  0  0  0
    5.7048   -1.5149   -0.2694 H   0  0  0  0  0  0  0  0  0  0  0  0
    2.6473    1.5204    0.1700 H   0  0  0  0  0  0  0  0  0  0  0  0
   -5.9367   -1.6735   -1.6133 H   0  0  0  0  0  0  0  0  0  0  0  0
    7.4080    0.2408   -0.4050 H   0  0  0  0  0  0  0  0  0  0  0  0
    4.3543    3.2521    0.0335 H   0  0  0  0  0  0  0  0  0  0  0  0
    7.9921    2.5820    0.1307 H   0  0  0  0  0  0  0  0  0  0  0  0
    6.7446    3.8122    0.3062 H   0  0  0  0  0  0  0  0  0  0  0  0
    7.1853    3.2306   -1.3166 H   0  0  0  0  0  0  0  0  0  0  0  0
  1 11  1  0  0  0  0
  1 14  1  0  0  0  0
  2 13  1  0  0  0  0
  2 41  1  0  0  0  0
  3  8  1  0  0  0  0
  3  9  1  0  0  0  0
  3 10  1  0  0  0  0
  4  5  1  0  0  0  0
  4 11  2  0  0  0  0
  5 14  2  0  0  0  0
  6  7  1  0  0  0  0
  6  8  1  0  0  0  0
  6 11  1  0  0  0  0
  6 26  1  0  0  0  0
  7  9  1  0  0  0  0
  7 27  1  0  0  0  0
  7 28  1  0  0  0  0
  8 29  1  0  0  0  0
  8 30  1  0  0  0  0
  9 31  1  0  0  0  0
  9 32  1  0  0  0  0
 10 12  1  0  0  0  0
 10 33  1  0  0  0  0
 10 34  1  0  0  0  0
 12 13  1  0  0  0  0
 12 15  2  0  0  0  0
 13 17  2  0  0  0  0
 14 16  1  0  0  0  0
 15 18  1  0  0  0  0
 15 35  1  0  0  0  0
 16 20  2  0  0  0  0
 16 21  1  0  0  0  0
 17 19  1  0  0  0  0
 17 36  1  0  0  0  0
 18 19  2  0  0  0  0
 18 37  1  0  0  0  0
 19 38  1  0  0  0  0
 20 22  1  0  0  0  0
 20 39  1  0  0  0  0
 21 23  2  0  0  0  0
 21 40  1  0  0  0  0
 22 24  2  0  0  0  0
 22 42  1  0  0  0  0
 23 24  1  0  0  0  0
 23 43  1  0  0  0  0
 24 25  1  0  0  0  0
 25 44  1  0  0  0  0
 25 45  1  0  0  0  0
 25 46  1  0  0  0  0
M  END
> <PUBCHEM_COMPOUND_CID>
51137435

> <PUBCHEM_CONFORMER_RMSD>
0.8

> <PUBCHEM_CONFORMER_DIVERSEORDER>
1
50
64
68
43
92
5
94
89
46
23
28
52
95
31
53
51
72
63
18
67
80
11
44
54
13
61
87
85
19
47
39
69
82
27
2
90
84
8
22
59
56
81
83
15
17
86
6
93
42
16
20
48
24
49
14
10
62
26
12
37
41
88
25
57
96
33
79
32
58
70
40
21
60
7
9
45
74
75
73
36
30
77
35
55
71
91
76
38
34
65
78
29
4
66
3

> <PUBCHEM_MMFF94_PARTIAL_CHARGES>
33
1 -0.28
10 0.41
11 0.3
12 -0.14
13 0.08
14 0.43
15 -0.15
16 0.05
17 -0.15
18 -0.15
19 -0.15
2 -0.53
20 -0.15
21 -0.15
22 -0.15
23 -0.15
24 -0.14
25 0.14
3 -0.81
35 0.15
36 0.15
37 0.15
38 0.15
39 0.15
4 -0.34
40 0.15
41 0.45
42 0.15
43 0.15
5 -0.34
6 0.18
8 0.27
9 0.27

> <PUBCHEM_EFFECTIVE_ROTOR_COUNT>
5

> <PUBCHEM_PHARMACOPHORE_FEATURES>
6
1 2 donor
1 3 cation
5 1 4 5 11 14 rings
5 3 6 7 8 9 rings
6 12 13 15 17 18 19 rings
6 16 20 21 22 23 24 rings

> <PUBCHEM_HEAVY_ATOM_COUNT>
25

> <PUBCHEM_ATOM_DEF_STEREO_COUNT>
1

> <PUBCHEM_ATOM_UDEF_STEREO_COUNT>
0

> <PUBCHEM_BOND_DEF_STEREO_COUNT>
0

> <PUBCHEM_BOND_UDEF_STEREO_COUNT>
0

> <PUBCHEM_ISOTOPIC_ATOM_COUNT>
0

> <PUBCHEM_COMPONENT_COUNT>
1

> <PUBCHEM_CACTVS_TAUTO_COUNT>
3

> <PUBCHEM_CONFORMER_ID>
030C4B9B00000001

> <PUBCHEM_MMFF94_ENERGY>
54.6119

> <PUBCHEM_FEATURE_SELFOVERLAP>
30.448

> <PUBCHEM_SHAPE_FINGERPRINT>
10 15 15213306339356215502
10411042 1 17833268620053574162
10595046 47 18341890775815871287
11273773 42 18341611555132709909
11646440 116 17458067053541020309
12035758 1 16805612468952640621
12236239 1 18131348587856881735
12633257 1 16009031734925555678
12730499 353 18334019358639478282
12788726 201 17203332144104711161
12821665 9 18340484569237236679
12895836 83 17775279491090793615
12895837 130 18198344146609658260
13402501 40 18187361043371398676
13533116 47 17168699718279185242
13540713 4 18263385688516802386
13690498 29 17416110901723466247
13955234 65 17896878751189067386
14394314 77 18340775853915068113
14528608 73 18342173366792930487
14681490 219 18342175535773248200
14849402 71 18410859901589492057
14856354 85 17060620015155850429
14931854 50 17917162684207308456
15183329 4 17346885545804872185
15419008 145 18116703025062894728
15685185 35 18265619968873835924
15840311 113 18265621979508945693
16994733 274 18408601436107577969
18608769 82 18337393863436847699
19438510 23 18187642557266280248
20157964 124 18410857633777609802
20567600 254 17530958077439982331
20715895 44 18410576223795127448
21033648 144 18187358823073559039
21033648 29 18264484165304658848
21298829 104 18411420643998113092
21304303 64 18335424573523830985
21307412 95 12967128333040664173
21401589 2 17895190034424354898
21521721 280 18409173178175285955
21585482 111 18262801744293837429
21641784 216 16415203317432202849
23522609 53 17702960132403880281
270888 7 18409449224091729296
2748736 6 18337105765589164584
2838139 119 18334289847258053028
2916195 48 17968094192671308189
3004659 81 17702663233572452790
3014063 24 8502370018645807577
3246875 12 18334297612627821067
335352 9 18410015425926166262
3472631 163 18343305881387103310
34797466 226 18130793313553285591
4073 2 18261116296110436115
4325135 7 18341891879680319855
437815 12 10807935963988244627
445580 126 18411409610374245008
46194498 28 18058455292310382966
474113 269 11097851934910785265
513532 50 18270975561447830454
53794403 172 18190465050585790076
5385378 56 18260824874579986706
543368 44 18411135836463812717
56633871 153 11169906212796455096
5911458 16 17845669044976526625
59682541 35 17821737148111170657
59682541 52 17346050987295068060
6327066 14 18337954614525119356
6608658 132 17059510534160434409
7970288 3 9295299326497868412

> <PUBCHEM_SHAPE_MULTIPOLES>
487.81
20.06
2.86
1
2.07
0.1
-0.13
16.13
2.34
-3.14
-0.22
1.07
-0.16
-1.12

> <PUBCHEM_SHAPE_SELFOVERLAP>
1063.879

> <PUBCHEM_SHAPE_VOLUME>
267.8

> <PUBCHEM_COORDINATE_TYPE>
2
5
10

$$$$
