7051070
  -OEChem-12032416133D

 72 75  0     1  0  0  0  0  0999 V2000
    0.4317    2.6877    0.2675 S   0  0  0  0  0  0  0  0  0  0  0  0
    9.0168    2.1320    0.0817 F   0  0  0  0  0  0  0  0  0  0  0  0
   -7.1918    1.1299   -0.7719 O   0  0  0  0  0  0  0  0  0  0  0  0
   -6.7004    2.8261    0.8486 O   0  0  0  0  0  0  0  0  0  0  0  0
    0.0512   -2.2662   -1.5709 O   0  0  0  0  0  0  0  0  0  0  0  0
    3.4754   -0.8016   -0.2153 O   0  0  0  0  0  0  0  0  0  0  0  0
    0.6733    0.1366   -0.0876 N   0  0  0  0  0  0  0  0  0  0  0  0
    0.1616   -3.9533    0.0169 N   0  0  0  0  0  0  0  0  0  0  0  0
    2.7134    1.4072    0.0941 N   0  0  0  0  0  0  0  0  0  0  0  0
   -3.1554   -0.1449    0.2725 C   0  0  2  0  0  0  0  0  0  0  0  0
   -3.3986    1.3042   -0.3411 C   0  0  1  0  0  0  0  0  0  0  0  0
   -4.8823    1.8396   -0.3465 C   0  0  1  0  0  0  0  0  0  0  0  0
   -1.7198   -0.6514   -0.2132 C   0  0  1  0  0  0  0  0  0  0  0  0
   -4.2287   -1.1225   -0.2728 C   0  0  0  0  0  0  0  0  0  0  0  0
   -5.8275    0.7239   -0.8754 C   0  0  1  0  0  0  0  0  0  0  0  0
   -2.3630    2.3323    0.2007 C   0  0  0  0  0  0  0  0  0  0  0  0
   -5.6547   -0.6049   -0.1481 C   0  0  0  0  0  0  0  0  0  0  0  0
   -3.2101   -0.1596    1.8200 C   0  0  0  0  0  0  0  0  0  0  0  0
   -0.6783    0.4240   -0.0392 C   0  0  0  0  0  0  0  0  0  0  0  0
   -5.3740    2.3781    1.0153 C   0  0  0  0  0  0  0  0  0  0  0  0
   -4.9852    3.0382   -1.3317 C   0  0  0  0  0  0  0  0  0  0  0  0
   -0.9884    1.7584    0.1269 C   0  0  0  0  0  0  0  0  0  0  0  0
   -1.2668   -1.9783    0.4106 C   0  0  0  0  0  0  0  0  0  0  0  0
   -0.2964   -2.7290   -0.4812 C   0  0  0  0  0  0  0  0  0  0  0  0
    1.3528    1.2517    0.0702 C   0  0  0  0  0  0  0  0  0  0  0  0
    1.0985   -4.7947   -0.7177 C   0  0  0  0  0  0  0  0  0  0  0  0
   -0.2645   -4.4811    1.3110 C   0  0  0  0  0  0  0  0  0  0  0  0
    3.6775    0.3959   -0.0467 C   0  0  0  0  0  0  0  0  0  0  0  0
    2.5346   -4.4573   -0.3737 C   0  0  0  0  0  0  0  0  0  0  0  0
   -1.5059   -5.3391    1.1788 C   0  0  0  0  0  0  0  0  0  0  0  0
    5.0914    0.8551   -0.0120 C   0  0  0  0  0  0  0  0  0  0  0  0
    6.0787    0.1236   -0.6721 C   0  0  0  0  0  0  0  0  0  0  0  0
    5.4302    2.0180    0.6798 C   0  0  0  0  0  0  0  0  0  0  0  0
    7.4048    0.5548   -0.6404 C   0  0  0  0  0  0  0  0  0  0  0  0
    6.7563    2.4493    0.7115 C   0  0  0  0  0  0  0  0  0  0  0  0
    7.7436    1.7177    0.0513 C   0  0  0  0  0  0  0  0  0  0  0  0
   -3.1552    1.1826   -1.4110 H   0  0  0  0  0  0  0  0  0  0  0  0
   -1.8100   -0.7884   -1.3013 H   0  0  0  0  0  0  0  0  0  0  0  0
   -4.1745   -2.0887    0.2415 H   0  0  0  0  0  0  0  0  0  0  0  0
   -4.0326   -1.3293   -1.3332 H   0  0  0  0  0  0  0  0  0  0  0  0
   -5.6270    0.5642   -1.9432 H   0  0  0  0  0  0  0  0  0  0  0  0
   -2.4009    3.2527   -0.3915 H   0  0  0  0  0  0  0  0  0  0  0  0
   -2.5831    2.5993    1.2397 H   0  0  0  0  0  0  0  0  0  0  0  0
   -5.9558   -0.5149    0.9014 H   0  0  0  0  0  0  0  0  0  0  0  0
   -6.3436   -1.3441   -0.5771 H   0  0  0  0  0  0  0  0  0  0  0  0
   -3.0115   -1.1623    2.2145 H   0  0  0  0  0  0  0  0  0  0  0  0
   -4.1876    0.1108    2.2139 H   0  0  0  0  0  0  0  0  0  0  0  0
   -2.4727    0.5089    2.2728 H   0  0  0  0  0  0  0  0  0  0  0  0
   -4.7688    3.2211    1.3622 H   0  0  0  0  0  0  0  0  0  0  0  0
   -5.3878    1.6195    1.7936 H   0  0  0  0  0  0  0  0  0  0  0  0
   -4.4490    3.9179   -0.9607 H   0  0  0  0  0  0  0  0  0  0  0  0
   -6.0219    3.3456   -1.5090 H   0  0  0  0  0  0  0  0  0  0  0  0
   -4.5619    2.7797   -2.3092 H   0  0  0  0  0  0  0  0  0  0  0  0
   -2.1261   -2.6299    0.5699 H   0  0  0  0  0  0  0  0  0  0  0  0
   -0.7885   -1.7766    1.3752 H   0  0  0  0  0  0  0  0  0  0  0  0
   -7.7394    0.4239   -1.1555 H   0  0  0  0  0  0  0  0  0  0  0  0
   -6.9994    3.1724    1.7066 H   0  0  0  0  0  0  0  0  0  0  0  0
    3.0090    2.3739    0.1871 H   0  0  0  0  0  0  0  0  0  0  0  0
    0.9454   -4.6301   -1.7903 H   0  0  0  0  0  0  0  0  0  0  0  0
    0.8848   -5.8497   -0.5158 H   0  0  0  0  0  0  0  0  0  0  0  0
    0.5527   -5.0756    1.7364 H   0  0  0  0  0  0  0  0  0  0  0  0
   -0.4495   -3.6784    2.0272 H   0  0  0  0  0  0  0  0  0  0  0  0
    3.2214   -5.0948   -0.9388 H   0  0  0  0  0  0  0  0  0  0  0  0
    2.7344   -4.6020    0.6927 H   0  0  0  0  0  0  0  0  0  0  0  0
    2.7615   -3.4148   -0.6165 H   0  0  0  0  0  0  0  0  0  0  0  0
   -1.8159   -5.7094    2.1611 H   0  0  0  0  0  0  0  0  0  0  0  0
   -1.3167   -6.2073    0.5388 H   0  0  0  0  0  0  0  0  0  0  0  0
   -2.3462   -4.7923    0.7430 H   0  0  0  0  0  0  0  0  0  0  0  0
    5.8356   -0.7822   -1.2214 H   0  0  0  0  0  0  0  0  0  0  0  0
    4.7024    2.5991    1.2377 H   0  0  0  0  0  0  0  0  0  0  0  0
    8.1737   -0.0137   -1.1552 H   0  0  0  0  0  0  0  0  0  0  0  0
    7.0225    3.3503    1.2564 H   0  0  0  0  0  0  0  0  0  0  0  0
  1 22  1  0  0  0  0
  1 25  1  0  0  0  0
  2 36  1  0  0  0  0
  3 15  1  0  0  0  0
  3 56  1  0  0  0  0
  4 20  1  0  0  0  0
  4 57  1  0  0  0  0
  5 24  2  0  0  0  0
  6 28  2  0  0  0  0
  7 19  1  0  0  0  0
  7 25  2  0  0  0  0
  8 24  1  0  0  0  0
  8 26  1  0  0  0  0
  8 27  1  0  0  0  0
  9 25  1  0  0  0  0
  9 28  1  0  0  0  0
  9 58  1  0  0  0  0
 10 11  1  0  0  0  0
 10 13  1  0  0  0  0
 10 14  1  0  0  0  0
 10 18  1  0  0  0  0
 11 12  1  0  0  0  0
 11 16  1  0  0  0  0
 11 37  1  0  0  0  0
 12 15  1  0  0  0  0
 12 20  1  0  0  0  0
 12 21  1  0  0  0  0
 13 19  1  0  0  0  0
 13 23  1  0  0  0  0
 13 38  1  0  0  0  0
 14 17  1  0  0  0  0
 14 39  1  0  0  0  0
 14 40  1  0  0  0  0
 15 17  1  0  0  0  0
 15 41  1  0  0  0  0
 16 22  1  0  0  0  0
 16 42  1  0  0  0  0
 16 43  1  0  0  0  0
 17 44  1  0  0  0  0
 17 45  1  0  0  0  0
 18 46  1  0  0  0  0
 18 47  1  0  0  0  0
 18 48  1  0  0  0  0
 19 22  2  0  0  0  0
 20 49  1  0  0  0  0
 20 50  1  0  0  0  0
 21 51  1  0  0  0  0
 21 52  1  0  0  0  0
 21 53  1  0  0  0  0
 23 24  1  0  0  0  0
 23 54  1  0  0  0  0
 23 55  1  0  0  0  0
 26 29  1  0  0  0  0
 26 59  1  0  0  0  0
 26 60  1  0  0  0  0
 27 30  1  0  0  0  0
 27 61  1  0  0  0  0
 27 62  1  0  0  0  0
 28 31  1  0  0  0  0
 29 63  1  0  0  0  0
 29 64  1  0  0  0  0
 29 65  1  0  0  0  0
 30 66  1  0  0  0  0
 30 67  1  0  0  0  0
 30 68  1  0  0  0  0
 31 32  2  0  0  0  0
 31 33  1  0  0  0  0
 32 34  1  0  0  0  0
 32 69  1  0  0  0  0
 33 35  2  0  0  0  0
 33 70  1  0  0  0  0
 34 36  2  0  0  0  0
 34 71  1  0  0  0  0
 35 36  1  0  0  0  0
 35 72  1  0  0  0  0
M  END
> <PUBCHEM_COMPOUND_CID>
7051070

> <PUBCHEM_CONFORMER_RMSD>
1

> <PUBCHEM_CONFORMER_DIVERSEORDER>
1
10
15
11
13
9
2
16
14
5
7
4
12
3
8
6

> <PUBCHEM_MMFF94_PARTIAL_CHARGES>
34
1 -0.08
13 0.18
15 0.28
16 0.18
19 0.05
2 -0.19
20 0.28
22 -0.14
23 0.06
24 0.57
25 0.44
26 0.3
27 0.3
28 0.54
3 -0.68
31 0.09
32 -0.15
33 -0.15
34 -0.15
35 -0.15
36 0.19
4 -0.68
5 -0.57
56 0.4
57 0.4
58 0.37
6 -0.57
69 0.15
7 -0.57
70 0.15
71 0.15
72 0.15
8 -0.66
9 -0.49

> <PUBCHEM_EFFECTIVE_ROTOR_COUNT>
10.2

> <PUBCHEM_PHARMACOPHORE_FEATURES>
11
1 3 acceptor
1 3 donor
1 4 acceptor
1 4 donor
1 5 acceptor
1 6 acceptor
1 9 donor
5 1 7 19 22 25 rings
6 10 11 12 14 15 17 rings
6 10 11 13 16 19 22 rings
6 31 32 33 34 35 36 rings

> <PUBCHEM_HEAVY_ATOM_COUNT>
36

> <PUBCHEM_ATOM_DEF_STEREO_COUNT>
5

> <PUBCHEM_ATOM_UDEF_STEREO_COUNT>
0

> <PUBCHEM_BOND_DEF_STEREO_COUNT>
0

> <PUBCHEM_BOND_UDEF_STEREO_COUNT>
0

> <PUBCHEM_ISOTOPIC_ATOM_COUNT>
0

> <PUBCHEM_COMPONENT_COUNT>
1

> <PUBCHEM_CACTVS_TAUTO_COUNT>
3

> <PUBCHEM_CONFORMER_ID>
006B973E00000001

> <PUBCHEM_MMFF94_ENERGY>
108.2297

> <PUBCHEM_FEATURE_SELFOVERLAP>
55.967

> <PUBCHEM_SHAPE_FINGERPRINT>
10050765 1 17979072683563955141
10190206 1 18198888374869286543
10369192 42 18334853909640062389
10411042 1 17689436405275438579
10675989 125 18196092145021914120
10864689 126 18412830214237169416
10940486 97 18118405283457492652
11007060 377 18342458200444480041
11135609 187 18413107238525188976
11135926 11 18339358570335416093
11136131 41 18261948553730924298
11315181 36 18413672430974466737
11578080 2 17461709607447806437
12522641 33 18409726249608766087
14394314 77 18411703175109601776
14790565 3 18410575097654119005
14856354 85 16225767449406956664
15064981 194 18193294081546397380
15183329 4 18334853909307999208
15361156 5 18056477494578491980
15400415 2 18411698820719268352
15439362 3 18339080372086293259
15444296 121 18189056563452789292
15849732 13 18261109699019570604
15927050 60 18412541028808531086
16067689 302 18342178848268979071
16090146 7 18340504312917579800
16719943 64 18410008871025532426
16993438 75 18191309475431435218
18681886 176 18335976570920413497
21133665 82 18412546518625184406
21360443 120 18409731738107510966
23516275 137 17131011800857969735
23559900 14 17906162963502943867
249057 3 18336265730274131204
283562 15 18270685264060459569
3383291 50 18337391663891482723
3411729 13 18263642879183347083
4015057 19 17059771255950154728
4017518 198 18272092716981074030
4058900 60 18335988579527179546
4516262 110 18338233740350508397
4625314 4 18339081614598438492
5265222 85 18337955704909203564
5385378 56 18267593416299175777
563151 97 18339357458086605153
57527295 17 18128517307911172645
6371380 46 18271519892655076784
6669772 16 18338800017901004783
99344 41 18411980235123091524
9961470 85 18411138027019174042
9981440 41 18261117357341450003

> <PUBCHEM_SHAPE_MULTIPOLES>
699.02
18.83
6.06
1.08
26.07
11.19
-0.13
-21.48
1.15
-0.56
-0.84
-0.79
0.28
1.33

> <PUBCHEM_SHAPE_SELFOVERLAP>
1470.296

> <PUBCHEM_SHAPE_VOLUME>
398.5

> <PUBCHEM_COORDINATE_TYPE>
2
5
10

$$$$
