75536776
  -OEChem-12032416303D

 54 56  0     1  0  0  0  0  0999 V2000
   -4.8002   -1.2010   -0.3837 S   0  0  0  0  0  0  0  0  0  0  0  0
    4.3752    0.4473    0.4919 O   0  0  0  0  0  0  0  0  0  0  0  0
    5.0734   -2.6596    0.1336 O   0  0  0  0  0  0  0  0  0  0  0  0
    2.5664    2.4927   -0.6666 O   0  0  0  0  0  0  0  0  0  0  0  0
   -5.2715   -0.2106    0.5747 O   0  0  0  0  0  0  0  0  0  0  0  0
   -4.9295   -0.9441   -1.8111 O   0  0  0  0  0  0  0  0  0  0  0  0
    1.8100   -1.2104    0.8314 N   0  0  0  0  0  0  0  0  0  0  0  0
    2.3720    0.3444   -1.5015 N   0  0  0  0  0  0  0  0  0  0  0  0
    0.4789    1.4221   -0.7512 N   0  0  0  0  0  0  0  0  0  0  0  0
    3.2127   -1.5252    1.0942 C   0  0  1  0  0  0  0  0  0  0  0  0
    3.9736   -1.8055   -0.1898 C   0  0  1  0  0  0  0  0  0  0  0  0
    4.5115   -0.4446   -0.6302 C   0  0  1  0  0  0  0  0  0  0  0  0
    3.9461   -0.3071    1.6315 C   0  0  0  0  0  0  0  0  0  0  0  0
    3.7600    0.1533   -1.8098 C   0  0  0  0  0  0  0  0  0  0  0  0
    1.0035   -2.4232    0.7651 C   0  0  0  0  0  0  0  0  0  0  0  0
   -0.4432   -2.1195    0.4788 C   0  0  0  0  0  0  0  0  0  0  0  0
    1.8599    1.5251   -0.9396 C   0  0  0  0  0  0  0  0  0  0  0  0
   -0.9617   -2.3351   -0.7980 C   0  0  0  0  0  0  0  0  0  0  0  0
   -1.2649   -1.6224    1.4905 C   0  0  0  0  0  0  0  0  0  0  0  0
   -3.1235   -1.5567   -0.0515 C   0  0  0  0  0  0  0  0  0  0  0  0
   -2.3019   -2.0538   -1.0631 C   0  0  0  0  0  0  0  0  0  0  0  0
   -2.6049   -1.3409    1.2255 C   0  0  0  0  0  0  0  0  0  0  0  0
   -0.3985    2.3925   -0.2135 C   0  0  0  0  0  0  0  0  0  0  0  0
   -5.6546   -2.7185   -0.0218 C   0  0  0  0  0  0  0  0  0  0  0  0
   -1.7602    2.1130   -0.0983 C   0  0  0  0  0  0  0  0  0  0  0  0
    0.0971    3.6285    0.2016 C   0  0  0  0  0  0  0  0  0  0  0  0
   -2.6263    3.0694    0.4319 C   0  0  0  0  0  0  0  0  0  0  0  0
   -0.7688    4.5848    0.7320 C   0  0  0  0  0  0  0  0  0  0  0  0
   -2.1306    4.3052    0.8469 C   0  0  0  0  0  0  0  0  0  0  0  0
    3.2925   -2.3311    1.8341 H   0  0  0  0  0  0  0  0  0  0  0  0
    3.3949   -2.3234   -0.9608 H   0  0  0  0  0  0  0  0  0  0  0  0
    5.5776   -0.4984   -0.8793 H   0  0  0  0  0  0  0  0  0  0  0  0
    3.3444    0.3288    2.2885 H   0  0  0  0  0  0  0  0  0  0  0  0
    4.8428   -0.6068    2.1867 H   0  0  0  0  0  0  0  0  0  0  0  0
    3.8221   -0.5020   -2.6843 H   0  0  0  0  0  0  0  0  0  0  0  0
    4.1927    1.1245   -2.0739 H   0  0  0  0  0  0  0  0  0  0  0  0
    1.4502   -0.6215    1.5828 H   0  0  0  0  0  0  0  0  0  0  0  0
    1.0573   -2.9767    1.7121 H   0  0  0  0  0  0  0  0  0  0  0  0
    1.3879   -3.1002   -0.0076 H   0  0  0  0  0  0  0  0  0  0  0  0
    5.5758   -2.8084   -0.6857 H   0  0  0  0  0  0  0  0  0  0  0  0
    1.7292   -0.4184   -1.6909 H   0  0  0  0  0  0  0  0  0  0  0  0
   -0.3324   -2.7196   -1.5962 H   0  0  0  0  0  0  0  0  0  0  0  0
   -0.8726   -1.4514    2.4896 H   0  0  0  0  0  0  0  0  0  0  0  0
   -2.6855   -2.2343   -2.0633 H   0  0  0  0  0  0  0  0  0  0  0  0
   -3.2281   -0.9590    2.0291 H   0  0  0  0  0  0  0  0  0  0  0  0
    0.0442    0.5472   -1.0325 H   0  0  0  0  0  0  0  0  0  0  0  0
   -6.7181   -2.5631   -0.2156 H   0  0  0  0  0  0  0  0  0  0  0  0
   -5.2693   -3.5064   -0.6718 H   0  0  0  0  0  0  0  0  0  0  0  0
   -5.5004   -2.9713    1.0289 H   0  0  0  0  0  0  0  0  0  0  0  0
   -2.1616    1.1637   -0.4357 H   0  0  0  0  0  0  0  0  0  0  0  0
    1.1368    3.9182    0.1446 H   0  0  0  0  0  0  0  0  0  0  0  0
   -3.6871    2.8527    0.5173 H   0  0  0  0  0  0  0  0  0  0  0  0
   -0.3842    5.5477    1.0556 H   0  0  0  0  0  0  0  0  0  0  0  0
   -2.8050    5.0501    1.2589 H   0  0  0  0  0  0  0  0  0  0  0  0
  1  5  2  0  0  0  0
  1  6  2  0  0  0  0
  1 20  1  0  0  0  0
  1 24  1  0  0  0  0
  2 12  1  0  0  0  0
  2 13  1  0  0  0  0
  3 11  1  0  0  0  0
  3 40  1  0  0  0  0
  4 17  2  0  0  0  0
  7 10  1  0  0  0  0
  7 15  1  0  0  0  0
  7 37  1  0  0  0  0
  8 14  1  0  0  0  0
  8 17  1  0  0  0  0
  8 41  1  0  0  0  0
  9 17  1  0  0  0  0
  9 23  1  0  0  0  0
  9 46  1  0  0  0  0
 10 11  1  0  0  0  0
 10 13  1  0  0  0  0
 10 30  1  0  0  0  0
 11 12  1  0  0  0  0
 11 31  1  0  0  0  0
 12 14  1  0  0  0  0
 12 32  1  0  0  0  0
 13 33  1  0  0  0  0
 13 34  1  0  0  0  0
 14 35  1  0  0  0  0
 14 36  1  0  0  0  0
 15 16  1  0  0  0  0
 15 38  1  0  0  0  0
 15 39  1  0  0  0  0
 16 18  2  0  0  0  0
 16 19  1  0  0  0  0
 18 21  1  0  0  0  0
 18 42  1  0  0  0  0
 19 22  2  0  0  0  0
 19 43  1  0  0  0  0
 20 21  2  0  0  0  0
 20 22  1  0  0  0  0
 21 44  1  0  0  0  0
 22 45  1  0  0  0  0
 23 25  2  0  0  0  0
 23 26  1  0  0  0  0
 24 47  1  0  0  0  0
 24 48  1  0  0  0  0
 24 49  1  0  0  0  0
 25 27  1  0  0  0  0
 25 50  1  0  0  0  0
 26 28  2  0  0  0  0
 26 51  1  0  0  0  0
 27 29  2  0  0  0  0
 27 52  1  0  0  0  0
 28 29  1  0  0  0  0
 28 53  1  0  0  0  0
 29 54  1  0  0  0  0
M  END
> <PUBCHEM_COMPOUND_CID>
75536776

> <PUBCHEM_CONFORMER_RMSD>
1.2

> <PUBCHEM_CONFORMER_DIVERSEORDER>
2
42
102
1
72
45
100
68
87
63
17
93
5
106
80
43
58
57
56
51
98
92
73
52
95
10
62
65
55
18
14
28
37
38
36
60
6
3
88
83
77
90
64
19
31
69
107
76
103
12
9
34
59
74
61
99
53
41
82
89
66
50
13
32
104
81
33
86
20
7
35
70
40
105
4
101
30
44
24
85
21
47
48
16
94
23
25
97
22
78
71
26
49
11
75
15
84
29
96
54
79
8
91
27
67
46
39

> <PUBCHEM_MMFF94_PARTIAL_CHARGES>
42
1 1.2
10 0.27
11 0.28
12 0.28
13 0.28
14 0.3
15 0.41
16 -0.14
17 0.69
18 -0.15
19 -0.15
2 -0.56
20 -0.01
21 -0.15
22 -0.15
23 0.12
24 0.11
25 -0.15
26 -0.15
27 -0.15
28 -0.15
29 -0.15
3 -0.68
37 0.36
4 -0.57
40 0.4
41 0.37
42 0.15
43 0.15
44 0.15
45 0.15
46 0.37
5 -0.65
50 0.15
51 0.15
52 0.15
53 0.15
54 0.15
6 -0.65
7 -0.9
8 -0.73
9 -0.55

> <PUBCHEM_EFFECTIVE_ROTOR_COUNT>
10

> <PUBCHEM_PHARMACOPHORE_FEATURES>
13
1 2 acceptor
1 3 acceptor
1 3 donor
1 4 acceptor
1 5 acceptor
1 6 acceptor
1 7 cation
1 7 donor
1 8 donor
1 9 donor
5 2 10 11 12 13 rings
6 16 18 19 20 21 22 rings
6 23 25 26 27 28 29 rings

> <PUBCHEM_HEAVY_ATOM_COUNT>
29

> <PUBCHEM_ATOM_DEF_STEREO_COUNT>
3

> <PUBCHEM_ATOM_UDEF_STEREO_COUNT>
0

> <PUBCHEM_BOND_DEF_STEREO_COUNT>
0

> <PUBCHEM_BOND_UDEF_STEREO_COUNT>
0

> <PUBCHEM_ISOTOPIC_ATOM_COUNT>
0

> <PUBCHEM_COMPONENT_COUNT>
1

> <PUBCHEM_CACTVS_TAUTO_COUNT>
3

> <PUBCHEM_CONFORMER_ID>
0480998800000002

> <PUBCHEM_MMFF94_ENERGY>
62.7692

> <PUBCHEM_FEATURE_SELFOVERLAP>
66.045

> <PUBCHEM_SHAPE_FINGERPRINT>
10064457 181 17835516021440056992
104564 63 18336555940765175210
10670039 82 18336274448877854902
1100329 8 18337390423163002321
11513181 2 18198073477702430638
11578080 2 17986371336301301562
11646440 116 18336830899939121971
12422481 6 18123500218577000577
12553582 1 18266759036917552356
12788726 201 18337967752302680612
14394314 77 18411707599437632745
14464042 87 18408041801362064615
14955137 171 18339082691833201123
15351339 4 18261947548649684185
16752209 62 18409176488993469622
20775438 99 17476612744380850727
3014063 31 18409167744171061949
3052486 1 18335698278672016584
338550 245 18189063014251198221
345986 75 18188473723020484930
463206 1 18192992840528452983
469060 322 16950844683084565030
513532 50 18057328494871120526
6004065 56 18052805138135946383
6287921 2 17044296368328260057
6438718 38 18341335474756014566
653340 110 18341327790927997768
7164475 11 18411139091611335498

> <PUBCHEM_SHAPE_MULTIPOLES>
556.37
10.23
5.39
1.42
1.63
7.19
0.14
-7.97
1.16
3.22
-1.15
-0.48
-0.3
-1.38

> <PUBCHEM_SHAPE_SELFOVERLAP>
1162.197

> <PUBCHEM_SHAPE_VOLUME>
316.1

> <PUBCHEM_COORDINATE_TYPE>
2
5
10

$$$$
