11882566
  -OEChem-12032416153D

 70 71  0     1  0  0  0  0  0999 V2000
   -0.4548    2.6793   -2.2254 O   0  0  0  0  0  0  0  0  0  0  0  0
    2.6667    3.6219    0.9170 O   0  0  0  0  0  0  0  0  0  0  0  0
    0.1593    4.8708    1.4276 O   0  0  0  0  0  0  0  0  0  0  0  0
   -2.6952    1.4863   -2.2941 O   0  0  0  0  0  0  0  0  0  0  0  0
    3.3351    0.1058   -1.7397 O   0  0  0  0  0  0  0  0  0  0  0  0
   -4.7844    2.1498    1.0306 O   0  0  0  0  0  0  0  0  0  0  0  0
    0.0875   -4.8789    0.1488 O   0  0  0  0  0  0  0  0  0  0  0  0
    2.5010    0.7784    0.3167 N   0  0  0  0  0  0  0  0  0  0  0  0
   -2.6249    0.8426   -0.0582 N   0  0  0  0  0  0  0  0  0  0  0  0
    4.3163   -2.1647   -0.5597 N   0  0  0  0  0  0  0  0  0  0  0  0
   -6.1404    0.9475   -0.3809 N   0  0  0  0  0  0  0  0  0  0  0  0
   -0.8162    2.1262   -0.9653 C   0  0  1  0  0  0  0  0  0  0  0  0
    1.5766    1.7707   -0.1868 C   0  0  1  0  0  0  0  0  0  0  0  0
    0.2313    1.1099   -0.5063 C   0  0  0  0  0  0  0  0  0  0  0  0
    1.4230    2.9231    0.8147 C   0  0  2  0  0  0  0  0  0  0  0  0
   -0.9738    3.2566    0.0496 C   0  0  0  0  0  0  0  0  0  0  0  0
    0.3605    3.9317    0.3710 C   0  0  1  0  0  0  0  0  0  0  0  0
   -2.1373    1.4542   -1.2003 C   0  0  0  0  0  0  0  0  0  0  0  0
    3.3123    0.0205   -0.5128 C   0  0  0  0  0  0  0  0  0  0  0  0
    4.1874   -0.9613    0.2654 C   0  0  2  0  0  0  0  0  0  0  0  0
   -3.8901    0.1458   -0.0131 C   0  0  1  0  0  0  0  0  0  0  0  0
    5.5740   -0.3829    0.6343 C   0  0  0  0  0  0  0  0  0  0  0  0
   -3.9024   -0.9653    1.0428 C   0  0  0  0  0  0  0  0  0  0  0  0
    5.5133    0.8497    1.5434 C   0  0  0  0  0  0  0  0  0  0  0  0
    6.4085   -0.0662   -0.6107 C   0  0  0  0  0  0  0  0  0  0  0  0
   -4.9613    1.1817    0.2949 C   0  0  0  0  0  0  0  0  0  0  0  0
   -2.8389   -2.0093    0.8043 C   0  0  0  0  0  0  0  0  0  0  0  0
    3.1293   -2.9958   -0.4428 C   0  0  0  0  0  0  0  0  0  0  0  0
   -3.1209   -3.1261    0.0175 C   0  0  0  0  0  0  0  0  0  0  0  0
   -1.5734   -1.8569    1.3709 C   0  0  0  0  0  0  0  0  0  0  0  0
   -2.1375   -4.0905   -0.2026 C   0  0  0  0  0  0  0  0  0  0  0  0
   -0.5900   -2.8214    1.1508 C   0  0  0  0  0  0  0  0  0  0  0  0
   -0.8721   -3.9381    0.3641 C   0  0  0  0  0  0  0  0  0  0  0  0
   -0.2685   -5.9949   -0.6658 C   0  0  0  0  0  0  0  0  0  0  0  0
    2.0050    2.1661   -1.1174 H   0  0  0  0  0  0  0  0  0  0  0  0
   -0.1006    0.5641    0.3839 H   0  0  0  0  0  0  0  0  0  0  0  0
    0.3805    0.3538   -1.2892 H   0  0  0  0  0  0  0  0  0  0  0  0
    1.1915    2.5450    1.8179 H   0  0  0  0  0  0  0  0  0  0  0  0
   -1.6697    4.0189   -0.3267 H   0  0  0  0  0  0  0  0  0  0  0  0
   -1.4167    2.9070    0.9907 H   0  0  0  0  0  0  0  0  0  0  0  0
    0.7188    4.5005   -0.4957 H   0  0  0  0  0  0  0  0  0  0  0  0
    2.5070    0.5985    1.3164 H   0  0  0  0  0  0  0  0  0  0  0  0
   -1.0833    3.3893   -2.4416 H   0  0  0  0  0  0  0  0  0  0  0  0
    2.9036    3.9475    0.0319 H   0  0  0  0  0  0  0  0  0  0  0  0
   -0.5077    5.5113    1.1269 H   0  0  0  0  0  0  0  0  0  0  0  0
   -2.1312    0.9505    0.8215 H   0  0  0  0  0  0  0  0  0  0  0  0
    3.6912   -1.2183    1.2116 H   0  0  0  0  0  0  0  0  0  0  0  0
   -4.0725   -0.2811   -1.0075 H   0  0  0  0  0  0  0  0  0  0  0  0
    6.1138   -1.1584    1.1960 H   0  0  0  0  0  0  0  0  0  0  0  0
   -3.7676   -0.5385    2.0464 H   0  0  0  0  0  0  0  0  0  0  0  0
   -4.8887   -1.4475    1.0680 H   0  0  0  0  0  0  0  0  0  0  0  0
    5.1190   -2.7095   -0.2444 H   0  0  0  0  0  0  0  0  0  0  0  0
    5.0868    1.7144    1.0254 H   0  0  0  0  0  0  0  0  0  0  0  0
    4.9074    0.6466    2.4324 H   0  0  0  0  0  0  0  0  0  0  0  0
    6.5175    1.1283    1.8809 H   0  0  0  0  0  0  0  0  0  0  0  0
    5.9523    0.7245   -1.2150 H   0  0  0  0  0  0  0  0  0  0  0  0
    7.4064    0.2812   -0.3196 H   0  0  0  0  0  0  0  0  0  0  0  0
    6.5506   -0.9458   -1.2459 H   0  0  0  0  0  0  0  0  0  0  0  0
    2.2285   -2.4779   -0.7876 H   0  0  0  0  0  0  0  0  0  0  0  0
    3.2481   -3.8844   -1.0711 H   0  0  0  0  0  0  0  0  0  0  0  0
    2.9732   -3.3387    0.5856 H   0  0  0  0  0  0  0  0  0  0  0  0
   -6.2714    0.1456   -0.9892 H   0  0  0  0  0  0  0  0  0  0  0  0
   -6.9326    1.5729   -0.2769 H   0  0  0  0  0  0  0  0  0  0  0  0
   -4.1030   -3.2533   -0.4304 H   0  0  0  0  0  0  0  0  0  0  0  0
   -1.3415   -0.9970    1.9934 H   0  0  0  0  0  0  0  0  0  0  0  0
   -2.4238   -4.9322   -0.8239 H   0  0  0  0  0  0  0  0  0  0  0  0
    0.3937   -2.6971    1.5955 H   0  0  0  0  0  0  0  0  0  0  0  0
    0.6129   -6.6413   -0.7310 H   0  0  0  0  0  0  0  0  0  0  0  0
   -0.5137   -5.6853   -1.6874 H   0  0  0  0  0  0  0  0  0  0  0  0
   -1.0673   -6.5886   -0.2085 H   0  0  0  0  0  0  0  0  0  0  0  0
  1 12  1  0  0  0  0
  1 43  1  0  0  0  0
  2 15  1  0  0  0  0
  2 44  1  0  0  0  0
  3 17  1  0  0  0  0
  3 45  1  0  0  0  0
  4 18  2  0  0  0  0
  5 19  2  0  0  0  0
  6 26  2  0  0  0  0
  7 33  1  0  0  0  0
  7 34  1  0  0  0  0
  8 13  1  0  0  0  0
  8 19  1  0  0  0  0
  8 42  1  0  0  0  0
  9 18  1  0  0  0  0
  9 21  1  0  0  0  0
  9 46  1  0  0  0  0
 10 20  1  0  0  0  0
 10 28  1  0  0  0  0
 10 52  1  0  0  0  0
 11 26  1  0  0  0  0
 11 62  1  0  0  0  0
 11 63  1  0  0  0  0
 12 14  1  0  0  0  0
 12 16  1  0  0  0  0
 12 18  1  0  0  0  0
 13 14  1  0  0  0  0
 13 15  1  0  0  0  0
 13 35  1  0  0  0  0
 14 36  1  0  0  0  0
 14 37  1  0  0  0  0
 15 17  1  0  0  0  0
 15 38  1  0  0  0  0
 16 17  1  0  0  0  0
 16 39  1  0  0  0  0
 16 40  1  0  0  0  0
 17 41  1  0  0  0  0
 19 20  1  0  0  0  0
 20 22  1  0  0  0  0
 20 47  1  0  0  0  0
 21 23  1  0  0  0  0
 21 26  1  0  0  0  0
 21 48  1  0  0  0  0
 22 24  1  0  0  0  0
 22 25  1  0  0  0  0
 22 49  1  0  0  0  0
 23 27  1  0  0  0  0
 23 50  1  0  0  0  0
 23 51  1  0  0  0  0
 24 53  1  0  0  0  0
 24 54  1  0  0  0  0
 24 55  1  0  0  0  0
 25 56  1  0  0  0  0
 25 57  1  0  0  0  0
 25 58  1  0  0  0  0
 27 29  2  0  0  0  0
 27 30  1  0  0  0  0
 28 59  1  0  0  0  0
 28 60  1  0  0  0  0
 28 61  1  0  0  0  0
 29 31  1  0  0  0  0
 29 64  1  0  0  0  0
 30 32  2  0  0  0  0
 30 65  1  0  0  0  0
 31 33  2  0  0  0  0
 31 66  1  0  0  0  0
 32 33  1  0  0  0  0
 32 67  1  0  0  0  0
 34 68  1  0  0  0  0
 34 69  1  0  0  0  0
 34 70  1  0  0  0  0
M  END
> <PUBCHEM_COMPOUND_CID>
11882566

> <PUBCHEM_CONFORMER_RMSD>
1.2

> <PUBCHEM_CONFORMER_DIVERSEORDER>
1
26
15
76
75
22
81
73
55
41
69
63
9
65
38
31
49
50
56
29
57
46
19
66
54
48
27
79
42
58
74
37
51
72
10
52
14
71
12
61
8
44
30
24
36
68
39
43
16
82
59
35
47
18
4
11
20
34
64
53
7
25
62
77
40
28
21
45
32
80
2
67
33
13
17
6
5
78
60
23
70
3

> <PUBCHEM_MMFF94_PARTIAL_CHARGES>
41
1 -0.68
10 -0.9
11 -0.8
12 0.34
13 0.3
15 0.28
17 0.28
18 0.57
19 0.57
2 -0.68
20 0.33
21 0.36
23 0.14
26 0.57
27 -0.14
28 0.27
29 -0.15
3 -0.68
30 -0.15
31 -0.15
32 -0.15
33 0.08
34 0.28
4 -0.57
42 0.37
43 0.4
44 0.4
45 0.4
46 0.37
5 -0.57
52 0.36
6 -0.57
62 0.37
63 0.37
64 0.15
65 0.15
66 0.15
67 0.15
7 -0.36
8 -0.73
9 -0.73

> <PUBCHEM_EFFECTIVE_ROTOR_COUNT>
13.2

> <PUBCHEM_PHARMACOPHORE_FEATURES>
18
1 1 acceptor
1 1 donor
1 10 cation
1 10 donor
1 11 donor
1 2 acceptor
1 2 donor
1 3 acceptor
1 3 donor
1 4 acceptor
1 5 acceptor
1 6 acceptor
1 7 acceptor
1 8 donor
1 9 donor
3 22 24 25 hydrophobe
6 12 13 14 15 16 17 rings
6 27 29 30 31 32 33 rings

> <PUBCHEM_HEAVY_ATOM_COUNT>
34

> <PUBCHEM_ATOM_DEF_STEREO_COUNT>
6

> <PUBCHEM_ATOM_UDEF_STEREO_COUNT>
0

> <PUBCHEM_BOND_DEF_STEREO_COUNT>
0

> <PUBCHEM_BOND_UDEF_STEREO_COUNT>
0

> <PUBCHEM_ISOTOPIC_ATOM_COUNT>
0

> <PUBCHEM_COMPONENT_COUNT>
1

> <PUBCHEM_CACTVS_TAUTO_COUNT>
8

> <PUBCHEM_CONFORMER_ID>
00B5504600000001

> <PUBCHEM_MMFF94_ENERGY>
85.2052

> <PUBCHEM_FEATURE_SELFOVERLAP>
91.379

> <PUBCHEM_SHAPE_FINGERPRINT>
10290309 65 18191583056331562870
10439779 11 18339631365215143082
10864689 126 18339359652703610456
10940486 97 18189060961056579109
11014199 57 17761495090266662690
11513181 2 17691974073932409582
12633257 1 18341065106453805811
12677640 9 18342182185436741531
12717326 68 17188389003810387482
12788726 201 18335424513509632400
13402501 40 18408608032623248154
14251757 5 18334869341779264110
15320467 1 18195248815092742954
19319366 153 17531239526763240178
19611394 137 18341320181469672752
19930381 70 18049444734470466843
20600515 1 18337406966981388277
20764821 26 18336830797050148598
21133410 171 17046218804697434062
23559900 14 18340764965481369665
3027735 51 18050572833141829513
3298306 158 18116988889168698975
3383291 50 18411701023905785155
3882209 13 17405959217679482518
463206 1 18408886234993154410
5265222 85 18187097147495188940
6004065 56 18342166783251533549
6371380 46 18410568462425726737

> <PUBCHEM_SHAPE_MULTIPOLES>
638.69
10.91
7.36
1.41
7.64
5.83
0.36
-0.24
-1.18
-2.54
-0.32
0.05
-0.73
1.33

> <PUBCHEM_SHAPE_SELFOVERLAP>
1314.951

> <PUBCHEM_SHAPE_VOLUME>
364.4

> <PUBCHEM_COORDINATE_TYPE>
2
5
10

$$$$
