7134341
  -OEChem-12032416353D

 64 65  0     1  0  0  0  0  0999 V2000
    3.6228   -3.3554   -0.6394 S   0  0  0  0  0  0  0  0  0  0  0  0
    1.9175    0.9142    2.1383 O   0  0  0  0  0  0  0  0  0  0  0  0
    3.2325   -2.8893    2.6357 O   0  0  0  0  0  0  0  0  0  0  0  0
   -3.1740    0.9325    0.3011 O   0  0  0  0  0  0  0  0  0  0  0  0
    3.5009    2.9784   -0.8625 O   0  0  0  0  0  0  0  0  0  0  0  0
    5.2980   -0.9665   -3.1969 O   0  0  0  0  0  0  0  0  0  0  0  0
    3.1458   -1.6752   -3.0198 O   0  0  0  0  0  0  0  0  0  0  0  0
    1.6378   -1.6012    1.5317 N   0  0  0  0  0  0  0  0  0  0  0  0
   -2.4901   -1.2682    0.5594 N   0  0  0  0  0  0  0  0  0  0  0  0
    1.2473    1.7017    0.0527 N   0  0  0  0  0  0  0  0  0  0  0  0
    3.2956    4.4979    0.8473 N   0  0  0  0  0  0  0  0  0  0  0  0
   -4.8940   -2.0707   -0.3608 N   0  0  0  0  0  0  0  0  0  0  0  0
   -6.8837   -0.2542   -1.1405 N   0  0  0  0  0  0  0  0  0  0  0  0
   -1.1794   -0.9768    1.0881 C   0  0  2  0  0  0  0  0  0  0  0  0
    1.2797   -0.6597    0.4583 C   0  0  1  0  0  0  0  0  0  0  0  0
   -0.1560   -0.8343   -0.0420 C   0  0  0  0  0  0  0  0  0  0  0  0
   -0.7399   -2.0639    2.0663 C   0  0  0  0  0  0  0  0  0  0  0  0
    0.6544   -1.7763    2.6072 C   0  0  0  0  0  0  0  0  0  0  0  0
    1.5282    0.7218    0.9894 C   0  0  0  0  0  0  0  0  0  0  0  0
    2.8922   -2.2084    1.6645 C   0  0  0  0  0  0  0  0  0  0  0  0
    1.3824    3.1150    0.3223 C   0  0  2  0  0  0  0  0  0  0  0  0
    0.4332    3.9636   -0.5329 C   0  0  0  0  0  0  0  0  0  0  0  0
   -1.0622    3.6212   -0.3730 C   0  0  0  0  0  0  0  0  0  0  0  0
    3.8665   -2.0109    0.5297 C   0  0  0  0  0  0  0  0  0  0  0  0
   -3.3890   -0.2729    0.2057 C   0  0  0  0  0  0  0  0  0  0  0  0
    2.8299    3.4881    0.0319 C   0  0  0  0  0  0  0  0  0  0  0  0
   -1.5515    3.8042    1.0642 C   0  0  0  0  0  0  0  0  0  0  0  0
   -1.8954    4.4936   -1.3161 C   0  0  0  0  0  0  0  0  0  0  0  0
   -4.7072   -0.7373   -0.2982 C   0  0  0  0  0  0  0  0  0  0  0  0
    4.8742   -2.8928   -1.8625 C   0  0  0  0  0  0  0  0  0  0  0  0
   -5.6845    0.1549   -0.6812 C   0  0  0  0  0  0  0  0  0  0  0  0
   -6.0934   -2.4798   -0.8199 C   0  0  0  0  0  0  0  0  0  0  0  0
    4.3318   -1.8055   -2.7449 C   0  0  0  0  0  0  0  0  0  0  0  0
   -7.0705   -1.5876   -1.2030 C   0  0  0  0  0  0  0  0  0  0  0  0
   -1.2393   -0.0227    1.6277 H   0  0  0  0  0  0  0  0  0  0  0  0
    1.9249   -0.7911   -0.4117 H   0  0  0  0  0  0  0  0  0  0  0  0
   -0.1882   -1.7525   -0.6468 H   0  0  0  0  0  0  0  0  0  0  0  0
   -0.4639   -0.0323   -0.7220 H   0  0  0  0  0  0  0  0  0  0  0  0
   -1.4514   -2.1361    2.8976 H   0  0  0  0  0  0  0  0  0  0  0  0
   -0.7424   -3.0406    1.5644 H   0  0  0  0  0  0  0  0  0  0  0  0
    0.9567   -2.5976    3.2657 H   0  0  0  0  0  0  0  0  0  0  0  0
    0.6442   -0.8712    3.2231 H   0  0  0  0  0  0  0  0  0  0  0  0
   -2.7446   -2.2401    0.4059 H   0  0  0  0  0  0  0  0  0  0  0  0
    1.1882    3.2810    1.3882 H   0  0  0  0  0  0  0  0  0  0  0  0
    1.0525    1.4283   -0.9059 H   0  0  0  0  0  0  0  0  0  0  0  0
    0.7064    3.8471   -1.5910 H   0  0  0  0  0  0  0  0  0  0  0  0
    0.5920    5.0246   -0.2981 H   0  0  0  0  0  0  0  0  0  0  0  0
   -1.2221    2.5764   -0.6637 H   0  0  0  0  0  0  0  0  0  0  0  0
    4.8748   -2.0956    0.9521 H   0  0  0  0  0  0  0  0  0  0  0  0
    3.8149   -1.0213    0.0756 H   0  0  0  0  0  0  0  0  0  0  0  0
   -1.3336    4.8124    1.4322 H   0  0  0  0  0  0  0  0  0  0  0  0
   -1.0793    3.0840    1.7393 H   0  0  0  0  0  0  0  0  0  0  0  0
   -2.6336    3.6482    1.1309 H   0  0  0  0  0  0  0  0  0  0  0  0
   -1.5834    4.3503   -2.3561 H   0  0  0  0  0  0  0  0  0  0  0  0
   -2.9573    4.2342   -1.2490 H   0  0  0  0  0  0  0  0  0  0  0  0
   -1.7897    5.5563   -1.0729 H   0  0  0  0  0  0  0  0  0  0  0  0
    4.2416    4.8514    0.7494 H   0  0  0  0  0  0  0  0  0  0  0  0
    2.7225    4.9258    1.5675 H   0  0  0  0  0  0  0  0  0  0  0  0
    5.7858   -2.5638   -1.3556 H   0  0  0  0  0  0  0  0  0  0  0  0
    5.1106   -3.7574   -2.4891 H   0  0  0  0  0  0  0  0  0  0  0  0
   -5.5512    1.2294   -0.6383 H   0  0  0  0  0  0  0  0  0  0  0  0
   -6.2442   -3.5510   -0.8704 H   0  0  0  0  0  0  0  0  0  0  0  0
   -8.0339   -1.9172   -1.5719 H   0  0  0  0  0  0  0  0  0  0  0  0
    4.9296   -0.2568   -3.7652 H   0  0  0  0  0  0  0  0  0  0  0  0
  1 24  1  0  0  0  0
  1 30  1  0  0  0  0
  2 19  2  0  0  0  0
  3 20  2  0  0  0  0
  4 25  2  0  0  0  0
  5 26  2  0  0  0  0
  6 33  1  0  0  0  0
  6 64  1  0  0  0  0
  7 33  2  0  0  0  0
  8 15  1  0  0  0  0
  8 18  1  0  0  0  0
  8 20  1  0  0  0  0
  9 14  1  0  0  0  0
  9 25  1  0  0  0  0
  9 43  1  0  0  0  0
 10 19  1  0  0  0  0
 10 21  1  0  0  0  0
 10 45  1  0  0  0  0
 11 26  1  0  0  0  0
 11 57  1  0  0  0  0
 11 58  1  0  0  0  0
 12 29  2  0  0  0  0
 12 32  1  0  0  0  0
 13 31  2  0  0  0  0
 13 34  1  0  0  0  0
 14 16  1  0  0  0  0
 14 17  1  0  0  0  0
 14 35  1  0  0  0  0
 15 16  1  0  0  0  0
 15 19  1  0  0  0  0
 15 36  1  0  0  0  0
 16 37  1  0  0  0  0
 16 38  1  0  0  0  0
 17 18  1  0  0  0  0
 17 39  1  0  0  0  0
 17 40  1  0  0  0  0
 18 41  1  0  0  0  0
 18 42  1  0  0  0  0
 20 24  1  0  0  0  0
 21 22  1  0  0  0  0
 21 26  1  0  0  0  0
 21 44  1  0  0  0  0
 22 23  1  0  0  0  0
 22 46  1  0  0  0  0
 22 47  1  0  0  0  0
 23 27  1  0  0  0  0
 23 28  1  0  0  0  0
 23 48  1  0  0  0  0
 24 49  1  0  0  0  0
 24 50  1  0  0  0  0
 25 29  1  0  0  0  0
 27 51  1  0  0  0  0
 27 52  1  0  0  0  0
 27 53  1  0  0  0  0
 28 54  1  0  0  0  0
 28 55  1  0  0  0  0
 28 56  1  0  0  0  0
 29 31  1  0  0  0  0
 30 33  1  0  0  0  0
 30 59  1  0  0  0  0
 30 60  1  0  0  0  0
 31 61  1  0  0  0  0
 32 34  2  0  0  0  0
 32 62  1  0  0  0  0
 34 63  1  0  0  0  0
M  END
> <PUBCHEM_COMPOUND_CID>
7134341

> <PUBCHEM_CONFORMER_RMSD>
1.2

> <PUBCHEM_CONFORMER_DIVERSEORDER>
1
12
31
37
11
19
32
21
39
6
33
16
20
7
25
27
14
35
40
26
15
28
30
17
41
34
29
10
8
22
5
3
9
38
36
13
23
24
2
18
4

> <PUBCHEM_MMFF94_PARTIAL_CHARGES>
36
1 -0.46
10 -0.73
11 -0.8
12 -0.62
13 -0.62
14 0.3
15 0.36
18 0.3
19 0.57
2 -0.57
20 0.57
21 0.36
24 0.29
25 0.54
26 0.57
29 0.4
3 -0.57
30 0.29
31 0.16
32 0.16
33 0.66
34 0.16
4 -0.57
43 0.37
45 0.37
5 -0.57
57 0.37
58 0.37
6 -0.65
61 0.15
62 0.15
63 0.15
64 0.5
7 -0.57
8 -0.66
9 -0.73

> <PUBCHEM_EFFECTIVE_ROTOR_COUNT>
15.2

> <PUBCHEM_PHARMACOPHORE_FEATURES>
15
1 10 donor
1 11 donor
1 12 acceptor
1 13 acceptor
1 2 acceptor
1 3 acceptor
1 4 acceptor
1 5 acceptor
1 6 acceptor
1 7 acceptor
1 9 donor
3 23 27 28 hydrophobe
3 6 7 33 anion
6 12 13 29 31 32 34 rings
6 8 14 15 16 17 18 rings

> <PUBCHEM_HEAVY_ATOM_COUNT>
34

> <PUBCHEM_ATOM_DEF_STEREO_COUNT>
3

> <PUBCHEM_ATOM_UDEF_STEREO_COUNT>
0

> <PUBCHEM_BOND_DEF_STEREO_COUNT>
0

> <PUBCHEM_BOND_UDEF_STEREO_COUNT>
0

> <PUBCHEM_ISOTOPIC_ATOM_COUNT>
0

> <PUBCHEM_COMPONENT_COUNT>
1

> <PUBCHEM_CACTVS_TAUTO_COUNT>
8

> <PUBCHEM_CONFORMER_ID>
006CDC8500000001

> <PUBCHEM_MMFF94_ENERGY>
74.7838

> <PUBCHEM_FEATURE_SELFOVERLAP>
76.189

> <PUBCHEM_SHAPE_FINGERPRINT>
10721379 63 18409729594982289858
11513181 2 18270111443997557463
12147406 95 18341322349341330933
12788726 201 17973741177154800042
15160629 131 18201446921399745191
15775530 1 17607544705880970755
15815584 197 18116437144684505738
16989378 47 18059868271788705903
17909252 39 18273498974724515696
18681886 176 18264746875358763851
20587220 46 17343211133366092423
23559900 14 18201715172267752547
4066623 53 18335137583360453853
5081480 168 18266766682038473891
513532 50 18340203110875795356
6700243 42 17914344476242514278
70251023 43 18411417276716879547

> <PUBCHEM_SHAPE_MULTIPOLES>
638.45
12.89
6.34
2.53
20.12
9.09
0.68
-12.36
9.51
-3.75
0.43
-4.08
-2.18
0.72

> <PUBCHEM_SHAPE_SELFOVERLAP>
1295.449

> <PUBCHEM_SHAPE_VOLUME>
371.3

> <PUBCHEM_COORDINATE_TYPE>
2
5
10

$$$$
