38031193
  -OEChem-12032416143D

 67 69  0     1  0  0  0  0  0999 V2000
   -6.5616    2.4469    1.1825 O   0  0  0  0  0  0  0  0  0  0  0  0
    3.1215    0.6630    0.8018 O   0  0  0  0  0  0  0  0  0  0  0  0
   -3.0606    0.8114   -0.5493 N   0  0  0  0  0  0  0  0  0  0  0  0
    4.0524   -1.2994    0.2661 N   0  0  0  0  0  0  0  0  0  0  0  0
    4.8245   -0.2951   -0.2874 N   0  0  0  0  0  0  0  0  0  0  0  0
   -0.8788   -1.0943   -0.9940 C   0  0  1  0  0  0  0  0  0  0  0  0
   -2.0255   -1.3514    0.0112 C   0  0  2  0  0  0  0  0  0  0  0  0
    0.4233   -0.7627   -0.2515 C   0  0  0  0  0  0  0  0  0  0  0  0
    0.8529   -1.8575    0.7486 C   0  0  2  0  0  0  0  0  0  0  0  0
   -0.6886   -2.2858   -1.9425 C   0  0  0  0  0  0  0  0  0  0  0  0
   -2.6114   -0.0417    0.5486 C   0  0  0  0  0  0  0  0  0  0  0  0
   -1.5968   -2.2149    1.1702 C   0  0  0  0  0  0  0  0  0  0  0  0
   -0.3179   -2.4628    1.5082 C   0  0  0  0  0  0  0  0  0  0  0  0
    1.9298   -1.2790    1.6749 C   0  0  0  0  0  0  0  0  0  0  0  0
   -4.3680    0.3969   -1.0758 C   0  0  0  0  0  0  0  0  0  0  0  0
   -3.0582    2.2345   -0.1837 C   0  0  0  0  0  0  0  0  0  0  0  0
   -1.8023   -2.3195   -2.9844 C   0  0  0  0  0  0  0  0  0  0  0  0
    0.6790   -2.2177   -2.6144 C   0  0  0  0  0  0  0  0  0  0  0  0
   -5.5452    0.7359   -0.1597 C   0  0  0  0  0  0  0  0  0  0  0  0
   -4.1905    2.6372    0.7626 C   0  0  0  0  0  0  0  0  0  0  0  0
   -5.5500    2.2161    0.2101 C   0  0  0  0  0  0  0  0  0  0  0  0
   -0.0012   -3.4106    2.6323 C   0  0  0  0  0  0  0  0  0  0  0  0
    3.0704   -0.6941    0.8923 C   0  0  0  0  0  0  0  0  0  0  0  0
    4.2438    0.8325    0.0504 C   0  0  0  0  0  0  0  0  0  0  0  0
    4.6317    2.2141   -0.2602 C   0  0  0  0  0  0  0  0  0  0  0  0
    5.9393    2.2782   -1.1246 C   0  0  0  0  0  0  0  0  0  0  0  0
    4.9065    3.0544    1.0357 C   0  0  0  0  0  0  0  0  0  0  0  0
    3.5815    3.0654   -1.0680 C   0  0  0  0  0  0  0  0  0  0  0  0
   -1.1053   -0.2239   -1.6226 H   0  0  0  0  0  0  0  0  0  0  0  0
   -2.8278   -1.9070   -0.4840 H   0  0  0  0  0  0  0  0  0  0  0  0
    0.2531    0.1706    0.3048 H   0  0  0  0  0  0  0  0  0  0  0  0
    1.2275   -0.5054   -0.9478 H   0  0  0  0  0  0  0  0  0  0  0  0
    1.3087   -2.6840    0.1885 H   0  0  0  0  0  0  0  0  0  0  0  0
   -0.7296   -3.2308   -1.3867 H   0  0  0  0  0  0  0  0  0  0  0  0
   -1.8303    0.4730    1.1243 H   0  0  0  0  0  0  0  0  0  0  0  0
   -3.4112   -0.2425    1.2719 H   0  0  0  0  0  0  0  0  0  0  0  0
   -2.3993   -2.6726    1.7449 H   0  0  0  0  0  0  0  0  0  0  0  0
    2.3445   -2.0599    2.3232 H   0  0  0  0  0  0  0  0  0  0  0  0
    1.5037   -0.5121    2.3342 H   0  0  0  0  0  0  0  0  0  0  0  0
   -4.3866   -0.6712   -1.3158 H   0  0  0  0  0  0  0  0  0  0  0  0
   -4.5184    0.9032   -2.0387 H   0  0  0  0  0  0  0  0  0  0  0  0
   -3.1459    2.8228   -1.1067 H   0  0  0  0  0  0  0  0  0  0  0  0
   -2.0909    2.5205    0.2474 H   0  0  0  0  0  0  0  0  0  0  0  0
   -1.8272   -1.3955   -3.5726 H   0  0  0  0  0  0  0  0  0  0  0  0
   -2.7889   -2.4614   -2.5361 H   0  0  0  0  0  0  0  0  0  0  0  0
   -1.6493   -3.1500   -3.6828 H   0  0  0  0  0  0  0  0  0  0  0  0
    0.8475   -1.2468   -3.0939 H   0  0  0  0  0  0  0  0  0  0  0  0
    0.7415   -2.9737   -3.4068 H   0  0  0  0  0  0  0  0  0  0  0  0
    1.5121   -2.4350   -1.9428 H   0  0  0  0  0  0  0  0  0  0  0  0
   -6.4881    0.4846   -0.6612 H   0  0  0  0  0  0  0  0  0  0  0  0
   -5.5296    0.1197    0.7475 H   0  0  0  0  0  0  0  0  0  0  0  0
   -4.0365    2.1920    1.7540 H   0  0  0  0  0  0  0  0  0  0  0  0
   -4.1769    3.7223    0.9216 H   0  0  0  0  0  0  0  0  0  0  0  0
   -5.7935    2.8133   -0.6768 H   0  0  0  0  0  0  0  0  0  0  0  0
    0.7048   -4.1768    2.2957 H   0  0  0  0  0  0  0  0  0  0  0  0
   -0.8938   -3.9292    2.9987 H   0  0  0  0  0  0  0  0  0  0  0  0
    0.4369   -2.8742    3.4795 H   0  0  0  0  0  0  0  0  0  0  0  0
   -6.5407    3.3927    1.4079 H   0  0  0  0  0  0  0  0  0  0  0  0
    6.2369    3.3122   -1.3318 H   0  0  0  0  0  0  0  0  0  0  0  0
    6.7715    1.7877   -0.6060 H   0  0  0  0  0  0  0  0  0  0  0  0
    5.7976    1.7664   -2.0836 H   0  0  0  0  0  0  0  0  0  0  0  0
    5.2407    4.0700    0.7960 H   0  0  0  0  0  0  0  0  0  0  0  0
    4.0036    3.1306    1.6527 H   0  0  0  0  0  0  0  0  0  0  0  0
    5.6833    2.5780    1.6451 H   0  0  0  0  0  0  0  0  0  0  0  0
    3.9444    4.0793   -1.2693 H   0  0  0  0  0  0  0  0  0  0  0  0
    3.3570    2.5829   -2.0262 H   0  0  0  0  0  0  0  0  0  0  0  0
    2.6397    3.1422   -0.5126 H   0  0  0  0  0  0  0  0  0  0  0  0
  1 21  1  0  0  0  0
  1 58  1  0  0  0  0
  2 23  1  0  0  0  0
  2 24  1  0  0  0  0
  3 11  1  0  0  0  0
  3 15  1  0  0  0  0
  3 16  1  0  0  0  0
  4  5  1  0  0  0  0
  4 23  2  0  0  0  0
  5 24  2  0  0  0  0
  6  7  1  0  0  0  0
  6  8  1  0  0  0  0
  6 10  1  0  0  0  0
  6 29  1  0  0  0  0
  7 11  1  0  0  0  0
  7 12  1  0  0  0  0
  7 30  1  0  0  0  0
  8  9  1  0  0  0  0
  8 31  1  0  0  0  0
  8 32  1  0  0  0  0
  9 13  1  0  0  0  0
  9 14  1  0  0  0  0
  9 33  1  0  0  0  0
 10 17  1  0  0  0  0
 10 18  1  0  0  0  0
 10 34  1  0  0  0  0
 11 35  1  0  0  0  0
 11 36  1  0  0  0  0
 12 13  2  0  0  0  0
 12 37  1  0  0  0  0
 13 22  1  0  0  0  0
 14 23  1  0  0  0  0
 14 38  1  0  0  0  0
 14 39  1  0  0  0  0
 15 19  1  0  0  0  0
 15 40  1  0  0  0  0
 15 41  1  0  0  0  0
 16 20  1  0  0  0  0
 16 42  1  0  0  0  0
 16 43  1  0  0  0  0
 17 44  1  0  0  0  0
 17 45  1  0  0  0  0
 17 46  1  0  0  0  0
 18 47  1  0  0  0  0
 18 48  1  0  0  0  0
 18 49  1  0  0  0  0
 19 21  1  0  0  0  0
 19 50  1  0  0  0  0
 19 51  1  0  0  0  0
 20 21  1  0  0  0  0
 20 52  1  0  0  0  0
 20 53  1  0  0  0  0
 21 54  1  0  0  0  0
 22 55  1  0  0  0  0
 22 56  1  0  0  0  0
 22 57  1  0  0  0  0
 24 25  1  0  0  0  0
 25 26  1  0  0  0  0
 25 27  1  0  0  0  0
 25 28  1  0  0  0  0
 26 59  1  0  0  0  0
 26 60  1  0  0  0  0
 26 61  1  0  0  0  0
 27 62  1  0  0  0  0
 27 63  1  0  0  0  0
 27 64  1  0  0  0  0
 28 65  1  0  0  0  0
 28 66  1  0  0  0  0
 28 67  1  0  0  0  0
M  END
> <PUBCHEM_COMPOUND_CID>
38031193

> <PUBCHEM_CONFORMER_RMSD>
1

> <PUBCHEM_CONFORMER_DIVERSEORDER>
7
166
161
52
173
23
69
153
19
164
131
10
87
107
97
96
176
80
51
165
118
68
158
157
104
75
17
25
94
98
129
86
168
11
66
38
167
63
81
115
53
132
13
99
45
27
33
70
54
144
159
102
44
77
126
110
137
140
18
89
34
148
134
108
163
85
32
136
112
6
50
78
59
120
40
82
39
101
142
21
3
72
100
128
145
105
12
175
65
74
133
155
95
91
114
8
93
127
149
111
103
5
160
41
124
26
46
73
125
2
156
61
121
62
135
172
58
47
147
14
29
79
141
117
49
88
162
139
151
122
30
55
37
60
67
170
92
83
22
42
109
130
169
84
174
48
56
36
1
119
138
64
15
4
31
150
146
20
171
76
106
152
35
57
116
28
24
154
16
71
43
90
143
113
123
9

> <PUBCHEM_MMFF94_PARTIAL_CHARGES>
20
1 -0.68
11 0.27
12 -0.29
13 -0.28
14 0.18
15 0.27
16 0.27
2 -0.28
21 0.28
22 0.14
23 0.3
24 0.3
25 0.18
3 -0.81
37 0.15
4 -0.34
5 -0.34
58 0.4
7 0.14
9 0.14

> <PUBCHEM_EFFECTIVE_ROTOR_COUNT>
8

> <PUBCHEM_PHARMACOPHORE_FEATURES>
8
1 1 acceptor
1 1 donor
1 3 cation
3 10 17 18 hydrophobe
4 25 26 27 28 hydrophobe
5 2 4 5 23 24 rings
6 3 15 16 19 20 21 rings
6 6 7 8 9 12 13 rings

> <PUBCHEM_HEAVY_ATOM_COUNT>
28

> <PUBCHEM_ATOM_DEF_STEREO_COUNT>
3

> <PUBCHEM_ATOM_UDEF_STEREO_COUNT>
0

> <PUBCHEM_BOND_DEF_STEREO_COUNT>
0

> <PUBCHEM_BOND_UDEF_STEREO_COUNT>
0

> <PUBCHEM_ISOTOPIC_ATOM_COUNT>
0

> <PUBCHEM_COMPONENT_COUNT>
1

> <PUBCHEM_CACTVS_TAUTO_COUNT>
1

> <PUBCHEM_CONFORMER_ID>
02444F5900000007

> <PUBCHEM_MMFF94_ENERGY>
53.4334

> <PUBCHEM_FEATURE_SELFOVERLAP>
40.596

> <PUBCHEM_SHAPE_FINGERPRINT>
10165383 225 17386297484969768506
11115154 58 17616238622370503359
12173636 292 18189614020143311906
12390115 104 18115035198307505978
12633257 1 17750216111236319626
12788726 201 18051956306390702711
12895836 83 17989199390906256401
12895837 130 18126563664173287332
14251764 75 18335709363698479032
14341114 328 18337666404970870019
14468879 13 18271815665187428190
1454969 45 18131061659368626679
14747281 78 18195834910909298334
14840074 17 18409445873912224733
14848178 5 8934997066566484465
14849402 71 18115869586163110602
15142526 21 18259702302586691323
15163728 17 17988652865282087727
15968369 153 17765713915959764185
17980427 26 18261380110076467982
19319366 153 18335690616255065267
19438510 23 18410851105543365048
21315764 21 17846509084628685830
21458453 9 16588891073217718593
21716022 299 15265101956871231335
21756936 100 18263641926148558578
21864079 5 18262229023626394730
22907989 373 17416674937496153767
23227448 37 18261110837027089226
23559900 14 16768719254273718767
23845131 108 17821446846507578123
27425 322 18410010992866139927
2838139 119 18342734104875201957
312425 83 17988085620815233276
3388396 114 16829519442080722932
3472631 163 18338233761455267871
38570 142 18335710433703764436
44802255 64 17702113667353616500
469060 322 14996836748863689835
474 4 18261669286055147275
5104073 3 17676480692355685986
56616090 13 18411134749140884714
57527585 21 17760087711155746726
633830 44 18335129891374875126
7288768 16 17822288041400217906

> <PUBCHEM_SHAPE_MULTIPOLES>
549.55
12.84
4.37
2.2
0.34
0.84
-0.96
17.21
0.55
-0.02
0.76
-0.34
-2.47
-1.84

> <PUBCHEM_SHAPE_SELFOVERLAP>
1125.87

> <PUBCHEM_SHAPE_VOLUME>
319.1

> <PUBCHEM_COORDINATE_TYPE>
2
5
10

$$$$
