7674792
  -OEChem-12032416113D

 62 67  0     1  0  0  0  0  0999 V2000
    2.1461    3.7824   -2.4280 O   0  0  0  0  0  0  0  0  0  0  0  0
    3.9030    0.3445    0.8479 O   0  0  0  0  0  0  0  0  0  0  0  0
    0.5533   -2.9947   -0.8474 O   0  0  0  0  0  0  0  0  0  0  0  0
    0.9142    2.9959   -0.5976 N   0  0  0  0  0  0  0  0  0  0  0  0
    1.8500    1.0235    1.6621 N   0  0  0  0  0  0  0  0  0  0  0  0
    2.0443   -0.9822    0.4390 N   0  0  0  0  0  0  0  0  0  0  0  0
    1.6346    3.4891    1.8150 C   0  0  2  0  0  0  0  0  0  0  0  0
   -0.3613    2.1134    1.3812 C   0  0  2  0  0  0  0  0  0  0  0  0
    0.1522    3.3452    2.1289 C   0  0  0  0  0  0  0  0  0  0  0  0
    1.7823    3.7550    0.3152 C   0  0  0  0  0  0  0  0  0  0  0  0
    2.4139    2.2360    2.2564 C   0  0  0  0  0  0  0  0  0  0  0  0
    0.4028    0.8688    1.8780 C   0  0  0  0  0  0  0  0  0  0  0  0
   -0.1986    2.2654   -0.1330 C   0  0  0  0  0  0  0  0  0  0  0  0
   -1.0585    1.7030   -1.0217 C   0  0  0  0  0  0  0  0  0  0  0  0
    1.1992    3.1445   -1.9667 C   0  0  0  0  0  0  0  0  0  0  0  0
    2.6958    0.1263    0.9776 C   0  0  0  0  0  0  0  0  0  0  0  0
   -0.7930    1.8308   -2.4418 C   0  0  0  0  0  0  0  0  0  0  0  0
    0.2668    2.4888   -2.9115 C   0  0  0  0  0  0  0  0  0  0  0  0
   -2.2504    0.9465   -0.5799 C   0  0  0  0  0  0  0  0  0  0  0  0
   -2.1525   -0.4212   -0.3415 C   0  0  0  0  0  0  0  0  0  0  0  0
   -3.4592    1.6072   -0.4054 C   0  0  0  0  0  0  0  0  0  0  0  0
   -3.2752   -1.1530    0.0786 C   0  0  0  0  0  0  0  0  0  0  0  0
    2.6085   -2.2465    0.1392 C   0  0  0  0  0  0  0  0  0  0  0  0
   -4.5848    0.8962    0.0118 C   0  0  0  0  0  0  0  0  0  0  0  0
   -4.5095   -0.4844    0.2581 C   0  0  0  0  0  0  0  0  0  0  0  0
   -3.1996   -2.5335    0.3252 C   0  0  0  0  0  0  0  0  0  0  0  0
    1.8508   -3.2257   -0.4986 C   0  0  0  0  0  0  0  0  0  0  0  0
    3.9327   -2.4998    0.4893 C   0  0  0  0  0  0  0  0  0  0  0  0
   -5.6322   -1.2162    0.6782 C   0  0  0  0  0  0  0  0  0  0  0  0
   -4.3252   -3.2448    0.7420 C   0  0  0  0  0  0  0  0  0  0  0  0
   -5.5391   -2.5874    0.9180 C   0  0  0  0  0  0  0  0  0  0  0  0
    2.4205   -4.4656   -0.7880 C   0  0  0  0  0  0  0  0  0  0  0  0
    4.5023   -3.7398    0.1999 C   0  0  0  0  0  0  0  0  0  0  0  0
    3.7463   -4.7227   -0.4386 C   0  0  0  0  0  0  0  0  0  0  0  0
    0.3193   -2.4451   -2.1419 C   0  0  0  0  0  0  0  0  0  0  0  0
    2.0460    4.3458    2.3627 H   0  0  0  0  0  0  0  0  0  0  0  0
   -1.4171    1.9992    1.6506 H   0  0  0  0  0  0  0  0  0  0  0  0
   -0.3995    4.2432    1.8234 H   0  0  0  0  0  0  0  0  0  0  0  0
    0.0010    3.2281    3.2090 H   0  0  0  0  0  0  0  0  0  0  0  0
    1.5541    4.8129    0.1245 H   0  0  0  0  0  0  0  0  0  0  0  0
    2.8257    3.6138    0.0053 H   0  0  0  0  0  0  0  0  0  0  0  0
    3.4736    2.3442    2.0042 H   0  0  0  0  0  0  0  0  0  0  0  0
    2.3523    2.1193    3.3453 H   0  0  0  0  0  0  0  0  0  0  0  0
    0.2615    0.7596    2.9614 H   0  0  0  0  0  0  0  0  0  0  0  0
    0.0035   -0.0430    1.4397 H   0  0  0  0  0  0  0  0  0  0  0  0
   -1.4802    1.3587   -3.1378 H   0  0  0  0  0  0  0  0  0  0  0  0
    0.4605    2.5740   -3.9741 H   0  0  0  0  0  0  0  0  0  0  0  0
    1.0660   -0.8930    0.1909 H   0  0  0  0  0  0  0  0  0  0  0  0
   -1.1997   -0.9236   -0.4692 H   0  0  0  0  0  0  0  0  0  0  0  0
   -3.5459    2.6755   -0.5881 H   0  0  0  0  0  0  0  0  0  0  0  0
   -5.5232    1.4308    0.1435 H   0  0  0  0  0  0  0  0  0  0  0  0
   -2.2613   -3.0683    0.1949 H   0  0  0  0  0  0  0  0  0  0  0  0
    4.5606   -1.7948    1.0194 H   0  0  0  0  0  0  0  0  0  0  0  0
   -6.5912   -0.7230    0.8224 H   0  0  0  0  0  0  0  0  0  0  0  0
   -4.2534   -4.3123    0.9292 H   0  0  0  0  0  0  0  0  0  0  0  0
   -6.4149   -3.1418    1.2426 H   0  0  0  0  0  0  0  0  0  0  0  0
    1.8373   -5.2367   -1.2841 H   0  0  0  0  0  0  0  0  0  0  0  0
    5.5319   -3.9441    0.4793 H   0  0  0  0  0  0  0  0  0  0  0  0
    4.1891   -5.6889   -0.6619 H   0  0  0  0  0  0  0  0  0  0  0  0
    0.6682   -1.4090   -2.1876 H   0  0  0  0  0  0  0  0  0  0  0  0
   -0.7560   -2.4661   -2.3378 H   0  0  0  0  0  0  0  0  0  0  0  0
    0.8196   -3.0400   -2.9133 H   0  0  0  0  0  0  0  0  0  0  0  0
  1 15  2  0  0  0  0
  2 16  2  0  0  0  0
  3 27  1  0  0  0  0
  3 35  1  0  0  0  0
  4 10  1  0  0  0  0
  4 13  1  0  0  0  0
  4 15  1  0  0  0  0
  5 11  1  0  0  0  0
  5 12  1  0  0  0  0
  5 16  1  0  0  0  0
  6 16  1  0  0  0  0
  6 23  1  0  0  0  0
  6 48  1  0  0  0  0
  7  9  1  0  0  0  0
  7 10  1  0  0  0  0
  7 11  1  0  0  0  0
  7 36  1  0  0  0  0
  8  9  1  0  0  0  0
  8 12  1  0  0  0  0
  8 13  1  0  0  0  0
  8 37  1  0  0  0  0
  9 38  1  0  0  0  0
  9 39  1  0  0  0  0
 10 40  1  0  0  0  0
 10 41  1  0  0  0  0
 11 42  1  0  0  0  0
 11 43  1  0  0  0  0
 12 44  1  0  0  0  0
 12 45  1  0  0  0  0
 13 14  2  0  0  0  0
 14 17  1  0  0  0  0
 14 19  1  0  0  0  0
 15 18  1  0  0  0  0
 17 18  2  0  0  0  0
 17 46  1  0  0  0  0
 18 47  1  0  0  0  0
 19 20  2  0  0  0  0
 19 21  1  0  0  0  0
 20 22  1  0  0  0  0
 20 49  1  0  0  0  0
 21 24  2  0  0  0  0
 21 50  1  0  0  0  0
 22 25  1  0  0  0  0
 22 26  2  0  0  0  0
 23 27  1  0  0  0  0
 23 28  2  0  0  0  0
 24 25  1  0  0  0  0
 24 51  1  0  0  0  0
 25 29  2  0  0  0  0
 26 30  1  0  0  0  0
 26 52  1  0  0  0  0
 27 32  2  0  0  0  0
 28 33  1  0  0  0  0
 28 53  1  0  0  0  0
 29 31  1  0  0  0  0
 29 54  1  0  0  0  0
 30 31  2  0  0  0  0
 30 55  1  0  0  0  0
 31 56  1  0  0  0  0
 32 34  1  0  0  0  0
 32 57  1  0  0  0  0
 33 34  2  0  0  0  0
 33 58  1  0  0  0  0
 34 59  1  0  0  0  0
 35 60  1  0  0  0  0
 35 61  1  0  0  0  0
 35 62  1  0  0  0  0
M  END
> <PUBCHEM_COMPOUND_CID>
7674792

> <PUBCHEM_CONFORMER_RMSD>
0.8

> <PUBCHEM_CONFORMER_DIVERSEORDER>
5
48
26
7
53
44
3
36
43
15
32
9
40
54
42
24
25
22
38
33
13
20
35
45
1
50
46
11
34
21
16
29
30
14
23
12
49
6
39
41
10
4
31
37
52
17
51
47
8
28
18
27
2
19

> <PUBCHEM_MMFF94_PARTIAL_CHARGES>
45
1 -0.57
10 0.3
11 0.3
12 0.3
13 -0.03
14 -0.03
15 0.62
16 0.69
17 -0.15
18 -0.14
19 0.03
2 -0.57
20 -0.15
21 -0.15
23 0.12
24 -0.15
26 -0.15
27 0.08
28 -0.15
29 -0.15
3 -0.36
30 -0.15
31 -0.15
32 -0.15
33 -0.15
34 -0.15
35 0.28
4 -0.47
46 0.15
47 0.15
48 0.37
49 0.15
5 -0.66
50 0.15
51 0.15
52 0.15
53 0.15
54 0.15
55 0.15
56 0.15
57 0.15
58 0.15
59 0.15
6 -0.55
8 0.14

> <PUBCHEM_EFFECTIVE_ROTOR_COUNT>
6

> <PUBCHEM_PHARMACOPHORE_FEATURES>
10
1 1 acceptor
1 2 acceptor
1 3 acceptor
1 6 donor
6 19 20 21 22 24 25 rings
6 22 25 26 29 30 31 rings
6 23 27 28 32 33 34 rings
6 4 13 14 15 17 18 rings
6 4 7 8 9 10 13 rings
6 5 7 8 9 11 12 rings

> <PUBCHEM_HEAVY_ATOM_COUNT>
35

> <PUBCHEM_ATOM_DEF_STEREO_COUNT>
2

> <PUBCHEM_ATOM_UDEF_STEREO_COUNT>
0

> <PUBCHEM_BOND_DEF_STEREO_COUNT>
0

> <PUBCHEM_BOND_UDEF_STEREO_COUNT>
0

> <PUBCHEM_ISOTOPIC_ATOM_COUNT>
0

> <PUBCHEM_COMPONENT_COUNT>
1

> <PUBCHEM_CACTVS_TAUTO_COUNT>
2

> <PUBCHEM_CONFORMER_ID>
00751BA800000005

> <PUBCHEM_MMFF94_ENERGY>
122.761

> <PUBCHEM_FEATURE_SELFOVERLAP>
52.368

> <PUBCHEM_SHAPE_FINGERPRINT>
10064457 181 17621588849475159888
11093857 51 18044663245968802326
11513181 2 17410496902436060742
11578080 2 13266838731483267668
12156800 1 14928475850589107822
12422481 6 17903324303283688160
13383661 66 17763789663690901790
13402501 40 18125714583102850783
13583140 156 17914319424320865817
14363568 33 18343016714182377346
14863182 85 17975695309558977649
150020 26 18341324569839312059
15297060 5 17691423213726494321
17974551 9 17630877210532676073
18681886 176 17321835604724219853
19311894 1 16826996560810651706
19315092 285 17630882906070974347
1979834 28 18048598411328191027
20600515 1 18051708646091570159
20775530 9 18337667503770951730
22956985 138 18335423533909857727
23559900 14 18335419084892645799
35225 105 16839378693978865101
469060 322 17324390422732084769
5265222 85 17833840743534666684
56638632 33 18337114475508274403
57527358 35 13771871639544550653
581034 39 17691676110286346200
6287921 2 18263922314292925475
7288768 16 16544116404149510694

> <PUBCHEM_SHAPE_MULTIPOLES>
687.73
8.81
7.04
2.25
8.16
2.16
-0.93
11.6
2.6
-6.23
-0.8
-0.91
-2.74
1.8

> <PUBCHEM_SHAPE_SELFOVERLAP>
1531.676

> <PUBCHEM_SHAPE_VOLUME>
359.9

> <PUBCHEM_COORDINATE_TYPE>
2
5
10

$$$$
