11879606
  -OEChem-12032416373D

 64 69  0     1  0  0  0  0  0999 V2000
   -2.1961   -3.4607    0.2190 O   0  0  0  0  0  0  0  0  0  0  0  0
   -1.7592   -1.0980   -1.8104 O   0  0  0  0  0  0  0  0  0  0  0  0
    2.7351   -1.5680   -0.2913 O   0  0  0  0  0  0  0  0  0  0  0  0
   -6.4828   -1.2339   -1.2246 O   0  0  0  0  0  0  0  0  0  0  0  0
    7.1906    4.3694   -0.2331 O   0  0  0  0  0  0  0  0  0  0  0  0
    0.6591   -1.9518    0.7900 N   0  0  0  0  0  0  0  0  0  0  0  0
   -4.4327   -0.6236   -0.3286 N   0  0  0  0  0  0  0  0  0  0  0  0
    0.1850   -1.9513    2.0393 N   0  0  0  0  0  0  0  0  0  0  0  0
    2.3579   -1.4525    2.0288 N   0  0  0  0  0  0  0  0  0  0  0  0
    1.2314   -1.6449    2.7963 N   0  0  0  0  0  0  0  0  0  0  0  0
    6.2325    1.7289   -0.3235 N   0  0  0  0  0  0  0  0  0  0  0  0
   -1.4015   -1.3094   -0.4324 C   0  0  1  0  0  0  0  0  0  0  0  0
   -2.5437   -2.0671    0.2159 C   0  0  1  0  0  0  0  0  0  0  0  0
   -0.2159   -2.2518   -0.3464 C   0  0  2  0  0  0  0  0  0  0  0  0
   -3.7217   -1.8229   -0.7003 C   0  0  2  0  0  0  0  0  0  0  0  0
   -0.8733   -3.6270   -0.3096 C   0  0  0  0  0  0  0  0  0  0  0  0
   -3.0528   -1.6683   -2.0534 C   0  0  0  0  0  0  0  0  0  0  0  0
    1.9782   -1.6488    0.7871 C   0  0  0  0  0  0  0  0  0  0  0  0
   -5.7736   -0.4285   -0.6273 C   0  0  0  0  0  0  0  0  0  0  0  0
   -6.3526    0.8710   -0.1994 C   0  0  0  0  0  0  0  0  0  0  0  0
    4.0853   -1.2508   -0.2351 C   0  0  0  0  0  0  0  0  0  0  0  0
   -7.4265    1.3842   -0.8969 C   0  0  0  0  0  0  0  0  0  0  0  0
   -5.7989    1.5225    0.8832 C   0  0  0  0  0  0  0  0  0  0  0  0
    5.8236    0.3932   -0.2509 C   0  0  0  0  0  0  0  0  0  0  0  0
    4.4668    0.0750   -0.3089 C   0  0  0  0  0  0  0  0  0  0  0  0
    7.5362    2.0641   -0.9065 C   0  0  0  0  0  0  0  0  0  0  0  0
    5.7502    2.6593    0.7064 C   0  0  0  0  0  0  0  0  0  0  0  0
    5.0083   -2.2706   -0.1055 C   0  0  0  0  0  0  0  0  0  0  0  0
   -7.9709    2.6035   -0.4938 C   0  0  0  0  0  0  0  0  0  0  0  0
   -6.3434    2.7418    1.2864 C   0  0  0  0  0  0  0  0  0  0  0  0
    7.5502    3.5291   -1.3291 C   0  0  0  0  0  0  0  0  0  0  0  0
    5.8580    4.0918    0.1965 C   0  0  0  0  0  0  0  0  0  0  0  0
   -7.4294    3.2823    0.5979 C   0  0  0  0  0  0  0  0  0  0  0  0
    6.7727   -0.6205   -0.1201 C   0  0  0  0  0  0  0  0  0  0  0  0
    6.3651   -1.9524   -0.0473 C   0  0  0  0  0  0  0  0  0  0  0  0
   -8.0113    4.5865    1.0278 C   0  0  0  0  0  0  0  0  0  0  0  0
   -1.2328   -0.3233    0.0123 H   0  0  0  0  0  0  0  0  0  0  0  0
   -2.7188   -1.7716    1.2553 H   0  0  0  0  0  0  0  0  0  0  0  0
    0.4201   -2.1834   -1.2370 H   0  0  0  0  0  0  0  0  0  0  0  0
   -4.4282   -2.6599   -0.7182 H   0  0  0  0  0  0  0  0  0  0  0  0
   -0.9795   -4.0323   -1.3219 H   0  0  0  0  0  0  0  0  0  0  0  0
   -0.3301   -4.3578    0.2973 H   0  0  0  0  0  0  0  0  0  0  0  0
   -2.8950   -2.6437   -2.5268 H   0  0  0  0  0  0  0  0  0  0  0  0
   -3.6038   -1.0313   -2.7519 H   0  0  0  0  0  0  0  0  0  0  0  0
   -3.8816    0.1324    0.0641 H   0  0  0  0  0  0  0  0  0  0  0  0
   -7.8563    0.8710   -1.7520 H   0  0  0  0  0  0  0  0  0  0  0  0
   -4.9769    1.1198    1.4658 H   0  0  0  0  0  0  0  0  0  0  0  0
    3.7149    0.8510   -0.4241 H   0  0  0  0  0  0  0  0  0  0  0  0
    8.3201    1.8971   -0.1574 H   0  0  0  0  0  0  0  0  0  0  0  0
    7.7513    1.4441   -1.7848 H   0  0  0  0  0  0  0  0  0  0  0  0
    4.7100    2.4634    0.9885 H   0  0  0  0  0  0  0  0  0  0  0  0
    6.3699    2.5367    1.6035 H   0  0  0  0  0  0  0  0  0  0  0  0
    4.6931   -3.3081   -0.0485 H   0  0  0  0  0  0  0  0  0  0  0  0
    8.5552    3.8138   -1.6563 H   0  0  0  0  0  0  0  0  0  0  0  0
    6.8651    3.7096   -2.1664 H   0  0  0  0  0  0  0  0  0  0  0  0
    5.1621    4.2750   -0.6311 H   0  0  0  0  0  0  0  0  0  0  0  0
    5.6108    4.7935    0.9994 H   0  0  0  0  0  0  0  0  0  0  0  0
   -8.8151    3.0160   -1.0401 H   0  0  0  0  0  0  0  0  0  0  0  0
   -5.9166    3.2588    2.1418 H   0  0  0  0  0  0  0  0  0  0  0  0
    7.8363   -0.4083   -0.0576 H   0  0  0  0  0  0  0  0  0  0  0  0
    7.1036   -2.7419    0.0577 H   0  0  0  0  0  0  0  0  0  0  0  0
   -7.8922    4.7364    2.1062 H   0  0  0  0  0  0  0  0  0  0  0  0
   -9.0851    4.6290    0.8155 H   0  0  0  0  0  0  0  0  0  0  0  0
   -7.5169    5.4097    0.5026 H   0  0  0  0  0  0  0  0  0  0  0  0
  1 13  1  0  0  0  0
  1 16  1  0  0  0  0
  2 12  1  0  0  0  0
  2 17  1  0  0  0  0
  3 18  1  0  0  0  0
  3 21  1  0  0  0  0
  4 19  2  0  0  0  0
  5 31  1  0  0  0  0
  5 32  1  0  0  0  0
  6  8  1  0  0  0  0
  6 14  1  0  0  0  0
  6 18  1  0  0  0  0
  7 15  1  0  0  0  0
  7 19  1  0  0  0  0
  7 45  1  0  0  0  0
  8 10  2  0  0  0  0
  9 10  1  0  0  0  0
  9 18  2  0  0  0  0
 11 24  1  0  0  0  0
 11 26  1  0  0  0  0
 11 27  1  0  0  0  0
 12 13  1  0  0  0  0
 12 14  1  0  0  0  0
 12 37  1  0  0  0  0
 13 15  1  0  0  0  0
 13 38  1  0  0  0  0
 14 16  1  0  0  0  0
 14 39  1  0  0  0  0
 15 17  1  0  0  0  0
 15 40  1  0  0  0  0
 16 41  1  0  0  0  0
 16 42  1  0  0  0  0
 17 43  1  0  0  0  0
 17 44  1  0  0  0  0
 19 20  1  0  0  0  0
 20 22  2  0  0  0  0
 20 23  1  0  0  0  0
 21 25  1  0  0  0  0
 21 28  2  0  0  0  0
 22 29  1  0  0  0  0
 22 46  1  0  0  0  0
 23 30  2  0  0  0  0
 23 47  1  0  0  0  0
 24 25  2  0  0  0  0
 24 34  1  0  0  0  0
 25 48  1  0  0  0  0
 26 31  1  0  0  0  0
 26 49  1  0  0  0  0
 26 50  1  0  0  0  0
 27 32  1  0  0  0  0
 27 51  1  0  0  0  0
 27 52  1  0  0  0  0
 28 35  1  0  0  0  0
 28 53  1  0  0  0  0
 29 33  2  0  0  0  0
 29 58  1  0  0  0  0
 30 33  1  0  0  0  0
 30 59  1  0  0  0  0
 31 54  1  0  0  0  0
 31 55  1  0  0  0  0
 32 56  1  0  0  0  0
 32 57  1  0  0  0  0
 33 36  1  0  0  0  0
 34 35  2  0  0  0  0
 34 60  1  0  0  0  0
 35 61  1  0  0  0  0
 36 62  1  0  0  0  0
 36 63  1  0  0  0  0
 36 64  1  0  0  0  0
M  END
> <PUBCHEM_COMPOUND_CID>
11879606

> <PUBCHEM_CONFORMER_RMSD>
1

> <PUBCHEM_CONFORMER_DIVERSEORDER>
1
159
145
56
21
71
181
70
3
233
218
220
73
84
110
98
27
213
82
177
99
31
72
47
137
34
158
24
49
79
204
128
61
100
129
134
135
143
63
155
112
147
39
229
109
188
77
78
225
29
123
105
17
154
9
133
197
165
205
183
196
68
122
93
85
232
141
45
130
40
120
195
167
33
111
221
172
75
201
12
94
148
142
166
153
132
228
186
160
46
150
83
125
224
91
231
11
106
226
64
138
227
104
193
139
217
80
42
51
182
202
15
163
127
140
152
43
96
157
207
222
124
19
87
210
176
54
95
189
60
30
131
28
4
8
114
117
89
115
170
69
209
22
126
32
92
191
38
156
206
67
208
184
178
101
14
190
164
215
118
179
203
5
18
146
230
121
50
174
149
86
219
187
223
200
113
55
194
26
136
102
214
13
58
180
90
107
97
199
10
62
108
161
173
119
211
185
103
171
35
20
144
169
23
52
198
151
216
25
7
36
88
212
41
44
59
53
175
76
57
192
65
74
81
66
168
116
162
16
6
37
2
48

> <PUBCHEM_MMFF94_PARTIAL_CHARGES>
44
1 -0.56
11 -0.84
12 0.28
13 0.28
14 0.26
15 0.3
16 0.28
17 0.28
18 0.25
19 0.54
2 -0.56
20 0.09
21 0.08
22 -0.15
23 -0.15
24 0.1
25 -0.15
26 0.37
27 0.37
28 -0.15
29 -0.15
3 -0.15
30 -0.15
31 0.28
32 0.28
33 -0.14
34 -0.15
35 -0.15
36 0.14
4 -0.57
45 0.37
46 0.15
47 0.15
48 0.15
5 -0.56
53 0.15
58 0.15
59 0.15
6 0.31
60 0.15
61 0.15
7 -0.73
8 -0.42
9 -0.34

> <PUBCHEM_EFFECTIVE_ROTOR_COUNT>
9.4

> <PUBCHEM_PHARMACOPHORE_FEATURES>
13
1 1 acceptor
1 11 cation
1 2 acceptor
1 4 acceptor
1 5 acceptor
1 7 donor
3 6 9 18 cation
5 1 12 13 14 16 rings
5 2 12 13 15 17 rings
5 6 8 9 10 18 rings
6 20 22 23 29 30 33 rings
6 21 24 25 28 34 35 rings
6 5 11 26 27 31 32 rings

> <PUBCHEM_HEAVY_ATOM_COUNT>
36

> <PUBCHEM_ATOM_DEF_STEREO_COUNT>
4

> <PUBCHEM_ATOM_UDEF_STEREO_COUNT>
0

> <PUBCHEM_BOND_DEF_STEREO_COUNT>
0

> <PUBCHEM_BOND_UDEF_STEREO_COUNT>
0

> <PUBCHEM_ISOTOPIC_ATOM_COUNT>
0

> <PUBCHEM_COMPONENT_COUNT>
1

> <PUBCHEM_CACTVS_TAUTO_COUNT>
2

> <PUBCHEM_CONFORMER_ID>
00B544B600000001

> <PUBCHEM_MMFF94_ENERGY>
110.4213

> <PUBCHEM_FEATURE_SELFOVERLAP>
66.667

> <PUBCHEM_SHAPE_FINGERPRINT>
10209105 3 10844526075770963604
10280341 67 18199736081339425392
10816530 90 18412254039378038800
11408170 253 18131074771240189153
11476731 99 18057596767045784264
12013929 29 18341614789259070116
12539765 74 18202006486555713951
12717326 69 11242245225749451336
13782708 43 10303552601764969518
13944108 23 18127691530478189507
14394314 77 18408888438623185637
14415361 349 11095879428394136272
14664723 55 18201162036340684369
14904525 67 18410571799077011905
14930077 153 18344147007940893009
15064981 113 16845580789836706093
15064981 194 18117012154896076902
15276724 80 18335697196161144300
15347591 1 18337673113647684370
15950262 2 18412547634361957910
16067689 134 18411145735499351708
16067689 391 11167641219523959277
16994733 274 18409444816969785960
17899979 129 18408887348170379918
19438510 23 18187082883797964058
20691028 202 18411415141848945220
21033648 29 17313666066242337474
21298829 104 18335986453861389628
21424621 283 18335139816806776634
3711267 37 18341900666477077929
3918712 181 18197213655852599025
4366758 26 18270125587410447777
44555599 121 18342740702314071480
5223283 242 18124035633780553758
5718773 13 9511465519519260558
5911458 16 18411702046002226869
6036956 94 18127416653600836001
6201320 82 18043828683096693012
6289498 60 18040987432400077101
6328613 192 18413106160831191409
6673363 416 18126565863306774031
6695519 79 16950274084243100899
6698420 124 18186523206958132770
9689198 14 18334582313193665923
9980921 221 16916795050525617497

> <PUBCHEM_SHAPE_MULTIPOLES>
681.63
28.17
5.83
1.52
8.77
5.77
-0.53
38.48
4
-1.39
-0.46
0.52
-0.48
-4.14

> <PUBCHEM_SHAPE_SELFOVERLAP>
1489.953

> <PUBCHEM_SHAPE_VOLUME>
369.3

> <PUBCHEM_COORDINATE_TYPE>
2
5
10

$$$$
