7142728
  -OEChem-12032416113D

 55 59  0     1  0  0  0  0  0999 V2000
   -2.4268   -1.7944    1.6688 O   0  0  0  0  0  0  0  0  0  0  0  0
    2.8358   -0.9151    2.1286 O   0  0  0  0  0  0  0  0  0  0  0  0
    3.2579    1.2450    0.8852 O   0  0  0  0  0  0  0  0  0  0  0  0
   -3.0632    1.9096   -1.3942 O   0  0  0  0  0  0  0  0  0  0  0  0
   -5.6565    1.3363    0.8787 O   0  0  0  0  0  0  0  0  0  0  0  0
    2.3771   -2.2186    0.2606 N   0  0  0  0  0  0  0  0  0  0  0  0
   -0.8078   -2.4638    0.1224 N   0  0  0  0  0  0  0  0  0  0  0  0
   -3.5020    0.0717   -0.0377 N   0  0  0  0  0  0  0  0  0  0  0  0
    0.9600   -4.2389    0.6485 C   0  0  1  0  0  0  0  0  0  0  0  0
    0.9468   -3.1441   -1.5532 C   0  0  2  0  0  0  0  0  0  0  0  0
    0.9422   -4.5010   -0.8525 C   0  0  0  0  0  0  0  0  0  0  0  0
    2.2184   -3.4462    1.0426 C   0  0  0  0  0  0  0  0  0  0  0  0
   -0.3288   -3.5062    1.0397 C   0  0  0  0  0  0  0  0  0  0  0  0
    2.2370   -2.3813   -1.1942 C   0  0  0  0  0  0  0  0  0  0  0  0
   -0.2648   -2.3208   -1.1584 C   0  0  0  0  0  0  0  0  0  0  0  0
   -0.7951   -1.4392   -2.0227 C   0  0  0  0  0  0  0  0  0  0  0  0
   -1.9039   -1.6920    0.5581 C   0  0  0  0  0  0  0  0  0  0  0  0
    2.7234   -1.0310    0.9055 C   0  0  0  0  0  0  0  0  0  0  0  0
   -2.4496   -0.7040   -0.4259 C   0  0  0  0  0  0  0  0  0  0  0  0
   -1.9086   -0.6151   -1.6456 C   0  0  0  0  0  0  0  0  0  0  0  0
    2.9619    0.1704    0.0264 C   0  0  0  0  0  0  0  0  0  0  0  0
   -3.7472    1.3392   -0.5480 C   0  0  0  0  0  0  0  0  0  0  0  0
    4.0516    2.2536    0.3859 C   0  0  0  0  0  0  0  0  0  0  0  0
   -4.9562    2.0234   -0.0200 C   0  0  0  0  0  0  0  0  0  0  0  0
    4.0161    2.5404   -0.9705 C   0  0  0  0  0  0  0  0  0  0  0  0
    4.8726    2.9643    1.2485 C   0  0  0  0  0  0  0  0  0  0  0  0
   -5.4460    3.2294   -0.3141 C   0  0  0  0  0  0  0  0  0  0  0  0
    4.8208    3.5615   -1.4761 C   0  0  0  0  0  0  0  0  0  0  0  0
    5.6771    3.9854    0.7428 C   0  0  0  0  0  0  0  0  0  0  0  0
   -6.6044    3.3372    0.4917 C   0  0  0  0  0  0  0  0  0  0  0  0
    5.6511    4.2841   -0.6195 C   0  0  0  0  0  0  0  0  0  0  0  0
   -6.6887    2.1603    1.1987 C   0  0  0  0  0  0  0  0  0  0  0  0
    0.9888   -5.1939    1.1878 H   0  0  0  0  0  0  0  0  0  0  0  0
    0.9383   -3.3191   -2.6369 H   0  0  0  0  0  0  0  0  0  0  0  0
    0.0547   -5.0818   -1.1333 H   0  0  0  0  0  0  0  0  0  0  0  0
    1.8188   -5.0895   -1.1494 H   0  0  0  0  0  0  0  0  0  0  0  0
    3.1124   -4.0539    0.8554 H   0  0  0  0  0  0  0  0  0  0  0  0
    2.2042   -3.2235    2.1149 H   0  0  0  0  0  0  0  0  0  0  0  0
   -1.1439   -4.2403    1.1031 H   0  0  0  0  0  0  0  0  0  0  0  0
   -0.2356   -3.0730    2.0436 H   0  0  0  0  0  0  0  0  0  0  0  0
    3.1139   -2.9471   -1.5330 H   0  0  0  0  0  0  0  0  0  0  0  0
    2.2627   -1.4214   -1.7149 H   0  0  0  0  0  0  0  0  0  0  0  0
   -0.3870   -1.3052   -3.0191 H   0  0  0  0  0  0  0  0  0  0  0  0
   -2.2822    0.0285   -2.4325 H   0  0  0  0  0  0  0  0  0  0  0  0
    2.0489    0.3976   -0.5333 H   0  0  0  0  0  0  0  0  0  0  0  0
    3.7987   -0.0707   -0.6405 H   0  0  0  0  0  0  0  0  0  0  0  0
   -4.0148   -0.2212    0.7903 H   0  0  0  0  0  0  0  0  0  0  0  0
    3.3653    2.0167   -1.6636 H   0  0  0  0  0  0  0  0  0  0  0  0
    4.8951    2.7337    2.3096 H   0  0  0  0  0  0  0  0  0  0  0  0
   -5.0571    3.9627   -1.0056 H   0  0  0  0  0  0  0  0  0  0  0  0
    4.7968    3.7982   -2.5359 H   0  0  0  0  0  0  0  0  0  0  0  0
    6.3235    4.5483    1.4098 H   0  0  0  0  0  0  0  0  0  0  0  0
   -7.2920    4.1685    0.5502 H   0  0  0  0  0  0  0  0  0  0  0  0
    6.2765    5.0801   -1.0130 H   0  0  0  0  0  0  0  0  0  0  0  0
   -7.3850    1.7752    1.9294 H   0  0  0  0  0  0  0  0  0  0  0  0
  1 17  2  0  0  0  0
  2 18  2  0  0  0  0
  3 21  1  0  0  0  0
  3 23  1  0  0  0  0
  4 22  2  0  0  0  0
  5 24  1  0  0  0  0
  5 32  1  0  0  0  0
  6 12  1  0  0  0  0
  6 14  1  0  0  0  0
  6 18  1  0  0  0  0
  7 13  1  0  0  0  0
  7 15  1  0  0  0  0
  7 17  1  0  0  0  0
  8 19  1  0  0  0  0
  8 22  1  0  0  0  0
  8 47  1  0  0  0  0
  9 11  1  0  0  0  0
  9 12  1  0  0  0  0
  9 13  1  0  0  0  0
  9 33  1  0  0  0  0
 10 11  1  0  0  0  0
 10 14  1  0  0  0  0
 10 15  1  0  0  0  0
 10 34  1  0  0  0  0
 11 35  1  0  0  0  0
 11 36  1  0  0  0  0
 12 37  1  0  0  0  0
 12 38  1  0  0  0  0
 13 39  1  0  0  0  0
 13 40  1  0  0  0  0
 14 41  1  0  0  0  0
 14 42  1  0  0  0  0
 15 16  2  0  0  0  0
 16 20  1  0  0  0  0
 16 43  1  0  0  0  0
 17 19  1  0  0  0  0
 18 21  1  0  0  0  0
 19 20  2  0  0  0  0
 20 44  1  0  0  0  0
 21 45  1  0  0  0  0
 21 46  1  0  0  0  0
 22 24  1  0  0  0  0
 23 25  2  0  0  0  0
 23 26  1  0  0  0  0
 24 27  2  0  0  0  0
 25 28  1  0  0  0  0
 25 48  1  0  0  0  0
 26 29  2  0  0  0  0
 26 49  1  0  0  0  0
 27 30  1  0  0  0  0
 27 50  1  0  0  0  0
 28 31  2  0  0  0  0
 28 51  1  0  0  0  0
 29 31  1  0  0  0  0
 29 52  1  0  0  0  0
 30 32  2  0  0  0  0
 30 53  1  0  0  0  0
 31 54  1  0  0  0  0
 32 55  1  0  0  0  0
M  END
> <PUBCHEM_COMPOUND_CID>
7142728

> <PUBCHEM_CONFORMER_RMSD>
1

> <PUBCHEM_CONFORMER_DIVERSEORDER>
1
28
26
25
35
13
39
44
27
15
11
5
48
21
6
16
37
2
8
22
38
18
40
24
9
17
7
36
12
14
47
20
31
29
30
45
34
46
43
41
42
19
33
3
4
32
23
10

> <PUBCHEM_MMFF94_PARTIAL_CHARGES>
41
1 -0.57
10 0.14
12 0.3
13 0.3
14 0.3
15 -0.03
16 -0.15
17 0.62
18 0.57
19 0.12
2 -0.57
20 -0.15
21 0.34
22 0.71
23 0.08
24 0.05
25 -0.15
26 -0.15
27 -0.15
28 -0.15
29 -0.15
3 -0.36
30 -0.15
31 -0.15
32 -0.01
4 -0.57
43 0.15
44 0.15
47 0.37
48 0.15
49 0.15
5 -0.28
50 0.15
51 0.15
52 0.15
53 0.15
54 0.15
55 0.15
6 -0.66
7 -0.47
8 -0.54

> <PUBCHEM_EFFECTIVE_ROTOR_COUNT>
8

> <PUBCHEM_PHARMACOPHORE_FEATURES>
11
1 1 acceptor
1 2 acceptor
1 3 acceptor
1 4 acceptor
1 5 acceptor
1 8 donor
5 5 24 27 30 32 rings
6 23 25 26 28 29 31 rings
6 6 9 10 11 12 14 rings
6 7 15 16 17 19 20 rings
6 7 9 10 11 13 15 rings

> <PUBCHEM_HEAVY_ATOM_COUNT>
32

> <PUBCHEM_ATOM_DEF_STEREO_COUNT>
2

> <PUBCHEM_ATOM_UDEF_STEREO_COUNT>
0

> <PUBCHEM_BOND_DEF_STEREO_COUNT>
0

> <PUBCHEM_BOND_UDEF_STEREO_COUNT>
0

> <PUBCHEM_ISOTOPIC_ATOM_COUNT>
0

> <PUBCHEM_COMPONENT_COUNT>
1

> <PUBCHEM_CACTVS_TAUTO_COUNT>
2

> <PUBCHEM_CONFORMER_ID>
006CFD4800000001

> <PUBCHEM_MMFF94_ENERGY>
87.1407

> <PUBCHEM_FEATURE_SELFOVERLAP>
57.404

> <PUBCHEM_SHAPE_FINGERPRINT>
10675989 125 18270685255475734848
10864689 126 18270966847081642232
10937287 8 18339637940561457910
11059845 2 18051380111696625312
11135609 201 18269551805131819641
11477941 20 16831775640378100004
11479125 193 18412548695694121441
11505856 67 18198333164473266975
11578080 2 18269011846855940827
11720765 8 17702959011575619588
12104220 4 18115318894368573556
12107183 9 18117254022385497560
12655387 17 14201673097538660349
12741549 16 17611191451428372070
12788726 201 17907838940660770583
13398642 44 18409166606195081013
13944108 23 18124601885994125764
14068700 686 18339652230440638211
14251764 75 18411701010430091329
14849402 71 18265051332235586370
15163728 17 18341333374295415367
151778 21 18410567362375522036
15198563 99 17553197018857130311
15439362 3 18412547626705693116
15513586 35 16521594545075125220
16120349 67 18269567190137580044
16988056 13 18052258388967691718
1768 85 18264489486563435785
19309040 13 18273495680321206533
21365058 113 17553497876978867519
21475661 188 18338796706618349731
21796203 349 17098582758522813610
3388396 114 16541008720507548420
3411729 13 18341334388503990933
4066623 53 17553777162049920926
50150288 127 16380342472350696772
5047190 36 17968946416930910636
5219985 13 18339926012328678660
53794403 172 18339364058992020037
57527585 21 18055051405984717623
57724786 102 18409721846897866492
5776283 40 18266478554832674908
6058803 2 18198879505730730159
7288768 16 18114457984794062114
9849439 229 18411416249803126372
9896288 288 18046353195462103810

> <PUBCHEM_SHAPE_MULTIPOLES>
614.26
14.14
7.49
1.67
11.34
0.74
-0.15
-29.38
2.95
-6
-0.05
-0.48
0.52
-0.97

> <PUBCHEM_SHAPE_SELFOVERLAP>
1353.393

> <PUBCHEM_SHAPE_VOLUME>
322.8

> <PUBCHEM_COORDINATE_TYPE>
2
5
10

$$$$
