25389311
  -OEChem-12032416163D

 59 62  0     1  0  0  0  0  0999 V2000
   -6.9505    2.6344   -0.6453 F   0  0  0  0  0  0  0  0  0  0  0  0
   -8.0210    0.9271    0.1712 F   0  0  0  0  0  0  0  0  0  0  0  0
   -7.3017    0.8865   -1.8803 F   0  0  0  0  0  0  0  0  0  0  0  0
   -2.0290   -2.0927    1.8509 O   0  0  0  0  0  0  0  0  0  0  0  0
    2.3396   -2.3135    0.5889 N   0  0  2  0  0  0  0  0  0  0  0  0
    4.9960    1.1524   -0.0460 N   0  0  0  0  0  0  0  0  0  0  0  0
   -0.8614   -0.3293    0.9023 N   0  0  0  0  0  0  0  0  0  0  0  0
    2.5668   -1.2761   -1.7858 C   0  0  2  0  0  0  0  0  0  0  0  0
    3.6948   -0.7756   -0.8548 C   0  0  2  0  0  0  0  0  0  0  0  0
    1.0522   -1.6895    0.1802 C   0  0  2  0  0  0  0  0  0  0  0  0
    1.2013   -0.9365   -1.1606 C   0  0  0  0  0  0  0  0  0  0  0  0
    3.4278   -1.3064    0.5718 C   0  0  0  0  0  0  0  0  0  0  0  0
    2.6764   -2.8121   -1.8357 C   0  0  0  0  0  0  0  0  0  0  0  0
    2.6702   -3.3679   -0.4006 C   0  0  0  0  0  0  0  0  0  0  0  0
    3.8587    0.7423   -0.8694 C   0  0  0  0  0  0  0  0  0  0  0  0
    0.4653   -0.7932    1.2731 C   0  0  0  0  0  0  0  0  0  0  0  0
    4.8888    2.5750    0.3068 C   0  0  0  0  0  0  0  0  0  0  0  0
    6.2607    0.8708   -0.7398 C   0  0  0  0  0  0  0  0  0  0  0  0
    6.0453    3.0085    1.2092 C   0  0  0  0  0  0  0  0  0  0  0  0
    7.4619    1.2487    0.1281 C   0  0  0  0  0  0  0  0  0  0  0  0
    7.3937    2.7077    0.5650 C   0  0  0  0  0  0  0  0  0  0  0  0
   -2.0040   -1.0330    1.2305 C   0  0  0  0  0  0  0  0  0  0  0  0
   -3.2804   -0.4396    0.7558 C   0  0  0  0  0  0  0  0  0  0  0  0
   -4.4660   -0.6895    1.4471 C   0  0  0  0  0  0  0  0  0  0  0  0
   -3.2933    0.3674   -0.3819 C   0  0  0  0  0  0  0  0  0  0  0  0
   -5.6644   -0.1328    1.0004 C   0  0  0  0  0  0  0  0  0  0  0  0
   -4.4917    0.9240   -0.8287 C   0  0  0  0  0  0  0  0  0  0  0  0
   -5.6772    0.6740   -0.1375 C   0  0  0  0  0  0  0  0  0  0  0  0
   -6.9589    1.2690   -0.6147 C   0  0  0  0  0  0  0  0  0  0  0  0
    2.6550   -0.8502   -2.7908 H   0  0  0  0  0  0  0  0  0  0  0  0
    4.6151   -1.2432   -1.2256 H   0  0  0  0  0  0  0  0  0  0  0  0
    0.3278   -2.5033    0.0284 H   0  0  0  0  0  0  0  0  0  0  0  0
    1.0998    0.1469   -1.0401 H   0  0  0  0  0  0  0  0  0  0  0  0
    0.4003   -1.2505   -1.8420 H   0  0  0  0  0  0  0  0  0  0  0  0
    4.3451   -1.7664    0.9628 H   0  0  0  0  0  0  0  0  0  0  0  0
    3.1976   -0.5012    1.2782 H   0  0  0  0  0  0  0  0  0  0  0  0
    3.5974   -3.1139   -2.3482 H   0  0  0  0  0  0  0  0  0  0  0  0
    1.8369   -3.2287   -2.4052 H   0  0  0  0  0  0  0  0  0  0  0  0
    1.9507   -4.1925   -0.3229 H   0  0  0  0  0  0  0  0  0  0  0  0
    3.6465   -3.8081   -0.1613 H   0  0  0  0  0  0  0  0  0  0  0  0
    2.9429    1.1947   -0.4698 H   0  0  0  0  0  0  0  0  0  0  0  0
    3.9588    1.1114   -1.8986 H   0  0  0  0  0  0  0  0  0  0  0  0
    1.0716    0.1027    1.4407 H   0  0  0  0  0  0  0  0  0  0  0  0
    0.3971   -1.3382    2.2216 H   0  0  0  0  0  0  0  0  0  0  0  0
    3.9532    2.7562    0.8498 H   0  0  0  0  0  0  0  0  0  0  0  0
    4.8696    3.2003   -0.5957 H   0  0  0  0  0  0  0  0  0  0  0  0
    6.3139    1.4158   -1.6917 H   0  0  0  0  0  0  0  0  0  0  0  0
    6.3644   -0.1934   -0.9710 H   0  0  0  0  0  0  0  0  0  0  0  0
    5.9756    2.4863    2.1719 H   0  0  0  0  0  0  0  0  0  0  0  0
    5.9678    4.0809    1.4209 H   0  0  0  0  0  0  0  0  0  0  0  0
    8.3902    1.0734   -0.4273 H   0  0  0  0  0  0  0  0  0  0  0  0
    7.4925    0.6025    1.0148 H   0  0  0  0  0  0  0  0  0  0  0  0
   -0.9157    0.5682    0.4331 H   0  0  0  0  0  0  0  0  0  0  0  0
    7.5362    3.3579   -0.3068 H   0  0  0  0  0  0  0  0  0  0  0  0
    8.2045    2.9284    1.2679 H   0  0  0  0  0  0  0  0  0  0  0  0
   -4.4750   -1.3119    2.3380 H   0  0  0  0  0  0  0  0  0  0  0  0
   -2.4000    0.5608   -0.9683 H   0  0  0  0  0  0  0  0  0  0  0  0
   -6.5765   -0.3390    1.5535 H   0  0  0  0  0  0  0  0  0  0  0  0
   -4.4936    1.5455   -1.7203 H   0  0  0  0  0  0  0  0  0  0  0  0
  1 29  1  0  0  0  0
  2 29  1  0  0  0  0
  3 29  1  0  0  0  0
  4 22  2  0  0  0  0
  5 10  1  0  0  0  0
  5 12  1  0  0  0  0
  5 14  1  0  0  0  0
  6 15  1  0  0  0  0
  6 17  1  0  0  0  0
  6 18  1  0  0  0  0
  7 16  1  0  0  0  0
  7 22  1  0  0  0  0
  7 53  1  0  0  0  0
  8  9  1  0  0  0  0
  8 11  1  0  0  0  0
  8 13  1  0  0  0  0
  8 30  1  0  0  0  0
  9 12  1  0  0  0  0
  9 15  1  0  0  0  0
  9 31  1  0  0  0  0
 10 11  1  0  0  0  0
 10 16  1  0  0  0  0
 10 32  1  0  0  0  0
 11 33  1  0  0  0  0
 11 34  1  0  0  0  0
 12 35  1  0  0  0  0
 12 36  1  0  0  0  0
 13 14  1  0  0  0  0
 13 37  1  0  0  0  0
 13 38  1  0  0  0  0
 14 39  1  0  0  0  0
 14 40  1  0  0  0  0
 15 41  1  0  0  0  0
 15 42  1  0  0  0  0
 16 43  1  0  0  0  0
 16 44  1  0  0  0  0
 17 19  1  0  0  0  0
 17 45  1  0  0  0  0
 17 46  1  0  0  0  0
 18 20  1  0  0  0  0
 18 47  1  0  0  0  0
 18 48  1  0  0  0  0
 19 21  1  0  0  0  0
 19 49  1  0  0  0  0
 19 50  1  0  0  0  0
 20 21  1  0  0  0  0
 20 51  1  0  0  0  0
 20 52  1  0  0  0  0
 21 54  1  0  0  0  0
 21 55  1  0  0  0  0
 22 23  1  0  0  0  0
 23 24  2  0  0  0  0
 23 25  1  0  0  0  0
 24 26  1  0  0  0  0
 24 56  1  0  0  0  0
 25 27  2  0  0  0  0
 25 57  1  0  0  0  0
 26 28  2  0  0  0  0
 26 58  1  0  0  0  0
 27 28  1  0  0  0  0
 27 59  1  0  0  0  0
 28 29  1  0  0  0  0
M  END
> <PUBCHEM_COMPOUND_CID>
25389311

> <PUBCHEM_CONFORMER_RMSD>
1

> <PUBCHEM_CONFORMER_DIVERSEORDER>
2
30
51
56
59
45
55
35
18
40
28
24
57
62
52
21
23
48
12
8
49
10
26
20
60
61
36
14
11
32
50
17
19
25
9
38
27
43
3
44
22
34
46
42
63
58
47
6
16
37
13
5
54
41
4
33
39
7
1
29
31
15
53

> <PUBCHEM_MMFF94_PARTIAL_CHARGES>
27
1 -0.34
10 0.27
12 0.27
14 0.27
15 0.27
16 0.3
17 0.27
18 0.27
2 -0.34
22 0.54
23 0.09
24 -0.15
25 -0.15
26 -0.15
27 -0.15
28 -0.14
29 1.16
3 -0.34
4 -0.57
5 -0.81
53 0.37
56 0.15
57 0.15
58 0.15
59 0.15
6 -0.81
7 -0.73

> <PUBCHEM_EFFECTIVE_ROTOR_COUNT>
9.4

> <PUBCHEM_PHARMACOPHORE_FEATURES>
7
1 4 acceptor
1 5 cation
1 6 cation
1 7 donor
6 23 24 25 26 27 28 rings
6 6 17 18 19 20 21 rings
8 5 8 9 10 11 12 13 14 rings

> <PUBCHEM_HEAVY_ATOM_COUNT>
29

> <PUBCHEM_ATOM_DEF_STEREO_COUNT>
3

> <PUBCHEM_ATOM_UDEF_STEREO_COUNT>
0

> <PUBCHEM_BOND_DEF_STEREO_COUNT>
0

> <PUBCHEM_BOND_UDEF_STEREO_COUNT>
0

> <PUBCHEM_ISOTOPIC_ATOM_COUNT>
0

> <PUBCHEM_COMPONENT_COUNT>
1

> <PUBCHEM_CACTVS_TAUTO_COUNT>
2

> <PUBCHEM_CONFORMER_ID>
018368FF00000002

> <PUBCHEM_MMFF94_ENERGY>
56.0918

> <PUBCHEM_FEATURE_SELFOVERLAP>
35.522

> <PUBCHEM_SHAPE_FINGERPRINT>
10006869 2 18410003331045039904
10280341 67 16879053167710869781
10835480 77 18409450271915861681
11135609 127 18340759347921978853
11409948 41 16844460337008555766
11621639 208 17905605506639219124
11823591 26 18060416958994285426
12838862 33 17917425480693080552
13103583 49 15430314815143257146
131258 43 11527665345176529826
13150687 139 17632309990706421598
13402501 40 18335422400106796888
13673619 4 10519991465091275522
13911987 19 17775570844756275811
14117953 113 18340211877701417740
14123256 34 10663822979119562369
14461889 52 17822584888307883403
14556957 393 16917082052577021337
14767858 380 16630531747482494306
14904525 67 18267307530771640217
15276724 80 18200037218808324617
15289351 153 18342176632049620864
15350500 55 18336264656632390832
15684393 108 17703782627415576575
16120349 189 18268148846086699740
17980427 23 17168993451187614510
18335252 114 18060140938689344332
19053607 189 17822022994420336902
20157964 124 18341052930206041606
20465049 17 11167944649792900036
20511986 3 18187361034670765675
20554085 129 17676205779782892274
20567600 254 18342462582139283672
20721686 146 18187086187413928348
20737093 207 13325758176379482540
21033648 29 17894919537342147018
21150785 3 17203327823494237077
21403212 168 18411978075587932962
21859007 373 17313658231377951551
21968339 14 18131633366169565864
23522609 53 16270829778383597483
23559900 14 17896336743379934846
25269216 80 18059561552096743511
2838139 119 18342173419123893692
34797466 226 18271812276990819111
4093350 32 18271528602431502021
44249763 50 18259988206197377687
465052 167 8358258142395574770
504579 68 16702303442838354897
5104073 3 17385731257734125091
5283384 27 18341894138722685472
5372103 7 18272088353173130848
57634706 306 17987509489644441512
6058803 2 16053815762326750442
6327066 14 18199468939026822212
6695519 79 17970659362147828395
9980921 177 17968083180675855752
999808 66 8862951571330214169

> <PUBCHEM_SHAPE_MULTIPOLES>
554.17
22.31
3.27
1.56
17.15
0.34
-0.09
-22.54
-2.63
-5.38
-0.13
0.91
0.52
3.26

> <PUBCHEM_SHAPE_SELFOVERLAP>
1174.082

> <PUBCHEM_SHAPE_VOLUME>
310.1

> <PUBCHEM_COORDINATE_TYPE>
2
5
10

$$$$
