11943286
  -OEChem-12032416153D

 44 46  0     1  0  0  0  0  0999 V2000
   -6.4882   -1.0455    0.4946 Cl  0  0  0  0  0  0  0  0  0  0  0  0
   -6.1426    1.6441   -0.7066 F   0  0  0  0  0  0  0  0  0  0  0  0
   -1.2213   -2.1291    0.5752 O   0  0  0  0  0  0  0  0  0  0  0  0
    3.2180   -1.4373    0.2104 N   0  0  2  0  0  0  0  0  0  0  0  0
   -0.2352   -0.0631    0.7802 N   0  0  0  0  0  0  0  0  0  0  0  0
    3.5961    0.6101   -1.3491 C   0  0  2  0  0  0  0  0  0  0  0  0
    4.4984    0.6962   -0.0970 C   0  0  2  0  0  0  0  0  0  0  0  0
    1.9154   -0.7930   -0.1094 C   0  0  2  0  0  0  0  0  0  0  0  0
    2.1234    0.5115   -0.9106 C   0  0  0  0  0  0  0  0  0  0  0  0
    4.1293   -0.4622    0.8568 C   0  0  0  0  0  0  0  0  0  0  0  0
    3.9483   -0.7081   -2.0647 C   0  0  0  0  0  0  0  0  0  0  0  0
    3.8371   -1.8731   -1.0651 C   0  0  0  0  0  0  0  0  0  0  0  0
    4.4255    2.0498    0.6063 C   0  0  0  0  0  0  0  0  0  0  0  0
    1.0563   -0.5641    1.1360 C   0  0  0  0  0  0  0  0  0  0  0  0
    5.4016    2.1247    1.7643 C   0  0  0  0  0  0  0  0  0  0  0  0
   -1.3248   -0.9027    0.5144 C   0  0  0  0  0  0  0  0  0  0  0  0
   -2.5953   -0.2370    0.1939 C   0  0  0  0  0  0  0  0  0  0  0  0
   -3.7922   -0.8838    0.4651 C   0  0  0  0  0  0  0  0  0  0  0  0
   -2.5771    1.0289   -0.3733 C   0  0  0  0  0  0  0  0  0  0  0  0
   -4.9977   -0.2506    0.1624 C   0  0  0  0  0  0  0  0  0  0  0  0
   -3.7824    1.6621   -0.6759 C   0  0  0  0  0  0  0  0  0  0  0  0
   -4.9927    1.0224   -0.4080 C   0  0  0  0  0  0  0  0  0  0  0  0
    3.7501    1.4646   -2.0162 H   0  0  0  0  0  0  0  0  0  0  0  0
    5.5369    0.5509   -0.4283 H   0  0  0  0  0  0  0  0  0  0  0  0
    1.3529   -1.4910   -0.7471 H   0  0  0  0  0  0  0  0  0  0  0  0
    1.8436    1.3996   -0.3345 H   0  0  0  0  0  0  0  0  0  0  0  0
    1.4780    0.4980   -1.7981 H   0  0  0  0  0  0  0  0  0  0  0  0
    5.0456   -0.9816    1.1669 H   0  0  0  0  0  0  0  0  0  0  0  0
    3.6777   -0.1069    1.7887 H   0  0  0  0  0  0  0  0  0  0  0  0
    4.9655   -0.6621   -2.4709 H   0  0  0  0  0  0  0  0  0  0  0  0
    3.2677   -0.8692   -2.9094 H   0  0  0  0  0  0  0  0  0  0  0  0
    3.2504   -2.6885   -1.5062 H   0  0  0  0  0  0  0  0  0  0  0  0
    4.8292   -2.2994   -0.8691 H   0  0  0  0  0  0  0  0  0  0  0  0
    3.4172    2.2499    0.9842 H   0  0  0  0  0  0  0  0  0  0  0  0
    4.6619    2.8459   -0.1097 H   0  0  0  0  0  0  0  0  0  0  0  0
    1.5027    0.1747    1.8093 H   0  0  0  0  0  0  0  0  0  0  0  0
    0.9412   -1.4982    1.6978 H   0  0  0  0  0  0  0  0  0  0  0  0
    5.1491    1.4273    2.5680 H   0  0  0  0  0  0  0  0  0  0  0  0
    6.4240    1.9134    1.4342 H   0  0  0  0  0  0  0  0  0  0  0  0
    5.3926    3.1321    2.1936 H   0  0  0  0  0  0  0  0  0  0  0  0
   -0.3523    0.9442    0.7926 H   0  0  0  0  0  0  0  0  0  0  0  0
   -3.7981   -1.8744    0.9135 H   0  0  0  0  0  0  0  0  0  0  0  0
   -1.6590    1.5477   -0.6302 H   0  0  0  0  0  0  0  0  0  0  0  0
   -3.7794    2.6498   -1.1274 H   0  0  0  0  0  0  0  0  0  0  0  0
  1 20  1  0  0  0  0
  2 22  1  0  0  0  0
  3 16  2  0  0  0  0
  4  8  1  0  0  0  0
  4 10  1  0  0  0  0
  4 12  1  0  0  0  0
  5 14  1  0  0  0  0
  5 16  1  0  0  0  0
  5 41  1  0  0  0  0
  6  7  1  0  0  0  0
  6  9  1  0  0  0  0
  6 11  1  0  0  0  0
  6 23  1  0  0  0  0
  7 10  1  0  0  0  0
  7 13  1  0  0  0  0
  7 24  1  0  0  0  0
  8  9  1  0  0  0  0
  8 14  1  0  0  0  0
  8 25  1  0  0  0  0
  9 26  1  0  0  0  0
  9 27  1  0  0  0  0
 10 28  1  0  0  0  0
 10 29  1  0  0  0  0
 11 12  1  0  0  0  0
 11 30  1  0  0  0  0
 11 31  1  0  0  0  0
 12 32  1  0  0  0  0
 12 33  1  0  0  0  0
 13 15  1  0  0  0  0
 13 34  1  0  0  0  0
 13 35  1  0  0  0  0
 14 36  1  0  0  0  0
 14 37  1  0  0  0  0
 15 38  1  0  0  0  0
 15 39  1  0  0  0  0
 15 40  1  0  0  0  0
 16 17  1  0  0  0  0
 17 18  2  0  0  0  0
 17 19  1  0  0  0  0
 18 20  1  0  0  0  0
 18 42  1  0  0  0  0
 19 21  2  0  0  0  0
 19 43  1  0  0  0  0
 20 22  2  0  0  0  0
 21 22  1  0  0  0  0
 21 44  1  0  0  0  0
M  END
> <PUBCHEM_COMPOUND_CID>
11943286

> <PUBCHEM_CONFORMER_RMSD>
0.8

> <PUBCHEM_CONFORMER_DIVERSEORDER>
1
24
4
21
16
13
20
3
15
23
2
22
12
11
19
17
7
6
9
18
8
5
10
14

> <PUBCHEM_MMFF94_PARTIAL_CHARGES>
20
1 -0.18
10 0.27
12 0.27
14 0.3
16 0.54
17 0.09
18 -0.15
19 -0.15
2 -0.19
20 0.18
21 -0.15
22 0.19
3 -0.57
4 -0.81
41 0.37
42 0.15
43 0.15
44 0.15
5 -0.73
8 0.27

> <PUBCHEM_EFFECTIVE_ROTOR_COUNT>
6.2

> <PUBCHEM_PHARMACOPHORE_FEATURES>
6
1 15 hydrophobe
1 3 acceptor
1 4 cation
1 5 donor
6 17 18 19 20 21 22 rings
8 4 6 7 8 9 10 11 12 rings

> <PUBCHEM_HEAVY_ATOM_COUNT>
22

> <PUBCHEM_ATOM_DEF_STEREO_COUNT>
3

> <PUBCHEM_ATOM_UDEF_STEREO_COUNT>
0

> <PUBCHEM_BOND_DEF_STEREO_COUNT>
0

> <PUBCHEM_BOND_UDEF_STEREO_COUNT>
0

> <PUBCHEM_ISOTOPIC_ATOM_COUNT>
0

> <PUBCHEM_COMPONENT_COUNT>
1

> <PUBCHEM_CACTVS_TAUTO_COUNT>
2

> <PUBCHEM_CONFORMER_ID>
00B63D7600000001

> <PUBCHEM_MMFF94_ENERGY>
52.2271

> <PUBCHEM_FEATURE_SELFOVERLAP>
30.446

> <PUBCHEM_SHAPE_FINGERPRINT>
10498660 4 18187644661552380253
10670039 82 17531258201338604086
10912923 1 15647060394969046019
11287383 113 18342738528902370627
12236239 1 17530683195274903547
12403259 118 16660636333017619917
12403259 415 18411987953099980171
12616971 3 15697718116722595759
12633257 1 14851604388502099608
12730499 353 18202005456047833370
12769317 202 17845928654258642496
12788726 201 15051468088787330619
12916748 109 18260553324771296587
13150687 139 15984547840839042152
13402501 40 18340198687276531472
13533116 47 18340773654521761066
13911852 28 12541785502662570840
14251764 18 16877660180392094264
14461889 52 18268146633329463442
14528608 73 17821453452203857527
15196674 1 18186523185551263429
15537594 2 13758080701135305229
173720 79 17385717032428017299
17844677 252 18201445744262487017
17980427 23 17825097362898640788
1813 80 14549014369016803483
18222031 100 12895353295793844363
20645477 56 18408324414446976091
20645477 70 17632589227546617982
21315764 268 18114453518044223116
220451 1 14620799310273064615
22061861 79 17846222111703173567
22149856 69 18264790843275992027
23016692 55 11815904478381006768
23557571 272 18336272335563683698
23559900 14 18409739439258192454
239999 70 18060425690399191014
2916195 48 18410004464130461697
3004659 81 18187930530333466498
312423 11 16558205821284234778
34797466 226 18059582420424650413
3545911 37 18409735079655253638
465052 167 11458416913173984632
474 4 16371019532489887662
495365 180 18343300371245008718
5104073 3 18187365394315207665
5281201 14 18130514037336027540
542803 24 16343705434810400713
633830 44 17345772805598599002
653340 110 17896871063234615196
8509985 295 16298382474808311972
960060 61 16056881334020116976

> <PUBCHEM_SHAPE_MULTIPOLES>
431.51
15.46
2
1.37
13.34
0.37
0.23
4.24
-0.07
-1.29
-0.17
-1.76
0.1
2.51

> <PUBCHEM_SHAPE_SELFOVERLAP>
904.943

> <PUBCHEM_SHAPE_VOLUME>
245.6

> <PUBCHEM_COORDINATE_TYPE>
2
5
10

$$$$
