11884218
  -OEChem-12032416363D

 60 64  0     1  0  0  0  0  0999 V2000
   -1.8272   -1.9914   -0.2098 O   0  0  0  0  0  0  0  0  0  0  0  0
    1.4960    1.8064    1.3624 O   0  0  0  0  0  0  0  0  0  0  0  0
   -4.5235   -0.0613   -2.3488 O   0  0  0  0  0  0  0  0  0  0  0  0
   -6.5375    0.5489   -0.9348 O   0  0  0  0  0  0  0  0  0  0  0  0
    9.8118    0.7798    0.0908 O   0  0  0  0  0  0  0  0  0  0  0  0
   -0.1749    0.8454    0.0835 N   0  0  0  0  0  0  0  0  0  0  0  0
   -2.9169    0.7184   -0.8605 N   0  0  0  0  0  0  0  0  0  0  0  0
    0.4167   -2.0527    0.1655 N   0  0  0  0  0  0  0  0  0  0  0  0
   -0.5503   -0.0885   -0.9691 C   0  0  2  0  0  0  0  0  0  0  0  0
   -1.8001    0.3584   -1.7380 C   0  0  0  0  0  0  0  0  0  0  0  0
   -1.1510    1.8728    0.4486 C   0  0  0  0  0  0  0  0  0  0  0  0
   -2.5756    1.3389    0.4226 C   0  0  0  0  0  0  0  0  0  0  0  0
   -0.7300   -1.4346   -0.2854 C   0  0  0  0  0  0  0  0  0  0  0  0
    1.1100    0.9065    0.6146 C   0  0  0  0  0  0  0  0  0  0  0  0
    2.0734   -0.1811    0.2965 C   0  0  0  0  0  0  0  0  0  0  0  0
   -4.2256    0.4601   -1.2718 C   0  0  0  0  0  0  0  0  0  0  0  0
    1.7298   -1.5392    0.1978 C   0  0  0  0  0  0  0  0  0  0  0  0
    3.4309    0.1892    0.2765 C   0  0  0  0  0  0  0  0  0  0  0  0
   -5.3170    0.8637   -0.3107 C   0  0  0  0  0  0  0  0  0  0  0  0
    2.7562   -2.4991    0.1527 C   0  0  0  0  0  0  0  0  0  0  0  0
    4.4350   -0.7734    0.1815 C   0  0  0  0  0  0  0  0  0  0  0  0
    4.0979   -2.1196    0.1335 C   0  0  0  0  0  0  0  0  0  0  0  0
    5.8250   -0.3726    0.1573 C   0  0  0  0  0  0  0  0  0  0  0  0
    6.8017   -1.2096    0.6967 C   0  0  0  0  0  0  0  0  0  0  0  0
    6.1880    0.8512   -0.4048 C   0  0  0  0  0  0  0  0  0  0  0  0
   -7.6116    0.2688   -0.1194 C   0  0  0  0  0  0  0  0  0  0  0  0
    8.1417   -0.8224    0.6741 C   0  0  0  0  0  0  0  0  0  0  0  0
    7.5279    1.2383   -0.4275 C   0  0  0  0  0  0  0  0  0  0  0  0
    8.5047    0.4015    0.1120 C   0  0  0  0  0  0  0  0  0  0  0  0
   -7.6943    0.8684    1.1284 C   0  0  0  0  0  0  0  0  0  0  0  0
   -8.5908   -0.6087   -0.5601 C   0  0  0  0  0  0  0  0  0  0  0  0
   -8.7816    0.5839    1.9547 C   0  0  0  0  0  0  0  0  0  0  0  0
   -9.6781   -0.8932    0.2660 C   0  0  0  0  0  0  0  0  0  0  0  0
   -9.7734   -0.2968    1.5235 C   0  0  0  0  0  0  0  0  0  0  0  0
   10.1127    2.0436   -0.4990 C   0  0  0  0  0  0  0  0  0  0  0  0
    0.2730   -0.1755   -1.6891 H   0  0  0  0  0  0  0  0  0  0  0  0
   -1.5719    1.2570   -2.3249 H   0  0  0  0  0  0  0  0  0  0  0  0
   -2.1140   -0.4165   -2.4462 H   0  0  0  0  0  0  0  0  0  0  0  0
   -1.0337    2.6929   -0.2704 H   0  0  0  0  0  0  0  0  0  0  0  0
   -0.9180    2.2739    1.4408 H   0  0  0  0  0  0  0  0  0  0  0  0
   -2.7083    0.5694    1.1923 H   0  0  0  0  0  0  0  0  0  0  0  0
   -3.2724    2.1523    0.6419 H   0  0  0  0  0  0  0  0  0  0  0  0
    0.3152   -3.0339    0.4143 H   0  0  0  0  0  0  0  0  0  0  0  0
    3.6836    1.2423    0.3826 H   0  0  0  0  0  0  0  0  0  0  0  0
   -5.2727    1.9433   -0.1387 H   0  0  0  0  0  0  0  0  0  0  0  0
   -5.1643    0.3011    0.6182 H   0  0  0  0  0  0  0  0  0  0  0  0
    2.5163   -3.5594    0.0948 H   0  0  0  0  0  0  0  0  0  0  0  0
    4.8394   -2.9087    0.0453 H   0  0  0  0  0  0  0  0  0  0  0  0
    6.5636   -2.1571    1.1721 H   0  0  0  0  0  0  0  0  0  0  0  0
    5.4649    1.5201   -0.8638 H   0  0  0  0  0  0  0  0  0  0  0  0
    8.8980   -1.4749    1.1019 H   0  0  0  0  0  0  0  0  0  0  0  0
    7.7413    2.1983   -0.8851 H   0  0  0  0  0  0  0  0  0  0  0  0
   -6.9552    1.5771    1.4886 H   0  0  0  0  0  0  0  0  0  0  0  0
   -8.5188   -1.0746   -1.5385 H   0  0  0  0  0  0  0  0  0  0  0  0
   -8.8591    1.0522    2.9316 H   0  0  0  0  0  0  0  0  0  0  0  0
  -10.4506   -1.5788   -0.0697 H   0  0  0  0  0  0  0  0  0  0  0  0
  -10.6207   -0.5173    2.1662 H   0  0  0  0  0  0  0  0  0  0  0  0
    9.6480    2.8668    0.0540 H   0  0  0  0  0  0  0  0  0  0  0  0
    9.8565    2.0618   -1.5638 H   0  0  0  0  0  0  0  0  0  0  0  0
   11.1965    2.1832   -0.4287 H   0  0  0  0  0  0  0  0  0  0  0  0
  1 13  2  0  0  0  0
  2 14  2  0  0  0  0
  3 16  2  0  0  0  0
  4 19  1  0  0  0  0
  4 26  1  0  0  0  0
  5 29  1  0  0  0  0
  5 35  1  0  0  0  0
  6  9  1  0  0  0  0
  6 11  1  0  0  0  0
  6 14  1  0  0  0  0
  7 10  1  0  0  0  0
  7 12  1  0  0  0  0
  7 16  1  0  0  0  0
  8 13  1  0  0  0  0
  8 17  1  0  0  0  0
  8 43  1  0  0  0  0
  9 10  1  0  0  0  0
  9 13  1  0  0  0  0
  9 36  1  0  0  0  0
 10 37  1  0  0  0  0
 10 38  1  0  0  0  0
 11 12  1  0  0  0  0
 11 39  1  0  0  0  0
 11 40  1  0  0  0  0
 12 41  1  0  0  0  0
 12 42  1  0  0  0  0
 14 15  1  0  0  0  0
 15 17  2  0  0  0  0
 15 18  1  0  0  0  0
 16 19  1  0  0  0  0
 17 20  1  0  0  0  0
 18 21  2  0  0  0  0
 18 44  1  0  0  0  0
 19 45  1  0  0  0  0
 19 46  1  0  0  0  0
 20 22  2  0  0  0  0
 20 47  1  0  0  0  0
 21 22  1  0  0  0  0
 21 23  1  0  0  0  0
 22 48  1  0  0  0  0
 23 24  2  0  0  0  0
 23 25  1  0  0  0  0
 24 27  1  0  0  0  0
 24 49  1  0  0  0  0
 25 28  2  0  0  0  0
 25 50  1  0  0  0  0
 26 30  2  0  0  0  0
 26 31  1  0  0  0  0
 27 29  2  0  0  0  0
 27 51  1  0  0  0  0
 28 29  1  0  0  0  0
 28 52  1  0  0  0  0
 30 32  1  0  0  0  0
 30 53  1  0  0  0  0
 31 33  2  0  0  0  0
 31 54  1  0  0  0  0
 32 34  2  0  0  0  0
 32 55  1  0  0  0  0
 33 34  1  0  0  0  0
 33 56  1  0  0  0  0
 34 57  1  0  0  0  0
 35 58  1  0  0  0  0
 35 59  1  0  0  0  0
 35 60  1  0  0  0  0
M  END
> <PUBCHEM_COMPOUND_CID>
11884218

> <PUBCHEM_CONFORMER_RMSD>
1

> <PUBCHEM_CONFORMER_DIVERSEORDER>
1
37
24
12
13
32
8
22
30
39
3
14
41
9
25
23
4
15
35
21
40
10
20
19
7
27
5
26
17
16
34
2
38
31
18
36
42
33
28
29
6
11

> <PUBCHEM_MMFF94_PARTIAL_CHARGES>
46
1 -0.57
10 0.3
11 0.3
12 0.3
13 0.57
14 0.54
15 0.09
16 0.57
17 0.12
18 -0.15
19 0.34
2 -0.57
20 -0.15
22 -0.15
24 -0.15
25 -0.15
26 0.08
27 -0.15
28 -0.15
29 0.08
3 -0.57
30 -0.15
31 -0.15
32 -0.15
33 -0.15
34 -0.15
35 0.28
4 -0.36
43 0.37
44 0.15
47 0.15
48 0.15
49 0.15
5 -0.36
50 0.15
51 0.15
52 0.15
53 0.15
54 0.15
55 0.15
56 0.15
57 0.15
6 -0.66
7 -0.66
8 -0.55
9 0.36

> <PUBCHEM_EFFECTIVE_ROTOR_COUNT>
7

> <PUBCHEM_PHARMACOPHORE_FEATURES>
11
1 1 acceptor
1 2 acceptor
1 3 acceptor
1 4 acceptor
1 5 acceptor
1 8 donor
6 15 17 18 20 21 22 rings
6 23 24 25 27 28 29 rings
6 26 30 31 32 33 34 rings
6 6 7 9 10 11 12 rings
7 6 8 9 13 14 15 17 rings

> <PUBCHEM_HEAVY_ATOM_COUNT>
35

> <PUBCHEM_ATOM_DEF_STEREO_COUNT>
1

> <PUBCHEM_ATOM_UDEF_STEREO_COUNT>
0

> <PUBCHEM_BOND_DEF_STEREO_COUNT>
0

> <PUBCHEM_BOND_UDEF_STEREO_COUNT>
0

> <PUBCHEM_ISOTOPIC_ATOM_COUNT>
0

> <PUBCHEM_COMPONENT_COUNT>
1

> <PUBCHEM_CACTVS_TAUTO_COUNT>
3

> <PUBCHEM_CONFORMER_ID>
00B556BA00000001

> <PUBCHEM_MMFF94_ENERGY>
138.7483

> <PUBCHEM_FEATURE_SELFOVERLAP>
55.869

> <PUBCHEM_SHAPE_FINGERPRINT>
10 15 17822008709912997594
10076449 9 18186522098898481965
10162869 55 14273459184458834226
10209105 3 10303551489595773932
10299344 5 18201717354020825197
106641 1 17676488349791672535
10674148 151 16343980316959817714
10883706 142 16588019118316787240
11115154 58 16200432481505780210
11181472 205 14117528618408146171
11621639 148 17822294625764904996
12013929 94 18411701020021994843
13740195 50 17385443245363677336
13947935 32 17896610664099528308
13947947 74 18273210916090591416
14040221 8 14333417770025090240
14117953 113 7925628934064020122
14251764 18 18060416907164280741
14294032 229 15410350845158195835
14849402 71 18272089414056192945
15347591 1 18045776789075112673
15510794 2 17749387032440568455
15728490 51 18410291433051105127
15773216 30 15984837973799286630
15840311 113 17822013117045095300
16664035 7 14056717941901734270
16728433 110 18113900485376101069
17686467 74 17167861959286139045
18335252 98 18186519886578815907
18608769 82 18335417985033137547
20105231 36 17918275341833042678
21049683 271 18410853265564397864
21772524 286 17273709654770498449
21781055 127 15913060836546209537
21792965 68 12751251311808809723
22149856 69 17916867898287917915
23559900 14 18271234033212868240
23569917 315 18267303128546270874
3092352 35 18060698390293778214
3178227 256 18412827980173492267
335352 9 18271801349871175660
335507 130 18186801396278944149
3552219 110 18059859445631276185
3991529 128 17060066943732802833
4112364 45 17676494990549572028
437795 160 14851609907282224257
44426699 60 17677060139326203996
474113 269 9367355821102887204
5028188 123 16558743563958603484
5381727 24 17240758472432757146
57303763 176 9366806069610736615
57828716 8 13334733561328573984
59682541 35 17822012012510622683
6081469 158 12319739167981872042
67123 10 18187082857969994533

> <PUBCHEM_SHAPE_MULTIPOLES>
675.99
34.7
1.94
1.28
13.06
0.58
-0.17
-6.62
7.23
-2.61
0.16
2.76
-0.23
-0.88

> <PUBCHEM_SHAPE_SELFOVERLAP>
1487.348

> <PUBCHEM_SHAPE_VOLUME>
359.8

> <PUBCHEM_COORDINATE_TYPE>
2
5
10

$$$$
