25338502
  -OEChem-12032416213D

 51 54  0     1  0  0  0  0  0999 V2000
   -4.3549    1.4704   -1.0519 O   0  0  0  0  0  0  0  0  0  0  0  0
    2.5387    2.1126   -1.1460 O   0  0  0  0  0  0  0  0  0  0  0  0
    7.3287   -2.1710   -0.1080 O   0  0  0  0  0  0  0  0  0  0  0  0
   -1.9630    3.0571    0.9922 N   0  0  1  0  0  0  0  0  0  0  0  0
    0.8417    2.1034    0.4238 N   0  0  0  0  0  0  0  0  0  0  0  0
   -2.8254    0.1951   -0.0266 N   0  0  0  0  0  0  0  0  0  0  0  0
    2.5891    0.6376    0.6794 N   0  0  0  0  0  0  0  0  0  0  0  0
   -4.8951    0.1792   -1.0014 N   0  0  0  0  0  0  0  0  0  0  0  0
   -5.3594   -3.9466   -0.2456 N   0  0  0  0  0  0  0  0  0  0  0  0
    0.0507    3.1502   -0.1785 C   0  0  1  0  0  0  0  0  0  0  0  0
   -2.3373    2.6757   -0.3830 C   0  0  1  0  0  0  0  0  0  0  0  0
   -0.9962    2.5835   -1.1373 C   0  0  0  0  0  0  0  0  0  0  0  0
   -0.7673    3.8961    0.8648 C   0  0  0  0  0  0  0  0  0  0  0  0
   -3.1357    1.3918   -0.4572 C   0  0  0  0  0  0  0  0  0  0  0  0
   -3.0328    3.7398    1.7098 C   0  0  0  0  0  0  0  0  0  0  0  0
    2.0513    1.6534   -0.1158 C   0  0  0  0  0  0  0  0  0  0  0  0
   -3.9350   -0.5148   -0.3828 C   0  0  0  0  0  0  0  0  0  0  0  0
   -4.0524   -1.9175   -0.1072 C   0  0  0  0  0  0  0  0  0  0  0  0
    3.7938   -0.0759    0.4790 C   0  0  0  0  0  0  0  0  0  0  0  0
   -3.0329   -2.6094    0.5373 C   0  0  0  0  0  0  0  0  0  0  0  0
   -5.1851   -2.6258   -0.4749 C   0  0  0  0  0  0  0  0  0  0  0  0
    4.1758   -1.0668    1.3834 C   0  0  0  0  0  0  0  0  0  0  0  0
    4.5997    0.2107   -0.6229 C   0  0  0  0  0  0  0  0  0  0  0  0
    5.3637   -1.7707    1.1863 C   0  0  0  0  0  0  0  0  0  0  0  0
    5.7877   -0.4931   -0.8201 C   0  0  0  0  0  0  0  0  0  0  0  0
   -3.1752   -3.9691    0.7907 C   0  0  0  0  0  0  0  0  0  0  0  0
    6.1696   -1.4838    0.0844 C   0  0  0  0  0  0  0  0  0  0  0  0
   -4.3472   -4.5856    0.3830 C   0  0  0  0  0  0  0  0  0  0  0  0
    8.1045   -1.8266   -1.2549 C   0  0  0  0  0  0  0  0  0  0  0  0
    0.7271    3.8325   -0.7054 H   0  0  0  0  0  0  0  0  0  0  0  0
   -2.9235    3.4808   -0.8493 H   0  0  0  0  0  0  0  0  0  0  0  0
   -0.7493    1.5665   -1.4638 H   0  0  0  0  0  0  0  0  0  0  0  0
   -1.0494    3.2132   -2.0344 H   0  0  0  0  0  0  0  0  0  0  0  0
   -0.2409    4.0024    1.8194 H   0  0  0  0  0  0  0  0  0  0  0  0
   -1.0249    4.8953    0.4899 H   0  0  0  0  0  0  0  0  0  0  0  0
    0.4678    1.6236    1.2370 H   0  0  0  0  0  0  0  0  0  0  0  0
   -3.9055    3.0868    1.8170 H   0  0  0  0  0  0  0  0  0  0  0  0
   -3.3517    4.6598    1.2071 H   0  0  0  0  0  0  0  0  0  0  0  0
   -2.7058    3.9988    2.7228 H   0  0  0  0  0  0  0  0  0  0  0  0
    2.0564    0.3734    1.5044 H   0  0  0  0  0  0  0  0  0  0  0  0
   -2.1174   -2.1155    0.8528 H   0  0  0  0  0  0  0  0  0  0  0  0
   -6.0255   -2.1604   -0.9814 H   0  0  0  0  0  0  0  0  0  0  0  0
    3.5568   -1.3002    2.2460 H   0  0  0  0  0  0  0  0  0  0  0  0
    4.3705    0.9625   -1.3649 H   0  0  0  0  0  0  0  0  0  0  0  0
    5.6561   -2.5414    1.8942 H   0  0  0  0  0  0  0  0  0  0  0  0
    6.3668   -0.2207   -1.6960 H   0  0  0  0  0  0  0  0  0  0  0  0
   -2.3937   -4.5290    1.2916 H   0  0  0  0  0  0  0  0  0  0  0  0
   -4.5074   -5.6445    0.5572 H   0  0  0  0  0  0  0  0  0  0  0  0
    8.9901   -2.4706   -1.2512 H   0  0  0  0  0  0  0  0  0  0  0  0
    8.4614   -0.7924   -1.2037 H   0  0  0  0  0  0  0  0  0  0  0  0
    7.5629   -2.0336   -2.1841 H   0  0  0  0  0  0  0  0  0  0  0  0
  1  8  1  0  0  0  0
  1 14  1  0  0  0  0
  2 16  2  0  0  0  0
  3 27  1  0  0  0  0
  3 29  1  0  0  0  0
  4 11  1  0  0  0  0
  4 13  1  0  0  0  0
  4 15  1  0  0  0  0
  5 10  1  0  0  0  0
  5 16  1  0  0  0  0
  5 36  1  0  0  0  0
  6 14  2  0  0  0  0
  6 17  1  0  0  0  0
  7 16  1  0  0  0  0
  7 19  1  0  0  0  0
  7 40  1  0  0  0  0
  8 17  2  0  0  0  0
  9 21  1  0  0  0  0
  9 28  2  0  0  0  0
 10 12  1  0  0  0  0
 10 13  1  0  0  0  0
 10 30  1  0  0  0  0
 11 12  1  0  0  0  0
 11 14  1  0  0  0  0
 11 31  1  0  0  0  0
 12 32  1  0  0  0  0
 12 33  1  0  0  0  0
 13 34  1  0  0  0  0
 13 35  1  0  0  0  0
 15 37  1  0  0  0  0
 15 38  1  0  0  0  0
 15 39  1  0  0  0  0
 17 18  1  0  0  0  0
 18 20  1  0  0  0  0
 18 21  2  0  0  0  0
 19 22  2  0  0  0  0
 19 23  1  0  0  0  0
 20 26  2  0  0  0  0
 20 41  1  0  0  0  0
 21 42  1  0  0  0  0
 22 24  1  0  0  0  0
 22 43  1  0  0  0  0
 23 25  2  0  0  0  0
 23 44  1  0  0  0  0
 24 27  2  0  0  0  0
 24 45  1  0  0  0  0
 25 27  1  0  0  0  0
 25 46  1  0  0  0  0
 26 28  1  0  0  0  0
 26 47  1  0  0  0  0
 28 48  1  0  0  0  0
 29 49  1  0  0  0  0
 29 50  1  0  0  0  0
 29 51  1  0  0  0  0
M  END
> <PUBCHEM_COMPOUND_CID>
25338502

> <PUBCHEM_CONFORMER_RMSD>
1

> <PUBCHEM_CONFORMER_DIVERSEORDER>
1
30
86
96
81
116
89
74
132
126
107
128
97
40
105
103
33
22
44
90
76
53
9
39
60
31
108
75
93
115
68
84
83
95
35
42
137
73
54
91
138
63
6
106
77
134
11
19
46
59
14
102
92
55
23
64
124
52
7
12
78
118
79
32
101
5
28
29
43
139
135
47
26
17
120
57
21
58
109
45
10
117
82
20
71
104
8
85
100
38
80
51
114
111
123
66
70
2
56
48
130
36
98
127
16
27
34
136
50
88
99
41
119
37
113
24
18
15
129
112
61
133
4
62
110
25
65
87
13
94
72
69
49
131
121
125
122
67
3

> <PUBCHEM_MMFF94_PARTIAL_CHARGES>
38
1 -0.02
10 0.3
11 0.45
13 0.27
14 0.3
15 0.27
16 0.69
17 0.46
18 0.05
19 0.12
2 -0.57
20 -0.15
21 0.16
22 -0.15
23 -0.15
24 -0.15
25 -0.15
26 -0.15
27 0.08
28 0.16
29 0.28
3 -0.36
36 0.37
4 -0.81
40 0.37
41 0.15
42 0.15
43 0.15
44 0.15
45 0.15
46 0.15
47 0.15
48 0.15
5 -0.73
6 -0.57
7 -0.55
8 -0.41
9 -0.62

> <PUBCHEM_EFFECTIVE_ROTOR_COUNT>
8

> <PUBCHEM_PHARMACOPHORE_FEATURES>
11
1 2 acceptor
1 3 acceptor
1 4 cation
1 5 donor
1 7 donor
1 9 acceptor
3 6 8 17 cation
5 1 6 8 14 17 rings
5 4 10 11 12 13 rings
6 19 22 23 24 25 27 rings
6 9 18 20 21 26 28 rings

> <PUBCHEM_HEAVY_ATOM_COUNT>
29

> <PUBCHEM_ATOM_DEF_STEREO_COUNT>
2

> <PUBCHEM_ATOM_UDEF_STEREO_COUNT>
0

> <PUBCHEM_BOND_DEF_STEREO_COUNT>
0

> <PUBCHEM_BOND_UDEF_STEREO_COUNT>
0

> <PUBCHEM_ISOTOPIC_ATOM_COUNT>
0

> <PUBCHEM_COMPONENT_COUNT>
1

> <PUBCHEM_CACTVS_TAUTO_COUNT>
3

> <PUBCHEM_CONFORMER_ID>
0182A28600000001

> <PUBCHEM_MMFF94_ENERGY>
76.6432

> <PUBCHEM_FEATURE_SELFOVERLAP>
55.874

> <PUBCHEM_SHAPE_FINGERPRINT>
10042902 136 18408603665084516060
10391435 84 18338504297287639960
10571361 74 18117548527739921106
10622 236 18334288803428149406
11285246 1 17677609937873286107
11315621 246 18263649472638278084
11374522 301 17031371011896133866
117089 54 18337959007443986342
11756154 5 18411690011472247574
12107183 9 18198079152239633473
12645989 146 18269836587134011535
13165053 182 16446473617817259582
1361 4 18338798902322831182
1361 87 18412254026207916572
13690498 29 17967530168918190573
14251757 5 18334290955043422722
14856354 85 18199754639945735324
14866123 147 18412267234145059329
15250474 111 18116988889316587130
15728490 83 18335427863263025995
15803439 3 17173739798013709005
16120349 21 18410580596156003611
17138139 8 18040710364596999490
17492 89 18266175217849941205
17627616 140 17970898977877717323
17909252 39 18122627416328756984
19304671 126 12541232447817978482
19319366 153 17473829901255568100
20775438 99 17257352567664728115
20775530 9 18261385710960761155
21196832 93 18410577301842370814
21307412 95 18337659876668092389
23379529 103 18337390551357334761
23466295 7 18409732880801193201
23559900 14 18337661044636082157
25025965 108 17415535659162375902
2835820 82 17690839386835190455
32027 91 18267857479842159813
3383291 50 18340205203295014953
395649 100 18336268956179386782
44062 13 18335133215889928847
4435113 14 17701269014648423110
474144 1 17315326199249660787
484985 159 18411137992347764185
49967989 163 18338249180488659294
5372103 7 12534522069083554555
54324442 115 18188777291578927266
6201320 77 16054107202207005788
6441014 3 18267303307995939251
7970288 3 18410289250347804046
9980921 52 17341235336709297519

> <PUBCHEM_SHAPE_MULTIPOLES>
549.31
17.72
6.31
1.22
30.76
1.16
-0.16
20.78
3.47
-10.46
-1.56
0.43
-0.44
-0.24

> <PUBCHEM_SHAPE_SELFOVERLAP>
1184.604

> <PUBCHEM_SHAPE_VOLUME>
302.8

> <PUBCHEM_COORDINATE_TYPE>
2
5
10

$$$$
