75537035
  -OEChem-12032416323D

 49 52  0     1  0  0  0  0  0999 V2000
   -5.1596    3.1457    0.9874 F   0  0  0  0  0  0  0  0  0  0  0  0
   -6.8656    1.8187    0.8085 F   0  0  0  0  0  0  0  0  0  0  0  0
   -6.0327    2.7594   -0.9661 F   0  0  0  0  0  0  0  0  0  0  0  0
    4.0311   -2.3246    0.9542 O   0  0  0  0  0  0  0  0  0  0  0  0
   -2.6666   -3.4006   -0.7176 O   0  0  0  0  0  0  0  0  0  0  0  0
    1.7420   -1.8953    0.6452 N   0  0  0  0  0  0  0  0  0  0  0  0
    3.1086   -0.1563    1.0419 N   0  0  0  0  0  0  0  0  0  0  0  0
   -0.7623   -2.0567   -0.5490 N   0  0  0  0  0  0  0  0  0  0  0  0
    5.5630    2.3265   -0.0989 N   0  0  0  0  0  0  0  0  0  0  0  0
    4.8382    0.5273   -1.1802 N   0  0  0  0  0  0  0  0  0  0  0  0
    0.8552   -0.7491    0.7515 C   0  0  1  0  0  0  0  0  0  0  0  0
    1.8069    0.4429    0.8050 C   0  0  0  0  0  0  0  0  0  0  0  0
   -0.1257   -0.7318   -0.4165 C   0  0  0  0  0  0  0  0  0  0  0  0
    1.1886   -3.2187    0.4151 C   0  0  0  0  0  0  0  0  0  0  0  0
    0.1778   -3.1717   -0.7294 C   0  0  0  0  0  0  0  0  0  0  0  0
    3.0797   -1.5570    0.8920 C   0  0  0  0  0  0  0  0  0  0  0  0
    4.2909    0.6453    1.2670 C   0  0  0  0  0  0  0  0  0  0  0  0
   -2.1365   -2.3014   -0.5632 C   0  0  0  0  0  0  0  0  0  0  0  0
    4.8869    1.1409   -0.0188 C   0  0  0  0  0  0  0  0  0  0  0  0
   -3.0436   -1.1633   -0.3666 C   0  0  0  0  0  0  0  0  0  0  0  0
   -3.4961   -0.4335   -1.4658 C   0  0  0  0  0  0  0  0  0  0  0  0
   -3.4523   -0.8119    0.9199 C   0  0  0  0  0  0  0  0  0  0  0  0
    5.9714    2.4785   -1.3941 C   0  0  0  0  0  0  0  0  0  0  0  0
    5.8098    3.2588    0.9758 C   0  0  0  0  0  0  0  0  0  0  0  0
    5.5124    1.3560   -2.0419 C   0  0  0  0  0  0  0  0  0  0  0  0
   -4.3569    0.6478   -1.2786 C   0  0  0  0  0  0  0  0  0  0  0  0
   -4.3132    0.2694    1.1073 C   0  0  0  0  0  0  0  0  0  0  0  0
   -4.7655    0.9993    0.0081 C   0  0  0  0  0  0  0  0  0  0  0  0
   -5.6862    2.1556    0.2078 C   0  0  0  0  0  0  0  0  0  0  0  0
    0.3164   -0.8537    1.7019 H   0  0  0  0  0  0  0  0  0  0  0  0
    1.8453    0.9966   -0.1388 H   0  0  0  0  0  0  0  0  0  0  0  0
    1.5568    1.1288    1.6201 H   0  0  0  0  0  0  0  0  0  0  0  0
   -0.8576    0.0667   -0.2786 H   0  0  0  0  0  0  0  0  0  0  0  0
    0.3926   -0.5407   -1.3644 H   0  0  0  0  0  0  0  0  0  0  0  0
    0.6960   -3.5230    1.3456 H   0  0  0  0  0  0  0  0  0  0  0  0
    1.9951   -3.9283    0.2071 H   0  0  0  0  0  0  0  0  0  0  0  0
    0.6915   -3.0024   -1.6834 H   0  0  0  0  0  0  0  0  0  0  0  0
   -0.3524   -4.1262   -0.8024 H   0  0  0  0  0  0  0  0  0  0  0  0
    5.0384    0.0222    1.7707 H   0  0  0  0  0  0  0  0  0  0  0  0
    4.0156    1.4624    1.9408 H   0  0  0  0  0  0  0  0  0  0  0  0
   -3.1832   -0.6988   -2.4724 H   0  0  0  0  0  0  0  0  0  0  0  0
   -3.1047   -1.3734    1.7832 H   0  0  0  0  0  0  0  0  0  0  0  0
    6.5316    3.3383   -1.7342 H   0  0  0  0  0  0  0  0  0  0  0  0
    4.8553    3.6952    1.2800 H   0  0  0  0  0  0  0  0  0  0  0  0
    6.2755    2.7217    1.8059 H   0  0  0  0  0  0  0  0  0  0  0  0
    6.4827    4.0463    0.6265 H   0  0  0  0  0  0  0  0  0  0  0  0
    5.6329    1.1023   -3.0850 H   0  0  0  0  0  0  0  0  0  0  0  0
   -4.6975    1.2033   -2.1479 H   0  0  0  0  0  0  0  0  0  0  0  0
   -4.6257    0.5359    2.1135 H   0  0  0  0  0  0  0  0  0  0  0  0
  1 29  1  0  0  0  0
  2 29  1  0  0  0  0
  3 29  1  0  0  0  0
  4 16  2  0  0  0  0
  5 18  2  0  0  0  0
  6 11  1  0  0  0  0
  6 14  1  0  0  0  0
  6 16  1  0  0  0  0
  7 12  1  0  0  0  0
  7 16  1  0  0  0  0
  7 17  1  0  0  0  0
  8 13  1  0  0  0  0
  8 15  1  0  0  0  0
  8 18  1  0  0  0  0
  9 19  1  0  0  0  0
  9 23  1  0  0  0  0
  9 24  1  0  0  0  0
 10 19  2  0  0  0  0
 10 25  1  0  0  0  0
 11 12  1  0  0  0  0
 11 13  1  0  0  0  0
 11 30  1  0  0  0  0
 12 31  1  0  0  0  0
 12 32  1  0  0  0  0
 13 33  1  0  0  0  0
 13 34  1  0  0  0  0
 14 15  1  0  0  0  0
 14 35  1  0  0  0  0
 14 36  1  0  0  0  0
 15 37  1  0  0  0  0
 15 38  1  0  0  0  0
 17 19  1  0  0  0  0
 17 39  1  0  0  0  0
 17 40  1  0  0  0  0
 18 20  1  0  0  0  0
 20 21  2  0  0  0  0
 20 22  1  0  0  0  0
 21 26  1  0  0  0  0
 21 41  1  0  0  0  0
 22 27  2  0  0  0  0
 22 42  1  0  0  0  0
 23 25  2  0  0  0  0
 23 43  1  0  0  0  0
 24 44  1  0  0  0  0
 24 45  1  0  0  0  0
 24 46  1  0  0  0  0
 25 47  1  0  0  0  0
 26 28  2  0  0  0  0
 26 48  1  0  0  0  0
 27 28  1  0  0  0  0
 27 49  1  0  0  0  0
 28 29  1  0  0  0  0
M  END
> <PUBCHEM_COMPOUND_CID>
75537035

> <PUBCHEM_CONFORMER_RMSD>
0.8

> <PUBCHEM_CONFORMER_DIVERSEORDER>
1
79
94
32
40
29
96
88
93
49
35
97
14
66
33
60
39
107
51
91
26
98
84
71
68
92
67
100
63
74
25
80
65
82
62
109
104
30
55
47
72
101
57
19
103
48
53
106
34
13
73
59
37
89
43
58
11
75
24
110
9
105
83
22
15
46
69
61
70
90
23
36
102
6
38
108
42
95
50
12
99
45
16
78
10
3
28
44
64
85
41
18
31
52
27
4
2
20
21
54
77
56
86
81
87
76
8
17
7
5

> <PUBCHEM_MMFF94_PARTIAL_CHARGES>
35
1 -0.34
10 -0.57
11 0.3
12 0.3
13 0.3
14 0.3
15 0.3
16 0.69
17 0.48
18 0.54
19 0.01
2 -0.34
20 0.09
21 -0.15
22 -0.15
23 -0.3
24 0.26
25 0.08
26 -0.15
27 -0.15
28 -0.14
29 1.16
3 -0.34
4 -0.57
41 0.15
42 0.15
43 0.15
47 0.15
48 0.15
49 0.15
5 -0.57
6 -0.66
7 -0.66
8 -0.66
9 0.05

> <PUBCHEM_EFFECTIVE_ROTOR_COUNT>
6.2

> <PUBCHEM_PHARMACOPHORE_FEATURES>
7
1 4 acceptor
1 5 acceptor
3 9 10 19 cation
5 6 7 11 12 16 rings
5 9 10 19 23 25 rings
6 20 21 22 26 27 28 rings
6 6 8 11 13 14 15 rings

> <PUBCHEM_HEAVY_ATOM_COUNT>
29

> <PUBCHEM_ATOM_DEF_STEREO_COUNT>
1

> <PUBCHEM_ATOM_UDEF_STEREO_COUNT>
0

> <PUBCHEM_BOND_DEF_STEREO_COUNT>
0

> <PUBCHEM_BOND_UDEF_STEREO_COUNT>
0

> <PUBCHEM_ISOTOPIC_ATOM_COUNT>
0

> <PUBCHEM_COMPONENT_COUNT>
1

> <PUBCHEM_CACTVS_TAUTO_COUNT>
1

> <PUBCHEM_CONFORMER_ID>
04809A8B00000001

> <PUBCHEM_MMFF94_ENERGY>
60.9278

> <PUBCHEM_FEATURE_SELFOVERLAP>
35.62

> <PUBCHEM_SHAPE_FINGERPRINT>
100830 2 18261681462346311460
105312 117 18342459300214986446
10554248 39 18267850718925735887
10615611 76 17749678513904985454
10816530 90 18338805494759806174
11273773 38 18410855456076632145
11475781 23 18060422460921602000
12390115 104 18339646744981047319
12422481 6 17167853162992182668
12788726 201 17632018533503502881
13540713 5 18266718294821801226
13690498 29 17485647379627884622
13782708 43 11743829262519738761
13885169 86 18408610274955106741
13944108 23 17982456988094591881
14211702 104 9151180856792496976
14251740 57 8862946074452167404
14251764 75 18411418397550167753
14664723 55 18337972150333900476
14790565 3 18264489653898095480
14840074 17 18113059337300372429
14848178 5 9511469900723473382
14849402 71 18121501246002991851
15163728 17 18412549807547130262
15183329 4 16056607542682091012
15338160 23 18262243330447631979
15513586 35 17099191032364632797
15575132 122 18411425024674480777
1601671 61 18261107517597715692
17349148 13 10447660140182038502
1768 23 17676780876273514196
17857418 61 10735882780865554620
18222031 100 10303550407099679522
18393751 57 18187366485775126187
19958102 18 13686292478756417333
20691028 202 18411418384734467601
21302155 148 18334015007853074357
21315763 87 11386368157936288556
21585480 29 12469498243817350264
21774942 28 18201434822962928864
23559900 14 17916578713861533814
23569914 152 17628660578490926724
24771750 20 18201451237236373095
249057 25 18265590195812256922
25122255 55 9511191749893447640
2748736 6 18409719677612867108
2838139 119 18341607127031600120
312425 54 12180661929141451964
38570 142 17846230916744624745
392239 28 15430315892467871996
4058900 60 18337118868943580403
4258327 124 18040711511490489039
44062 13 10735891564269380187
50009960 94 11383564305065695340
5104073 3 18040989657261234626
5283173 99 18127976528093084216
5718773 13 9223223032214382345
57724786 102 18335417903064755623
59682541 52 15769780091732816765
6034566 193 18411420614038317431
6058803 2 18265026163896901074
636775 72 17979348996069441944
7288768 16 18040718082453101523
7808743 9 18411134766325937451
7970288 3 8935003672094693697
9849439 229 18408885122828785303

> <PUBCHEM_SHAPE_MULTIPOLES>
538.34
16.91
4.15
1.46
0.43
0.48
0.35
-20.36
1.38
-0.73
-0.01
0.97
-0.4
-1.76

> <PUBCHEM_SHAPE_SELFOVERLAP>
1165.602

> <PUBCHEM_SHAPE_VOLUME>
298.3

> <PUBCHEM_COORDINATE_TYPE>
2
5
10

$$$$
