7144017
  -OEChem-12032416213D

 59 63  0     1  0  0  0  0  0999 V2000
   -7.2974   -2.3518   -0.2042 S   0  0  0  0  0  0  0  0  0  0  0  0
   -2.2836    1.8968   -1.2754 O   0  0  0  0  0  0  0  0  0  0  0  0
    3.9411   -4.4467    0.5341 O   0  0  0  0  0  0  0  0  0  0  0  0
    2.6987    1.6232   -0.7762 N   0  0  2  0  0  0  0  0  0  0  0  0
   -0.3445    2.2026   -0.0168 N   0  0  0  0  0  0  0  0  0  0  0  0
    1.5113    3.8303   -0.7067 C   0  0  1  0  0  0  0  0  0  0  0  0
    1.7448    2.5231    1.3505 C   0  0  2  0  0  0  0  0  0  0  0  0
    1.7660    3.9427    0.7905 C   0  0  0  0  0  0  0  0  0  0  0  0
    2.6056    2.9644   -1.3661 C   0  0  0  0  0  0  0  0  0  0  0  0
    2.8620    1.6884    0.6839 C   0  0  0  0  0  0  0  0  0  0  0  0
    0.1010    3.2670   -0.9276 C   0  0  0  0  0  0  0  0  0  0  0  0
    0.3916    1.8748    1.1243 C   0  0  0  0  0  0  0  0  0  0  0  0
    3.7791    0.8546   -1.3897 C   0  0  0  0  0  0  0  0  0  0  0  0
   -0.0889    0.9794    2.0016 C   0  0  0  0  0  0  0  0  0  0  0  0
   -1.5909    1.6093   -0.2975 C   0  0  0  0  0  0  0  0  0  0  0  0
   -2.0874    0.5839    0.6862 C   0  0  0  0  0  0  0  0  0  0  0  0
   -1.3444    0.3225    1.7722 C   0  0  0  0  0  0  0  0  0  0  0  0
    3.8224   -0.5603   -0.8767 C   0  0  0  0  0  0  0  0  0  0  0  0
   -3.3572   -0.1312    0.4685 C   0  0  0  0  0  0  0  0  0  0  0  0
    2.6432   -1.2832   -0.7663 C   0  0  0  0  0  0  0  0  0  0  0  0
    5.0411   -1.1204   -0.5209 C   0  0  0  0  0  0  0  0  0  0  0  0
   -4.5480    0.3901    0.9755 C   0  0  0  0  0  0  0  0  0  0  0  0
   -3.3700   -1.3307   -0.2444 C   0  0  0  0  0  0  0  0  0  0  0  0
    2.6836   -2.5937   -0.2901 C   0  0  0  0  0  0  0  0  0  0  0  0
    5.0814   -2.4309   -0.0448 C   0  0  0  0  0  0  0  0  0  0  0  0
    3.9027   -3.1676    0.0706 C   0  0  0  0  0  0  0  0  0  0  0  0
   -5.7500   -0.2870    0.7699 C   0  0  0  0  0  0  0  0  0  0  0  0
   -4.5720   -2.0078   -0.4501 C   0  0  0  0  0  0  0  0  0  0  0  0
   -5.7620   -1.4860    0.0571 C   0  0  0  0  0  0  0  0  0  0  0  0
    5.2205   -4.9720    0.8850 C   0  0  0  0  0  0  0  0  0  0  0  0
   -7.3997   -2.3837   -2.0163 C   0  0  0  0  0  0  0  0  0  0  0  0
    1.5594    4.8271   -1.1626 H   0  0  0  0  0  0  0  0  0  0  0  0
    1.9520    2.5797    2.4273 H   0  0  0  0  0  0  0  0  0  0  0  0
    1.0025    4.5673    1.2709 H   0  0  0  0  0  0  0  0  0  0  0  0
    2.7367    4.4167    0.9808 H   0  0  0  0  0  0  0  0  0  0  0  0
    2.3867    2.8786   -2.4378 H   0  0  0  0  0  0  0  0  0  0  0  0
    3.5678    3.4869   -1.2772 H   0  0  0  0  0  0  0  0  0  0  0  0
    3.8341    2.1340    0.9376 H   0  0  0  0  0  0  0  0  0  0  0  0
    2.8451    0.6936    1.1430 H   0  0  0  0  0  0  0  0  0  0  0  0
   -0.6240    4.0833   -0.8041 H   0  0  0  0  0  0  0  0  0  0  0  0
   -0.0162    2.9144   -1.9600 H   0  0  0  0  0  0  0  0  0  0  0  0
    4.7443    1.3518   -1.2239 H   0  0  0  0  0  0  0  0  0  0  0  0
    3.6317    0.8004   -2.4763 H   0  0  0  0  0  0  0  0  0  0  0  0
    0.4657    0.7022    2.8919 H   0  0  0  0  0  0  0  0  0  0  0  0
   -1.6558   -0.4093    2.5119 H   0  0  0  0  0  0  0  0  0  0  0  0
    1.6846   -0.8602   -1.0539 H   0  0  0  0  0  0  0  0  0  0  0  0
    5.9656   -0.5565   -0.6073 H   0  0  0  0  0  0  0  0  0  0  0  0
   -4.5548    1.3241    1.5323 H   0  0  0  0  0  0  0  0  0  0  0  0
   -2.4503   -1.7503   -0.6451 H   0  0  0  0  0  0  0  0  0  0  0  0
    1.7622   -3.1635   -0.2049 H   0  0  0  0  0  0  0  0  0  0  0  0
    6.0614   -2.8149    0.2171 H   0  0  0  0  0  0  0  0  0  0  0  0
   -6.6675    0.1352    1.1725 H   0  0  0  0  0  0  0  0  0  0  0  0
   -4.5561   -2.9440   -1.0023 H   0  0  0  0  0  0  0  0  0  0  0  0
    5.6692   -4.4170    1.7158 H   0  0  0  0  0  0  0  0  0  0  0  0
    5.8848   -5.0272    0.0160 H   0  0  0  0  0  0  0  0  0  0  0  0
    5.0641   -5.9981    1.2336 H   0  0  0  0  0  0  0  0  0  0  0  0
   -7.3330   -1.3694   -2.4189 H   0  0  0  0  0  0  0  0  0  0  0  0
   -8.3595   -2.8150   -2.3127 H   0  0  0  0  0  0  0  0  0  0  0  0
   -6.5994   -2.9965   -2.4389 H   0  0  0  0  0  0  0  0  0  0  0  0
  1 29  1  0  0  0  0
  1 31  1  0  0  0  0
  2 15  2  0  0  0  0
  3 26  1  0  0  0  0
  3 30  1  0  0  0  0
  4  9  1  0  0  0  0
  4 10  1  0  0  0  0
  4 13  1  0  0  0  0
  5 11  1  0  0  0  0
  5 12  1  0  0  0  0
  5 15  1  0  0  0  0
  6  8  1  0  0  0  0
  6  9  1  0  0  0  0
  6 11  1  0  0  0  0
  6 32  1  0  0  0  0
  7  8  1  0  0  0  0
  7 10  1  0  0  0  0
  7 12  1  0  0  0  0
  7 33  1  0  0  0  0
  8 34  1  0  0  0  0
  8 35  1  0  0  0  0
  9 36  1  0  0  0  0
  9 37  1  0  0  0  0
 10 38  1  0  0  0  0
 10 39  1  0  0  0  0
 11 40  1  0  0  0  0
 11 41  1  0  0  0  0
 12 14  2  0  0  0  0
 13 18  1  0  0  0  0
 13 42  1  0  0  0  0
 13 43  1  0  0  0  0
 14 17  1  0  0  0  0
 14 44  1  0  0  0  0
 15 16  1  0  0  0  0
 16 17  2  0  0  0  0
 16 19  1  0  0  0  0
 17 45  1  0  0  0  0
 18 20  2  0  0  0  0
 18 21  1  0  0  0  0
 19 22  2  0  0  0  0
 19 23  1  0  0  0  0
 20 24  1  0  0  0  0
 20 46  1  0  0  0  0
 21 25  2  0  0  0  0
 21 47  1  0  0  0  0
 22 27  1  0  0  0  0
 22 48  1  0  0  0  0
 23 28  2  0  0  0  0
 23 49  1  0  0  0  0
 24 26  2  0  0  0  0
 24 50  1  0  0  0  0
 25 26  1  0  0  0  0
 25 51  1  0  0  0  0
 27 29  2  0  0  0  0
 27 52  1  0  0  0  0
 28 29  1  0  0  0  0
 28 53  1  0  0  0  0
 30 54  1  0  0  0  0
 30 55  1  0  0  0  0
 30 56  1  0  0  0  0
 31 57  1  0  0  0  0
 31 58  1  0  0  0  0
 31 59  1  0  0  0  0
M  END
> <PUBCHEM_COMPOUND_CID>
7144017

> <PUBCHEM_CONFORMER_RMSD>
0.8

> <PUBCHEM_CONFORMER_DIVERSEORDER>
1
8
6
7
2
5
4
3
9

> <PUBCHEM_MMFF94_PARTIAL_CHARGES>
39
1 -0.33
10 0.27
11 0.3
12 -0.03
13 0.41
14 -0.15
15 0.62
16 -0.01
17 -0.15
18 -0.14
19 0.03
2 -0.57
20 -0.15
21 -0.15
22 -0.15
23 -0.15
24 -0.15
25 -0.15
26 0.08
27 -0.15
28 -0.15
29 0.1
3 -0.36
30 0.28
31 0.23
4 -0.81
44 0.15
45 0.15
46 0.15
47 0.15
48 0.15
49 0.15
5 -0.47
50 0.15
51 0.15
52 0.15
53 0.15
7 0.14
9 0.27

> <PUBCHEM_EFFECTIVE_ROTOR_COUNT>
6

> <PUBCHEM_PHARMACOPHORE_FEATURES>
9
1 2 acceptor
1 3 acceptor
1 31 hydrophobe
1 4 cation
6 18 20 21 24 25 26 rings
6 19 22 23 27 28 29 rings
6 4 6 7 8 9 10 rings
6 5 12 14 15 16 17 rings
6 5 6 7 8 11 12 rings

> <PUBCHEM_HEAVY_ATOM_COUNT>
31

> <PUBCHEM_ATOM_DEF_STEREO_COUNT>
2

> <PUBCHEM_ATOM_UDEF_STEREO_COUNT>
0

> <PUBCHEM_BOND_DEF_STEREO_COUNT>
0

> <PUBCHEM_BOND_UDEF_STEREO_COUNT>
0

> <PUBCHEM_ISOTOPIC_ATOM_COUNT>
0

> <PUBCHEM_COMPONENT_COUNT>
1

> <PUBCHEM_CACTVS_TAUTO_COUNT>
1

> <PUBCHEM_CONFORMER_ID>
006D025100000001

> <PUBCHEM_MMFF94_ENERGY>
98.6588

> <PUBCHEM_FEATURE_SELFOVERLAP>
47.225

> <PUBCHEM_SHAPE_FINGERPRINT>
10622 236 18341894056844136535
10693767 8 18409722993881624627
11069576 57 18188789270732481590
11135609 149 18265592386640671789
11552529 35 17690846658303246130
11607047 403 18410282615900101962
11796584 16 17416705711633167949
11963148 33 17767397256237681759
12107183 9 18199203793341938785
12147406 95 17969478503374799467
12166972 35 18041852701175424046
12293681 25 18120906479042442700
13533116 47 18129666451679308761
1361 2 18265337389720433601
13631057 29 18266190431473221974
13782708 43 16701184256777707703
13911987 19 17828237533933135876
14068700 675 18202006508014108426
14117953 113 18055361232203650519
14347332 77 18272934943040462841
14866123 147 17906176148794469721
14910700 183 18268137842612758792
15250474 111 18058451070621378559
15475509 35 17988359372897290291
15968369 26 18045492264614106962
17134984 74 18266745872695298631
17324776 126 18118114767069365186
17492 89 18120657929627816794
19026451 147 18410578362261826346
19315092 285 17988646319483189481
19319366 153 17983294017101083261
19958102 18 18267575979322694087
20567600 247 18342178899190745083
20721686 124 18119522395935009184
20775438 99 18192419990754997403
20775530 9 18341051809525279270
21133410 171 17244948611787614362
21360442 33 18409442622743410787
21585483 132 18201426039438674743
21703447 108 17988081204877398249
23523788 1 18194933346045815890
23559900 14 18264494047343781841
23569914 152 17903042610007125863
25222932 49 18343024397915566270
3004659 81 17845669147701747853
345986 75 17846788394582865233
397830 11 10303816527874262639
44344687 77 18113915849028124627
444735 79 18337658721755036586
46194498 28 17822855415001688245
463206 1 18336839636240309506
513532 50 17896591967632239049
5309563 4 18340492179518189580
5951187 136 15141243294699139798
59682541 52 18336823208543926495
70251023 43 18407761451909619441
7808743 9 9477970547452681672
9555976 147 17560534919648860129
9831232 110 18335699503281346239

> <PUBCHEM_SHAPE_MULTIPOLES>
620.11
15.15
5.93
1.52
25.54
2.77
0.06
19.96
-3.67
-9.69
0.18
0.46
-0.47
-2.33

> <PUBCHEM_SHAPE_SELFOVERLAP>
1340.461

> <PUBCHEM_SHAPE_VOLUME>
342.8

> <PUBCHEM_COORDINATE_TYPE>
2
5
10

$$$$
