26742843
  -OEChem-12032416173D

 55 57  0     1  0  0  0  0  0999 V2000
    2.1148    2.6590   -0.0053 O   0  0  0  0  0  0  0  0  0  0  0  0
   -5.7773    0.8654    0.7838 O   0  0  0  0  0  0  0  0  0  0  0  0
    5.4161   -2.7026    0.3156 O   0  0  0  0  0  0  0  0  0  0  0  0
   -3.5169    0.5098    0.3806 N   0  0  0  0  0  0  0  0  0  0  0  0
    1.7549    0.3662   -0.0676 N   0  0  0  0  0  0  0  0  0  0  0  0
    5.4044   -0.3434    0.3488 N   0  0  0  0  0  0  0  0  0  0  0  0
   -5.0451   -1.2924    0.5219 N   0  0  0  0  0  0  0  0  0  0  0  0
    7.2976   -1.4268   -0.2452 N   0  0  0  0  0  0  0  0  0  0  0  0
   -1.3893    0.0711   -0.8606 C   0  0  2  0  0  0  0  0  0  0  0  0
   -1.0155    1.5666   -0.7624 C   0  0  1  0  0  0  0  0  0  0  0  0
   -2.3182    2.3852   -0.7101 C   0  0  0  0  0  0  0  0  0  0  0  0
   -2.3410   -0.3710    0.2709 C   0  0  0  0  0  0  0  0  0  0  0  0
   -0.1815   -0.8727   -0.9948 C   0  0  0  0  0  0  0  0  0  0  0  0
   -0.1047    1.9141    0.4274 C   0  0  0  0  0  0  0  0  0  0  0  0
   -3.2274    1.9452    0.4313 C   0  0  0  0  0  0  0  0  0  0  0  0
    0.8556   -0.7726    0.1194 C   0  0  0  0  0  0  0  0  0  0  0  0
    1.3598    1.6895    0.1023 C   0  0  0  0  0  0  0  0  0  0  0  0
    3.1243    0.0585   -0.4588 C   0  0  0  0  0  0  0  0  0  0  0  0
   -4.8449    0.0824    0.5736 C   0  0  0  0  0  0  0  0  0  0  0  0
    4.0502   -0.0600    0.7401 C   0  0  0  0  0  0  0  0  0  0  0  0
    6.3500    0.7048    0.0079 C   0  0  0  0  0  0  0  0  0  0  0  0
    7.6510   -0.0304   -0.2770 C   0  0  0  0  0  0  0  0  0  0  0  0
    5.9671   -1.6208    0.1607 C   0  0  0  0  0  0  0  0  0  0  0  0
   -6.3491   -1.8882    0.7100 C   0  0  0  0  0  0  0  0  0  0  0  0
   -7.0287   -2.0021   -0.6139 C   0  0  0  0  0  0  0  0  0  0  0  0
   -8.2062   -1.4346   -0.8988 C   0  0  0  0  0  0  0  0  0  0  0  0
   -1.9609   -0.0450   -1.7944 H   0  0  0  0  0  0  0  0  0  0  0  0
   -0.4935    1.8466   -1.6879 H   0  0  0  0  0  0  0  0  0  0  0  0
   -2.8536    2.2594   -1.6603 H   0  0  0  0  0  0  0  0  0  0  0  0
   -2.0956    3.4546   -0.6170 H   0  0  0  0  0  0  0  0  0  0  0  0
   -2.6098   -1.4118    0.1005 H   0  0  0  0  0  0  0  0  0  0  0  0
   -1.8474   -0.3389    1.2479 H   0  0  0  0  0  0  0  0  0  0  0  0
    0.3049   -0.6926   -1.9624 H   0  0  0  0  0  0  0  0  0  0  0  0
   -0.5542   -1.9044   -1.0279 H   0  0  0  0  0  0  0  0  0  0  0  0
   -0.3682    1.3807    1.3449 H   0  0  0  0  0  0  0  0  0  0  0  0
   -0.2024    2.9815    0.6660 H   0  0  0  0  0  0  0  0  0  0  0  0
   -2.7620    2.1467    1.4030 H   0  0  0  0  0  0  0  0  0  0  0  0
   -4.1537    2.5277    0.3959 H   0  0  0  0  0  0  0  0  0  0  0  0
    0.3873   -0.6948    1.1048 H   0  0  0  0  0  0  0  0  0  0  0  0
    1.4550   -1.6907    0.1378 H   0  0  0  0  0  0  0  0  0  0  0  0
    3.1346   -0.8538   -1.0672 H   0  0  0  0  0  0  0  0  0  0  0  0
    3.4828    0.8640   -1.1118 H   0  0  0  0  0  0  0  0  0  0  0  0
    4.0433    0.8523    1.3470 H   0  0  0  0  0  0  0  0  0  0  0  0
    3.7043   -0.8800    1.3806 H   0  0  0  0  0  0  0  0  0  0  0  0
   -4.2994   -1.9343    0.2975 H   0  0  0  0  0  0  0  0  0  0  0  0
    6.4476    1.4069    0.8412 H   0  0  0  0  0  0  0  0  0  0  0  0
    5.9863    1.2361   -0.8772 H   0  0  0  0  0  0  0  0  0  0  0  0
    8.0709    0.2194   -1.2550 H   0  0  0  0  0  0  0  0  0  0  0  0
    8.4021    0.1520    0.4972 H   0  0  0  0  0  0  0  0  0  0  0  0
    7.9426   -2.1849   -0.4441 H   0  0  0  0  0  0  0  0  0  0  0  0
   -6.1979   -2.8848    1.1366 H   0  0  0  0  0  0  0  0  0  0  0  0
   -6.9282   -1.2931    1.4242 H   0  0  0  0  0  0  0  0  0  0  0  0
   -6.5395   -2.5952   -1.3827 H   0  0  0  0  0  0  0  0  0  0  0  0
   -8.6536   -1.5600   -1.8788 H   0  0  0  0  0  0  0  0  0  0  0  0
   -8.7405   -0.8388   -0.1672 H   0  0  0  0  0  0  0  0  0  0  0  0
  1 17  2  0  0  0  0
  2 19  2  0  0  0  0
  3 23  2  0  0  0  0
  4 12  1  0  0  0  0
  4 15  1  0  0  0  0
  4 19  1  0  0  0  0
  5 16  1  0  0  0  0
  5 17  1  0  0  0  0
  5 18  1  0  0  0  0
  6 20  1  0  0  0  0
  6 21  1  0  0  0  0
  6 23  1  0  0  0  0
  7 19  1  0  0  0  0
  7 24  1  0  0  0  0
  7 45  1  0  0  0  0
  8 22  1  0  0  0  0
  8 23  1  0  0  0  0
  8 50  1  0  0  0  0
  9 10  1  0  0  0  0
  9 12  1  0  0  0  0
  9 13  1  0  0  0  0
  9 27  1  0  0  0  0
 10 11  1  0  0  0  0
 10 14  1  0  0  0  0
 10 28  1  0  0  0  0
 11 15  1  0  0  0  0
 11 29  1  0  0  0  0
 11 30  1  0  0  0  0
 12 31  1  0  0  0  0
 12 32  1  0  0  0  0
 13 16  1  0  0  0  0
 13 33  1  0  0  0  0
 13 34  1  0  0  0  0
 14 17  1  0  0  0  0
 14 35  1  0  0  0  0
 14 36  1  0  0  0  0
 15 37  1  0  0  0  0
 15 38  1  0  0  0  0
 16 39  1  0  0  0  0
 16 40  1  0  0  0  0
 18 20  1  0  0  0  0
 18 41  1  0  0  0  0
 18 42  1  0  0  0  0
 20 43  1  0  0  0  0
 20 44  1  0  0  0  0
 21 22  1  0  0  0  0
 21 46  1  0  0  0  0
 21 47  1  0  0  0  0
 22 48  1  0  0  0  0
 22 49  1  0  0  0  0
 24 25  1  0  0  0  0
 24 51  1  0  0  0  0
 24 52  1  0  0  0  0
 25 26  2  0  0  0  0
 25 53  1  0  0  0  0
 26 54  1  0  0  0  0
 26 55  1  0  0  0  0
M  END
> <PUBCHEM_COMPOUND_CID>
26742843

> <PUBCHEM_CONFORMER_RMSD>
1

> <PUBCHEM_CONFORMER_DIVERSEORDER>
1
74
99
32
42
83
56
71
51
63
76
73
75
43
44
104
64
91
102
94
21
33
108
35
88
36
111
86
65
38
68
55
79
22
72
78
47
31
50
66
67
93
57
17
6
87
37
61
11
15
103
60
106
52
62
77
13
4
89
54
101
107
48
82
70
59
25
81
46
39
41
18
109
100
95
16
58
97
53
20
8
40
49
30
19
85
14
26
10
12
24
92
5
112
98
105
27
7
84
90
28
3
29
80
110
34
45
96
23
69
2
9

> <PUBCHEM_MMFF94_PARTIAL_CHARGES>
27
1 -0.57
12 0.3
14 0.06
15 0.3
16 0.3
17 0.57
18 0.3
19 0.69
2 -0.57
20 0.3
21 0.3
22 0.3
23 0.69
24 0.44
25 -0.29
26 -0.3
3 -0.57
4 -0.66
45 0.37
5 -0.66
50 0.37
53 0.15
54 0.15
55 0.15
6 -0.66
7 -0.73
8 -0.73

> <PUBCHEM_EFFECTIVE_ROTOR_COUNT>
9.4

> <PUBCHEM_PHARMACOPHORE_FEATURES>
9
1 1 acceptor
1 2 acceptor
1 26 hydrophobe
1 3 acceptor
1 7 donor
1 8 donor
5 6 8 21 22 23 rings
6 4 9 10 11 12 15 rings
7 5 9 10 13 14 16 17 rings

> <PUBCHEM_HEAVY_ATOM_COUNT>
26

> <PUBCHEM_ATOM_DEF_STEREO_COUNT>
2

> <PUBCHEM_ATOM_UDEF_STEREO_COUNT>
0

> <PUBCHEM_BOND_DEF_STEREO_COUNT>
0

> <PUBCHEM_BOND_UDEF_STEREO_COUNT>
0

> <PUBCHEM_ISOTOPIC_ATOM_COUNT>
0

> <PUBCHEM_COMPONENT_COUNT>
1

> <PUBCHEM_CACTVS_TAUTO_COUNT>
8

> <PUBCHEM_CONFORMER_ID>
0198103B00000001

> <PUBCHEM_MMFF94_ENERGY>
52.0462

> <PUBCHEM_FEATURE_SELFOVERLAP>
45.688

> <PUBCHEM_SHAPE_FINGERPRINT>
10 15 17132113571553399242
10391435 84 18041839648247247595
106641 1 17989203789395651976
11135609 99 18128253588075997831
11315181 36 13623535649314118423
11524674 6 16917348142975459839
11963148 33 18409443678820393694
12166972 35 18130788983851997496
12236239 1 18041001688213404412
12760667 363 18335704953378079865
13685833 64 18411700993587150154
13862211 1 18411983581071199239
14251764 18 18343305889544533814
14955137 171 18272652337896944992
15183329 4 12901540243739556943
17492 89 18120935006711042706
18335252 98 18410576193640523058
20028762 73 18271806856410399399
20105231 36 17918000443727940750
20281389 69 11527953347986097043
21130935 74 18272371940814529410
21267235 1 18411421725801636364
21304304 249 18340205293294655951
23389318 12 18113623425825581436
23522609 53 18121252885034508412
23559900 14 17531534290220999225
2838139 119 10663819654704203355
3009799 131 13118001106315555774
3633792 109 17022900159835302895
465052 167 18338804510731766495
5385378 56 11743852351984542516
563151 248 16702015413620355439
5718773 13 18338796818962765107
5969126 39 18334569145203693093
6081469 158 18113613504778207807
9996256 80 18411982442678259234

> <PUBCHEM_SHAPE_MULTIPOLES>
492.55
21.87
2.54
0.89
2.58
0.39
-0.07
-16.07
-0.11
-0.84
-0.03
-0.71
-0.03
-0.47

> <PUBCHEM_SHAPE_SELFOVERLAP>
1007.049

> <PUBCHEM_SHAPE_VOLUME>
280.7

> <PUBCHEM_COORDINATE_TYPE>
2
5
10

$$$$
