11883016
  -OEChem-12032416173D

 73 76  0     1  0  0  0  0  0999 V2000
   -0.6823    3.1112    0.3029 S   0  0  0  0  0  0  0  0  0  0  0  0
   -7.2220   -1.1010   -0.7537 O   0  0  0  0  0  0  0  0  0  0  0  0
   -7.3723    0.6365    0.8904 O   0  0  0  0  0  0  0  0  0  0  0  0
    1.0226   -1.5097   -1.3975 O   0  0  0  0  0  0  0  0  0  0  0  0
    3.4033    0.9751   -0.2305 O   0  0  0  0  0  0  0  0  0  0  0  0
    5.6542   -1.9205   -2.0879 O   0  0  0  0  0  0  0  0  0  0  0  0
    0.4691    0.8279   -0.0886 N   0  0  0  0  0  0  0  0  0  0  0  0
    1.7577   -2.2729    0.6989 N   0  0  0  0  0  0  0  0  0  0  0  0
    1.9079    2.7514    0.1098 N   0  0  0  0  0  0  0  0  0  0  0  0
   -2.9925   -0.8326    0.2699 C   0  0  2  0  0  0  0  0  0  0  0  0
   -3.7499    0.4364   -0.3229 C   0  0  1  0  0  0  0  0  0  0  0  0
   -5.3267    0.3951   -0.3197 C   0  0  1  0  0  0  0  0  0  0  0  0
   -1.4738   -0.7754   -0.2239 C   0  0  1  0  0  0  0  0  0  0  0  0
   -3.6395   -2.1266   -0.2885 C   0  0  0  0  0  0  0  0  0  0  0  0
   -5.8040   -0.9811   -0.8638 C   0  0  1  0  0  0  0  0  0  0  0  0
   -3.1564    1.7638    0.2328 C   0  0  0  0  0  0  0  0  0  0  0  0
   -5.1553   -2.1652   -0.1556 C   0  0  0  0  0  0  0  0  0  0  0  0
   -3.0291   -0.8863    1.8171 C   0  0  0  0  0  0  0  0  0  0  0  0
   -0.8941    0.6030   -0.0353 C   0  0  0  0  0  0  0  0  0  0  0  0
   -5.9728    0.7000    1.0498 C   0  0  0  0  0  0  0  0  0  0  0  0
   -5.8644    1.4867   -1.2878 C   0  0  0  0  0  0  0  0  0  0  0  0
   -1.6677    1.7307    0.1499 C   0  0  0  0  0  0  0  0  0  0  0  0
   -0.5654   -1.8544    0.3808 C   0  0  0  0  0  0  0  0  0  0  0  0
    0.8184   -1.8485   -0.2365 C   0  0  0  0  0  0  0  0  0  0  0  0
    0.6971    2.1117    0.0846 C   0  0  0  0  0  0  0  0  0  0  0  0
    3.1814    2.1700   -0.0452 C   0  0  0  0  0  0  0  0  0  0  0  0
    3.1550   -2.4070    0.5186 C   0  0  0  0  0  0  0  0  0  0  0  0
    4.3477    3.1873    0.0391 C   0  0  0  0  0  0  0  0  0  0  0  0
    3.7131   -2.0934   -0.7096 C   0  0  0  0  0  0  0  0  0  0  0  0
    3.9348   -2.8481    1.5748 C   0  0  0  0  0  0  0  0  0  0  0  0
    4.1933    4.2630   -1.0476 C   0  0  0  0  0  0  0  0  0  0  0  0
    5.6950    2.4648   -0.1171 C   0  0  0  0  0  0  0  0  0  0  0  0
    4.3251    3.8804    1.4148 C   0  0  0  0  0  0  0  0  0  0  0  0
    5.0903   -2.2249   -0.8868 C   0  0  0  0  0  0  0  0  0  0  0  0
    5.3121   -2.9796    1.3975 C   0  0  0  0  0  0  0  0  0  0  0  0
    5.8899   -2.6679    0.1667 C   0  0  0  0  0  0  0  0  0  0  0  0
   -3.4845    0.4254   -1.3945 H   0  0  0  0  0  0  0  0  0  0  0  0
   -1.4901   -0.9295   -1.3138 H   0  0  0  0  0  0  0  0  0  0  0  0
   -3.3877   -2.2329   -1.3520 H   0  0  0  0  0  0  0  0  0  0  0  0
   -3.2272   -3.0106    0.2122 H   0  0  0  0  0  0  0  0  0  0  0  0
   -5.5609   -1.0567   -1.9324 H   0  0  0  0  0  0  0  0  0  0  0  0
   -3.5302    2.6159   -0.3446 H   0  0  0  0  0  0  0  0  0  0  0  0
   -3.4511    1.9162    1.2765 H   0  0  0  0  0  0  0  0  0  0  0  0
   -5.4605   -2.2035    0.8961 H   0  0  0  0  0  0  0  0  0  0  0  0
   -5.5343   -3.0972   -0.5942 H   0  0  0  0  0  0  0  0  0  0  0  0
   -2.5379   -1.7902    2.1938 H   0  0  0  0  0  0  0  0  0  0  0  0
   -4.0384   -0.9314    2.2183 H   0  0  0  0  0  0  0  0  0  0  0  0
   -2.5274   -0.0312    2.2791 H   0  0  0  0  0  0  0  0  0  0  0  0
   -5.7062    1.6897    1.4335 H   0  0  0  0  0  0  0  0  0  0  0  0
   -5.7205   -0.0329    1.8108 H   0  0  0  0  0  0  0  0  0  0  0  0
   -5.6716    2.4951   -0.9063 H   0  0  0  0  0  0  0  0  0  0  0  0
   -5.3816    1.4085   -2.2690 H   0  0  0  0  0  0  0  0  0  0  0  0
   -6.9420    1.4184   -1.4655 H   0  0  0  0  0  0  0  0  0  0  0  0
   -0.4718   -1.6967    1.4616 H   0  0  0  0  0  0  0  0  0  0  0  0
   -0.9781   -2.8556    0.2206 H   0  0  0  0  0  0  0  0  0  0  0  0
   -7.6247   -0.5616   -1.4540 H   0  0  0  0  0  0  0  0  0  0  0  0
   -7.6838    1.5134    0.6093 H   0  0  0  0  0  0  0  0  0  0  0  0
    1.4233   -2.5302    1.6249 H   0  0  0  0  0  0  0  0  0  0  0  0
    1.8464    3.7542    0.2582 H   0  0  0  0  0  0  0  0  0  0  0  0
    3.1568   -1.7459   -1.5679 H   0  0  0  0  0  0  0  0  0  0  0  0
    3.4952   -3.0931    2.5376 H   0  0  0  0  0  0  0  0  0  0  0  0
    3.2942    4.8724   -0.9083 H   0  0  0  0  0  0  0  0  0  0  0  0
    4.1238    3.8032   -2.0401 H   0  0  0  0  0  0  0  0  0  0  0  0
    5.0518    4.9441   -1.0530 H   0  0  0  0  0  0  0  0  0  0  0  0
    5.8309    1.7028    0.6591 H   0  0  0  0  0  0  0  0  0  0  0  0
    5.7606    1.9596   -1.0877 H   0  0  0  0  0  0  0  0  0  0  0  0
    6.5343    3.1658   -0.0493 H   0  0  0  0  0  0  0  0  0  0  0  0
    4.3461    3.1411    2.2240 H   0  0  0  0  0  0  0  0  0  0  0  0
    5.1915    4.5401    1.5393 H   0  0  0  0  0  0  0  0  0  0  0  0
    3.4279    4.4918    1.5582 H   0  0  0  0  0  0  0  0  0  0  0  0
    5.9348   -3.3243    2.2179 H   0  0  0  0  0  0  0  0  0  0  0  0
    6.9641   -2.7743    0.0417 H   0  0  0  0  0  0  0  0  0  0  0  0
    6.6141   -2.0675   -2.0314 H   0  0  0  0  0  0  0  0  0  0  0  0
  1 22  1  0  0  0  0
  1 25  1  0  0  0  0
  2 15  1  0  0  0  0
  2 56  1  0  0  0  0
  3 20  1  0  0  0  0
  3 57  1  0  0  0  0
  4 24  2  0  0  0  0
  5 26  2  0  0  0  0
  6 34  1  0  0  0  0
  6 73  1  0  0  0  0
  7 19  1  0  0  0  0
  7 25  2  0  0  0  0
  8 24  1  0  0  0  0
  8 27  1  0  0  0  0
  8 58  1  0  0  0  0
  9 25  1  0  0  0  0
  9 26  1  0  0  0  0
  9 59  1  0  0  0  0
 10 11  1  0  0  0  0
 10 13  1  0  0  0  0
 10 14  1  0  0  0  0
 10 18  1  0  0  0  0
 11 12  1  0  0  0  0
 11 16  1  0  0  0  0
 11 37  1  0  0  0  0
 12 15  1  0  0  0  0
 12 20  1  0  0  0  0
 12 21  1  0  0  0  0
 13 19  1  0  0  0  0
 13 23  1  0  0  0  0
 13 38  1  0  0  0  0
 14 17  1  0  0  0  0
 14 39  1  0  0  0  0
 14 40  1  0  0  0  0
 15 17  1  0  0  0  0
 15 41  1  0  0  0  0
 16 22  1  0  0  0  0
 16 42  1  0  0  0  0
 16 43  1  0  0  0  0
 17 44  1  0  0  0  0
 17 45  1  0  0  0  0
 18 46  1  0  0  0  0
 18 47  1  0  0  0  0
 18 48  1  0  0  0  0
 19 22  2  0  0  0  0
 20 49  1  0  0  0  0
 20 50  1  0  0  0  0
 21 51  1  0  0  0  0
 21 52  1  0  0  0  0
 21 53  1  0  0  0  0
 23 24  1  0  0  0  0
 23 54  1  0  0  0  0
 23 55  1  0  0  0  0
 26 28  1  0  0  0  0
 27 29  2  0  0  0  0
 27 30  1  0  0  0  0
 28 31  1  0  0  0  0
 28 32  1  0  0  0  0
 28 33  1  0  0  0  0
 29 34  1  0  0  0  0
 29 60  1  0  0  0  0
 30 35  2  0  0  0  0
 30 61  1  0  0  0  0
 31 62  1  0  0  0  0
 31 63  1  0  0  0  0
 31 64  1  0  0  0  0
 32 65  1  0  0  0  0
 32 66  1  0  0  0  0
 32 67  1  0  0  0  0
 33 68  1  0  0  0  0
 33 69  1  0  0  0  0
 33 70  1  0  0  0  0
 34 36  2  0  0  0  0
 35 36  1  0  0  0  0
 35 71  1  0  0  0  0
 36 72  1  0  0  0  0
M  END
> <PUBCHEM_COMPOUND_CID>
11883016

> <PUBCHEM_CONFORMER_RMSD>
1

> <PUBCHEM_CONFORMER_DIVERSEORDER>
1
20
18
10
5
7
12
4
14
15
17
11
8
16
3
19
13
9
2
6
21

> <PUBCHEM_MMFF94_PARTIAL_CHARGES>
35
1 -0.08
13 0.18
15 0.28
16 0.18
19 0.05
2 -0.68
20 0.28
22 -0.14
23 0.06
24 0.57
25 0.44
26 0.57
27 0.12
28 0.06
29 -0.15
3 -0.68
30 -0.15
34 0.08
35 -0.15
36 -0.15
4 -0.57
5 -0.57
56 0.4
57 0.4
58 0.37
59 0.37
6 -0.53
60 0.15
61 0.15
7 -0.57
71 0.15
72 0.15
73 0.45
8 -0.55
9 -0.49

> <PUBCHEM_EFFECTIVE_ROTOR_COUNT>
9.2

> <PUBCHEM_PHARMACOPHORE_FEATURES>
14
1 2 acceptor
1 2 donor
1 3 acceptor
1 3 donor
1 4 acceptor
1 5 acceptor
1 6 donor
1 8 donor
1 9 donor
4 28 31 32 33 hydrophobe
5 1 7 19 22 25 rings
6 10 11 12 14 15 17 rings
6 10 11 13 16 19 22 rings
6 27 29 30 34 35 36 rings

> <PUBCHEM_HEAVY_ATOM_COUNT>
36

> <PUBCHEM_ATOM_DEF_STEREO_COUNT>
5

> <PUBCHEM_ATOM_UDEF_STEREO_COUNT>
0

> <PUBCHEM_BOND_DEF_STEREO_COUNT>
0

> <PUBCHEM_BOND_UDEF_STEREO_COUNT>
0

> <PUBCHEM_ISOTOPIC_ATOM_COUNT>
0

> <PUBCHEM_COMPONENT_COUNT>
1

> <PUBCHEM_CACTVS_TAUTO_COUNT>
39

> <PUBCHEM_CONFORMER_ID>
00B5520800000001

> <PUBCHEM_MMFF94_ENERGY>
124.1587

> <PUBCHEM_FEATURE_SELFOVERLAP>
71.193

> <PUBCHEM_SHAPE_FINGERPRINT>
10050765 1 18337952389763857739
10675989 125 18266746955666042668
1100329 8 18123190108610702352
11135926 11 18337382854871477285
11963148 33 17977938313665470503
12107698 1 18338796715092077538
12166972 35 17895199852624999055
12677640 9 17982731879309165504
12788726 201 18045780083505141363
12977781 61 17677347132707870299
131258 43 17345773889206620812
13533116 47 18412825793766626392
13782708 43 17968092006644010123
140371 6 18127977395164579979
14068700 675 18339919303700194514
14849402 71 18335141999219426788
14931854 50 18264232287158283366
15001296 14 18409163341808783346
15400415 2 17832986422725935228
15927050 60 18123750013806805118
16067689 134 17764032359239636837
16067689 302 18267870665461161951
16112460 7 18341905073724862649
19841028 212 18338791321758372419
20609170 92 18187068547123699589
20642791 35 18410579491885457390
20721686 56 18408324393478626530
20771845 171 17968379064629923660
21133665 82 17978794838393915476
21279426 13 18408317770728765861
21360443 120 18189898789671077396
21781055 127 16773253807899333339
22311459 1 18266177236775181811
23559900 14 18340477890067089339
244849 19 17749968759310500771
24771293 8 18200864102954233186
24771750 20 18262533596668113956
3298306 158 18267585895769346220
335352 9 18338793400505914365
3411729 13 18338515352306431076
4073 2 18191028004785763769
4093350 32 17489596657774339356
469060 322 18125164827473248602
5104073 3 18410582799242313059
5776283 40 18194135234275894108
58083652 198 18410856547889284681
59755656 215 18337110176383291236
67856867 119 18410289215972040063

> <PUBCHEM_SHAPE_MULTIPOLES>
700.42
17.08
5.13
1.26
11.98
2.9
-0.06
-3.12
1.31
-10.48
-0.46
-0.6
-0.38
-0.33

> <PUBCHEM_SHAPE_SELFOVERLAP>
1480.402

> <PUBCHEM_SHAPE_VOLUME>
396.3

> <PUBCHEM_COORDINATE_TYPE>
2
5
10

$$$$
