7114634
  -OEChem-12032416233D

 67 69  0     1  0  0  0  0  0999 V2000
   -2.0936   -0.4102    1.3589 O   0  0  0  0  0  0  0  0  0  0  0  0
   -4.4693    2.8673    1.5982 O   0  0  0  0  0  0  0  0  0  0  0  0
   -6.1815    1.9588   -0.0193 O   0  0  0  0  0  0  0  0  0  0  0  0
    2.9679    2.3363    1.0551 O   0  0  0  0  0  0  0  0  0  0  0  0
   -1.9486   -4.6709    0.1088 O   0  0  0  0  0  0  0  0  0  0  0  0
    4.9718    3.5258   -0.2926 O   0  0  0  0  0  0  0  0  0  0  0  0
   -3.2553   -3.0509   -0.8690 O   0  0  0  0  0  0  0  0  0  0  0  0
   -2.5897    2.0057    0.5278 N   0  0  0  0  0  0  0  0  0  0  0  0
    1.4262    2.8104   -0.6213 N   0  0  0  0  0  0  0  0  0  0  0  0
   -1.2683   -1.1622   -0.6837 N   0  0  0  0  0  0  0  0  0  0  0  0
    3.0719   -0.7567   -1.3321 N   0  0  0  0  0  0  0  0  0  0  0  0
    0.2745    2.1983   -0.0039 C   0  0  2  0  0  0  0  0  0  0  0  0
   -1.9928    1.1127   -0.4786 C   0  0  1  0  0  0  0  0  0  0  0  0
   -0.6862    1.6531   -1.0643 C   0  0  0  0  0  0  0  0  0  0  0  0
   -0.4458    3.1967    0.8997 C   0  0  0  0  0  0  0  0  0  0  0  0
   -1.6781    2.5649    1.5332 C   0  0  0  0  0  0  0  0  0  0  0  0
   -1.8062   -0.2231    0.1796 C   0  0  0  0  0  0  0  0  0  0  0  0
   -3.9645    2.2267    0.6722 C   0  0  0  0  0  0  0  0  0  0  0  0
   -0.9701   -2.5199   -0.2887 C   0  0  2  0  0  0  0  0  0  0  0  0
    2.6829    2.8267   -0.0341 C   0  0  0  0  0  0  0  0  0  0  0  0
   -4.8621    1.6432   -0.3908 C   0  0  0  0  0  0  0  0  0  0  0  0
    0.2370   -3.0855   -1.0520 C   0  0  0  0  0  0  0  0  0  0  0  0
    1.4956   -2.2677   -0.9331 C   0  0  0  0  0  0  0  0  0  0  0  0
    3.6996    3.5341   -0.9046 C   0  0  0  0  0  0  0  0  0  0  0  0
   -2.1887   -3.4278   -0.3945 C   0  0  0  0  0  0  0  0  0  0  0  0
    2.5075   -2.4082    0.0575 C   0  0  0  0  0  0  0  0  0  0  0  0
    1.8710   -1.2444   -1.7728 C   0  0  0  0  0  0  0  0  0  0  0  0
    3.4845   -1.4485   -0.2156 C   0  0  0  0  0  0  0  0  0  0  0  0
    2.6863   -3.2624    1.1638 C   0  0  0  0  0  0  0  0  0  0  0  0
    4.6361   -1.2997    0.5654 C   0  0  0  0  0  0  0  0  0  0  0  0
   -7.1363    1.4574   -0.9534 C   0  0  0  0  0  0  0  0  0  0  0  0
    3.8334   -3.1251    1.9539 C   0  0  0  0  0  0  0  0  0  0  0  0
    4.7921   -2.1581    1.6575 C   0  0  0  0  0  0  0  0  0  0  0  0
   -3.0508   -5.5828    0.0641 C   0  0  0  0  0  0  0  0  0  0  0  0
    5.9498    4.1859   -1.0911 C   0  0  0  0  0  0  0  0  0  0  0  0
    0.6316    1.3623    0.6114 H   0  0  0  0  0  0  0  0  0  0  0  0
   -2.6901    0.9606   -1.3077 H   0  0  0  0  0  0  0  0  0  0  0  0
   -0.1705    0.9207   -1.6923 H   0  0  0  0  0  0  0  0  0  0  0  0
   -0.9472    2.4783   -1.7432 H   0  0  0  0  0  0  0  0  0  0  0  0
   -0.7442    4.0777    0.3162 H   0  0  0  0  0  0  0  0  0  0  0  0
    0.2281    3.5559    1.6867 H   0  0  0  0  0  0  0  0  0  0  0  0
   -1.3845    1.7664    2.2224 H   0  0  0  0  0  0  0  0  0  0  0  0
   -2.1958    3.3201    2.1342 H   0  0  0  0  0  0  0  0  0  0  0  0
    1.2918    3.2994   -1.5020 H   0  0  0  0  0  0  0  0  0  0  0  0
   -1.1915   -0.9389   -1.6714 H   0  0  0  0  0  0  0  0  0  0  0  0
   -0.7228   -2.4836    0.7812 H   0  0  0  0  0  0  0  0  0  0  0  0
   -4.6245    2.0983   -1.3577 H   0  0  0  0  0  0  0  0  0  0  0  0
   -4.7368    0.5563   -0.4246 H   0  0  0  0  0  0  0  0  0  0  0  0
    0.4474   -4.1094   -0.7180 H   0  0  0  0  0  0  0  0  0  0  0  0
   -0.0208   -3.1744   -2.1167 H   0  0  0  0  0  0  0  0  0  0  0  0
    3.3657    4.5669   -1.0584 H   0  0  0  0  0  0  0  0  0  0  0  0
    3.7471    3.0181   -1.8707 H   0  0  0  0  0  0  0  0  0  0  0  0
    1.3953   -0.8210   -2.6464 H   0  0  0  0  0  0  0  0  0  0  0  0
    3.5815    0.0027   -1.7624 H   0  0  0  0  0  0  0  0  0  0  0  0
    1.9480   -4.0203    1.4096 H   0  0  0  0  0  0  0  0  0  0  0  0
    5.3822   -0.5463    0.3359 H   0  0  0  0  0  0  0  0  0  0  0  0
   -8.1346    1.7369   -0.6067 H   0  0  0  0  0  0  0  0  0  0  0  0
   -7.0760    0.3664   -1.0107 H   0  0  0  0  0  0  0  0  0  0  0  0
   -6.9703    1.8981   -1.9410 H   0  0  0  0  0  0  0  0  0  0  0  0
    3.9765   -3.7807    2.8088 H   0  0  0  0  0  0  0  0  0  0  0  0
    5.6752   -2.0685    2.2849 H   0  0  0  0  0  0  0  0  0  0  0  0
   -3.8860   -5.1969    0.6563 H   0  0  0  0  0  0  0  0  0  0  0  0
   -3.3577   -5.7553   -0.9719 H   0  0  0  0  0  0  0  0  0  0  0  0
   -2.7239   -6.5324    0.4960 H   0  0  0  0  0  0  0  0  0  0  0  0
    6.9071    4.1452   -0.5648 H   0  0  0  0  0  0  0  0  0  0  0  0
    5.6759    5.2347   -1.2409 H   0  0  0  0  0  0  0  0  0  0  0  0
    6.0582    3.6816   -2.0562 H   0  0  0  0  0  0  0  0  0  0  0  0
  1 17  2  0  0  0  0
  2 18  2  0  0  0  0
  3 21  1  0  0  0  0
  3 31  1  0  0  0  0
  4 20  2  0  0  0  0
  5 25  1  0  0  0  0
  5 34  1  0  0  0  0
  6 24  1  0  0  0  0
  6 35  1  0  0  0  0
  7 25  2  0  0  0  0
  8 13  1  0  0  0  0
  8 16  1  0  0  0  0
  8 18  1  0  0  0  0
  9 12  1  0  0  0  0
  9 20  1  0  0  0  0
  9 44  1  0  0  0  0
 10 17  1  0  0  0  0
 10 19  1  0  0  0  0
 10 45  1  0  0  0  0
 11 27  1  0  0  0  0
 11 28  1  0  0  0  0
 11 54  1  0  0  0  0
 12 14  1  0  0  0  0
 12 15  1  0  0  0  0
 12 36  1  0  0  0  0
 13 14  1  0  0  0  0
 13 17  1  0  0  0  0
 13 37  1  0  0  0  0
 14 38  1  0  0  0  0
 14 39  1  0  0  0  0
 15 16  1  0  0  0  0
 15 40  1  0  0  0  0
 15 41  1  0  0  0  0
 16 42  1  0  0  0  0
 16 43  1  0  0  0  0
 18 21  1  0  0  0  0
 19 22  1  0  0  0  0
 19 25  1  0  0  0  0
 19 46  1  0  0  0  0
 20 24  1  0  0  0  0
 21 47  1  0  0  0  0
 21 48  1  0  0  0  0
 22 23  1  0  0  0  0
 22 49  1  0  0  0  0
 22 50  1  0  0  0  0
 23 26  1  0  0  0  0
 23 27  2  0  0  0  0
 24 51  1  0  0  0  0
 24 52  1  0  0  0  0
 26 28  1  0  0  0  0
 26 29  2  0  0  0  0
 27 53  1  0  0  0  0
 28 30  2  0  0  0  0
 29 32  1  0  0  0  0
 29 55  1  0  0  0  0
 30 33  1  0  0  0  0
 30 56  1  0  0  0  0
 31 57  1  0  0  0  0
 31 58  1  0  0  0  0
 31 59  1  0  0  0  0
 32 33  2  0  0  0  0
 32 60  1  0  0  0  0
 33 61  1  0  0  0  0
 34 62  1  0  0  0  0
 34 63  1  0  0  0  0
 34 64  1  0  0  0  0
 35 65  1  0  0  0  0
 35 66  1  0  0  0  0
 35 67  1  0  0  0  0
M  END
> <PUBCHEM_COMPOUND_CID>
7114634

> <PUBCHEM_CONFORMER_RMSD>
1.2

> <PUBCHEM_CONFORMER_DIVERSEORDER>
1
17
15
39
38
55
24
4
44
11
6
31
35
16
56
2
27
41
50
59
13
22
23
28
19
30
40
48
34
63
20
10
65
62
26
9
12
47
57
46
21
36
29
37
42
51
5
54
49
8
66
52
33
43
18
45
25
32
3
58
60
7
61
64
53
14

> <PUBCHEM_MMFF94_PARTIAL_CHARGES>
40
1 -0.57
10 -0.73
11 0.03
12 0.3
13 0.36
16 0.3
17 0.57
18 0.57
19 0.36
2 -0.57
20 0.57
21 0.34
22 0.18
23 -0.18
24 0.34
25 0.66
27 -0.3
28 -0.15
29 -0.15
3 -0.56
30 -0.15
31 0.28
32 -0.15
33 -0.15
34 0.28
35 0.28
4 -0.57
44 0.37
45 0.37
5 -0.43
53 0.15
54 0.27
55 0.15
56 0.15
6 -0.56
60 0.15
61 0.15
7 -0.57
8 -0.66
9 -0.73

> <PUBCHEM_EFFECTIVE_ROTOR_COUNT>
15.2

> <PUBCHEM_PHARMACOPHORE_FEATURES>
13
1 1 acceptor
1 10 donor
1 11 cation
1 11 donor
1 2 acceptor
1 3 acceptor
1 4 acceptor
1 6 acceptor
1 7 acceptor
1 9 donor
5 11 23 26 27 28 rings
6 26 28 29 30 32 33 rings
6 8 12 13 14 15 16 rings

> <PUBCHEM_HEAVY_ATOM_COUNT>
35

> <PUBCHEM_ATOM_DEF_STEREO_COUNT>
3

> <PUBCHEM_ATOM_UDEF_STEREO_COUNT>
0

> <PUBCHEM_BOND_DEF_STEREO_COUNT>
0

> <PUBCHEM_BOND_UDEF_STEREO_COUNT>
0

> <PUBCHEM_ISOTOPIC_ATOM_COUNT>
0

> <PUBCHEM_COMPONENT_COUNT>
1

> <PUBCHEM_CACTVS_TAUTO_COUNT>
4

> <PUBCHEM_CONFORMER_ID>
006C8F8A00000001

> <PUBCHEM_MMFF94_ENERGY>
71.5634

> <PUBCHEM_FEATURE_SELFOVERLAP>
66.09

> <PUBCHEM_SHAPE_FINGERPRINT>
10006869 2 18198057191001808030
1100329 8 18411976940893673007
11578080 2 17534872433329999422
12440605 4 18265623254201538579
12608794 3 18191286226661841183
13140716 1 18412820304977295878
1361 2 18196091049821071563
15351339 4 18193831781117176858
15927050 60 18340492273965317685
17627616 140 18263927803809645400
19319366 153 17751093431326772586
19930381 70 17835807391572745145
20028762 73 18129655276190372303
20764821 26 18412258445565694571
22113638 7 18265893558157942830
25019877 29 17272828940848876302
283562 15 17905893934729488312
469060 322 17764313838193946809
6669772 16 18187366536492054529

> <PUBCHEM_SHAPE_MULTIPOLES>
659.27
11.73
7.69
1.47
7.39
3.61
0.29
-8.13
0.29
-2.47
-0.04
-0.79
0.1
-3.35

> <PUBCHEM_SHAPE_SELFOVERLAP>
1375.884

> <PUBCHEM_SHAPE_VOLUME>
371.7

> <PUBCHEM_COORDINATE_TYPE>
2
5
10

$$$$
