26742025
  -OEChem-12032416223D

 69 72  0     1  0  0  0  0  0999 V2000
    4.5963    1.7750    2.6700 O   0  0  0  0  0  0  0  0  0  0  0  0
   -7.7885   -2.1213    0.7617 O   0  0  0  0  0  0  0  0  0  0  0  0
    3.7259   -3.2470   -0.3758 O   0  0  0  0  0  0  0  0  0  0  0  0
    2.8719    3.0819   -1.1520 O   0  0  0  0  0  0  0  0  0  0  0  0
   -3.3691    2.4653   -0.3113 O   0  0  0  0  0  0  0  0  0  0  0  0
    4.7762   -1.1923   -0.5133 N   0  0  0  0  0  0  0  0  0  0  0  0
    2.8465    1.2741    0.2987 N   0  0  0  0  0  0  0  0  0  0  0  0
   -6.1155    0.1758    0.5995 N   0  0  0  0  0  0  0  0  0  0  0  0
    2.5508   -1.4518   -1.2664 N   0  0  0  0  0  0  0  0  0  0  0  0
    4.2849    1.1102    0.3824 C   0  0  1  0  0  0  0  0  0  0  0  0
    4.6527    0.6359    1.8004 C   0  0  1  0  0  0  0  0  0  0  0  0
    6.0472    0.0216    1.9561 C   0  0  0  0  0  0  0  0  0  0  0  0
    4.7990    0.2522   -0.7806 C   0  0  0  0  0  0  0  0  0  0  0  0
    6.1026   -1.4593    1.5743 C   0  0  0  0  0  0  0  0  0  0  0  0
    6.0030   -1.7300    0.0781 C   0  0  0  0  0  0  0  0  0  0  0  0
    3.6719   -2.0581   -0.7001 C   0  0  0  0  0  0  0  0  0  0  0  0
    2.2614    2.2605   -0.4730 C   0  0  0  0  0  0  0  0  0  0  0  0
   -5.6225   -1.1609    0.2390 C   0  0  0  0  0  0  0  0  0  0  0  0
   -7.5626    0.2604    0.3591 C   0  0  0  0  0  0  0  0  0  0  0  0
    0.7774    2.3130   -0.4310 C   0  0  0  0  0  0  0  0  0  0  0  0
   -5.4038    1.2104   -0.1481 C   0  0  0  0  0  0  0  0  0  0  0  0
   -6.3880   -2.2240    1.0218 C   0  0  0  0  0  0  0  0  0  0  0  0
   -8.2820   -0.8356    1.1399 C   0  0  0  0  0  0  0  0  0  0  0  0
   -4.0328    1.4637    0.4583 C   0  0  0  0  0  0  0  0  0  0  0  0
    1.1870   -1.7867   -1.0708 C   0  0  0  0  0  0  0  0  0  0  0  0
    0.0667    2.8266   -1.5159 C   0  0  0  0  0  0  0  0  0  0  0  0
    0.0946    1.8507    0.6940 C   0  0  0  0  0  0  0  0  0  0  0  0
   -2.0092    2.4157   -0.3507 C   0  0  0  0  0  0  0  0  0  0  0  0
   -1.3265    2.8779   -1.4758 C   0  0  0  0  0  0  0  0  0  0  0  0
   -1.2988    1.9021    0.7342 C   0  0  0  0  0  0  0  0  0  0  0  0
    0.1909   -1.0631   -1.7265 C   0  0  0  0  0  0  0  0  0  0  0  0
    0.8411   -2.8390   -0.2232 C   0  0  0  0  0  0  0  0  0  0  0  0
   -1.1511   -1.3918   -1.5345 C   0  0  0  0  0  0  0  0  0  0  0  0
   -0.5009   -3.1679   -0.0314 C   0  0  0  0  0  0  0  0  0  0  0  0
   -1.4969   -2.4442   -0.6870 C   0  0  0  0  0  0  0  0  0  0  0  0
    4.7094    2.1136    0.2394 H   0  0  0  0  0  0  0  0  0  0  0  0
    3.9006   -0.0723    2.1712 H   0  0  0  0  0  0  0  0  0  0  0  0
    6.3572    0.1006    3.0066 H   0  0  0  0  0  0  0  0  0  0  0  0
    6.7890    0.5992    1.3910 H   0  0  0  0  0  0  0  0  0  0  0  0
    4.2536    0.4704   -1.7035 H   0  0  0  0  0  0  0  0  0  0  0  0
    5.8383    0.5318   -0.9950 H   0  0  0  0  0  0  0  0  0  0  0  0
    7.0528   -1.8745    1.9320 H   0  0  0  0  0  0  0  0  0  0  0  0
    5.3082   -2.0017    2.1020 H   0  0  0  0  0  0  0  0  0  0  0  0
    6.8646   -1.3066   -0.4511 H   0  0  0  0  0  0  0  0  0  0  0  0
    6.0457   -2.8127   -0.0854 H   0  0  0  0  0  0  0  0  0  0  0  0
    2.2726    0.5635    0.7411 H   0  0  0  0  0  0  0  0  0  0  0  0
    4.6997    1.4548    3.5823 H   0  0  0  0  0  0  0  0  0  0  0  0
   -4.5602   -1.2755    0.4729 H   0  0  0  0  0  0  0  0  0  0  0  0
   -5.7542   -1.3390   -0.8363 H   0  0  0  0  0  0  0  0  0  0  0  0
   -7.7763    0.1482   -0.7119 H   0  0  0  0  0  0  0  0  0  0  0  0
   -7.9480    1.2339    0.6832 H   0  0  0  0  0  0  0  0  0  0  0  0
    2.6960   -0.6333   -1.8472 H   0  0  0  0  0  0  0  0  0  0  0  0
   -5.9531    2.1608   -0.1048 H   0  0  0  0  0  0  0  0  0  0  0  0
   -5.3218    0.9707   -1.2167 H   0  0  0  0  0  0  0  0  0  0  0  0
   -6.2087   -2.1400    2.1007 H   0  0  0  0  0  0  0  0  0  0  0  0
   -6.0645   -3.2221    0.7093 H   0  0  0  0  0  0  0  0  0  0  0  0
   -9.3532   -0.8114    0.9153 H   0  0  0  0  0  0  0  0  0  0  0  0
   -8.1672   -0.7034    2.2227 H   0  0  0  0  0  0  0  0  0  0  0  0
   -3.4552    0.5329    0.4501 H   0  0  0  0  0  0  0  0  0  0  0  0
   -4.1336    1.8180    1.4913 H   0  0  0  0  0  0  0  0  0  0  0  0
    0.5809    3.1864   -2.4033 H   0  0  0  0  0  0  0  0  0  0  0  0
    0.6116    1.4763    1.5728 H   0  0  0  0  0  0  0  0  0  0  0  0
   -1.8750    3.2772   -2.3246 H   0  0  0  0  0  0  0  0  0  0  0  0
   -1.7892    1.5640    1.6423 H   0  0  0  0  0  0  0  0  0  0  0  0
    0.4472   -0.2459   -2.3953 H   0  0  0  0  0  0  0  0  0  0  0  0
    1.5681   -3.4196    0.3313 H   0  0  0  0  0  0  0  0  0  0  0  0
   -1.9270   -0.8280   -2.0443 H   0  0  0  0  0  0  0  0  0  0  0  0
   -0.7716   -3.9834    0.6330 H   0  0  0  0  0  0  0  0  0  0  0  0
   -2.5417   -2.6995   -0.5367 H   0  0  0  0  0  0  0  0  0  0  0  0
  1 11  1  0  0  0  0
  1 47  1  0  0  0  0
  2 22  1  0  0  0  0
  2 23  1  0  0  0  0
  3 16  2  0  0  0  0
  4 17  2  0  0  0  0
  5 24  1  0  0  0  0
  5 28  1  0  0  0  0
  6 13  1  0  0  0  0
  6 15  1  0  0  0  0
  6 16  1  0  0  0  0
  7 10  1  0  0  0  0
  7 17  1  0  0  0  0
  7 46  1  0  0  0  0
  8 18  1  0  0  0  0
  8 19  1  0  0  0  0
  8 21  1  0  0  0  0
  9 16  1  0  0  0  0
  9 25  1  0  0  0  0
  9 52  1  0  0  0  0
 10 11  1  0  0  0  0
 10 13  1  0  0  0  0
 10 36  1  0  0  0  0
 11 12  1  0  0  0  0
 11 37  1  0  0  0  0
 12 14  1  0  0  0  0
 12 38  1  0  0  0  0
 12 39  1  0  0  0  0
 13 40  1  0  0  0  0
 13 41  1  0  0  0  0
 14 15  1  0  0  0  0
 14 42  1  0  0  0  0
 14 43  1  0  0  0  0
 15 44  1  0  0  0  0
 15 45  1  0  0  0  0
 17 20  1  0  0  0  0
 18 22  1  0  0  0  0
 18 48  1  0  0  0  0
 18 49  1  0  0  0  0
 19 23  1  0  0  0  0
 19 50  1  0  0  0  0
 19 51  1  0  0  0  0
 20 26  2  0  0  0  0
 20 27  1  0  0  0  0
 21 24  1  0  0  0  0
 21 53  1  0  0  0  0
 21 54  1  0  0  0  0
 22 55  1  0  0  0  0
 22 56  1  0  0  0  0
 23 57  1  0  0  0  0
 23 58  1  0  0  0  0
 24 59  1  0  0  0  0
 24 60  1  0  0  0  0
 25 31  2  0  0  0  0
 25 32  1  0  0  0  0
 26 29  1  0  0  0  0
 26 61  1  0  0  0  0
 27 30  2  0  0  0  0
 27 62  1  0  0  0  0
 28 29  2  0  0  0  0
 28 30  1  0  0  0  0
 29 63  1  0  0  0  0
 30 64  1  0  0  0  0
 31 33  1  0  0  0  0
 31 65  1  0  0  0  0
 32 34  2  0  0  0  0
 32 66  1  0  0  0  0
 33 35  2  0  0  0  0
 33 67  1  0  0  0  0
 34 35  1  0  0  0  0
 34 68  1  0  0  0  0
 35 69  1  0  0  0  0
M  END
> <PUBCHEM_COMPOUND_CID>
26742025

> <PUBCHEM_CONFORMER_RMSD>
1.2

> <PUBCHEM_CONFORMER_DIVERSEORDER>
1
63
23
72
57
89
67
16
101
53
77
25
86
96
2
73
90
43
75
60
83
32
55
61
81
15
56
88
4
58
6
94
38
44
100
42
79
27
54
51
87
37
84
40
12
95
70
20
71
103
85
18
68
31
91
102
66
7
98
39
59
48
80
93
9
49
97
74
50
82
35
19
10
22
45
78
28
29
62
36
99
30
21
34
52
11
69
26
24
3
65
17
64
41
46
92
8
14
5
47
33
13
76

> <PUBCHEM_MMFF94_PARTIAL_CHARGES>
45
1 -0.68
10 0.3
11 0.28
13 0.3
15 0.3
16 0.69
17 0.54
18 0.27
19 0.27
2 -0.56
20 0.09
21 0.27
22 0.28
23 0.28
24 0.28
25 0.12
26 -0.15
27 -0.15
28 0.08
29 -0.15
3 -0.57
30 -0.15
31 -0.15
32 -0.15
33 -0.15
34 -0.15
35 -0.15
4 -0.57
46 0.37
47 0.4
5 -0.36
52 0.37
6 -0.66
61 0.15
62 0.15
63 0.15
64 0.15
65 0.15
66 0.15
67 0.15
68 0.15
69 0.15
7 -0.73
8 -0.81
9 -0.55

> <PUBCHEM_EFFECTIVE_ROTOR_COUNT>
12.6

> <PUBCHEM_PHARMACOPHORE_FEATURES>
13
1 1 acceptor
1 1 donor
1 2 acceptor
1 3 acceptor
1 4 acceptor
1 5 acceptor
1 7 donor
1 8 cation
1 9 donor
6 2 8 18 19 22 23 rings
6 20 26 27 28 29 30 rings
6 25 31 32 33 34 35 rings
7 6 10 11 12 13 14 15 rings

> <PUBCHEM_HEAVY_ATOM_COUNT>
35

> <PUBCHEM_ATOM_DEF_STEREO_COUNT>
2

> <PUBCHEM_ATOM_UDEF_STEREO_COUNT>
0

> <PUBCHEM_BOND_DEF_STEREO_COUNT>
0

> <PUBCHEM_BOND_UDEF_STEREO_COUNT>
0

> <PUBCHEM_ISOTOPIC_ATOM_COUNT>
0

> <PUBCHEM_COMPONENT_COUNT>
1

> <PUBCHEM_CACTVS_TAUTO_COUNT>
4

> <PUBCHEM_CONFORMER_ID>
01980D0900000001

> <PUBCHEM_MMFF94_ENERGY>
95.6459

> <PUBCHEM_FEATURE_SELFOVERLAP>
65.975

> <PUBCHEM_SHAPE_FINGERPRINT>
10190108 129 18336550429995671651
10316853 100 18410580582231780298
10864689 126 17979361859015438919
10939801 23 18265050426324787976
11578080 2 16987417897747782906
11963148 33 18115301176921471858
12422481 6 18343016722386832531
13561361 72 18409162203932236554
13811026 1 18408321082570498347
13947930 73 17750246962050217443
15968369 153 18202565094475903141
18608769 82 18413108347212404806
20721686 56 18409735101816301747
21197605 99 18342179985374690782
21304304 249 18334860519689357519
21585482 310 17895491301496595611
338550 245 18410294730673183796
354706 109 18268131107766077537
373842 8 18336553823599772339
392239 28 18340495456699646535
4093350 32 16702029647178708775
4340502 62 17846495937143052792
484989 97 18268719316348657694
563151 248 17489581281796746917

> <PUBCHEM_SHAPE_MULTIPOLES>
671.01
18.64
4.27
1.67
27.76
0.04
-0.44
-8.36
-11.04
-0.2
1.12
-1.84
0.29
1.51

> <PUBCHEM_SHAPE_SELFOVERLAP>
1408.986

> <PUBCHEM_SHAPE_VOLUME>
373.6

> <PUBCHEM_COORDINATE_TYPE>
2
5
10

$$$$
