75536587
  -OEChem-12032416343D

 44 45  0     1  0  0  0  0  0999 V2000
    1.8023   -0.9507   -0.6107 O   0  0  0  0  0  0  0  0  0  0  0  0
    1.0287    2.0422    1.2194 O   0  0  0  0  0  0  0  0  0  0  0  0
    5.5745    1.1478    0.6185 O   0  0  0  0  0  0  0  0  0  0  0  0
    7.7155   -0.0153   -0.5262 O   0  0  0  0  0  0  0  0  0  0  0  0
   -1.4623    0.4876    0.0995 N   0  0  0  0  0  0  0  0  0  0  0  0
    4.3790   -0.8480    0.6629 N   0  0  0  0  0  0  0  0  0  0  0  0
   -6.9228   -2.8191    0.6825 N   0  0  0  0  0  0  0  0  0  0  0  0
   -0.0665    0.4834   -0.3073 C   0  0  1  0  0  0  0  0  0  0  0  0
    0.9035    0.6848    0.8422 C   0  0  1  0  0  0  0  0  0  0  0  0
    2.1914    0.1425    0.2374 C   0  0  1  0  0  0  0  0  0  0  0  0
    0.3871   -0.8612   -0.8516 C   0  0  0  0  0  0  0  0  0  0  0  0
    3.1851   -0.3433    1.2776 C   0  0  0  0  0  0  0  0  0  0  0  0
   -2.3447    0.6302   -1.0524 C   0  0  0  0  0  0  0  0  0  0  0  0
   -3.7959    0.6198   -0.6516 C   0  0  0  0  0  0  0  0  0  0  0  0
    5.4864   -0.0538    0.3811 C   0  0  0  0  0  0  0  0  0  0  0  0
   -4.4196   -0.5817   -0.3153 C   0  0  0  0  0  0  0  0  0  0  0  0
   -4.5166    1.8137   -0.6152 C   0  0  0  0  0  0  0  0  0  0  0  0
    6.6035   -0.8449   -0.2654 C   0  0  0  0  0  0  0  0  0  0  0  0
   -5.7638   -0.5897    0.0571 C   0  0  0  0  0  0  0  0  0  0  0  0
   -5.8608    1.8059   -0.2424 C   0  0  0  0  0  0  0  0  0  0  0  0
   -6.4845    0.6043    0.0935 C   0  0  0  0  0  0  0  0  0  0  0  0
   -6.4033   -1.8199    0.4022 C   0  0  0  0  0  0  0  0  0  0  0  0
    8.7837   -0.7346   -1.1357 C   0  0  0  0  0  0  0  0  0  0  0  0
    0.1155    1.2753   -1.0477 H   0  0  0  0  0  0  0  0  0  0  0  0
    0.6019    0.1002    1.7202 H   0  0  0  0  0  0  0  0  0  0  0  0
    2.6686    0.8975   -0.4013 H   0  0  0  0  0  0  0  0  0  0  0  0
   -0.0830   -1.7023   -0.3291 H   0  0  0  0  0  0  0  0  0  0  0  0
    0.1946   -0.9701   -1.9232 H   0  0  0  0  0  0  0  0  0  0  0  0
    2.7632   -1.1724    1.8561 H   0  0  0  0  0  0  0  0  0  0  0  0
    3.4476    0.4652    1.9682 H   0  0  0  0  0  0  0  0  0  0  0  0
   -1.6213    1.2694    0.7357 H   0  0  0  0  0  0  0  0  0  0  0  0
   -2.1865   -0.1862   -1.7687 H   0  0  0  0  0  0  0  0  0  0  0  0
   -2.1229    1.5604   -1.5916 H   0  0  0  0  0  0  0  0  0  0  0  0
    1.2947    2.5538    0.4367 H   0  0  0  0  0  0  0  0  0  0  0  0
    4.4044   -1.8331    0.4154 H   0  0  0  0  0  0  0  0  0  0  0  0
   -3.8545   -1.5113   -0.3449 H   0  0  0  0  0  0  0  0  0  0  0  0
   -4.0433    2.7576   -0.8721 H   0  0  0  0  0  0  0  0  0  0  0  0
    6.8929   -1.6551    0.4140 H   0  0  0  0  0  0  0  0  0  0  0  0
    6.2275   -1.2717   -1.2026 H   0  0  0  0  0  0  0  0  0  0  0  0
   -6.4216    2.7355   -0.2133 H   0  0  0  0  0  0  0  0  0  0  0  0
   -7.5329    0.6146    0.3821 H   0  0  0  0  0  0  0  0  0  0  0  0
    8.4649   -1.1503   -2.0964 H   0  0  0  0  0  0  0  0  0  0  0  0
    9.1319   -1.5340   -0.4746 H   0  0  0  0  0  0  0  0  0  0  0  0
    9.6094   -0.0399   -1.3109 H   0  0  0  0  0  0  0  0  0  0  0  0
  1 10  1  0  0  0  0
  1 11  1  0  0  0  0
  2  9  1  0  0  0  0
  2 34  1  0  0  0  0
  3 15  2  0  0  0  0
  4 18  1  0  0  0  0
  4 23  1  0  0  0  0
  5  8  1  0  0  0  0
  5 13  1  0  0  0  0
  5 31  1  0  0  0  0
  6 12  1  0  0  0  0
  6 15  1  0  0  0  0
  6 35  1  0  0  0  0
  7 22  3  0  0  0  0
  8  9  1  0  0  0  0
  8 11  1  0  0  0  0
  8 24  1  0  0  0  0
  9 10  1  0  0  0  0
  9 25  1  0  0  0  0
 10 12  1  0  0  0  0
 10 26  1  0  0  0  0
 11 27  1  0  0  0  0
 11 28  1  0  0  0  0
 12 29  1  0  0  0  0
 12 30  1  0  0  0  0
 13 14  1  0  0  0  0
 13 32  1  0  0  0  0
 13 33  1  0  0  0  0
 14 16  2  0  0  0  0
 14 17  1  0  0  0  0
 15 18  1  0  0  0  0
 16 19  1  0  0  0  0
 16 36  1  0  0  0  0
 17 20  2  0  0  0  0
 17 37  1  0  0  0  0
 18 38  1  0  0  0  0
 18 39  1  0  0  0  0
 19 21  2  0  0  0  0
 19 22  1  0  0  0  0
 20 21  1  0  0  0  0
 20 40  1  0  0  0  0
 21 41  1  0  0  0  0
 23 42  1  0  0  0  0
 23 43  1  0  0  0  0
 23 44  1  0  0  0  0
M  END
> <PUBCHEM_COMPOUND_CID>
75536587

> <PUBCHEM_CONFORMER_RMSD>
1

> <PUBCHEM_CONFORMER_DIVERSEORDER>
1
141
45
131
68
30
136
67
48
12
139
108
89
18
93
138
20
50
55
118
69
125
104
40
126
128
64
87
116
41
53
134
39
119
37
76
132
110
144
99
129
27
80
22
112
3
82
77
61
42
73
90
105
16
98
28
121
59
146
145
7
142
102
96
47
52
97
100
84
122
62
101
6
46
88
5
91
143
86
8
109
31
124
35
43
115
63
60
114
94
44
75
19
120
70
24
33
106
29
79
113
135
21
85
38
2
51
23
78
117
36
65
127
103
26
147
34
140
9
71
95
83
32
107
74
25
133
92
72
10
137
13
57
15
123
17
66
81
14
54
56
49
11
4
58
111
130

> <PUBCHEM_MMFF94_PARTIAL_CHARGES>
30
1 -0.56
10 0.28
11 0.28
12 0.3
13 0.41
14 -0.14
15 0.57
16 -0.15
17 -0.15
18 0.34
19 0.07
2 -0.68
20 -0.15
21 -0.15
22 0.48
23 0.28
3 -0.57
31 0.36
34 0.4
35 0.37
36 0.15
37 0.15
4 -0.56
40 0.15
41 0.15
5 -0.9
6 -0.73
7 -0.56
8 0.27
9 0.28

> <PUBCHEM_EFFECTIVE_ROTOR_COUNT>
9

> <PUBCHEM_PHARMACOPHORE_FEATURES>
11
1 1 acceptor
1 2 acceptor
1 2 donor
1 3 acceptor
1 4 acceptor
1 5 cation
1 5 donor
1 6 donor
1 7 acceptor
5 1 8 9 10 11 rings
6 14 16 17 19 20 21 rings

> <PUBCHEM_HEAVY_ATOM_COUNT>
23

> <PUBCHEM_ATOM_DEF_STEREO_COUNT>
3

> <PUBCHEM_ATOM_UDEF_STEREO_COUNT>
0

> <PUBCHEM_BOND_DEF_STEREO_COUNT>
0

> <PUBCHEM_BOND_UDEF_STEREO_COUNT>
0

> <PUBCHEM_ISOTOPIC_ATOM_COUNT>
0

> <PUBCHEM_COMPONENT_COUNT>
1

> <PUBCHEM_CACTVS_TAUTO_COUNT>
2

> <PUBCHEM_CONFORMER_ID>
048098CB00000001

> <PUBCHEM_MMFF94_ENERGY>
44.0824

> <PUBCHEM_FEATURE_SELFOVERLAP>
55.83

> <PUBCHEM_SHAPE_FINGERPRINT>
10299344 5 18040997327903655730
11315181 36 17967814942941409181
12091667 2 16153426121872302109
13533116 47 17531518768994805418
13914758 101 11455894667606260462
14251732 16 18334292101994784945
14251764 18 16732702749171353620
14344974 52 18335427907462288972
14429380 56 15140965101821390998
14729087 3 9151177545245922783
14933364 13 18411698777357911452
15716309 27 17312818243454601313
18335252 98 18410295809517252102
21150785 3 17385726898342396742
21267235 1 18131635578246664624
21781051 124 18201452410553131166
21792961 116 17988360369145222532
220451 1 17894907387090423017
22224240 67 15068345614439137472
23035841 295 16988840579630859238
23081809 10 16081360805056070280
23424782 7 18334013934469660626
23559900 14 18336535080774066097
246663 6 17704076188182343814
28498 318 15769775720126002660
328311 84 18131635582436182510
4325135 7 17530966873659391118
5104073 3 18412822517481910265
5758199 1 17167583765547981736
57634706 229 18054230926331223217
59755656 215 17346598530773601716
7495541 125 18334855043537795073

> <PUBCHEM_SHAPE_MULTIPOLES>
434.91
24.11
1.81
1.03
24.84
0.46
-0.04
7.15
2.86
-4.03
-0.3
0.81
-0.05
1.54

> <PUBCHEM_SHAPE_SELFOVERLAP>
893.898

> <PUBCHEM_SHAPE_VOLUME>
249.2

> <PUBCHEM_COORDINATE_TYPE>
2
5
10

$$$$
