45361608
  -OEChem-12032416203D

 71 74  0     1  0  0  0  0  0999 V2000
    0.9560    4.6898   -0.8144 F   0  0  0  0  0  0  0  0  0  0  0  0
    1.4057   -2.5323    1.6926 O   0  0  0  0  0  0  0  0  0  0  0  0
    3.8227   -0.6803    2.3782 O   0  0  0  0  0  0  0  0  0  0  0  0
   -4.8576   -1.8371   -1.0320 O   0  0  0  0  0  0  0  0  0  0  0  0
   -3.2426   -0.4360   -0.1351 N   0  0  0  0  0  0  0  0  0  0  0  0
    4.9285   -0.0568    0.4369 N   0  0  0  0  0  0  0  0  0  0  0  0
   -5.1813    1.0810    0.9075 N   0  0  0  0  0  0  0  0  0  0  0  0
    0.6893   -1.0827   -1.7658 C   0  0  1  0  0  0  0  0  0  0  0  0
    0.3875   -1.7169   -0.3674 C   0  0  2  0  0  0  0  0  0  0  0  0
   -0.8704   -1.0450    0.2915 C   0  0  1  0  0  0  0  0  0  0  0  0
    1.6647   -1.7587    0.5202 C   0  0  2  0  0  0  0  0  0  0  0  0
    1.8601   -1.8411   -2.4345 C   0  0  0  0  0  0  0  0  0  0  0  0
   -0.5537   -1.2436   -2.6713 C   0  0  0  0  0  0  0  0  0  0  0  0
    2.8633   -2.4261   -0.1938 C   0  0  1  0  0  0  0  0  0  0  0  0
   -2.0956   -1.1466   -0.6601 C   0  0  2  0  0  0  0  0  0  0  0  0
    3.1244   -1.8502   -1.5854 C   0  0  0  0  0  0  0  0  0  0  0  0
   -1.8127   -0.6336   -2.0718 C   0  0  0  0  0  0  0  0  0  0  0  0
    1.0594    0.4191   -1.6696 C   0  0  0  0  0  0  0  0  0  0  0  0
    4.1446   -2.3406    0.6447 C   0  0  2  0  0  0  0  0  0  0  0  0
   -1.2417   -1.6417    1.6596 C   0  0  0  0  0  0  0  0  0  0  0  0
    4.1468   -3.4291    1.7124 C   0  0  0  0  0  0  0  0  0  0  0  0
    4.2683   -0.9526    1.2654 C   0  0  0  0  0  0  0  0  0  0  0  0
   -4.5421   -0.8508   -0.3714 C   0  0  0  0  0  0  0  0  0  0  0  0
   -5.6084    0.0016    0.2146 C   0  0  0  0  0  0  0  0  0  0  0  0
    5.1655    1.3196    0.8057 C   0  0  0  0  0  0  0  0  0  0  0  0
   -6.9424   -0.3273    0.0355 C   0  0  0  0  0  0  0  0  0  0  0  0
    4.0430    2.2182    0.3738 C   0  0  0  0  0  0  0  0  0  0  0  0
   -7.8998    0.5054    0.6040 C   0  0  0  0  0  0  0  0  0  0  0  0
   -6.1406    1.8670    1.4457 C   0  0  0  0  0  0  0  0  0  0  0  0
    4.0778    2.8227   -0.8828 C   0  0  0  0  0  0  0  0  0  0  0  0
    2.9652    2.4488    1.2289 C   0  0  0  0  0  0  0  0  0  0  0  0
   -7.4995    1.6256    1.3241 C   0  0  0  0  0  0  0  0  0  0  0  0
    3.0353    3.6578   -1.2843 C   0  0  0  0  0  0  0  0  0  0  0  0
    1.9227    3.2840    0.8275 C   0  0  0  0  0  0  0  0  0  0  0  0
    1.9577    3.8884   -0.4291 C   0  0  0  0  0  0  0  0  0  0  0  0
    0.1019   -2.7675   -0.5373 H   0  0  0  0  0  0  0  0  0  0  0  0
   -0.6528    0.0157    0.4702 H   0  0  0  0  0  0  0  0  0  0  0  0
    1.8730   -0.7345    0.8371 H   0  0  0  0  0  0  0  0  0  0  0  0
    2.0893   -1.3999   -3.4130 H   0  0  0  0  0  0  0  0  0  0  0  0
    1.5638   -2.8805   -2.6297 H   0  0  0  0  0  0  0  0  0  0  0  0
   -0.7400   -2.3102   -2.8558 H   0  0  0  0  0  0  0  0  0  0  0  0
   -0.3695   -0.7904   -3.6537 H   0  0  0  0  0  0  0  0  0  0  0  0
    2.6213   -3.4891   -0.3404 H   0  0  0  0  0  0  0  0  0  0  0  0
   -2.3706   -2.2074   -0.7412 H   0  0  0  0  0  0  0  0  0  0  0  0
    3.8865   -2.4518   -2.0967 H   0  0  0  0  0  0  0  0  0  0  0  0
    3.5207   -0.8339   -1.5418 H   0  0  0  0  0  0  0  0  0  0  0  0
   -1.7357    0.4606   -2.0679 H   0  0  0  0  0  0  0  0  0  0  0  0
   -2.6626   -0.8623   -2.7278 H   0  0  0  0  0  0  0  0  0  0  0  0
    0.2478    1.0331   -1.2715 H   0  0  0  0  0  0  0  0  0  0  0  0
    1.3093    0.8203   -2.6587 H   0  0  0  0  0  0  0  0  0  0  0  0
    1.9223    0.5836   -1.0235 H   0  0  0  0  0  0  0  0  0  0  0  0
    5.0192   -2.5270    0.0076 H   0  0  0  0  0  0  0  0  0  0  0  0
   -0.5088   -1.3653    2.4227 H   0  0  0  0  0  0  0  0  0  0  0  0
   -1.3157   -2.7330    1.6105 H   0  0  0  0  0  0  0  0  0  0  0  0
   -2.2007   -1.2609    2.0254 H   0  0  0  0  0  0  0  0  0  0  0  0
   -3.0827    0.4279    0.3756 H   0  0  0  0  0  0  0  0  0  0  0  0
    1.1459   -3.4266    1.4127 H   0  0  0  0  0  0  0  0  0  0  0  0
    3.4716   -3.2339    2.5490 H   0  0  0  0  0  0  0  0  0  0  0  0
    5.1485   -3.4994    2.1539 H   0  0  0  0  0  0  0  0  0  0  0  0
    3.9119   -4.4122    1.2917 H   0  0  0  0  0  0  0  0  0  0  0  0
    5.2966   -0.3728   -0.4549 H   0  0  0  0  0  0  0  0  0  0  0  0
    5.3137    1.3880    1.8899 H   0  0  0  0  0  0  0  0  0  0  0  0
    6.1068    1.6286    0.3372 H   0  0  0  0  0  0  0  0  0  0  0  0
   -7.2555   -1.2009   -0.5259 H   0  0  0  0  0  0  0  0  0  0  0  0
   -8.9559    0.2822    0.4863 H   0  0  0  0  0  0  0  0  0  0  0  0
   -5.7764    2.7273    1.9974 H   0  0  0  0  0  0  0  0  0  0  0  0
    4.9103    2.6486   -1.5593 H   0  0  0  0  0  0  0  0  0  0  0  0
    2.9249    1.9863    2.2112 H   0  0  0  0  0  0  0  0  0  0  0  0
   -8.2283    2.2887    1.7758 H   0  0  0  0  0  0  0  0  0  0  0  0
    3.0612    4.1274   -2.2632 H   0  0  0  0  0  0  0  0  0  0  0  0
    1.0831    3.4630    1.4926 H   0  0  0  0  0  0  0  0  0  0  0  0
  1 35  1  0  0  0  0
  2 11  1  0  0  0  0
  2 57  1  0  0  0  0
  3 22  2  0  0  0  0
  4 23  2  0  0  0  0
  5 15  1  0  0  0  0
  5 23  1  0  0  0  0
  5 56  1  0  0  0  0
  6 22  1  0  0  0  0
  6 25  1  0  0  0  0
  6 61  1  0  0  0  0
  7 24  1  0  0  0  0
  7 29  2  0  0  0  0
  8  9  1  0  0  0  0
  8 12  1  0  0  0  0
  8 13  1  0  0  0  0
  8 18  1  0  0  0  0
  9 10  1  0  0  0  0
  9 11  1  0  0  0  0
  9 36  1  0  0  0  0
 10 15  1  0  0  0  0
 10 20  1  0  0  0  0
 10 37  1  0  0  0  0
 11 14  1  0  0  0  0
 11 38  1  0  0  0  0
 12 16  1  0  0  0  0
 12 39  1  0  0  0  0
 12 40  1  0  0  0  0
 13 17  1  0  0  0  0
 13 41  1  0  0  0  0
 13 42  1  0  0  0  0
 14 16  1  0  0  0  0
 14 19  1  0  0  0  0
 14 43  1  0  0  0  0
 15 17  1  0  0  0  0
 15 44  1  0  0  0  0
 16 45  1  0  0  0  0
 16 46  1  0  0  0  0
 17 47  1  0  0  0  0
 17 48  1  0  0  0  0
 18 49  1  0  0  0  0
 18 50  1  0  0  0  0
 18 51  1  0  0  0  0
 19 21  1  0  0  0  0
 19 22  1  0  0  0  0
 19 52  1  0  0  0  0
 20 53  1  0  0  0  0
 20 54  1  0  0  0  0
 20 55  1  0  0  0  0
 21 58  1  0  0  0  0
 21 59  1  0  0  0  0
 21 60  1  0  0  0  0
 23 24  1  0  0  0  0
 24 26  2  0  0  0  0
 25 27  1  0  0  0  0
 25 62  1  0  0  0  0
 25 63  1  0  0  0  0
 26 28  1  0  0  0  0
 26 64  1  0  0  0  0
 27 30  2  0  0  0  0
 27 31  1  0  0  0  0
 28 32  2  0  0  0  0
 28 65  1  0  0  0  0
 29 32  1  0  0  0  0
 29 66  1  0  0  0  0
 30 33  1  0  0  0  0
 30 67  1  0  0  0  0
 31 34  2  0  0  0  0
 31 68  1  0  0  0  0
 32 69  1  0  0  0  0
 33 35  2  0  0  0  0
 33 70  1  0  0  0  0
 34 35  1  0  0  0  0
 34 71  1  0  0  0  0
M  END
> <PUBCHEM_COMPOUND_CID>
45361608

> <PUBCHEM_CONFORMER_RMSD>
1

> <PUBCHEM_CONFORMER_DIVERSEORDER>
1
24
150
109
145
208
115
22
19
18
151
144
222
110
41
108
116
202
102
154
132
105
83
78
216
123
184
38
197
127
57
35
155
219
67
84
87
204
75
158
15
3
119
130
205
190
23
85
76
68
106
99
61
170
4
71
138
128
153
107
223
174
207
220
147
112
50
139
56
131
200
221
11
121
181
213
5
96
217
206
93
111
188
120
54
152
94
226
212
140
95
136
72
64
34
14
118
225
30
26
33
135
74
159
165
201
92
42
192
163
73
218
45
98
82
60
214
171
63
129
43
53
157
126
39
211
164
142
77
29
70
89
182
161
183
52
59
55
175
166
13
69
186
141
199
40
25
133
189
47
125
187
143
46
48
224
44
160
51
103
177
185
191
21
162
215
2
65
179
227
91
167
10
36
178
198
20
86
124
156
104
80
8
203
173
176
32
101
117
100
79
17
113
209
81
172
114
97
146
49
9
195
66
7
148
90
122
6
16
168
28
27
169
180
193
134
88
210
37
58
196
31
149
12
194
137
62

> <PUBCHEM_MMFF94_PARTIAL_CHARGES>
35
1 -0.19
11 0.28
15 0.3
19 0.06
2 -0.68
22 0.57
23 0.54
24 0.4
25 0.44
26 -0.15
27 -0.14
28 -0.15
29 0.16
3 -0.57
30 -0.15
31 -0.15
32 -0.15
33 -0.15
34 -0.15
35 0.19
4 -0.57
5 -0.73
56 0.37
57 0.4
6 -0.73
61 0.37
64 0.15
65 0.15
66 0.15
67 0.15
68 0.15
69 0.15
7 -0.62
70 0.15
71 0.15

> <PUBCHEM_EFFECTIVE_ROTOR_COUNT>
9.6

> <PUBCHEM_PHARMACOPHORE_FEATURES>
12
1 2 acceptor
1 2 donor
1 21 hydrophobe
1 3 acceptor
1 4 acceptor
1 5 donor
1 6 donor
1 7 acceptor
6 27 30 31 33 34 35 rings
6 7 24 26 28 29 32 rings
6 8 9 10 13 15 17 rings
6 8 9 11 12 14 16 rings

> <PUBCHEM_HEAVY_ATOM_COUNT>
35

> <PUBCHEM_ATOM_DEF_STEREO_COUNT>
6

> <PUBCHEM_ATOM_UDEF_STEREO_COUNT>
1

> <PUBCHEM_BOND_DEF_STEREO_COUNT>
0

> <PUBCHEM_BOND_UDEF_STEREO_COUNT>
0

> <PUBCHEM_ISOTOPIC_ATOM_COUNT>
0

> <PUBCHEM_COMPONENT_COUNT>
1

> <PUBCHEM_CACTVS_TAUTO_COUNT>
4

> <PUBCHEM_CONFORMER_ID>
02B429C800000001

> <PUBCHEM_MMFF94_ENERGY>
96.7162

> <PUBCHEM_FEATURE_SELFOVERLAP>
60.912

> <PUBCHEM_SHAPE_FINGERPRINT>
10165383 225 17749393689793208966
10190108 129 18337380553886845258
10439779 11 17988929964020446937
10673678 19 17846781840478595275
10674148 151 18200882898370047628
10675989 125 18339645671698770064
11578080 2 17969801841155339475
12156800 1 17911825496036631308
12422481 6 18342451509308003697
12633257 1 17606375869718137520
13165053 68 18191585470968859523
14114211 80 17899422175661780068
14849402 71 18334582360116422853
15082195 135 17559975259081386831
151778 21 17825941809235238620
15264996 154 18338814367391872790
15475509 35 11818991911099766252
15475509 84 17974281028567991614
21298829 104 18271523212506710008
21860390 5 18412549829559536358
22122407 14 18341620355831643673
22223350 30 17459488778506337459
23559900 14 17488479502648239527
23569914 152 11524615089720467057
3411729 13 18340492256484963037
3493558 16 18272096010819699177
35225 105 17111019690884414636
373842 8 18338794512338941685
392239 28 18041544910532832491
394071 54 18040712580209279699
397830 11 18114754832281768707
4066623 53 14117251520335068970
5104073 3 18335712663272111859
5109719 28 18271821120508011723
513532 50 17918003784542317420
57816373 69 18192989327457078407
6609424 69 18127694833545969868

> <PUBCHEM_SHAPE_MULTIPOLES>
680.46
15.92
4.68
2.18
37.74
4.84
0.6
5.14
-7.34
-6.95
0.05
-1.17
-1
-2.59

> <PUBCHEM_SHAPE_SELFOVERLAP>
1445.351

> <PUBCHEM_SHAPE_VOLUME>
376.9

> <PUBCHEM_COORDINATE_TYPE>
2
5
10

$$$$
