28991009
  -OEChem-12032416383D

 56 59  0     1  0  0  0  0  0999 V2000
    6.5120   -2.6856    0.2361 O   0  0  0  0  0  0  0  0  0  0  0  0
   -3.3130    1.5399   -0.6315 O   0  0  0  0  0  0  0  0  0  0  0  0
    1.0727    2.6988   -0.3121 N   0  0  2  0  0  0  0  0  0  0  0  0
    4.3676   -0.8599   -0.1763 N   0  0  0  0  0  0  0  0  0  0  0  0
   -1.5618    0.0771   -0.9960 N   0  0  0  0  0  0  0  0  0  0  0  0
   -3.6003   -0.7797   -0.4145 N   0  0  0  0  0  0  0  0  0  0  0  0
    2.3096    0.8723    1.0666 C   0  0  2  0  0  0  0  0  0  0  0  0
    3.1259    1.2656   -0.1856 C   0  0  2  0  0  0  0  0  0  0  0  0
    0.1612    1.5517   -0.0527 C   0  0  2  0  0  0  0  0  0  0  0  0
    0.9129    0.3897    0.6340 C   0  0  0  0  0  0  0  0  0  0  0  0
    2.2824    2.2407   -1.0373 C   0  0  0  0  0  0  0  0  0  0  0  0
    2.1123    2.1569    1.8939 C   0  0  0  0  0  0  0  0  0  0  0  0
    1.4996    3.2479    0.9978 C   0  0  0  0  0  0  0  0  0  0  0  0
    3.5924    0.0630   -1.0028 C   0  0  0  0  0  0  0  0  0  0  0  0
   -0.5685    1.0888   -1.3159 C   0  0  0  0  0  0  0  0  0  0  0  0
    5.7555   -0.3967   -0.0382 C   0  0  0  0  0  0  0  0  0  0  0  0
    4.3434   -2.2151   -0.7442 C   0  0  0  0  0  0  0  0  0  0  0  0
    6.5477   -1.3815    0.8170 C   0  0  0  0  0  0  0  0  0  0  0  0
    5.1682   -3.1567    0.1285 C   0  0  0  0  0  0  0  0  0  0  0  0
   -2.8810    0.3904   -0.6730 C   0  0  0  0  0  0  0  0  0  0  0  0
   -4.9626   -0.8995   -0.0536 C   0  0  0  0  0  0  0  0  0  0  0  0
   -5.5167   -2.1601    0.1689 C   0  0  0  0  0  0  0  0  0  0  0  0
   -5.7524    0.2428    0.0785 C   0  0  0  0  0  0  0  0  0  0  0  0
   -6.8606   -2.2786    0.5235 C   0  0  0  0  0  0  0  0  0  0  0  0
   -7.0963    0.1243    0.4332 C   0  0  0  0  0  0  0  0  0  0  0  0
   -7.6503   -1.1364    0.6559 C   0  0  0  0  0  0  0  0  0  0  0  0
    2.8106    0.1147    1.6771 H   0  0  0  0  0  0  0  0  0  0  0  0
    4.0116    1.8208    0.1525 H   0  0  0  0  0  0  0  0  0  0  0  0
   -0.6176    1.9028    0.6405 H   0  0  0  0  0  0  0  0  0  0  0  0
    1.0008   -0.4879   -0.0149 H   0  0  0  0  0  0  0  0  0  0  0  0
    0.3485    0.0679    1.5186 H   0  0  0  0  0  0  0  0  0  0  0  0
    2.8943    3.1148   -1.2968 H   0  0  0  0  0  0  0  0  0  0  0  0
    2.0031    1.8027   -2.0021 H   0  0  0  0  0  0  0  0  0  0  0  0
    3.0713    2.5019    2.2981 H   0  0  0  0  0  0  0  0  0  0  0  0
    1.4533    1.9557    2.7471 H   0  0  0  0  0  0  0  0  0  0  0  0
    0.6446    3.7111    1.5057 H   0  0  0  0  0  0  0  0  0  0  0  0
    2.2219    4.0594    0.8422 H   0  0  0  0  0  0  0  0  0  0  0  0
    4.1659    0.3940   -1.8792 H   0  0  0  0  0  0  0  0  0  0  0  0
    2.7095   -0.4466   -1.4084 H   0  0  0  0  0  0  0  0  0  0  0  0
    0.1128    0.6352   -2.0426 H   0  0  0  0  0  0  0  0  0  0  0  0
   -1.0697    1.9338   -1.8016 H   0  0  0  0  0  0  0  0  0  0  0  0
    5.8010    0.5853    0.4431 H   0  0  0  0  0  0  0  0  0  0  0  0
    6.2304   -0.3137   -1.0246 H   0  0  0  0  0  0  0  0  0  0  0  0
    4.7519   -2.2067   -1.7632 H   0  0  0  0  0  0  0  0  0  0  0  0
    3.3150   -2.5915   -0.7917 H   0  0  0  0  0  0  0  0  0  0  0  0
   -1.2758   -0.8970   -1.0053 H   0  0  0  0  0  0  0  0  0  0  0  0
    7.5959   -1.0701    0.8700 H   0  0  0  0  0  0  0  0  0  0  0  0
    6.1628   -1.4268    1.8431 H   0  0  0  0  0  0  0  0  0  0  0  0
    4.7357   -3.2621    1.1311 H   0  0  0  0  0  0  0  0  0  0  0  0
    5.2001   -4.1526   -0.3246 H   0  0  0  0  0  0  0  0  0  0  0  0
   -3.0901   -1.6560   -0.4920 H   0  0  0  0  0  0  0  0  0  0  0  0
   -4.9125   -3.0581    0.0690 H   0  0  0  0  0  0  0  0  0  0  0  0
   -5.3965    1.2513   -0.0774 H   0  0  0  0  0  0  0  0  0  0  0  0
   -7.2922   -3.2601    0.6968 H   0  0  0  0  0  0  0  0  0  0  0  0
   -7.7125    1.0128    0.5363 H   0  0  0  0  0  0  0  0  0  0  0  0
   -8.6966   -1.2287    0.9321 H   0  0  0  0  0  0  0  0  0  0  0  0
  1 18  1  0  0  0  0
  1 19  1  0  0  0  0
  2 20  2  0  0  0  0
  3  9  1  0  0  0  0
  3 11  1  0  0  0  0
  3 13  1  0  0  0  0
  4 14  1  0  0  0  0
  4 16  1  0  0  0  0
  4 17  1  0  0  0  0
  5 15  1  0  0  0  0
  5 20  1  0  0  0  0
  5 46  1  0  0  0  0
  6 20  1  0  0  0  0
  6 21  1  0  0  0  0
  6 51  1  0  0  0  0
  7  8  1  0  0  0  0
  7 10  1  0  0  0  0
  7 12  1  0  0  0  0
  7 27  1  0  0  0  0
  8 11  1  0  0  0  0
  8 14  1  0  0  0  0
  8 28  1  0  0  0  0
  9 10  1  0  0  0  0
  9 15  1  0  0  0  0
  9 29  1  0  0  0  0
 10 30  1  0  0  0  0
 10 31  1  0  0  0  0
 11 32  1  0  0  0  0
 11 33  1  0  0  0  0
 12 13  1  0  0  0  0
 12 34  1  0  0  0  0
 12 35  1  0  0  0  0
 13 36  1  0  0  0  0
 13 37  1  0  0  0  0
 14 38  1  0  0  0  0
 14 39  1  0  0  0  0
 15 40  1  0  0  0  0
 15 41  1  0  0  0  0
 16 18  1  0  0  0  0
 16 42  1  0  0  0  0
 16 43  1  0  0  0  0
 17 19  1  0  0  0  0
 17 44  1  0  0  0  0
 17 45  1  0  0  0  0
 18 47  1  0  0  0  0
 18 48  1  0  0  0  0
 19 49  1  0  0  0  0
 19 50  1  0  0  0  0
 21 22  2  0  0  0  0
 21 23  1  0  0  0  0
 22 24  1  0  0  0  0
 22 52  1  0  0  0  0
 23 25  2  0  0  0  0
 23 53  1  0  0  0  0
 24 26  2  0  0  0  0
 24 54  1  0  0  0  0
 25 26  1  0  0  0  0
 25 55  1  0  0  0  0
 26 56  1  0  0  0  0
M  END
> <PUBCHEM_COMPOUND_CID>
28991009

> <PUBCHEM_CONFORMER_RMSD>
1

> <PUBCHEM_CONFORMER_DIVERSEORDER>
1
11
24
27
31
14
33
42
22
6
40
10
46
48
34
35
16
37
30
45
8
36
13
20
43
39
23
49
5
28
25
17
2
41
51
32
26
18
9
47
50
12
7
38
3
19
4
21
44
15
29

> <PUBCHEM_MMFF94_PARTIAL_CHARGES>
29
1 -0.56
11 0.27
13 0.27
14 0.27
15 0.3
16 0.27
17 0.27
18 0.28
19 0.28
2 -0.57
20 0.69
21 0.12
22 -0.15
23 -0.15
24 -0.15
25 -0.15
26 -0.15
3 -0.81
4 -0.81
46 0.37
5 -0.73
51 0.37
52 0.15
53 0.15
54 0.15
55 0.15
56 0.15
6 -0.55
9 0.27

> <PUBCHEM_EFFECTIVE_ROTOR_COUNT>
9.4

> <PUBCHEM_PHARMACOPHORE_FEATURES>
9
1 1 acceptor
1 2 acceptor
1 3 cation
1 4 cation
1 5 donor
1 6 donor
6 1 4 16 17 18 19 rings
6 21 22 23 24 25 26 rings
8 3 7 8 9 10 11 12 13 rings

> <PUBCHEM_HEAVY_ATOM_COUNT>
26

> <PUBCHEM_ATOM_DEF_STEREO_COUNT>
3

> <PUBCHEM_ATOM_UDEF_STEREO_COUNT>
0

> <PUBCHEM_BOND_DEF_STEREO_COUNT>
0

> <PUBCHEM_BOND_UDEF_STEREO_COUNT>
0

> <PUBCHEM_ISOTOPIC_ATOM_COUNT>
0

> <PUBCHEM_COMPONENT_COUNT>
1

> <PUBCHEM_CACTVS_TAUTO_COUNT>
3

> <PUBCHEM_CONFORMER_ID>
01BA5E2100000001

> <PUBCHEM_MMFF94_ENERGY>
64.8238

> <PUBCHEM_FEATURE_SELFOVERLAP>
45.725

> <PUBCHEM_SHAPE_FINGERPRINT>
11135609 12 18410567405520413048
11456790 92 17917444133793374739
117089 54 18196662800036895318
11796584 16 18117549631477190548
12107183 9 18130790070874199191
12616971 3 16917068910630878189
12633257 1 15625929967579574144
13150687 139 12540698085788761688
13533116 47 18340771550113977441
13540713 5 16628252554236169932
13673619 4 18260267434410080341
13685833 64 18410011026829699822
13690498 29 17895188870815395541
13782708 43 18260265248408928359
13955234 65 18198337562477969488
14216079 64 18407760344267025143
14251751 18 18335983090790921678
14251764 30 18334293136934047846
14341114 176 18412263969500636489
14347424 109 18130787893141320057
14420673 8 18335141990788241459
14767858 380 13406794419641379591
15019793 15 18121783004442684827
15352257 5 18333733533114039107
15475509 35 18413385449785658138
15475509 84 17561368365656971577
17980427 23 12895055332501248000
1979834 28 17275111596018618606
20157964 124 8862950476007818060
20465049 17 17894631460969268778
20567600 247 18409165515231040226
20567600 254 9151168766527571862
21049683 271 18409732894129680996
21130935 74 18267308823835734275
21344244 181 17675930901855265354
21521239 73 14779541245936202584
23522609 53 18046380550188537765
23559900 14 18188208810060075037
23569943 247 18260829255346974195
3178227 256 18342460347986630551
33382 64 18411138026596303832
3421961 26 18342734148283973280
3472631 163 9943806685800641261
34797466 226 16515689995607649797
3610482 184 14346334764310029479
4107672 100 17386564644714584797
439807 62 18187647981303682655
46194498 28 17749106729504854556
465052 167 18412830200207386895
5104073 3 18060139829796907513
54039377 194 18409170974799371958
58260988 587 18194122056609451960
59682541 35 18271511041386668082
636775 8 18268154163647076814
8863177 126 18410572933143316255
9962374 69 18268981146034050215

> <PUBCHEM_SHAPE_MULTIPOLES>
503.41
20.23
3.41
1.16
24.29
0.29
0.14
19.24
3.73
-4.3
0.54
-0.6
-0.55
0.77

> <PUBCHEM_SHAPE_SELFOVERLAP>
1058.208

> <PUBCHEM_SHAPE_VOLUME>
278.5

> <PUBCHEM_COORDINATE_TYPE>
2
5
10

$$$$
