56775614
  -OEChem-12032416323D

 62 65  0     1  0  0  0  0  0999 V2000
   -0.9548    0.2432    3.8442 O   0  0  0  0  0  0  0  0  0  0  0  0
    1.1070    1.6018   -1.7701 O   0  0  0  0  0  0  0  0  0  0  0  0
   -7.6151   -0.8203   -0.3707 O   0  0  0  0  0  0  0  0  0  0  0  0
   -1.6256   -0.4503    0.9691 N   0  0  0  0  0  0  0  0  0  0  0  0
   -5.3828   -0.5668   -0.9625 N   0  0  0  0  0  0  0  0  0  0  0  0
   -0.1477    1.4738   -1.1867 N   0  0  0  0  0  0  0  0  0  0  0  0
    4.1377    1.1250   -1.3609 N   0  0  2  0  0  0  0  0  0  0  0  0
   -1.2647    0.7126    1.7852 C   0  0  0  0  0  0  0  0  0  0  0  0
   -2.7219   -0.0892    0.0737 C   0  0  0  0  0  0  0  0  0  0  0  0
   -0.0940    0.3357    2.6862 C   0  0  0  0  0  0  0  0  0  0  0  0
   -2.0896    0.6883    3.0669 C   0  0  0  0  0  0  0  0  0  0  0  0
   -1.1905    1.9815    0.9925 C   0  0  0  0  0  0  0  0  0  0  0  0
   -3.9758    0.2537    0.8882 C   0  0  0  0  0  0  0  0  0  0  0  0
   -3.0113   -1.2423   -0.8961 C   0  0  0  0  0  0  0  0  0  0  0  0
   -5.1614    0.5415   -0.0312 C   0  0  0  0  0  0  0  0  0  0  0  0
   -4.2173   -0.9253   -1.7804 C   0  0  0  0  0  0  0  0  0  0  0  0
   -0.0052    1.9588    0.0499 C   0  0  0  0  0  0  0  0  0  0  0  0
   -6.6403   -1.1638   -1.0444 C   0  0  0  0  0  0  0  0  0  0  0  0
    1.3045    2.4032    0.3012 C   0  0  0  0  0  0  0  0  0  0  0  0
    1.9632    2.1564   -0.8742 C   0  0  0  0  0  0  0  0  0  0  0  0
   -6.7864   -2.2998   -2.0250 C   0  0  0  0  0  0  0  0  0  0  0  0
    3.3430    2.3648   -1.3290 C   0  0  0  0  0  0  0  0  0  0  0  0
    4.5573    0.7643   -0.0112 C   0  0  0  0  0  0  0  0  0  0  0  0
    5.2923    1.2930   -2.2366 C   0  0  0  0  0  0  0  0  0  0  0  0
    4.8889   -0.7001    0.1003 C   0  0  0  0  0  0  0  0  0  0  0  0
    3.8953   -1.6162    0.4452 C   0  0  0  0  0  0  0  0  0  0  0  0
    6.1902   -1.1405   -0.1413 C   0  0  0  0  0  0  0  0  0  0  0  0
    4.2029   -2.9729    0.5486 C   0  0  0  0  0  0  0  0  0  0  0  0
    6.4978   -2.4970   -0.0380 C   0  0  0  0  0  0  0  0  0  0  0  0
    5.5042   -3.4132    0.3070 C   0  0  0  0  0  0  0  0  0  0  0  0
   -2.4874    0.7380   -0.5976 H   0  0  0  0  0  0  0  0  0  0  0  0
   -1.8597   -1.2924    1.4943 H   0  0  0  0  0  0  0  0  0  0  0  0
    0.6643    1.1080    2.8490 H   0  0  0  0  0  0  0  0  0  0  0  0
    0.4131   -0.6142    2.4855 H   0  0  0  0  0  0  0  0  0  0  0  0
   -2.8995   -0.0349    3.1879 H   0  0  0  0  0  0  0  0  0  0  0  0
   -2.4351    1.6643    3.4255 H   0  0  0  0  0  0  0  0  0  0  0  0
   -0.9993    2.8114    1.6907 H   0  0  0  0  0  0  0  0  0  0  0  0
   -2.1046    2.3081    0.4887 H   0  0  0  0  0  0  0  0  0  0  0  0
   -3.8615    1.1531    1.4969 H   0  0  0  0  0  0  0  0  0  0  0  0
   -4.2480   -0.5855    1.5412 H   0  0  0  0  0  0  0  0  0  0  0  0
   -3.2166   -2.1626   -0.3330 H   0  0  0  0  0  0  0  0  0  0  0  0
   -2.1363   -1.4389   -1.5276 H   0  0  0  0  0  0  0  0  0  0  0  0
   -6.0572    0.7301    0.5692 H   0  0  0  0  0  0  0  0  0  0  0  0
   -4.9744    1.4403   -0.6311 H   0  0  0  0  0  0  0  0  0  0  0  0
   -4.0013   -0.0679   -2.4290 H   0  0  0  0  0  0  0  0  0  0  0  0
   -4.4207   -1.7770   -2.4317 H   0  0  0  0  0  0  0  0  0  0  0  0
    1.7118    2.8404    1.2008 H   0  0  0  0  0  0  0  0  0  0  0  0
   -6.1073   -3.1154   -1.7627 H   0  0  0  0  0  0  0  0  0  0  0  0
   -6.5916   -1.9491   -3.0420 H   0  0  0  0  0  0  0  0  0  0  0  0
   -7.8106   -2.6838   -1.9872 H   0  0  0  0  0  0  0  0  0  0  0  0
    3.8398    3.1335   -0.7218 H   0  0  0  0  0  0  0  0  0  0  0  0
    3.2771    2.7856   -2.3421 H   0  0  0  0  0  0  0  0  0  0  0  0
    3.7667    0.9590    0.7251 H   0  0  0  0  0  0  0  0  0  0  0  0
    5.4057    1.3736    0.3315 H   0  0  0  0  0  0  0  0  0  0  0  0
    4.9723    1.5982   -3.2402 H   0  0  0  0  0  0  0  0  0  0  0  0
    5.8322    0.3534   -2.3839 H   0  0  0  0  0  0  0  0  0  0  0  0
    5.9944    2.0483   -1.8649 H   0  0  0  0  0  0  0  0  0  0  0  0
    2.8769   -1.2865    0.6339 H   0  0  0  0  0  0  0  0  0  0  0  0
    6.9785   -0.4383   -0.3985 H   0  0  0  0  0  0  0  0  0  0  0  0
    3.4291   -3.6863    0.8167 H   0  0  0  0  0  0  0  0  0  0  0  0
    7.5116   -2.8397   -0.2233 H   0  0  0  0  0  0  0  0  0  0  0  0
    5.7439   -4.4694    0.3880 H   0  0  0  0  0  0  0  0  0  0  0  0
  1 10  1  0  0  0  0
  1 11  1  0  0  0  0
  2  6  1  0  0  0  0
  2 20  1  0  0  0  0
  3 18  2  0  0  0  0
  4  8  1  0  0  0  0
  4  9  1  0  0  0  0
  4 32  1  0  0  0  0
  5 15  1  0  0  0  0
  5 16  1  0  0  0  0
  5 18  1  0  0  0  0
  6 17  2  0  0  0  0
  7 22  1  0  0  0  0
  7 23  1  0  0  0  0
  7 24  1  0  0  0  0
  8 10  1  0  0  0  0
  8 11  1  0  0  0  0
  8 12  1  0  0  0  0
  9 13  1  0  0  0  0
  9 14  1  0  0  0  0
  9 31  1  0  0  0  0
 10 33  1  0  0  0  0
 10 34  1  0  0  0  0
 11 35  1  0  0  0  0
 11 36  1  0  0  0  0
 12 17  1  0  0  0  0
 12 37  1  0  0  0  0
 12 38  1  0  0  0  0
 13 15  1  0  0  0  0
 13 39  1  0  0  0  0
 13 40  1  0  0  0  0
 14 16  1  0  0  0  0
 14 41  1  0  0  0  0
 14 42  1  0  0  0  0
 15 43  1  0  0  0  0
 15 44  1  0  0  0  0
 16 45  1  0  0  0  0
 16 46  1  0  0  0  0
 17 19  1  0  0  0  0
 18 21  1  0  0  0  0
 19 20  2  0  0  0  0
 19 47  1  0  0  0  0
 20 22  1  0  0  0  0
 21 48  1  0  0  0  0
 21 49  1  0  0  0  0
 21 50  1  0  0  0  0
 22 51  1  0  0  0  0
 22 52  1  0  0  0  0
 23 25  1  0  0  0  0
 23 53  1  0  0  0  0
 23 54  1  0  0  0  0
 24 55  1  0  0  0  0
 24 56  1  0  0  0  0
 24 57  1  0  0  0  0
 25 26  2  0  0  0  0
 25 27  1  0  0  0  0
 26 28  1  0  0  0  0
 26 58  1  0  0  0  0
 27 29  2  0  0  0  0
 27 59  1  0  0  0  0
 28 30  2  0  0  0  0
 28 60  1  0  0  0  0
 29 30  1  0  0  0  0
 29 61  1  0  0  0  0
 30 62  1  0  0  0  0
M  END
> <PUBCHEM_COMPOUND_CID>
56775614

> <PUBCHEM_CONFORMER_RMSD>
1.4

> <PUBCHEM_CONFORMER_DIVERSEORDER>
6
53
12
35
84
9
76
81
78
65
95
15
32
73
86
3
104
102
13
77
17
25
103
79
2
30
42
52
106
107
60
96
46
67
59
11
88
45
68
98
64
55
1
31
16
61
18
89
22
83
70
38
28
58
72
85
82
62
97
48
40
37
75
109
105
90
50
91
26
19
69
4
49
57
54
7
74
43
101
108
47
14
71
20
99
21
93
29
63
51
23
27
34
44
5
39
66
100
94
56
92
80
36
8
41
33
10
24
87

> <PUBCHEM_MMFF94_PARTIAL_CHARGES>
35
1 -0.52
10 0.26
11 0.26
12 0.18
15 0.3
16 0.3
17 0.11
18 0.57
19 -0.15
2 -0.02
20 -0.04
21 0.06
22 0.45
23 0.41
24 0.27
25 -0.14
26 -0.15
27 -0.15
28 -0.15
29 -0.15
3 -0.57
30 -0.15
32 0.36
4 -0.84
47 0.15
5 -0.66
58 0.15
59 0.15
6 -0.41
60 0.15
61 0.15
62 0.15
7 -0.81
8 0.21
9 0.27

> <PUBCHEM_EFFECTIVE_ROTOR_COUNT>
11

> <PUBCHEM_PHARMACOPHORE_FEATURES>
10
1 1 acceptor
1 3 acceptor
1 4 cation
1 4 donor
1 6 acceptor
1 7 cation
4 1 8 10 11 rings
5 2 6 17 19 20 rings
6 25 26 27 28 29 30 rings
6 5 9 13 14 15 16 rings

> <PUBCHEM_HEAVY_ATOM_COUNT>
30

> <PUBCHEM_ATOM_DEF_STEREO_COUNT>
0

> <PUBCHEM_ATOM_UDEF_STEREO_COUNT>
0

> <PUBCHEM_BOND_DEF_STEREO_COUNT>
0

> <PUBCHEM_BOND_UDEF_STEREO_COUNT>
0

> <PUBCHEM_ISOTOPIC_ATOM_COUNT>
0

> <PUBCHEM_COMPONENT_COUNT>
1

> <PUBCHEM_CACTVS_TAUTO_COUNT>
1

> <PUBCHEM_CONFORMER_ID>
036253BE00000006

> <PUBCHEM_MMFF94_ENERGY>
74.0775

> <PUBCHEM_FEATURE_SELFOVERLAP>
50.747

> <PUBCHEM_SHAPE_FINGERPRINT>
10319926 262 15840722760106645364
11135926 11 17751953374247980428
12166972 35 18343577447452398443
12596602 18 17632858608259127696
12838863 1 17896024478763861642
12895836 83 13840274688353264434
13533116 47 18411698811712453012
1361 2 18333447634384362794
13782708 43 17416679345145150567
14068700 675 17988638584162478794
14429115 67 18343304730383477014
14931854 50 16806170939434825970
15119646 104 18410859849600614751
15183329 4 18187083979262550661
15188451 53 17632297861070183988
15361156 5 17825407188996735244
15721738 15 16661200335391322042
19311894 1 18116986690051550861
19315092 285 18131627868764694088
21304303 282 16913134630167232409
21344244 181 17676206892369598819
21458453 9 14332260031225501446
21521239 73 18114176475831996763
21792938 131 18129367372086216383
23559900 14 17168440332646396276
3459 83 18260553299070363401
3729539 64 18260829302243012243
3882209 13 16519598541040028090
3886686 26 16409595661885671070
392239 28 11671787052579807869
397830 11 11527662033856620421
4015057 19 18041289815440699296
4112364 45 9150907117611101167
463206 1 18410013264771691098
50009960 94 15983105294103695847
58260988 647 18186801357297248807
59682541 52 18261103110723737701
613672 6 17894639128456192952
96874 4 18343293756257284807

> <PUBCHEM_SHAPE_MULTIPOLES>
579.85
17.88
3.19
2.57
8.52
1.34
1.93
16.24
-8.02
-4.12
-0.57
1.3
-0.93
-4.48

> <PUBCHEM_SHAPE_SELFOVERLAP>
1221.226

> <PUBCHEM_SHAPE_VOLUME>
327.2

> <PUBCHEM_COORDINATE_TYPE>
2
5
10

$$$$
