40780432
  -OEChem-12032416313D

 51 54  0     1  0  0  0  0  0999 V2000
   -3.1656   -0.3932   -0.1762 N   0  0  0  0  0  0  0  0  0  0  0  0
    3.5488    0.5204   -0.1427 N   0  0  0  0  0  0  0  0  0  0  0  0
    3.4196    1.8197   -0.4612 N   0  0  0  0  0  0  0  0  0  0  0  0
   -0.0892    0.7197    0.2381 C   0  0  2  0  0  0  0  0  0  0  0  0
   -0.7342   -0.3313   -0.6858 C   0  0  0  0  0  0  0  0  0  0  0  0
   -1.8661   -0.9807    0.1281 C   0  0  1  0  0  0  0  0  0  0  0  0
    1.3991    0.8706    0.0233 C   0  0  0  0  0  0  0  0  0  0  0  0
   -0.4797    0.2267    1.6006 C   0  0  0  0  0  0  0  0  0  0  0  0
   -1.4506   -0.6907    1.5366 C   0  0  0  0  0  0  0  0  0  0  0  0
    2.3680   -0.0940    0.1556 C   0  0  0  0  0  0  0  0  0  0  0  0
    2.1042    2.0278   -0.3582 C   0  0  0  0  0  0  0  0  0  0  0  0
   -4.2474   -1.2138    0.3528 C   0  0  0  0  0  0  0  0  0  0  0  0
    2.2678   -1.5187    0.5321 C   0  0  0  0  0  0  0  0  0  0  0  0
    1.5586    3.3675   -0.6387 C   0  0  0  0  0  0  0  0  0  0  0  0
    4.8132   -0.0694   -0.1412 C   0  0  0  0  0  0  0  0  0  0  0  0
   -5.5984   -0.6168    0.0607 C   0  0  0  0  0  0  0  0  0  0  0  0
    5.0798   -1.1496   -0.9824 C   0  0  0  0  0  0  0  0  0  0  0  0
    5.8111    0.4221    0.7003 C   0  0  0  0  0  0  0  0  0  0  0  0
   -6.1788    0.2712    0.9662 C   0  0  0  0  0  0  0  0  0  0  0  0
   -6.2694   -0.9516   -1.1154 C   0  0  0  0  0  0  0  0  0  0  0  0
    6.3444   -1.7384   -0.9822 C   0  0  0  0  0  0  0  0  0  0  0  0
    7.0756   -0.1666    0.7006 C   0  0  0  0  0  0  0  0  0  0  0  0
   -7.4304    0.8246    0.6958 C   0  0  0  0  0  0  0  0  0  0  0  0
   -7.5210   -0.3984   -1.3859 C   0  0  0  0  0  0  0  0  0  0  0  0
    7.3422   -1.2469   -0.1406 C   0  0  0  0  0  0  0  0  0  0  0  0
   -8.1015    0.4897   -0.4803 C   0  0  0  0  0  0  0  0  0  0  0  0
   -0.5781    1.6899    0.0815 H   0  0  0  0  0  0  0  0  0  0  0  0
   -1.0851    0.1279   -1.6186 H   0  0  0  0  0  0  0  0  0  0  0  0
   -0.0232   -1.1085   -0.9936 H   0  0  0  0  0  0  0  0  0  0  0  0
   -1.8618   -2.0590   -0.0729 H   0  0  0  0  0  0  0  0  0  0  0  0
   -0.0584    0.5969    2.5249 H   0  0  0  0  0  0  0  0  0  0  0  0
   -1.8939   -1.1550    2.4064 H   0  0  0  0  0  0  0  0  0  0  0  0
   -3.2718   -0.3166   -1.1880 H   0  0  0  0  0  0  0  0  0  0  0  0
   -4.1551   -1.3387    1.4390 H   0  0  0  0  0  0  0  0  0  0  0  0
   -4.2081   -2.2251   -0.0737 H   0  0  0  0  0  0  0  0  0  0  0  0
    1.3477   -1.7404    1.0769 H   0  0  0  0  0  0  0  0  0  0  0  0
    3.0899   -1.8236    1.1880 H   0  0  0  0  0  0  0  0  0  0  0  0
    2.2802   -2.1548   -0.3587 H   0  0  0  0  0  0  0  0  0  0  0  0
    0.8312    3.3228   -1.4559 H   0  0  0  0  0  0  0  0  0  0  0  0
    2.3424    4.0753   -0.9289 H   0  0  0  0  0  0  0  0  0  0  0  0
    1.0565    3.7707    0.2468 H   0  0  0  0  0  0  0  0  0  0  0  0
    4.3217   -1.5385   -1.6576 H   0  0  0  0  0  0  0  0  0  0  0  0
    5.6198    1.2607    1.3655 H   0  0  0  0  0  0  0  0  0  0  0  0
   -5.6653    0.5416    1.8852 H   0  0  0  0  0  0  0  0  0  0  0  0
   -5.8271   -1.6409   -1.8297 H   0  0  0  0  0  0  0  0  0  0  0  0
    6.5531   -2.5773   -1.6397 H   0  0  0  0  0  0  0  0  0  0  0  0
    7.8525    0.2155    1.3562 H   0  0  0  0  0  0  0  0  0  0  0  0
   -7.8822    1.5165    1.4006 H   0  0  0  0  0  0  0  0  0  0  0  0
   -8.0434   -0.6586   -2.3017 H   0  0  0  0  0  0  0  0  0  0  0  0
    8.3270   -1.7048   -0.1408 H   0  0  0  0  0  0  0  0  0  0  0  0
   -9.0759    0.9206   -0.6910 H   0  0  0  0  0  0  0  0  0  0  0  0
  1  6  1  0  0  0  0
  1 12  1  0  0  0  0
  1 33  1  0  0  0  0
  2  3  1  0  0  0  0
  2 10  1  0  0  0  0
  2 15  1  0  0  0  0
  3 11  2  0  0  0  0
  4  5  1  0  0  0  0
  4  7  1  0  0  0  0
  4  8  1  0  0  0  0
  4 27  1  0  0  0  0
  5  6  1  0  0  0  0
  5 28  1  0  0  0  0
  5 29  1  0  0  0  0
  6  9  1  0  0  0  0
  6 30  1  0  0  0  0
  7 10  2  0  0  0  0
  7 11  1  0  0  0  0
  8  9  2  0  0  0  0
  8 31  1  0  0  0  0
  9 32  1  0  0  0  0
 10 13  1  0  0  0  0
 11 14  1  0  0  0  0
 12 16  1  0  0  0  0
 12 34  1  0  0  0  0
 12 35  1  0  0  0  0
 13 36  1  0  0  0  0
 13 37  1  0  0  0  0
 13 38  1  0  0  0  0
 14 39  1  0  0  0  0
 14 40  1  0  0  0  0
 14 41  1  0  0  0  0
 15 17  2  0  0  0  0
 15 18  1  0  0  0  0
 16 19  2  0  0  0  0
 16 20  1  0  0  0  0
 17 21  1  0  0  0  0
 17 42  1  0  0  0  0
 18 22  2  0  0  0  0
 18 43  1  0  0  0  0
 19 23  1  0  0  0  0
 19 44  1  0  0  0  0
 20 24  2  0  0  0  0
 20 45  1  0  0  0  0
 21 25  2  0  0  0  0
 21 46  1  0  0  0  0
 22 25  1  0  0  0  0
 22 47  1  0  0  0  0
 23 26  2  0  0  0  0
 23 48  1  0  0  0  0
 24 26  1  0  0  0  0
 24 49  1  0  0  0  0
 25 50  1  0  0  0  0
 26 51  1  0  0  0  0
M  END
> <PUBCHEM_COMPOUND_CID>
40780432

> <PUBCHEM_CONFORMER_RMSD>
0.8

> <PUBCHEM_CONFORMER_DIVERSEORDER>
1
65
80
42
3
33
57
64
39
62
45
34
38
63
83
73
50
32
72
69
85
22
58
15
5
70
66
54
25
82
55
61
81
9
47
30
40
75
78
28
48
14
43
8
29
7
68
19
67
23
10
76
60
56
59
44
20
77
79
35
71
18
53
4
52
49
21
17
41
31
13
36
16
51
2
12
74
84
46
86
24
6
37
26
27
11

> <PUBCHEM_MMFF94_PARTIAL_CHARGES>
38
1 -0.9
10 -0.33
11 0.11
12 0.41
13 0.18
14 0.18
15 -0.02
16 -0.14
17 -0.15
18 -0.15
19 -0.15
2 0.59
20 -0.15
21 -0.15
22 -0.15
23 -0.15
24 -0.15
25 -0.15
26 -0.15
3 -0.71
31 0.15
32 0.15
33 0.36
4 0.32
42 0.15
43 0.15
44 0.15
45 0.15
46 0.15
47 0.15
48 0.15
49 0.15
50 0.15
51 0.15
6 0.41
7 -0.18
8 -0.29
9 -0.29

> <PUBCHEM_EFFECTIVE_ROTOR_COUNT>
5.6

> <PUBCHEM_PHARMACOPHORE_FEATURES>
7
1 1 cation
1 1 donor
1 3 acceptor
5 2 3 7 10 11 rings
5 4 5 6 8 9 rings
6 15 17 18 21 22 25 rings
6 16 19 20 23 24 26 rings

> <PUBCHEM_HEAVY_ATOM_COUNT>
26

> <PUBCHEM_ATOM_DEF_STEREO_COUNT>
2

> <PUBCHEM_ATOM_UDEF_STEREO_COUNT>
0

> <PUBCHEM_BOND_DEF_STEREO_COUNT>
0

> <PUBCHEM_BOND_UDEF_STEREO_COUNT>
0

> <PUBCHEM_ISOTOPIC_ATOM_COUNT>
0

> <PUBCHEM_COMPONENT_COUNT>
1

> <PUBCHEM_CACTVS_TAUTO_COUNT>
1

> <PUBCHEM_CONFORMER_ID>
026E429000000001

> <PUBCHEM_MMFF94_ENERGY>
71.7459

> <PUBCHEM_FEATURE_SELFOVERLAP>
35.522

> <PUBCHEM_SHAPE_FINGERPRINT>
10 15 12973601124239777959
10162869 55 10735866258791083489
106641 1 13686291383940618050
10670039 82 17240475876274669973
11315181 36 15770058342154529947
11719270 70 16702024170852969510
11828422 8 17610638770462525468
12166972 35 18202847664258318193
12236239 1 17917994987816175042
12516196 113 9511464420625031951
12592606 108 18413106178053739559
12664476 115 17167859756489798229
12741549 16 17988916753291524928
12838862 33 18337095835724775802
13533116 47 17561368361973595198
13540713 4 17534075330333196968
13885169 127 18131351878360882609
13914758 101 18272655619182926265
14117953 113 18413112749443289238
14170010 4 18411417328293299512
14216079 64 18341051822779881358
14251764 18 17989207048827559932
14251764 46 18343018887013692858
14347424 109 18272647970305393704
14461889 52 11815895673492432469
14856354 85 14562536202461280019
14933364 13 12973603335272462839
15021287 119 18413108385877718437
15131766 46 16197591459577354848
15183329 4 18333448733900804043
15188451 53 17703793592113706274
15419008 47 17603861196268220517
15461852 350 16487255499795532157
15849732 13 17846495937105636151
16120349 18 18130499834206591288
18335252 114 18408597085226286797
19377110 9 8070036575496223543
19841028 212 18130228143208241782
21304303 172 18271252616729860088
21521721 280 8502367832855210982
21792934 111 18336537284166200736
21792961 116 17749383716351412374
22079108 93 9439402406859748736
221357 26 18259982669303940972
22224240 67 10952046753990981788
23559900 14 18263926699201405353
249057 25 17917725612216466745
249057 3 18335702767081853711
28498 318 18409448063812184638
29717793 49 18272938232046336836
3004659 81 18343580742008981643
3103668 31 17969497117758793165
335352 9 18335703862198151222
34797466 226 13118001089737339762
3633792 109 18273216365849935579
4073 2 17895480348533951499
4258327 124 11239417368327738898
4339292 15 18268999701131825190
4340502 62 9943808889087358380
5381727 24 10447929452434132188
5758199 1 8790882986523456813
59682541 35 10807927185386100951
59755656 215 17894908512467001095
59755656 520 16226045622149825203
6086070 43 17822295725276383641
6371380 46 17967252026598685891
6394761 36 18113336401571899335
9658208 31 16298953189614394249
9663363 56 18334010589265117354
9689198 14 13623532350684497159
99344 41 17846779590037558783

> <PUBCHEM_SHAPE_MULTIPOLES>
520.12
23.68
1.93
1.18
20.67
1.51
-0.12
-5.74
3.65
-2.15
0.52
0.75
-0.13
-0.11

> <PUBCHEM_SHAPE_SELFOVERLAP>
1129.654

> <PUBCHEM_SHAPE_VOLUME>
286.5

> <PUBCHEM_COORDINATE_TYPE>
2
5
10

$$$$
