25389560
  -OEChem-12032416253D

 61 65  0     1  0  0  0  0  0999 V2000
   -0.9191   -2.0428   -0.1578 O   0  0  0  0  0  0  0  0  0  0  0  0
    2.3845    3.7540   -0.8431 O   0  0  0  0  0  0  0  0  0  0  0  0
   -2.0645   -1.1901    1.6284 O   0  0  0  0  0  0  0  0  0  0  0  0
   -8.6013    1.8350   -0.7518 O   0  0  0  0  0  0  0  0  0  0  0  0
    2.4079   -3.4839    0.6720 N   0  0  2  0  0  0  0  0  0  0  0  0
    5.1267    0.4213    0.7375 N   0  0  0  0  0  0  0  0  0  0  0  0
    5.0657    1.7634    0.7724 N   0  0  0  0  0  0  0  0  0  0  0  0
   -2.9745   -1.2025   -0.5284 N   0  0  0  0  0  0  0  0  0  0  0  0
    3.2888   -2.1990   -1.4151 C   0  0  2  0  0  0  0  0  0  0  0  0
    3.9656   -1.6653   -0.1223 C   0  0  2  0  0  0  0  0  0  0  0  0
    1.2653   -3.0104   -0.1530 C   0  0  2  0  0  0  0  0  0  0  0  0
    1.7568   -2.0740   -1.2777 C   0  0  0  0  0  0  0  0  0  0  0  0
    3.6152   -3.7056   -1.4991 C   0  0  0  0  0  0  0  0  0  0  0  0
    3.2479   -2.3323    1.0858 C   0  0  0  0  0  0  0  0  0  0  0  0
    3.2351   -4.3811   -0.1698 C   0  0  0  0  0  0  0  0  0  0  0  0
    4.1031   -0.1591    0.0476 C   0  0  0  0  0  0  0  0  0  0  0  0
    0.1669   -2.3604    0.6910 C   0  0  0  0  0  0  0  0  0  0  0  0
    3.3178    0.8752   -0.3996 C   0  0  0  0  0  0  0  0  0  0  0  0
    3.9587    2.0348    0.0761 C   0  0  0  0  0  0  0  0  0  0  0  0
    6.2188   -0.2524    1.4009 C   0  0  0  0  0  0  0  0  0  0  0  0
    3.5002    3.4184   -0.1435 C   0  0  0  0  0  0  0  0  0  0  0  0
   -2.0111   -1.4448    0.4314 C   0  0  0  0  0  0  0  0  0  0  0  0
    4.1338    4.5455    0.3257 C   0  0  0  0  0  0  0  0  0  0  0  0
    3.3575    5.6443   -0.1136 C   0  0  0  0  0  0  0  0  0  0  0  0
    2.3049    5.1102   -0.8203 C   0  0  0  0  0  0  0  0  0  0  0  0
   -4.2443   -0.6060   -0.3559 C   0  0  0  0  0  0  0  0  0  0  0  0
   -4.6503   -0.1819    0.9094 C   0  0  0  0  0  0  0  0  0  0  0  0
   -5.0919   -0.4424   -1.4515 C   0  0  0  0  0  0  0  0  0  0  0  0
   -5.9038    0.4059    1.0791 C   0  0  0  0  0  0  0  0  0  0  0  0
   -6.3455    0.1453   -1.2818 C   0  0  0  0  0  0  0  0  0  0  0  0
   -6.7515    0.5695   -0.0165 C   0  0  0  0  0  0  0  0  0  0  0  0
   -8.0594    1.1800    0.1607 C   0  0  0  0  0  0  0  0  0  0  0  0
   -8.8043    1.0313    1.4831 C   0  0  0  0  0  0  0  0  0  0  0  0
    3.6457   -1.6705   -2.3053 H   0  0  0  0  0  0  0  0  0  0  0  0
    4.9932   -2.0579   -0.1499 H   0  0  0  0  0  0  0  0  0  0  0  0
    0.7985   -3.8849   -0.6304 H   0  0  0  0  0  0  0  0  0  0  0  0
    1.4555   -1.0419   -1.0931 H   0  0  0  0  0  0  0  0  0  0  0  0
    1.2844   -2.3705   -2.2230 H   0  0  0  0  0  0  0  0  0  0  0  0
    4.6821   -3.8560   -1.7015 H   0  0  0  0  0  0  0  0  0  0  0  0
    3.0604   -4.1616   -2.3281 H   0  0  0  0  0  0  0  0  0  0  0  0
    4.0028   -2.6869    1.8000 H   0  0  0  0  0  0  0  0  0  0  0  0
    2.6510   -1.6073    1.6511 H   0  0  0  0  0  0  0  0  0  0  0  0
    2.6929   -5.3140   -0.3678 H   0  0  0  0  0  0  0  0  0  0  0  0
    4.1385   -4.6773    0.3785 H   0  0  0  0  0  0  0  0  0  0  0  0
    0.5221   -1.4434    1.1739 H   0  0  0  0  0  0  0  0  0  0  0  0
   -0.1695   -3.0602    1.4659 H   0  0  0  0  0  0  0  0  0  0  0  0
    2.4185    0.8224   -0.9930 H   0  0  0  0  0  0  0  0  0  0  0  0
    6.8390   -0.7352    0.6420 H   0  0  0  0  0  0  0  0  0  0  0  0
    6.8155    0.4789    1.9533 H   0  0  0  0  0  0  0  0  0  0  0  0
    5.8090   -0.9866    2.0978 H   0  0  0  0  0  0  0  0  0  0  0  0
    5.0413    4.5894    0.9120 H   0  0  0  0  0  0  0  0  0  0  0  0
   -2.7452   -1.4873   -1.4775 H   0  0  0  0  0  0  0  0  0  0  0  0
    3.5418    6.6942    0.0624 H   0  0  0  0  0  0  0  0  0  0  0  0
    1.4602    5.5376   -1.3405 H   0  0  0  0  0  0  0  0  0  0  0  0
   -4.0472   -0.2731    1.8022 H   0  0  0  0  0  0  0  0  0  0  0  0
   -4.7882   -0.7696   -2.4427 H   0  0  0  0  0  0  0  0  0  0  0  0
   -6.1905    0.7388    2.0730 H   0  0  0  0  0  0  0  0  0  0  0  0
   -6.9942    0.2604   -2.1463 H   0  0  0  0  0  0  0  0  0  0  0  0
   -8.5276    1.8491    2.1527 H   0  0  0  0  0  0  0  0  0  0  0  0
   -8.5821    0.0669    1.9477 H   0  0  0  0  0  0  0  0  0  0  0  0
   -9.8811    1.0633    1.2915 H   0  0  0  0  0  0  0  0  0  0  0  0
  1 17  1  0  0  0  0
  1 22  1  0  0  0  0
  2 21  1  0  0  0  0
  2 25  1  0  0  0  0
  3 22  2  0  0  0  0
  4 32  2  0  0  0  0
  5 11  1  0  0  0  0
  5 14  1  0  0  0  0
  5 15  1  0  0  0  0
  6  7  1  0  0  0  0
  6 16  1  0  0  0  0
  6 20  1  0  0  0  0
  7 19  2  0  0  0  0
  8 22  1  0  0  0  0
  8 26  1  0  0  0  0
  8 52  1  0  0  0  0
  9 10  1  0  0  0  0
  9 12  1  0  0  0  0
  9 13  1  0  0  0  0
  9 34  1  0  0  0  0
 10 14  1  0  0  0  0
 10 16  1  0  0  0  0
 10 35  1  0  0  0  0
 11 12  1  0  0  0  0
 11 17  1  0  0  0  0
 11 36  1  0  0  0  0
 12 37  1  0  0  0  0
 12 38  1  0  0  0  0
 13 15  1  0  0  0  0
 13 39  1  0  0  0  0
 13 40  1  0  0  0  0
 14 41  1  0  0  0  0
 14 42  1  0  0  0  0
 15 43  1  0  0  0  0
 15 44  1  0  0  0  0
 16 18  2  0  0  0  0
 17 45  1  0  0  0  0
 17 46  1  0  0  0  0
 18 19  1  0  0  0  0
 18 47  1  0  0  0  0
 19 21  1  0  0  0  0
 20 48  1  0  0  0  0
 20 49  1  0  0  0  0
 20 50  1  0  0  0  0
 21 23  2  0  0  0  0
 23 24  1  0  0  0  0
 23 51  1  0  0  0  0
 24 25  2  0  0  0  0
 24 53  1  0  0  0  0
 25 54  1  0  0  0  0
 26 27  2  0  0  0  0
 26 28  1  0  0  0  0
 27 29  1  0  0  0  0
 27 55  1  0  0  0  0
 28 30  2  0  0  0  0
 28 56  1  0  0  0  0
 29 31  2  0  0  0  0
 29 57  1  0  0  0  0
 30 31  1  0  0  0  0
 30 58  1  0  0  0  0
 31 32  1  0  0  0  0
 32 33  1  0  0  0  0
 33 59  1  0  0  0  0
 33 60  1  0  0  0  0
 33 61  1  0  0  0  0
M  END
> <PUBCHEM_COMPOUND_CID>
25389560

> <PUBCHEM_CONFORMER_RMSD>
1

> <PUBCHEM_CONFORMER_DIVERSEORDER>
1
65
31
63
6
22
24
60
18
9
53
34
14
4
39
26
56
30
55
40
46
41
10
20
42
23
59
54
12
50
68
29
45
16
64
49
69
43
27
66
33
19
38
15
47
5
48
28
37
36
32
72
25
44
52
2
17
7
57
73
8
71
61
35
21
70
11
74
13
58
51
3
75
62
67

> <PUBCHEM_MMFF94_PARTIAL_CHARGES>
39
1 -0.43
10 0.18
11 0.27
14 0.27
15 0.27
16 -0.33
17 0.28
18 -0.15
19 0.29
2 -0.28
20 0.26
21 0.14
22 0.78
23 -0.15
24 -0.15
25 -0.01
26 0.12
27 -0.15
28 -0.15
29 -0.15
3 -0.57
30 -0.15
31 0.09
32 0.42
33 0.06
4 -0.57
47 0.15
5 -0.81
51 0.15
52 0.37
53 0.15
54 0.15
55 0.15
56 0.15
57 0.15
58 0.15
6 0.31
7 -0.71
8 -0.55

> <PUBCHEM_EFFECTIVE_ROTOR_COUNT>
9.2

> <PUBCHEM_PHARMACOPHORE_FEATURES>
10
1 2 acceptor
1 3 acceptor
1 4 acceptor
1 5 cation
1 7 acceptor
1 8 donor
5 2 21 23 24 25 rings
5 6 7 16 18 19 rings
6 26 27 28 29 30 31 rings
8 5 9 10 11 12 13 14 15 rings

> <PUBCHEM_HEAVY_ATOM_COUNT>
33

> <PUBCHEM_ATOM_DEF_STEREO_COUNT>
3

> <PUBCHEM_ATOM_UDEF_STEREO_COUNT>
0

> <PUBCHEM_BOND_DEF_STEREO_COUNT>
0

> <PUBCHEM_BOND_UDEF_STEREO_COUNT>
0

> <PUBCHEM_ISOTOPIC_ATOM_COUNT>
0

> <PUBCHEM_COMPONENT_COUNT>
1

> <PUBCHEM_CACTVS_TAUTO_COUNT>
9

> <PUBCHEM_CONFORMER_ID>
018369F800000001

> <PUBCHEM_MMFF94_ENERGY>
76.2891

> <PUBCHEM_FEATURE_SELFOVERLAP>
50.748

> <PUBCHEM_SHAPE_FINGERPRINT>
10673678 19 18340773757568944779
10675989 125 18340488962482943568
10811444 77 18409726304879299641
10937287 8 18051694648919778430
11059845 2 17621011585356246720
11374522 174 17971768919055756221
11386260 185 18270967829968906455
11456790 92 17822846477121426178
11505856 67 17622158387998278982
12888983 3 17969205765232936685
12925494 130 18263082274687777305
13383668 251 17967537905166984381
13944108 23 18335990817849011716
14068700 686 17976832200456331971
14117953 113 18412547617973359756
14251764 75 18194686096829996808
14556957 393 17346322545213923953
15183329 4 16415476026855701227
15198563 99 17908730358019806102
15320295 44 18058442270001553959
15400415 2 17978229688320323885
15419008 47 17750517282289615079
15483637 11 17976254634618419724
16087824 20 18409448090674245184
16988056 13 18339655468802969854
17899979 129 18337396062175688444
19053607 189 18125712641809340560
19302320 297 18408884053233988968
19309040 13 18199753720542704741
20580484 21 18337391548772085821
20715895 44 18411979204409860594
21133410 230 18269826516785545386
21716022 299 15265959645093292830
21987440 362 17904495339666736292
23522609 53 17632030676240601209
27425 322 18410290316133294295
376196 1 18192149524137759682
394071 54 18410576180212107257
397830 11 18334870437434099939
4408954 64 17462539760154050594
44317340 157 18411144615277278079
4487111 67 16536234649282943085
4760202 170 18264757776339078301
5109719 28 18335148617785110035
5312510 48 18410573998400395409
58902169 19 18059848438078177727
5951187 136 18271254897224748974
68570916 9 18342455959590591287

> <PUBCHEM_SHAPE_MULTIPOLES>
635.72
21.23
6.91
1.34
57.68
8.16
0.02
11.45
-3
-15.79
1.47
0.54
-0.45
0.16

> <PUBCHEM_SHAPE_SELFOVERLAP>
1380.859

> <PUBCHEM_SHAPE_VOLUME>
344.2

> <PUBCHEM_COORDINATE_TYPE>
2
5
10

$$$$
