26762194
  -OEChem-12032416183D

 68 72  0     1  0  0  0  0  0999 V2000
    1.9776    4.8947    0.3774 O   0  0  0  0  0  0  0  0  0  0  0  0
   -4.3442    0.1831   -2.0032 O   0  0  0  0  0  0  0  0  0  0  0  0
    2.9534   -0.8285    2.4143 O   0  0  0  0  0  0  0  0  0  0  0  0
   -0.5346    2.2703    0.3213 N   0  0  1  0  0  0  0  0  0  0  0  0
    0.3113    4.5175   -1.1255 N   0  0  0  0  0  0  0  0  0  0  0  0
    2.5041    0.3688    0.4794 N   0  0  0  0  0  0  0  0  0  0  0  0
   -5.0311   -0.4974    0.1210 N   0  0  0  0  0  0  0  0  0  0  0  0
    8.1192   -2.3601   -0.9956 N   0  0  0  0  0  0  0  0  0  0  0  0
    0.3704    3.2112    0.9869 C   0  0  1  0  0  0  0  0  0  0  0  0
   -1.4825    2.9178   -0.5813 C   0  0  1  0  0  0  0  0  0  0  0  0
    1.2649    0.9457    0.9218 C   0  0  1  0  0  0  0  0  0  0  0  0
    1.4468    2.3074    1.5986 C   0  0  0  0  0  0  0  0  0  0  0  0
    0.3008    1.2071   -0.2281 C   0  0  0  0  0  0  0  0  0  0  0  0
   -0.7619    3.7107   -1.6629 C   0  0  0  0  0  0  0  0  0  0  0  0
   -2.4763    1.9304   -1.1942 C   0  0  0  0  0  0  0  0  0  0  0  0
    0.9757    4.2534    0.0495 C   0  0  0  0  0  0  0  0  0  0  0  0
   -3.2649    1.1706   -0.1383 C   0  0  0  0  0  0  0  0  0  0  0  0
   -4.2670    0.2369   -0.7756 C   0  0  0  0  0  0  0  0  0  0  0  0
    3.2566   -0.4834    1.2751 C   0  0  0  0  0  0  0  0  0  0  0  0
   -4.9363   -0.4307    1.5945 C   0  0  0  0  0  0  0  0  0  0  0  0
   -6.0309   -1.4331   -0.2174 C   0  0  0  0  0  0  0  0  0  0  0  0
   -5.9593   -1.4138    2.1737 C   0  0  0  0  0  0  0  0  0  0  0  0
    4.5269   -0.9746    0.6819 C   0  0  0  0  0  0  0  0  0  0  0  0
   -6.5865   -1.9789    0.9417 C   0  0  0  0  0  0  0  0  0  0  0  0
   -6.4777   -1.8303   -1.4693 C   0  0  0  0  0  0  0  0  0  0  0  0
   -7.5951   -2.9285    0.8797 C   0  0  0  0  0  0  0  0  0  0  0  0
    5.5898   -1.3350    1.5102 C   0  0  0  0  0  0  0  0  0  0  0  0
    4.6574   -1.0744   -0.7033 C   0  0  0  0  0  0  0  0  0  0  0  0
   -7.4949   -2.7874   -1.5407 C   0  0  0  0  0  0  0  0  0  0  0  0
   -8.0500   -3.3331   -0.3750 C   0  0  0  0  0  0  0  0  0  0  0  0
    6.7830   -1.7950    0.9535 C   0  0  0  0  0  0  0  0  0  0  0  0
    5.8506   -1.5344   -1.2602 C   0  0  0  0  0  0  0  0  0  0  0  0
    6.9134   -1.8947   -0.4317 C   0  0  0  0  0  0  0  0  0  0  0  0
    9.2301   -2.7377   -0.1445 C   0  0  0  0  0  0  0  0  0  0  0  0
    8.2613   -2.4744   -2.4336 C   0  0  0  0  0  0  0  0  0  0  0  0
   -0.1615    3.7601    1.7732 H   0  0  0  0  0  0  0  0  0  0  0  0
   -2.0650    3.6294    0.0215 H   0  0  0  0  0  0  0  0  0  0  0  0
    0.7949    0.2601    1.6400 H   0  0  0  0  0  0  0  0  0  0  0  0
    2.4621    2.6959    1.4631 H   0  0  0  0  0  0  0  0  0  0  0  0
    1.2817    2.1964    2.6775 H   0  0  0  0  0  0  0  0  0  0  0  0
    0.8394    1.5192   -1.1308 H   0  0  0  0  0  0  0  0  0  0  0  0
   -0.2658    0.3012   -0.4664 H   0  0  0  0  0  0  0  0  0  0  0  0
   -0.3194    3.0586   -2.4242 H   0  0  0  0  0  0  0  0  0  0  0  0
   -1.4534    4.3895   -2.1739 H   0  0  0  0  0  0  0  0  0  0  0  0
   -1.9604    1.2263   -1.8601 H   0  0  0  0  0  0  0  0  0  0  0  0
   -3.1740    2.4892   -1.8330 H   0  0  0  0  0  0  0  0  0  0  0  0
    0.6947    5.2418   -1.7251 H   0  0  0  0  0  0  0  0  0  0  0  0
    2.8740    0.6965   -0.4067 H   0  0  0  0  0  0  0  0  0  0  0  0
   -2.5933    0.5744    0.4875 H   0  0  0  0  0  0  0  0  0  0  0  0
   -3.8014    1.8807    0.5006 H   0  0  0  0  0  0  0  0  0  0  0  0
   -5.1404    0.5952    1.9202 H   0  0  0  0  0  0  0  0  0  0  0  0
   -3.9171   -0.6898    1.9016 H   0  0  0  0  0  0  0  0  0  0  0  0
   -6.6967   -0.8956    2.7944 H   0  0  0  0  0  0  0  0  0  0  0  0
   -5.4666   -2.1940    2.7622 H   0  0  0  0  0  0  0  0  0  0  0  0
   -6.0720   -1.4304   -2.3903 H   0  0  0  0  0  0  0  0  0  0  0  0
   -8.0236   -3.3502    1.7828 H   0  0  0  0  0  0  0  0  0  0  0  0
    5.5087   -1.2597    2.5915 H   0  0  0  0  0  0  0  0  0  0  0  0
    3.8440   -0.8330   -1.3812 H   0  0  0  0  0  0  0  0  0  0  0  0
   -7.8600   -3.1129   -2.5114 H   0  0  0  0  0  0  0  0  0  0  0  0
   -8.8394   -4.0757   -0.4508 H   0  0  0  0  0  0  0  0  0  0  0  0
    7.5805   -2.0621    1.6397 H   0  0  0  0  0  0  0  0  0  0  0  0
    5.9002   -1.6003   -2.3425 H   0  0  0  0  0  0  0  0  0  0  0  0
   10.0926   -3.0751   -0.7301 H   0  0  0  0  0  0  0  0  0  0  0  0
    8.9581   -3.5686    0.5160 H   0  0  0  0  0  0  0  0  0  0  0  0
    9.5752   -1.8887    0.4561 H   0  0  0  0  0  0  0  0  0  0  0  0
    9.2521   -2.8494   -2.7140 H   0  0  0  0  0  0  0  0  0  0  0  0
    8.1486   -1.4996   -2.9214 H   0  0  0  0  0  0  0  0  0  0  0  0
    7.5328   -3.1797   -2.8487 H   0  0  0  0  0  0  0  0  0  0  0  0
  1 16  2  0  0  0  0
  2 18  2  0  0  0  0
  3 19  2  0  0  0  0
  4  9  1  0  0  0  0
  4 10  1  0  0  0  0
  4 13  1  0  0  0  0
  5 14  1  0  0  0  0
  5 16  1  0  0  0  0
  5 47  1  0  0  0  0
  6 11  1  0  0  0  0
  6 19  1  0  0  0  0
  6 48  1  0  0  0  0
  7 18  1  0  0  0  0
  7 20  1  0  0  0  0
  7 21  1  0  0  0  0
  8 33  1  0  0  0  0
  8 34  1  0  0  0  0
  8 35  1  0  0  0  0
  9 12  1  0  0  0  0
  9 16  1  0  0  0  0
  9 36  1  0  0  0  0
 10 14  1  0  0  0  0
 10 15  1  0  0  0  0
 10 37  1  0  0  0  0
 11 12  1  0  0  0  0
 11 13  1  0  0  0  0
 11 38  1  0  0  0  0
 12 39  1  0  0  0  0
 12 40  1  0  0  0  0
 13 41  1  0  0  0  0
 13 42  1  0  0  0  0
 14 43  1  0  0  0  0
 14 44  1  0  0  0  0
 15 17  1  0  0  0  0
 15 45  1  0  0  0  0
 15 46  1  0  0  0  0
 17 18  1  0  0  0  0
 17 49  1  0  0  0  0
 17 50  1  0  0  0  0
 19 23  1  0  0  0  0
 20 22  1  0  0  0  0
 20 51  1  0  0  0  0
 20 52  1  0  0  0  0
 21 24  1  0  0  0  0
 21 25  2  0  0  0  0
 22 24  1  0  0  0  0
 22 53  1  0  0  0  0
 22 54  1  0  0  0  0
 23 27  2  0  0  0  0
 23 28  1  0  0  0  0
 24 26  2  0  0  0  0
 25 29  1  0  0  0  0
 25 55  1  0  0  0  0
 26 30  1  0  0  0  0
 26 56  1  0  0  0  0
 27 31  1  0  0  0  0
 27 57  1  0  0  0  0
 28 32  2  0  0  0  0
 28 58  1  0  0  0  0
 29 30  2  0  0  0  0
 29 59  1  0  0  0  0
 30 60  1  0  0  0  0
 31 33  2  0  0  0  0
 31 61  1  0  0  0  0
 32 33  1  0  0  0  0
 32 62  1  0  0  0  0
 34 63  1  0  0  0  0
 34 64  1  0  0  0  0
 34 65  1  0  0  0  0
 35 66  1  0  0  0  0
 35 67  1  0  0  0  0
 35 68  1  0  0  0  0
M  END
> <PUBCHEM_COMPOUND_CID>
26762194

> <PUBCHEM_CONFORMER_RMSD>
1

> <PUBCHEM_CONFORMER_DIVERSEORDER>
3
4
186
161
160
133
219
139
141
71
17
8
65
214
166
82
52
106
142
57
68
174
175
22
190
155
26
135
180
225
10
152
14
60
105
94
159
39
20
5
193
102
16
23
67
187
24
116
134
27
96
182
118
90
25
9
87
192
78
146
132
183
151
173
212
74
43
120
143
75
111
194
6
127
63
91
46
158
181
170
224
101
131
7
217
97
140
144
149
72
100
38
147
222
88
145
200
56
30
137
210
18
176
1
125
86
148
115
70
171
113
29
69
85
164
198
40
11
199
129
119
215
150
197
103
167
218
53
201
157
189
42
93
121
179
98
184
168
47
37
73
114
188
117
19
196
177
107
83
207
122
50
84
35
36
112
44
31
211
104
34
156
216
226
128
205
124
163
28
209
109
49
59
79
80
110
33
95
41
13
92
64
77
76
66
220
89
62
204
108
130
213
81
191
123
172
45
126
154
48
206
165
153
61
99
2
195
202
54
12
203
221
32
136
162
169
223
15
138
51
55
21
185
58
178
208

> <PUBCHEM_MMFF94_PARTIAL_CHARGES>
43
1 -0.57
10 0.27
11 0.3
13 0.27
14 0.3
16 0.57
17 0.06
18 0.57
19 0.54
2 -0.57
20 0.3
21 0.12
22 0.14
23 0.09
24 -0.14
25 -0.15
26 -0.15
27 -0.15
28 -0.15
29 -0.15
3 -0.57
30 -0.15
31 -0.15
32 -0.15
33 0.1
34 0.37
35 0.37
4 -0.81
47 0.37
48 0.37
5 -0.73
55 0.15
56 0.15
57 0.15
58 0.15
59 0.15
6 -0.73
60 0.15
61 0.15
62 0.15
7 -0.48
8 -0.84
9 0.33

> <PUBCHEM_EFFECTIVE_ROTOR_COUNT>
9.8

> <PUBCHEM_PHARMACOPHORE_FEATURES>
12
1 1 acceptor
1 2 acceptor
1 3 acceptor
1 4 cation
1 5 donor
1 6 donor
1 8 cation
5 4 9 11 12 13 rings
5 7 20 21 22 24 rings
6 21 24 25 26 29 30 rings
6 23 27 28 31 32 33 rings
6 4 5 9 10 14 16 rings

> <PUBCHEM_HEAVY_ATOM_COUNT>
35

> <PUBCHEM_ATOM_DEF_STEREO_COUNT>
3

> <PUBCHEM_ATOM_UDEF_STEREO_COUNT>
0

> <PUBCHEM_BOND_DEF_STEREO_COUNT>
0

> <PUBCHEM_BOND_UDEF_STEREO_COUNT>
0

> <PUBCHEM_ISOTOPIC_ATOM_COUNT>
0

> <PUBCHEM_COMPONENT_COUNT>
1

> <PUBCHEM_CACTVS_TAUTO_COUNT>
6

> <PUBCHEM_CONFORMER_ID>
01985BD200000003

> <PUBCHEM_MMFF94_ENERGY>
114.3082

> <PUBCHEM_FEATURE_SELFOVERLAP>
61.186

> <PUBCHEM_SHAPE_FINGERPRINT>
10319688 140 18264768946504548812
10462674 369 17822555166791250992
10952577 141 15938077883696475727
11135609 127 9078301906736732025
11227688 84 18264753390597057535
11621639 208 17611188543324394099
117089 54 18410858758811264415
12061779 8 12974985331911950031
12522641 68 16671638346855680741
12988421 55 11671780438520283881
131258 43 18187652439538181100
13533116 47 18124028190754775049
13540713 4 18190998245232819797
1361 87 17458347498553534515
13673619 4 18411697686045789281
13690498 29 18186796951067284117
13782708 43 17987790788585424170
14068700 675 18272376377657918185
14931854 50 17312816078886465515
15324884 4 17981849082951137800
15392192 29 18187377502155023475
15773216 30 18264775544386809492
15803439 3 14490193808213774153
16067689 302 18339641239629630344
16067689 68 17346605171015385959
16990366 60 18187913006513367978
16991971 28 18409731776651745486
16992779 147 15624792038091965802
16994733 274 13262397799433309170
17686467 74 18410569554053840688
19246450 95 13686017540624732202
19309040 13 7853585608440634977
20501277 180 8069215232096095159
21344244 246 18261960743254188164
21353434 59 18131349739352119103
21365058 113 18187083996632577477
21716022 299 18261404398179993668
21867126 195 18341043090858537942
22899556 105 18338531806669813764
255183 451 18409447020240964565
2748736 6 9511463316660304891
3862424 121 18334580169630296102
3918712 181 10881397651534133014
393628 179 11097860717565706126
393628 194 8862933992398999331
397638 26 11167940273062644582
42767 28 14923946777663568911
4330586 98 17386300881766569434
4756326 101 14129341862438263510
54039377 194 18412827975979200166
57816373 69 18128811027427570143
6201320 77 17059502816393885406
636775 8 18342743962806614382
999808 66 17560516201743676566

> <PUBCHEM_SHAPE_MULTIPOLES>
677.77
26.86
5.78
1.99
11.27
7.1
0.01
-46.9
-5.48
-0.08
-1.44
0.16
-0.58
2.07

> <PUBCHEM_SHAPE_SELFOVERLAP>
1462.112

> <PUBCHEM_SHAPE_VOLUME>
373.2

> <PUBCHEM_COORDINATE_TYPE>
2
5
10

$$$$
