38027160
  -OEChem-12032416243D

 67 69  0     1  0  0  0  0  0999 V2000
   -2.4802    2.1498    1.2745 O   0  0  0  0  0  0  0  0  0  0  0  0
    3.1996   -1.0365   -2.3317 O   0  0  0  0  0  0  0  0  0  0  0  0
    3.4877    0.0837   -0.3197 N   0  0  0  0  0  0  0  0  0  0  0  0
   -2.5450   -0.1148    1.7713 N   0  0  0  0  0  0  0  0  0  0  0  0
    2.4449   -4.6867    0.9970 N   0  0  0  0  0  0  0  0  0  0  0  0
    1.2917    2.0443   -0.9334 C   0  0  1  0  0  0  0  0  0  0  0  0
    2.7010    2.3911   -0.3918 C   0  0  1  0  0  0  0  0  0  0  0  0
    0.2112    2.7825   -0.1285 C   0  0  0  0  0  0  0  0  0  0  0  0
    0.2585    2.4300    1.3702 C   0  0  2  0  0  0  0  0  0  0  0  0
    1.1541    2.3851   -2.4206 C   0  0  0  0  0  0  0  0  0  0  0  0
    1.6698    2.4896    1.9184 C   0  0  0  0  0  0  0  0  0  0  0  0
    2.7486    2.4848    1.1153 C   0  0  0  0  0  0  0  0  0  0  0  0
    3.7439    1.3762   -0.8735 C   0  0  0  0  0  0  0  0  0  0  0  0
   -0.3759    1.0603    1.6357 C   0  0  0  0  0  0  0  0  0  0  0  0
    0.0641    1.5332   -3.0632 C   0  0  0  0  0  0  0  0  0  0  0  0
    0.8567    3.8703   -2.6007 C   0  0  0  0  0  0  0  0  0  0  0  0
    1.8123    2.6010    3.4109 C   0  0  0  0  0  0  0  0  0  0  0  0
   -1.8899    1.0995    1.5404 C   0  0  0  0  0  0  0  0  0  0  0  0
    3.2313   -1.0405   -1.1039 C   0  0  0  0  0  0  0  0  0  0  0  0
   -3.9994   -0.2430    1.7164 C   0  0  0  0  0  0  0  0  0  0  0  0
   -1.8258   -1.3437    2.0840 C   0  0  0  0  0  0  0  0  0  0  0  0
    2.9582   -2.3058   -0.3750 C   0  0  0  0  0  0  0  0  0  0  0  0
   -4.4773   -0.6396    0.3496 C   0  0  0  0  0  0  0  0  0  0  0  0
    3.2410   -3.5298   -0.9710 C   0  0  0  0  0  0  0  0  0  0  0  0
    2.4190   -2.2709    0.9063 C   0  0  0  0  0  0  0  0  0  0  0  0
   -4.7908    0.3409   -0.5919 C   0  0  0  0  0  0  0  0  0  0  0  0
   -4.6082   -1.9889    0.0211 C   0  0  0  0  0  0  0  0  0  0  0  0
    2.9683   -4.6809   -0.2495 C   0  0  0  0  0  0  0  0  0  0  0  0
    2.1831   -3.4783    1.5438 C   0  0  0  0  0  0  0  0  0  0  0  0
   -5.2349   -0.0281   -1.8618 C   0  0  0  0  0  0  0  0  0  0  0  0
   -5.0520   -2.3578   -1.2487 C   0  0  0  0  0  0  0  0  0  0  0  0
   -5.3656   -1.3773   -2.1901 C   0  0  0  0  0  0  0  0  0  0  0  0
    1.1247    0.9675   -0.8151 H   0  0  0  0  0  0  0  0  0  0  0  0
    3.0066    3.3753   -0.7686 H   0  0  0  0  0  0  0  0  0  0  0  0
   -0.7849    2.5849   -0.5360 H   0  0  0  0  0  0  0  0  0  0  0  0
    0.3628    3.8684   -0.1816 H   0  0  0  0  0  0  0  0  0  0  0  0
   -0.3225    3.2025    1.8934 H   0  0  0  0  0  0  0  0  0  0  0  0
    2.0845    2.1593   -2.9517 H   0  0  0  0  0  0  0  0  0  0  0  0
    3.7366    2.5768    1.5621 H   0  0  0  0  0  0  0  0  0  0  0  0
    4.7434    1.6709   -0.5310 H   0  0  0  0  0  0  0  0  0  0  0  0
    3.7923    1.3269   -1.9647 H   0  0  0  0  0  0  0  0  0  0  0  0
    0.0123    0.3050    0.9454 H   0  0  0  0  0  0  0  0  0  0  0  0
   -0.1375    0.7489    2.6587 H   0  0  0  0  0  0  0  0  0  0  0  0
   -0.0102    1.7517   -4.1341 H   0  0  0  0  0  0  0  0  0  0  0  0
    0.2901    0.4662   -2.9611 H   0  0  0  0  0  0  0  0  0  0  0  0
   -0.9209    1.7145   -2.6220 H   0  0  0  0  0  0  0  0  0  0  0  0
    1.5640    4.5111   -2.0661 H   0  0  0  0  0  0  0  0  0  0  0  0
    0.9473    4.1287   -3.6631 H   0  0  0  0  0  0  0  0  0  0  0  0
   -0.1651    4.1424   -2.3154 H   0  0  0  0  0  0  0  0  0  0  0  0
    1.2343    3.4520    3.7858 H   0  0  0  0  0  0  0  0  0  0  0  0
    2.8537    2.7559    3.7132 H   0  0  0  0  0  0  0  0  0  0  0  0
    1.4599    1.6935    3.9090 H   0  0  0  0  0  0  0  0  0  0  0  0
    3.5856   -0.0176    0.6852 H   0  0  0  0  0  0  0  0  0  0  0  0
   -4.4468    0.7212    1.9888 H   0  0  0  0  0  0  0  0  0  0  0  0
   -4.3383   -0.9565    2.4772 H   0  0  0  0  0  0  0  0  0  0  0  0
   -0.7793   -1.2027    2.3492 H   0  0  0  0  0  0  0  0  0  0  0  0
   -1.8682   -2.0026    1.2120 H   0  0  0  0  0  0  0  0  0  0  0  0
   -2.3119   -1.8379    2.9313 H   0  0  0  0  0  0  0  0  0  0  0  0
    3.6656   -3.6002   -1.9667 H   0  0  0  0  0  0  0  0  0  0  0  0
    2.1525   -1.3500    1.4125 H   0  0  0  0  0  0  0  0  0  0  0  0
   -4.6957    1.3959   -0.3502 H   0  0  0  0  0  0  0  0  0  0  0  0
   -4.3697   -2.7627    0.7459 H   0  0  0  0  0  0  0  0  0  0  0  0
    3.1717   -5.6606   -0.6692 H   0  0  0  0  0  0  0  0  0  0  0  0
    1.7565   -3.5057    2.5412 H   0  0  0  0  0  0  0  0  0  0  0  0
   -5.4791    0.7353   -2.5948 H   0  0  0  0  0  0  0  0  0  0  0  0
   -5.1541   -3.4083   -1.5044 H   0  0  0  0  0  0  0  0  0  0  0  0
   -5.7115   -1.6646   -3.1787 H   0  0  0  0  0  0  0  0  0  0  0  0
  1 18  2  0  0  0  0
  2 19  2  0  0  0  0
  3 13  1  0  0  0  0
  3 19  1  0  0  0  0
  3 53  1  0  0  0  0
  4 18  1  0  0  0  0
  4 20  1  0  0  0  0
  4 21  1  0  0  0  0
  5 28  2  0  0  0  0
  5 29  1  0  0  0  0
  6  7  1  0  0  0  0
  6  8  1  0  0  0  0
  6 10  1  0  0  0  0
  6 33  1  0  0  0  0
  7 12  1  0  0  0  0
  7 13  1  0  0  0  0
  7 34  1  0  0  0  0
  8  9  1  0  0  0  0
  8 35  1  0  0  0  0
  8 36  1  0  0  0  0
  9 11  1  0  0  0  0
  9 14  1  0  0  0  0
  9 37  1  0  0  0  0
 10 15  1  0  0  0  0
 10 16  1  0  0  0  0
 10 38  1  0  0  0  0
 11 12  2  0  0  0  0
 11 17  1  0  0  0  0
 12 39  1  0  0  0  0
 13 40  1  0  0  0  0
 13 41  1  0  0  0  0
 14 18  1  0  0  0  0
 14 42  1  0  0  0  0
 14 43  1  0  0  0  0
 15 44  1  0  0  0  0
 15 45  1  0  0  0  0
 15 46  1  0  0  0  0
 16 47  1  0  0  0  0
 16 48  1  0  0  0  0
 16 49  1  0  0  0  0
 17 50  1  0  0  0  0
 17 51  1  0  0  0  0
 17 52  1  0  0  0  0
 19 22  1  0  0  0  0
 20 23  1  0  0  0  0
 20 54  1  0  0  0  0
 20 55  1  0  0  0  0
 21 56  1  0  0  0  0
 21 57  1  0  0  0  0
 21 58  1  0  0  0  0
 22 24  2  0  0  0  0
 22 25  1  0  0  0  0
 23 26  2  0  0  0  0
 23 27  1  0  0  0  0
 24 28  1  0  0  0  0
 24 59  1  0  0  0  0
 25 29  2  0  0  0  0
 25 60  1  0  0  0  0
 26 30  1  0  0  0  0
 26 61  1  0  0  0  0
 27 31  2  0  0  0  0
 27 62  1  0  0  0  0
 28 63  1  0  0  0  0
 29 64  1  0  0  0  0
 30 32  2  0  0  0  0
 30 65  1  0  0  0  0
 31 32  1  0  0  0  0
 31 66  1  0  0  0  0
 32 67  1  0  0  0  0
M  END
> <PUBCHEM_COMPOUND_CID>
38027160

> <PUBCHEM_CONFORMER_RMSD>
1.2

> <PUBCHEM_CONFORMER_DIVERSEORDER>
1
122
8
75
103
18
78
131
226
7
109
87
210
53
150
187
88
49
168
188
160
119
108
72
85
202
204
13
89
161
134
180
223
193
170
101
148
70
121
26
128
97
16
208
190
44
104
40
203
136
143
4
79
220
169
105
230
225
50
196
140
77
156
63
177
233
194
149
61
10
67
159
176
76
28
41
222
117
95
130
200
145
118
214
114
66
151
234
127
227
107
82
86
25
34
62
139
59
237
142
157
218
215
35
58
125
229
111
198
42
94
38
115
56
65
123
102
212
116
5
147
64
236
167
112
197
39
132
152
45
217
209
27
179
98
106
155
37
231
15
138
195
83
30
175
191
133
80
221
19
182
24
81
12
100
74
228
23
216
178
17
165
110
93
185
113
146
71
68
207
153
199
73
3
14
173
141
57
33
69
20
154
183
9
43
235
32
166
55
6
52
36
171
205
90
46
99
84
31
51
54
48
124
60
21
174
47
126
201
96
224
211
192
184
163
206
181
120
91
189
164
213
232
137
29
186
22
129
162
11
135
144
172
158
2
219
92

> <PUBCHEM_MMFF94_PARTIAL_CHARGES>
38
1 -0.57
11 -0.28
12 -0.29
13 0.3
14 0.06
17 0.14
18 0.57
19 0.54
2 -0.57
20 0.44
21 0.3
22 0.09
23 -0.14
24 -0.15
25 -0.15
26 -0.15
27 -0.15
28 0.16
29 0.16
3 -0.73
30 -0.15
31 -0.15
32 -0.15
39 0.15
4 -0.66
5 -0.62
53 0.37
59 0.15
60 0.15
61 0.15
62 0.15
63 0.15
64 0.15
65 0.15
66 0.15
67 0.15
7 0.14
9 0.14

> <PUBCHEM_EFFECTIVE_ROTOR_COUNT>
10.8

> <PUBCHEM_PHARMACOPHORE_FEATURES>
8
1 1 acceptor
1 2 acceptor
1 3 donor
1 5 acceptor
3 10 15 16 hydrophobe
6 23 26 27 30 31 32 rings
6 5 22 24 25 28 29 rings
6 6 7 8 9 11 12 rings

> <PUBCHEM_HEAVY_ATOM_COUNT>
32

> <PUBCHEM_ATOM_DEF_STEREO_COUNT>
3

> <PUBCHEM_ATOM_UDEF_STEREO_COUNT>
0

> <PUBCHEM_BOND_DEF_STEREO_COUNT>
0

> <PUBCHEM_BOND_UDEF_STEREO_COUNT>
0

> <PUBCHEM_ISOTOPIC_ATOM_COUNT>
0

> <PUBCHEM_COMPONENT_COUNT>
1

> <PUBCHEM_CACTVS_TAUTO_COUNT>
2

> <PUBCHEM_CONFORMER_ID>
02443F9800000001

> <PUBCHEM_MMFF94_ENERGY>
80.4839

> <PUBCHEM_FEATURE_SELFOVERLAP>
40.597

> <PUBCHEM_SHAPE_FINGERPRINT>
11285246 1 17609206858334869823
11513181 2 18057904445422093486
11552529 35 17479738217777593666
11991303 11 17405129116649970896
12156800 1 16448089619818895098
12977781 61 17758919716274688888
14251757 17 17530972371418074175
14674994 50 17399231954573515926
14705955 166 14975743417280327834
17909252 39 18342728642204244755
17921350 177 16951959776769236300
19315092 285 17989196075433954361
20764821 26 17979082909221548443
20775530 9 18048613529381003186
24941158 1 17982413175207026197
25222932 49 17128159865827814895
26353 1 18116987789509481995
35225 105 17042909342899489646
4066623 53 17534876634139531461
46194498 28 17242474929820689749
463206 1 18199483231907675083
5081480 168 17895756189088068997
59025328 239 18335973186564565237
66674814 147 18261122893385521762
86090 222 17767407155651450355

> <PUBCHEM_SHAPE_MULTIPOLES>
631.86
9.97
5.89
3.16
16.65
5.4
-0.18
6.43
-3.75
-7.82
-0.11
0.03
-2.33
-0.37

> <PUBCHEM_SHAPE_SELFOVERLAP>
1321.393

> <PUBCHEM_SHAPE_VOLUME>
354.6

> <PUBCHEM_COORDINATE_TYPE>
2
5
10

$$$$
