40586329
  -OEChem-12032416173D

 63 67  0     1  0  0  0  0  0999 V2000
   -3.5334   -1.2845    2.2125 O   0  0  0  0  0  0  0  0  0  0  0  0
    0.7144    1.9009    1.5602 O   0  0  0  0  0  0  0  0  0  0  0  0
    6.4427   -1.7994    1.5518 O   0  0  0  0  0  0  0  0  0  0  0  0
   -3.9349    0.2932    0.5549 N   0  0  0  0  0  0  0  0  0  0  0  0
   -1.2156    1.9402    0.2513 N   0  0  0  0  0  0  0  0  0  0  0  0
    6.4275   -0.1389   -0.1219 N   0  0  0  0  0  0  0  0  0  0  0  0
   -3.4898    2.6718    1.1723 C   0  0  1  0  0  0  0  0  0  0  0  0
   -3.2926    1.9635   -1.1738 C   0  0  2  0  0  0  0  0  0  0  0  0
   -3.7817    3.0883   -0.2641 C   0  0  0  0  0  0  0  0  0  0  0  0
   -4.2215    1.3620    1.5136 C   0  0  0  0  0  0  0  0  0  0  0  0
   -4.0702    0.6701   -0.8601 C   0  0  0  0  0  0  0  0  0  0  0  0
   -1.9724    2.5485    1.3541 C   0  0  0  0  0  0  0  0  0  0  0  0
   -1.8050    1.7245   -0.9966 C   0  0  0  0  0  0  0  0  0  0  0  0
   -3.4472   -2.0508   -0.0184 C   0  0  0  0  0  0  0  0  0  0  0  0
   -3.6427   -0.9891    1.0198 C   0  0  0  0  0  0  0  0  0  0  0  0
   -1.9800   -2.0947   -0.4479 C   0  0  0  0  0  0  0  0  0  0  0  0
   -3.9076   -3.3968    0.5439 C   0  0  0  0  0  0  0  0  0  0  0  0
   -1.0634    1.2808   -2.0240 C   0  0  0  0  0  0  0  0  0  0  0  0
   -1.7183   -3.2338   -1.4300 C   0  0  0  0  0  0  0  0  0  0  0  0
   -3.6409   -4.5354   -0.4373 C   0  0  0  0  0  0  0  0  0  0  0  0
    0.1515    1.6916    0.4842 C   0  0  0  0  0  0  0  0  0  0  0  0
   -2.1774   -4.5765   -0.8683 C   0  0  0  0  0  0  0  0  0  0  0  0
    0.9486    1.1601   -0.6766 C   0  0  0  0  0  0  0  0  0  0  0  0
    0.3321    0.9908   -1.8559 C   0  0  0  0  0  0  0  0  0  0  0  0
    2.3750    0.8217   -0.5318 C   0  0  0  0  0  0  0  0  0  0  0  0
    3.3283    1.4683   -1.3187 C   0  0  0  0  0  0  0  0  0  0  0  0
    2.7726   -0.1450    0.3917 C   0  0  0  0  0  0  0  0  0  0  0  0
    4.6790    1.1481   -1.1821 C   0  0  0  0  0  0  0  0  0  0  0  0
    4.1233   -0.4653    0.5284 C   0  0  0  0  0  0  0  0  0  0  0  0
    5.0764    0.1812   -0.2585 C   0  0  0  0  0  0  0  0  0  0  0  0
    7.0120   -1.0736    0.7431 C   0  0  0  0  0  0  0  0  0  0  0  0
    8.5111   -1.1218    0.5838 C   0  0  0  0  0  0  0  0  0  0  0  0
   -3.8562    3.4438    1.8603 H   0  0  0  0  0  0  0  0  0  0  0  0
   -3.5008    2.2498   -2.2130 H   0  0  0  0  0  0  0  0  0  0  0  0
   -3.2754    4.0317   -0.5039 H   0  0  0  0  0  0  0  0  0  0  0  0
   -4.8566    3.2554   -0.4040 H   0  0  0  0  0  0  0  0  0  0  0  0
   -3.9741    1.0456    2.5324 H   0  0  0  0  0  0  0  0  0  0  0  0
   -5.3059    1.5254    1.4850 H   0  0  0  0  0  0  0  0  0  0  0  0
   -5.1410    0.8183   -1.0466 H   0  0  0  0  0  0  0  0  0  0  0  0
   -3.7331   -0.1070   -1.5455 H   0  0  0  0  0  0  0  0  0  0  0  0
   -1.5515    3.5555    1.4804 H   0  0  0  0  0  0  0  0  0  0  0  0
   -1.7389    2.0065    2.2793 H   0  0  0  0  0  0  0  0  0  0  0  0
   -4.0920   -1.8769   -0.8840 H   0  0  0  0  0  0  0  0  0  0  0  0
   -1.3346   -2.2185    0.4317 H   0  0  0  0  0  0  0  0  0  0  0  0
   -1.6840   -1.1540   -0.9113 H   0  0  0  0  0  0  0  0  0  0  0  0
   -4.9778   -3.3617    0.7830 H   0  0  0  0  0  0  0  0  0  0  0  0
   -3.3870   -3.6259    1.4831 H   0  0  0  0  0  0  0  0  0  0  0  0
   -1.4987    1.0946   -3.0002 H   0  0  0  0  0  0  0  0  0  0  0  0
   -0.6489   -3.2787   -1.6652 H   0  0  0  0  0  0  0  0  0  0  0  0
   -2.2444   -3.0318   -2.3711 H   0  0  0  0  0  0  0  0  0  0  0  0
   -4.2781   -4.4117   -1.3216 H   0  0  0  0  0  0  0  0  0  0  0  0
   -3.9165   -5.4911    0.0227 H   0  0  0  0  0  0  0  0  0  0  0  0
   -2.0368   -5.3591   -1.6223 H   0  0  0  0  0  0  0  0  0  0  0  0
   -1.5516   -4.8449   -0.0082 H   0  0  0  0  0  0  0  0  0  0  0  0
    0.8545    0.6033   -2.7258 H   0  0  0  0  0  0  0  0  0  0  0  0
    3.0395    2.2290   -2.0401 H   0  0  0  0  0  0  0  0  0  0  0  0
    2.0418   -0.6625    1.0089 H   0  0  0  0  0  0  0  0  0  0  0  0
    5.4111    1.6608   -1.8009 H   0  0  0  0  0  0  0  0  0  0  0  0
    4.3540   -1.2240    1.2630 H   0  0  0  0  0  0  0  0  0  0  0  0
    7.0595    0.3765   -0.7310 H   0  0  0  0  0  0  0  0  0  0  0  0
    8.9374   -0.1343    0.7819 H   0  0  0  0  0  0  0  0  0  0  0  0
    8.7644   -1.4323   -0.4337 H   0  0  0  0  0  0  0  0  0  0  0  0
    8.9362   -1.8394    1.2911 H   0  0  0  0  0  0  0  0  0  0  0  0
  1 15  2  0  0  0  0
  2 21  2  0  0  0  0
  3 31  2  0  0  0  0
  4 10  1  0  0  0  0
  4 11  1  0  0  0  0
  4 15  1  0  0  0  0
  5 12  1  0  0  0  0
  5 13  1  0  0  0  0
  5 21  1  0  0  0  0
  6 30  1  0  0  0  0
  6 31  1  0  0  0  0
  6 60  1  0  0  0  0
  7  9  1  0  0  0  0
  7 10  1  0  0  0  0
  7 12  1  0  0  0  0
  7 33  1  0  0  0  0
  8  9  1  0  0  0  0
  8 11  1  0  0  0  0
  8 13  1  0  0  0  0
  8 34  1  0  0  0  0
  9 35  1  0  0  0  0
  9 36  1  0  0  0  0
 10 37  1  0  0  0  0
 10 38  1  0  0  0  0
 11 39  1  0  0  0  0
 11 40  1  0  0  0  0
 12 41  1  0  0  0  0
 12 42  1  0  0  0  0
 13 18  2  0  0  0  0
 14 15  1  0  0  0  0
 14 16  1  0  0  0  0
 14 17  1  0  0  0  0
 14 43  1  0  0  0  0
 16 19  1  0  0  0  0
 16 44  1  0  0  0  0
 16 45  1  0  0  0  0
 17 20  1  0  0  0  0
 17 46  1  0  0  0  0
 17 47  1  0  0  0  0
 18 24  1  0  0  0  0
 18 48  1  0  0  0  0
 19 22  1  0  0  0  0
 19 49  1  0  0  0  0
 19 50  1  0  0  0  0
 20 22  1  0  0  0  0
 20 51  1  0  0  0  0
 20 52  1  0  0  0  0
 21 23  1  0  0  0  0
 22 53  1  0  0  0  0
 22 54  1  0  0  0  0
 23 24  2  0  0  0  0
 23 25  1  0  0  0  0
 24 55  1  0  0  0  0
 25 26  2  0  0  0  0
 25 27  1  0  0  0  0
 26 28  1  0  0  0  0
 26 56  1  0  0  0  0
 27 29  2  0  0  0  0
 27 57  1  0  0  0  0
 28 30  2  0  0  0  0
 28 58  1  0  0  0  0
 29 30  1  0  0  0  0
 29 59  1  0  0  0  0
 31 32  1  0  0  0  0
 32 61  1  0  0  0  0
 32 62  1  0  0  0  0
 32 63  1  0  0  0  0
M  END
> <PUBCHEM_COMPOUND_CID>
40586329

> <PUBCHEM_CONFORMER_RMSD>
1

> <PUBCHEM_CONFORMER_DIVERSEORDER>
1
3
7
6
5
2
4

> <PUBCHEM_MMFF94_PARTIAL_CHARGES>
32
1 -0.57
10 0.3
11 0.3
12 0.3
13 -0.03
14 0.06
15 0.57
18 -0.15
2 -0.57
21 0.62
23 -0.01
24 -0.15
25 0.03
26 -0.15
27 -0.15
28 -0.15
29 -0.15
3 -0.57
30 0.12
31 0.57
32 0.06
4 -0.66
48 0.15
5 -0.47
55 0.15
56 0.15
57 0.15
58 0.15
59 0.15
6 -0.55
60 0.37
8 0.14

> <PUBCHEM_EFFECTIVE_ROTOR_COUNT>
7.2

> <PUBCHEM_PHARMACOPHORE_FEATURES>
9
1 1 acceptor
1 2 acceptor
1 3 acceptor
1 6 donor
6 14 16 17 19 20 22 rings
6 25 26 27 28 29 30 rings
6 4 7 8 9 10 11 rings
6 5 13 18 21 23 24 rings
6 5 7 8 9 12 13 rings

> <PUBCHEM_HEAVY_ATOM_COUNT>
32

> <PUBCHEM_ATOM_DEF_STEREO_COUNT>
2

> <PUBCHEM_ATOM_UDEF_STEREO_COUNT>
0

> <PUBCHEM_BOND_DEF_STEREO_COUNT>
0

> <PUBCHEM_BOND_UDEF_STEREO_COUNT>
0

> <PUBCHEM_ISOTOPIC_ATOM_COUNT>
0

> <PUBCHEM_COMPONENT_COUNT>
1

> <PUBCHEM_CACTVS_TAUTO_COUNT>
7

> <PUBCHEM_CONFORMER_ID>
026B4C5900000001

> <PUBCHEM_MMFF94_ENERGY>
84.3396

> <PUBCHEM_FEATURE_SELFOVERLAP>
47.238

> <PUBCHEM_SHAPE_FINGERPRINT>
10291535 26 9511460043604737317
10483366 6 18339909520915162351
10622 236 18188484812879575078
11135609 149 17336155627401107263
11524674 6 18272083851561439103
11552529 35 18340209690850329085
12422481 6 18411140195724204390
12633257 1 17701563881263973137
13631057 29 18194126441343104932
14068700 675 17773589628304517847
14279260 333 17676203534074724690
14705955 166 17059793139050725147
14844126 61 18411140259863526515
14856354 85 18344145886954461716
14866123 147 18410291436671072959
14950920 106 17988086698097806616
15021287 119 17603309241625982372
15250474 111 18335421287947371334
15320294 125 18335143076597367982
15361156 5 17095816434280282148
15439362 3 17472132874606071933
16728300 4 18187368714441640843
17780758 139 18412543202182476944
18927931 339 16009038237163630836
19611394 137 17917990595130151416
20775530 9 17766003075118439511
21033648 29 15768954452921415974
23522609 53 17897474777518948660
23559900 14 18337382859372510401
249057 3 18040995094516011181
3383291 50 18343018900558380559
397830 11 18200581610587179768
4073 2 18272929394127540726
4409770 3 18410289212394205509
445580 42 18343579663882227279
463206 1 17832432264791647371
484985 159 18336537287849225495
5080951 261 18189594121696407822
5104073 3 18342734148700808864
5951187 136 8323444730653220659
6691757 9 18342742871420567521
68570916 9 18335420201943163596
7970288 3 17683251626430440803

> <PUBCHEM_SHAPE_MULTIPOLES>
625.99
15.07
4.81
1.7
39.2
5.76
-0.02
6.7
-4.93
-8.59
0.51
-0.62
-0.41
-1.81

> <PUBCHEM_SHAPE_SELFOVERLAP>
1356.588

> <PUBCHEM_SHAPE_VOLUME>
334.2

> <PUBCHEM_COORDINATE_TYPE>
2
5
10

$$$$
