38027256
  -OEChem-12032416253D

 70 72  0     1  0  0  0  0  0999 V2000
    3.2320   -1.0861    1.7358 S   0  0  0  0  0  0  0  0  0  0  0  0
   -3.0298    3.1532   -0.3695 O   0  0  0  0  0  0  0  0  0  0  0  0
    3.0309   -1.1152    3.1721 O   0  0  0  0  0  0  0  0  0  0  0  0
    4.4845   -1.5433    1.1653 O   0  0  0  0  0  0  0  0  0  0  0  0
   -1.0785   -4.2680   -0.7790 O   0  0  0  0  0  0  0  0  0  0  0  0
   -3.0577    1.1457    0.8011 N   0  0  0  0  0  0  0  0  0  0  0  0
    2.8905    0.4777    1.1522 N   0  0  0  0  0  0  0  0  0  0  0  0
    1.2162    1.2518   -1.2095 C   0  0  1  0  0  0  0  0  0  0  0  0
    2.5341    1.9416   -0.7763 C   0  0  1  0  0  0  0  0  0  0  0  0
    0.1249    2.2998   -1.4754 C   0  0  0  0  0  0  0  0  0  0  0  0
   -0.1632    3.1684   -0.2364 C   0  0  2  0  0  0  0  0  0  0  0  0
    1.4128    0.3804   -2.4539 C   0  0  0  0  0  0  0  0  0  0  0  0
    1.1129    3.6692    0.4093 C   0  0  0  0  0  0  0  0  0  0  0  0
    2.3106    3.1174    0.1456 C   0  0  0  0  0  0  0  0  0  0  0  0
   -1.0315    2.4143    0.7770 C   0  0  0  0  0  0  0  0  0  0  0  0
    3.4874    0.9436   -0.1093 C   0  0  0  0  0  0  0  0  0  0  0  0
    0.1256   -0.3661   -2.7894 C   0  0  0  0  0  0  0  0  0  0  0  0
    1.8670    1.2331   -3.6342 C   0  0  0  0  0  0  0  0  0  0  0  0
   -4.4268    0.7855    0.5269 C   0  0  0  0  0  0  0  0  0  0  0  0
    0.9870    4.8500    1.3313 C   0  0  0  0  0  0  0  0  0  0  0  0
   -2.4707    2.3091    0.3254 C   0  0  0  0  0  0  0  0  0  0  0  0
   -5.0075   -0.0948    1.6263 C   0  0  0  0  0  0  0  0  0  0  0  0
   -4.5459   -0.0966   -0.7102 C   0  0  0  0  0  0  0  0  0  0  0  0
   -4.5150   -1.5002    1.2928 C   0  0  0  0  0  0  0  0  0  0  0  0
   -4.2591   -1.5129   -0.2145 C   0  0  0  0  0  0  0  0  0  0  0  0
    1.9453   -2.0386    0.9862 C   0  0  0  0  0  0  0  0  0  0  0  0
    2.1461   -2.6170   -0.2671 C   0  0  0  0  0  0  0  0  0  0  0  0
    0.7284   -2.2093    1.6463 C   0  0  0  0  0  0  0  0  0  0  0  0
    1.1300   -3.3661   -0.8604 C   0  0  0  0  0  0  0  0  0  0  0  0
   -0.2878   -2.9584    1.0530 C   0  0  0  0  0  0  0  0  0  0  0  0
   -0.0870   -3.5369   -0.2002 C   0  0  0  0  0  0  0  0  0  0  0  0
   -0.8056   -4.8311   -2.0615 C   0  0  0  0  0  0  0  0  0  0  0  0
    0.8643    0.5987   -0.4023 H   0  0  0  0  0  0  0  0  0  0  0  0
    3.0602    2.3670   -1.6344 H   0  0  0  0  0  0  0  0  0  0  0  0
   -0.8109    1.8435   -1.8109 H   0  0  0  0  0  0  0  0  0  0  0  0
    0.4378    2.9876   -2.2699 H   0  0  0  0  0  0  0  0  0  0  0  0
   -0.7114    4.0502   -0.5957 H   0  0  0  0  0  0  0  0  0  0  0  0
    2.1832   -0.3725   -2.2600 H   0  0  0  0  0  0  0  0  0  0  0  0
    3.1996    3.5480    0.6027 H   0  0  0  0  0  0  0  0  0  0  0  0
   -1.0681    2.9450    1.7362 H   0  0  0  0  0  0  0  0  0  0  0  0
   -0.6172    1.4232    0.9906 H   0  0  0  0  0  0  0  0  0  0  0  0
    3.7043    0.1065   -0.7773 H   0  0  0  0  0  0  0  0  0  0  0  0
    4.4429    1.4283    0.1251 H   0  0  0  0  0  0  0  0  0  0  0  0
   -0.6234    0.2748   -3.2651 H   0  0  0  0  0  0  0  0  0  0  0  0
   -0.3230   -0.8213   -1.9011 H   0  0  0  0  0  0  0  0  0  0  0  0
    0.3388   -1.1737   -3.4994 H   0  0  0  0  0  0  0  0  0  0  0  0
    1.1407    1.9916   -3.9364 H   0  0  0  0  0  0  0  0  0  0  0  0
    1.9933    0.5827   -4.5097 H   0  0  0  0  0  0  0  0  0  0  0  0
    2.8391    1.7070   -3.4882 H   0  0  0  0  0  0  0  0  0  0  0  0
   -5.0099    1.7051    0.4084 H   0  0  0  0  0  0  0  0  0  0  0  0
    0.4919    5.6812    0.8188 H   0  0  0  0  0  0  0  0  0  0  0  0
    1.9634    5.2111    1.6720 H   0  0  0  0  0  0  0  0  0  0  0  0
    0.4052    4.5929    2.2209 H   0  0  0  0  0  0  0  0  0  0  0  0
   -6.1031   -0.0757    1.5753 H   0  0  0  0  0  0  0  0  0  0  0  0
   -4.7114    0.2143    2.6338 H   0  0  0  0  0  0  0  0  0  0  0  0
   -3.8716    0.1957   -1.5216 H   0  0  0  0  0  0  0  0  0  0  0  0
   -5.5724   -0.0538   -1.0952 H   0  0  0  0  0  0  0  0  0  0  0  0
   -5.2445   -2.2607    1.5891 H   0  0  0  0  0  0  0  0  0  0  0  0
   -3.5833   -1.7150    1.8290 H   0  0  0  0  0  0  0  0  0  0  0  0
   -3.2159   -1.7843   -0.4129 H   0  0  0  0  0  0  0  0  0  0  0  0
   -4.8902   -2.2462   -0.7271 H   0  0  0  0  0  0  0  0  0  0  0  0
   -2.4943    0.4901    1.3350 H   0  0  0  0  0  0  0  0  0  0  0  0
    2.6359    1.1982    1.8384 H   0  0  0  0  0  0  0  0  0  0  0  0
    3.0835   -2.4916   -0.8015 H   0  0  0  0  0  0  0  0  0  0  0  0
    0.5485   -1.7603    2.6189 H   0  0  0  0  0  0  0  0  0  0  0  0
    1.3518   -3.7846   -1.8361 H   0  0  0  0  0  0  0  0  0  0  0  0
   -1.2346   -3.0859    1.5706 H   0  0  0  0  0  0  0  0  0  0  0  0
   -0.6308   -4.0534   -2.8128 H   0  0  0  0  0  0  0  0  0  0  0  0
    0.0134   -5.5568   -2.0164 H   0  0  0  0  0  0  0  0  0  0  0  0
   -1.7016   -5.3789   -2.3711 H   0  0  0  0  0  0  0  0  0  0  0  0
  1  3  2  0  0  0  0
  1  4  2  0  0  0  0
  1  7  1  0  0  0  0
  1 26  1  0  0  0  0
  2 21  2  0  0  0  0
  5 31  1  0  0  0  0
  5 32  1  0  0  0  0
  6 19  1  0  0  0  0
  6 21  1  0  0  0  0
  6 62  1  0  0  0  0
  7 16  1  0  0  0  0
  7 63  1  0  0  0  0
  8  9  1  0  0  0  0
  8 10  1  0  0  0  0
  8 12  1  0  0  0  0
  8 33  1  0  0  0  0
  9 14  1  0  0  0  0
  9 16  1  0  0  0  0
  9 34  1  0  0  0  0
 10 11  1  0  0  0  0
 10 35  1  0  0  0  0
 10 36  1  0  0  0  0
 11 13  1  0  0  0  0
 11 15  1  0  0  0  0
 11 37  1  0  0  0  0
 12 17  1  0  0  0  0
 12 18  1  0  0  0  0
 12 38  1  0  0  0  0
 13 14  2  0  0  0  0
 13 20  1  0  0  0  0
 14 39  1  0  0  0  0
 15 21  1  0  0  0  0
 15 40  1  0  0  0  0
 15 41  1  0  0  0  0
 16 42  1  0  0  0  0
 16 43  1  0  0  0  0
 17 44  1  0  0  0  0
 17 45  1  0  0  0  0
 17 46  1  0  0  0  0
 18 47  1  0  0  0  0
 18 48  1  0  0  0  0
 18 49  1  0  0  0  0
 19 22  1  0  0  0  0
 19 23  1  0  0  0  0
 19 50  1  0  0  0  0
 20 51  1  0  0  0  0
 20 52  1  0  0  0  0
 20 53  1  0  0  0  0
 22 24  1  0  0  0  0
 22 54  1  0  0  0  0
 22 55  1  0  0  0  0
 23 25  1  0  0  0  0
 23 56  1  0  0  0  0
 23 57  1  0  0  0  0
 24 25  1  0  0  0  0
 24 58  1  0  0  0  0
 24 59  1  0  0  0  0
 25 60  1  0  0  0  0
 25 61  1  0  0  0  0
 26 27  2  0  0  0  0
 26 28  1  0  0  0  0
 27 29  1  0  0  0  0
 27 64  1  0  0  0  0
 28 30  2  0  0  0  0
 28 65  1  0  0  0  0
 29 31  2  0  0  0  0
 29 66  1  0  0  0  0
 30 31  1  0  0  0  0
 30 67  1  0  0  0  0
 32 68  1  0  0  0  0
 32 69  1  0  0  0  0
 32 70  1  0  0  0  0
M  END
> <PUBCHEM_COMPOUND_CID>
38027256

> <PUBCHEM_CONFORMER_RMSD>
1.4

> <PUBCHEM_CONFORMER_DIVERSEORDER>
2
76
94
21
136
28
124
139
123
40
55
101
117
14
12
32
47
18
22
27
127
30
129
17
75
68
39
34
116
96
48
83
93
53
45
138
133
41
107
54
56
63
66
104
91
98
110
44
121
35
100
78
108
84
137
11
132
130
131
46
72
70
69
33
88
105
106
24
65
73
134
77
74
61
119
112
87
42
31
7
85
125
5
59
16
92
25
10
128
15
114
81
13
126
52
140
120
135
82
8
90
97
50
38
118
103
67
29
4
60
20
89
37
71
80
99
9
1
64
49
36
79
62
122
102
3
95
111
58
109
86
115
113
26
23
43
6
19
51
57

> <PUBCHEM_MMFF94_PARTIAL_CHARGES>
30
1 1.45
11 0.14
13 -0.28
14 -0.29
15 0.06
16 0.36
19 0.3
2 -0.57
20 0.14
21 0.57
26 -0.01
27 -0.15
28 -0.15
29 -0.15
3 -0.65
30 -0.15
31 0.08
32 0.28
39 0.15
4 -0.65
5 -0.36
6 -0.73
62 0.37
63 0.42
64 0.15
65 0.15
66 0.15
67 0.15
7 -0.91
9 0.14

> <PUBCHEM_EFFECTIVE_ROTOR_COUNT>
11.8

> <PUBCHEM_PHARMACOPHORE_FEATURES>
10
1 2 acceptor
1 3 acceptor
1 4 acceptor
1 5 acceptor
1 6 donor
1 7 donor
3 12 17 18 hydrophobe
5 19 22 23 24 25 rings
6 26 27 28 29 30 31 rings
6 8 9 10 11 13 14 rings

> <PUBCHEM_HEAVY_ATOM_COUNT>
32

> <PUBCHEM_ATOM_DEF_STEREO_COUNT>
3

> <PUBCHEM_ATOM_UDEF_STEREO_COUNT>
0

> <PUBCHEM_BOND_DEF_STEREO_COUNT>
0

> <PUBCHEM_BOND_UDEF_STEREO_COUNT>
0

> <PUBCHEM_ISOTOPIC_ATOM_COUNT>
0

> <PUBCHEM_COMPONENT_COUNT>
1

> <PUBCHEM_CACTVS_TAUTO_COUNT>
2

> <PUBCHEM_CONFORMER_ID>
02443FF800000002

> <PUBCHEM_MMFF94_ENERGY>
62.3049

> <PUBCHEM_FEATURE_SELFOVERLAP>
50.765

> <PUBCHEM_SHAPE_FINGERPRINT>
10675989 125 16609122366763482215
10816530 23 16624924423028155809
11285246 1 17190161059834687732
11513181 2 18271806791664065366
12156800 1 17765457352257659390
13122387 1 18265621055594747427
18336668 15 18040433265764656032
20764821 26 18195265346363173993
21421861 104 18265071170979859193
21792965 2 17470162558195826538
35225 105 17684112526912486351
463206 1 18335711503076976249
469060 322 17551459532459501731
5081480 168 13219966911531272901
57091435 65 18337403681494683067
5895379 119 18057601173365146326
6287921 2 18199753548744362971
9896288 288 17983852277842436696

> <PUBCHEM_SHAPE_MULTIPOLES>
628.96
7.48
6.58
2.65
9.36
1.54
-1.37
-1.2
2.98
-0.7
0.03
-1.89
0.93
-1.68

> <PUBCHEM_SHAPE_SELFOVERLAP>
1286.205

> <PUBCHEM_SHAPE_VOLUME>
366.1

> <PUBCHEM_COORDINATE_TYPE>
2
5
10

$$$$
