51137368
  -OEChem-12032416233D

 54 58  0     1  0  0  0  0  0999 V2000
    0.9629   -1.4089   -0.3267 O   0  0  0  0  0  0  0  0  0  0  0  0
   -2.8227   -0.6623    0.9241 N   0  0  1  0  0  0  0  0  0  0  0  0
   -6.4252    1.0823   -0.5049 N   0  0  0  0  0  0  0  0  0  0  0  0
    1.0028   -3.5443    0.3390 N   0  0  0  0  0  0  0  0  0  0  0  0
    2.1255   -3.3171   -0.4351 N   0  0  0  0  0  0  0  0  0  0  0  0
    5.6565    0.4316    0.2771 N   0  0  0  0  0  0  0  0  0  0  0  0
   -3.7158    0.1732    0.1247 C   0  0  0  0  0  0  0  0  0  0  0  0
   -2.0325   -1.5812    0.1020 C   0  0  0  0  0  0  0  0  0  0  0  0
   -0.9405   -2.0536    1.0713 C   0  0  2  0  0  0  0  0  0  0  0  0
   -1.8363    0.1253    1.6636 C   0  0  0  0  0  0  0  0  0  0  0  0
   -0.8303   -0.9265    2.1129 C   0  0  0  0  0  0  0  0  0  0  0  0
   -4.4819    1.1440    1.0269 C   0  0  0  0  0  0  0  0  0  0  0  0
   -4.7009   -0.6854   -0.6740 C   0  0  0  0  0  0  0  0  0  0  0  0
   -5.4953    1.9597    0.2197 C   0  0  0  0  0  0  0  0  0  0  0  0
   -5.7072    0.1899   -1.4255 C   0  0  0  0  0  0  0  0  0  0  0  0
    0.3542   -2.4037    0.3751 C   0  0  0  0  0  0  0  0  0  0  0  0
   -7.4171    1.8754   -1.2303 C   0  0  0  0  0  0  0  0  0  0  0  0
    2.0605   -2.0585   -0.8019 C   0  0  0  0  0  0  0  0  0  0  0  0
    2.9872   -1.2766   -1.6299 C   0  0  0  0  0  0  0  0  0  0  0  0
    3.9090   -0.3452   -0.8499 C   0  0  0  0  0  0  0  0  0  0  0  0
    3.6446    1.0075   -0.4961 C   0  0  0  0  0  0  0  0  0  0  0  0
    5.1532   -0.6704   -0.3607 C   0  0  0  0  0  0  0  0  0  0  0  0
    4.7566    1.4713    0.2103 C   0  0  0  0  0  0  0  0  0  0  0  0
    2.5627    1.8846   -0.7095 C   0  0  0  0  0  0  0  0  0  0  0  0
    4.8410    2.7735    0.7157 C   0  0  0  0  0  0  0  0  0  0  0  0
    2.6332    3.1900   -0.2097 C   0  0  0  0  0  0  0  0  0  0  0  0
    3.7558    3.6255    0.4917 C   0  0  0  0  0  0  0  0  0  0  0  0
   -3.1279    0.7673   -0.5906 H   0  0  0  0  0  0  0  0  0  0  0  0
   -1.6034   -1.0761   -0.7734 H   0  0  0  0  0  0  0  0  0  0  0  0
   -2.6174   -2.4395   -0.2459 H   0  0  0  0  0  0  0  0  0  0  0  0
   -1.2898   -2.9578    1.5892 H   0  0  0  0  0  0  0  0  0  0  0  0
   -1.3382    0.8654    1.0241 H   0  0  0  0  0  0  0  0  0  0  0  0
   -2.2577    0.6342    2.5358 H   0  0  0  0  0  0  0  0  0  0  0  0
   -1.1091   -1.3168    3.0998 H   0  0  0  0  0  0  0  0  0  0  0  0
    0.1773   -0.5053    2.1954 H   0  0  0  0  0  0  0  0  0  0  0  0
   -3.8064    1.8535    1.5181 H   0  0  0  0  0  0  0  0  0  0  0  0
   -5.0074    0.5953    1.8204 H   0  0  0  0  0  0  0  0  0  0  0  0
   -5.2420   -1.3677   -0.0045 H   0  0  0  0  0  0  0  0  0  0  0  0
   -4.1810   -1.3051   -1.4135 H   0  0  0  0  0  0  0  0  0  0  0  0
   -6.0540    2.5957    0.9172 H   0  0  0  0  0  0  0  0  0  0  0  0
   -4.9644    2.6252   -0.4740 H   0  0  0  0  0  0  0  0  0  0  0  0
   -5.1871    0.7657   -2.2026 H   0  0  0  0  0  0  0  0  0  0  0  0
   -6.4212   -0.4704   -1.9330 H   0  0  0  0  0  0  0  0  0  0  0  0
   -7.9880    2.5043   -0.5380 H   0  0  0  0  0  0  0  0  0  0  0  0
   -6.9578    2.5229   -1.9859 H   0  0  0  0  0  0  0  0  0  0  0  0
   -8.1415    1.2224   -1.7297 H   0  0  0  0  0  0  0  0  0  0  0  0
    3.6091   -1.9626   -2.2193 H   0  0  0  0  0  0  0  0  0  0  0  0
    2.4204   -0.6863   -2.3606 H   0  0  0  0  0  0  0  0  0  0  0  0
    5.7261   -1.5861   -0.4080 H   0  0  0  0  0  0  0  0  0  0  0  0
    6.5581    0.4761    0.7317 H   0  0  0  0  0  0  0  0  0  0  0  0
    1.6794    1.5611   -1.2527 H   0  0  0  0  0  0  0  0  0  0  0  0
    5.7145    3.1134    1.2618 H   0  0  0  0  0  0  0  0  0  0  0  0
    1.8014    3.8707   -0.3708 H   0  0  0  0  0  0  0  0  0  0  0  0
    3.7893    4.6435    0.8713 H   0  0  0  0  0  0  0  0  0  0  0  0
  1 16  1  0  0  0  0
  1 18  1  0  0  0  0
  2  7  1  0  0  0  0
  2  8  1  0  0  0  0
  2 10  1  0  0  0  0
  3 14  1  0  0  0  0
  3 15  1  0  0  0  0
  3 17  1  0  0  0  0
  4  5  1  0  0  0  0
  4 16  2  0  0  0  0
  5 18  2  0  0  0  0
  6 22  1  0  0  0  0
  6 23  1  0  0  0  0
  6 50  1  0  0  0  0
  7 12  1  0  0  0  0
  7 13  1  0  0  0  0
  7 28  1  0  0  0  0
  8  9  1  0  0  0  0
  8 29  1  0  0  0  0
  8 30  1  0  0  0  0
  9 11  1  0  0  0  0
  9 16  1  0  0  0  0
  9 31  1  0  0  0  0
 10 11  1  0  0  0  0
 10 32  1  0  0  0  0
 10 33  1  0  0  0  0
 11 34  1  0  0  0  0
 11 35  1  0  0  0  0
 12 14  1  0  0  0  0
 12 36  1  0  0  0  0
 12 37  1  0  0  0  0
 13 15  1  0  0  0  0
 13 38  1  0  0  0  0
 13 39  1  0  0  0  0
 14 40  1  0  0  0  0
 14 41  1  0  0  0  0
 15 42  1  0  0  0  0
 15 43  1  0  0  0  0
 17 44  1  0  0  0  0
 17 45  1  0  0  0  0
 17 46  1  0  0  0  0
 18 19  1  0  0  0  0
 19 20  1  0  0  0  0
 19 47  1  0  0  0  0
 19 48  1  0  0  0  0
 20 21  1  0  0  0  0
 20 22  2  0  0  0  0
 21 23  1  0  0  0  0
 21 24  2  0  0  0  0
 22 49  1  0  0  0  0
 23 25  2  0  0  0  0
 24 26  1  0  0  0  0
 24 51  1  0  0  0  0
 25 27  1  0  0  0  0
 25 52  1  0  0  0  0
 26 27  2  0  0  0  0
 26 53  1  0  0  0  0
 27 54  1  0  0  0  0
M  END
> <PUBCHEM_COMPOUND_CID>
51137368

> <PUBCHEM_CONFORMER_RMSD>
1.2

> <PUBCHEM_CONFORMER_DIVERSEORDER>
1
6
67
58
70
85
42
55
8
18
49
44
77
34
20
47
45
89
81
73
19
9
61
54
68
65
11
80
76
2
66
48
26
17
82
46
39
56
51
38
12
53
14
71
3
29
84
72
23
50
69
91
21
4
15
63
74
59
88
25
36
90
41
75
13
52
27
60
16
87
33
57
40
83
5
24
32
78
79
62
28
86
64
35
22
30
10
7
37
31
43

> <PUBCHEM_MMFF94_PARTIAL_CHARGES>
29
1 -0.28
10 0.27
14 0.27
15 0.27
16 0.3
17 0.27
18 0.3
19 0.36
2 -0.81
20 -0.18
22 -0.3
23 -0.15
24 -0.15
25 -0.15
26 -0.15
27 -0.15
3 -0.81
4 -0.34
49 0.15
5 -0.34
50 0.27
51 0.15
52 0.15
53 0.15
54 0.15
6 0.03
7 0.27
8 0.27
9 0.18

> <PUBCHEM_EFFECTIVE_ROTOR_COUNT>
6.2

> <PUBCHEM_PHARMACOPHORE_FEATURES>
9
1 2 cation
1 3 cation
1 6 cation
1 6 donor
5 1 4 5 16 18 rings
5 2 8 9 10 11 rings
5 6 20 21 22 23 rings
6 21 23 24 25 26 27 rings
6 3 7 12 13 14 15 rings

> <PUBCHEM_HEAVY_ATOM_COUNT>
27

> <PUBCHEM_ATOM_DEF_STEREO_COUNT>
1

> <PUBCHEM_ATOM_UDEF_STEREO_COUNT>
0

> <PUBCHEM_BOND_DEF_STEREO_COUNT>
0

> <PUBCHEM_BOND_UDEF_STEREO_COUNT>
0

> <PUBCHEM_ISOTOPIC_ATOM_COUNT>
0

> <PUBCHEM_COMPONENT_COUNT>
1

> <PUBCHEM_CACTVS_TAUTO_COUNT>
1

> <PUBCHEM_CONFORMER_ID>
030C4B5800000001

> <PUBCHEM_MMFF94_ENERGY>
34.0076

> <PUBCHEM_FEATURE_SELFOVERLAP>
45.766

> <PUBCHEM_SHAPE_FINGERPRINT>
10256941 240 15902880711519119401
10673678 19 18343022169138905439
10674148 151 14273745019719179834
10692045 39 15719665455497883259
10811444 77 18409445912007721748
10816530 23 17907008831284170536
10883706 89 8574161622176678031
11211813 74 18262792949318802861
11370993 70 18269562804833032976
12104220 4 17168428276151366868
12633257 1 15936690479456299030
12769317 202 18413388730766035016
12778500 126 12901546810892135541
13103583 49 11747204741420259191
13402501 40 18260830388627119260
13726171 33 16445919368391355181
13878862 14 18187914041526659006
14040221 304 17624930115732135413
14251764 30 9583252646640004372
14251764 38 18193280908163528796
14556957 393 17131838625623811745
14681490 219 18341891849526670305
14739800 52 17822844278710216993
14848178 96 18340214071574448784
14932701 244 18122337145760625815
15003188 100 18412830200318221446
15003188 8 18268141153753014088
15183329 4 18343021082116845841
15238133 3 18187936140209127660
15320295 44 18059568135706387591
1813 80 13183021813272699651
18335252 114 18338229349943944199
20511986 3 17774992501529425965
20554085 129 16515683309040096721
20715895 44 18411417319423822712
20737093 193 14540800150012196385
21033648 29 17822014249940618600
21049683 118 17458341931949092395
21298829 104 18343026553641450088
21315763 76 18341898467448157921
21388113 180 18337393858509117572
21475661 188 18335423512645147262
21860390 5 18130243587867310142
21968339 14 18263921042687498934
22749437 52 18056779825863228706
23522609 53 17560533794536545465
23559900 14 18341622473251253994
23569914 2 17245223554752077341
2838139 119 18410290302978320901
3117164 225 7997704107793954647
3459 39 16443334361315619999
34797466 226 18059580153251786543
376196 1 18339082695911910002
44317340 157 18412551981628535767
4487111 67 16824468298305378965
44880168 125 14129599100561556544
474 4 18342463668413016834
5312510 48 18411139108849317913
54039377 194 10881942980080647088
56633871 153 7997969064188924553
57091435 61 18410289199040032441
57527585 21 16413261717236257290
57724786 102 17386296505463316716
6371009 1 18341611495319743840
9981440 41 18264209282359157283

> <PUBCHEM_SHAPE_MULTIPOLES>
524.87
15.94
4.02
1.41
19
0.22
-0.25
12.93
4.71
-4.11
-0.22
0.93
-0.21
1.68

> <PUBCHEM_SHAPE_SELFOVERLAP>
1138.838

> <PUBCHEM_SHAPE_VOLUME>
290.4

> <PUBCHEM_COORDINATE_TYPE>
2
5
10

$$$$
