75537034
  -OEChem-12032416323D

 46 49  0     1  0  0  0  0  0999 V2000
    5.7794    3.3861   -0.5023 F   0  0  0  0  0  0  0  0  0  0  0  0
   -2.9385   -2.6297   -0.7916 O   0  0  0  0  0  0  0  0  0  0  0  0
    3.8674   -2.4159    0.7719 O   0  0  0  0  0  0  0  0  0  0  0  0
   -0.7567   -1.7888   -0.5632 N   0  0  0  0  0  0  0  0  0  0  0  0
   -2.4140   -0.3424   -1.0217 N   0  0  0  0  0  0  0  0  0  0  0  0
    1.7539   -1.4386    0.5762 N   0  0  0  0  0  0  0  0  0  0  0  0
   -5.2509    1.7349    0.0401 N   0  0  0  0  0  0  0  0  0  0  0  0
   -4.2047    0.1571    1.2011 N   0  0  0  0  0  0  0  0  0  0  0  0
   -0.0875   -0.5132   -0.7544 C   0  0  1  0  0  0  0  0  0  0  0  0
   -1.2351    0.4885   -0.8503 C   0  0  0  0  0  0  0  0  0  0  0  0
    0.8918   -0.2558    0.3863 C   0  0  0  0  0  0  0  0  0  0  0  0
    0.0246   -2.9789   -0.2740 C   0  0  0  0  0  0  0  0  0  0  0  0
    1.0277   -2.6885    0.8410 C   0  0  0  0  0  0  0  0  0  0  0  0
   -2.1365   -1.7051   -0.7953 C   0  0  0  0  0  0  0  0  0  0  0  0
   -3.7222    0.2252   -1.2616 C   0  0  0  0  0  0  0  0  0  0  0  0
    3.1497   -1.4376    0.5701 C   0  0  0  0  0  0  0  0  0  0  0  0
   -4.3776    0.6834    0.0090 C   0  0  0  0  0  0  0  0  0  0  0  0
    3.8391   -0.1718    0.2887 C   0  0  0  0  0  0  0  0  0  0  0  0
   -5.6609    1.8888    1.3346 C   0  0  0  0  0  0  0  0  0  0  0  0
    4.1622    0.1696   -1.0246 C   0  0  0  0  0  0  0  0  0  0  0  0
    4.1713    0.6888    1.3350 C   0  0  0  0  0  0  0  0  0  0  0  0
   -5.6737    2.5447   -1.0780 C   0  0  0  0  0  0  0  0  0  0  0  0
   -5.0019    0.9041    2.0320 C   0  0  0  0  0  0  0  0  0  0  0  0
    4.8173    1.3718   -1.2916 C   0  0  0  0  0  0  0  0  0  0  0  0
    4.8265    1.8909    1.0680 C   0  0  0  0  0  0  0  0  0  0  0  0
    5.1494    2.2323   -0.2453 C   0  0  0  0  0  0  0  0  0  0  0  0
    0.4475   -0.5775   -1.7105 H   0  0  0  0  0  0  0  0  0  0  0  0
   -1.3568    1.0813    0.0621 H   0  0  0  0  0  0  0  0  0  0  0  0
   -1.1216    1.1584   -1.7080 H   0  0  0  0  0  0  0  0  0  0  0  0
    1.4694    0.6490    0.1865 H   0  0  0  0  0  0  0  0  0  0  0  0
    0.3618   -0.1031    1.3347 H   0  0  0  0  0  0  0  0  0  0  0  0
    0.5495   -3.2464   -1.1980 H   0  0  0  0  0  0  0  0  0  0  0  0
   -0.6411   -3.8054   -0.0073 H   0  0  0  0  0  0  0  0  0  0  0  0
    0.5061   -2.5560    1.7965 H   0  0  0  0  0  0  0  0  0  0  0  0
    1.7189   -3.5294    0.9536 H   0  0  0  0  0  0  0  0  0  0  0  0
   -4.3554   -0.5477   -1.7116 H   0  0  0  0  0  0  0  0  0  0  0  0
   -3.6051    1.0368   -1.9861 H   0  0  0  0  0  0  0  0  0  0  0  0
   -6.3589    2.6557    1.6403 H   0  0  0  0  0  0  0  0  0  0  0  0
    3.9071   -0.4934   -1.8472 H   0  0  0  0  0  0  0  0  0  0  0  0
    3.9239    0.4326    2.3619 H   0  0  0  0  0  0  0  0  0  0  0  0
   -4.8155    3.1229   -1.4293 H   0  0  0  0  0  0  0  0  0  0  0  0
   -6.0494    1.8866   -1.8655 H   0  0  0  0  0  0  0  0  0  0  0  0
   -6.4697    3.2214   -0.7564 H   0  0  0  0  0  0  0  0  0  0  0  0
   -5.0606    0.6949    3.0901 H   0  0  0  0  0  0  0  0  0  0  0  0
    5.0688    1.6381   -2.3140 H   0  0  0  0  0  0  0  0  0  0  0  0
    5.0853    2.5612    1.8822 H   0  0  0  0  0  0  0  0  0  0  0  0
  1 26  1  0  0  0  0
  2 14  2  0  0  0  0
  3 16  2  0  0  0  0
  4  9  1  0  0  0  0
  4 12  1  0  0  0  0
  4 14  1  0  0  0  0
  5 10  1  0  0  0  0
  5 14  1  0  0  0  0
  5 15  1  0  0  0  0
  6 11  1  0  0  0  0
  6 13  1  0  0  0  0
  6 16  1  0  0  0  0
  7 17  1  0  0  0  0
  7 19  1  0  0  0  0
  7 22  1  0  0  0  0
  8 17  2  0  0  0  0
  8 23  1  0  0  0  0
  9 10  1  0  0  0  0
  9 11  1  0  0  0  0
  9 27  1  0  0  0  0
 10 28  1  0  0  0  0
 10 29  1  0  0  0  0
 11 30  1  0  0  0  0
 11 31  1  0  0  0  0
 12 13  1  0  0  0  0
 12 32  1  0  0  0  0
 12 33  1  0  0  0  0
 13 34  1  0  0  0  0
 13 35  1  0  0  0  0
 15 17  1  0  0  0  0
 15 36  1  0  0  0  0
 15 37  1  0  0  0  0
 16 18  1  0  0  0  0
 18 20  2  0  0  0  0
 18 21  1  0  0  0  0
 19 23  2  0  0  0  0
 19 38  1  0  0  0  0
 20 24  1  0  0  0  0
 20 39  1  0  0  0  0
 21 25  2  0  0  0  0
 21 40  1  0  0  0  0
 22 41  1  0  0  0  0
 22 42  1  0  0  0  0
 22 43  1  0  0  0  0
 23 44  1  0  0  0  0
 24 26  2  0  0  0  0
 24 45  1  0  0  0  0
 25 26  1  0  0  0  0
 25 46  1  0  0  0  0
M  END
> <PUBCHEM_COMPOUND_CID>
75537034

> <PUBCHEM_CONFORMER_RMSD>
0.8

> <PUBCHEM_CONFORMER_DIVERSEORDER>
1
40
76
63
8
83
89
88
62
82
44
33
70
28
11
92
80
84
67
20
29
72
25
77
66
34
93
35
49
64
79
6
69
17
16
74
65
27
56
13
12
68
38
23
75
94
30
87
95
53
42
73
57
19
78
91
10
58
26
90
47
36
85
81
61
41
59
2
5
39
22
9
32
43
45
60
48
71
37
14
15
51
3
55
18
54
86
24
21
46
4
50
31
7
52

> <PUBCHEM_MMFF94_PARTIAL_CHARGES>
32
1 -0.19
10 0.3
11 0.3
12 0.3
13 0.3
14 0.69
15 0.48
16 0.54
17 0.01
18 0.09
19 -0.3
2 -0.57
20 -0.15
21 -0.15
22 0.26
23 0.08
24 -0.15
25 -0.15
26 0.19
3 -0.57
38 0.15
39 0.15
4 -0.66
40 0.15
44 0.15
45 0.15
46 0.15
5 -0.66
6 -0.66
7 0.05
8 -0.57
9 0.3

> <PUBCHEM_EFFECTIVE_ROTOR_COUNT>
5.2

> <PUBCHEM_PHARMACOPHORE_FEATURES>
7
1 2 acceptor
1 3 acceptor
3 7 8 17 cation
5 4 5 9 10 14 rings
5 7 8 17 19 23 rings
6 18 20 21 24 25 26 rings
6 4 6 9 11 12 13 rings

> <PUBCHEM_HEAVY_ATOM_COUNT>
26

> <PUBCHEM_ATOM_DEF_STEREO_COUNT>
1

> <PUBCHEM_ATOM_UDEF_STEREO_COUNT>
0

> <PUBCHEM_BOND_DEF_STEREO_COUNT>
0

> <PUBCHEM_BOND_UDEF_STEREO_COUNT>
0

> <PUBCHEM_ISOTOPIC_ATOM_COUNT>
0

> <PUBCHEM_COMPONENT_COUNT>
1

> <PUBCHEM_CACTVS_TAUTO_COUNT>
1

> <PUBCHEM_CONFORMER_ID>
04809A8A00000001

> <PUBCHEM_MMFF94_ENERGY>
57.9089

> <PUBCHEM_FEATURE_SELFOVERLAP>
35.62

> <PUBCHEM_SHAPE_FINGERPRINT>
10670039 82 17131841902092975673
10693767 8 8790305691902084433
11112241 14 17895192182599132025
11135609 201 18118969332901221800
11720765 8 17702955726083841382
12390115 104 18341337789537801607
12422481 6 17676205741054600005
12596602 18 18334583408742155785
12616971 3 18260256430936080322
12788726 201 17632584803408654144
12839892 36 12829200070665375849
13540713 5 18266718294890275630
13782708 43 11675137291034247616
13878862 14 18118942738083936421
13885169 86 18337399347435286269
14251740 57 11458422415074491776
14251764 75 18412547638788956104
14790565 3 18411136947995055629
14840074 17 18201168676265588001
14848178 5 8862942753677712329
14950920 106 16805874091978813889
15163728 17 17775013379317933727
15183329 4 13110966388235128905
15188451 53 11530752751956465096
15238133 3 17632007538197164794
15348495 7 17822295647808359057
15575132 122 18059300847107570529
16067690 210 17060350625152514312
17349148 13 8214141893035612881
18222031 100 9367350331928603700
20621476 91 15864078710425754265
21120745 212 17910671291847389111
21365058 113 17623868824343268814
22122407 14 18267308617202771369
22393880 68 12966842391360885501
23559900 14 16299514842551222331
2838139 119 17346313744350926945
3178227 256 18115591418627982274
3472631 163 18343301483045388092
34797466 226 14620211080036637659
350125 39 18263359210169080806
3680242 22 18261381270402836360
38570 142 18201174181843175648
392239 28 15430034387321226496
5104073 3 18260820527677639554
550186 72 18410291437441050469
57724786 102 18127138468230391617
59682541 52 13901628451144100205
6034566 193 18337394949509470893
6058803 2 18266998692131109142
633830 44 18272083885963849782
636775 72 17835517503547646280
7808743 9 18341047501245689771
7970288 3 9295286140494699717
960060 61 14045742642839901240

> <PUBCHEM_SHAPE_MULTIPOLES>
491.15
14.94
3.39
1.47
3.99
0.53
0.3
-14.97
1.85
-1.73
-0.15
0.94
-0.4
-1.32

> <PUBCHEM_SHAPE_SELFOVERLAP>
1062.333

> <PUBCHEM_SHAPE_VOLUME>
272.4

> <PUBCHEM_COORDINATE_TYPE>
2
5
10

$$$$
