11882077
  -OEChem-12032416363D

 61 63  0     1  0  0  0  0  0999 V2000
   -0.2701    2.1076   -0.9596 O   0  0  0  0  0  0  0  0  0  0  0  0
   -2.6222    1.0603    1.5932 O   0  0  0  0  0  0  0  0  0  0  0  0
    1.6993   -2.8398   -0.0863 O   0  0  0  0  0  0  0  0  0  0  0  0
    0.7906    2.8705    2.8023 O   0  0  0  0  0  0  0  0  0  0  0  0
   -2.0605    0.1913   -0.4939 N   0  0  0  0  0  0  0  0  0  0  0  0
   -0.4197   -2.4345   -0.9448 N   0  0  0  0  0  0  0  0  0  0  0  0
    1.1506    1.2023    0.6471 N   0  0  0  0  0  0  0  0  0  0  0  0
    0.0964   -4.5172   -0.1178 N   0  0  0  0  0  0  0  0  0  0  0  0
   -4.9479   -0.4365   -0.2082 N   0  0  0  0  0  0  0  0  0  0  0  0
    1.6855    4.5926    1.5733 N   0  0  0  0  0  0  0  0  0  0  0  0
   -6.3596    1.9868   -0.2179 N   0  0  0  0  0  0  0  0  0  0  0  0
   -0.2108   -1.0516   -1.3036 C   0  0  2  0  0  0  0  0  0  0  0  0
   -0.6681   -0.1156   -0.1850 C   0  0  1  0  0  0  0  0  0  0  0  0
   -1.0964   -0.6529   -2.4858 C   0  0  0  0  0  0  0  0  0  0  0  0
   -2.4189   -0.2669   -1.8357 C   0  0  0  0  0  0  0  0  0  0  0  0
    0.0699    1.1893   -0.2181 C   0  0  0  0  0  0  0  0  0  0  0  0
   -2.9359    0.6780    0.4682 C   0  0  0  0  0  0  0  0  0  0  0  0
    2.0378    2.3344    0.7867 C   0  0  2  0  0  0  0  0  0  0  0  0
    0.5638   -3.2275   -0.3582 C   0  0  0  0  0  0  0  0  0  0  0  0
   -4.3598    0.7331    0.1123 C   0  0  0  0  0  0  0  0  0  0  0  0
    3.4480    1.9159    1.2182 C   0  0  0  0  0  0  0  0  0  0  0  0
    1.4202    3.2623    1.8225 C   0  0  0  0  0  0  0  0  0  0  0  0
    4.2764    1.3874    0.0725 C   0  0  0  0  0  0  0  0  0  0  0  0
   -5.0533    1.9235    0.1074 C   0  0  0  0  0  0  0  0  0  0  0  0
    0.9121   -5.5455    0.4841 C   0  0  0  0  0  0  0  0  0  0  0  0
    4.2582    0.0261   -0.2315 C   0  0  0  0  0  0  0  0  0  0  0  0
    5.0598    2.2602   -0.6827 C   0  0  0  0  0  0  0  0  0  0  0  0
   -6.2543   -0.3731   -0.5333 C   0  0  0  0  0  0  0  0  0  0  0  0
   -6.9477    0.8172   -0.5382 C   0  0  0  0  0  0  0  0  0  0  0  0
    0.7459   -5.4942    1.9665 C   0  0  0  0  0  0  0  0  0  0  0  0
    5.0236   -0.4624   -1.2904 C   0  0  0  0  0  0  0  0  0  0  0  0
    5.8250    1.7715   -1.7417 C   0  0  0  0  0  0  0  0  0  0  0  0
    5.8069    0.4102   -2.0455 C   0  0  0  0  0  0  0  0  0  0  0  0
    1.7551   -5.3029    2.8237 C   0  0  0  0  0  0  0  0  0  0  0  0
    0.8488   -0.9181   -1.5498 H   0  0  0  0  0  0  0  0  0  0  0  0
   -0.6087   -0.5639    0.8137 H   0  0  0  0  0  0  0  0  0  0  0  0
   -0.6688    0.2243   -2.9865 H   0  0  0  0  0  0  0  0  0  0  0  0
   -1.2177   -1.4408   -3.2357 H   0  0  0  0  0  0  0  0  0  0  0  0
   -3.0633   -1.1469   -1.7447 H   0  0  0  0  0  0  0  0  0  0  0  0
   -2.9523    0.5164   -2.3817 H   0  0  0  0  0  0  0  0  0  0  0  0
   -1.3458   -2.8332   -1.0665 H   0  0  0  0  0  0  0  0  0  0  0  0
    1.3065    0.4014    1.2526 H   0  0  0  0  0  0  0  0  0  0  0  0
    2.0695    2.8612   -0.1758 H   0  0  0  0  0  0  0  0  0  0  0  0
    3.4043    1.1649    2.0187 H   0  0  0  0  0  0  0  0  0  0  0  0
    3.9782    2.7708    1.6596 H   0  0  0  0  0  0  0  0  0  0  0  0
   -0.8643   -4.7412   -0.3589 H   0  0  0  0  0  0  0  0  0  0  0  0
   -4.5879    2.8686    0.3617 H   0  0  0  0  0  0  0  0  0  0  0  0
    0.5635   -6.5102    0.1027 H   0  0  0  0  0  0  0  0  0  0  0  0
    1.9552   -5.4087    0.1796 H   0  0  0  0  0  0  0  0  0  0  0  0
    3.6527   -0.6640    0.3498 H   0  0  0  0  0  0  0  0  0  0  0  0
    5.0803    3.3232   -0.4575 H   0  0  0  0  0  0  0  0  0  0  0  0
    1.3429    5.3169    2.1956 H   0  0  0  0  0  0  0  0  0  0  0  0
    2.2275    4.9003    0.7722 H   0  0  0  0  0  0  0  0  0  0  0  0
   -6.7272   -1.3125   -0.7912 H   0  0  0  0  0  0  0  0  0  0  0  0
   -7.9974    0.8673   -0.7999 H   0  0  0  0  0  0  0  0  0  0  0  0
   -0.2547   -5.6368    2.3672 H   0  0  0  0  0  0  0  0  0  0  0  0
    5.0089   -1.5223   -1.5270 H   0  0  0  0  0  0  0  0  0  0  0  0
    6.4345    2.4510   -2.3303 H   0  0  0  0  0  0  0  0  0  0  0  0
    6.4025    0.0299   -2.8702 H   0  0  0  0  0  0  0  0  0  0  0  0
    2.7735   -5.1624    2.4788 H   0  0  0  0  0  0  0  0  0  0  0  0
    1.5718   -5.2830    3.8924 H   0  0  0  0  0  0  0  0  0  0  0  0
  1 16  2  0  0  0  0
  2 17  2  0  0  0  0
  3 19  2  0  0  0  0
  4 22  2  0  0  0  0
  5 13  1  0  0  0  0
  5 15  1  0  0  0  0
  5 17  1  0  0  0  0
  6 12  1  0  0  0  0
  6 19  1  0  0  0  0
  6 41  1  0  0  0  0
  7 16  1  0  0  0  0
  7 18  1  0  0  0  0
  7 42  1  0  0  0  0
  8 19  1  0  0  0  0
  8 25  1  0  0  0  0
  8 46  1  0  0  0  0
  9 20  2  0  0  0  0
  9 28  1  0  0  0  0
 10 22  1  0  0  0  0
 10 52  1  0  0  0  0
 10 53  1  0  0  0  0
 11 24  2  0  0  0  0
 11 29  1  0  0  0  0
 12 13  1  0  0  0  0
 12 14  1  0  0  0  0
 12 35  1  0  0  0  0
 13 16  1  0  0  0  0
 13 36  1  0  0  0  0
 14 15  1  0  0  0  0
 14 37  1  0  0  0  0
 14 38  1  0  0  0  0
 15 39  1  0  0  0  0
 15 40  1  0  0  0  0
 17 20  1  0  0  0  0
 18 21  1  0  0  0  0
 18 22  1  0  0  0  0
 18 43  1  0  0  0  0
 20 24  1  0  0  0  0
 21 23  1  0  0  0  0
 21 44  1  0  0  0  0
 21 45  1  0  0  0  0
 23 26  2  0  0  0  0
 23 27  1  0  0  0  0
 24 47  1  0  0  0  0
 25 30  1  0  0  0  0
 25 48  1  0  0  0  0
 25 49  1  0  0  0  0
 26 31  1  0  0  0  0
 26 50  1  0  0  0  0
 27 32  2  0  0  0  0
 27 51  1  0  0  0  0
 28 29  2  0  0  0  0
 28 54  1  0  0  0  0
 29 55  1  0  0  0  0
 30 34  2  0  0  0  0
 30 56  1  0  0  0  0
 31 33  2  0  0  0  0
 31 57  1  0  0  0  0
 32 33  1  0  0  0  0
 32 58  1  0  0  0  0
 33 59  1  0  0  0  0
 34 60  1  0  0  0  0
 34 61  1  0  0  0  0
M  END
> <PUBCHEM_COMPOUND_CID>
11882077

> <PUBCHEM_CONFORMER_RMSD>
1.2

> <PUBCHEM_CONFORMER_DIVERSEORDER>
1
9
33
13
34
6
25
15
30
35
32
27
16
5
8
36
12
19
31
7
23
28
10
14
2
20
29
11
18
22
24
4
26
21
17
3

> <PUBCHEM_MMFF94_PARTIAL_CHARGES>
49
1 -0.57
10 -0.8
11 -0.62
12 0.3
13 0.36
15 0.3
16 0.57
17 0.54
18 0.36
19 0.69
2 -0.57
20 0.4
21 0.14
22 0.57
23 -0.14
24 0.16
25 0.44
26 -0.15
27 -0.15
28 0.16
29 0.16
3 -0.57
30 -0.29
31 -0.15
32 -0.15
33 -0.15
34 -0.3
4 -0.57
41 0.37
42 0.37
46 0.37
47 0.15
5 -0.66
50 0.15
51 0.15
52 0.37
53 0.37
54 0.15
55 0.15
56 0.15
57 0.15
58 0.15
59 0.15
6 -0.73
60 0.15
61 0.15
7 -0.73
8 -0.73
9 -0.62

> <PUBCHEM_EFFECTIVE_ROTOR_COUNT>
14

> <PUBCHEM_PHARMACOPHORE_FEATURES>
14
1 1 acceptor
1 10 donor
1 11 acceptor
1 2 acceptor
1 3 acceptor
1 34 hydrophobe
1 4 acceptor
1 6 donor
1 7 donor
1 8 donor
1 9 acceptor
5 5 12 13 14 15 rings
6 23 26 27 31 32 33 rings
6 9 11 20 24 28 29 rings

> <PUBCHEM_HEAVY_ATOM_COUNT>
34

> <PUBCHEM_ATOM_DEF_STEREO_COUNT>
3

> <PUBCHEM_ATOM_UDEF_STEREO_COUNT>
0

> <PUBCHEM_BOND_DEF_STEREO_COUNT>
0

> <PUBCHEM_BOND_UDEF_STEREO_COUNT>
0

> <PUBCHEM_ISOTOPIC_ATOM_COUNT>
0

> <PUBCHEM_COMPONENT_COUNT>
1

> <PUBCHEM_CACTVS_TAUTO_COUNT>
12

> <PUBCHEM_CONFORMER_ID>
00B54E5D00000001

> <PUBCHEM_MMFF94_ENERGY>
83.2172

> <PUBCHEM_FEATURE_SELFOVERLAP>
71.105

> <PUBCHEM_SHAPE_FINGERPRINT>
107951 10 18340492269702330638
11578080 2 17898004634569746437
12166972 35 16988566831237881537
12788726 201 17774458100798796296
13008946 113 18119253865826620885
14020679 6 18269842063216443062
14725015 67 18271241604854971848
14790565 3 18411141341789239572
15351339 4 18271529680705955896
15361156 5 17621602044110084902
15420108 30 16913437025649781041
15927050 60 18412823621046431607
18681886 176 16917062257441466285
19319366 153 18409445856674079614
20465049 17 18201721777267713577
20832881 197 17988925574194117516
21033648 29 18198612414689047553
22440779 20 17324389757423864250
23559900 14 17203042010105218136
3178227 256 18271820046418008545
3380486 145 16470919252393836214
3418910 222 17470162562733484434
404807 14 14615503920165820852
4058900 60 18335714809763800963
59755656 215 17847067670578895141
6371380 46 18342735273560162576
6679774 75 18187350027023248618

> <PUBCHEM_SHAPE_MULTIPOLES>
641.36
13.06
6.82
2.2
11.35
13.97
0.69
-10.99
-5.75
-5.25
6.19
-1.81
0.3
-0.78

> <PUBCHEM_SHAPE_SELFOVERLAP>
1352.202

> <PUBCHEM_SHAPE_VOLUME>
356.4

> <PUBCHEM_COORDINATE_TYPE>
2
5
10

$$$$
