7685235
  -OEChem-12032416153D

 47 50  0     1  0  0  0  0  0999 V2000
    4.3230   -0.4453    0.0039 S   0  0  0  0  0  0  0  0  0  0  0  0
   -0.7734    2.7582    2.5901 O   0  0  0  0  0  0  0  0  0  0  0  0
   -3.5585   -0.1502   -0.8054 O   0  0  0  0  0  0  0  0  0  0  0  0
   -3.6230   -1.9464    1.1709 O   0  0  0  0  0  0  0  0  0  0  0  0
   -1.4177    0.1932   -1.6398 N   0  0  0  0  0  0  0  0  0  0  0  0
    0.1098    1.7971    0.6453 N   0  0  0  0  0  0  0  0  0  0  0  0
   -0.6387    2.5584   -1.6854 C   0  0  1  0  0  0  0  0  0  0  0  0
    1.0032    0.7438   -1.4556 C   0  0  2  0  0  0  0  0  0  0  0  0
    0.7414    2.0932   -2.1223 C   0  0  0  0  0  0  0  0  0  0  0  0
   -1.7158    1.5462   -2.1091 C   0  0  0  0  0  0  0  0  0  0  0  0
   -0.6217    2.7751   -0.1718 C   0  0  0  0  0  0  0  0  0  0  0  0
   -0.0556   -0.2754   -1.9266 C   0  0  0  0  0  0  0  0  0  0  0  0
    0.9874    0.8558    0.0714 C   0  0  0  0  0  0  0  0  0  0  0  0
    1.7572    0.0730    0.8717 C   0  0  0  0  0  0  0  0  0  0  0  0
   -0.0334    1.9446    2.0365 C   0  0  0  0  0  0  0  0  0  0  0  0
   -2.4200   -0.5659   -1.0365 C   0  0  0  0  0  0  0  0  0  0  0  0
    1.6338    0.1946    2.3119 C   0  0  0  0  0  0  0  0  0  0  0  0
    0.7911    1.0541    2.8842 C   0  0  0  0  0  0  0  0  0  0  0  0
    2.7064   -0.9158    0.3150 C   0  0  0  0  0  0  0  0  0  0  0  0
   -2.0570   -1.9761   -0.6453 C   0  0  0  0  0  0  0  0  0  0  0  0
   -3.2546   -2.6487   -0.0095 C   0  0  0  0  0  0  0  0  0  0  0  0
    2.4791   -2.2342   -0.0118 C   0  0  0  0  0  0  0  0  0  0  0  0
    3.6482   -2.8671   -0.5246 C   0  0  0  0  0  0  0  0  0  0  0  0
    4.7240   -2.0080   -0.5700 C   0  0  0  0  0  0  0  0  0  0  0  0
   -4.7353   -2.5542    1.8129 C   0  0  0  0  0  0  0  0  0  0  0  0
   -0.8751    3.5144   -2.1689 H   0  0  0  0  0  0  0  0  0  0  0  0
    1.9821    0.4038   -1.8099 H   0  0  0  0  0  0  0  0  0  0  0  0
    1.5076    2.8242   -1.8351 H   0  0  0  0  0  0  0  0  0  0  0  0
    0.7841    1.9960   -3.2141 H   0  0  0  0  0  0  0  0  0  0  0  0
   -2.7005    1.8714   -1.7569 H   0  0  0  0  0  0  0  0  0  0  0  0
   -1.7687    1.4956   -3.2037 H   0  0  0  0  0  0  0  0  0  0  0  0
   -0.1467    3.7441    0.0358 H   0  0  0  0  0  0  0  0  0  0  0  0
   -1.6464    2.8566    0.2128 H   0  0  0  0  0  0  0  0  0  0  0  0
    0.0091   -0.4040   -3.0145 H   0  0  0  0  0  0  0  0  0  0  0  0
    0.1348   -1.2548   -1.4870 H   0  0  0  0  0  0  0  0  0  0  0  0
    2.2441   -0.4512    2.9365 H   0  0  0  0  0  0  0  0  0  0  0  0
    0.7012    1.1338    3.9609 H   0  0  0  0  0  0  0  0  0  0  0  0
   -1.2380   -1.9327    0.0811 H   0  0  0  0  0  0  0  0  0  0  0  0
   -1.7424   -2.5350   -1.5320 H   0  0  0  0  0  0  0  0  0  0  0  0
   -2.9907   -3.6803    0.2518 H   0  0  0  0  0  0  0  0  0  0  0  0
   -4.1027   -2.6764   -0.7047 H   0  0  0  0  0  0  0  0  0  0  0  0
    1.5238   -2.7292    0.1107 H   0  0  0  0  0  0  0  0  0  0  0  0
    3.6976   -3.9001   -0.8435 H   0  0  0  0  0  0  0  0  0  0  0  0
    5.7263   -2.2232   -0.9127 H   0  0  0  0  0  0  0  0  0  0  0  0
   -4.4934   -3.5785    2.1123 H   0  0  0  0  0  0  0  0  0  0  0  0
   -5.6084   -2.5498    1.1533 H   0  0  0  0  0  0  0  0  0  0  0  0
   -4.9732   -1.9759    2.7097 H   0  0  0  0  0  0  0  0  0  0  0  0
  1 19  1  0  0  0  0
  1 24  1  0  0  0  0
  2 15  2  0  0  0  0
  3 16  2  0  0  0  0
  4 21  1  0  0  0  0
  4 25  1  0  0  0  0
  5 10  1  0  0  0  0
  5 12  1  0  0  0  0
  5 16  1  0  0  0  0
  6 11  1  0  0  0  0
  6 13  1  0  0  0  0
  6 15  1  0  0  0  0
  7  9  1  0  0  0  0
  7 10  1  0  0  0  0
  7 11  1  0  0  0  0
  7 26  1  0  0  0  0
  8  9  1  0  0  0  0
  8 12  1  0  0  0  0
  8 13  1  0  0  0  0
  8 27  1  0  0  0  0
  9 28  1  0  0  0  0
  9 29  1  0  0  0  0
 10 30  1  0  0  0  0
 10 31  1  0  0  0  0
 11 32  1  0  0  0  0
 11 33  1  0  0  0  0
 12 34  1  0  0  0  0
 12 35  1  0  0  0  0
 13 14  2  0  0  0  0
 14 17  1  0  0  0  0
 14 19  1  0  0  0  0
 15 18  1  0  0  0  0
 16 20  1  0  0  0  0
 17 18  2  0  0  0  0
 17 36  1  0  0  0  0
 18 37  1  0  0  0  0
 19 22  2  0  0  0  0
 20 21  1  0  0  0  0
 20 38  1  0  0  0  0
 20 39  1  0  0  0  0
 21 40  1  0  0  0  0
 21 41  1  0  0  0  0
 22 23  1  0  0  0  0
 22 42  1  0  0  0  0
 23 24  2  0  0  0  0
 23 43  1  0  0  0  0
 24 44  1  0  0  0  0
 25 45  1  0  0  0  0
 25 46  1  0  0  0  0
 25 47  1  0  0  0  0
M  END
> <PUBCHEM_COMPOUND_CID>
7685235

> <PUBCHEM_CONFORMER_RMSD>
0.8

> <PUBCHEM_CONFORMER_DIVERSEORDER>
1
15
22
5
12
21
17
9
20
10
14
7
13
11
8
19
18
3
6
16
2
4

> <PUBCHEM_MMFF94_PARTIAL_CHARGES>
28
1 -0.08
10 0.3
11 0.3
12 0.3
13 -0.03
14 0.05
15 0.62
16 0.57
17 -0.15
18 -0.14
19 -0.01
2 -0.57
20 0.06
21 0.28
22 -0.15
23 -0.15
24 -0.11
25 0.28
3 -0.57
36 0.15
37 0.15
4 -0.56
42 0.15
43 0.15
44 0.15
5 -0.66
6 -0.47
8 0.14

> <PUBCHEM_EFFECTIVE_ROTOR_COUNT>
6

> <PUBCHEM_PHARMACOPHORE_FEATURES>
7
1 2 acceptor
1 3 acceptor
1 4 acceptor
5 1 19 22 23 24 rings
6 5 7 8 9 10 12 rings
6 6 13 14 15 17 18 rings
6 6 7 8 9 11 13 rings

> <PUBCHEM_HEAVY_ATOM_COUNT>
25

> <PUBCHEM_ATOM_DEF_STEREO_COUNT>
2

> <PUBCHEM_ATOM_UDEF_STEREO_COUNT>
0

> <PUBCHEM_BOND_DEF_STEREO_COUNT>
0

> <PUBCHEM_BOND_UDEF_STEREO_COUNT>
0

> <PUBCHEM_ISOTOPIC_ATOM_COUNT>
0

> <PUBCHEM_COMPONENT_COUNT>
1

> <PUBCHEM_CACTVS_TAUTO_COUNT>
1

> <PUBCHEM_CONFORMER_ID>
0075447300000001

> <PUBCHEM_MMFF94_ENERGY>
63.904

> <PUBCHEM_FEATURE_SELFOVERLAP>
37.095

> <PUBCHEM_SHAPE_FINGERPRINT>
10764073 3 13827360817111384606
11421498 54 17833297554793767921
11954058 11 18194409016227633963
12156800 1 17268679409761365123
12403259 327 17559688428296795011
12633257 1 16774083989952994267
12788726 201 17271148827146627578
13103583 49 17346607399538877667
13135754 10 17628946463634587038
13533116 47 17981048832408543467
13965767 371 15984264183126778787
14022347 108 17823954819660911349
14787075 74 17484506846709292373
14817 1 12950440731058274581
15848702 105 11242545499766146715
16945 1 17977350920614661972
17492 54 11531068312009856523
17980427 23 15195284261424460267
20429585 67 18189906481666977460
20600515 1 18263937557163579733
20775530 9 18408602591026791387
23466295 7 18119258255019524378
35225 105 17413329974010989739
4340502 62 17052190913376931409
469060 322 17969805011310858138
484985 159 17910964538949837822
4921388 177 18118961387201051022
539174 4 16197583745145456056
58260988 114 18053403006553909586
6823239 73 17024588026496787507
8509985 295 17916047770752657411

> <PUBCHEM_SHAPE_MULTIPOLES>
490.77
6.77
3.71
2.71
0.7
0.4
-1.6
8.86
-0.19
-1.86
-0.08
-0.73
-1.75
1.59

> <PUBCHEM_SHAPE_SELFOVERLAP>
1045.569

> <PUBCHEM_SHAPE_VOLUME>
273.5

> <PUBCHEM_COORDINATE_TYPE>
2
5
10

$$$$
