38344332
  -OEChem-12032416283D

 48 51  0     1  0  0  0  0  0999 V2000
    0.5151    1.3314    1.5707 O   0  0  0  0  0  0  0  0  0  0  0  0
   -2.9771    0.5917    1.6159 O   0  0  0  0  0  0  0  0  0  0  0  0
   -4.7003    1.0122   -0.1834 O   0  0  0  0  0  0  0  0  0  0  0  0
   -7.6729    2.3666   -1.6656 O   0  0  0  0  0  0  0  0  0  0  0  0
   -6.8758    2.5197    0.4626 O   0  0  0  0  0  0  0  0  0  0  0  0
   -1.5707   -0.7585    0.3388 N   0  0  0  0  0  0  0  0  0  0  0  0
   -0.3122   -3.6908   -1.5941 N   0  0  0  0  0  0  0  0  0  0  0  0
    0.4546   -4.3896    0.3847 N   0  0  0  0  0  0  0  0  0  0  0  0
    1.7855   -0.2341    0.5950 N   0  0  0  0  0  0  0  0  0  0  0  0
    1.7140    1.9654    1.2205 N   0  0  0  0  0  0  0  0  0  0  0  0
   -0.5512   -0.8763    1.4375 C   0  0  1  0  0  0  0  0  0  0  0  0
   -0.2240   -2.3681    1.7524 C   0  0  0  0  0  0  0  0  0  0  0  0
   -1.2663   -1.4127   -0.9643 C   0  0  0  0  0  0  0  0  0  0  0  0
   -0.1161   -3.1537    0.5031 C   0  0  0  0  0  0  0  0  0  0  0  0
   -0.5988   -2.7023   -0.7006 C   0  0  0  0  0  0  0  0  0  0  0  0
    0.6407    0.0399    1.1675 C   0  0  0  0  0  0  0  0  0  0  0  0
   -2.7034    0.0397    0.5472 C   0  0  0  0  0  0  0  0  0  0  0  0
    0.3211   -4.6859   -0.8927 C   0  0  0  0  0  0  0  0  0  0  0  0
   -3.6309    0.2147   -0.6297 C   0  0  0  0  0  0  0  0  0  0  0  0
    2.4106    0.9777    0.6503 C   0  0  0  0  0  0  0  0  0  0  0  0
    3.7327    1.1679    0.1278 C   0  0  0  0  0  0  0  0  0  0  0  0
    4.4126    0.0986   -0.4555 C   0  0  0  0  0  0  0  0  0  0  0  0
    4.3385    2.4221    0.2022 C   0  0  0  0  0  0  0  0  0  0  0  0
   -5.6565    1.2528   -1.2143 C   0  0  0  0  0  0  0  0  0  0  0  0
    6.3039    1.5379   -0.8894 C   0  0  0  0  0  0  0  0  0  0  0  0
    5.6982    0.2835   -0.9641 C   0  0  0  0  0  0  0  0  0  0  0  0
    5.6240    2.6072   -0.3062 C   0  0  0  0  0  0  0  0  0  0  0  0
    7.6783    1.7356   -1.4332 C   0  0  0  0  0  0  0  0  0  0  0  0
   -6.7736    2.1074   -0.6831 C   0  0  0  0  0  0  0  0  0  0  0  0
   -1.0016   -0.4805    2.3580 H   0  0  0  0  0  0  0  0  0  0  0  0
   -1.0436   -2.7938    2.3449 H   0  0  0  0  0  0  0  0  0  0  0  0
    0.6936   -2.4483    2.3451 H   0  0  0  0  0  0  0  0  0  0  0  0
   -0.6038   -0.7385   -1.5174 H   0  0  0  0  0  0  0  0  0  0  0  0
   -2.1694   -1.5694   -1.5558 H   0  0  0  0  0  0  0  0  0  0  0  0
   -0.5222   -3.6943   -2.5836 H   0  0  0  0  0  0  0  0  0  0  0  0
    0.6572   -5.5945   -1.3717 H   0  0  0  0  0  0  0  0  0  0  0  0
   -4.0178   -0.7605   -0.9403 H   0  0  0  0  0  0  0  0  0  0  0  0
   -3.0971    0.7083   -1.4481 H   0  0  0  0  0  0  0  0  0  0  0  0
    3.9673   -0.8905   -0.5291 H   0  0  0  0  0  0  0  0  0  0  0  0
    3.8396    3.2787    0.6487 H   0  0  0  0  0  0  0  0  0  0  0  0
   -5.1725    1.7821   -2.0420 H   0  0  0  0  0  0  0  0  0  0  0  0
   -6.0754    0.2997   -1.5536 H   0  0  0  0  0  0  0  0  0  0  0  0
    6.2172   -0.5566   -1.4179 H   0  0  0  0  0  0  0  0  0  0  0  0
    6.0850    3.5895   -0.2441 H   0  0  0  0  0  0  0  0  0  0  0  0
    7.6270    2.0309   -2.4859 H   0  0  0  0  0  0  0  0  0  0  0  0
    8.2157    2.5111   -0.8769 H   0  0  0  0  0  0  0  0  0  0  0  0
    8.2703    0.8172   -1.3547 H   0  0  0  0  0  0  0  0  0  0  0  0
   -8.4141    2.9240   -1.3458 H   0  0  0  0  0  0  0  0  0  0  0  0
  1 10  1  0  0  0  0
  1 16  1  0  0  0  0
  2 17  2  0  0  0  0
  3 19  1  0  0  0  0
  3 24  1  0  0  0  0
  4 29  1  0  0  0  0
  4 48  1  0  0  0  0
  5 29  2  0  0  0  0
  6 11  1  0  0  0  0
  6 13  1  0  0  0  0
  6 17  1  0  0  0  0
  7 15  1  0  0  0  0
  7 18  1  0  0  0  0
  7 35  1  0  0  0  0
  8 14  1  0  0  0  0
  8 18  2  0  0  0  0
  9 16  2  0  0  0  0
  9 20  1  0  0  0  0
 10 20  2  0  0  0  0
 11 12  1  0  0  0  0
 11 16  1  0  0  0  0
 11 30  1  0  0  0  0
 12 14  1  0  0  0  0
 12 31  1  0  0  0  0
 12 32  1  0  0  0  0
 13 15  1  0  0  0  0
 13 33  1  0  0  0  0
 13 34  1  0  0  0  0
 14 15  2  0  0  0  0
 17 19  1  0  0  0  0
 18 36  1  0  0  0  0
 19 37  1  0  0  0  0
 19 38  1  0  0  0  0
 20 21  1  0  0  0  0
 21 22  2  0  0  0  0
 21 23  1  0  0  0  0
 22 26  1  0  0  0  0
 22 39  1  0  0  0  0
 23 27  2  0  0  0  0
 23 40  1  0  0  0  0
 24 29  1  0  0  0  0
 24 41  1  0  0  0  0
 24 42  1  0  0  0  0
 25 26  2  0  0  0  0
 25 27  1  0  0  0  0
 25 28  1  0  0  0  0
 26 43  1  0  0  0  0
 27 44  1  0  0  0  0
 28 45  1  0  0  0  0
 28 46  1  0  0  0  0
 28 47  1  0  0  0  0
M  END
> <PUBCHEM_COMPOUND_CID>
38344332

> <PUBCHEM_CONFORMER_RMSD>
1

> <PUBCHEM_CONFORMER_DIVERSEORDER>
1
27
17
13
21
30
10
32
24
11
31
33
34
23
2
9
29
3
7
36
8
26
22
5
20
19
4
28
15
18
14
25
6
35
16
12

> <PUBCHEM_MMFF94_PARTIAL_CHARGES>
36
1 -0.02
10 -0.41
11 0.48
12 0.18
13 0.48
14 0.05
15 -0.33
16 0.3
17 0.57
18 0.04
19 0.34
2 -0.57
20 0.46
21 0.05
22 -0.15
23 -0.15
24 0.34
25 -0.14
26 -0.15
27 -0.15
28 0.14
29 0.66
3 -0.56
35 0.27
36 0.15
39 0.15
4 -0.65
40 0.15
43 0.15
44 0.15
48 0.5
5 -0.57
6 -0.66
7 0.03
8 -0.57
9 -0.57

> <PUBCHEM_EFFECTIVE_ROTOR_COUNT>
7.8

> <PUBCHEM_PHARMACOPHORE_FEATURES>
12
1 2 acceptor
1 3 acceptor
1 4 acceptor
1 5 acceptor
1 7 donor
3 4 5 29 anion
3 7 8 18 cation
3 9 10 20 cation
5 1 9 10 16 20 rings
5 7 8 14 15 18 rings
6 21 22 23 25 26 27 rings
6 6 11 12 13 14 15 rings

> <PUBCHEM_HEAVY_ATOM_COUNT>
29

> <PUBCHEM_ATOM_DEF_STEREO_COUNT>
1

> <PUBCHEM_ATOM_UDEF_STEREO_COUNT>
0

> <PUBCHEM_BOND_DEF_STEREO_COUNT>
0

> <PUBCHEM_BOND_UDEF_STEREO_COUNT>
0

> <PUBCHEM_ISOTOPIC_ATOM_COUNT>
0

> <PUBCHEM_COMPONENT_COUNT>
1

> <PUBCHEM_CACTVS_TAUTO_COUNT>
2

> <PUBCHEM_CONFORMER_ID>
0249168C00000001

> <PUBCHEM_MMFF94_ENERGY>
53.9402

> <PUBCHEM_FEATURE_SELFOVERLAP>
61.078

> <PUBCHEM_SHAPE_FINGERPRINT>
10369192 42 18260550035158956565
105312 117 18334296508467752478
10675989 125 18341615863401463464
107951 10 18340490074958568710
11200772 48 18271529796785864046
11578080 2 18187655648627447267
11621639 336 17771079189703086273
11823591 26 18335126601339800869
12218070 45 13118578393139883337
13257819 101 17676198040573571533
13944108 23 18121775028820012077
14117953 113 18269839732057056094
15183329 4 17917996057284598441
15188451 53 12535353381046163252
15961568 22 17895471424283286397
16993427 108 10519709947117932893
17980427 23 13840280207818711507
19309040 13 16517967123434258854
20721686 146 17603865572734302605
21033648 29 18339071708921343601
21756936 100 17458622388870502760
23523787 8 17632571664866137206
23559900 14 17916031347088095272
24180151 248 18048037363950654765
32027 91 10591459725893692829
3411729 13 18189048712257729979
38570 142 18272365361409590989
4015057 19 16916511492347382400
4058900 60 18410579444550860851
4173938 306 18060407029093324392
44062 13 18054235594743466958
44802255 64 18261686973047210702
46194498 28 18120646930184384463
58260988 521 18050033226600075915
58260988 587 18263647269230702243
59755656 520 18058464242980016555
6376802 90 17911788382760126128
6898599 12 18193002749334535892

> <PUBCHEM_SHAPE_MULTIPOLES>
542.55
16.75
4.86
1.55
3.74
6.73
0.14
-25.64
-9.62
2.52
-1.24
0.5
0.18
0.69

> <PUBCHEM_SHAPE_SELFOVERLAP>
1176.237

> <PUBCHEM_SHAPE_VOLUME>
296.4

> <PUBCHEM_COORDINATE_TYPE>
2
5
10

$$$$
