56774784
  -OEChem-12032416403D

 53 56  0     1  0  0  0  0  0999 V2000
    9.3432    2.3691    0.4304 Cl  0  0  0  0  0  0  0  0  0  0  0  0
   -2.7191   -2.5791   -1.4357 O   0  0  0  0  0  0  0  0  0  0  0  0
   -2.1707   -0.6537    2.2664 O   0  0  0  0  0  0  0  0  0  0  0  0
   -5.9712   -2.1024    0.0603 O   0  0  0  0  0  0  0  0  0  0  0  0
    4.0483    1.6947    0.0260 O   0  0  0  0  0  0  0  0  0  0  0  0
   -4.0871   -0.7413    0.1803 N   0  0  0  0  0  0  0  0  0  0  0  0
   -4.6666    2.2630   -0.1940 N   0  0  0  0  0  0  0  0  0  0  0  0
    3.7658   -0.6375    0.1231 N   0  0  0  0  0  0  0  0  0  0  0  0
    8.7085    0.0710   -0.5873 N   0  0  0  0  0  0  0  0  0  0  0  0
   -2.6519   -0.6011   -0.0958 C   0  0  1  0  0  0  0  0  0  0  0  0
   -1.8228   -1.2454    1.0191 C   0  0  1  0  0  0  0  0  0  0  0  0
   -2.3192   -1.2139   -1.4509 C   0  0  0  0  0  0  0  0  0  0  0  0
   -4.6908    0.2097    1.1039 C   0  0  0  0  0  0  0  0  0  0  0  0
   -4.8157   -1.8378   -0.2767 C   0  0  0  0  0  0  0  0  0  0  0  0
   -0.3430   -1.0841    0.7813 C   0  0  0  0  0  0  0  0  0  0  0  0
   -4.1205   -2.6941   -1.3292 C   0  0  0  0  0  0  0  0  0  0  0  0
   -5.4243    1.3040    0.3839 C   0  0  0  0  0  0  0  0  0  0  0  0
    0.4732   -2.2106    0.6777 C   0  0  0  0  0  0  0  0  0  0  0  0
    0.2104    0.1909    0.6652 C   0  0  0  0  0  0  0  0  0  0  0  0
    1.8426   -2.0621    0.4583 C   0  0  0  0  0  0  0  0  0  0  0  0
    1.5799    0.3397    0.4457 C   0  0  0  0  0  0  0  0  0  0  0  0
    2.3959   -0.7868    0.3424 C   0  0  0  0  0  0  0  0  0  0  0  0
   -6.8092    1.2820    0.3460 C   0  0  0  0  0  0  0  0  0  0  0  0
   -7.4582    2.3103   -0.3285 C   0  0  0  0  0  0  0  0  0  0  0  0
   -5.3324    3.2461   -0.8405 C   0  0  0  0  0  0  0  0  0  0  0  0
   -6.7131    3.3150   -0.9357 C   0  0  0  0  0  0  0  0  0  0  0  0
    4.4920    0.5524   -0.0182 C   0  0  0  0  0  0  0  0  0  0  0  0
    5.9559    0.3856   -0.2155 C   0  0  0  0  0  0  0  0  0  0  0  0
    6.8330    1.3896    0.1799 C   0  0  0  0  0  0  0  0  0  0  0  0
    6.4536   -0.7755   -0.7968 C   0  0  0  0  0  0  0  0  0  0  0  0
    8.1879    1.1853   -0.0261 C   0  0  0  0  0  0  0  0  0  0  0  0
    7.8254   -0.8829   -0.9591 C   0  0  0  0  0  0  0  0  0  0  0  0
   -2.4534    0.4761   -0.1534 H   0  0  0  0  0  0  0  0  0  0  0  0
   -2.0778   -2.3078    1.1121 H   0  0  0  0  0  0  0  0  0  0  0  0
   -2.8466   -0.6914   -2.2598 H   0  0  0  0  0  0  0  0  0  0  0  0
   -1.2537   -1.1669   -1.6916 H   0  0  0  0  0  0  0  0  0  0  0  0
   -3.9391    0.6875    1.7356 H   0  0  0  0  0  0  0  0  0  0  0  0
   -5.3693   -0.3294    1.7760 H   0  0  0  0  0  0  0  0  0  0  0  0
   -4.5689   -2.4552   -2.3007 H   0  0  0  0  0  0  0  0  0  0  0  0
   -4.3465   -3.7427   -1.1093 H   0  0  0  0  0  0  0  0  0  0  0  0
   -1.8044    0.2452    2.3084 H   0  0  0  0  0  0  0  0  0  0  0  0
    0.0562   -3.2103    0.7649 H   0  0  0  0  0  0  0  0  0  0  0  0
   -0.4042    1.0831    0.7467 H   0  0  0  0  0  0  0  0  0  0  0  0
    2.4663   -2.9489    0.3793 H   0  0  0  0  0  0  0  0  0  0  0  0
    1.9319    1.3585    0.3683 H   0  0  0  0  0  0  0  0  0  0  0  0
   -7.3842    0.4947    0.8213 H   0  0  0  0  0  0  0  0  0  0  0  0
    4.2764   -1.5158    0.1074 H   0  0  0  0  0  0  0  0  0  0  0  0
   -8.5426    2.3287   -0.3810 H   0  0  0  0  0  0  0  0  0  0  0  0
   -4.7056    4.0050   -1.2970 H   0  0  0  0  0  0  0  0  0  0  0  0
   -7.1976    4.1262   -1.4668 H   0  0  0  0  0  0  0  0  0  0  0  0
    6.4745    2.3048    0.6406 H   0  0  0  0  0  0  0  0  0  0  0  0
    5.8253   -1.5804   -1.1598 H   0  0  0  0  0  0  0  0  0  0  0  0
    8.2639   -1.7644   -1.4152 H   0  0  0  0  0  0  0  0  0  0  0  0
  1 31  1  0  0  0  0
  2 12  1  0  0  0  0
  2 16  1  0  0  0  0
  3 11  1  0  0  0  0
  3 41  1  0  0  0  0
  4 14  2  0  0  0  0
  5 27  2  0  0  0  0
  6 10  1  0  0  0  0
  6 13  1  0  0  0  0
  6 14  1  0  0  0  0
  7 17  1  0  0  0  0
  7 25  2  0  0  0  0
  8 22  1  0  0  0  0
  8 27  1  0  0  0  0
  8 47  1  0  0  0  0
  9 31  2  0  0  0  0
  9 32  1  0  0  0  0
 10 11  1  0  0  0  0
 10 12  1  0  0  0  0
 10 33  1  0  0  0  0
 11 15  1  0  0  0  0
 11 34  1  0  0  0  0
 12 35  1  0  0  0  0
 12 36  1  0  0  0  0
 13 17  1  0  0  0  0
 13 37  1  0  0  0  0
 13 38  1  0  0  0  0
 14 16  1  0  0  0  0
 15 18  2  0  0  0  0
 15 19  1  0  0  0  0
 16 39  1  0  0  0  0
 16 40  1  0  0  0  0
 17 23  2  0  0  0  0
 18 20  1  0  0  0  0
 18 42  1  0  0  0  0
 19 21  2  0  0  0  0
 19 43  1  0  0  0  0
 20 22  2  0  0  0  0
 20 44  1  0  0  0  0
 21 22  1  0  0  0  0
 21 45  1  0  0  0  0
 23 24  1  0  0  0  0
 23 46  1  0  0  0  0
 24 26  2  0  0  0  0
 24 48  1  0  0  0  0
 25 26  1  0  0  0  0
 25 49  1  0  0  0  0
 26 50  1  0  0  0  0
 27 28  1  0  0  0  0
 28 29  2  0  0  0  0
 28 30  1  0  0  0  0
 29 31  1  0  0  0  0
 29 51  1  0  0  0  0
 30 32  2  0  0  0  0
 30 52  1  0  0  0  0
 32 53  1  0  0  0  0
M  END
> <PUBCHEM_COMPOUND_CID>
56774784

> <PUBCHEM_CONFORMER_RMSD>
1

> <PUBCHEM_CONFORMER_DIVERSEORDER>
2
137
14
162
139
61
149
64
106
58
138
97
119
107
88
185
129
49
13
179
5
142
30
84
175
85
166
110
155
81
147
75
111
47
167
171
182
99
177
121
174
35
169
136
37
130
62
93
86
83
109
113
90
176
148
144
141
50
153
163
116
165
154
95
32
69
108
170
172
180
127
68
168
24
115
96
100
143
156
63
128
102
82
114
152
79
117
164
76
98
126
183
22
40
60
104
11
101
134
133
71
92
77
26
184
70
78
7
132
131
56
150
123
53
52
146
135
57
140
145
157
91
48
8
73
151
65
161
16
160
72
42
103
159
125
33
3
51
74
12
27
158
19
36
43
94
41
25
9
178
66
38
112
1
21
54
44
59
10
55
6
4
122
20
105
34
31
67
17
39
181
120
46
89
15
173
45
80
18
124
23
87
29
118
28

> <PUBCHEM_MMFF94_PARTIAL_CHARGES>
45
1 -0.18
10 0.3
11 0.42
12 0.28
13 0.44
14 0.57
15 -0.14
16 0.34
17 0.17
18 -0.15
19 -0.15
2 -0.56
20 -0.15
21 -0.15
22 0.12
23 -0.15
24 -0.15
25 0.16
26 -0.15
27 0.54
28 0.09
29 -0.15
3 -0.68
30 -0.15
31 0.49
32 0.16
4 -0.57
41 0.4
42 0.15
43 0.15
44 0.15
45 0.15
46 0.15
47 0.37
48 0.15
49 0.15
5 -0.57
50 0.15
51 0.15
52 0.15
53 0.15
6 -0.66
7 -0.62
8 -0.55
9 -0.62

> <PUBCHEM_EFFECTIVE_ROTOR_COUNT>
8

> <PUBCHEM_PHARMACOPHORE_FEATURES>
12
1 2 acceptor
1 3 acceptor
1 3 donor
1 4 acceptor
1 5 acceptor
1 7 acceptor
1 8 donor
1 9 acceptor
6 15 18 19 20 21 22 rings
6 2 6 10 12 14 16 rings
6 7 17 23 24 25 26 rings
6 9 28 29 30 31 32 rings

> <PUBCHEM_HEAVY_ATOM_COUNT>
32

> <PUBCHEM_ATOM_DEF_STEREO_COUNT>
2

> <PUBCHEM_ATOM_UDEF_STEREO_COUNT>
0

> <PUBCHEM_BOND_DEF_STEREO_COUNT>
0

> <PUBCHEM_BOND_UDEF_STEREO_COUNT>
0

> <PUBCHEM_ISOTOPIC_ATOM_COUNT>
0

> <PUBCHEM_COMPONENT_COUNT>
1

> <PUBCHEM_CACTVS_TAUTO_COUNT>
4

> <PUBCHEM_CONFORMER_ID>
0362508000000002

> <PUBCHEM_MMFF94_ENERGY>
99.8002

> <PUBCHEM_FEATURE_SELFOVERLAP>
60.901

> <PUBCHEM_SHAPE_FINGERPRINT>
10 15 17894634712950348145
10165383 225 18060424582946013929
10669705 176 18341616988487488694
11135609 187 18342458158355318986
11315181 36 17417819477666549418
11408170 132 18336275604999693460
12013929 29 17762615093415646645
12082328 90 18409166636122637086
12895837 130 18407761452025449389
12988421 55 16370721522242769291
13540713 4 16915637384956530187
13690498 29 17845362422997913607
13911987 19 17988074479997231577
13914758 101 18409167723455854986
15183329 4 17346600751071356642
15347591 1 18336826382277780243
15350500 55 17677044621846961381
15419008 91 17917415554627890704
15604295 49 18341888654092263840
1577012 14 18333444335854462066
16114785 44 16443891766972781655
16994733 274 18187363216613969800
19302320 297 17967538956063322332
20505436 4 18335697213789932339
21033648 29 18335412509355984936
21223535 225 18335416859456281556
21424621 283 18041000609316744546
21756936 100 18040999549124408691
21792961 116 17918278636484466803
23559900 14 16845565461251641490
2838139 119 18261958547976493920
4073 2 17968101906179995179
4098825 35 18410292480252855494
44249763 50 18200576077667196753
44280117 145 18267304407506885351
44802255 64 18202565081776001423
4516262 110 17895746306437068143
5385378 56 17458341902021470954
563151 97 18408316679570403635
59682541 35 8358250412050664302
6086070 43 17560791147747696410
6201320 215 18335693885206102016
6327066 14 18265327319130322925
636775 72 18334295392019452528
6697151 62 15841257208435421770
9953998 17 10737281330124175351

> <PUBCHEM_SHAPE_MULTIPOLES>
617.01
27.46
3.31
1.18
43.03
1.24
0.06
20.84
-4.78
-5.98
-0.93
-0.89
-0.42
0.96

> <PUBCHEM_SHAPE_SELFOVERLAP>
1329.181

> <PUBCHEM_SHAPE_VOLUME>
337

> <PUBCHEM_COORDINATE_TYPE>
2
5
10

$$$$
