45783792
  -OEChem-12032416363D

 43 46  0     1  0  0  0  0  0999 V2000
    0.9403    0.3292    2.0789 O   0  0  0  0  0  0  0  0  0  0  0  0
    3.3435    0.1578   -0.4758 N   0  0  1  0  0  0  0  0  0  0  0  0
    0.2845    0.6846   -0.0330 N   0  0  0  0  0  0  0  0  0  0  0  0
   -0.4373    0.0777    2.0513 N   0  0  0  0  0  0  0  0  0  0  0  0
   -4.4082   -0.3553    0.6884 N   0  0  0  0  0  0  0  0  0  0  0  0
   -5.9774   -0.2405   -1.1005 N   0  0  0  0  0  0  0  0  0  0  0  0
    3.9158   -1.0727    0.0878 C   0  0  0  0  0  0  0  0  0  0  0  0
    2.7975   -2.1154    0.2951 C   0  0  0  0  0  0  0  0  0  0  0  0
    4.4366   -1.9709   -1.0534 C   0  0  0  0  0  0  0  0  0  0  0  0
    2.7441    1.0067    0.5750 C   0  0  1  0  0  0  0  0  0  0  0  0
    3.7530   -3.1516   -0.3329 C   0  0  0  0  0  0  0  0  0  0  0  0
    4.3881    0.9619   -1.1131 C   0  0  0  0  0  0  0  0  0  0  0  0
    2.9625    2.4507    0.0860 C   0  0  0  0  0  0  0  0  0  0  0  0
    3.7159    2.3148   -1.2293 C   0  0  0  0  0  0  0  0  0  0  0  0
    1.2842    0.6807    0.8122 C   0  0  0  0  0  0  0  0  0  0  0  0
   -0.7504    0.3084    0.7727 C   0  0  0  0  0  0  0  0  0  0  0  0
   -2.0867    0.1736    0.2692 C   0  0  0  0  0  0  0  0  0  0  0  0
   -2.3774    0.4233   -1.0675 C   0  0  0  0  0  0  0  0  0  0  0  0
   -3.1283   -0.2096    1.0986 C   0  0  0  0  0  0  0  0  0  0  0  0
   -3.6823    0.2841   -1.5272 C   0  0  0  0  0  0  0  0  0  0  0  0
   -4.6525   -0.1040   -0.6173 C   0  0  0  0  0  0  0  0  0  0  0  0
   -7.0653   -0.6335   -0.2653 C   0  0  0  0  0  0  0  0  0  0  0  0
    4.6117   -0.9615    0.9282 H   0  0  0  0  0  0  0  0  0  0  0  0
    1.8858   -1.9768   -0.2992 H   0  0  0  0  0  0  0  0  0  0  0  0
    2.5162   -2.3108    1.3336 H   0  0  0  0  0  0  0  0  0  0  0  0
    5.5242   -2.0446   -1.1411 H   0  0  0  0  0  0  0  0  0  0  0  0
    4.0135   -1.7886   -2.0495 H   0  0  0  0  0  0  0  0  0  0  0  0
    3.2866    0.8954    1.5246 H   0  0  0  0  0  0  0  0  0  0  0  0
    3.2875   -3.9000   -0.9788 H   0  0  0  0  0  0  0  0  0  0  0  0
    4.3972   -3.6566    0.3961 H   0  0  0  0  0  0  0  0  0  0  0  0
    4.6742    0.5805   -2.0980 H   0  0  0  0  0  0  0  0  0  0  0  0
    5.2869    1.0394   -0.4875 H   0  0  0  0  0  0  0  0  0  0  0  0
    2.0369    3.0201   -0.0505 H   0  0  0  0  0  0  0  0  0  0  0  0
    3.5860    2.9923    0.8081 H   0  0  0  0  0  0  0  0  0  0  0  0
    3.0079    2.3206   -2.0674 H   0  0  0  0  0  0  0  0  0  0  0  0
    4.4316    3.1279   -1.3819 H   0  0  0  0  0  0  0  0  0  0  0  0
   -1.6080    0.7275   -1.7726 H   0  0  0  0  0  0  0  0  0  0  0  0
   -2.9857   -0.4230    2.1538 H   0  0  0  0  0  0  0  0  0  0  0  0
   -3.9158    0.4783   -2.5690 H   0  0  0  0  0  0  0  0  0  0  0  0
   -6.1014   -0.2743   -2.1066 H   0  0  0  0  0  0  0  0  0  0  0  0
   -7.2146    0.0785    0.5529 H   0  0  0  0  0  0  0  0  0  0  0  0
   -7.9906   -0.6664   -0.8489 H   0  0  0  0  0  0  0  0  0  0  0  0
   -6.9017   -1.6304    0.1568 H   0  0  0  0  0  0  0  0  0  0  0  0
  1  4  1  0  0  0  0
  1 15  1  0  0  0  0
  2  7  1  0  0  0  0
  2 10  1  0  0  0  0
  2 12  1  0  0  0  0
  3 15  2  0  0  0  0
  3 16  1  0  0  0  0
  4 16  2  0  0  0  0
  5 19  1  0  0  0  0
  5 21  2  0  0  0  0
  6 21  1  0  0  0  0
  6 22  1  0  0  0  0
  6 40  1  0  0  0  0
  7  8  1  0  0  0  0
  7  9  1  0  0  0  0
  7 23  1  0  0  0  0
  8 11  1  0  0  0  0
  8 24  1  0  0  0  0
  8 25  1  0  0  0  0
  9 11  1  0  0  0  0
  9 26  1  0  0  0  0
  9 27  1  0  0  0  0
 10 13  1  0  0  0  0
 10 15  1  0  0  0  0
 10 28  1  0  0  0  0
 11 29  1  0  0  0  0
 11 30  1  0  0  0  0
 12 14  1  0  0  0  0
 12 31  1  0  0  0  0
 12 32  1  0  0  0  0
 13 14  1  0  0  0  0
 13 33  1  0  0  0  0
 13 34  1  0  0  0  0
 14 35  1  0  0  0  0
 14 36  1  0  0  0  0
 16 17  1  0  0  0  0
 17 18  1  0  0  0  0
 17 19  2  0  0  0  0
 18 20  2  0  0  0  0
 18 37  1  0  0  0  0
 19 38  1  0  0  0  0
 20 21  1  0  0  0  0
 20 39  1  0  0  0  0
 22 41  1  0  0  0  0
 22 42  1  0  0  0  0
 22 43  1  0  0  0  0
M  END
> <PUBCHEM_COMPOUND_CID>
45783792

> <PUBCHEM_CONFORMER_RMSD>
0.8

> <PUBCHEM_CONFORMER_DIVERSEORDER>
1
8
10
18
3
7
11
16
6
12
5
9
17
14
4
15
2
13

> <PUBCHEM_MMFF94_PARTIAL_CHARGES>
21
1 -0.02
10 0.45
12 0.27
15 0.3
16 0.46
17 0.05
18 -0.15
19 0.16
2 -0.75
20 -0.15
21 0.41
22 0.37
3 -0.57
37 0.15
38 0.15
39 0.15
4 -0.41
40 0.4
5 -0.62
6 -0.87
7 0.21

> <PUBCHEM_EFFECTIVE_ROTOR_COUNT>
5.8

> <PUBCHEM_PHARMACOPHORE_FEATURES>
8
1 2 cation
1 6 donor
3 3 4 16 cation
3 5 6 21 cation
4 7 8 9 11 rings
5 1 3 4 15 16 rings
5 2 10 12 13 14 rings
6 5 17 18 19 20 21 rings

> <PUBCHEM_HEAVY_ATOM_COUNT>
22

> <PUBCHEM_ATOM_DEF_STEREO_COUNT>
1

> <PUBCHEM_ATOM_UDEF_STEREO_COUNT>
0

> <PUBCHEM_BOND_DEF_STEREO_COUNT>
0

> <PUBCHEM_BOND_UDEF_STEREO_COUNT>
0

> <PUBCHEM_ISOTOPIC_ATOM_COUNT>
0

> <PUBCHEM_COMPONENT_COUNT>
1

> <PUBCHEM_CACTVS_TAUTO_COUNT>
8

> <PUBCHEM_CONFORMER_ID>
02BA9AF000000001

> <PUBCHEM_MMFF94_ENERGY>
56.3148

> <PUBCHEM_FEATURE_SELFOVERLAP>
40.598

> <PUBCHEM_SHAPE_FINGERPRINT>
10042902 136 17200251235678969478
10378564 45 18261663775654622941
10498660 4 16153425034559878149
10670039 82 15068899690251900790
11796584 16 17275103981115046175
12236239 1 17632302259032155992
12390115 104 17241879897221418205
125118 31 11891599201940937599
12553582 1 16415478242309628885
12730499 353 18261961854827024768
12788726 201 17203062810594240849
13533116 47 18343021099243402223
13675066 3 12679464183738480649
13836976 161 18412828006143905686
13955234 65 18270954747609078072
14528608 73 16877936157720917277
14863182 85 17989483001457919278
15183329 4 17346602959307220977
15342168 16 11170206349105041827
15342816 4 17275384326357459312
15806764 133 16806475597859062064
15961568 22 16660649621615071868
17349148 13 16917349225417480863
17818456 19 17413886331474786864
17844677 252 18261112946357497165
17857418 61 17561075904654479151
1813 80 17132116848714115049
18186145 218 17531252729392305040
18222031 100 15698001855458437569
19784866 240 17988364763176367246
20369508 70 17275096245599507496
20388580 30 18342458084992292946
20626108 58 17988359252865020026
20645477 70 18408323276613068890
21285901 2 17967247577228949100
21792934 111 12175630599279281147
220451 1 18130792304462707239
22061861 79 18409726249418927215
221357 26 18187362116944385181
23522609 53 17773059595086045849
23557571 272 17168721858439599497
23559900 14 17749396979041500596
23596394 208 18186518774266571818
238 59 18334871532317846322
239999 70 17894345605378765792
3004659 81 17988646272365064958
312423 11 18272098157897275569
341906 21 14996003258940957037
3472631 163 15502949630989041406
34797466 226 17821730567957405565
351380 3 17418375778894460822
4340502 62 18130494345127123448
4409770 3 11612307712871543360
46194498 28 18186801374714462900
465052 167 17775567546115871711
474 4 12107788484226678641
495365 180 18265049309796762952
4990 188 17967248684966273664
5104073 3 15266767962554996155
5281201 14 18260828163786372748
5374978 207 10015589414863824335
59682541 52 18409438173077300927
6025842 7 18411139173400161868
633830 44 17967807237231957821
7164475 11 18269840830840930320
960060 61 18342458153205159669
9841814 1 16271918346260343698

> <PUBCHEM_SHAPE_MULTIPOLES>
421.98
13.49
2.28
1.5
19.59
0.86
0.33
3.57
-5.27
-5.36
-0.54
0.29
-0.21
0.05

> <PUBCHEM_SHAPE_SELFOVERLAP>
907.953

> <PUBCHEM_SHAPE_VOLUME>
235.3

> <PUBCHEM_COORDINATE_TYPE>
2
5
10

$$$$
