45360674
  -OEChem-12032416393D

 68 71  0     1  0  0  0  0  0999 V2000
   -1.1289   -2.1779    2.8617 O   0  0  0  0  0  0  0  0  0  0  0  0
   -5.2108    2.5979   -0.5106 O   0  0  0  0  0  0  0  0  0  0  0  0
   -1.4287    0.7496    0.7022 N   0  0  1  0  0  0  0  0  0  0  0  0
   -1.9747   -0.1160    3.3150 N   0  0  0  0  0  0  0  0  0  0  0  0
    2.1315    0.3728    0.1382 N   0  0  0  0  0  0  0  0  0  0  0  0
   -3.7690    1.3753   -1.8580 N   0  0  0  0  0  0  0  0  0  0  0  0
    8.4950   -0.0770   -0.2595 N   0  0  0  0  0  0  0  0  0  0  0  0
   -1.2894   -0.6837    0.9900 C   0  0  1  0  0  0  0  0  0  0  0  0
    0.6915    0.2743   -0.0372 C   0  0  1  0  0  0  0  0  0  0  0  0
    0.1134   -1.0447    0.4765 C   0  0  0  0  0  0  0  0  0  0  0  0
   -2.4771    1.4164    1.4664 C   0  0  1  0  0  0  0  0  0  0  0  0
   -0.0879    1.3288    0.7366 C   0  0  0  0  0  0  0  0  0  0  0  0
   -2.2409    1.2589    2.9603 C   0  0  0  0  0  0  0  0  0  0  0  0
   -1.4335   -1.0494    2.4644 C   0  0  0  0  0  0  0  0  0  0  0  0
   -2.6411    2.8892    1.0889 C   0  0  0  0  0  0  0  0  0  0  0  0
   -2.8351    3.0545   -0.4122 C   0  0  0  0  0  0  0  0  0  0  0  0
    2.8371   -0.3658   -0.9014 C   0  0  0  0  0  0  0  0  0  0  0  0
   -4.0785    2.3401   -0.9104 C   0  0  0  0  0  0  0  0  0  0  0  0
    4.3270   -0.2897   -0.7321 C   0  0  0  0  0  0  0  0  0  0  0  0
    5.0086    0.8791   -1.0713 C   0  0  0  0  0  0  0  0  0  0  0  0
    5.0296   -1.3879   -0.2363 C   0  0  0  0  0  0  0  0  0  0  0  0
   -4.7805    0.5571   -2.4839 C   0  0  0  0  0  0  0  0  0  0  0  0
    6.3929    0.9496   -0.9147 C   0  0  0  0  0  0  0  0  0  0  0  0
    6.4138   -1.3174   -0.0797 C   0  0  0  0  0  0  0  0  0  0  0  0
    7.0954   -0.1487   -0.4189 C   0  0  0  0  0  0  0  0  0  0  0  0
   -5.0332   -0.7087   -1.7170 C   0  0  0  0  0  0  0  0  0  0  0  0
   -4.2970   -1.8577   -2.0062 C   0  0  0  0  0  0  0  0  0  0  0  0
   -6.0036   -0.7358   -0.7156 C   0  0  0  0  0  0  0  0  0  0  0  0
    9.2122    1.1334   -0.6080 C   0  0  0  0  0  0  0  0  0  0  0  0
    9.2334   -1.2099    0.2621 C   0  0  0  0  0  0  0  0  0  0  0  0
   -4.5314   -3.0339   -1.2938 C   0  0  0  0  0  0  0  0  0  0  0  0
   -6.2380   -1.9118   -0.0032 C   0  0  0  0  0  0  0  0  0  0  0  0
   -5.5020   -3.0609   -0.2924 C   0  0  0  0  0  0  0  0  0  0  0  0
   -2.0564   -1.2435    0.4425 H   0  0  0  0  0  0  0  0  0  0  0  0
    0.4321    0.3914   -1.1005 H   0  0  0  0  0  0  0  0  0  0  0  0
    0.7431   -1.4670    1.2692 H   0  0  0  0  0  0  0  0  0  0  0  0
    0.0634   -1.7800   -0.3349 H   0  0  0  0  0  0  0  0  0  0  0  0
   -3.4207    0.9033    1.2333 H   0  0  0  0  0  0  0  0  0  0  0  0
   -0.0211    2.3025    0.2424 H   0  0  0  0  0  0  0  0  0  0  0  0
    0.2939    1.4292    1.7599 H   0  0  0  0  0  0  0  0  0  0  0  0
   -3.1213    1.5760    3.5298 H   0  0  0  0  0  0  0  0  0  0  0  0
   -1.3898    1.8531    3.3104 H   0  0  0  0  0  0  0  0  0  0  0  0
   -3.5099    3.3002    1.6188 H   0  0  0  0  0  0  0  0  0  0  0  0
   -1.7742    3.4796    1.4096 H   0  0  0  0  0  0  0  0  0  0  0  0
   -2.0853   -0.3788    4.2895 H   0  0  0  0  0  0  0  0  0  0  0  0
    2.4054    1.3546    0.0918 H   0  0  0  0  0  0  0  0  0  0  0  0
   -1.9478    2.7518   -0.9762 H   0  0  0  0  0  0  0  0  0  0  0  0
   -2.9779    4.1191   -0.6369 H   0  0  0  0  0  0  0  0  0  0  0  0
    2.5835    0.0249   -1.8960 H   0  0  0  0  0  0  0  0  0  0  0  0
    2.5287   -1.4188   -0.8983 H   0  0  0  0  0  0  0  0  0  0  0  0
   -2.8007    1.2051   -2.1126 H   0  0  0  0  0  0  0  0  0  0  0  0
    4.4720    1.7407   -1.4600 H   0  0  0  0  0  0  0  0  0  0  0  0
    4.5111   -2.3041    0.0340 H   0  0  0  0  0  0  0  0  0  0  0  0
   -5.7081    1.1329   -2.5862 H   0  0  0  0  0  0  0  0  0  0  0  0
   -4.4364    0.3285   -3.4990 H   0  0  0  0  0  0  0  0  0  0  0  0
    6.8767    1.8807   -1.1928 H   0  0  0  0  0  0  0  0  0  0  0  0
    6.9144   -2.1981    0.3102 H   0  0  0  0  0  0  0  0  0  0  0  0
   -3.5360   -1.8485   -2.7820 H   0  0  0  0  0  0  0  0  0  0  0  0
   -6.5870    0.1502   -0.4812 H   0  0  0  0  0  0  0  0  0  0  0  0
    9.0940    1.3717   -1.6709 H   0  0  0  0  0  0  0  0  0  0  0  0
    8.8756    1.9815   -0.0014 H   0  0  0  0  0  0  0  0  0  0  0  0
   10.2887    1.0315   -0.4304 H   0  0  0  0  0  0  0  0  0  0  0  0
   10.3065   -0.9983    0.3277 H   0  0  0  0  0  0  0  0  0  0  0  0
    9.1283   -2.0848   -0.3892 H   0  0  0  0  0  0  0  0  0  0  0  0
    8.9039   -1.4646    1.2756 H   0  0  0  0  0  0  0  0  0  0  0  0
   -3.9573   -3.9282   -1.5179 H   0  0  0  0  0  0  0  0  0  0  0  0
   -6.9938   -1.9331    0.7764 H   0  0  0  0  0  0  0  0  0  0  0  0
   -5.6842   -3.9765    0.2626 H   0  0  0  0  0  0  0  0  0  0  0  0
  1 14  2  0  0  0  0
  2 18  2  0  0  0  0
  3  8  1  0  0  0  0
  3 11  1  0  0  0  0
  3 12  1  0  0  0  0
  4 13  1  0  0  0  0
  4 14  1  0  0  0  0
  4 45  1  0  0  0  0
  5  9  1  0  0  0  0
  5 17  1  0  0  0  0
  5 46  1  0  0  0  0
  6 18  1  0  0  0  0
  6 22  1  0  0  0  0
  6 51  1  0  0  0  0
  7 25  1  0  0  0  0
  7 29  1  0  0  0  0
  7 30  1  0  0  0  0
  8 10  1  0  0  0  0
  8 14  1  0  0  0  0
  8 34  1  0  0  0  0
  9 10  1  0  0  0  0
  9 12  1  0  0  0  0
  9 35  1  0  0  0  0
 10 36  1  0  0  0  0
 10 37  1  0  0  0  0
 11 13  1  0  0  0  0
 11 15  1  0  0  0  0
 11 38  1  0  0  0  0
 12 39  1  0  0  0  0
 12 40  1  0  0  0  0
 13 41  1  0  0  0  0
 13 42  1  0  0  0  0
 15 16  1  0  0  0  0
 15 43  1  0  0  0  0
 15 44  1  0  0  0  0
 16 18  1  0  0  0  0
 16 47  1  0  0  0  0
 16 48  1  0  0  0  0
 17 19  1  0  0  0  0
 17 49  1  0  0  0  0
 17 50  1  0  0  0  0
 19 20  2  0  0  0  0
 19 21  1  0  0  0  0
 20 23  1  0  0  0  0
 20 52  1  0  0  0  0
 21 24  2  0  0  0  0
 21 53  1  0  0  0  0
 22 26  1  0  0  0  0
 22 54  1  0  0  0  0
 22 55  1  0  0  0  0
 23 25  2  0  0  0  0
 23 56  1  0  0  0  0
 24 25  1  0  0  0  0
 24 57  1  0  0  0  0
 26 27  2  0  0  0  0
 26 28  1  0  0  0  0
 27 31  1  0  0  0  0
 27 58  1  0  0  0  0
 28 32  2  0  0  0  0
 28 59  1  0  0  0  0
 29 60  1  0  0  0  0
 29 61  1  0  0  0  0
 29 62  1  0  0  0  0
 30 63  1  0  0  0  0
 30 64  1  0  0  0  0
 30 65  1  0  0  0  0
 31 33  2  0  0  0  0
 31 66  1  0  0  0  0
 32 33  1  0  0  0  0
 32 67  1  0  0  0  0
 33 68  1  0  0  0  0
M  END
> <PUBCHEM_COMPOUND_CID>
45360674

> <PUBCHEM_CONFORMER_RMSD>
1

> <PUBCHEM_CONFORMER_DIVERSEORDER>
1
189
106
52
48
30
143
76
160
62
103
139
100
169
32
187
7
148
107
51
114
29
178
206
102
199
195
173
61
135
26
46
111
88
171
19
97
10
145
44
131
55
42
202
190
72
162
49
38
214
93
109
119
133
129
101
213
99
17
21
159
120
167
35
20
204
158
179
163
124
68
75
153
123
152
58
166
170
65
18
74
3
196
210
149
174
191
126
172
146
168
121
151
73
77
96
28
203
79
117
193
86
95
104
59
161
165
41
175
22
91
201
132
70
12
84
177
182
40
136
164
138
82
198
185
207
71
87
183
45
47
78
85
137
116
34
147
94
90
23
142
36
197
134
200
113
144
6
33
130
155
194
105
122
69
110
188
27
127
128
39
140
208
176
211
67
154
192
16
31
66
60
205
186
180
43
37
125
184
92
56
150
212
63
115
83
14
157
25
181
24
209
8
80
118
50
81
156
64
89
112
5
98
57
11
54
53
15
9
13
141
4
108
2

> <PUBCHEM_MMFF94_PARTIAL_CHARGES>
43
1 -0.57
11 0.27
12 0.27
13 0.3
14 0.57
16 0.06
17 0.41
18 0.57
19 -0.14
2 -0.57
20 -0.15
21 -0.15
22 0.44
23 -0.15
24 -0.15
25 0.1
26 -0.14
27 -0.15
28 -0.15
29 0.37
3 -0.81
30 0.37
31 -0.15
32 -0.15
33 -0.15
4 -0.73
45 0.37
46 0.36
5 -0.9
51 0.37
52 0.15
53 0.15
56 0.15
57 0.15
58 0.15
59 0.15
6 -0.73
66 0.15
67 0.15
68 0.15
7 -0.84
8 0.33
9 0.27

> <PUBCHEM_EFFECTIVE_ROTOR_COUNT>
11.2

> <PUBCHEM_PHARMACOPHORE_FEATURES>
12
1 1 acceptor
1 2 acceptor
1 3 cation
1 4 donor
1 5 cation
1 5 donor
1 6 donor
1 7 cation
5 3 8 9 10 12 rings
6 19 20 21 23 24 25 rings
6 26 27 28 31 32 33 rings
6 3 4 8 11 13 14 rings

> <PUBCHEM_HEAVY_ATOM_COUNT>
33

> <PUBCHEM_ATOM_DEF_STEREO_COUNT>
3

> <PUBCHEM_ATOM_UDEF_STEREO_COUNT>
0

> <PUBCHEM_BOND_DEF_STEREO_COUNT>
0

> <PUBCHEM_BOND_UDEF_STEREO_COUNT>
0

> <PUBCHEM_ISOTOPIC_ATOM_COUNT>
0

> <PUBCHEM_COMPONENT_COUNT>
1

> <PUBCHEM_CACTVS_TAUTO_COUNT>
6

> <PUBCHEM_CONFORMER_ID>
02B4262200000001

> <PUBCHEM_MMFF94_ENERGY>
86.9304

> <PUBCHEM_FEATURE_SELFOVERLAP>
61.085

> <PUBCHEM_SHAPE_FINGERPRINT>
10462385 53 16733255773387483734
105312 117 15936693675148928185
10554248 39 17313393297312016302
10577160 103 18265610060468465720
10577160 183 15936679424716602536
10674148 151 18272930523561163881
11103572 155 9871480828807610244
11146851 88 8286208249472197543
11488393 25 16985999540527482537
12082328 90 18412822469698823046
12373685 5 18113609059629962098
12422481 6 10231760014992018201
13692115 27 16340866641827487326
13726171 33 18191583044185606973
13941219 33 12463579464902002165
14040222 275 17241057522589821166
14068700 675 17703790378908378627
14114207 22 14476144215270981823
14118638 360 16988850450109628534
14279260 333 18260824878084059239
14932701 244 18409172104222172751
15183329 4 17095234831004091422
15461852 350 18412831287804719252
17686467 74 17703782636037438544
20101258 96 14836118832498135827
21033648 29 8862398595097546991
21795232 338 10879988052294817586
2838139 119 16588023493870682316
4015057 19 18188215393876265660
437795 160 18342161277641589018
44802255 64 14345791664898644099
484985 159 15626215802823693325
4938544 92 8430313541552356861
5080951 261 18273221872208823923
6086070 43 15647335294683519356
6691757 9 16153430545472365216
70634741 139 18273493481297658142
77296 10 18341611456485683606
9953998 17 13614249191128100775

> <PUBCHEM_SHAPE_MULTIPOLES>
642.48
23.43
3.07
2.44
60.32
0.3
1.82
-7.54
-9.66
-6.62
-0.21
-3.78
0.18
-0.97

> <PUBCHEM_SHAPE_SELFOVERLAP>
1355.976

> <PUBCHEM_SHAPE_VOLUME>
360.8

> <PUBCHEM_COORDINATE_TYPE>
2
5
10

$$$$
