45784082
  -OEChem-12032416243D

 42 45  0     1  0  0  0  0  0999 V2000
   -1.4940   -0.1641   -0.0010 N   0  0  1  0  0  0  0  0  0  0  0  0
    3.1341   -1.2503    0.6027 N   0  0  0  0  0  0  0  0  0  0  0  0
    2.6234    0.7887   -0.1335 N   0  0  0  0  0  0  0  0  0  0  0  0
    4.8835    1.4750   -0.6943 N   0  0  0  0  0  0  0  0  0  0  0  0
    0.7006   -0.6384    0.6759 C   0  0  1  0  0  0  0  0  0  0  0  0
    0.0408    0.3073    1.6946 C   0  0  0  0  0  0  0  0  0  0  0  0
   -0.2028   -0.5667   -0.5626 C   0  0  0  0  0  0  0  0  0  0  0  0
   -1.1728    0.8790    0.9730 C   0  0  0  0  0  0  0  0  0  0  0  0
    2.1478   -0.3303    0.3681 C   0  0  0  0  0  0  0  0  0  0  0  0
   -2.4235    0.2977   -1.0213 C   0  0  0  0  0  0  0  0  0  0  0  0
   -3.8461    0.2906   -0.5283 C   0  0  0  0  0  0  0  0  0  0  0  0
    4.3230   -0.6861    0.2275 C   0  0  0  0  0  0  0  0  0  0  0  0
    3.9767    0.5816   -0.2263 C   0  0  0  0  0  0  0  0  0  0  0  0
   -4.5629   -0.9010   -0.4221 C   0  0  0  0  0  0  0  0  0  0  0  0
   -4.4462    1.4993   -0.1754 C   0  0  0  0  0  0  0  0  0  0  0  0
    5.6401   -1.1320    0.2329 C   0  0  0  0  0  0  0  0  0  0  0  0
   -5.8799   -0.8842    0.0371 C   0  0  0  0  0  0  0  0  0  0  0  0
   -3.9418   -2.2073   -0.7941 C   0  0  0  0  0  0  0  0  0  0  0  0
   -5.7633    1.5164    0.2839 C   0  0  0  0  0  0  0  0  0  0  0  0
   -6.4800    0.3245    0.3902 C   0  0  0  0  0  0  0  0  0  0  0  0
    6.5826   -0.2254   -0.2448 C   0  0  0  0  0  0  0  0  0  0  0  0
    6.1606    1.0257   -0.6821 C   0  0  0  0  0  0  0  0  0  0  0  0
    0.6412   -1.6563    1.0880 H   0  0  0  0  0  0  0  0  0  0  0  0
   -0.2794   -0.2691    2.5716 H   0  0  0  0  0  0  0  0  0  0  0  0
    0.7072    1.1025    2.0452 H   0  0  0  0  0  0  0  0  0  0  0  0
    0.1671    0.1724   -1.2858 H   0  0  0  0  0  0  0  0  0  0  0  0
   -0.2645   -1.5377   -1.0661 H   0  0  0  0  0  0  0  0  0  0  0  0
   -1.9918    1.0683    1.6738 H   0  0  0  0  0  0  0  0  0  0  0  0
   -0.8995    1.8248    0.4877 H   0  0  0  0  0  0  0  0  0  0  0  0
   -2.1492    1.2943   -1.3952 H   0  0  0  0  0  0  0  0  0  0  0  0
   -2.3691   -0.3453   -1.9096 H   0  0  0  0  0  0  0  0  0  0  0  0
    3.0091   -2.1788    0.9839 H   0  0  0  0  0  0  0  0  0  0  0  0
   -3.9000    2.4359   -0.2510 H   0  0  0  0  0  0  0  0  0  0  0  0
    5.9175   -2.1180    0.5846 H   0  0  0  0  0  0  0  0  0  0  0  0
   -6.4530   -1.8033    0.1263 H   0  0  0  0  0  0  0  0  0  0  0  0
   -4.6464   -3.0367   -0.6634 H   0  0  0  0  0  0  0  0  0  0  0  0
   -3.0770   -2.4271   -0.1612 H   0  0  0  0  0  0  0  0  0  0  0  0
   -3.6422   -2.2136   -1.8468 H   0  0  0  0  0  0  0  0  0  0  0  0
   -6.2304    2.4574    0.5592 H   0  0  0  0  0  0  0  0  0  0  0  0
   -7.5054    0.3378    0.7480 H   0  0  0  0  0  0  0  0  0  0  0  0
    7.6340   -0.4924   -0.2754 H   0  0  0  0  0  0  0  0  0  0  0  0
    6.8898    1.7394   -1.0564 H   0  0  0  0  0  0  0  0  0  0  0  0
  1  7  1  0  0  0  0
  1  8  1  0  0  0  0
  1 10  1  0  0  0  0
  2  9  1  0  0  0  0
  2 12  1  0  0  0  0
  2 32  1  0  0  0  0
  3  9  2  0  0  0  0
  3 13  1  0  0  0  0
  4 13  1  0  0  0  0
  4 22  2  0  0  0  0
  5  6  1  0  0  0  0
  5  7  1  0  0  0  0
  5  9  1  0  0  0  0
  5 23  1  0  0  0  0
  6  8  1  0  0  0  0
  6 24  1  0  0  0  0
  6 25  1  0  0  0  0
  7 26  1  0  0  0  0
  7 27  1  0  0  0  0
  8 28  1  0  0  0  0
  8 29  1  0  0  0  0
 10 11  1  0  0  0  0
 10 30  1  0  0  0  0
 10 31  1  0  0  0  0
 11 14  1  0  0  0  0
 11 15  2  0  0  0  0
 12 13  2  0  0  0  0
 12 16  1  0  0  0  0
 14 17  2  0  0  0  0
 14 18  1  0  0  0  0
 15 19  1  0  0  0  0
 15 33  1  0  0  0  0
 16 21  2  0  0  0  0
 16 34  1  0  0  0  0
 17 20  1  0  0  0  0
 17 35  1  0  0  0  0
 18 36  1  0  0  0  0
 18 37  1  0  0  0  0
 18 38  1  0  0  0  0
 19 20  2  0  0  0  0
 19 39  1  0  0  0  0
 20 40  1  0  0  0  0
 21 22  1  0  0  0  0
 21 41  1  0  0  0  0
 22 42  1  0  0  0  0
M  END
> <PUBCHEM_COMPOUND_CID>
45784082

> <PUBCHEM_CONFORMER_RMSD>
0.6

> <PUBCHEM_CONFORMER_DIVERSEORDER>
1
98
132
121
74
113
138
124
104
52
33
111
97
130
86
9
137
102
60
129
120
37
103
116
57
108
48
128
96
38
85
93
141
107
119
122
91
39
106
72
105
126
131
114
135
117
92
95
19
32
41
83
45
4
123
68
49
80
90
71
21
75
6
5
133
47
31
46
56
70
82
118
12
110
139
58
77
65
30
35
101
140
69
64
36
28
2
42
59
115
15
88
16
7
78
134
40
76
18
81
29
23
8
73
109
62
43
24
63
99
50
55
100
17
136
94
84
79
3
25
20
26
34
66
112
53
44
14
11
27
67
125
22
54
10
87
13
61
89
51
127

> <PUBCHEM_MMFF94_PARTIAL_CHARGES>
29
1 -0.81
10 0.41
11 -0.14
12 -0.15
13 0.48
14 -0.14
15 -0.15
16 -0.15
17 -0.15
18 0.14
19 -0.15
2 0.03
20 -0.15
21 -0.15
22 0.16
3 -0.57
32 0.27
33 0.15
34 0.15
35 0.15
39 0.15
4 -0.57
40 0.15
41 0.15
42 0.15
5 0.18
7 0.27
8 0.27
9 0.01

> <PUBCHEM_EFFECTIVE_ROTOR_COUNT>
4

> <PUBCHEM_PHARMACOPHORE_FEATURES>
8
1 1 cation
1 2 donor
1 4 acceptor
3 2 3 9 cation
5 1 5 6 7 8 rings
5 2 3 9 12 13 rings
6 11 14 15 17 19 20 rings
6 4 12 13 16 21 22 rings

> <PUBCHEM_HEAVY_ATOM_COUNT>
22

> <PUBCHEM_ATOM_DEF_STEREO_COUNT>
1

> <PUBCHEM_ATOM_UDEF_STEREO_COUNT>
0

> <PUBCHEM_BOND_DEF_STEREO_COUNT>
0

> <PUBCHEM_BOND_UDEF_STEREO_COUNT>
0

> <PUBCHEM_ISOTOPIC_ATOM_COUNT>
0

> <PUBCHEM_COMPONENT_COUNT>
1

> <PUBCHEM_CACTVS_TAUTO_COUNT>
3

> <PUBCHEM_CONFORMER_ID>
02BA9C1200000001

> <PUBCHEM_MMFF94_ENERGY>
49.1984

> <PUBCHEM_FEATURE_SELFOVERLAP>
40.726

> <PUBCHEM_SHAPE_FINGERPRINT>
10 15 12829493684015827620
10299344 5 18411700993772052195
10595046 47 18335137587623343065
106641 1 12468649347688502412
11315181 36 17704072906848266433
11524674 6 16559030510971758047
11646440 116 16081093666611622428
12107183 9 17615401459447970113
12166972 35 18113902663088128588
12236239 1 18411699876758477052
12516196 113 11455888061688193682
12730499 353 17313106324328572394
12788726 201 17488745567065676379
12916748 109 16081367436717456636
13167372 99 18334858264758050748
13533116 47 16443335430825813000
1420 363 16588026801121781627
14251752 14 18202001006013211464
14294032 229 17344088285181993384
14849402 71 18041851734539088836
14856354 85 18272937150469017423
14933364 13 18409168805012237876
15048467 5 18409730643086081117
15183329 4 18410008827584846260
15250474 111 18337090329129069371
15537594 2 16702018668936475254
17093844 174 16773507833106935051
17834072 33 18408602574120345382
17844677 252 18272934950944900641
19489759 90 8862943883855381151
200 152 18411980265140194962
21150785 3 18411426116344857726
220451 1 18410854356395803106
221357 26 18186236221712279012
22224240 67 16008752407669922041
23035841 295 18343301466071233691
23081809 10 18411130342340908551
23198884 109 18260268547043785337
23402539 116 18412541011474674085
23522609 53 18266765565236966793
23536379 177 18409448072417748472
23559900 14 17917701439696893441
23569943 247 16879899747838663746
29717793 49 18202570558196393766
3004659 81 18341613698959440174
314173 85 15267344024040733179
4073 2 17967820495896630650
4325135 7 18333450950040475909
4463277 17 17918272060472409120
5265222 85 18201158878885698087
542803 24 18408319982077617334
59682541 35 14996577213133847305
59755656 215 16271653304192413516
59755656 520 17095242531463975867
7495541 125 18201997776124010449
9996256 80 18187081749947384588
999808 66 18114754828029278731

> <PUBCHEM_SHAPE_MULTIPOLES>
432.83
18.33
1.53
1
5.06
0.22
-0.18
-1.33
2.24
-1.07
0.18
-0.01
-0.07
-1.07

> <PUBCHEM_SHAPE_SELFOVERLAP>
949.279

> <PUBCHEM_SHAPE_VOLUME>
233.8

> <PUBCHEM_COORDINATE_TYPE>
2
5
10

$$$$
