26761985
  -OEChem-12032416283D

 53 57  0     1  0  0  0  0  0999 V2000
    6.1047   -0.8840   -1.9512 Cl  0  0  0  0  0  0  0  0  0  0  0  0
    7.1911    1.7954   -1.2974 F   0  0  0  0  0  0  0  0  0  0  0  0
   -3.0433    0.4165    2.2278 O   0  0  0  0  0  0  0  0  0  0  0  0
    0.3783    1.0320    2.0441 O   0  0  0  0  0  0  0  0  0  0  0  0
   -1.8339   -0.8158    0.6626 N   0  0  0  0  0  0  0  0  0  0  0  0
   -3.8010    0.3546    0.0603 N   0  0  0  0  0  0  0  0  0  0  0  0
   -0.7467   -3.4458   -1.7670 N   0  0  0  0  0  0  0  0  0  0  0  0
    0.1579   -4.4259    0.0250 N   0  0  0  0  0  0  0  0  0  0  0  0
    1.5435   -0.3813    0.7550 N   0  0  0  0  0  0  0  0  0  0  0  0
    1.5642    1.6979    1.7093 N   0  0  0  0  0  0  0  0  0  0  0  0
   -4.9459    1.2048    0.3003 C   0  0  0  0  0  0  0  0  0  0  0  0
   -4.5781    2.6832    0.1357 C   0  0  0  0  0  0  0  0  0  0  0  0
   -6.1184    0.8195   -0.6079 C   0  0  0  0  0  0  0  0  0  0  0  0
   -4.3421    3.0681   -1.3249 C   0  0  0  0  0  0  0  0  0  0  0  0
   -5.8799    1.2074   -2.0673 C   0  0  0  0  0  0  0  0  0  0  0  0
   -5.5268    2.6850   -2.2066 C   0  0  0  0  0  0  0  0  0  0  0  0
   -0.7444   -1.1175    1.6550 C   0  0  1  0  0  0  0  0  0  0  0  0
   -0.4261   -2.6413    1.7237 C   0  0  0  0  0  0  0  0  0  0  0  0
   -1.6670   -1.3058   -0.7365 C   0  0  0  0  0  0  0  0  0  0  0  0
   -2.9063    0.0114    1.0694 C   0  0  0  0  0  0  0  0  0  0  0  0
   -0.9733   -2.6078   -0.7160 C   0  0  0  0  0  0  0  0  0  0  0  0
   -0.4073   -3.2303    0.3684 C   0  0  0  0  0  0  0  0  0  0  0  0
    0.4470   -0.1843    1.4424 C   0  0  0  0  0  0  0  0  0  0  0  0
   -0.0629   -4.5271   -1.2704 C   0  0  0  0  0  0  0  0  0  0  0  0
    2.1978    0.8005    0.9482 C   0  0  0  0  0  0  0  0  0  0  0  0
    3.4850    1.0525    0.3677 C   0  0  0  0  0  0  0  0  0  0  0  0
    4.0995    0.0773   -0.4177 C   0  0  0  0  0  0  0  0  0  0  0  0
    4.1220    2.2737    0.5884 C   0  0  0  0  0  0  0  0  0  0  0  0
    5.3510    0.3232   -0.9823 C   0  0  0  0  0  0  0  0  0  0  0  0
    5.3735    2.5197    0.0238 C   0  0  0  0  0  0  0  0  0  0  0  0
    5.9880    1.5443   -0.7617 C   0  0  0  0  0  0  0  0  0  0  0  0
   -5.2605    1.0472    1.3395 H   0  0  0  0  0  0  0  0  0  0  0  0
   -3.6848    2.9265    0.7232 H   0  0  0  0  0  0  0  0  0  0  0  0
   -5.3951    3.2989    0.5332 H   0  0  0  0  0  0  0  0  0  0  0  0
   -7.0256    1.3251   -0.2530 H   0  0  0  0  0  0  0  0  0  0  0  0
   -6.3100   -0.2585   -0.5454 H   0  0  0  0  0  0  0  0  0  0  0  0
   -3.4349    2.5759   -1.6957 H   0  0  0  0  0  0  0  0  0  0  0  0
   -4.1669    4.1476   -1.3951 H   0  0  0  0  0  0  0  0  0  0  0  0
   -6.7808    0.9910   -2.6529 H   0  0  0  0  0  0  0  0  0  0  0  0
   -5.0761    0.5954   -2.4931 H   0  0  0  0  0  0  0  0  0  0  0  0
   -6.3966    3.2945   -1.9322 H   0  0  0  0  0  0  0  0  0  0  0  0
   -5.2963    2.9121   -3.2535 H   0  0  0  0  0  0  0  0  0  0  0  0
   -1.1203   -0.8602    2.6547 H   0  0  0  0  0  0  0  0  0  0  0  0
   -3.5635    0.1770   -0.9066 H   0  0  0  0  0  0  0  0  0  0  0  0
   -1.2158   -3.1437    2.2963 H   0  0  0  0  0  0  0  0  0  0  0  0
    0.5239   -2.8172    2.2399 H   0  0  0  0  0  0  0  0  0  0  0  0
   -1.0888   -0.5537   -1.2825 H   0  0  0  0  0  0  0  0  0  0  0  0
   -2.6372   -1.4373   -1.2212 H   0  0  0  0  0  0  0  0  0  0  0  0
   -1.0260   -3.3024   -2.7286 H   0  0  0  0  0  0  0  0  0  0  0  0
    0.2419   -5.3478   -1.9040 H   0  0  0  0  0  0  0  0  0  0  0  0
    3.6160   -0.8803   -0.5999 H   0  0  0  0  0  0  0  0  0  0  0  0
    3.6743    3.0574    1.1944 H   0  0  0  0  0  0  0  0  0  0  0  0
    5.8700    3.4702    0.1953 H   0  0  0  0  0  0  0  0  0  0  0  0
  1 29  1  0  0  0  0
  2 31  1  0  0  0  0
  3 20  2  0  0  0  0
  4 10  1  0  0  0  0
  4 23  1  0  0  0  0
  5 17  1  0  0  0  0
  5 19  1  0  0  0  0
  5 20  1  0  0  0  0
  6 11  1  0  0  0  0
  6 20  1  0  0  0  0
  6 44  1  0  0  0  0
  7 21  1  0  0  0  0
  7 24  1  0  0  0  0
  7 49  1  0  0  0  0
  8 22  1  0  0  0  0
  8 24  2  0  0  0  0
  9 23  2  0  0  0  0
  9 25  1  0  0  0  0
 10 25  2  0  0  0  0
 11 12  1  0  0  0  0
 11 13  1  0  0  0  0
 11 32  1  0  0  0  0
 12 14  1  0  0  0  0
 12 33  1  0  0  0  0
 12 34  1  0  0  0  0
 13 15  1  0  0  0  0
 13 35  1  0  0  0  0
 13 36  1  0  0  0  0
 14 16  1  0  0  0  0
 14 37  1  0  0  0  0
 14 38  1  0  0  0  0
 15 16  1  0  0  0  0
 15 39  1  0  0  0  0
 15 40  1  0  0  0  0
 16 41  1  0  0  0  0
 16 42  1  0  0  0  0
 17 18  1  0  0  0  0
 17 23  1  0  0  0  0
 17 43  1  0  0  0  0
 18 22  1  0  0  0  0
 18 45  1  0  0  0  0
 18 46  1  0  0  0  0
 19 21  1  0  0  0  0
 19 47  1  0  0  0  0
 19 48  1  0  0  0  0
 21 22  2  0  0  0  0
 24 50  1  0  0  0  0
 25 26  1  0  0  0  0
 26 27  2  0  0  0  0
 26 28  1  0  0  0  0
 27 29  1  0  0  0  0
 27 51  1  0  0  0  0
 28 30  2  0  0  0  0
 28 52  1  0  0  0  0
 29 31  2  0  0  0  0
 30 31  1  0  0  0  0
 30 53  1  0  0  0  0
M  END
> <PUBCHEM_COMPOUND_CID>
26761985

> <PUBCHEM_CONFORMER_RMSD>
1

> <PUBCHEM_CONFORMER_DIVERSEORDER>
1
69
63
29
76
49
101
95
84
16
72
30
14
70
50
100
62
110
20
105
97
83
64
3
46
94
23
81
87
89
2
47
51
11
17
107
58
26
56
36
31
98
7
82
43
108
85
19
79
40
57
68
18
103
13
52
65
77
44
60
99
22
9
75
73
88
91
24
12
10
86
5
61
93
53
96
48
59
27
25
74
8
66
32
38
104
28
45
67
106
92
109
35
4
21
78
55
33
37
15
80
90
42
34
54
6
39
41
102
71

> <PUBCHEM_MMFF94_PARTIAL_CHARGES>
32
1 -0.18
10 -0.41
11 0.3
17 0.48
18 0.18
19 0.48
2 -0.19
20 0.69
21 -0.33
22 0.05
23 0.3
24 0.04
25 0.46
26 0.05
27 -0.15
28 -0.15
29 0.18
3 -0.57
30 -0.15
31 0.19
4 -0.02
44 0.37
49 0.27
5 -0.66
50 0.15
51 0.15
52 0.15
53 0.15
6 -0.73
7 0.03
8 -0.57
9 -0.57

> <PUBCHEM_EFFECTIVE_ROTOR_COUNT>
7

> <PUBCHEM_PHARMACOPHORE_FEATURES>
10
1 3 acceptor
1 6 donor
1 7 donor
3 7 8 24 cation
3 9 10 25 cation
5 4 9 10 23 25 rings
5 7 8 21 22 24 rings
6 11 12 13 14 15 16 rings
6 26 27 28 29 30 31 rings
6 5 17 18 19 21 22 rings

> <PUBCHEM_HEAVY_ATOM_COUNT>
31

> <PUBCHEM_ATOM_DEF_STEREO_COUNT>
1

> <PUBCHEM_ATOM_UDEF_STEREO_COUNT>
0

> <PUBCHEM_BOND_DEF_STEREO_COUNT>
0

> <PUBCHEM_BOND_UDEF_STEREO_COUNT>
0

> <PUBCHEM_ISOTOPIC_ATOM_COUNT>
0

> <PUBCHEM_COMPONENT_COUNT>
1

> <PUBCHEM_CACTVS_TAUTO_COUNT>
4

> <PUBCHEM_CONFORMER_ID>
01985B0100000001

> <PUBCHEM_MMFF94_ENERGY>
47.2831

> <PUBCHEM_FEATURE_SELFOVERLAP>
50.851

> <PUBCHEM_SHAPE_FINGERPRINT>
10190108 129 18198623436292637751
10305334 12 15071764089772618334
10369192 42 18408895040261693073
105312 117 18334579057296907367
10675989 125 18269841909077571072
107951 10 18187373159236933098
11488393 25 17975975367159245579
11578080 2 18043257843108077611
11991303 11 18340487888793665807
12166972 35 13326568583801487360
12218070 45 13118581691479607401
12422481 6 13190335751434803519
13257819 101 17821723902083766063
13257819 37 18411977001255388679
13911987 19 18342174471264599209
13944108 23 17905039253623863893
14117953 113 18269274557310815702
14675019 173 17614849947832332451
14930077 153 18046628073368801397
15163728 17 18261955150746890621
15183329 4 18059859454315817848
15198563 99 18120366825487501071
15803439 3 18202274814521194663
15961568 22 17822006455298339229
17980427 23 14346087442575646027
19958102 18 18129660931918417886
20511986 3 18409727405208020744
20775438 99 17414966296474497256
21756936 100 17603864563321736624
23559900 14 17773888661381659512
2838139 119 18115013131029523305
392239 28 11097862895008064429
4015057 19 16916508176469184088
4058900 60 18336831879608370867
4173938 306 17988064652911637496
44249763 50 18194675089520219112
44802255 64 18262531393576912654
50009960 94 10230593399513725613
53794403 172 17398380937260189693
550186 7 18114188579197952659
613672 6 8574437556007968113
6376802 90 18055341699029900768

> <PUBCHEM_SHAPE_MULTIPOLES>
590.94
15.32
4.82
2.1
6.84
5.46
0.06
-18.08
10
-1.28
1.81
-0.8
0.02
1.9

> <PUBCHEM_SHAPE_SELFOVERLAP>
1277.782

> <PUBCHEM_SHAPE_VOLUME>
325.9

> <PUBCHEM_COORDINATE_TYPE>
2
5
10

$$$$
