11941367
  -OEChem-12032416213D

 68 73  0     1  0  0  0  0  0999 V2000
    4.4707    3.1140   -1.1121 O   0  0  0  0  0  0  0  0  0  0  0  0
   -1.5221   -0.9570    1.8473 O   0  0  0  0  0  0  0  0  0  0  0  0
   -1.4014    4.3486    1.3858 O   0  0  0  0  0  0  0  0  0  0  0  0
    3.1631   -0.6935    0.0791 N   0  0  2  0  0  0  0  0  0  0  0  0
    0.2991   -1.9228    0.7573 N   0  0  0  0  0  0  0  0  0  0  0  0
   -1.9244    1.9520   -0.0579 N   0  0  0  0  0  0  0  0  0  0  0  0
    2.5588   -2.3006    1.9062 C   0  0  1  0  0  0  0  0  0  0  0  0
    2.2580   -2.9659   -0.4309 C   0  0  2  0  0  0  0  0  0  0  0  0
    2.6852   -3.4737    0.9435 C   0  0  0  0  0  0  0  0  0  0  0  0
    3.4637   -1.1381    1.4456 C   0  0  0  0  0  0  0  0  0  0  0  0
    3.1934   -1.8162   -0.8703 C   0  0  0  0  0  0  0  0  0  0  0  0
    1.0815   -1.8957    2.0014 C   0  0  0  0  0  0  0  0  0  0  0  0
    4.0741    0.3694   -0.3385 C   0  0  0  0  0  0  0  0  0  0  0  0
    0.8153   -2.4961   -0.4072 C   0  0  0  0  0  0  0  0  0  0  0  0
    3.6777    0.8985   -1.7198 C   0  0  0  0  0  0  0  0  0  0  0  0
    4.0869    1.5155    0.6779 C   0  0  0  0  0  0  0  0  0  0  0  0
    0.0443   -2.6119   -1.5000 C   0  0  0  0  0  0  0  0  0  0  0  0
   -1.0218   -1.4383    0.8291 C   0  0  0  0  0  0  0  0  0  0  0  0
    4.5505    2.0888   -2.1023 C   0  0  0  0  0  0  0  0  0  0  0  0
    4.9372    2.6714    0.1625 C   0  0  0  0  0  0  0  0  0  0  0  0
   -1.8510   -1.5503   -0.4221 C   0  0  0  0  0  0  0  0  0  0  0  0
   -1.3061   -2.1251   -1.5048 C   0  0  0  0  0  0  0  0  0  0  0  0
   -3.2306   -1.0354   -0.4725 C   0  0  0  0  0  0  0  0  0  0  0  0
   -3.5038    0.2798   -0.8548 C   0  0  0  0  0  0  0  0  0  0  0  0
   -4.2808   -1.8894   -0.1285 C   0  0  0  0  0  0  0  0  0  0  0  0
   -2.4073    1.2244   -1.2298 C   0  0  0  0  0  0  0  0  0  0  0  0
   -4.8205    0.7387   -0.8929 C   0  0  0  0  0  0  0  0  0  0  0  0
   -3.0086    2.7318    0.5553 C   0  0  0  0  0  0  0  0  0  0  0  0
   -0.8082    2.8377   -0.4172 C   0  0  0  0  0  0  0  0  0  0  0  0
   -5.5975   -1.4305   -0.1665 C   0  0  0  0  0  0  0  0  0  0  0  0
   -5.8673   -0.1165   -0.5487 C   0  0  0  0  0  0  0  0  0  0  0  0
   -2.4784    3.4920    1.7676 C   0  0  0  0  0  0  0  0  0  0  0  0
   -0.3296    3.5944    0.8186 C   0  0  0  0  0  0  0  0  0  0  0  0
    2.8967   -2.6080    2.9040 H   0  0  0  0  0  0  0  0  0  0  0  0
    2.3656   -3.7916   -1.1468 H   0  0  0  0  0  0  0  0  0  0  0  0
    2.0572   -4.3134    1.2661 H   0  0  0  0  0  0  0  0  0  0  0  0
    3.7196   -3.8371    0.9144 H   0  0  0  0  0  0  0  0  0  0  0  0
    3.2981   -0.3352    2.1709 H   0  0  0  0  0  0  0  0  0  0  0  0
    4.5134   -1.4507    1.5284 H   0  0  0  0  0  0  0  0  0  0  0  0
    4.2149   -2.2056   -0.9777 H   0  0  0  0  0  0  0  0  0  0  0  0
    2.8548   -1.5101   -1.8650 H   0  0  0  0  0  0  0  0  0  0  0  0
    0.5730   -2.5902    2.6843 H   0  0  0  0  0  0  0  0  0  0  0  0
    0.9811   -0.9015    2.4548 H   0  0  0  0  0  0  0  0  0  0  0  0
    5.0979   -0.0274   -0.4063 H   0  0  0  0  0  0  0  0  0  0  0  0
    3.7984    0.1513   -2.5094 H   0  0  0  0  0  0  0  0  0  0  0  0
    2.6267    1.2158   -1.7071 H   0  0  0  0  0  0  0  0  0  0  0  0
    3.0629    1.8737    0.8471 H   0  0  0  0  0  0  0  0  0  0  0  0
    4.5117    1.2176    1.6414 H   0  0  0  0  0  0  0  0  0  0  0  0
    0.4224   -3.0472   -2.4190 H   0  0  0  0  0  0  0  0  0  0  0  0
    5.5974    1.7909   -2.2351 H   0  0  0  0  0  0  0  0  0  0  0  0
    4.2054    2.5143   -3.0500 H   0  0  0  0  0  0  0  0  0  0  0  0
    4.8719    3.5184    0.8529 H   0  0  0  0  0  0  0  0  0  0  0  0
    5.9936    2.3879    0.0856 H   0  0  0  0  0  0  0  0  0  0  0  0
   -1.8602   -2.2290   -2.4332 H   0  0  0  0  0  0  0  0  0  0  0  0
   -1.5825    0.6909   -1.7158 H   0  0  0  0  0  0  0  0  0  0  0  0
   -2.7731    1.9207   -1.9986 H   0  0  0  0  0  0  0  0  0  0  0  0
   -4.0888   -2.9165    0.1727 H   0  0  0  0  0  0  0  0  0  0  0  0
   -5.0551    1.7530   -1.2052 H   0  0  0  0  0  0  0  0  0  0  0  0
   -3.8079    2.0992    0.9484 H   0  0  0  0  0  0  0  0  0  0  0  0
   -3.4318    3.4442   -0.1644 H   0  0  0  0  0  0  0  0  0  0  0  0
   -1.1234    3.5558   -1.1853 H   0  0  0  0  0  0  0  0  0  0  0  0
    0.0270    2.2528   -0.8197 H   0  0  0  0  0  0  0  0  0  0  0  0
   -6.4128   -2.0964    0.1008 H   0  0  0  0  0  0  0  0  0  0  0  0
   -6.8929    0.2394   -0.5821 H   0  0  0  0  0  0  0  0  0  0  0  0
   -3.2691    4.1208    2.1897 H   0  0  0  0  0  0  0  0  0  0  0  0
   -2.1402    2.8099    2.5574 H   0  0  0  0  0  0  0  0  0  0  0  0
    0.0808    2.9142    1.5751 H   0  0  0  0  0  0  0  0  0  0  0  0
    0.4625    4.2974    0.5415 H   0  0  0  0  0  0  0  0  0  0  0  0
  1 19  1  0  0  0  0
  1 20  1  0  0  0  0
  2 18  2  0  0  0  0
  3 32  1  0  0  0  0
  3 33  1  0  0  0  0
  4 10  1  0  0  0  0
  4 11  1  0  0  0  0
  4 13  1  0  0  0  0
  5 12  1  0  0  0  0
  5 14  1  0  0  0  0
  5 18  1  0  0  0  0
  6 26  1  0  0  0  0
  6 28  1  0  0  0  0
  6 29  1  0  0  0  0
  7  9  1  0  0  0  0
  7 10  1  0  0  0  0
  7 12  1  0  0  0  0
  7 34  1  0  0  0  0
  8  9  1  0  0  0  0
  8 11  1  0  0  0  0
  8 14  1  0  0  0  0
  8 35  1  0  0  0  0
  9 36  1  0  0  0  0
  9 37  1  0  0  0  0
 10 38  1  0  0  0  0
 10 39  1  0  0  0  0
 11 40  1  0  0  0  0
 11 41  1  0  0  0  0
 12 42  1  0  0  0  0
 12 43  1  0  0  0  0
 13 15  1  0  0  0  0
 13 16  1  0  0  0  0
 13 44  1  0  0  0  0
 14 17  2  0  0  0  0
 15 19  1  0  0  0  0
 15 45  1  0  0  0  0
 15 46  1  0  0  0  0
 16 20  1  0  0  0  0
 16 47  1  0  0  0  0
 16 48  1  0  0  0  0
 17 22  1  0  0  0  0
 17 49  1  0  0  0  0
 18 21  1  0  0  0  0
 19 50  1  0  0  0  0
 19 51  1  0  0  0  0
 20 52  1  0  0  0  0
 20 53  1  0  0  0  0
 21 22  2  0  0  0  0
 21 23  1  0  0  0  0
 22 54  1  0  0  0  0
 23 24  1  0  0  0  0
 23 25  2  0  0  0  0
 24 26  1  0  0  0  0
 24 27  2  0  0  0  0
 25 30  1  0  0  0  0
 25 57  1  0  0  0  0
 26 55  1  0  0  0  0
 26 56  1  0  0  0  0
 27 31  1  0  0  0  0
 27 58  1  0  0  0  0
 28 32  1  0  0  0  0
 28 59  1  0  0  0  0
 28 60  1  0  0  0  0
 29 33  1  0  0  0  0
 29 61  1  0  0  0  0
 29 62  1  0  0  0  0
 30 31  2  0  0  0  0
 30 63  1  0  0  0  0
 31 64  1  0  0  0  0
 32 65  1  0  0  0  0
 32 66  1  0  0  0  0
 33 67  1  0  0  0  0
 33 68  1  0  0  0  0
M  END
> <PUBCHEM_COMPOUND_CID>
11941367

> <PUBCHEM_CONFORMER_RMSD>
1

> <PUBCHEM_CONFORMER_DIVERSEORDER>
1
7
2
5
6
4
3

> <PUBCHEM_MMFF94_PARTIAL_CHARGES>
35
1 -0.56
10 0.27
11 0.27
12 0.3
13 0.27
14 -0.03
17 -0.15
18 0.62
19 0.28
2 -0.57
20 0.28
21 -0.01
22 -0.15
23 0.03
24 -0.14
25 -0.15
26 0.41
27 -0.15
28 0.27
29 0.27
3 -0.56
30 -0.15
31 -0.15
32 0.28
33 0.28
4 -0.81
49 0.15
5 -0.47
54 0.15
57 0.15
58 0.15
6 -0.81
63 0.15
64 0.15
8 0.14

> <PUBCHEM_EFFECTIVE_ROTOR_COUNT>
7.4

> <PUBCHEM_PHARMACOPHORE_FEATURES>
11
1 1 acceptor
1 2 acceptor
1 3 acceptor
1 4 cation
1 6 cation
6 1 13 15 16 19 20 rings
6 23 24 25 27 30 31 rings
6 3 6 28 29 32 33 rings
6 4 7 8 9 10 11 rings
6 5 14 17 18 21 22 rings
6 5 7 8 9 12 14 rings

> <PUBCHEM_HEAVY_ATOM_COUNT>
33

> <PUBCHEM_ATOM_DEF_STEREO_COUNT>
2

> <PUBCHEM_ATOM_UDEF_STEREO_COUNT>
0

> <PUBCHEM_BOND_DEF_STEREO_COUNT>
0

> <PUBCHEM_BOND_UDEF_STEREO_COUNT>
0

> <PUBCHEM_ISOTOPIC_ATOM_COUNT>
0

> <PUBCHEM_COMPONENT_COUNT>
1

> <PUBCHEM_CACTVS_TAUTO_COUNT>
1

> <PUBCHEM_CONFORMER_ID>
00B635F700000001

> <PUBCHEM_MMFF94_ENERGY>
87.6484

> <PUBCHEM_FEATURE_SELFOVERLAP>
57.377

> <PUBCHEM_SHAPE_FINGERPRINT>
10006869 2 18342450422617429047
10670039 82 18341905047849583180
10906281 52 18270684161334272541
11135609 187 18262238936248253981
12107698 1 18336543820515691610
12156800 1 16055506923395917065
12788726 201 18272655644810805073
13560911 43 17749941168614832928
13583140 156 17100038403979432993
13617811 41 18336252548903572245
13761468 95 16891506515062878972
14251764 38 18337111150870946588
14363568 33 18196372752710604489
14705955 166 14202213012990947132
14787075 74 18187362186001452223
14840074 17 18271539666789560817
14849402 71 17967245395918513466
15001296 14 18337673005903762601
150020 26 16698928878264612454
15484559 13 14887289364620451159
17349148 13 12324241625122054983
19315092 285 16806422770220160627
19319366 153 18188760773133965546
20715895 44 17684349678132969581
20764821 26 18053358166826015136
21133410 221 16978133793505018496
21623110 236 18337111177268816125
23558518 356 18193842531040562697
23559900 14 18195241122869885959
3298306 158 18263637536391639605
3493558 16 18187086160884234823
469060 322 17533521137929011105
474 4 17967249814859592950
5265222 85 17829050162445038685
56638632 10 17836104616342451305
57527585 21 17915158158171177445
5895379 119 18053940663333531362
6287921 2 17911241611478737173
7288768 16 17387127787883478802

> <PUBCHEM_SHAPE_MULTIPOLES>
646.57
10.8
5.3
1.81
2.85
3.67
-0.23
3.03
2.76
-1.82
-1.35
-1.12
0.08
-2.5

> <PUBCHEM_SHAPE_SELFOVERLAP>
1403.693

> <PUBCHEM_SHAPE_VOLUME>
345.3

> <PUBCHEM_COORDINATE_TYPE>
2
5
10

$$$$
