51137880
  -OEChem-12032416343D

 46 49  0     1  0  0  0  0  0999 V2000
   -7.6928    1.2572    0.4598 O   0  0  0  0  0  0  0  0  0  0  0  0
   -7.8471   -1.0071    0.5868 O   0  0  0  0  0  0  0  0  0  0  0  0
   -0.7627   -0.2360   -0.1340 N   0  0  1  0  0  0  0  0  0  0  0  0
    3.8065   -1.1406    0.2540 N   0  0  0  0  0  0  0  0  0  0  0  0
    3.3636    1.0363    0.3242 N   0  0  0  0  0  0  0  0  0  0  0  0
    1.4099   -0.5046    0.7071 C   0  0  1  0  0  0  0  0  0  0  0  0
    0.6571    0.5396    1.5498 C   0  0  0  0  0  0  0  0  0  0  0  0
    0.5726   -0.6491   -0.5709 C   0  0  0  0  0  0  0  0  0  0  0  0
   -0.5383    0.9462    0.6979 C   0  0  0  0  0  0  0  0  0  0  0  0
    2.8575   -0.1720    0.4286 C   0  0  0  0  0  0  0  0  0  0  0  0
   -1.6539    0.0344   -1.2524 C   0  0  0  0  0  0  0  0  0  0  0  0
    5.0046   -0.5157    0.0213 C   0  0  0  0  0  0  0  0  0  0  0  0
   -3.0996    0.0264   -0.8319 C   0  0  0  0  0  0  0  0  0  0  0  0
    4.7019    0.8423    0.0701 C   0  0  0  0  0  0  0  0  0  0  0  0
    3.5899   -2.5690    0.3050 C   0  0  0  0  0  0  0  0  0  0  0  0
    6.2881   -1.0068   -0.2202 C   0  0  0  0  0  0  0  0  0  0  0  0
   -3.7509   -1.1849   -0.5988 C   0  0  0  0  0  0  0  0  0  0  0  0
   -3.7876    1.2297   -0.6756 C   0  0  0  0  0  0  0  0  0  0  0  0
    5.7284    1.7804   -0.1317 C   0  0  0  0  0  0  0  0  0  0  0  0
    7.2976   -0.0591   -0.4190 C   0  0  0  0  0  0  0  0  0  0  0  0
    7.0249    1.3102   -0.3760 C   0  0  0  0  0  0  0  0  0  0  0  0
   -5.0902   -1.1927   -0.2094 C   0  0  0  0  0  0  0  0  0  0  0  0
   -5.1269    1.2217   -0.2861 C   0  0  0  0  0  0  0  0  0  0  0  0
   -5.7782    0.0104   -0.0528 C   0  0  0  0  0  0  0  0  0  0  0  0
   -7.1744    0.0028    0.3542 C   0  0  0  0  0  0  0  0  0  0  0  0
    1.3632   -1.4472    1.2697 H   0  0  0  0  0  0  0  0  0  0  0  0
    0.3099    0.0716    2.4799 H   0  0  0  0  0  0  0  0  0  0  0  0
    1.2608    1.4093    1.8282 H   0  0  0  0  0  0  0  0  0  0  0  0
    0.5762   -1.6810   -0.9379 H   0  0  0  0  0  0  0  0  0  0  0  0
    0.9542    0.0022   -1.3689 H   0  0  0  0  0  0  0  0  0  0  0  0
   -0.2788    1.8275    0.0971 H   0  0  0  0  0  0  0  0  0  0  0  0
   -1.4015    1.1908    1.3247 H   0  0  0  0  0  0  0  0  0  0  0  0
   -1.3994    0.9709   -1.7671 H   0  0  0  0  0  0  0  0  0  0  0  0
   -1.5426   -0.7498   -2.0147 H   0  0  0  0  0  0  0  0  0  0  0  0
    4.4694   -3.1004   -0.0629 H   0  0  0  0  0  0  0  0  0  0  0  0
    2.7367   -2.8203   -0.3295 H   0  0  0  0  0  0  0  0  0  0  0  0
    3.3966   -2.8486    1.3436 H   0  0  0  0  0  0  0  0  0  0  0  0
    6.5091   -2.0672   -0.2533 H   0  0  0  0  0  0  0  0  0  0  0  0
   -3.2256   -2.1290   -0.7173 H   0  0  0  0  0  0  0  0  0  0  0  0
   -3.2908    2.1800   -0.8527 H   0  0  0  0  0  0  0  0  0  0  0  0
    5.5267    2.8464   -0.1001 H   0  0  0  0  0  0  0  0  0  0  0  0
    8.3137   -0.3955   -0.6102 H   0  0  0  0  0  0  0  0  0  0  0  0
    7.8304    2.0227   -0.5342 H   0  0  0  0  0  0  0  0  0  0  0  0
   -5.5796   -2.1469   -0.0324 H   0  0  0  0  0  0  0  0  0  0  0  0
   -5.6241    2.1813   -0.1758 H   0  0  0  0  0  0  0  0  0  0  0  0
   -8.6344    1.2409    0.7348 H   0  0  0  0  0  0  0  0  0  0  0  0
  1 25  1  0  0  0  0
  1 46  1  0  0  0  0
  2 25  2  0  0  0  0
  3  8  1  0  0  0  0
  3  9  1  0  0  0  0
  3 11  1  0  0  0  0
  4 10  1  0  0  0  0
  4 12  1  0  0  0  0
  4 15  1  0  0  0  0
  5 10  2  0  0  0  0
  5 14  1  0  0  0  0
  6  7  1  0  0  0  0
  6  8  1  0  0  0  0
  6 10  1  0  0  0  0
  6 26  1  0  0  0  0
  7  9  1  0  0  0  0
  7 27  1  0  0  0  0
  7 28  1  0  0  0  0
  8 29  1  0  0  0  0
  8 30  1  0  0  0  0
  9 31  1  0  0  0  0
  9 32  1  0  0  0  0
 11 13  1  0  0  0  0
 11 33  1  0  0  0  0
 11 34  1  0  0  0  0
 12 14  1  0  0  0  0
 12 16  2  0  0  0  0
 13 17  2  0  0  0  0
 13 18  1  0  0  0  0
 14 19  2  0  0  0  0
 15 35  1  0  0  0  0
 15 36  1  0  0  0  0
 15 37  1  0  0  0  0
 16 20  1  0  0  0  0
 16 38  1  0  0  0  0
 17 22  1  0  0  0  0
 17 39  1  0  0  0  0
 18 23  2  0  0  0  0
 18 40  1  0  0  0  0
 19 21  1  0  0  0  0
 19 41  1  0  0  0  0
 20 21  2  0  0  0  0
 20 42  1  0  0  0  0
 21 43  1  0  0  0  0
 22 24  2  0  0  0  0
 22 44  1  0  0  0  0
 23 24  1  0  0  0  0
 23 45  1  0  0  0  0
 24 25  1  0  0  0  0
M  END
> <PUBCHEM_COMPOUND_CID>
51137880

> <PUBCHEM_CONFORMER_RMSD>
0.8

> <PUBCHEM_CONFORMER_DIVERSEORDER>
1
36
34
19
29
25
17
3
39
42
27
35
5
10
22
31
21
46
23
44
6
24
28
41
9
2
8
40
14
26
37
30
15
45
12
16
20
43
32
11
4
38
33
7
13
18

> <PUBCHEM_MMFF94_PARTIAL_CHARGES>
33
1 -0.65
10 0.01
11 0.41
12 -0.15
13 -0.14
14 0.23
15 0.26
16 -0.15
17 -0.15
18 -0.15
19 -0.15
2 -0.57
20 -0.15
21 -0.15
22 -0.15
23 -0.15
24 0.09
25 0.63
3 -0.81
38 0.15
39 0.15
4 0.05
40 0.15
41 0.15
42 0.15
43 0.15
44 0.15
45 0.15
46 0.5
5 -0.57
6 0.18
8 0.27
9 0.27

> <PUBCHEM_EFFECTIVE_ROTOR_COUNT>
5

> <PUBCHEM_PHARMACOPHORE_FEATURES>
9
1 1 acceptor
1 2 acceptor
1 3 cation
3 1 2 25 anion
3 4 5 10 cation
5 3 6 7 8 9 rings
5 4 5 10 12 14 rings
6 12 14 16 19 20 21 rings
6 13 17 18 22 23 24 rings

> <PUBCHEM_HEAVY_ATOM_COUNT>
25

> <PUBCHEM_ATOM_DEF_STEREO_COUNT>
1

> <PUBCHEM_ATOM_UDEF_STEREO_COUNT>
0

> <PUBCHEM_BOND_DEF_STEREO_COUNT>
0

> <PUBCHEM_BOND_UDEF_STEREO_COUNT>
0

> <PUBCHEM_ISOTOPIC_ATOM_COUNT>
0

> <PUBCHEM_COMPONENT_COUNT>
1

> <PUBCHEM_CACTVS_TAUTO_COUNT>
1

> <PUBCHEM_CONFORMER_ID>
030C4D5800000001

> <PUBCHEM_MMFF94_ENERGY>
60.1877

> <PUBCHEM_FEATURE_SELFOVERLAP>
45.836

> <PUBCHEM_SHAPE_FINGERPRINT>
10 15 18342460340261411087
10066227 112 18412820275060614205
10299344 5 18343301474687574527
10411042 1 17976537214525500890
10595046 47 18409164390012561384
11089746 13 11239998962148421423
11315181 36 18334295371482930737
11524674 6 16272206418808137287
11646440 116 16443067196906487932
11796584 16 13973676261398963836
12166972 35 18187366536961793372
12236239 1 18272368672644668556
12516196 113 16950281806298477669
12730499 353 18114179718764693250
12788726 201 17489590013449539186
13533116 47 18341327800098193834
14123256 10 16008748009159063321
14251752 14 17989487411782345744
14251764 18 18131630097731218983
14341114 176 18409729552090424605
14849402 71 17895483642695233764
14856354 85 17775006821414101325
14933364 13 18409729556058467661
15183329 4 16917069957932744833
15461852 350 10953747690131907665
15537594 2 17489299785340236590
17844677 252 18336549330520674813
18335252 98 18261115179666534067
19489759 90 10447930585682811183
20157964 124 18334013896258072876
21095086 128 18187364333084017723
21150785 3 17385445427270211186
21267235 1 18272654515840483054
21521721 280 18260550043173657250
21792961 116 17988078889826000420
220451 1 17989480827502750215
22224240 67 16298385777205405881
23035841 295 18413386536211904267
23424782 7 18113623408218762379
23516275 137 18057626316114928599
23522609 53 17916324855819585201
23536379 177 18410290302925586220
23559900 14 18339635754106742832
23569943 247 16735783434407419354
2747138 104 16877951537640595509
29717793 49 17632300065058209468
3004659 81 18343299254727390186
34797466 226 18341618118290702372
3545911 37 18334293171636554148
4073 2 18114466750748895538
4098825 35 18336546023363909553
4325135 7 18259985985092260597
4340502 62 17822006506600426594
5283156 175 17703792497224034862
5385378 56 15554180190095966655
5758199 1 17603304855804704153
59682541 35 15936414471951883037
59755656 215 13901915496318483941

> <PUBCHEM_SHAPE_MULTIPOLES>
487.81
22.96
1.65
0.95
12.12
0.36
0.06
-2.48
-0.34
-1.24
0.04
0.26
-0.06
-0.21

> <PUBCHEM_SHAPE_SELFOVERLAP>
1069.413

> <PUBCHEM_SHAPE_VOLUME>
265.6

> <PUBCHEM_COORDINATE_TYPE>
2
5
10

$$$$
