38030637
  -OEChem-12032416373D

 73 76  0     1  0  0  0  0  0999 V2000
    3.1618   -0.9672   -0.4784 O   0  0  0  0  0  0  0  0  0  0  0  0
   -7.0001    4.9526   -0.2591 O   0  0  0  0  0  0  0  0  0  0  0  0
   -2.4703    0.3221    0.4544 N   0  0  0  0  0  0  0  0  0  0  0  0
   -4.1833    2.6466    0.3129 N   0  0  0  0  0  0  0  0  0  0  0  0
    2.3814   -1.7002    1.4858 N   0  0  0  0  0  0  0  0  0  0  0  0
    2.9455   -0.4544    1.6882 N   0  0  0  0  0  0  0  0  0  0  0  0
   -1.6224   -2.1527   -0.8678 C   0  0  1  0  0  0  0  0  0  0  0  0
   -1.8442   -2.0511    0.6594 C   0  0  2  0  0  0  0  0  0  0  0  0
   -0.1232   -2.2261   -1.1898 C   0  0  0  0  0  0  0  0  0  0  0  0
    0.5966   -3.3973   -0.4874 C   0  0  2  0  0  0  0  0  0  0  0  0
   -2.3774   -3.3483   -1.4644 C   0  0  0  0  0  0  0  0  0  0  0  0
   -1.6174   -0.6246    1.1706 C   0  0  0  0  0  0  0  0  0  0  0  0
   -0.9685   -3.0010    1.4361 C   0  0  0  0  0  0  0  0  0  0  0  0
    0.1177   -3.6210    0.9391 C   0  0  0  0  0  0  0  0  0  0  0  0
    2.1103   -3.1673   -0.5790 C   0  0  0  0  0  0  0  0  0  0  0  0
   -3.8396    0.2932    0.9828 C   0  0  0  0  0  0  0  0  0  0  0  0
   -1.9197    1.6807    0.5306 C   0  0  0  0  0  0  0  0  0  0  0  0
   -3.8707   -3.0480   -1.5452 C   0  0  0  0  0  0  0  0  0  0  0  0
   -1.8202   -3.6959   -2.8410 C   0  0  0  0  0  0  0  0  0  0  0  0
   -4.7343    1.2882    0.2358 C   0  0  0  0  0  0  0  0  0  0  0  0
   -2.8147    2.6748   -0.2174 C   0  0  0  0  0  0  0  0  0  0  0  0
    0.8709   -4.6178    1.7766 C   0  0  0  0  0  0  0  0  0  0  0  0
    2.5302   -1.9587    0.2076 C   0  0  0  0  0  0  0  0  0  0  0  0
   -5.0365    3.5943   -0.4014 C   0  0  0  0  0  0  0  0  0  0  0  0
   -6.2091    4.0211    0.4671 C   0  0  0  0  0  0  0  0  0  0  0  0
    3.3879   -0.0653    0.5155 C   0  0  0  0  0  0  0  0  0  0  0  0
    4.0596    1.1409    0.1272 C   0  0  0  0  0  0  0  0  0  0  0  0
    4.3338    2.1237    1.0784 C   0  0  0  0  0  0  0  0  0  0  0  0
    4.4398    1.3310   -1.2014 C   0  0  0  0  0  0  0  0  0  0  0  0
    4.9877    3.2965    0.7012 C   0  0  0  0  0  0  0  0  0  0  0  0
    5.0938    2.5038   -1.5788 C   0  0  0  0  0  0  0  0  0  0  0  0
    5.3678    3.4865   -0.6275 C   0  0  0  0  0  0  0  0  0  0  0  0
    6.0666    4.7409   -1.0308 C   0  0  0  0  0  0  0  0  0  0  0  0
   -2.0029   -1.2562   -1.3733 H   0  0  0  0  0  0  0  0  0  0  0  0
   -2.8718   -2.3409    0.8999 H   0  0  0  0  0  0  0  0  0  0  0  0
    0.3095   -1.2704   -0.8671 H   0  0  0  0  0  0  0  0  0  0  0  0
    0.0828   -2.2401   -2.2658 H   0  0  0  0  0  0  0  0  0  0  0  0
    0.3819   -4.3244   -1.0324 H   0  0  0  0  0  0  0  0  0  0  0  0
   -2.2544   -4.2362   -0.8318 H   0  0  0  0  0  0  0  0  0  0  0  0
   -1.7805   -0.5643    2.2557 H   0  0  0  0  0  0  0  0  0  0  0  0
   -0.5611   -0.3641    1.0192 H   0  0  0  0  0  0  0  0  0  0  0  0
   -1.2707   -3.1946    2.4631 H   0  0  0  0  0  0  0  0  0  0  0  0
    2.6652   -4.0374   -0.2098 H   0  0  0  0  0  0  0  0  0  0  0  0
    2.4030   -3.0424   -1.6291 H   0  0  0  0  0  0  0  0  0  0  0  0
   -4.2844   -0.7001    0.8627 H   0  0  0  0  0  0  0  0  0  0  0  0
   -3.8517    0.5272    2.0562 H   0  0  0  0  0  0  0  0  0  0  0  0
   -1.8050    1.9979    1.5760 H   0  0  0  0  0  0  0  0  0  0  0  0
   -0.9246    1.7057    0.0697 H   0  0  0  0  0  0  0  0  0  0  0  0
   -4.0671   -2.1569   -2.1516 H   0  0  0  0  0  0  0  0  0  0  0  0
   -4.3183   -2.8920   -0.5603 H   0  0  0  0  0  0  0  0  0  0  0  0
   -4.4062   -3.8851   -2.0070 H   0  0  0  0  0  0  0  0  0  0  0  0
   -0.8301   -4.1556   -2.8119 H   0  0  0  0  0  0  0  0  0  0  0  0
   -2.4680   -4.4347   -3.3288 H   0  0  0  0  0  0  0  0  0  0  0  0
   -1.7911   -2.8206   -3.4996 H   0  0  0  0  0  0  0  0  0  0  0  0
   -5.7293    1.2485    0.6926 H   0  0  0  0  0  0  0  0  0  0  0  0
   -4.8430    0.9669   -0.8093 H   0  0  0  0  0  0  0  0  0  0  0  0
   -2.3869    3.6772   -0.0932 H   0  0  0  0  0  0  0  0  0  0  0  0
   -2.8071    2.4455   -1.2917 H   0  0  0  0  0  0  0  0  0  0  0  0
    1.8714   -4.2605    2.0326 H   0  0  0  0  0  0  0  0  0  0  0  0
    0.3544   -4.8352    2.7180 H   0  0  0  0  0  0  0  0  0  0  0  0
    0.9674   -5.5656    1.2365 H   0  0  0  0  0  0  0  0  0  0  0  0
   -5.3822    3.2028   -1.3672 H   0  0  0  0  0  0  0  0  0  0  0  0
   -4.4760    4.5072   -0.6463 H   0  0  0  0  0  0  0  0  0  0  0  0
   -6.8516    3.1771    0.7338 H   0  0  0  0  0  0  0  0  0  0  0  0
   -5.8622    4.5051    1.3864 H   0  0  0  0  0  0  0  0  0  0  0  0
   -7.7362    5.2146    0.3198 H   0  0  0  0  0  0  0  0  0  0  0  0
    4.0472    1.9965    2.1196 H   0  0  0  0  0  0  0  0  0  0  0  0
    4.2443    0.5885   -1.9708 H   0  0  0  0  0  0  0  0  0  0  0  0
    5.1973    4.0541    1.4516 H   0  0  0  0  0  0  0  0  0  0  0  0
    5.3867    2.6399   -2.6165 H   0  0  0  0  0  0  0  0  0  0  0  0
    7.1494    4.6160   -0.9317 H   0  0  0  0  0  0  0  0  0  0  0  0
    5.8372    5.0050   -2.0687 H   0  0  0  0  0  0  0  0  0  0  0  0
    5.7522    5.5858   -0.4087 H   0  0  0  0  0  0  0  0  0  0  0  0
  1 23  1  0  0  0  0
  1 26  1  0  0  0  0
  2 25  1  0  0  0  0
  2 66  1  0  0  0  0
  3 12  1  0  0  0  0
  3 16  1  0  0  0  0
  3 17  1  0  0  0  0
  4 20  1  0  0  0  0
  4 21  1  0  0  0  0
  4 24  1  0  0  0  0
  5  6  1  0  0  0  0
  5 23  2  0  0  0  0
  6 26  2  0  0  0  0
  7  8  1  0  0  0  0
  7  9  1  0  0  0  0
  7 11  1  0  0  0  0
  7 34  1  0  0  0  0
  8 12  1  0  0  0  0
  8 13  1  0  0  0  0
  8 35  1  0  0  0  0
  9 10  1  0  0  0  0
  9 36  1  0  0  0  0
  9 37  1  0  0  0  0
 10 14  1  0  0  0  0
 10 15  1  0  0  0  0
 10 38  1  0  0  0  0
 11 18  1  0  0  0  0
 11 19  1  0  0  0  0
 11 39  1  0  0  0  0
 12 40  1  0  0  0  0
 12 41  1  0  0  0  0
 13 14  2  0  0  0  0
 13 42  1  0  0  0  0
 14 22  1  0  0  0  0
 15 23  1  0  0  0  0
 15 43  1  0  0  0  0
 15 44  1  0  0  0  0
 16 20  1  0  0  0  0
 16 45  1  0  0  0  0
 16 46  1  0  0  0  0
 17 21  1  0  0  0  0
 17 47  1  0  0  0  0
 17 48  1  0  0  0  0
 18 49  1  0  0  0  0
 18 50  1  0  0  0  0
 18 51  1  0  0  0  0
 19 52  1  0  0  0  0
 19 53  1  0  0  0  0
 19 54  1  0  0  0  0
 20 55  1  0  0  0  0
 20 56  1  0  0  0  0
 21 57  1  0  0  0  0
 21 58  1  0  0  0  0
 22 59  1  0  0  0  0
 22 60  1  0  0  0  0
 22 61  1  0  0  0  0
 24 25  1  0  0  0  0
 24 62  1  0  0  0  0
 24 63  1  0  0  0  0
 25 64  1  0  0  0  0
 25 65  1  0  0  0  0
 26 27  1  0  0  0  0
 27 28  2  0  0  0  0
 27 29  1  0  0  0  0
 28 30  1  0  0  0  0
 28 67  1  0  0  0  0
 29 31  2  0  0  0  0
 29 68  1  0  0  0  0
 30 32  2  0  0  0  0
 30 69  1  0  0  0  0
 31 32  1  0  0  0  0
 31 70  1  0  0  0  0
 32 33  1  0  0  0  0
 33 71  1  0  0  0  0
 33 72  1  0  0  0  0
 33 73  1  0  0  0  0
M  END
> <PUBCHEM_COMPOUND_CID>
38030637

> <PUBCHEM_CONFORMER_RMSD>
1.2

> <PUBCHEM_CONFORMER_DIVERSEORDER>
3
9
83
106
77
13
34
19
121
12
45
7
31
127
100
35
60
4
96
32
69
72
42
44
114
120
41
79
122
75
97
50
102
22
85
84
57
33
16
6
48
92
124
98
107
78
56
54
17
68
87
70
109
111
112
28
103
52
104
5
49
125
118
58
105
65
82
93
43
101
126
90
86
38
21
26
88
89
73
23
59
95
108
46
64
76
14
24
53
113
71
66
20
123
11
129
67
94
74
91
47
116
55
61
63
37
15
2
29
110
62
128
117
40
10
18
8
130
80
119
115
25
30
99
36
81
51
27
39
131
1

> <PUBCHEM_MMFF94_PARTIAL_CHARGES>
34
1 -0.28
10 0.14
12 0.27
13 -0.29
14 -0.28
15 0.18
16 0.27
17 0.27
2 -0.68
20 0.27
21 0.27
22 0.14
23 0.3
24 0.27
25 0.28
26 0.43
27 0.05
28 -0.15
29 -0.15
3 -0.81
30 -0.15
31 -0.15
32 -0.14
33 0.14
4 -0.81
42 0.15
5 -0.34
6 -0.34
66 0.4
67 0.15
68 0.15
69 0.15
70 0.15
8 0.14

> <PUBCHEM_EFFECTIVE_ROTOR_COUNT>
10

> <PUBCHEM_PHARMACOPHORE_FEATURES>
9
1 2 acceptor
1 2 donor
1 3 cation
1 4 cation
3 11 18 19 hydrophobe
5 1 5 6 23 26 rings
6 27 28 29 30 31 32 rings
6 3 4 16 17 20 21 rings
6 7 8 9 10 13 14 rings

> <PUBCHEM_HEAVY_ATOM_COUNT>
33

> <PUBCHEM_ATOM_DEF_STEREO_COUNT>
3

> <PUBCHEM_ATOM_UDEF_STEREO_COUNT>
0

> <PUBCHEM_BOND_DEF_STEREO_COUNT>
0

> <PUBCHEM_BOND_UDEF_STEREO_COUNT>
0

> <PUBCHEM_ISOTOPIC_ATOM_COUNT>
0

> <PUBCHEM_COMPONENT_COUNT>
1

> <PUBCHEM_CACTVS_TAUTO_COUNT>
1

> <PUBCHEM_CONFORMER_ID>
02444D2D00000003

> <PUBCHEM_MMFF94_ENERGY>
65.6115

> <PUBCHEM_FEATURE_SELFOVERLAP>
45.673

> <PUBCHEM_SHAPE_FINGERPRINT>
10670039 82 18123756619809189804
10673678 19 18126284139322524513
10675989 125 18266463096476015976
10864689 126 18340214072314044308
10871710 139 18197498639131560951
10928967 22 10806843071231937932
10937287 8 18408324393225314970
11059845 2 18192688225185863520
11297750 10 16384790099658985779
11374522 174 18261128351889107180
11477941 20 17335623493631415956
11513181 2 18199196247089382318
12788726 201 18195797694527281907
13761468 95 17913524404167074200
14251764 75 18410302388721685521
15198563 99 17838899583432495263
15400415 2 18335706061064248788
15448158 71 18411136926805205848
15575132 122 18197219354435008671
16067690 210 17400955349072760956
16988056 13 17978796705791306150
18681886 176 17549535215756151603
19053607 189 18410847768148684280
21792965 68 17975693111401203948
23576562 1 18198346156290836950
27425 322 18115306649574210107
3388396 114 17187846961399619236
376196 1 18263933154901468851
497634 4 15694934342724293030
508706 21 17980767357177846032
5109719 28 18263095331848352249
5252454 2 18130518512512790914
53794403 172 18266181630162494925
550186 72 18337112384365765897
563151 74 15720767265170331312
57527585 21 18198041776374589695
5776283 40 18191328008837004198
6036956 94 17973727170939939605
6608658 132 17982162632737788350
7288768 16 17822294655724083546
7808743 9 18193562383720533936
9849439 229 18335423473595173080

> <PUBCHEM_SHAPE_MULTIPOLES>
647.46
13.74
8.29
1.76
6.44
3.82
-0.52
27.39
-2.66
-7.23
-0.93
0.05
-1.87
-3.04

> <PUBCHEM_SHAPE_SELFOVERLAP>
1356.124

> <PUBCHEM_SHAPE_VOLUME>
366.1

> <PUBCHEM_COORDINATE_TYPE>
2
5
10

$$$$
