7143842
  -OEChem-12032416213D

 55 58  0     1  0  0  0  0  0999 V2000
   -7.1030    1.5686   -0.2776 S   0  0  0  0  0  0  0  0  0  0  0  0
   -1.1011   -0.3788    1.8456 O   0  0  0  0  0  0  0  0  0  0  0  0
    3.3478    1.3001   -1.8619 O   0  0  0  0  0  0  0  0  0  0  0  0
    3.5166   -0.3191   -0.2061 N   0  0  0  0  0  0  0  0  0  0  0  0
    0.6052   -1.4086    0.6346 N   0  0  0  0  0  0  0  0  0  0  0  0
    3.6182    1.9870    0.3102 N   0  0  0  0  0  0  0  0  0  0  0  0
    2.9037   -1.9063    1.6424 C   0  0  1  0  0  0  0  0  0  0  0  0
    2.4385   -2.5181   -0.6882 C   0  0  2  0  0  0  0  0  0  0  0  0
    2.9445   -3.0567    0.6466 C   0  0  0  0  0  0  0  0  0  0  0  0
    3.7931   -0.7370    1.1772 C   0  0  0  0  0  0  0  0  0  0  0  0
    1.4453   -1.4737    1.8373 C   0  0  0  0  0  0  0  0  0  0  0  0
    3.3862   -1.4107   -1.1791 C   0  0  0  0  0  0  0  0  0  0  0  0
    1.0274   -1.9751   -0.5698 C   0  0  0  0  0  0  0  0  0  0  0  0
    0.1962   -2.0134   -1.6234 C   0  0  0  0  0  0  0  0  0  0  0  0
   -0.6802   -0.8533    0.7891 C   0  0  0  0  0  0  0  0  0  0  0  0
    3.4828    1.0093   -0.6687 C   0  0  0  0  0  0  0  0  0  0  0  0
   -1.5758   -0.8772   -0.4202 C   0  0  0  0  0  0  0  0  0  0  0  0
   -1.1216   -1.4498   -1.5450 C   0  0  0  0  0  0  0  0  0  0  0  0
   -2.9225   -0.2808   -0.3847 C   0  0  0  0  0  0  0  0  0  0  0  0
    3.6095    3.3977   -0.0059 C   0  0  0  0  0  0  0  0  0  0  0  0
   -4.0206   -1.0578   -0.0141 C   0  0  0  0  0  0  0  0  0  0  0  0
   -3.1013    1.0613   -0.7222 C   0  0  0  0  0  0  0  0  0  0  0  0
    5.0187    3.8764   -0.3301 C   0  0  0  0  0  0  0  0  0  0  0  0
    3.0044    4.1987    1.1402 C   0  0  0  0  0  0  0  0  0  0  0  0
   -5.2958   -0.4934    0.0190 C   0  0  0  0  0  0  0  0  0  0  0  0
   -4.3766    1.6256   -0.6890 C   0  0  0  0  0  0  0  0  0  0  0  0
   -5.4738    0.8482   -0.3185 C   0  0  0  0  0  0  0  0  0  0  0  0
   -7.5659    1.3368    1.4622 C   0  0  0  0  0  0  0  0  0  0  0  0
    3.2895   -2.2476    2.6113 H   0  0  0  0  0  0  0  0  0  0  0  0
    2.4582   -3.3388   -1.4172 H   0  0  0  0  0  0  0  0  0  0  0  0
    2.3205   -3.8904    0.9920 H   0  0  0  0  0  0  0  0  0  0  0  0
    3.9668   -3.4405    0.5452 H   0  0  0  0  0  0  0  0  0  0  0  0
    3.6903    0.0755    1.8954 H   0  0  0  0  0  0  0  0  0  0  0  0
    4.8452   -1.0472    1.1962 H   0  0  0  0  0  0  0  0  0  0  0  0
    0.9512   -2.1934    2.5045 H   0  0  0  0  0  0  0  0  0  0  0  0
    1.3971   -0.5052    2.3510 H   0  0  0  0  0  0  0  0  0  0  0  0
    4.3935   -1.8181   -1.3313 H   0  0  0  0  0  0  0  0  0  0  0  0
    3.0523   -1.0259   -2.1492 H   0  0  0  0  0  0  0  0  0  0  0  0
    0.5020   -2.4395   -2.5732 H   0  0  0  0  0  0  0  0  0  0  0  0
   -1.7266   -1.4929   -2.4460 H   0  0  0  0  0  0  0  0  0  0  0  0
    3.8753    1.7482    1.2571 H   0  0  0  0  0  0  0  0  0  0  0  0
    2.9832    3.5491   -0.8934 H   0  0  0  0  0  0  0  0  0  0  0  0
   -3.8979   -2.1053    0.2510 H   0  0  0  0  0  0  0  0  0  0  0  0
   -2.2556    1.6802   -1.0122 H   0  0  0  0  0  0  0  0  0  0  0  0
    5.0209    4.9401   -0.5896 H   0  0  0  0  0  0  0  0  0  0  0  0
    5.6926    3.7314    0.5217 H   0  0  0  0  0  0  0  0  0  0  0  0
    5.4368    3.3221   -1.1774 H   0  0  0  0  0  0  0  0  0  0  0  0
    1.9850    3.8591    1.3544 H   0  0  0  0  0  0  0  0  0  0  0  0
    2.9621    5.2648    0.8940 H   0  0  0  0  0  0  0  0  0  0  0  0
    3.5897    4.0835    2.0594 H   0  0  0  0  0  0  0  0  0  0  0  0
   -6.1369   -1.1204    0.3039 H   0  0  0  0  0  0  0  0  0  0  0  0
   -4.4956    2.6731   -0.9551 H   0  0  0  0  0  0  0  0  0  0  0  0
   -7.6693    0.2745    1.6975 H   0  0  0  0  0  0  0  0  0  0  0  0
   -8.5257    1.8271    1.6453 H   0  0  0  0  0  0  0  0  0  0  0  0
   -6.8142    1.7837    2.1185 H   0  0  0  0  0  0  0  0  0  0  0  0
  1 27  1  0  0  0  0
  1 28  1  0  0  0  0
  2 15  2  0  0  0  0
  3 16  2  0  0  0  0
  4 10  1  0  0  0  0
  4 12  1  0  0  0  0
  4 16  1  0  0  0  0
  5 11  1  0  0  0  0
  5 13  1  0  0  0  0
  5 15  1  0  0  0  0
  6 16  1  0  0  0  0
  6 20  1  0  0  0  0
  6 41  1  0  0  0  0
  7  9  1  0  0  0  0
  7 10  1  0  0  0  0
  7 11  1  0  0  0  0
  7 29  1  0  0  0  0
  8  9  1  0  0  0  0
  8 12  1  0  0  0  0
  8 13  1  0  0  0  0
  8 30  1  0  0  0  0
  9 31  1  0  0  0  0
  9 32  1  0  0  0  0
 10 33  1  0  0  0  0
 10 34  1  0  0  0  0
 11 35  1  0  0  0  0
 11 36  1  0  0  0  0
 12 37  1  0  0  0  0
 12 38  1  0  0  0  0
 13 14  2  0  0  0  0
 14 18  1  0  0  0  0
 14 39  1  0  0  0  0
 15 17  1  0  0  0  0
 17 18  2  0  0  0  0
 17 19  1  0  0  0  0
 18 40  1  0  0  0  0
 19 21  2  0  0  0  0
 19 22  1  0  0  0  0
 20 23  1  0  0  0  0
 20 24  1  0  0  0  0
 20 42  1  0  0  0  0
 21 25  1  0  0  0  0
 21 43  1  0  0  0  0
 22 26  2  0  0  0  0
 22 44  1  0  0  0  0
 23 45  1  0  0  0  0
 23 46  1  0  0  0  0
 23 47  1  0  0  0  0
 24 48  1  0  0  0  0
 24 49  1  0  0  0  0
 24 50  1  0  0  0  0
 25 27  2  0  0  0  0
 25 51  1  0  0  0  0
 26 27  1  0  0  0  0
 26 52  1  0  0  0  0
 28 53  1  0  0  0  0
 28 54  1  0  0  0  0
 28 55  1  0  0  0  0
M  END
> <PUBCHEM_COMPOUND_CID>
7143842

> <PUBCHEM_CONFORMER_RMSD>
0.8

> <PUBCHEM_CONFORMER_DIVERSEORDER>
1
8
6
2
5
3
7
4

> <PUBCHEM_MMFF94_PARTIAL_CHARGES>
31
1 -0.33
10 0.3
11 0.3
12 0.3
13 -0.03
14 -0.15
15 0.62
16 0.69
17 -0.01
18 -0.15
19 0.03
2 -0.57
20 0.3
21 -0.15
22 -0.15
25 -0.15
26 -0.15
27 0.1
28 0.23
3 -0.57
39 0.15
4 -0.66
40 0.15
41 0.37
43 0.15
44 0.15
5 -0.47
51 0.15
52 0.15
6 -0.73
8 0.14

> <PUBCHEM_EFFECTIVE_ROTOR_COUNT>
6

> <PUBCHEM_PHARMACOPHORE_FEATURES>
9
1 2 acceptor
1 28 hydrophobe
1 3 acceptor
1 6 donor
3 20 23 24 hydrophobe
6 19 21 22 25 26 27 rings
6 4 7 8 9 10 12 rings
6 5 13 14 15 17 18 rings
6 5 7 8 9 11 13 rings

> <PUBCHEM_HEAVY_ATOM_COUNT>
28

> <PUBCHEM_ATOM_DEF_STEREO_COUNT>
2

> <PUBCHEM_ATOM_UDEF_STEREO_COUNT>
0

> <PUBCHEM_BOND_DEF_STEREO_COUNT>
0

> <PUBCHEM_BOND_UDEF_STEREO_COUNT>
0

> <PUBCHEM_ISOTOPIC_ATOM_COUNT>
0

> <PUBCHEM_COMPONENT_COUNT>
1

> <PUBCHEM_CACTVS_TAUTO_COUNT>
2

> <PUBCHEM_CONFORMER_ID>
006D01A200000001

> <PUBCHEM_MMFF94_ENERGY>
71.5803

> <PUBCHEM_FEATURE_SELFOVERLAP>
47.221

> <PUBCHEM_SHAPE_FINGERPRINT>
10165383 225 17095817551061605510
10673678 19 18202006547059229789
10675989 125 18271526502135687000
10937287 8 18123745615744086372
11578080 2 17822871869036924627
11720765 8 17774736286020313372
11796584 16 11887373791238921373
12166972 35 18057881355572174314
12633257 1 15792565426177953572
12788726 201 17418385691885189513
13533116 47 17313950693445546715
13583140 156 18261399914270591715
13878862 14 18116128035841038837
13965767 371 18188193408322961886
14251740 57 8574441923646770760
14251764 38 18337953389953453353
14251764 75 18267027334798202416
14468879 13 18191025818515664968
14849402 71 18113614604258374852
14955137 171 18336818681617325994
15142526 21 18188484812810587890
15510800 12 11024108776024758829
17844677 252 18264209102508035115
17980427 23 17983542391535470538
1813 80 14764342726448478963
18335252 114 18342454803331155364
18681886 176 18271519806734891230
21033648 29 17603878848235055672
21285901 2 12751233692623529115
21315764 268 18189329075022521173
21344244 78 18047732829331357826
21475661 188 18188492488012201644
21641784 216 17203335451541057945
22122407 14 18339653252531799633
23522609 53 17775018860550817321
23559900 14 18340771416675417423
29717793 49 12463278173621433667
3298306 158 18195525015707150496
3411729 13 18408603686285149829
34797466 226 18272375261330424207
376196 1 17912924178498380588
397830 11 18260277369534437131
4403749 210 9652424005971413510
474 4 18338230578805555642
5104073 3 18260270750768378795
5895379 119 17914057495133294048
5951187 136 18130799970404928692
59682541 52 9511455599015199249
7288768 16 17752476831538816560

> <PUBCHEM_SHAPE_MULTIPOLES>
553.39
14.45
4.22
1.59
27.55
4.58
-0.26
11.45
-1.54
-8.08
-0.3
-0.58
-0.47
-0.68

> <PUBCHEM_SHAPE_SELFOVERLAP>
1171.564

> <PUBCHEM_SHAPE_VOLUME>
312.6

> <PUBCHEM_COORDINATE_TYPE>
2
5
10

$$$$
