7144202
  -OEChem-12032416403D

 55 59  0     1  0  0  0  0  0999 V2000
    3.2370   -0.8029   -1.3082 S   0  0  0  0  0  0  0  0  0  0  0  0
   -4.4008   -2.3008    1.0802 F   0  0  0  0  0  0  0  0  0  0  0  0
   -6.0623   -3.1503   -0.0571 F   0  0  0  0  0  0  0  0  0  0  0  0
   -6.4214   -1.4172    1.2249 F   0  0  0  0  0  0  0  0  0  0  0  0
    4.6192   -0.3830   -1.4049 O   0  0  0  0  0  0  0  0  0  0  0  0
    2.3844   -0.8331   -2.4779 O   0  0  0  0  0  0  0  0  0  0  0  0
    2.1918    5.0430   -0.1542 O   0  0  0  0  0  0  0  0  0  0  0  0
   -5.2364   -1.1546   -0.7138 O   0  0  0  0  0  0  0  0  0  0  0  0
    2.4626    0.0984   -0.0774 N   0  0  2  0  0  0  0  0  0  0  0  0
    1.3043    2.9721    0.4862 N   0  0  0  0  0  0  0  0  0  0  0  0
    2.5800    1.3894    2.0492 C   0  0  1  0  0  0  0  0  0  0  0  0
    0.3928    0.7260    1.1533 C   0  0  2  0  0  0  0  0  0  0  0  0
    1.1967    0.8962    2.4400 C   0  0  0  0  0  0  0  0  0  0  0  0
    3.2839    0.3757    1.1341 C   0  0  0  0  0  0  0  0  0  0  0  0
    1.0737   -0.3295    0.2601 C   0  0  0  0  0  0  0  0  0  0  0  0
    2.4411    2.7644    1.3938 C   0  0  0  0  0  0  0  0  0  0  0  0
    0.2394    2.0529    0.4045 C   0  0  0  0  0  0  0  0  0  0  0  0
   -0.8592    2.3547   -0.3357 C   0  0  0  0  0  0  0  0  0  0  0  0
    1.2965    4.1987   -0.2016 C   0  0  0  0  0  0  0  0  0  0  0  0
   -0.9008    3.6093   -1.0628 C   0  0  0  0  0  0  0  0  0  0  0  0
    0.1024    4.4859   -1.0281 C   0  0  0  0  0  0  0  0  0  0  0  0
    3.2122   -2.4100   -0.5772 C   0  0  0  0  0  0  0  0  0  0  0  0
   -2.0104    1.4310   -0.4350 C   0  0  0  0  0  0  0  0  0  0  0  0
    2.1316   -3.2442   -0.8114 C   0  0  0  0  0  0  0  0  0  0  0  0
    4.2729   -2.8089    0.2192 C   0  0  0  0  0  0  0  0  0  0  0  0
   -2.0359    0.4639   -1.4349 C   0  0  0  0  0  0  0  0  0  0  0  0
   -3.0603    1.5363    0.4723 C   0  0  0  0  0  0  0  0  0  0  0  0
   -3.1219   -0.4065   -1.5287 C   0  0  0  0  0  0  0  0  0  0  0  0
   -4.1462    0.6658    0.3786 C   0  0  0  0  0  0  0  0  0  0  0  0
    2.1110   -4.5134   -0.2328 C   0  0  0  0  0  0  0  0  0  0  0  0
    4.2524   -4.0780    0.7976 C   0  0  0  0  0  0  0  0  0  0  0  0
   -4.1770   -0.3056   -0.6220 C   0  0  0  0  0  0  0  0  0  0  0  0
    3.1715   -4.9302    0.5717 C   0  0  0  0  0  0  0  0  0  0  0  0
   -5.5248   -1.9956    0.3977 C   0  0  0  0  0  0  0  0  0  0  0  0
    3.1959    1.4998    2.9506 H   0  0  0  0  0  0  0  0  0  0  0  0
   -0.5885    0.3377    1.4485 H   0  0  0  0  0  0  0  0  0  0  0  0
    0.7057    1.6088    3.1145 H   0  0  0  0  0  0  0  0  0  0  0  0
    1.2677   -0.0571    2.9779 H   0  0  0  0  0  0  0  0  0  0  0  0
    4.2596    0.7784    0.8426 H   0  0  0  0  0  0  0  0  0  0  0  0
    3.4483   -0.5511    1.6937 H   0  0  0  0  0  0  0  0  0  0  0  0
    1.0940   -1.2783    0.8070 H   0  0  0  0  0  0  0  0  0  0  0  0
    0.5005   -0.4764   -0.6585 H   0  0  0  0  0  0  0  0  0  0  0  0
    2.3240    3.5166    2.1864 H   0  0  0  0  0  0  0  0  0  0  0  0
    3.3650    3.0307    0.8646 H   0  0  0  0  0  0  0  0  0  0  0  0
   -1.7798    3.8269   -1.6626 H   0  0  0  0  0  0  0  0  0  0  0  0
    0.0648    5.4184   -1.5785 H   0  0  0  0  0  0  0  0  0  0  0  0
    1.2950   -2.9390   -1.4324 H   0  0  0  0  0  0  0  0  0  0  0  0
    5.1220   -2.1600    0.4106 H   0  0  0  0  0  0  0  0  0  0  0  0
   -1.2256    0.3778   -2.1545 H   0  0  0  0  0  0  0  0  0  0  0  0
   -3.0501    2.2892    1.2565 H   0  0  0  0  0  0  0  0  0  0  0  0
   -3.1410   -1.1603   -2.3111 H   0  0  0  0  0  0  0  0  0  0  0  0
   -4.9644    0.7600    1.0873 H   0  0  0  0  0  0  0  0  0  0  0  0
    1.2690   -5.1766   -0.4079 H   0  0  0  0  0  0  0  0  0  0  0  0
    5.0775   -4.4024    1.4251 H   0  0  0  0  0  0  0  0  0  0  0  0
    3.1553   -5.9181    1.0227 H   0  0  0  0  0  0  0  0  0  0  0  0
  1  5  2  0  0  0  0
  1  6  2  0  0  0  0
  1  9  1  0  0  0  0
  1 22  1  0  0  0  0
  2 34  1  0  0  0  0
  3 34  1  0  0  0  0
  4 34  1  0  0  0  0
  7 19  2  0  0  0  0
  8 32  1  0  0  0  0
  8 34  1  0  0  0  0
  9 14  1  0  0  0  0
  9 15  1  0  0  0  0
 10 16  1  0  0  0  0
 10 17  1  0  0  0  0
 10 19  1  0  0  0  0
 11 13  1  0  0  0  0
 11 14  1  0  0  0  0
 11 16  1  0  0  0  0
 11 35  1  0  0  0  0
 12 13  1  0  0  0  0
 12 15  1  0  0  0  0
 12 17  1  0  0  0  0
 12 36  1  0  0  0  0
 13 37  1  0  0  0  0
 13 38  1  0  0  0  0
 14 39  1  0  0  0  0
 14 40  1  0  0  0  0
 15 41  1  0  0  0  0
 15 42  1  0  0  0  0
 16 43  1  0  0  0  0
 16 44  1  0  0  0  0
 17 18  2  0  0  0  0
 18 20  1  0  0  0  0
 18 23  1  0  0  0  0
 19 21  1  0  0  0  0
 20 21  2  0  0  0  0
 20 45  1  0  0  0  0
 21 46  1  0  0  0  0
 22 24  2  0  0  0  0
 22 25  1  0  0  0  0
 23 26  2  0  0  0  0
 23 27  1  0  0  0  0
 24 30  1  0  0  0  0
 24 47  1  0  0  0  0
 25 31  2  0  0  0  0
 25 48  1  0  0  0  0
 26 28  1  0  0  0  0
 26 49  1  0  0  0  0
 27 29  2  0  0  0  0
 27 50  1  0  0  0  0
 28 32  2  0  0  0  0
 28 51  1  0  0  0  0
 29 32  1  0  0  0  0
 29 52  1  0  0  0  0
 30 33  2  0  0  0  0
 30 53  1  0  0  0  0
 31 33  1  0  0  0  0
 31 54  1  0  0  0  0
 33 55  1  0  0  0  0
M  END
> <PUBCHEM_COMPOUND_CID>
7144202

> <PUBCHEM_CONFORMER_RMSD>
0.8

> <PUBCHEM_CONFORMER_DIVERSEORDER>
1
13
6
10
7
9
16
17
3
2
18
14
5
8
11
15
12
4

> <PUBCHEM_MMFF94_PARTIAL_CHARGES>
43
1 1.45
10 -0.47
12 0.14
14 0.36
15 0.36
16 0.3
17 -0.03
18 -0.03
19 0.62
2 -0.34
20 -0.15
21 -0.14
22 -0.01
23 0.03
24 -0.15
25 -0.15
26 -0.15
27 -0.15
28 -0.15
29 -0.15
3 -0.34
30 -0.15
31 -0.15
32 0.08
33 -0.15
34 1.3
4 -0.34
45 0.15
46 0.15
47 0.15
48 0.15
49 0.15
5 -0.65
50 0.15
51 0.15
52 0.15
53 0.15
54 0.15
55 0.15
6 -0.65
7 -0.57
8 -0.36
9 -0.85

> <PUBCHEM_EFFECTIVE_ROTOR_COUNT>
6

> <PUBCHEM_PHARMACOPHORE_FEATURES>
9
1 5 acceptor
1 6 acceptor
1 7 acceptor
1 8 acceptor
6 10 11 12 13 16 17 rings
6 10 17 18 19 20 21 rings
6 22 24 25 30 31 33 rings
6 23 26 27 28 29 32 rings
6 9 11 12 13 14 15 rings

> <PUBCHEM_HEAVY_ATOM_COUNT>
34

> <PUBCHEM_ATOM_DEF_STEREO_COUNT>
2

> <PUBCHEM_ATOM_UDEF_STEREO_COUNT>
0

> <PUBCHEM_BOND_DEF_STEREO_COUNT>
0

> <PUBCHEM_BOND_UDEF_STEREO_COUNT>
0

> <PUBCHEM_ISOTOPIC_ATOM_COUNT>
0

> <PUBCHEM_COMPONENT_COUNT>
1

> <PUBCHEM_CACTVS_TAUTO_COUNT>
1

> <PUBCHEM_CONFORMER_ID>
006D030A00000001

> <PUBCHEM_MMFF94_ENERGY>
92.173

> <PUBCHEM_FEATURE_SELFOVERLAP>
47.275

> <PUBCHEM_SHAPE_FINGERPRINT>
10928967 22 18272087162971376551
11285246 1 17681570129474735034
11421498 54 18337119969098279814
11488393 25 18261682583142293576
11513181 2 17690568906214309783
12107183 9 18270698459228017657
12293681 25 18048565210782827373
12633046 712 18335134233902719223
12633257 1 16917058967380525143
12712778 12 17329408564095556618
13583140 156 17338123349539938890
13692114 37 17260458696586318169
13911987 19 17972630863985013948
14863182 85 18122061167666800828
15968369 26 18189596363031123895
1813 80 18409163303307376813
19301679 30 18269560602200787747
19315092 285 17344881166720879063
19319366 153 17912076458879952717
20028762 73 18121770901250283491
20764821 26 18051682536563904086
20775530 9 18200871786086112830
21133410 38 17621338148810316707
21315759 227 18120083992647094142
23559900 14 18409724076429147773
3737641 26 18342460296525832606
463206 1 18051132484296902907
49967989 163 17547857356944272534
50080093 196 17621301864309350143
5309563 4 18411419492587915511
6287921 2 18199744919954423365
70251023 43 18335144202469695297
7970288 3 18408322155663872251
9831232 110 18263641922455796623

> <PUBCHEM_SHAPE_MULTIPOLES>
648.29
10.56
6.99
1.7
9.58
1.5
-0.12
-16.31
-0.62
-1.96
-0.11
-0.72
0.43
1.42

> <PUBCHEM_SHAPE_SELFOVERLAP>
1415.93

> <PUBCHEM_SHAPE_VOLUME>
354.2

> <PUBCHEM_COORDINATE_TYPE>
2
5
10

$$$$
