28962512
  -OEChem-12032416203D

 48 50  0     1  0  0  0  0  0999 V2000
   -1.9199    1.6296    0.1377 O   0  0  0  0  0  0  0  0  0  0  0  0
   -3.9024    2.7886    0.0105 O   0  0  0  0  0  0  0  0  0  0  0  0
    4.8698    0.4924   -1.4603 O   0  0  0  0  0  0  0  0  0  0  0  0
    3.5069    0.5823    0.4246 N   0  0  0  0  0  0  0  0  0  0  0  0
   -0.2134   -0.2187   -0.0866 C   0  0  1  0  0  0  0  0  0  0  0  0
   -0.0964   -1.7695    0.1605 C   0  0  1  0  0  0  0  0  0  0  0  0
   -1.5874    0.2666    0.4106 C   0  0  2  0  0  0  0  0  0  0  0  0
   -2.6943   -0.4643   -0.3286 C   0  0  1  0  0  0  0  0  0  0  0  0
    1.0249    0.5507    0.4684 C   0  0  1  0  0  0  0  0  0  0  0  0
   -1.3114   -2.5180   -0.4694 C   0  0  0  0  0  0  0  0  0  0  0  0
    1.1962   -2.2725   -0.5211 C   0  0  0  0  0  0  0  0  0  0  0  0
   -2.6754   -1.9524   -0.0467 C   0  0  0  0  0  0  0  0  0  0  0  0
    2.3272   -0.0218   -0.1566 C   0  0  2  0  0  0  0  0  0  0  0  0
    2.4440   -1.5439   -0.0349 C   0  0  0  0  0  0  0  0  0  0  0  0
   -3.9024    0.3438    0.1050 C   0  0  1  0  0  0  0  0  0  0  0  0
   -0.0477   -2.1336    1.6674 C   0  0  0  0  0  0  0  0  0  0  0  0
    0.9457    2.0641    0.2095 C   0  0  0  0  0  0  0  0  0  0  0  0
   -3.2926    1.7328    0.0745 C   0  0  0  0  0  0  0  0  0  0  0  0
   -5.0865    0.2049   -0.8332 C   0  0  0  0  0  0  0  0  0  0  0  0
    4.6778    0.7859   -0.2832 C   0  0  0  0  0  0  0  0  0  0  0  0
    5.7374    1.4532    0.5520 C   0  0  0  0  0  0  0  0  0  0  0  0
   -0.1983   -0.0508   -1.1753 H   0  0  0  0  0  0  0  0  0  0  0  0
   -1.6540    0.1375    1.4984 H   0  0  0  0  0  0  0  0  0  0  0  0
   -2.5588   -0.3189   -1.4126 H   0  0  0  0  0  0  0  0  0  0  0  0
    1.0707    0.4247    1.5573 H   0  0  0  0  0  0  0  0  0  0  0  0
   -1.2722   -3.5857   -0.2194 H   0  0  0  0  0  0  0  0  0  0  0  0
   -1.2423   -2.4583   -1.5641 H   0  0  0  0  0  0  0  0  0  0  0  0
    1.1163   -2.1378   -1.6081 H   0  0  0  0  0  0  0  0  0  0  0  0
    1.3210   -3.3497   -0.3536 H   0  0  0  0  0  0  0  0  0  0  0  0
   -3.4685   -2.4564   -0.6103 H   0  0  0  0  0  0  0  0  0  0  0  0
   -2.8662   -2.1528    1.0131 H   0  0  0  0  0  0  0  0  0  0  0  0
    2.3254    0.2242   -1.2276 H   0  0  0  0  0  0  0  0  0  0  0  0
    2.6609   -1.8231    1.0035 H   0  0  0  0  0  0  0  0  0  0  0  0
    3.3061   -1.8958   -0.6162 H   0  0  0  0  0  0  0  0  0  0  0  0
   -4.1936    0.1154    1.1367 H   0  0  0  0  0  0  0  0  0  0  0  0
    0.7827   -1.6567    2.1938 H   0  0  0  0  0  0  0  0  0  0  0  0
    0.0725   -3.2159    1.7970 H   0  0  0  0  0  0  0  0  0  0  0  0
   -0.9610   -1.8495    2.1969 H   0  0  0  0  0  0  0  0  0  0  0  0
    0.7206    2.2763   -0.8409 H   0  0  0  0  0  0  0  0  0  0  0  0
    1.8841    2.5697    0.4588 H   0  0  0  0  0  0  0  0  0  0  0  0
    0.1812    2.5317    0.8356 H   0  0  0  0  0  0  0  0  0  0  0  0
    3.4845    0.8135    1.4138 H   0  0  0  0  0  0  0  0  0  0  0  0
   -4.8295    0.5074   -1.8544 H   0  0  0  0  0  0  0  0  0  0  0  0
   -5.9136    0.8436   -0.5051 H   0  0  0  0  0  0  0  0  0  0  0  0
   -5.4464   -0.8282   -0.8608 H   0  0  0  0  0  0  0  0  0  0  0  0
    5.9098    0.8796    1.4671 H   0  0  0  0  0  0  0  0  0  0  0  0
    6.6729    1.5061   -0.0117 H   0  0  0  0  0  0  0  0  0  0  0  0
    5.4174    2.4663    0.8106 H   0  0  0  0  0  0  0  0  0  0  0  0
  1  7  1  0  0  0  0
  1 18  1  0  0  0  0
  2 18  2  0  0  0  0
  3 20  2  0  0  0  0
  4 13  1  0  0  0  0
  4 20  1  0  0  0  0
  4 42  1  0  0  0  0
  5  6  1  0  0  0  0
  5  7  1  0  0  0  0
  5  9  1  0  0  0  0
  5 22  1  0  0  0  0
  6 10  1  0  0  0  0
  6 11  1  0  0  0  0
  6 16  1  0  0  0  0
  7  8  1  0  0  0  0
  7 23  1  0  0  0  0
  8 12  1  0  0  0  0
  8 15  1  0  0  0  0
  8 24  1  0  0  0  0
  9 13  1  0  0  0  0
  9 17  1  0  0  0  0
  9 25  1  0  0  0  0
 10 12  1  0  0  0  0
 10 26  1  0  0  0  0
 10 27  1  0  0  0  0
 11 14  1  0  0  0  0
 11 28  1  0  0  0  0
 11 29  1  0  0  0  0
 12 30  1  0  0  0  0
 12 31  1  0  0  0  0
 13 14  1  0  0  0  0
 13 32  1  0  0  0  0
 14 33  1  0  0  0  0
 14 34  1  0  0  0  0
 15 18  1  0  0  0  0
 15 19  1  0  0  0  0
 15 35  1  0  0  0  0
 16 36  1  0  0  0  0
 16 37  1  0  0  0  0
 16 38  1  0  0  0  0
 17 39  1  0  0  0  0
 17 40  1  0  0  0  0
 17 41  1  0  0  0  0
 19 43  1  0  0  0  0
 19 44  1  0  0  0  0
 19 45  1  0  0  0  0
 20 21  1  0  0  0  0
 21 46  1  0  0  0  0
 21 47  1  0  0  0  0
 21 48  1  0  0  0  0
M  END
> <PUBCHEM_COMPOUND_CID>
28962512

> <PUBCHEM_CONFORMER_RMSD>
0.6

> <PUBCHEM_CONFORMER_DIVERSEORDER>
1
3
4
2

> <PUBCHEM_MMFF94_PARTIAL_CHARGES>
11
1 -0.43
13 0.3
15 0.06
18 0.66
2 -0.57
20 0.57
21 0.06
3 -0.57
4 -0.73
42 0.37
7 0.28

> <PUBCHEM_EFFECTIVE_ROTOR_COUNT>
3.6

> <PUBCHEM_PHARMACOPHORE_FEATURES>
6
1 2 acceptor
1 3 acceptor
1 4 donor
5 1 7 8 15 18 rings
6 5 6 7 8 10 12 rings
6 5 6 9 11 13 14 rings

> <PUBCHEM_HEAVY_ATOM_COUNT>
21

> <PUBCHEM_ATOM_DEF_STEREO_COUNT>
7

> <PUBCHEM_ATOM_UDEF_STEREO_COUNT>
0

> <PUBCHEM_BOND_DEF_STEREO_COUNT>
0

> <PUBCHEM_BOND_UDEF_STEREO_COUNT>
0

> <PUBCHEM_ISOTOPIC_ATOM_COUNT>
0

> <PUBCHEM_COMPONENT_COUNT>
1

> <PUBCHEM_CACTVS_TAUTO_COUNT>
4

> <PUBCHEM_CONFORMER_ID>
01B9EED000000001

> <PUBCHEM_MMFF94_ENERGY>
55.735

> <PUBCHEM_FEATURE_SELFOVERLAP>
30.539

> <PUBCHEM_SHAPE_FINGERPRINT>
10382601 240 17898014529572710265
10411042 1 17546725319180938878
10493431 412 18411705352916074393
10498660 4 18341051826541929620
10948715 1 18337673022772090187
10967382 1 18412261705783540859
12011746 2 18412261748422049269
12236239 1 17822285834404231640
12390115 104 18200890469690144745
12403259 226 17841146976292924226
12403814 3 17530959194036527724
13140716 1 17977953702215832835
13464514 151 18340210695772326082
14251764 75 17982740679786715353
14790565 3 18054236431692936497
15196674 1 18339923706131291445
15375358 24 18201442514884605436
15536298 74 18271243807287094886
16945 1 18341047518673920483
173720 79 18114449128835137850
200 152 14764354838092534418
20602899 9 16630532838362587526
21279426 13 18270404889238032406
21524375 3 18334294275073922963
22182313 1 18197805312866221526
23227448 37 18269555099371722612
2334 1 17834671974303204683
23366157 5 17970350313080305186
23402539 116 18338227279859163774
23557571 272 18200600331405825295
23558518 356 17901102232911345537
23559900 14 18273501170117143500
238 59 17106745394965720677
25 1 18410011009507496758
2748010 2 18268720424049156663
298252 57 18412824698507761530
34934 24 18411693283846716031
350125 39 18339366395570423073
3759504 43 17821731671115446467
394222 165 18044936775087080563
4340502 62 16950004707967275331
474 4 17967537869414542414
5104073 3 18263930947219252769
5283173 99 18342738550852467608
58051976 378 18412545422390425324
59755656 215 18413386544965272005
633830 44 18263643961562461615
9709674 26 18342741784646252455
9981440 41 18335701663164840346

> <PUBCHEM_SHAPE_MULTIPOLES>
409.58
9.65
2.8
0.93
7.01
0.37
-0.09
-6.1
1.75
-1.32
-0.21
0.33
0.28
0.06

> <PUBCHEM_SHAPE_SELFOVERLAP>
856.012

> <PUBCHEM_SHAPE_VOLUME>
231

> <PUBCHEM_COORDINATE_TYPE>
2
5
10

$$$$
