11887318
  -OEChem-12032416363D

 54 58  0     1  0  0  0  0  0999 V2000
   -0.0150   -3.1029   -1.0885 O   0  0  0  0  0  0  0  0  0  0  0  0
    0.5639   -0.1864   -2.1135 O   0  0  0  0  0  0  0  0  0  0  0  0
   -4.1259   -1.8366   -0.7979 O   0  0  0  0  0  0  0  0  0  0  0  0
    3.6346    3.7395   -0.0047 O   0  0  0  0  0  0  0  0  0  0  0  0
   -3.1803    1.0006    2.9478 O   0  0  0  0  0  0  0  0  0  0  0  0
   -3.2502   -1.0282    1.9252 O   0  0  0  0  0  0  0  0  0  0  0  0
    2.4232   -1.7322    0.6238 N   0  0  0  0  0  0  0  0  0  0  0  0
   -2.4124   -0.3527   -1.2881 N   0  0  0  0  0  0  0  0  0  0  0  0
    1.9949   -2.6488    1.4975 N   0  0  0  0  0  0  0  0  0  0  0  0
    3.5501   -1.3511    2.4290 N   0  0  0  0  0  0  0  0  0  0  0  0
    2.6895   -2.4113    2.6035 N   0  0  0  0  0  0  0  0  0  0  0  0
    0.6262   -0.8220   -0.8237 C   0  0  1  0  0  0  0  0  0  0  0  0
   -0.5269   -1.8039   -0.7519 C   0  0  1  0  0  0  0  0  0  0  0  0
    1.8718   -1.6830   -0.7329 C   0  0  2  0  0  0  0  0  0  0  0  0
   -1.4897   -1.3281   -1.8165 C   0  0  2  0  0  0  0  0  0  0  0  0
    1.4030   -3.0234   -1.2883 C   0  0  0  0  0  0  0  0  0  0  0  0
   -0.5586   -0.7057   -2.8402 C   0  0  0  0  0  0  0  0  0  0  0  0
    3.3676   -0.9464    1.1931 C   0  0  0  0  0  0  0  0  0  0  0  0
   -3.6715   -0.6957   -0.8165 C   0  0  0  0  0  0  0  0  0  0  0  0
    4.0391    0.1416    0.5296 C   0  0  0  0  0  0  0  0  0  0  0  0
   -4.5120    0.4283   -0.3295 C   0  0  0  0  0  0  0  0  0  0  0  0
    3.5052    1.4302    0.5834 C   0  0  0  0  0  0  0  0  0  0  0  0
    5.2252   -0.0909   -0.1686 C   0  0  0  0  0  0  0  0  0  0  0  0
   -4.4574    0.8157    0.9941 C   0  0  0  0  0  0  0  0  0  0  0  0
   -5.3351    1.0567   -1.2438 C   0  0  0  0  0  0  0  0  0  0  0  0
    4.1558    2.4836   -0.0591 C   0  0  0  0  0  0  0  0  0  0  0  0
    5.8757    0.9625   -0.8111 C   0  0  0  0  0  0  0  0  0  0  0  0
   -5.2582    1.8744    1.4222 C   0  0  0  0  0  0  0  0  0  0  0  0
   -6.1358    2.1155   -0.8159 C   0  0  0  0  0  0  0  0  0  0  0  0
    5.3410    2.2496   -0.7565 C   0  0  0  0  0  0  0  0  0  0  0  0
   -3.5917    0.1568    1.9635 C   0  0  0  0  0  0  0  0  0  0  0  0
   -6.0973    2.5244    0.5172 C   0  0  0  0  0  0  0  0  0  0  0  0
    4.3513    4.7700   -0.6830 C   0  0  0  0  0  0  0  0  0  0  0  0
    0.5605   -0.0323   -0.0686 H   0  0  0  0  0  0  0  0  0  0  0  0
   -0.9619   -1.8753    0.2500 H   0  0  0  0  0  0  0  0  0  0  0  0
    2.6824   -1.3096   -1.3692 H   0  0  0  0  0  0  0  0  0  0  0  0
   -2.0620   -2.1465   -2.2665 H   0  0  0  0  0  0  0  0  0  0  0  0
    1.8868   -3.8968   -0.8410 H   0  0  0  0  0  0  0  0  0  0  0  0
    1.5728   -3.0665   -2.3701 H   0  0  0  0  0  0  0  0  0  0  0  0
   -0.1759   -1.4623   -3.5340 H   0  0  0  0  0  0  0  0  0  0  0  0
   -1.0167    0.0981   -3.4245 H   0  0  0  0  0  0  0  0  0  0  0  0
   -2.1113    0.6163   -1.2288 H   0  0  0  0  0  0  0  0  0  0  0  0
    2.5812    1.6227    1.1246 H   0  0  0  0  0  0  0  0  0  0  0  0
    5.6546   -1.0886   -0.2211 H   0  0  0  0  0  0  0  0  0  0  0  0
   -5.3703    0.7435   -2.2832 H   0  0  0  0  0  0  0  0  0  0  0  0
    6.7984    0.7793   -1.3540 H   0  0  0  0  0  0  0  0  0  0  0  0
   -5.2620    2.2085    2.4565 H   0  0  0  0  0  0  0  0  0  0  0  0
   -6.7898    2.6211   -1.5203 H   0  0  0  0  0  0  0  0  0  0  0  0
    5.8975    3.0210   -1.2777 H   0  0  0  0  0  0  0  0  0  0  0  0
   -6.7233    3.3469    0.8507 H   0  0  0  0  0  0  0  0  0  0  0  0
   -2.5975    0.5496    3.5954 H   0  0  0  0  0  0  0  0  0  0  0  0
    3.7950    5.7015   -0.5354 H   0  0  0  0  0  0  0  0  0  0  0  0
    5.3463    4.9199   -0.2504 H   0  0  0  0  0  0  0  0  0  0  0  0
    4.3909    4.5890   -1.7626 H   0  0  0  0  0  0  0  0  0  0  0  0
  1 13  1  0  0  0  0
  1 16  1  0  0  0  0
  2 12  1  0  0  0  0
  2 17  1  0  0  0  0
  3 19  2  0  0  0  0
  4 26  1  0  0  0  0
  4 33  1  0  0  0  0
  5 31  1  0  0  0  0
  5 51  1  0  0  0  0
  6 31  2  0  0  0  0
  7  9  1  0  0  0  0
  7 14  1  0  0  0  0
  7 18  1  0  0  0  0
  8 15  1  0  0  0  0
  8 19  1  0  0  0  0
  8 42  1  0  0  0  0
  9 11  2  0  0  0  0
 10 11  1  0  0  0  0
 10 18  2  0  0  0  0
 12 13  1  0  0  0  0
 12 14  1  0  0  0  0
 12 34  1  0  0  0  0
 13 15  1  0  0  0  0
 13 35  1  0  0  0  0
 14 16  1  0  0  0  0
 14 36  1  0  0  0  0
 15 17  1  0  0  0  0
 15 37  1  0  0  0  0
 16 38  1  0  0  0  0
 16 39  1  0  0  0  0
 17 40  1  0  0  0  0
 17 41  1  0  0  0  0
 18 20  1  0  0  0  0
 19 21  1  0  0  0  0
 20 22  2  0  0  0  0
 20 23  1  0  0  0  0
 21 24  1  0  0  0  0
 21 25  2  0  0  0  0
 22 26  1  0  0  0  0
 22 43  1  0  0  0  0
 23 27  2  0  0  0  0
 23 44  1  0  0  0  0
 24 28  2  0  0  0  0
 24 31  1  0  0  0  0
 25 29  1  0  0  0  0
 25 45  1  0  0  0  0
 26 30  2  0  0  0  0
 27 30  1  0  0  0  0
 27 46  1  0  0  0  0
 28 32  1  0  0  0  0
 28 47  1  0  0  0  0
 29 32  2  0  0  0  0
 29 48  1  0  0  0  0
 30 49  1  0  0  0  0
 32 50  1  0  0  0  0
 33 52  1  0  0  0  0
 33 53  1  0  0  0  0
 33 54  1  0  0  0  0
M  END
> <PUBCHEM_COMPOUND_CID>
11887318

> <PUBCHEM_CONFORMER_RMSD>
1

> <PUBCHEM_CONFORMER_DIVERSEORDER>
1
201
95
28
111
205
172
138
177
216
176
85
237
60
192
50
122
193
231
64
48
90
36
233
171
238
181
210
130
136
199
22
190
173
212
32
70
74
89
206
218
92
239
31
124
44
195
215
217
202
71
240
148
67
128
161
15
228
166
103
125
72
110
235
150
154
144
129
99
191
79
236
213
37
17
59
112
226
143
200
65
151
102
35
203
230
10
113
66
134
209
164
97
222
225
163
127
78
132
123
30
180
179
234
141
204
83
108
159
175
147
42
241
142
120
221
26
158
243
152
227
11
153
69
25
81
101
250
165
58
96
160
242
223
62
87
20
133
77
51
47
75
93
149
232
84
115
13
155
116
246
117
156
214
107
27
211
157
207
169
247
91
105
167
146
43
45
41
170
94
98
178
198
249
220
49
131
82
109
55
137
3
34
197
88
140
196
39
76
18
23
114
182
145
68
184
186
12
86
33
38
2
135
229
183
56
245
46
19
119
187
16
244
162
174
139
121
189
24
53
208
100
9
52
29
248
168
188
194
40
54
5
224
73
8
126
14
106
7
57
63
61
104
4
219
6
185
21
80
118

> <PUBCHEM_MMFF94_PARTIAL_CHARGES>
42
1 -0.56
10 -0.34
12 0.28
13 0.28
14 0.26
15 0.3
16 0.28
17 0.28
18 0.13
19 0.54
2 -0.56
20 0.05
21 0.09
22 -0.15
23 -0.15
24 0.09
25 -0.15
26 0.08
27 -0.15
28 -0.15
29 -0.15
3 -0.57
30 -0.15
31 0.63
32 -0.15
33 0.28
4 -0.36
42 0.37
43 0.15
44 0.15
45 0.15
46 0.15
47 0.15
48 0.15
49 0.15
5 -0.65
50 0.15
51 0.5
6 -0.57
7 0.31
8 -0.73
9 -0.42

> <PUBCHEM_EFFECTIVE_ROTOR_COUNT>
8.2

> <PUBCHEM_PHARMACOPHORE_FEATURES>
14
1 1 acceptor
1 2 acceptor
1 3 acceptor
1 4 acceptor
1 5 acceptor
1 6 acceptor
1 8 donor
3 5 6 31 anion
3 7 10 18 cation
5 1 12 13 14 16 rings
5 2 12 13 15 17 rings
5 7 9 10 11 18 rings
6 20 22 23 26 27 30 rings
6 21 24 25 28 29 32 rings

> <PUBCHEM_HEAVY_ATOM_COUNT>
33

> <PUBCHEM_ATOM_DEF_STEREO_COUNT>
4

> <PUBCHEM_ATOM_UDEF_STEREO_COUNT>
0

> <PUBCHEM_BOND_DEF_STEREO_COUNT>
0

> <PUBCHEM_BOND_UDEF_STEREO_COUNT>
0

> <PUBCHEM_ISOTOPIC_ATOM_COUNT>
0

> <PUBCHEM_COMPONENT_COUNT>
1

> <PUBCHEM_CACTVS_TAUTO_COUNT>
2

> <PUBCHEM_CONFORMER_ID>
00B562D600000001

> <PUBCHEM_MMFF94_ENERGY>
104.2143

> <PUBCHEM_FEATURE_SELFOVERLAP>
71.801

> <PUBCHEM_SHAPE_FINGERPRINT>
10074138 170 12984658048363774143
10670039 82 17132117913733882128
11070050 100 17312817195809590152
11112241 14 17604137229531506257
11479125 193 18122350343852332488
11828532 37 15338536345915480949
12422481 6 17822008718123579877
12596602 18 18334577932379726339
12655364 74 15512825672222476124
13828863 39 18115033038097250596
14251751 18 11458424639434839535
14705955 166 17242158068419050077
14790565 3 18340769359422414852
14840074 17 18413395323768356469
14951699 99 17894641318056252541
15001296 14 18272926163183740256
15183329 4 15554451773599476854
15238133 3 18201422680609945554
15419009 47 11598634314753685867
16991981 162 17484246614582207804
17809404 112 17168726149381252889
17909252 39 10015578389619816566
20567600 9 17561086860799474966
21458453 9 16372140025302209212
22122407 14 18335704914286213105
22393880 68 14835838427026362227
23398203 216 17179413685871842988
245318 6 18131630067408108393
3178227 256 17603577501436319832
38570 142 18336272340238472340
392239 28 17240471520924487378
4046055 25 14687822025376009254
4258327 124 18413951690243334085
57724786 102 18270688545815613881
6034566 193 18268998746572567757
613672 6 14129047106737546159
6703917 75 17461454787206906430
7970288 3 8357954664581507469

> <PUBCHEM_SHAPE_MULTIPOLES>
619
15.09
4.14
2.41
7.74
2.91
-0.93
14.27
-1.46
-4.58
0.6
0.92
-1.08
-2.56

> <PUBCHEM_SHAPE_SELFOVERLAP>
1364.863

> <PUBCHEM_SHAPE_VOLUME>
334

> <PUBCHEM_COORDINATE_TYPE>
2
5
10

$$$$
