51136912
  -OEChem-12032416223D

 48 52  0     1  0  0  0  0  0999 V2000
   -2.2991   -0.4302    2.0199 O   0  0  0  0  0  0  0  0  0  0  0  0
   -4.3428   -0.7963   -0.8152 N   0  0  1  0  0  0  0  0  0  0  0  0
   -1.3588   -1.1286    0.1108 N   0  0  0  0  0  0  0  0  0  0  0  0
   -0.9332   -0.1403    2.1297 N   0  0  0  0  0  0  0  0  0  0  0  0
   -3.8646    2.2984    0.6784 N   0  0  0  0  0  0  0  0  0  0  0  0
    3.1815    0.1830    1.2462 N   0  0  0  0  0  0  0  0  0  0  0  0
    6.8500    0.1428   -1.7292 N   0  0  0  0  0  0  0  0  0  0  0  0
    7.2775   -0.0523    0.6344 N   0  0  0  0  0  0  0  0  0  0  0  0
   -3.8743   -1.4233    0.4369 C   0  0  1  0  0  0  0  0  0  0  0  0
   -4.0053   -2.9374    0.1890 C   0  0  0  0  0  0  0  0  0  0  0  0
   -4.6114   -3.0618   -1.2017 C   0  0  0  0  0  0  0  0  0  0  0  0
   -5.3002   -1.7284   -1.4112 C   0  0  0  0  0  0  0  0  0  0  0  0
   -4.9186    0.5272   -0.6144 C   0  0  0  0  0  0  0  0  0  0  0  0
   -2.4639   -1.0106    0.8024 C   0  0  0  0  0  0  0  0  0  0  0  0
   -3.8565    1.5846   -0.4697 C   0  0  0  0  0  0  0  0  0  0  0  0
   -0.4469   -0.5811    0.9656 C   0  0  0  0  0  0  0  0  0  0  0  0
   -2.9429    1.7736   -1.4941 C   0  0  0  0  0  0  0  0  0  0  0  0
    0.9440   -0.4910    0.6268 C   0  0  0  0  0  0  0  0  0  0  0  0
   -1.9753    2.7587   -1.3298 C   0  0  0  0  0  0  0  0  0  0  0  0
   -2.9094    3.2471    0.8023 C   0  0  0  0  0  0  0  0  0  0  0  0
   -1.9515    3.5140   -0.1624 C   0  0  0  0  0  0  0  0  0  0  0  0
    1.4156   -0.9617   -0.5937 C   0  0  0  0  0  0  0  0  0  0  0  0
    1.8594    0.0677    1.5039 C   0  0  0  0  0  0  0  0  0  0  0  0
    2.7693   -0.8607   -0.8951 C   0  0  0  0  0  0  0  0  0  0  0  0
    3.6032   -0.2856    0.0501 C   0  0  0  0  0  0  0  0  0  0  0  0
    5.0194   -0.1484   -0.1937 C   0  0  0  0  0  0  0  0  0  0  0  0
    5.5333    0.0144   -1.4640 C   0  0  0  0  0  0  0  0  0  0  0  0
    5.9477   -0.1747    0.8270 C   0  0  0  0  0  0  0  0  0  0  0  0
    7.6538    0.1012   -0.6494 C   0  0  0  0  0  0  0  0  0  0  0  0
   -4.5425   -1.1708    1.2724 H   0  0  0  0  0  0  0  0  0  0  0  0
   -4.6905   -3.3731    0.9265 H   0  0  0  0  0  0  0  0  0  0  0  0
   -3.0574   -3.4828    0.2507 H   0  0  0  0  0  0  0  0  0  0  0  0
   -5.3013   -3.9073   -1.2783 H   0  0  0  0  0  0  0  0  0  0  0  0
   -3.8156   -3.2022   -1.9438 H   0  0  0  0  0  0  0  0  0  0  0  0
   -5.4676   -1.5248   -2.4733 H   0  0  0  0  0  0  0  0  0  0  0  0
   -6.2645   -1.7118   -0.8875 H   0  0  0  0  0  0  0  0  0  0  0  0
   -5.5167    0.8124   -1.4911 H   0  0  0  0  0  0  0  0  0  0  0  0
   -5.6084    0.5489    0.2393 H   0  0  0  0  0  0  0  0  0  0  0  0
   -2.9697    1.1842   -2.4044 H   0  0  0  0  0  0  0  0  0  0  0  0
   -1.2413    2.9374   -2.1097 H   0  0  0  0  0  0  0  0  0  0  0  0
   -2.9334    3.8073    1.7312 H   0  0  0  0  0  0  0  0  0  0  0  0
   -1.2060    4.2864   -0.0123 H   0  0  0  0  0  0  0  0  0  0  0  0
    0.7525   -1.4148   -1.3261 H   0  0  0  0  0  0  0  0  0  0  0  0
    1.5728    0.4585    2.4758 H   0  0  0  0  0  0  0  0  0  0  0  0
    3.1254   -1.2504   -1.8428 H   0  0  0  0  0  0  0  0  0  0  0  0
    4.9077    0.0720   -2.3491 H   0  0  0  0  0  0  0  0  0  0  0  0
    5.6644   -0.3069    1.8669 H   0  0  0  0  0  0  0  0  0  0  0  0
    8.7164    0.2020   -0.8333 H   0  0  0  0  0  0  0  0  0  0  0  0
  1  4  1  0  0  0  0
  1 14  1  0  0  0  0
  2  9  1  0  0  0  0
  2 12  1  0  0  0  0
  2 13  1  0  0  0  0
  3 14  2  0  0  0  0
  3 16  1  0  0  0  0
  4 16  2  0  0  0  0
  5 15  1  0  0  0  0
  5 20  2  0  0  0  0
  6 23  1  0  0  0  0
  6 25  2  0  0  0  0
  7 27  2  0  0  0  0
  7 29  1  0  0  0  0
  8 28  1  0  0  0  0
  8 29  2  0  0  0  0
  9 10  1  0  0  0  0
  9 14  1  0  0  0  0
  9 30  1  0  0  0  0
 10 11  1  0  0  0  0
 10 31  1  0  0  0  0
 10 32  1  0  0  0  0
 11 12  1  0  0  0  0
 11 33  1  0  0  0  0
 11 34  1  0  0  0  0
 12 35  1  0  0  0  0
 12 36  1  0  0  0  0
 13 15  1  0  0  0  0
 13 37  1  0  0  0  0
 13 38  1  0  0  0  0
 15 17  2  0  0  0  0
 16 18  1  0  0  0  0
 17 19  1  0  0  0  0
 17 39  1  0  0  0  0
 18 22  1  0  0  0  0
 18 23  2  0  0  0  0
 19 21  2  0  0  0  0
 19 40  1  0  0  0  0
 20 21  1  0  0  0  0
 20 41  1  0  0  0  0
 21 42  1  0  0  0  0
 22 24  2  0  0  0  0
 22 43  1  0  0  0  0
 23 44  1  0  0  0  0
 24 25  1  0  0  0  0
 24 45  1  0  0  0  0
 25 26  1  0  0  0  0
 26 27  1  0  0  0  0
 26 28  2  0  0  0  0
 27 46  1  0  0  0  0
 28 47  1  0  0  0  0
 29 48  1  0  0  0  0
M  END
> <PUBCHEM_COMPOUND_CID>
51136912

> <PUBCHEM_CONFORMER_RMSD>
0.8

> <PUBCHEM_CONFORMER_DIVERSEORDER>
1
19
141
39
102
143
114
91
76
18
109
84
38
136
23
123
21
101
64
107
92
142
119
90
134
122
77
56
106
85
32
131
28
62
20
26
140
121
108
128
17
45
5
51
68
94
73
3
46
115
11
110
111
72
27
43
9
24
2
14
105
33
118
80
6
30
87
13
70
112
130
138
93
54
22
89
82
25
57
16
104
60
137
69
98
129
55
79
132
4
12
88
34
67
74
133
125
117
7
40
96
61
120
95
48
59
47
86
97
10
78
139
65
99
66
127
100
41
29
53
71
58
8
50
15
49
63
75
44
116
113
42
81
124
35
31
135
37
52
83
36
103
126

> <PUBCHEM_MMFF94_PARTIAL_CHARGES>
36
1 -0.02
12 0.27
13 0.41
14 0.3
15 0.17
16 0.46
17 -0.15
18 0.05
19 -0.15
2 -0.81
20 0.16
21 -0.15
22 -0.15
23 0.16
24 -0.15
25 0.31
27 0.16
28 0.16
29 0.47
3 -0.57
39 0.15
4 -0.41
40 0.15
41 0.15
42 0.15
43 0.15
44 0.15
45 0.15
46 0.15
47 0.15
48 0.15
5 -0.62
6 -0.62
7 -0.62
8 -0.62
9 0.45

> <PUBCHEM_EFFECTIVE_ROTOR_COUNT>
6

> <PUBCHEM_PHARMACOPHORE_FEATURES>
11
1 2 cation
1 5 acceptor
1 6 acceptor
1 7 acceptor
3 3 4 16 cation
3 7 8 29 cation
5 1 3 4 14 16 rings
5 2 9 10 11 12 rings
6 5 15 17 19 20 21 rings
6 6 18 22 23 24 25 rings
6 7 8 26 27 28 29 rings

> <PUBCHEM_HEAVY_ATOM_COUNT>
29

> <PUBCHEM_ATOM_DEF_STEREO_COUNT>
1

> <PUBCHEM_ATOM_UDEF_STEREO_COUNT>
0

> <PUBCHEM_BOND_DEF_STEREO_COUNT>
0

> <PUBCHEM_BOND_UDEF_STEREO_COUNT>
0

> <PUBCHEM_ISOTOPIC_ATOM_COUNT>
0

> <PUBCHEM_COMPONENT_COUNT>
1

> <PUBCHEM_CACTVS_TAUTO_COUNT>
1

> <PUBCHEM_CONFORMER_ID>
030C499000000001

> <PUBCHEM_MMFF94_ENERGY>
67.5841

> <PUBCHEM_FEATURE_SELFOVERLAP>
55.824

> <PUBCHEM_SHAPE_FINGERPRINT>
10 15 12468641655697649950
10087517 78 18187083932039152300
10165383 225 18130511821829294097
10291535 26 18260836981586119185
10454371 7 18409454678536905700
10670039 82 18261108573916875932
11101153 10 18263650730731938396
11315181 36 17386009507211611486
11477941 20 18409722997675452100
11578080 2 18056215578096558446
12107698 1 18334855056485831948
12788726 201 18260817194988525035
12988421 55 9294475813842823335
13673619 4 17917429895164878539
13782708 43 17988644129598773430
13947920 75 18187078451470575415
14068700 675 18334853973790109221
14713325 29 18341614785375260439
14856354 85 18336549420789328703
15183329 4 17821729412854016534
15324884 4 17840558695482403123
15419008 47 18131627911266286080
15461852 350 18412827993754680958
15876981 60 18260834834213170037
16992828 155 17532649023334842405
17686467 74 18264485277484780664
17913733 40 13695588824216334136
17980427 23 17749120984406124030
19489759 90 18333167275803405626
20771845 65 17771908509759868171
20775438 99 16897061333753767079
21033650 10 18190482479757333342
21236236 1 18260267430231131292
21927370 108 18187659041561674067
23081809 10 17967814942983639730
23557571 272 18413384346073949903
23559900 14 17417806287843316458
249057 25 17822009814146867420
255183 451 17906729564411136887
3610482 184 18188504470886503156
4169191 19 16443924885322962076
469060 322 17605015670961579369
497634 4 17703800214388657587
531348 171 18340488850755654334
6608658 132 18113896039852665884
7237137 82 18410292501785467496

> <PUBCHEM_SHAPE_MULTIPOLES>
556.07
16.96
3.13
1.65
33.11
1.92
0.17
-3.18
-5.67
-7.65
-0.59
0.09
0.01
-0.54

> <PUBCHEM_SHAPE_SELFOVERLAP>
1230.127

> <PUBCHEM_SHAPE_VOLUME>
296.1

> <PUBCHEM_COORDINATE_TYPE>
2
5
10

$$$$
