11912431
  -OEChem-12032416213D

 54 58  0     1  0  0  0  0  0999 V2000
    2.2879    5.1427   -1.3190 F   0  0  0  0  0  0  0  0  0  0  0  0
   -6.0835   -0.2523    1.7368 F   0  0  0  0  0  0  0  0  0  0  0  0
   -8.0185    0.1984    0.8266 F   0  0  0  0  0  0  0  0  0  0  0  0
   -6.6361    1.8341    1.2615 F   0  0  0  0  0  0  0  0  0  0  0  0
   -0.7071   -2.2539    1.0772 O   0  0  0  0  0  0  0  0  0  0  0  0
    3.2425    0.5170    2.7458 O   0  0  0  0  0  0  0  0  0  0  0  0
   -6.1708    0.3957   -0.4548 O   0  0  0  0  0  0  0  0  0  0  0  0
    3.9770   -0.6101    0.8316 N   0  0  0  0  0  0  0  0  0  0  0  0
    1.3198   -2.0645   -0.0610 N   0  0  0  0  0  0  0  0  0  0  0  0
    3.5050   -3.0511    0.8433 C   0  0  1  0  0  0  0  0  0  0  0  0
    3.5056   -1.8159   -1.2867 C   0  0  2  0  0  0  0  0  0  0  0  0
    3.9120   -3.1314   -0.6242 C   0  0  0  0  0  0  0  0  0  0  0  0
    4.2148   -1.8715    1.5329 C   0  0  0  0  0  0  0  0  0  0  0  0
    1.9775   -2.9343    0.9255 C   0  0  0  0  0  0  0  0  0  0  0  0
    4.2524   -0.6458   -0.6141 C   0  0  0  0  0  0  0  0  0  0  0  0
    2.0096   -1.5900   -1.1795 C   0  0  0  0  0  0  0  0  0  0  0  0
    1.3596   -0.9007   -2.1308 C   0  0  0  0  0  0  0  0  0  0  0  0
   -0.0559   -1.8249    0.1231 C   0  0  0  0  0  0  0  0  0  0  0  0
    3.4734    0.4849    1.5381 C   0  0  0  0  0  0  0  0  0  0  0  0
   -0.7463   -1.0089   -0.9362 C   0  0  0  0  0  0  0  0  0  0  0  0
   -0.0382   -0.6033   -2.0008 C   0  0  0  0  0  0  0  0  0  0  0  0
    3.1629    1.7061    0.7873 C   0  0  0  0  0  0  0  0  0  0  0  0
   -2.1665   -0.6413   -0.8103 C   0  0  0  0  0  0  0  0  0  0  0  0
    1.8910    1.8839    0.2488 C   0  0  0  0  0  0  0  0  0  0  0  0
    4.1409    2.6829    0.6177 C   0  0  0  0  0  0  0  0  0  0  0  0
   -3.1530   -1.4727   -1.3415 C   0  0  0  0  0  0  0  0  0  0  0  0
   -2.5269    0.5392   -0.1597 C   0  0  0  0  0  0  0  0  0  0  0  0
    1.5951    3.0459   -0.4637 C   0  0  0  0  0  0  0  0  0  0  0  0
    3.8450    3.8450   -0.0950 C   0  0  0  0  0  0  0  0  0  0  0  0
   -4.4983   -1.1239   -1.2225 C   0  0  0  0  0  0  0  0  0  0  0  0
   -3.8723    0.8879   -0.0406 C   0  0  0  0  0  0  0  0  0  0  0  0
    2.5721    4.0264   -0.6358 C   0  0  0  0  0  0  0  0  0  0  0  0
   -4.8579    0.0564   -0.5720 C   0  0  0  0  0  0  0  0  0  0  0  0
   -6.7128    0.5501    0.8521 C   0  0  0  0  0  0  0  0  0  0  0  0
    3.8095   -3.9695    1.3602 H   0  0  0  0  0  0  0  0  0  0  0  0
    3.8020   -1.8570   -2.3428 H   0  0  0  0  0  0  0  0  0  0  0  0
    3.4229   -3.9821   -1.1151 H   0  0  0  0  0  0  0  0  0  0  0  0
    4.9940   -3.2873   -0.7134 H   0  0  0  0  0  0  0  0  0  0  0  0
    3.8992   -1.7997    2.5790 H   0  0  0  0  0  0  0  0  0  0  0  0
    5.2992   -2.0363    1.5331 H   0  0  0  0  0  0  0  0  0  0  0  0
    1.5409   -3.9314    0.7763 H   0  0  0  0  0  0  0  0  0  0  0  0
    1.6709   -2.6183    1.9306 H   0  0  0  0  0  0  0  0  0  0  0  0
    5.3357   -0.7777   -0.7270 H   0  0  0  0  0  0  0  0  0  0  0  0
    3.9971    0.2993   -1.0997 H   0  0  0  0  0  0  0  0  0  0  0  0
    1.8754   -0.5084   -3.0011 H   0  0  0  0  0  0  0  0  0  0  0  0
   -0.4878   -0.0087   -2.7907 H   0  0  0  0  0  0  0  0  0  0  0  0
    1.1184    1.1355    0.3936 H   0  0  0  0  0  0  0  0  0  0  0  0
    5.1357    2.5508    1.0349 H   0  0  0  0  0  0  0  0  0  0  0  0
   -2.8886   -2.3966   -1.8503 H   0  0  0  0  0  0  0  0  0  0  0  0
   -1.7701    1.1983    0.2587 H   0  0  0  0  0  0  0  0  0  0  0  0
    0.6027    3.1885   -0.8812 H   0  0  0  0  0  0  0  0  0  0  0  0
    4.6055    4.6087   -0.2289 H   0  0  0  0  0  0  0  0  0  0  0  0
   -5.2619   -1.7761   -1.6375 H   0  0  0  0  0  0  0  0  0  0  0  0
   -4.1379    1.8134    0.4628 H   0  0  0  0  0  0  0  0  0  0  0  0
  1 32  1  0  0  0  0
  2 34  1  0  0  0  0
  3 34  1  0  0  0  0
  4 34  1  0  0  0  0
  5 18  2  0  0  0  0
  6 19  2  0  0  0  0
  7 33  1  0  0  0  0
  7 34  1  0  0  0  0
  8 13  1  0  0  0  0
  8 15  1  0  0  0  0
  8 19  1  0  0  0  0
  9 14  1  0  0  0  0
  9 16  1  0  0  0  0
  9 18  1  0  0  0  0
 10 12  1  0  0  0  0
 10 13  1  0  0  0  0
 10 14  1  0  0  0  0
 10 35  1  0  0  0  0
 11 12  1  0  0  0  0
 11 15  1  0  0  0  0
 11 16  1  0  0  0  0
 11 36  1  0  0  0  0
 12 37  1  0  0  0  0
 12 38  1  0  0  0  0
 13 39  1  0  0  0  0
 13 40  1  0  0  0  0
 14 41  1  0  0  0  0
 14 42  1  0  0  0  0
 15 43  1  0  0  0  0
 15 44  1  0  0  0  0
 16 17  2  0  0  0  0
 17 21  1  0  0  0  0
 17 45  1  0  0  0  0
 18 20  1  0  0  0  0
 19 22  1  0  0  0  0
 20 21  2  0  0  0  0
 20 23  1  0  0  0  0
 21 46  1  0  0  0  0
 22 24  2  0  0  0  0
 22 25  1  0  0  0  0
 23 26  2  0  0  0  0
 23 27  1  0  0  0  0
 24 28  1  0  0  0  0
 24 47  1  0  0  0  0
 25 29  2  0  0  0  0
 25 48  1  0  0  0  0
 26 30  1  0  0  0  0
 26 49  1  0  0  0  0
 27 31  2  0  0  0  0
 27 50  1  0  0  0  0
 28 32  2  0  0  0  0
 28 51  1  0  0  0  0
 29 32  1  0  0  0  0
 29 52  1  0  0  0  0
 30 33  2  0  0  0  0
 30 53  1  0  0  0  0
 31 33  1  0  0  0  0
 31 54  1  0  0  0  0
M  END
> <PUBCHEM_COMPOUND_CID>
11912431

> <PUBCHEM_CONFORMER_RMSD>
0.8

> <PUBCHEM_CONFORMER_DIVERSEORDER>
1
18
11
14
16
13
20
10
2
17
9
3
15
12
5
19
8
6
4
7

> <PUBCHEM_MMFF94_PARTIAL_CHARGES>
42
1 -0.19
11 0.14
13 0.3
14 0.3
15 0.3
16 -0.03
17 -0.15
18 0.62
19 0.54
2 -0.34
20 -0.01
21 -0.15
22 0.09
23 0.03
24 -0.15
25 -0.15
26 -0.15
27 -0.15
28 -0.15
29 -0.15
3 -0.34
30 -0.15
31 -0.15
32 0.19
33 0.08
34 1.3
4 -0.34
45 0.15
46 0.15
47 0.15
48 0.15
49 0.15
5 -0.57
50 0.15
51 0.15
52 0.15
53 0.15
54 0.15
6 -0.57
7 -0.36
8 -0.66
9 -0.47

> <PUBCHEM_EFFECTIVE_ROTOR_COUNT>
6

> <PUBCHEM_PHARMACOPHORE_FEATURES>
8
1 5 acceptor
1 6 acceptor
1 7 acceptor
6 22 24 25 28 29 32 rings
6 23 26 27 30 31 33 rings
6 8 10 11 12 13 15 rings
6 9 10 11 12 14 16 rings
6 9 16 17 18 20 21 rings

> <PUBCHEM_HEAVY_ATOM_COUNT>
34

> <PUBCHEM_ATOM_DEF_STEREO_COUNT>
2

> <PUBCHEM_ATOM_UDEF_STEREO_COUNT>
0

> <PUBCHEM_BOND_DEF_STEREO_COUNT>
0

> <PUBCHEM_BOND_UDEF_STEREO_COUNT>
0

> <PUBCHEM_ISOTOPIC_ATOM_COUNT>
0

> <PUBCHEM_COMPONENT_COUNT>
1

> <PUBCHEM_CACTVS_TAUTO_COUNT>
1

> <PUBCHEM_CONFORMER_ID>
00B5C4EF00000001

> <PUBCHEM_MMFF94_ENERGY>
102.0163

> <PUBCHEM_FEATURE_SELFOVERLAP>
42.192

> <PUBCHEM_SHAPE_FINGERPRINT>
10165383 225 18041006159295530646
10190108 129 18339349774859390906
10483366 6 18338247046433154348
10674148 151 18059016215815258580
10675989 125 18129380569650298568
11421498 54 17899415286497684074
11578080 2 18191320453225146035
11796584 16 12613017354666892727
12107698 1 18270684156369457121
12422481 6 18271240530902541189
12633257 1 17897696942954086530
13965767 371 17629728324387982986
14251764 75 18047757288632427372
14849402 71 18408324406226332716
15336146 87 18187929439897174557
15439362 3 18195810902580781212
15475509 84 17325754890966373058
15950262 2 15838711980925244504
21033648 29 17531235142033692631
21792934 111 18187650155849688949
21860390 5 18341604937110131774
22223350 30 17749968755348466323
23559900 14 17060065804570048287
23569914 152 10732830408434123665
25147074 1 18059846312454124183
3411729 13 18342741861575673828
373842 8 18339358557741229357
394071 54 18411978065895425717
397830 11 18189063139633197803
474 4 18267008626231176590
5081480 168 17842313421381787166
5104073 3 18410299138264554171
513532 50 16415480480420314684
53794403 172 18263649617881546165
57527358 35 16197587057504055950
57724786 102 18411699928240439333
6086070 43 17901349404258836647
9896288 288 17397267608726987400

> <PUBCHEM_SHAPE_MULTIPOLES>
643.04
14.11
4.72
1.79
34.32
5
-0.22
3.24
-5.59
-8.42
0.75
-0.43
-0.33
-1.23

> <PUBCHEM_SHAPE_SELFOVERLAP>
1425.689

> <PUBCHEM_SHAPE_VOLUME>
342.7

> <PUBCHEM_COORDINATE_TYPE>
2
5
10

$$$$
