51137466
  -OEChem-12032416203D

 49 53  0     1  0  0  0  0  0999 V2000
    2.3440   -0.4232   -0.0856 O   0  0  0  0  0  0  0  0  0  0  0  0
   -6.3624    2.0250    1.1047 O   0  0  0  0  0  0  0  0  0  0  0  0
   -7.8180    0.2156    0.4604 O   0  0  0  0  0  0  0  0  0  0  0  0
    6.3602   -0.5842    0.7187 O   0  0  0  0  0  0  0  0  0  0  0  0
   -1.6717   -0.8981   -0.4101 N   0  0  1  0  0  0  0  0  0  0  0  0
    2.8358   -2.6035   -0.1792 N   0  0  0  0  0  0  0  0  0  0  0  0
    4.0177   -1.8942   -0.2834 N   0  0  0  0  0  0  0  0  0  0  0  0
    0.3938   -1.8945    0.0802 C   0  0  2  0  0  0  0  0  0  0  0  0
   -0.4057   -1.2469   -1.0584 C   0  0  0  0  0  0  0  0  0  0  0  0
   -0.2106   -1.3035    1.3658 C   0  0  0  0  0  0  0  0  0  0  0  0
   -1.2898   -0.3408    0.8875 C   0  0  0  0  0  0  0  0  0  0  0  0
   -2.4630    0.0324   -1.2015 C   0  0  0  0  0  0  0  0  0  0  0  0
    1.8860   -1.7048   -0.0655 C   0  0  0  0  0  0  0  0  0  0  0  0
   -3.9058    0.0482   -0.7715 C   0  0  0  0  0  0  0  0  0  0  0  0
   -4.3894    1.1117   -0.0056 C   0  0  0  0  0  0  0  0  0  0  0  0
   -4.7551   -1.0075   -1.1472 C   0  0  0  0  0  0  0  0  0  0  0  0
    3.6826   -0.6265   -0.2242 C   0  0  0  0  0  0  0  0  0  0  0  0
   -5.7189    1.0831    0.3625 C   0  0  0  0  0  0  0  0  0  0  0  0
   -6.0977   -1.0119   -0.7614 C   0  0  0  0  0  0  0  0  0  0  0  0
   -6.5501    0.0498   -0.0053 C   0  0  0  0  0  0  0  0  0  0  0  0
    4.4940    0.5547   -0.2815 C   0  0  0  0  0  0  0  0  0  0  0  0
   -7.6920    1.4690    1.1623 C   0  0  0  0  0  0  0  0  0  0  0  0
    5.8065    0.5447    0.1903 C   0  0  0  0  0  0  0  0  0  0  0  0
    3.9540    1.7243   -0.8161 C   0  0  0  0  0  0  0  0  0  0  0  0
    6.5792    1.7043    0.1275 C   0  0  0  0  0  0  0  0  0  0  0  0
    4.7266    2.8841   -0.8788 C   0  0  0  0  0  0  0  0  0  0  0  0
    6.0392    2.8742   -0.4070 C   0  0  0  0  0  0  0  0  0  0  0  0
    6.2105   -0.7814    2.1226 C   0  0  0  0  0  0  0  0  0  0  0  0
    0.1987   -2.9760    0.0819 H   0  0  0  0  0  0  0  0  0  0  0  0
    0.1004   -0.3556   -1.4523 H   0  0  0  0  0  0  0  0  0  0  0  0
   -0.5550   -1.9486   -1.8862 H   0  0  0  0  0  0  0  0  0  0  0  0
   -0.6621   -2.1095    1.9578 H   0  0  0  0  0  0  0  0  0  0  0  0
    0.5236   -0.7968    2.0010 H   0  0  0  0  0  0  0  0  0  0  0  0
   -0.8670    0.6677    0.7926 H   0  0  0  0  0  0  0  0  0  0  0  0
   -2.1250   -0.3058    1.5940 H   0  0  0  0  0  0  0  0  0  0  0  0
   -2.0394    1.0459   -1.1940 H   0  0  0  0  0  0  0  0  0  0  0  0
   -2.4517   -0.2740   -2.2572 H   0  0  0  0  0  0  0  0  0  0  0  0
   -3.7476    1.9333    0.2938 H   0  0  0  0  0  0  0  0  0  0  0  0
   -4.3738   -1.8328   -1.7438 H   0  0  0  0  0  0  0  0  0  0  0  0
   -6.7557   -1.8240   -1.0490 H   0  0  0  0  0  0  0  0  0  0  0  0
   -7.9610    1.3113    2.2131 H   0  0  0  0  0  0  0  0  0  0  0  0
   -8.3926    2.1889    0.7239 H   0  0  0  0  0  0  0  0  0  0  0  0
    2.9369    1.7610   -1.1991 H   0  0  0  0  0  0  0  0  0  0  0  0
    7.6028    1.7043    0.4923 H   0  0  0  0  0  0  0  0  0  0  0  0
    4.3070    3.7945   -1.2967 H   0  0  0  0  0  0  0  0  0  0  0  0
    6.6408    3.7770   -0.4564 H   0  0  0  0  0  0  0  0  0  0  0  0
    6.7380    0.0026    2.6753 H   0  0  0  0  0  0  0  0  0  0  0  0
    5.1539   -0.7932    2.4079 H   0  0  0  0  0  0  0  0  0  0  0  0
    6.6520   -1.7477    2.3813 H   0  0  0  0  0  0  0  0  0  0  0  0
  1 13  1  0  0  0  0
  1 17  1  0  0  0  0
  2 18  1  0  0  0  0
  2 22  1  0  0  0  0
  3 20  1  0  0  0  0
  3 22  1  0  0  0  0
  4 23  1  0  0  0  0
  4 28  1  0  0  0  0
  5  9  1  0  0  0  0
  5 11  1  0  0  0  0
  5 12  1  0  0  0  0
  6  7  1  0  0  0  0
  6 13  2  0  0  0  0
  7 17  2  0  0  0  0
  8  9  1  0  0  0  0
  8 10  1  0  0  0  0
  8 13  1  0  0  0  0
  8 29  1  0  0  0  0
  9 30  1  0  0  0  0
  9 31  1  0  0  0  0
 10 11  1  0  0  0  0
 10 32  1  0  0  0  0
 10 33  1  0  0  0  0
 11 34  1  0  0  0  0
 11 35  1  0  0  0  0
 12 14  1  0  0  0  0
 12 36  1  0  0  0  0
 12 37  1  0  0  0  0
 14 15  2  0  0  0  0
 14 16  1  0  0  0  0
 15 18  1  0  0  0  0
 15 38  1  0  0  0  0
 16 19  2  0  0  0  0
 16 39  1  0  0  0  0
 17 21  1  0  0  0  0
 18 20  2  0  0  0  0
 19 20  1  0  0  0  0
 19 40  1  0  0  0  0
 21 23  1  0  0  0  0
 21 24  2  0  0  0  0
 22 41  1  0  0  0  0
 22 42  1  0  0  0  0
 23 25  2  0  0  0  0
 24 26  1  0  0  0  0
 24 43  1  0  0  0  0
 25 27  1  0  0  0  0
 25 44  1  0  0  0  0
 26 27  2  0  0  0  0
 26 45  1  0  0  0  0
 27 46  1  0  0  0  0
 28 47  1  0  0  0  0
 28 48  1  0  0  0  0
 28 49  1  0  0  0  0
M  END
> <PUBCHEM_COMPOUND_CID>
51137466

> <PUBCHEM_CONFORMER_RMSD>
1.2

> <PUBCHEM_CONFORMER_DIVERSEORDER>
1
59
89
65
76
4
62
35
10
69
21
91
72
17
3
64
71
6
80
92
23
79
87
82
100
8
102
68
29
50
75
12
43
58
34
85
39
54
11
77
18
70
61
38
103
66
27
33
19
20
83
67
9
93
44
7
74
32
52
84
30
16
73
99
56
78
5
60
88
81
41
94
53
31
49
101
28
25
63
47
86
42
13
57
37
96
55
45
40
48
90
14
36
98
2
51
46
26
95
15
97
22
24

> <PUBCHEM_MMFF94_PARTIAL_CHARGES>
34
1 -0.28
11 0.27
12 0.41
13 0.3
14 -0.14
15 -0.15
16 -0.15
17 0.43
18 0.08
19 -0.15
2 -0.36
20 0.08
21 0.05
22 0.56
23 0.08
24 -0.15
25 -0.15
26 -0.15
27 -0.15
28 0.28
3 -0.36
38 0.15
39 0.15
4 -0.36
40 0.15
43 0.15
44 0.15
45 0.15
46 0.15
5 -0.81
6 -0.34
7 -0.34
8 0.18
9 0.27

> <PUBCHEM_EFFECTIVE_ROTOR_COUNT>
6.6

> <PUBCHEM_PHARMACOPHORE_FEATURES>
9
1 2 acceptor
1 3 acceptor
1 4 acceptor
1 5 cation
5 1 6 7 13 17 rings
5 2 3 18 20 22 rings
5 5 8 9 10 11 rings
6 14 15 16 18 19 20 rings
6 21 23 24 25 26 27 rings

> <PUBCHEM_HEAVY_ATOM_COUNT>
28

> <PUBCHEM_ATOM_DEF_STEREO_COUNT>
1

> <PUBCHEM_ATOM_UDEF_STEREO_COUNT>
0

> <PUBCHEM_BOND_DEF_STEREO_COUNT>
0

> <PUBCHEM_BOND_UDEF_STEREO_COUNT>
0

> <PUBCHEM_ISOTOPIC_ATOM_COUNT>
0

> <PUBCHEM_COMPONENT_COUNT>
1

> <PUBCHEM_CACTVS_TAUTO_COUNT>
1

> <PUBCHEM_CONFORMER_ID>
030C4BBA00000001

> <PUBCHEM_MMFF94_ENERGY>
74.8453

> <PUBCHEM_FEATURE_SELFOVERLAP>
45.829

> <PUBCHEM_SHAPE_FINGERPRINT>
10 15 17894915135274708641
10074138 170 16081940389438838163
10411042 1 17977102354706612134
10595046 47 18342173376000303575
10673678 19 18201726162555839126
11456790 92 18260543407860999184
11578821 258 18340488864638231569
11646440 116 17240483610788037940
117089 54 10738378621302410688
1200032 147 17969224602879997660
12236239 1 18131349696006020863
12760667 363 10087652502238868127
12821665 9 18340486794040923559
13167372 99 18411699876864251468
13533116 47 17313374588128435402
13690498 29 17130416003706649663
13955234 65 17968372321563378914
14394314 77 18341901792450138553
14849402 71 18338238279582385501
14856354 85 17846214506107532775
14933364 13 18271810103436634895
15183329 4 17060345136447488545
15188451 53 12612749129436923831
15357212 105 16953117571973950092
15419008 145 18188761727065280328
15475509 8 13973977493146426291
15685185 35 18193846070337188500
1577012 14 18413387665756791356
15840311 113 18339088086454036909
16760501 71 18334016115849174164
16989713 51 16844437423263553759
16994733 274 18342737408116555473
20157964 124 18409730656044926934
20715895 44 18410577318848023688
21033648 29 18191298485337579008
21298829 104 18340770442065825148
21307412 95 12679184942118793421
21585482 111 18336267830101942429
21641784 216 16343432713019205835
21792934 111 17312819343520228109
22122407 14 18341342174662695936
2215653 11 12103844561951076503
22224240 67 17821729438497324035
22956985 138 13480790362664365888
23081809 10 17846487111607641719
23522609 53 17845670178994994297
23576562 1 15697132163858500889
25269216 80 16271071786784479933
2747138 104 17531261538982035149
2838139 119 18333443248800273364
3014063 24 8430321220616466636
34797466 226 18202291273273501543
3711267 37 17489317369532647393
397830 11 17968391138173155531
4073 2 18335707169492384819
4340502 62 17458344134818915066
445580 126 18411975867315314456
465052 167 7853575716771774810
5104073 3 17967532414954270178
5372103 7 15768633456736628832
543368 44 18412262853083115053
5758199 1 18335704948782704807
5911458 16 18201446869760514713
5951187 136 18130234873616803316
59682541 35 17676775344582028569
59682541 52 11167936965758484942
6328613 192 18272934895748473233
6608658 132 17059795329151996609
68570916 9 18411695517367431823

> <PUBCHEM_SHAPE_MULTIPOLES>
537.81
23.19
2.59
1.25
16.69
0.88
-0.35
12.77
-4.98
-3.59
0.18
0.05
-0.1
-2.65

> <PUBCHEM_SHAPE_SELFOVERLAP>
1188.889

> <PUBCHEM_SHAPE_VOLUME>
291

> <PUBCHEM_COORDINATE_TYPE>
2
5
10

$$$$
