7051869
  -OEChem-12032416213D

 61 66  0     1  0  0  0  0  0999 V2000
   -1.4662    2.5306   -1.4405 O   0  0  0  0  0  0  0  0  0  0  0  0
   -3.0203   -1.1933    1.2462 O   0  0  0  0  0  0  0  0  0  0  0  0
    3.3072    1.2494   -0.6024 N   0  0  2  0  0  0  0  0  0  0  0  0
    0.3993    2.4357   -0.0370 N   0  0  0  0  0  0  0  0  0  0  0  0
    4.1833   -3.1292    0.1393 N   0  0  0  0  0  0  0  0  0  0  0  0
   -2.9483    0.8668    0.1685 N   0  0  0  0  0  0  0  0  0  0  0  0
   -7.5634   -0.8659   -0.7213 N   0  0  0  0  0  0  0  0  0  0  0  0
    2.5943    3.6526   -0.5546 C   0  0  1  0  0  0  0  0  0  0  0  0
    2.4059    2.2998    1.4780 C   0  0  2  0  0  0  0  0  0  0  0  0
    2.7572    3.6915    0.9591 C   0  0  0  0  0  0  0  0  0  0  0  0
    3.5338    2.5884   -1.1603 C   0  0  0  0  0  0  0  0  0  0  0  0
    3.3738    1.2610    0.8667 C   0  0  0  0  0  0  0  0  0  0  0  0
    1.1186    3.3941   -0.8877 C   0  0  0  0  0  0  0  0  0  0  0  0
    0.9681    1.9475    1.1436 C   0  0  0  0  0  0  0  0  0  0  0  0
    4.2491    0.2826   -1.1611 C   0  0  0  0  0  0  0  0  0  0  0  0
    0.2530    1.1583    1.9627 C   0  0  0  0  0  0  0  0  0  0  0  0
   -0.9185    2.1131   -0.4192 C   0  0  0  0  0  0  0  0  0  0  0  0
    3.9377   -1.1029   -0.6669 C   0  0  0  0  0  0  0  0  0  0  0  0
   -1.6738    1.2126    0.5087 C   0  0  0  0  0  0  0  0  0  0  0  0
   -1.0939    0.7840    1.6349 C   0  0  0  0  0  0  0  0  0  0  0  0
    2.6560   -1.6804   -0.5996 C   0  0  0  0  0  0  0  0  0  0  0  0
    4.8612   -1.9935   -0.2143 C   0  0  0  0  0  0  0  0  0  0  0  0
    2.8347   -2.9664   -0.0853 C   0  0  0  0  0  0  0  0  0  0  0  0
    1.3521   -1.2534   -0.9202 C   0  0  0  0  0  0  0  0  0  0  0  0
    1.7704   -3.8502    0.1255 C   0  0  0  0  0  0  0  0  0  0  0  0
    4.8091   -4.3201    0.6727 C   0  0  0  0  0  0  0  0  0  0  0  0
    0.2778   -2.1268   -0.7147 C   0  0  0  0  0  0  0  0  0  0  0  0
   -3.5488   -0.3221    0.5598 C   0  0  0  0  0  0  0  0  0  0  0  0
    0.4860   -3.4048   -0.1998 C   0  0  0  0  0  0  0  0  0  0  0  0
   -4.9526   -0.5131    0.1111 C   0  0  0  0  0  0  0  0  0  0  0  0
   -5.7877   -1.3093    0.8582 C   0  0  0  0  0  0  0  0  0  0  0  0
   -5.3755    0.1130   -1.0370 C   0  0  0  0  0  0  0  0  0  0  0  0
   -7.0868   -1.4541    0.3987 C   0  0  0  0  0  0  0  0  0  0  0  0
   -6.6931   -0.0956   -1.4119 C   0  0  0  0  0  0  0  0  0  0  0  0
    2.8783    4.6237   -0.9790 H   0  0  0  0  0  0  0  0  0  0  0  0
    2.5424    2.2995    2.5675 H   0  0  0  0  0  0  0  0  0  0  0  0
    2.1046    4.4538    1.4027 H   0  0  0  0  0  0  0  0  0  0  0  0
    3.7878    3.9533    1.2281 H   0  0  0  0  0  0  0  0  0  0  0  0
    3.3810    2.5629   -2.2464 H   0  0  0  0  0  0  0  0  0  0  0  0
    4.5736    2.9001   -0.9910 H   0  0  0  0  0  0  0  0  0  0  0  0
    4.3956    1.4944    1.1978 H   0  0  0  0  0  0  0  0  0  0  0  0
    3.1206    0.2874    1.3003 H   0  0  0  0  0  0  0  0  0  0  0  0
    0.5688    4.3408   -0.7952 H   0  0  0  0  0  0  0  0  0  0  0  0
    1.0079    3.0831   -1.9342 H   0  0  0  0  0  0  0  0  0  0  0  0
    5.2850    0.5502   -0.9143 H   0  0  0  0  0  0  0  0  0  0  0  0
    4.1684    0.2698   -2.2558 H   0  0  0  0  0  0  0  0  0  0  0  0
    0.6742    0.7635    2.8814 H   0  0  0  0  0  0  0  0  0  0  0  0
   -1.5909    0.1808    2.3847 H   0  0  0  0  0  0  0  0  0  0  0  0
    5.9360   -1.9244   -0.1111 H   0  0  0  0  0  0  0  0  0  0  0  0
   -3.3889    1.4663   -0.5208 H   0  0  0  0  0  0  0  0  0  0  0  0
    1.1628   -0.2709   -1.3408 H   0  0  0  0  0  0  0  0  0  0  0  0
    1.9257   -4.8464    0.5260 H   0  0  0  0  0  0  0  0  0  0  0  0
    4.5972   -5.1529   -0.0027 H   0  0  0  0  0  0  0  0  0  0  0  0
    5.8890   -4.1672    0.7441 H   0  0  0  0  0  0  0  0  0  0  0  0
    4.3960   -4.5111    1.6664 H   0  0  0  0  0  0  0  0  0  0  0  0
   -0.7296   -1.8045   -0.9645 H   0  0  0  0  0  0  0  0  0  0  0  0
   -0.3630   -4.0667   -0.0489 H   0  0  0  0  0  0  0  0  0  0  0  0
   -5.4724   -1.8059    1.7684 H   0  0  0  0  0  0  0  0  0  0  0  0
   -4.7480    0.7154   -1.6809 H   0  0  0  0  0  0  0  0  0  0  0  0
   -7.8018   -2.0663    0.9384 H   0  0  0  0  0  0  0  0  0  0  0  0
   -7.0934    0.3585   -2.3124 H   0  0  0  0  0  0  0  0  0  0  0  0
  1 17  2  0  0  0  0
  2 28  2  0  0  0  0
  3 11  1  0  0  0  0
  3 12  1  0  0  0  0
  3 15  1  0  0  0  0
  4 13  1  0  0  0  0
  4 14  1  0  0  0  0
  4 17  1  0  0  0  0
  5 22  1  0  0  0  0
  5 23  1  0  0  0  0
  5 26  1  0  0  0  0
  6 19  1  0  0  0  0
  6 28  1  0  0  0  0
  6 50  1  0  0  0  0
  7 33  2  0  0  0  0
  7 34  1  0  0  0  0
  8 10  1  0  0  0  0
  8 11  1  0  0  0  0
  8 13  1  0  0  0  0
  8 35  1  0  0  0  0
  9 10  1  0  0  0  0
  9 12  1  0  0  0  0
  9 14  1  0  0  0  0
  9 36  1  0  0  0  0
 10 37  1  0  0  0  0
 10 38  1  0  0  0  0
 11 39  1  0  0  0  0
 11 40  1  0  0  0  0
 12 41  1  0  0  0  0
 12 42  1  0  0  0  0
 13 43  1  0  0  0  0
 13 44  1  0  0  0  0
 14 16  2  0  0  0  0
 15 18  1  0  0  0  0
 15 45  1  0  0  0  0
 15 46  1  0  0  0  0
 16 20  1  0  0  0  0
 16 47  1  0  0  0  0
 17 19  1  0  0  0  0
 18 21  1  0  0  0  0
 18 22  2  0  0  0  0
 19 20  2  0  0  0  0
 20 48  1  0  0  0  0
 21 23  1  0  0  0  0
 21 24  2  0  0  0  0
 22 49  1  0  0  0  0
 23 25  2  0  0  0  0
 24 27  1  0  0  0  0
 24 51  1  0  0  0  0
 25 29  1  0  0  0  0
 25 52  1  0  0  0  0
 26 53  1  0  0  0  0
 26 54  1  0  0  0  0
 26 55  1  0  0  0  0
 27 29  2  0  0  0  0
 27 56  1  0  0  0  0
 28 30  1  0  0  0  0
 29 57  1  0  0  0  0
 30 31  2  0  0  0  0
 30 32  1  0  0  0  0
 31 33  1  0  0  0  0
 31 58  1  0  0  0  0
 32 34  2  0  0  0  0
 32 59  1  0  0  0  0
 33 60  1  0  0  0  0
 34 61  1  0  0  0  0
M  END
> <PUBCHEM_COMPOUND_CID>
7051869

> <PUBCHEM_CONFORMER_RMSD>
0.8

> <PUBCHEM_CONFORMER_DIVERSEORDER>
1
25
14
10
26
21
9
16
8
19
6
22
2
27
23
11
20
17
12
5
7
24
4
18
15
13
3

> <PUBCHEM_MMFF94_PARTIAL_CHARGES>
43
1 -0.57
11 0.27
12 0.27
13 0.3
14 -0.03
15 0.45
16 -0.15
17 0.62
18 -0.18
19 0.12
2 -0.57
20 -0.15
22 -0.3
23 -0.15
24 -0.15
25 -0.15
26 0.26
27 -0.15
28 0.54
29 -0.15
3 -0.81
30 0.09
31 -0.15
32 -0.15
33 0.16
34 0.16
4 -0.47
47 0.15
48 0.15
49 0.15
5 0.05
50 0.37
51 0.15
52 0.15
56 0.15
57 0.15
58 0.15
59 0.15
6 -0.54
60 0.15
61 0.15
7 -0.62
9 0.14

> <PUBCHEM_EFFECTIVE_ROTOR_COUNT>
6

> <PUBCHEM_PHARMACOPHORE_FEATURES>
12
1 1 acceptor
1 2 acceptor
1 3 cation
1 5 cation
1 6 donor
1 7 acceptor
5 5 18 21 22 23 rings
6 21 23 24 25 27 29 rings
6 3 8 9 10 11 12 rings
6 4 14 16 17 19 20 rings
6 4 8 9 10 13 14 rings
6 7 30 31 32 33 34 rings

> <PUBCHEM_HEAVY_ATOM_COUNT>
34

> <PUBCHEM_ATOM_DEF_STEREO_COUNT>
2

> <PUBCHEM_ATOM_UDEF_STEREO_COUNT>
0

> <PUBCHEM_BOND_DEF_STEREO_COUNT>
0

> <PUBCHEM_BOND_UDEF_STEREO_COUNT>
0

> <PUBCHEM_ISOTOPIC_ATOM_COUNT>
0

> <PUBCHEM_COMPONENT_COUNT>
1

> <PUBCHEM_CACTVS_TAUTO_COUNT>
2

> <PUBCHEM_CONFORMER_ID>
006B9A5D00000001

> <PUBCHEM_MMFF94_ENERGY>
94.0218

> <PUBCHEM_FEATURE_SELFOVERLAP>
62.541

> <PUBCHEM_SHAPE_FINGERPRINT>
10675989 125 18057607766082060505
11204353 107 18266185109266307643
11828532 37 17095813225802230819
11963148 33 18053095414060549895
11973864 48 18114743855131992695
12166972 35 18188217489661869110
12645989 146 18198348359862624334
12717326 68 17685759243366188362
13533116 47 18201723998304005985
1361 2 18265336281814420205
14068700 675 18130223744438030666
14931854 50 18269293342990515660
15001296 14 17845930857428749807
15927050 60 17983294017301998086
17138139 8 17343494802563597943
17492 54 18263383498056100628
17909252 39 18408603656378829073
19315092 285 17988924461623352681
19319366 153 18200870811112679788
20771845 171 18041845137642427397
20775438 99 18264756843587571107
20775530 9 18120674439180909378
21033650 10 16588585284895161261
21133410 171 17174583110115177315
21703447 108 18202560700382325968
23559900 14 18334574642650730283
23569914 152 17759772903344008077
27425 322 16952810824634046401
3298306 158 18196655314039805643
3380486 145 17833290635121490816
345986 75 17632581522021724953
3882209 13 17468168082425008267
397830 11 10087634945256892821
439807 62 18409731721449952527
46194498 28 18040994085393758557
463206 1 18058728138745144463
469060 322 18124888854212649738
484989 97 18266475371603063942
513532 50 17603581971363449608
5265222 85 17616823570491663077
5309563 4 18340207371646980604
5951187 136 15575003909058951038
6086070 43 16917347027249385361
6669772 16 18269831089770050784

> <PUBCHEM_SHAPE_MULTIPOLES>
663.06
13.82
5.44
1.41
30.74
1.26
0.23
8.53
-2.48
-9.1
0.12
0.21
-0.7
0.16

> <PUBCHEM_SHAPE_SELFOVERLAP>
1480.575

> <PUBCHEM_SHAPE_VOLUME>
344.7

> <PUBCHEM_COORDINATE_TYPE>
2
5
10

$$$$
