11885045
  -OEChem-12032416173D

 76 79  0     1  0  0  0  0  0999 V2000
   -0.8594    3.2192   -0.4118 S   0  0  0  0  0  0  0  0  0  0  0  0
   -7.3474   -1.1983   -0.2802 O   0  0  0  0  0  0  0  0  0  0  0  0
   -7.4632    0.8368    0.9805 O   0  0  0  0  0  0  0  0  0  0  0  0
    0.3896   -2.2892   -1.4062 O   0  0  0  0  0  0  0  0  0  0  0  0
    3.2670    1.0721   -0.6920 O   0  0  0  0  0  0  0  0  0  0  0  0
    6.2044   -3.5396    1.5520 O   0  0  0  0  0  0  0  0  0  0  0  0
    0.3223    0.9181   -0.3833 N   0  0  0  0  0  0  0  0  0  0  0  0
    1.6408   -2.3262    0.5815 N   0  0  0  0  0  0  0  0  0  0  0  0
    1.7270    2.8587   -0.6487 N   0  0  0  0  0  0  0  0  0  0  0  0
   -3.0842   -0.6754    0.4679 C   0  0  2  0  0  0  0  0  0  0  0  0
   -3.8935    0.4363   -0.3349 C   0  0  1  0  0  0  0  0  0  0  0  0
   -5.4674    0.3775   -0.2495 C   0  0  1  0  0  0  0  0  0  0  0  0
   -1.5899   -0.7022   -0.0978 C   0  0  1  0  0  0  0  0  0  0  0  0
   -3.7271   -2.0640    0.2159 C   0  0  0  0  0  0  0  0  0  0  0  0
   -5.9385   -1.0865   -0.4788 C   0  0  1  0  0  0  0  0  0  0  0  0
   -3.3049    1.8563   -0.0899 C   0  0  0  0  0  0  0  0  0  0  0  0
   -5.2345   -2.0928    0.4247 C   0  0  0  0  0  0  0  0  0  0  0  0
   -3.0525   -0.4119    1.9936 C   0  0  0  0  0  0  0  0  0  0  0  0
   -1.0321    0.6925   -0.2214 C   0  0  0  0  0  0  0  0  0  0  0  0
   -6.0598    0.9483    1.0579 C   0  0  0  0  0  0  0  0  0  0  0  0
   -6.0699    1.2416   -1.3934 C   0  0  0  0  0  0  0  0  0  0  0  0
   -1.8208    1.8249   -0.2339 C   0  0  0  0  0  0  0  0  0  0  0  0
   -0.6333   -1.6237    0.6708 C   0  0  0  0  0  0  0  0  0  0  0  0
    0.5063   -2.1169   -0.1974 C   0  0  0  0  0  0  0  0  0  0  0  0
    0.5302    2.2128   -0.4862 C   0  0  0  0  0  0  0  0  0  0  0  0
    2.9096   -2.7832    0.1523 C   0  0  0  0  0  0  0  0  0  0  0  0
    2.9989    2.2693   -0.7406 C   0  0  0  0  0  0  0  0  0  0  0  0
    4.1125    3.2959   -0.9117 C   0  0  0  0  0  0  0  0  0  0  0  0
    4.7910    3.7417    0.4057 C   0  0  0  0  0  0  0  0  0  0  0  0
    3.9442   -2.9379    1.0751 C   0  0  0  0  0  0  0  0  0  0  0  0
    3.1256   -3.0787   -1.1936 C   0  0  0  0  0  0  0  0  0  0  0  0
    5.4021    2.5412    1.1475 C   0  0  0  0  0  0  0  0  0  0  0  0
    3.8010    4.4619    1.3357 C   0  0  0  0  0  0  0  0  0  0  0  0
    5.9251    4.7230    0.0493 C   0  0  0  0  0  0  0  0  0  0  0  0
    5.1946   -3.3883    0.6518 C   0  0  0  0  0  0  0  0  0  0  0  0
    4.3761   -3.5291   -1.6170 C   0  0  0  0  0  0  0  0  0  0  0  0
    5.4104   -3.6839   -0.6942 C   0  0  0  0  0  0  0  0  0  0  0  0
   -3.6753    0.2098   -1.3931 H   0  0  0  0  0  0  0  0  0  0  0  0
   -1.6700   -1.0640   -1.1334 H   0  0  0  0  0  0  0  0  0  0  0  0
   -3.5193   -2.3834   -0.8140 H   0  0  0  0  0  0  0  0  0  0  0  0
   -3.2802   -2.8240    0.8669 H   0  0  0  0  0  0  0  0  0  0  0  0
   -5.7452   -1.3632   -1.5238 H   0  0  0  0  0  0  0  0  0  0  0  0
   -3.7214    2.5666   -0.8120 H   0  0  0  0  0  0  0  0  0  0  0  0
   -3.5587    2.2177    0.9123 H   0  0  0  0  0  0  0  0  0  0  0  0
   -5.4947   -1.9199    1.4748 H   0  0  0  0  0  0  0  0  0  0  0  0
   -5.6082   -3.1009    0.2034 H   0  0  0  0  0  0  0  0  0  0  0  0
   -2.4691   -1.1784    2.5157 H   0  0  0  0  0  0  0  0  0  0  0  0
   -4.0385   -0.4461    2.4520 H   0  0  0  0  0  0  0  0  0  0  0  0
   -2.6025    0.5527    2.2442 H   0  0  0  0  0  0  0  0  0  0  0  0
   -5.7441    0.4022    1.9430 H   0  0  0  0  0  0  0  0  0  0  0  0
   -5.8071    2.0044    1.1924 H   0  0  0  0  0  0  0  0  0  0  0  0
   -7.1527    1.1065   -1.4932 H   0  0  0  0  0  0  0  0  0  0  0  0
   -5.8936    2.3103   -1.2330 H   0  0  0  0  0  0  0  0  0  0  0  0
   -5.6287    0.9742   -2.3606 H   0  0  0  0  0  0  0  0  0  0  0  0
   -0.2468   -1.1105    1.5601 H   0  0  0  0  0  0  0  0  0  0  0  0
   -1.1400   -2.5310    1.0149 H   0  0  0  0  0  0  0  0  0  0  0  0
   -7.6013   -2.1156   -0.4792 H   0  0  0  0  0  0  0  0  0  0  0  0
   -7.8291    1.2069    1.8019 H   0  0  0  0  0  0  0  0  0  0  0  0
    1.5725   -2.1427    1.5800 H   0  0  0  0  0  0  0  0  0  0  0  0
    1.6614    3.8717   -0.7032 H   0  0  0  0  0  0  0  0  0  0  0  0
    4.8546    2.8488   -1.5865 H   0  0  0  0  0  0  0  0  0  0  0  0
    3.7132    4.1694   -1.4434 H   0  0  0  0  0  0  0  0  0  0  0  0
    3.7764   -2.7072    2.1246 H   0  0  0  0  0  0  0  0  0  0  0  0
    2.3759   -2.9835   -1.9662 H   0  0  0  0  0  0  0  0  0  0  0  0
    5.9716    2.8688    2.0250 H   0  0  0  0  0  0  0  0  0  0  0  0
    4.6314    1.8493    1.5032 H   0  0  0  0  0  0  0  0  0  0  0  0
    6.0851    1.9814    0.4989 H   0  0  0  0  0  0  0  0  0  0  0  0
    3.3201    5.3038    0.8255 H   0  0  0  0  0  0  0  0  0  0  0  0
    4.3095    4.8576    2.2224 H   0  0  0  0  0  0  0  0  0  0  0  0
    3.0144    3.7869    1.6889 H   0  0  0  0  0  0  0  0  0  0  0  0
    6.6689    4.2492   -0.6012 H   0  0  0  0  0  0  0  0  0  0  0  0
    5.5359    5.6039   -0.4739 H   0  0  0  0  0  0  0  0  0  0  0  0
    6.4455    5.0734    0.9479 H   0  0  0  0  0  0  0  0  0  0  0  0
    4.5455   -3.7593   -2.6649 H   0  0  0  0  0  0  0  0  0  0  0  0
    6.3823   -4.0350   -1.0300 H   0  0  0  0  0  0  0  0  0  0  0  0
    5.8803   -3.2903    2.4345 H   0  0  0  0  0  0  0  0  0  0  0  0
  1 22  1  0  0  0  0
  1 25  1  0  0  0  0
  2 15  1  0  0  0  0
  2 57  1  0  0  0  0
  3 20  1  0  0  0  0
  3 58  1  0  0  0  0
  4 24  2  0  0  0  0
  5 27  2  0  0  0  0
  6 35  1  0  0  0  0
  6 76  1  0  0  0  0
  7 19  1  0  0  0  0
  7 25  2  0  0  0  0
  8 24  1  0  0  0  0
  8 26  1  0  0  0  0
  8 59  1  0  0  0  0
  9 25  1  0  0  0  0
  9 27  1  0  0  0  0
  9 60  1  0  0  0  0
 10 11  1  0  0  0  0
 10 13  1  0  0  0  0
 10 14  1  0  0  0  0
 10 18  1  0  0  0  0
 11 12  1  0  0  0  0
 11 16  1  0  0  0  0
 11 38  1  0  0  0  0
 12 15  1  0  0  0  0
 12 20  1  0  0  0  0
 12 21  1  0  0  0  0
 13 19  1  0  0  0  0
 13 23  1  0  0  0  0
 13 39  1  0  0  0  0
 14 17  1  0  0  0  0
 14 40  1  0  0  0  0
 14 41  1  0  0  0  0
 15 17  1  0  0  0  0
 15 42  1  0  0  0  0
 16 22  1  0  0  0  0
 16 43  1  0  0  0  0
 16 44  1  0  0  0  0
 17 45  1  0  0  0  0
 17 46  1  0  0  0  0
 18 47  1  0  0  0  0
 18 48  1  0  0  0  0
 18 49  1  0  0  0  0
 19 22  2  0  0  0  0
 20 50  1  0  0  0  0
 20 51  1  0  0  0  0
 21 52  1  0  0  0  0
 21 53  1  0  0  0  0
 21 54  1  0  0  0  0
 23 24  1  0  0  0  0
 23 55  1  0  0  0  0
 23 56  1  0  0  0  0
 26 30  2  0  0  0  0
 26 31  1  0  0  0  0
 27 28  1  0  0  0  0
 28 29  1  0  0  0  0
 28 61  1  0  0  0  0
 28 62  1  0  0  0  0
 29 32  1  0  0  0  0
 29 33  1  0  0  0  0
 29 34  1  0  0  0  0
 30 35  1  0  0  0  0
 30 63  1  0  0  0  0
 31 36  2  0  0  0  0
 31 64  1  0  0  0  0
 32 65  1  0  0  0  0
 32 66  1  0  0  0  0
 32 67  1  0  0  0  0
 33 68  1  0  0  0  0
 33 69  1  0  0  0  0
 33 70  1  0  0  0  0
 34 71  1  0  0  0  0
 34 72  1  0  0  0  0
 34 73  1  0  0  0  0
 35 37  2  0  0  0  0
 36 37  1  0  0  0  0
 36 74  1  0  0  0  0
 37 75  1  0  0  0  0
M  END
> <PUBCHEM_COMPOUND_CID>
11885045

> <PUBCHEM_CONFORMER_RMSD>
1

> <PUBCHEM_CONFORMER_DIVERSEORDER>
1
55
76
70
47
38
9
66
15
80
74
53
68
61
65
7
30
43
82
50
71
78
58
56
57
59
34
8
19
51
41
79
67
75
63
40
46
54
25
20
52
11
42
23
69
62
48
22
64
60
36
77
10
13
33
49
29
24
12
3
81
31
44
35
45
27
72
21
73
14
32
28
17
5
16
18
26
6
39
4
37
2

> <PUBCHEM_MMFF94_PARTIAL_CHARGES>
35
1 -0.08
13 0.18
15 0.28
16 0.18
19 0.05
2 -0.68
20 0.28
22 -0.14
23 0.06
24 0.57
25 0.44
26 0.12
27 0.57
28 0.06
3 -0.68
30 -0.15
31 -0.15
35 0.08
36 -0.15
37 -0.15
4 -0.57
5 -0.57
57 0.4
58 0.4
59 0.37
6 -0.53
60 0.37
63 0.15
64 0.15
7 -0.57
74 0.15
75 0.15
76 0.45
8 -0.55
9 -0.49

> <PUBCHEM_EFFECTIVE_ROTOR_COUNT>
10.2

> <PUBCHEM_PHARMACOPHORE_FEATURES>
14
1 2 acceptor
1 2 donor
1 3 acceptor
1 3 donor
1 4 acceptor
1 5 acceptor
1 6 donor
1 8 donor
1 9 donor
4 29 32 33 34 hydrophobe
5 1 7 19 22 25 rings
6 10 11 12 14 15 17 rings
6 10 11 13 16 19 22 rings
6 26 30 31 35 36 37 rings

> <PUBCHEM_HEAVY_ATOM_COUNT>
37

> <PUBCHEM_ATOM_DEF_STEREO_COUNT>
5

> <PUBCHEM_ATOM_UDEF_STEREO_COUNT>
0

> <PUBCHEM_BOND_DEF_STEREO_COUNT>
0

> <PUBCHEM_BOND_UDEF_STEREO_COUNT>
0

> <PUBCHEM_ISOTOPIC_ATOM_COUNT>
0

> <PUBCHEM_COMPONENT_COUNT>
1

> <PUBCHEM_CACTVS_TAUTO_COUNT>
39

> <PUBCHEM_CONFORMER_ID>
00B559F500000001

> <PUBCHEM_MMFF94_ENERGY>
120.3248

> <PUBCHEM_FEATURE_SELFOVERLAP>
71.193

> <PUBCHEM_SHAPE_FINGERPRINT>
10032420 55 17315354726575167106
10050765 1 18410292485180910029
10290309 65 18338505456898038340
11135926 11 18338507663745740357
12107698 1 18336545993347026955
12156800 1 15286180780244368638
12166972 35 18200030629790032682
12677640 9 17981324482771388464
12788726 201 17826232883189562411
12857493 111 18196085551773153789
12977781 61 17677912277490111899
13540713 4 18187087269697836715
14068700 675 18264489494562494303
14725015 67 18115584825261669690
15200665 1 17547571938875172018
15264996 44 18342746200463145686
15351339 4 18262252024004595862
15400415 2 17977664539507105748
15815584 197 18119270555858023151
15927050 60 18196654218839378910
15968369 26 18042135425950103582
20721686 56 18334298643504374490
21033648 29 17840298145201990544
21133665 82 18049729818116732804
21344244 246 18337664330607473071
21360443 120 18262522631965188684
21792965 2 18043523017814190147
22311459 1 18048877390997253085
23559900 14 18338229371814386795
244849 19 17750536098831554179
249999 5 18410855490794462524
3411729 13 18337109063712084506
4017518 198 18126012809206046236
4280585 95 18263358093177202351
5104073 3 18410586084939676315
5171179 24 18337108943363647764
5385378 56 18338524135272445617
6669772 16 18340772666736831708
6700243 42 17340147554557591806
9961470 85 18339357599952141722

> <PUBCHEM_SHAPE_MULTIPOLES>
721
17.4
6.68
1.3
12.83
1.54
-0.17
-0.55
-2.1
-17.66
-0.09
-0.49
-0.33
0.86

> <PUBCHEM_SHAPE_SELFOVERLAP>
1514.427

> <PUBCHEM_SHAPE_VOLUME>
410.2

> <PUBCHEM_COORDINATE_TYPE>
2
5
10

$$$$
