75368527
  -OEChem-12032416393D

 48 50  0     1  0  0  0  0  0999 V2000
    4.6507   -1.1341    0.9794 O   0  0  0  0  0  0  0  0  0  0  0  0
    5.6218    1.1825   -1.0121 O   0  0  0  0  0  0  0  0  0  0  0  0
   -1.8168   -3.1493   -0.4053 O   0  0  0  0  0  0  0  0  0  0  0  0
    2.3286   -0.9945    0.6488 N   0  0  0  0  0  0  0  0  0  0  0  0
    3.4879    0.9155    0.8903 N   0  0  0  0  0  0  0  0  0  0  0  0
   -0.1513   -1.5401   -0.4857 N   0  0  0  0  0  0  0  0  0  0  0  0
   -2.4295   -0.9431   -0.2819 N   0  0  0  0  0  0  0  0  0  0  0  0
    1.3171    0.0494    0.6663 C   0  0  1  0  0  0  0  0  0  0  0  0
    2.1284    1.3409    0.6064 C   0  0  0  0  0  0  0  0  0  0  0  0
    0.3393   -0.1465   -0.4884 C   0  0  0  0  0  0  0  0  0  0  0  0
    1.9310   -2.3869    0.5301 C   0  0  0  0  0  0  0  0  0  0  0  0
    0.9161   -2.5472   -0.6014 C   0  0  0  0  0  0  0  0  0  0  0  0
    3.6187   -0.4872    0.8589 C   0  0  0  0  0  0  0  0  0  0  0  0
    4.5716    1.8619    1.0359 C   0  0  0  0  0  0  0  0  0  0  0  0
   -1.4878   -1.9583   -0.3938 C   0  0  0  0  0  0  0  0  0  0  0  0
    5.1071    2.3081   -0.3124 C   0  0  0  0  0  0  0  0  0  0  0  0
   -3.8453   -1.2159   -0.1728 C   0  0  0  0  0  0  0  0  0  0  0  0
   -4.6537    0.0446   -0.0640 C   0  0  0  0  0  0  0  0  0  0  0  0
    6.1414    1.5512   -2.2822 C   0  0  0  0  0  0  0  0  0  0  0  0
   -4.9290    0.5909    1.1895 C   0  0  0  0  0  0  0  0  0  0  0  0
   -5.1294    0.6693   -1.2168 C   0  0  0  0  0  0  0  0  0  0  0  0
   -5.6802    1.7620    1.2902 C   0  0  0  0  0  0  0  0  0  0  0  0
   -5.8806    1.8403   -1.1162 C   0  0  0  0  0  0  0  0  0  0  0  0
   -6.1560    2.3866    0.1373 C   0  0  0  0  0  0  0  0  0  0  0  0
    0.7952   -0.0321    1.6283 H   0  0  0  0  0  0  0  0  0  0  0  0
    2.1087    1.8048   -0.3848 H   0  0  0  0  0  0  0  0  0  0  0  0
    1.7985    2.0664    1.3560 H   0  0  0  0  0  0  0  0  0  0  0  0
    0.8425   -0.0012   -1.4529 H   0  0  0  0  0  0  0  0  0  0  0  0
   -0.4507    0.6002   -0.4318 H   0  0  0  0  0  0  0  0  0  0  0  0
    1.4814   -2.6717    1.4881 H   0  0  0  0  0  0  0  0  0  0  0  0
    2.8137   -3.0127    0.3668 H   0  0  0  0  0  0  0  0  0  0  0  0
    1.4006   -2.3880   -1.5723 H   0  0  0  0  0  0  0  0  0  0  0  0
    0.5097   -3.5629   -0.5973 H   0  0  0  0  0  0  0  0  0  0  0  0
    5.3719    1.3630    1.5939 H   0  0  0  0  0  0  0  0  0  0  0  0
    4.2163    2.7147    1.6228 H   0  0  0  0  0  0  0  0  0  0  0  0
    4.3138    2.7772   -0.9058 H   0  0  0  0  0  0  0  0  0  0  0  0
    5.9090    3.0396   -0.1598 H   0  0  0  0  0  0  0  0  0  0  0  0
   -2.1498    0.0266   -0.2454 H   0  0  0  0  0  0  0  0  0  0  0  0
   -4.0062   -1.8580    0.7018 H   0  0  0  0  0  0  0  0  0  0  0  0
   -4.1524   -1.8017   -1.0476 H   0  0  0  0  0  0  0  0  0  0  0  0
    6.5230    0.6514   -2.7721 H   0  0  0  0  0  0  0  0  0  0  0  0
    6.9649    2.2628   -2.1683 H   0  0  0  0  0  0  0  0  0  0  0  0
    5.3541    1.9820   -2.9083 H   0  0  0  0  0  0  0  0  0  0  0  0
   -4.5623    0.1144    2.0948 H   0  0  0  0  0  0  0  0  0  0  0  0
   -4.9200    0.2542   -2.1991 H   0  0  0  0  0  0  0  0  0  0  0  0
   -5.8943    2.1878    2.2662 H   0  0  0  0  0  0  0  0  0  0  0  0
   -6.2506    2.3270   -2.0138 H   0  0  0  0  0  0  0  0  0  0  0  0
   -6.7407    3.2985    0.2157 H   0  0  0  0  0  0  0  0  0  0  0  0
  1 13  2  0  0  0  0
  2 16  1  0  0  0  0
  2 19  1  0  0  0  0
  3 15  2  0  0  0  0
  4  8  1  0  0  0  0
  4 11  1  0  0  0  0
  4 13  1  0  0  0  0
  5  9  1  0  0  0  0
  5 13  1  0  0  0  0
  5 14  1  0  0  0  0
  6 10  1  0  0  0  0
  6 12  1  0  0  0  0
  6 15  1  0  0  0  0
  7 15  1  0  0  0  0
  7 17  1  0  0  0  0
  7 38  1  0  0  0  0
  8  9  1  0  0  0  0
  8 10  1  0  0  0  0
  8 25  1  0  0  0  0
  9 26  1  0  0  0  0
  9 27  1  0  0  0  0
 10 28  1  0  0  0  0
 10 29  1  0  0  0  0
 11 12  1  0  0  0  0
 11 30  1  0  0  0  0
 11 31  1  0  0  0  0
 12 32  1  0  0  0  0
 12 33  1  0  0  0  0
 14 16  1  0  0  0  0
 14 34  1  0  0  0  0
 14 35  1  0  0  0  0
 16 36  1  0  0  0  0
 16 37  1  0  0  0  0
 17 18  1  0  0  0  0
 17 39  1  0  0  0  0
 17 40  1  0  0  0  0
 18 20  2  0  0  0  0
 18 21  1  0  0  0  0
 19 41  1  0  0  0  0
 19 42  1  0  0  0  0
 19 43  1  0  0  0  0
 20 22  1  0  0  0  0
 20 44  1  0  0  0  0
 21 23  2  0  0  0  0
 21 45  1  0  0  0  0
 22 24  2  0  0  0  0
 22 46  1  0  0  0  0
 23 24  1  0  0  0  0
 23 47  1  0  0  0  0
 24 48  1  0  0  0  0
M  END
> <PUBCHEM_COMPOUND_CID>
75368527

> <PUBCHEM_CONFORMER_RMSD>
0.8

> <PUBCHEM_CONFORMER_DIVERSEORDER>
1
144
208
27
141
201
172
197
110
118
107
68
61
54
207
188
52
134
98
212
165
50
142
202
23
138
199
62
198
21
210
178
143
75
101
28
168
86
119
177
64
5
133
117
116
130
69
89
83
185
25
148
43
16
166
15
137
106
191
125
156
11
37
154
88
80
173
139
164
32
35
189
169
176
120
206
140
181
9
174
92
96
2
112
79
170
70
59
38
150
18
159
19
196
12
94
193
151
194
102
4
195
211
123
105
155
175
20
47
153
78
163
49
114
84
87
135
29
113
82
205
209
132
146
36
55
179
200
53
17
13
147
33
76
40
63
111
192
100
14
204
66
108
91
152
180
183
77
128
22
72
46
42
157
145
60
74
56
121
131
182
171
115
129
104
30
48
39
184
67
44
24
160
149
93
136
122
187
167
51
6
158
127
124
97
103
58
162
203
95
57
41
85
10
45
73
99
65
34
3
190
81
7
126
31
186
8
26
109
71
161
90

> <PUBCHEM_MMFF94_PARTIAL_CHARGES>
30
1 -0.57
10 0.3
11 0.3
12 0.3
13 0.69
14 0.3
15 0.69
16 0.28
17 0.44
18 -0.14
19 0.28
2 -0.56
20 -0.15
21 -0.15
22 -0.15
23 -0.15
24 -0.15
3 -0.57
38 0.37
4 -0.66
44 0.15
45 0.15
46 0.15
47 0.15
48 0.15
5 -0.66
6 -0.66
7 -0.73
8 0.3
9 0.3

> <PUBCHEM_EFFECTIVE_ROTOR_COUNT>
8.2

> <PUBCHEM_PHARMACOPHORE_FEATURES>
7
1 1 acceptor
1 2 acceptor
1 3 acceptor
1 7 donor
5 4 5 8 9 13 rings
6 18 20 21 22 23 24 rings
6 4 6 8 10 11 12 rings

> <PUBCHEM_HEAVY_ATOM_COUNT>
24

> <PUBCHEM_ATOM_DEF_STEREO_COUNT>
1

> <PUBCHEM_ATOM_UDEF_STEREO_COUNT>
0

> <PUBCHEM_BOND_DEF_STEREO_COUNT>
0

> <PUBCHEM_BOND_UDEF_STEREO_COUNT>
0

> <PUBCHEM_ISOTOPIC_ATOM_COUNT>
0

> <PUBCHEM_COMPONENT_COUNT>
1

> <PUBCHEM_CACTVS_TAUTO_COUNT>
2

> <PUBCHEM_CONFORMER_ID>
047E084F00000001

> <PUBCHEM_MMFF94_ENERGY>
52.5799

> <PUBCHEM_FEATURE_SELFOVERLAP>
35.619

> <PUBCHEM_SHAPE_FINGERPRINT>
10 15 18260835895650431361
10378564 45 17846505837838807076
10554248 39 18338220579594534262
10670039 82 18060428992633202369
10816530 90 18339086982552775494
11089746 13 17489009513995891667
12107183 9 18266727013647305458
12390115 104 18340210781893406519
12422481 6 17676199161075070821
12596602 18 17240483602725727929
13103583 49 13262966131787425751
13782708 43 11892144593915331528
13785724 45 17836359355122351162
13944108 23 18053670178613894877
14251751 18 10881394352892877229
14347332 77 10087648100013622331
14790565 3 18118686758323556524
14840074 17 18113621196358428853
14848178 96 18272080562048967819
14931854 50 17632291243101029129
14951699 99 17894639140581627805
15052358 14 18059309733446828436
15183329 4 17846225453335448508
15188451 53 15936422156708231219
15238133 3 18343292674462953402
1601671 61 18335418002102185132
17780758 139 13045934682542272821
19377110 9 12468359050690749358
20621476 91 11242248592950933212
21033650 10 14764076623465981195
21279426 13 18131079259585442484
21315759 148 16443070465328893593
21315763 87 12396294868073282076
21968339 14 14691996055605399920
23559900 14 17988359256728347502
2838139 119 17917418814154204833
312425 54 13551464839883847525
34797466 226 14260480558348337403
350125 39 18337102389886703592
38570 142 18131080315936530757
4058900 60 18335991891005162666
474 4 18271800165299322619
5104073 3 18261662757510179346
59682541 52 16271933666350854652
6328613 192 18410295826259044036
636775 72 17836357521661939368
7495541 125 11963387453508974286
7970288 3 8358253744444691153

> <PUBCHEM_SHAPE_MULTIPOLES>
456.38
16.85
3.14
1.38
6.23
1.11
-0.38
-15.51
-2.45
-0.19
-0.34
-0.96
-0.65
-1.37

> <PUBCHEM_SHAPE_SELFOVERLAP>
948.389

> <PUBCHEM_SHAPE_VOLUME>
259.7

> <PUBCHEM_COORDINATE_TYPE>
2
5
10

$$$$
