45361006
  -OEChem-12032416413D

 65 68  0     1  0  0  0  0  0999 V2000
   -3.3503   -1.1612    1.6351 O   0  0  0  0  0  0  0  0  0  0  0  0
    3.6572   -0.7811    1.4018 O   0  0  0  0  0  0  0  0  0  0  0  0
   -4.4533    0.8346    0.1884 N   0  0  2  0  0  0  0  0  0  0  0  0
   -0.8307    1.3445    0.0980 N   0  0  1  0  0  0  0  0  0  0  0  0
   -1.5519   -1.4448    0.2491 N   0  0  0  0  0  0  0  0  0  0  0  0
    4.5891   -1.4478   -0.6171 N   0  0  0  0  0  0  0  0  0  0  0  0
    8.0623    0.9592    1.1766 N   0  0  0  0  0  0  0  0  0  0  0  0
   -2.2021    1.4918   -0.4379 C   0  0  1  0  0  0  0  0  0  0  0  0
   -3.1797    0.2862   -0.3144 C   0  0  1  0  0  0  0  0  0  0  0  0
   -5.6299    0.1688   -0.3670 C   0  0  0  0  0  0  0  0  0  0  0  0
   -3.0101    2.6280    0.2165 C   0  0  0  0  0  0  0  0  0  0  0  0
   -4.4462    2.2650   -0.0972 C   0  0  0  0  0  0  0  0  0  0  0  0
   -5.5855   -1.3276   -0.0379 C   0  0  0  0  0  0  0  0  0  0  0  0
   -6.9044    0.8181    0.1835 C   0  0  0  0  0  0  0  0  0  0  0  0
   -0.0104    0.3055   -0.5851 C   0  0  2  0  0  0  0  0  0  0  0  0
   -2.7237   -0.8207    0.6327 C   0  0  0  0  0  0  0  0  0  0  0  0
   -6.8388   -2.0446   -0.5367 C   0  0  0  0  0  0  0  0  0  0  0  0
   -8.1559    0.0985   -0.3164 C   0  0  0  0  0  0  0  0  0  0  0  0
   -0.7491   -1.0149   -0.8787 C   0  0  0  0  0  0  0  0  0  0  0  0
   -8.1108   -1.3937   -0.0007 C   0  0  0  0  0  0  0  0  0  0  0  0
    1.2362   -0.0376    0.2572 C   0  0  0  0  0  0  0  0  0  0  0  0
   -0.1246    2.6370    0.0923 C   0  0  0  0  0  0  0  0  0  0  0  0
    2.3413   -0.5934   -0.6218 C   0  0  0  0  0  0  0  0  0  0  0  0
    3.5789   -0.9396    0.1865 C   0  0  0  0  0  0  0  0  0  0  0  0
    5.8688   -1.8512   -0.0841 C   0  0  0  0  0  0  0  0  0  0  0  0
    6.8560   -0.7200   -0.0763 C   0  0  0  0  0  0  0  0  0  0  0  0
    7.4683   -0.2948   -1.2500 C   0  0  0  0  0  0  0  0  0  0  0  0
    7.1842   -0.0659    1.1002 C   0  0  0  0  0  0  0  0  0  0  0  0
    8.3774    0.7567   -1.2119 C   0  0  0  0  0  0  0  0  0  0  0  0
    8.6375    1.3449    0.0154 C   0  0  0  0  0  0  0  0  0  0  0  0
   -2.1284    1.7393   -1.5084 H   0  0  0  0  0  0  0  0  0  0  0  0
   -3.3180   -0.1427   -1.3158 H   0  0  0  0  0  0  0  0  0  0  0  0
   -5.6382    0.2782   -1.4613 H   0  0  0  0  0  0  0  0  0  0  0  0
   -2.7519    3.6122   -0.1880 H   0  0  0  0  0  0  0  0  0  0  0  0
   -2.8551    2.6466    1.3036 H   0  0  0  0  0  0  0  0  0  0  0  0
   -5.1226    2.8343    0.5473 H   0  0  0  0  0  0  0  0  0  0  0  0
   -4.6722    2.4842   -1.1485 H   0  0  0  0  0  0  0  0  0  0  0  0
   -4.7360   -1.8347   -0.5043 H   0  0  0  0  0  0  0  0  0  0  0  0
   -5.5490   -1.4814    1.0463 H   0  0  0  0  0  0  0  0  0  0  0  0
   -6.8961    0.8035    1.2814 H   0  0  0  0  0  0  0  0  0  0  0  0
   -6.9909    1.8658   -0.1255 H   0  0  0  0  0  0  0  0  0  0  0  0
    0.3152    0.7093   -1.5542 H   0  0  0  0  0  0  0  0  0  0  0  0
   -6.8085   -3.0971   -0.2322 H   0  0  0  0  0  0  0  0  0  0  0  0
   -6.8561   -2.0298   -1.6336 H   0  0  0  0  0  0  0  0  0  0  0  0
   -9.0457    0.5447    0.1421 H   0  0  0  0  0  0  0  0  0  0  0  0
   -8.2502    0.2395   -1.4003 H   0  0  0  0  0  0  0  0  0  0  0  0
   -1.3931   -0.9036   -1.7569 H   0  0  0  0  0  0  0  0  0  0  0  0
   -0.0690   -1.8386   -1.1117 H   0  0  0  0  0  0  0  0  0  0  0  0
   -8.1645   -1.5381    1.0855 H   0  0  0  0  0  0  0  0  0  0  0  0
   -8.9881   -1.8886   -0.4321 H   0  0  0  0  0  0  0  0  0  0  0  0
   -1.2052   -2.2066    0.8240 H   0  0  0  0  0  0  0  0  0  0  0  0
    0.9804   -0.7543    1.0489 H   0  0  0  0  0  0  0  0  0  0  0  0
    1.6469    0.8247    0.7878 H   0  0  0  0  0  0  0  0  0  0  0  0
   -0.0659    3.0548   -0.9197 H   0  0  0  0  0  0  0  0  0  0  0  0
   -0.6289    3.3651    0.7359 H   0  0  0  0  0  0  0  0  0  0  0  0
    0.8912    2.5907    0.4885 H   0  0  0  0  0  0  0  0  0  0  0  0
    2.0280   -1.5018   -1.1456 H   0  0  0  0  0  0  0  0  0  0  0  0
    2.6309    0.1471   -1.3774 H   0  0  0  0  0  0  0  0  0  0  0  0
    4.4405   -1.5269   -1.6190 H   0  0  0  0  0  0  0  0  0  0  0  0
    5.7313   -2.2545    0.9259 H   0  0  0  0  0  0  0  0  0  0  0  0
    6.2450   -2.6699   -0.7080 H   0  0  0  0  0  0  0  0  0  0  0  0
    7.2443   -0.7751   -2.1986 H   0  0  0  0  0  0  0  0  0  0  0  0
    6.7390   -0.3499    2.0488 H   0  0  0  0  0  0  0  0  0  0  0  0
    8.8666    1.1050   -2.1143 H   0  0  0  0  0  0  0  0  0  0  0  0
    9.3385    2.1688    0.0989 H   0  0  0  0  0  0  0  0  0  0  0  0
  1 16  2  0  0  0  0
  2 24  2  0  0  0  0
  3  9  1  0  0  0  0
  3 10  1  0  0  0  0
  3 12  1  0  0  0  0
  4  8  1  0  0  0  0
  4 15  1  0  0  0  0
  4 22  1  0  0  0  0
  5 16  1  0  0  0  0
  5 19  1  0  0  0  0
  5 51  1  0  0  0  0
  6 24  1  0  0  0  0
  6 25  1  0  0  0  0
  6 59  1  0  0  0  0
  7 28  1  0  0  0  0
  7 30  2  0  0  0  0
  8  9  1  0  0  0  0
  8 11  1  0  0  0  0
  8 31  1  0  0  0  0
  9 16  1  0  0  0  0
  9 32  1  0  0  0  0
 10 13  1  0  0  0  0
 10 14  1  0  0  0  0
 10 33  1  0  0  0  0
 11 12  1  0  0  0  0
 11 34  1  0  0  0  0
 11 35  1  0  0  0  0
 12 36  1  0  0  0  0
 12 37  1  0  0  0  0
 13 17  1  0  0  0  0
 13 38  1  0  0  0  0
 13 39  1  0  0  0  0
 14 18  1  0  0  0  0
 14 40  1  0  0  0  0
 14 41  1  0  0  0  0
 15 19  1  0  0  0  0
 15 21  1  0  0  0  0
 15 42  1  0  0  0  0
 17 20  1  0  0  0  0
 17 43  1  0  0  0  0
 17 44  1  0  0  0  0
 18 20  1  0  0  0  0
 18 45  1  0  0  0  0
 18 46  1  0  0  0  0
 19 47  1  0  0  0  0
 19 48  1  0  0  0  0
 20 49  1  0  0  0  0
 20 50  1  0  0  0  0
 21 23  1  0  0  0  0
 21 52  1  0  0  0  0
 21 53  1  0  0  0  0
 22 54  1  0  0  0  0
 22 55  1  0  0  0  0
 22 56  1  0  0  0  0
 23 24  1  0  0  0  0
 23 57  1  0  0  0  0
 23 58  1  0  0  0  0
 25 26  1  0  0  0  0
 25 60  1  0  0  0  0
 25 61  1  0  0  0  0
 26 27  1  0  0  0  0
 26 28  2  0  0  0  0
 27 29  2  0  0  0  0
 27 62  1  0  0  0  0
 28 63  1  0  0  0  0
 29 30  1  0  0  0  0
 29 64  1  0  0  0  0
 30 65  1  0  0  0  0
M  END
> <PUBCHEM_COMPOUND_CID>
45361006

> <PUBCHEM_CONFORMER_RMSD>
1.2

> <PUBCHEM_CONFORMER_DIVERSEORDER>
2
47
50
44
148
90
108
115
78
12
64
96
26
116
140
21
70
102
52
63
118
113
43
126
107
89
45
110
98
92
10
74
51
1
142
94
81
56
109
117
114
48
77
112
25
120
20
67
121
83
91
134
85
66
4
11
41
95
76
119
29
82
146
24
62
100
141
111
73
127
132
125
150
106
46
58
135
88
129
138
131
22
33
54
35
71
69
104
145
130
23
144
8
53
86
139
75
5
65
128
60
18
149
122
97
105
14
55
3
40
15
93
72
79
9
136
30
84
27
133
59
42
137
68
99
124
37
80
6
38
87
13
31
61
151
143
103
101
7
16
49
123
28
34
39
32
36
19
147
17
57

> <PUBCHEM_MMFF94_PARTIAL_CHARGES>
29
1 -0.57
10 0.27
12 0.27
15 0.27
16 0.57
19 0.3
2 -0.57
22 0.27
23 0.06
24 0.57
25 0.44
26 -0.14
27 -0.15
28 0.16
29 -0.15
3 -0.81
30 0.16
4 -0.81
5 -0.73
51 0.37
59 0.37
6 -0.73
62 0.15
63 0.15
64 0.15
65 0.15
7 -0.62
8 0.27
9 0.33

> <PUBCHEM_EFFECTIVE_ROTOR_COUNT>
9.6

> <PUBCHEM_PHARMACOPHORE_FEATURES>
11
1 1 acceptor
1 2 acceptor
1 3 cation
1 4 cation
1 5 donor
1 6 donor
1 7 acceptor
5 3 8 9 11 12 rings
6 10 13 14 17 18 20 rings
6 7 26 27 28 29 30 rings
7 4 5 8 9 15 16 19 rings

> <PUBCHEM_HEAVY_ATOM_COUNT>
30

> <PUBCHEM_ATOM_DEF_STEREO_COUNT>
3

> <PUBCHEM_ATOM_UDEF_STEREO_COUNT>
0

> <PUBCHEM_BOND_DEF_STEREO_COUNT>
0

> <PUBCHEM_BOND_UDEF_STEREO_COUNT>
0

> <PUBCHEM_ISOTOPIC_ATOM_COUNT>
0

> <PUBCHEM_COMPONENT_COUNT>
1

> <PUBCHEM_CACTVS_TAUTO_COUNT>
6

> <PUBCHEM_CONFORMER_ID>
02B4276E00000002

> <PUBCHEM_MMFF94_ENERGY>
68.5543

> <PUBCHEM_FEATURE_SELFOVERLAP>
55.858

> <PUBCHEM_SHAPE_FINGERPRINT>
10 15 18273493472802851006
10076449 9 18272371992633211609
10391435 84 17821732766395508178
10666366 153 11530759268154764922
11007060 377 18187371999457989457
11135609 187 17313097511256257883
11315181 36 18412829071538387985
12516196 113 18341894078381795824
12664476 115 18411135849723462420
14142895 15 18336830883534686852
14251764 18 18333168366593184414
14444916 359 13110964227503271629
15183329 4 17749399157017213940
15301273 46 17632578244987856270
15419008 47 17846774096436673361
15461852 350 18413111675326866615
15510794 2 18272654533337259782
15840311 113 18410015464580963260
15849732 13 18202001040373106127
17686467 74 18335982068826081753
18335252 98 18343585131750453158
18608769 82 18272085006681190759
20105231 36 16774081769692039550
21049683 271 18343020008570577664
21130935 74 18269838618821944290
21150785 3 18186239528298734198
21267235 1 18408888452298474899
21315763 28 18410010993145331150
22224240 67 17894910724591748418
23424782 7 18343019999984910528
23559900 14 18260829327796486169
249057 3 16443352000071363398
335352 9 18409725154829897277
3383291 50 18260552247014788995
34797466 226 17775006787466046964
4073 2 18041005046814890642
4325135 7 18334579045239992326
59682541 35 18272087218641758027
67123 10 18411700993249793422

> <PUBCHEM_SHAPE_MULTIPOLES>
580.74
28.77
2.24
1.02
31.24
0.95
0.11
-2.89
-1.55
-1.96
0.01
1.26
-0.12
0.08

> <PUBCHEM_SHAPE_SELFOVERLAP>
1213.939

> <PUBCHEM_SHAPE_VOLUME>
325.2

> <PUBCHEM_COORDINATE_TYPE>
2
5
10

$$$$
