45361050
  -OEChem-12032416253D

 66 70  0     1  0  0  0  0  0999 V2000
    1.3558   -1.9436    0.0805 O   0  0  0  0  0  0  0  0  0  0  0  0
   -5.4289   -0.6489   -1.2978 O   0  0  0  0  0  0  0  0  0  0  0  0
    2.7559    0.3574    0.2747 N   0  0  1  0  0  0  0  0  0  0  0  0
   -0.6597    1.2775   -0.6620 N   0  0  1  0  0  0  0  0  0  0  0  0
   -0.5638   -1.0886    0.9860 N   0  0  0  0  0  0  0  0  0  0  0  0
    5.5776   -1.1042    0.0837 N   0  0  0  0  0  0  0  0  0  0  0  0
    6.0454    0.8743    0.9820 N   0  0  0  0  0  0  0  0  0  0  0  0
   -6.6257    0.3136    0.4782 N   0  0  0  0  0  0  0  0  0  0  0  0
    0.6639    1.5430   -0.0562 C   0  0  1  0  0  0  0  0  0  0  0  0
    1.3572    0.3991    0.7409 C   0  0  1  0  0  0  0  0  0  0  0  0
    1.7519    1.9283   -1.0758 C   0  0  0  0  0  0  0  0  0  0  0  0
    3.0430    1.6509   -0.3351 C   0  0  0  0  0  0  0  0  0  0  0  0
   -1.7405    0.9872    0.3213 C   0  0  2  0  0  0  0  0  0  0  0  0
    0.7433   -0.9853    0.5496 C   0  0  0  0  0  0  0  0  0  0  0  0
   -1.3375    0.0387    1.4673 C   0  0  0  0  0  0  0  0  0  0  0  0
    3.7061    0.0249    1.3284 C   0  0  0  0  0  0  0  0  0  0  0  0
   -2.9622    0.3658   -0.3876 C   0  0  0  0  0  0  0  0  0  0  0  0
   -1.0608    2.3825   -1.5492 C   0  0  0  0  0  0  0  0  0  0  0  0
    5.1181   -0.0409    0.8099 C   0  0  0  0  0  0  0  0  0  0  0  0
   -4.2520    0.6361    0.3687 C   0  0  0  0  0  0  0  0  0  0  0  0
   -5.4902    0.0213   -0.2724 C   0  0  0  0  0  0  0  0  0  0  0  0
    6.8888   -0.8587   -0.2341 C   0  0  0  0  0  0  0  0  0  0  0  0
    7.1571    0.3819    0.3378 C   0  0  0  0  0  0  0  0  0  0  0  0
    4.8201   -2.2789   -0.2853 C   0  0  0  0  0  0  0  0  0  0  0  0
    7.8343   -1.5931   -0.9507 C   0  0  0  0  0  0  0  0  0  0  0  0
    8.4396    0.9382    0.1962 C   0  0  0  0  0  0  0  0  0  0  0  0
    9.1054   -1.0243   -1.0818 C   0  0  0  0  0  0  0  0  0  0  0  0
    9.4049    0.2187   -0.5194 C   0  0  0  0  0  0  0  0  0  0  0  0
   -7.9598   -0.0770    0.2123 C   0  0  0  0  0  0  0  0  0  0  0  0
   -8.9843    0.3067    1.0774 C   0  0  0  0  0  0  0  0  0  0  0  0
   -8.2498   -0.8459   -0.9148 C   0  0  0  0  0  0  0  0  0  0  0  0
  -10.2993   -0.0784    0.8156 C   0  0  0  0  0  0  0  0  0  0  0  0
   -9.5646   -1.2310   -1.1767 C   0  0  0  0  0  0  0  0  0  0  0  0
  -10.5893   -0.8473   -0.3115 C   0  0  0  0  0  0  0  0  0  0  0  0
    0.5632    2.3984    0.6299 H   0  0  0  0  0  0  0  0  0  0  0  0
    1.3253    0.6452    1.8105 H   0  0  0  0  0  0  0  0  0  0  0  0
    1.6866    2.9777   -1.3813 H   0  0  0  0  0  0  0  0  0  0  0  0
    1.6911    1.2996   -1.9743 H   0  0  0  0  0  0  0  0  0  0  0  0
    3.8872    1.6152   -1.0309 H   0  0  0  0  0  0  0  0  0  0  0  0
    3.2255    2.4336    0.4124 H   0  0  0  0  0  0  0  0  0  0  0  0
   -2.0450    1.9356    0.7860 H   0  0  0  0  0  0  0  0  0  0  0  0
   -0.7570    0.5777    2.2228 H   0  0  0  0  0  0  0  0  0  0  0  0
   -2.2037   -0.3740    1.9926 H   0  0  0  0  0  0  0  0  0  0  0  0
    3.4476   -0.9346    1.7917 H   0  0  0  0  0  0  0  0  0  0  0  0
    3.6708    0.7703    2.1346 H   0  0  0  0  0  0  0  0  0  0  0  0
   -3.1056    0.7384   -1.4048 H   0  0  0  0  0  0  0  0  0  0  0  0
   -2.8220   -0.7161   -0.5143 H   0  0  0  0  0  0  0  0  0  0  0  0
   -1.0242   -1.9903    0.9087 H   0  0  0  0  0  0  0  0  0  0  0  0
   -1.0947    3.3355   -1.0082 H   0  0  0  0  0  0  0  0  0  0  0  0
   -0.3641    2.4875   -2.3874 H   0  0  0  0  0  0  0  0  0  0  0  0
   -2.0328    2.2415   -2.0251 H   0  0  0  0  0  0  0  0  0  0  0  0
   -4.1931    0.2510    1.3924 H   0  0  0  0  0  0  0  0  0  0  0  0
   -4.4176    1.7190    0.4338 H   0  0  0  0  0  0  0  0  0  0  0  0
    5.4789   -3.0376   -0.7115 H   0  0  0  0  0  0  0  0  0  0  0  0
    4.0719   -1.9860   -1.0256 H   0  0  0  0  0  0  0  0  0  0  0  0
    4.3447   -2.6901    0.6083 H   0  0  0  0  0  0  0  0  0  0  0  0
    7.6104   -2.5573   -1.3920 H   0  0  0  0  0  0  0  0  0  0  0  0
   -6.5011    0.8758    1.3175 H   0  0  0  0  0  0  0  0  0  0  0  0
    8.6821    1.9033    0.6294 H   0  0  0  0  0  0  0  0  0  0  0  0
    9.8745   -1.5604   -1.6326 H   0  0  0  0  0  0  0  0  0  0  0  0
   10.4020    0.6350   -0.6383 H   0  0  0  0  0  0  0  0  0  0  0  0
   -8.7720    0.9057    1.9593 H   0  0  0  0  0  0  0  0  0  0  0  0
   -7.5127   -1.1800   -1.6311 H   0  0  0  0  0  0  0  0  0  0  0  0
  -11.0972    0.2203    1.4891 H   0  0  0  0  0  0  0  0  0  0  0  0
   -9.7921   -1.8294   -2.0543 H   0  0  0  0  0  0  0  0  0  0  0  0
  -11.6131   -1.1472   -0.5155 H   0  0  0  0  0  0  0  0  0  0  0  0
  1 14  2  0  0  0  0
  2 21  2  0  0  0  0
  3 10  1  0  0  0  0
  3 12  1  0  0  0  0
  3 16  1  0  0  0  0
  4  9  1  0  0  0  0
  4 13  1  0  0  0  0
  4 18  1  0  0  0  0
  5 14  1  0  0  0  0
  5 15  1  0  0  0  0
  5 48  1  0  0  0  0
  6 19  1  0  0  0  0
  6 22  1  0  0  0  0
  6 24  1  0  0  0  0
  7 19  2  0  0  0  0
  7 23  1  0  0  0  0
  8 21  1  0  0  0  0
  8 29  1  0  0  0  0
  8 58  1  0  0  0  0
  9 10  1  0  0  0  0
  9 11  1  0  0  0  0
  9 35  1  0  0  0  0
 10 14  1  0  0  0  0
 10 36  1  0  0  0  0
 11 12  1  0  0  0  0
 11 37  1  0  0  0  0
 11 38  1  0  0  0  0
 12 39  1  0  0  0  0
 12 40  1  0  0  0  0
 13 15  1  0  0  0  0
 13 17  1  0  0  0  0
 13 41  1  0  0  0  0
 15 42  1  0  0  0  0
 15 43  1  0  0  0  0
 16 19  1  0  0  0  0
 16 44  1  0  0  0  0
 16 45  1  0  0  0  0
 17 20  1  0  0  0  0
 17 46  1  0  0  0  0
 17 47  1  0  0  0  0
 18 49  1  0  0  0  0
 18 50  1  0  0  0  0
 18 51  1  0  0  0  0
 20 21  1  0  0  0  0
 20 52  1  0  0  0  0
 20 53  1  0  0  0  0
 22 23  1  0  0  0  0
 22 25  2  0  0  0  0
 23 26  2  0  0  0  0
 24 54  1  0  0  0  0
 24 55  1  0  0  0  0
 24 56  1  0  0  0  0
 25 27  1  0  0  0  0
 25 57  1  0  0  0  0
 26 28  1  0  0  0  0
 26 59  1  0  0  0  0
 27 28  2  0  0  0  0
 27 60  1  0  0  0  0
 28 61  1  0  0  0  0
 29 30  2  0  0  0  0
 29 31  1  0  0  0  0
 30 32  1  0  0  0  0
 30 62  1  0  0  0  0
 31 33  2  0  0  0  0
 31 63  1  0  0  0  0
 32 34  2  0  0  0  0
 32 64  1  0  0  0  0
 33 34  1  0  0  0  0
 33 65  1  0  0  0  0
 34 66  1  0  0  0  0
M  END
> <PUBCHEM_COMPOUND_CID>
45361050

> <PUBCHEM_CONFORMER_RMSD>
1

> <PUBCHEM_CONFORMER_DIVERSEORDER>
2
239
20
162
169
320
331
287
81
101
246
46
253
108
317
120
141
14
199
226
210
308
280
144
166
231
307
17
223
261
177
339
297
164
214
237
172
182
264
215
173
153
4
83
310
334
250
284
277
56
294
142
338
33
23
140
116
76
168
220
80
336
190
122
72
180
330
299
30
241
251
9
15
335
242
221
24
138
224
22
149
196
312
202
139
235
258
156
194
301
186
64
206
318
110
204
89
254
78
151
340
65
236
281
170
296
181
42
100
19
145
28
41
107
97
188
267
121
193
185
203
323
328
238
232
137
260
63
211
147
302
157
311
329
148
247
165
109
18
13
289
61
118
285
67
272
99
315
270
228
49
176
102
175
298
134
158
275
25
341
167
155
94
233
288
255
178
82
205
98
216
50
326
103
322
130
321
327
291
248
316
136
125
259
229
230
303
135
187
57
333
227
114
105
240
5
198
282
66
208
314
218
306
268
51
119
219
222
252
132
71
262
131
319
104
337
53
26
69
68
95
70
309
152
256
313
79
249
84
286
274
269
197
32
106
200
201
295
266
209
75
31
128
290
293
34
129
278
300
45
127
324
184
225
213
189
112
91
192
126
150
27
8
207
243
325
133
273
124
244
47
12
245
263
257
179
1
11
96
36
163
217
48
86
77
58
265
3
276
292
16
115
10
161
154
271
90
111
44
62
234
85
38
29
39
283
54
183
304
305
171
332
195
174
113
117
6
35
55
146
88
123
59
212
60
92
21
160
43
159
52
7
93
143
74
279
87
191
37
40
73

> <PUBCHEM_MMFF94_PARTIAL_CHARGES>
43
1 -0.57
10 0.33
12 0.27
13 0.27
14 0.57
15 0.3
16 0.45
18 0.27
19 0.01
2 -0.57
20 0.06
21 0.57
22 -0.15
23 0.23
24 0.26
25 -0.15
26 -0.15
27 -0.15
28 -0.15
29 0.12
3 -0.81
30 -0.15
31 -0.15
32 -0.15
33 -0.15
34 -0.15
4 -0.81
48 0.37
5 -0.73
57 0.15
58 0.37
59 0.15
6 0.05
60 0.15
61 0.15
62 0.15
63 0.15
64 0.15
65 0.15
66 0.15
7 -0.57
8 -0.55
9 0.27

> <PUBCHEM_EFFECTIVE_ROTOR_COUNT>
8.4

> <PUBCHEM_PHARMACOPHORE_FEATURES>
12
1 1 acceptor
1 2 acceptor
1 3 cation
1 4 cation
1 5 donor
1 8 donor
3 6 7 19 cation
5 3 9 10 11 12 rings
5 6 7 19 22 23 rings
6 22 23 25 26 27 28 rings
6 29 30 31 32 33 34 rings
7 4 5 9 10 13 14 15 rings

> <PUBCHEM_HEAVY_ATOM_COUNT>
34

> <PUBCHEM_ATOM_DEF_STEREO_COUNT>
3

> <PUBCHEM_ATOM_UDEF_STEREO_COUNT>
0

> <PUBCHEM_BOND_DEF_STEREO_COUNT>
0

> <PUBCHEM_BOND_UDEF_STEREO_COUNT>
0

> <PUBCHEM_ISOTOPIC_ATOM_COUNT>
0

> <PUBCHEM_COMPONENT_COUNT>
1

> <PUBCHEM_CACTVS_TAUTO_COUNT>
6

> <PUBCHEM_CONFORMER_ID>
02B4279A00000002

> <PUBCHEM_MMFF94_ENERGY>
91.7415

> <PUBCHEM_FEATURE_SELFOVERLAP>
61.043

> <PUBCHEM_SHAPE_FINGERPRINT>
10076449 9 17749107790477905181
10299344 5 17846778503056800163
11638347 137 17418095412040203493
12013929 2 17703790302580038953
12089408 11 17846779633350818729
12522641 24 17989480853145875984
12522641 33 18202285796826793295
12539745 222 17489592230270206457
12559415 90 12685083800574200799
12664476 115 11602820220045397543
13617811 41 17821733819411309100
13947947 19 18260551173246168575
14117953 113 18259989283685380471
14251764 46 18334576850211095043
14344974 52 11819283269735338469
14937079 2 17968097563778368765
15461852 350 17917998256861391793
15510794 2 16845578621410743999
15773216 30 18262516966566592466
15840311 113 18201998876137343872
15849732 13 18407761443709646102
16067689 302 18341614759643036486
16728433 110 17749390399410527461
1818759 1 18412263943709571375
19301679 30 15984273907671221036
20105231 36 18410011018176936166
21150785 3 14490191609411751569
21267235 1 18260830393328203157
21362267 2 15936688293444242068
21362267 20 17489302023499000151
21403212 168 10375869675608325125
21772524 286 16987451798226065865
21792961 116 16805319977532651761
232437 2 17704071802962686127
23576562 1 17023476368163103455
249057 3 17967533506413649907
335352 9 18040718082020122969
54039377 194 18411982464685819973
57527306 92 11674877801303690983
67123 10 18201720656650196291
9663363 56 17822008727641629472
9962374 69 18337103570823505053

> <PUBCHEM_SHAPE_MULTIPOLES>
658.08
37.47
1.77
1.21
46.88
0.08
0.05
-12.78
4.51
-1.77
0.61
0.46
0.09
-0.02

> <PUBCHEM_SHAPE_SELFOVERLAP>
1418.56

> <PUBCHEM_SHAPE_VOLUME>
360.3

> <PUBCHEM_COORDINATE_TYPE>
2
5
10

$$$$
