45361451
  -OEChem-12032416353D

 85 87  0     1  0  0  0  0  0999 V2000
   -0.7971   -1.6121   -0.7398 O   0  0  0  0  0  0  0  0  0  0  0  0
   -5.1378    1.3194   -1.1782 O   0  0  0  0  0  0  0  0  0  0  0  0
    5.4028    0.4377    1.4851 O   0  0  0  0  0  0  0  0  0  0  0  0
   -4.8360   -4.1021    0.7052 O   0  0  0  0  0  0  0  0  0  0  0  0
   -5.4358    2.0743    1.6207 O   0  0  0  0  0  0  0  0  0  0  0  0
    4.2642    0.3077   -0.5408 N   0  0  0  0  0  0  0  0  0  0  0  0
   -5.2529   -0.4489    0.3098 N   0  0  0  0  0  0  0  0  0  0  0  0
    0.3189    2.0310   -0.4993 C   0  0  1  0  0  0  0  0  0  0  0  0
    0.4146    0.4734   -0.3823 C   0  0  2  0  0  0  0  0  0  0  0  0
    1.8225   -0.0373   -0.8563 C   0  0  1  0  0  0  0  0  0  0  0  0
   -0.8075   -0.2184   -1.0521 C   0  0  2  0  0  0  0  0  0  0  0  0
   -1.0334    2.5098    0.0797 C   0  0  0  0  0  0  0  0  0  0  0  0
    1.4451    2.6702    0.3456 C   0  0  0  0  0  0  0  0  0  0  0  0
   -2.1580    0.3383   -0.5442 C   0  0  1  0  0  0  0  0  0  0  0  0
    2.9501    0.6679   -0.0513 C   0  0  2  0  0  0  0  0  0  0  0  0
   -2.2332    1.8640   -0.6007 C   0  0  0  0  0  0  0  0  0  0  0  0
    2.8345    2.1920   -0.0512 C   0  0  0  0  0  0  0  0  0  0  0  0
    0.4364    2.5251   -1.9635 C   0  0  0  0  0  0  0  0  0  0  0  0
   -3.3444   -0.2618   -1.3086 C   0  0  2  0  0  0  0  0  0  0  0  0
    1.9959   -1.5612   -0.7406 C   0  0  0  0  0  0  0  0  0  0  0  0
   -3.2192    0.0805   -2.7942 C   0  0  0  0  0  0  0  0  0  0  0  0
   -4.6571    0.2724   -0.7302 C   0  0  0  0  0  0  0  0  0  0  0  0
    5.3772    0.2248    0.2758 C   0  0  0  0  0  0  0  0  0  0  0  0
    6.6048   -0.1921   -0.4812 C   0  0  0  0  0  0  0  0  0  0  0  0
    7.8638    0.4268    0.1295 C   0  0  0  0  0  0  0  0  0  0  0  0
    6.6774   -1.7180   -0.5676 C   0  0  0  0  0  0  0  0  0  0  0  0
    8.3125   -0.2570    1.4206 C   0  0  0  0  0  0  0  0  0  0  0  0
    7.1236   -2.3709    0.7395 C   0  0  0  0  0  0  0  0  0  0  0  0
   -4.7708   -1.7091    0.8715 C   0  0  0  0  0  0  0  0  0  0  0  0
   -6.4933    0.0450    0.8982 C   0  0  0  0  0  0  0  0  0  0  0  0
    8.4256   -1.7678    1.2539 C   0  0  0  0  0  0  0  0  0  0  0  0
   -5.3609   -2.9048    0.1465 C   0  0  0  0  0  0  0  0  0  0  0  0
   -6.2243    0.9779    2.0648 C   0  0  0  0  0  0  0  0  0  0  0  0
   -5.3562   -5.2530    0.0540 C   0  0  0  0  0  0  0  0  0  0  0  0
   -5.1520    2.9759    2.6818 C   0  0  0  0  0  0  0  0  0  0  0  0
    0.3572    0.2195    0.6884 H   0  0  0  0  0  0  0  0  0  0  0  0
    1.9477    0.2041   -1.9194 H   0  0  0  0  0  0  0  0  0  0  0  0
   -0.6923   -0.1271   -2.1335 H   0  0  0  0  0  0  0  0  0  0  0  0
   -1.1177    3.6011   -0.0035 H   0  0  0  0  0  0  0  0  0  0  0  0
   -1.0767    2.2815    1.1533 H   0  0  0  0  0  0  0  0  0  0  0  0
    1.2884    2.4354    1.4070 H   0  0  0  0  0  0  0  0  0  0  0  0
    1.4067    3.7640    0.2650 H   0  0  0  0  0  0  0  0  0  0  0  0
   -2.2610    0.0507    0.5119 H   0  0  0  0  0  0  0  0  0  0  0  0
    2.8835    0.3296    0.9921 H   0  0  0  0  0  0  0  0  0  0  0  0
   -3.1199    2.2287   -0.0716 H   0  0  0  0  0  0  0  0  0  0  0  0
   -2.2986    2.2562   -1.6168 H   0  0  0  0  0  0  0  0  0  0  0  0
    3.5676    2.6197    0.6452 H   0  0  0  0  0  0  0  0  0  0  0  0
    3.1035    2.5918   -1.0366 H   0  0  0  0  0  0  0  0  0  0  0  0
   -0.3247    2.0873   -2.6153 H   0  0  0  0  0  0  0  0  0  0  0  0
    0.3194    3.6142   -2.0128 H   0  0  0  0  0  0  0  0  0  0  0  0
    1.4033    2.2890   -2.4150 H   0  0  0  0  0  0  0  0  0  0  0  0
   -3.3318   -1.3527   -1.2431 H   0  0  0  0  0  0  0  0  0  0  0  0
    1.7254   -1.9173    0.2588 H   0  0  0  0  0  0  0  0  0  0  0  0
    3.0274   -1.8719   -0.9347 H   0  0  0  0  0  0  0  0  0  0  0  0
    1.3896   -2.0851   -1.4848 H   0  0  0  0  0  0  0  0  0  0  0  0
    4.3690    0.1601   -1.5405 H   0  0  0  0  0  0  0  0  0  0  0  0
   -0.8510   -1.7056    0.2266 H   0  0  0  0  0  0  0  0  0  0  0  0
   -3.2001    1.1484   -3.0201 H   0  0  0  0  0  0  0  0  0  0  0  0
   -4.1023   -0.3080   -3.3190 H   0  0  0  0  0  0  0  0  0  0  0  0
   -2.3621   -0.3995   -3.2721 H   0  0  0  0  0  0  0  0  0  0  0  0
    6.5172    0.2040   -1.5023 H   0  0  0  0  0  0  0  0  0  0  0  0
    8.6790    0.3496   -0.6019 H   0  0  0  0  0  0  0  0  0  0  0  0
    7.7156    1.4969    0.3189 H   0  0  0  0  0  0  0  0  0  0  0  0
    5.7108   -2.1397   -0.8683 H   0  0  0  0  0  0  0  0  0  0  0  0
    7.3940   -1.9898   -1.3536 H   0  0  0  0  0  0  0  0  0  0  0  0
    7.6308   -0.0282    2.2458 H   0  0  0  0  0  0  0  0  0  0  0  0
    9.2887    0.1457    1.7165 H   0  0  0  0  0  0  0  0  0  0  0  0
    6.3402   -2.2570    1.4983 H   0  0  0  0  0  0  0  0  0  0  0  0
    7.2558   -3.4476    0.5827 H   0  0  0  0  0  0  0  0  0  0  0  0
   -3.6789   -1.7536    0.8274 H   0  0  0  0  0  0  0  0  0  0  0  0
   -5.0152   -1.7502    1.9400 H   0  0  0  0  0  0  0  0  0  0  0  0
   -7.0486    0.5911    0.1266 H   0  0  0  0  0  0  0  0  0  0  0  0
   -7.1181   -0.7982    1.2115 H   0  0  0  0  0  0  0  0  0  0  0  0
    8.6912   -2.2258    2.2134 H   0  0  0  0  0  0  0  0  0  0  0  0
    9.2380   -1.9994    0.5541 H   0  0  0  0  0  0  0  0  0  0  0  0
   -6.4530   -2.9070    0.2440 H   0  0  0  0  0  0  0  0  0  0  0  0
   -5.1188   -2.8633   -0.9220 H   0  0  0  0  0  0  0  0  0  0  0  0
   -7.1753    1.3470    2.4655 H   0  0  0  0  0  0  0  0  0  0  0  0
   -5.6907    0.4465    2.8615 H   0  0  0  0  0  0  0  0  0  0  0  0
   -5.0843   -5.2501   -1.0060 H   0  0  0  0  0  0  0  0  0  0  0  0
   -4.9214   -6.1397    0.5229 H   0  0  0  0  0  0  0  0  0  0  0  0
   -6.4441   -5.2978    0.1644 H   0  0  0  0  0  0  0  0  0  0  0  0
   -4.5473    3.7952    2.2836 H   0  0  0  0  0  0  0  0  0  0  0  0
   -4.5826    2.4737    3.4698 H   0  0  0  0  0  0  0  0  0  0  0  0
   -6.0780    3.3915    3.0907 H   0  0  0  0  0  0  0  0  0  0  0  0
  1 11  1  0  0  0  0
  1 57  1  0  0  0  0
  2 22  2  0  0  0  0
  3 23  2  0  0  0  0
  4 32  1  0  0  0  0
  4 34  1  0  0  0  0
  5 33  1  0  0  0  0
  5 35  1  0  0  0  0
  6 15  1  0  0  0  0
  6 23  1  0  0  0  0
  6 56  1  0  0  0  0
  7 22  1  0  0  0  0
  7 29  1  0  0  0  0
  7 30  1  0  0  0  0
  8  9  1  0  0  0  0
  8 12  1  0  0  0  0
  8 13  1  0  0  0  0
  8 18  1  0  0  0  0
  9 10  1  0  0  0  0
  9 11  1  0  0  0  0
  9 36  1  0  0  0  0
 10 15  1  0  0  0  0
 10 20  1  0  0  0  0
 10 37  1  0  0  0  0
 11 14  1  0  0  0  0
 11 38  1  0  0  0  0
 12 16  1  0  0  0  0
 12 39  1  0  0  0  0
 12 40  1  0  0  0  0
 13 17  1  0  0  0  0
 13 41  1  0  0  0  0
 13 42  1  0  0  0  0
 14 16  1  0  0  0  0
 14 19  1  0  0  0  0
 14 43  1  0  0  0  0
 15 17  1  0  0  0  0
 15 44  1  0  0  0  0
 16 45  1  0  0  0  0
 16 46  1  0  0  0  0
 17 47  1  0  0  0  0
 17 48  1  0  0  0  0
 18 49  1  0  0  0  0
 18 50  1  0  0  0  0
 18 51  1  0  0  0  0
 19 21  1  0  0  0  0
 19 22  1  0  0  0  0
 19 52  1  0  0  0  0
 20 53  1  0  0  0  0
 20 54  1  0  0  0  0
 20 55  1  0  0  0  0
 21 58  1  0  0  0  0
 21 59  1  0  0  0  0
 21 60  1  0  0  0  0
 23 24  1  0  0  0  0
 24 25  1  0  0  0  0
 24 26  1  0  0  0  0
 24 61  1  0  0  0  0
 25 27  1  0  0  0  0
 25 62  1  0  0  0  0
 25 63  1  0  0  0  0
 26 28  1  0  0  0  0
 26 64  1  0  0  0  0
 26 65  1  0  0  0  0
 27 31  1  0  0  0  0
 27 66  1  0  0  0  0
 27 67  1  0  0  0  0
 28 31  1  0  0  0  0
 28 68  1  0  0  0  0
 28 69  1  0  0  0  0
 29 32  1  0  0  0  0
 29 70  1  0  0  0  0
 29 71  1  0  0  0  0
 30 33  1  0  0  0  0
 30 72  1  0  0  0  0
 30 73  1  0  0  0  0
 31 74  1  0  0  0  0
 31 75  1  0  0  0  0
 32 76  1  0  0  0  0
 32 77  1  0  0  0  0
 33 78  1  0  0  0  0
 33 79  1  0  0  0  0
 34 80  1  0  0  0  0
 34 81  1  0  0  0  0
 34 82  1  0  0  0  0
 35 83  1  0  0  0  0
 35 84  1  0  0  0  0
 35 85  1  0  0  0  0
M  END
> <PUBCHEM_COMPOUND_CID>
45361451

> <PUBCHEM_CONFORMER_RMSD>
1.2

> <PUBCHEM_CONFORMER_DIVERSEORDER>
1
102
5
88
65
31
67
57
69
87
100
96
89
27
106
95
22
80
35
99
18
43
61
73
78
21
49
2
59
45
32
15
40
82
74
37
50
86
92
42
81
47
29
41
12
51
79
11
28
52
48
56
3
63
6
68
26
25
10
94
71
24
44
97
34
9
72
13
39
64
103
58
60
62
17
14
76
46
23
84
30
20
91
93
36
90
19
98
77
54
75
7
101
66
70
104
85
33
105
16
83
8
38
55
53
4

> <PUBCHEM_MMFF94_PARTIAL_CHARGES>
21
1 -0.68
11 0.28
15 0.3
19 0.06
2 -0.57
22 0.57
23 0.57
24 0.06
29 0.3
3 -0.57
30 0.3
32 0.28
33 0.28
34 0.28
35 0.28
4 -0.56
5 -0.56
56 0.37
57 0.4
6 -0.73
7 -0.66

> <PUBCHEM_EFFECTIVE_ROTOR_COUNT>
14.8

> <PUBCHEM_PHARMACOPHORE_FEATURES>
11
1 1 acceptor
1 1 donor
1 2 acceptor
1 21 hydrophobe
1 3 acceptor
1 4 acceptor
1 5 acceptor
1 6 donor
6 24 25 26 27 28 31 rings
6 8 9 10 13 15 17 rings
6 8 9 11 12 14 16 rings

> <PUBCHEM_HEAVY_ATOM_COUNT>
35

> <PUBCHEM_ATOM_DEF_STEREO_COUNT>
6

> <PUBCHEM_ATOM_UDEF_STEREO_COUNT>
1

> <PUBCHEM_BOND_DEF_STEREO_COUNT>
0

> <PUBCHEM_BOND_UDEF_STEREO_COUNT>
0

> <PUBCHEM_ISOTOPIC_ATOM_COUNT>
0

> <PUBCHEM_COMPONENT_COUNT>
1

> <PUBCHEM_CACTVS_TAUTO_COUNT>
2

> <PUBCHEM_CONFORMER_ID>
02B4292B00000001

> <PUBCHEM_MMFF94_ENERGY>
92.1278

> <PUBCHEM_FEATURE_SELFOVERLAP>
55.838

> <PUBCHEM_SHAPE_FINGERPRINT>
11135926 11 18187919534790044439
117089 54 18116437135699880203
11963148 33 18187354425159624746
12166972 35 17385446527256846980
13782708 43 17530677745098535326
14849402 71 18201719617580490760
14856354 85 18411425020621814677
15352257 5 18260266348147773426
15461852 350 11169920472261470208
18603816 31 18260274057724229579
18608769 82 18335416877021233034
21130935 74 18339923822380524722
23522609 53 18044971014435229348
23559900 14 18337939195429444604
23569914 152 11607816357926531843
3178227 256 18410578383762497144
3383291 50 18334009493569189082
3504750 166 18341050839369656967
3711267 37 12678885918823758938
4169191 19 12319739163433768418
437795 83 9367352526520476411
4616759 239 18131633361721956355
5104073 3 18271525424040080545
5718773 13 18262796401179986082
6691757 9 16128371627229309919
999808 66 18041000626565113720

> <PUBCHEM_SHAPE_MULTIPOLES>
680.97
23.29
4.07
1.83
33.73
4.56
-0.16
13.08
-12.1
-7.44
-1
-2.35
-0.99
-1.81

> <PUBCHEM_SHAPE_SELFOVERLAP>
1377.358

> <PUBCHEM_SHAPE_VOLUME>
392.6

> <PUBCHEM_COORDINATE_TYPE>
2
5
10

$$$$
