7673840
  -OEChem-12032416213D

 56 60  0     1  0  0  0  0  0999 V2000
   -2.2143   -2.0887    1.3810 O   0  0  0  0  0  0  0  0  0  0  0  0
    3.5248    4.5808   -0.8395 O   0  0  0  0  0  0  0  0  0  0  0  0
    2.7275   -1.4941    0.7712 N   0  0  2  0  0  0  0  0  0  0  0  0
   -0.2794   -2.3197    0.1002 N   0  0  0  0  0  0  0  0  0  0  0  0
   -4.9475    3.8817    1.6381 N   0  0  0  0  0  0  0  0  0  0  0  0
    1.6973   -3.7792    0.8293 C   0  0  1  0  0  0  0  0  0  0  0  0
    1.8045   -2.5601   -1.2914 C   0  0  2  0  0  0  0  0  0  0  0  0
    1.9346   -3.9461   -0.6657 C   0  0  0  0  0  0  0  0  0  0  0  0
    2.7387   -2.8085    1.4254 C   0  0  0  0  0  0  0  0  0  0  0  0
    2.8710   -1.6185   -0.6871 C   0  0  0  0  0  0  0  0  0  0  0  0
    0.2547   -3.3052    1.0512 C   0  0  0  0  0  0  0  0  0  0  0  0
    0.4129   -1.9972   -1.0693 C   0  0  0  0  0  0  0  0  0  0  0  0
    3.7611   -0.6236    1.3263 C   0  0  0  0  0  0  0  0  0  0  0  0
   -0.1436   -1.1809   -1.9782 C   0  0  0  0  0  0  0  0  0  0  0  0
   -1.5597   -1.8014    0.3772 C   0  0  0  0  0  0  0  0  0  0  0  0
   -2.1432   -0.8619   -0.6438 C   0  0  0  0  0  0  0  0  0  0  0  0
   -1.4383   -0.6024   -1.7553 C   0  0  0  0  0  0  0  0  0  0  0  0
    3.6986    0.7611    0.7495 C   0  0  0  0  0  0  0  0  0  0  0  0
   -3.4563   -0.2270   -0.4350 C   0  0  0  0  0  0  0  0  0  0  0  0
    2.4703    1.3995    0.6271 C   0  0  0  0  0  0  0  0  0  0  0  0
    4.8694    1.3909    0.3446 C   0  0  0  0  0  0  0  0  0  0  0  0
   -3.5430    1.0015    0.2209 C   0  0  0  0  0  0  0  0  0  0  0  0
   -4.6153   -0.8545   -0.8935 C   0  0  0  0  0  0  0  0  0  0  0  0
    2.4117    2.6864    0.0921 C   0  0  0  0  0  0  0  0  0  0  0  0
    4.8111    2.6778   -0.1904 C   0  0  0  0  0  0  0  0  0  0  0  0
    3.5823    3.3254   -0.3168 C   0  0  0  0  0  0  0  0  0  0  0  0
   -4.7865    1.6017    0.4182 C   0  0  0  0  0  0  0  0  0  0  0  0
   -5.8589   -0.2543   -0.6963 C   0  0  0  0  0  0  0  0  0  0  0  0
   -5.9447    0.9737   -0.0404 C   0  0  0  0  0  0  0  0  0  0  0  0
   -4.8753    2.8592    1.0910 C   0  0  0  0  0  0  0  0  0  0  0  0
    2.2357    5.1838   -0.9406 C   0  0  0  0  0  0  0  0  0  0  0  0
    1.8229   -4.7470    1.3307 H   0  0  0  0  0  0  0  0  0  0  0  0
    1.9974   -2.6543   -2.3683 H   0  0  0  0  0  0  0  0  0  0  0  0
    1.2092   -4.6447   -1.1008 H   0  0  0  0  0  0  0  0  0  0  0  0
    2.9330   -4.3601   -0.8525 H   0  0  0  0  0  0  0  0  0  0  0  0
    2.5319   -2.6863    2.4960 H   0  0  0  0  0  0  0  0  0  0  0  0
    3.7337   -3.2667    1.3423 H   0  0  0  0  0  0  0  0  0  0  0  0
    3.8678   -2.0072   -0.9388 H   0  0  0  0  0  0  0  0  0  0  0  0
    2.7766   -0.6506   -1.1920 H   0  0  0  0  0  0  0  0  0  0  0  0
   -0.4130   -4.1749    0.9807 H   0  0  0  0  0  0  0  0  0  0  0  0
    0.1300   -2.9120    2.0680 H   0  0  0  0  0  0  0  0  0  0  0  0
    4.7555   -1.0613    1.1654 H   0  0  0  0  0  0  0  0  0  0  0  0
    3.6282   -0.5289    2.4120 H   0  0  0  0  0  0  0  0  0  0  0  0
    0.3753   -0.9092   -2.8914 H   0  0  0  0  0  0  0  0  0  0  0  0
   -1.8125    0.0693   -2.5224 H   0  0  0  0  0  0  0  0  0  0  0  0
    1.5482    0.9248    0.9517 H   0  0  0  0  0  0  0  0  0  0  0  0
    5.8331    0.8982    0.4384 H   0  0  0  0  0  0  0  0  0  0  0  0
   -2.6391    1.4911    0.5799 H   0  0  0  0  0  0  0  0  0  0  0  0
   -4.5651   -1.8124   -1.4056 H   0  0  0  0  0  0  0  0  0  0  0  0
    1.4250    3.1317    0.0248 H   0  0  0  0  0  0  0  0  0  0  0  0
    5.7262    3.1707   -0.5071 H   0  0  0  0  0  0  0  0  0  0  0  0
   -6.7605   -0.7436   -1.0531 H   0  0  0  0  0  0  0  0  0  0  0  0
   -6.9214    1.4287    0.1060 H   0  0  0  0  0  0  0  0  0  0  0  0
    1.7814    5.3299    0.0453 H   0  0  0  0  0  0  0  0  0  0  0  0
    1.5825    4.6259   -1.6201 H   0  0  0  0  0  0  0  0  0  0  0  0
    2.3771    6.1778   -1.3776 H   0  0  0  0  0  0  0  0  0  0  0  0
  1 15  2  0  0  0  0
  2 26  1  0  0  0  0
  2 31  1  0  0  0  0
  3  9  1  0  0  0  0
  3 10  1  0  0  0  0
  3 13  1  0  0  0  0
  4 11  1  0  0  0  0
  4 12  1  0  0  0  0
  4 15  1  0  0  0  0
  5 30  3  0  0  0  0
  6  8  1  0  0  0  0
  6  9  1  0  0  0  0
  6 11  1  0  0  0  0
  6 32  1  0  0  0  0
  7  8  1  0  0  0  0
  7 10  1  0  0  0  0
  7 12  1  0  0  0  0
  7 33  1  0  0  0  0
  8 34  1  0  0  0  0
  8 35  1  0  0  0  0
  9 36  1  0  0  0  0
  9 37  1  0  0  0  0
 10 38  1  0  0  0  0
 10 39  1  0  0  0  0
 11 40  1  0  0  0  0
 11 41  1  0  0  0  0
 12 14  2  0  0  0  0
 13 18  1  0  0  0  0
 13 42  1  0  0  0  0
 13 43  1  0  0  0  0
 14 17  1  0  0  0  0
 14 44  1  0  0  0  0
 15 16  1  0  0  0  0
 16 17  2  0  0  0  0
 16 19  1  0  0  0  0
 17 45  1  0  0  0  0
 18 20  2  0  0  0  0
 18 21  1  0  0  0  0
 19 22  1  0  0  0  0
 19 23  2  0  0  0  0
 20 24  1  0  0  0  0
 20 46  1  0  0  0  0
 21 25  2  0  0  0  0
 21 47  1  0  0  0  0
 22 27  2  0  0  0  0
 22 48  1  0  0  0  0
 23 28  1  0  0  0  0
 23 49  1  0  0  0  0
 24 26  2  0  0  0  0
 24 50  1  0  0  0  0
 25 26  1  0  0  0  0
 25 51  1  0  0  0  0
 27 29  1  0  0  0  0
 27 30  1  0  0  0  0
 28 29  2  0  0  0  0
 28 52  1  0  0  0  0
 29 53  1  0  0  0  0
 31 54  1  0  0  0  0
 31 55  1  0  0  0  0
 31 56  1  0  0  0  0
M  END
> <PUBCHEM_COMPOUND_CID>
7673840

> <PUBCHEM_CONFORMER_RMSD>
0.8

> <PUBCHEM_CONFORMER_DIVERSEORDER>
1
14
15
17
2
11
18
10
8
12
9
7
16
6
4
13
5
3

> <PUBCHEM_MMFF94_PARTIAL_CHARGES>
39
1 -0.57
10 0.27
11 0.3
12 -0.03
13 0.41
14 -0.15
15 0.62
16 -0.01
17 -0.15
18 -0.14
19 0.03
2 -0.36
20 -0.15
21 -0.15
22 -0.15
23 -0.15
24 -0.15
25 -0.15
26 0.08
27 0.07
28 -0.15
29 -0.15
3 -0.81
30 0.48
31 0.28
4 -0.47
44 0.15
45 0.15
46 0.15
47 0.15
48 0.15
49 0.15
5 -0.56
50 0.15
51 0.15
52 0.15
53 0.15
7 0.14
9 0.27

> <PUBCHEM_EFFECTIVE_ROTOR_COUNT>
5

> <PUBCHEM_PHARMACOPHORE_FEATURES>
9
1 1 acceptor
1 2 acceptor
1 3 cation
1 5 acceptor
6 18 20 21 24 25 26 rings
6 19 22 23 27 28 29 rings
6 3 6 7 8 9 10 rings
6 4 12 14 15 16 17 rings
6 4 6 7 8 11 12 rings

> <PUBCHEM_HEAVY_ATOM_COUNT>
31

> <PUBCHEM_ATOM_DEF_STEREO_COUNT>
2

> <PUBCHEM_ATOM_UDEF_STEREO_COUNT>
0

> <PUBCHEM_BOND_DEF_STEREO_COUNT>
0

> <PUBCHEM_BOND_UDEF_STEREO_COUNT>
0

> <PUBCHEM_ISOTOPIC_ATOM_COUNT>
0

> <PUBCHEM_COMPONENT_COUNT>
1

> <PUBCHEM_CACTVS_TAUTO_COUNT>
1

> <PUBCHEM_CONFORMER_ID>
007517F000000001

> <PUBCHEM_MMFF94_ENERGY>
93.8963

> <PUBCHEM_FEATURE_SELFOVERLAP>
47.226

> <PUBCHEM_SHAPE_FINGERPRINT>
10439779 11 18341034290506790096
10483366 6 18340220609601357238
10937287 8 18121776394565896760
11059048 146 18120945155080570164
11408170 253 15953875038803973572
12633257 1 17968921042463799474
13590594 115 17833837062462422138
13761468 95 17403776678782511208
14251764 38 18412547591923955177
14251764 75 18265619968609799537
14790565 3 18266461086578747836
14849402 71 18335983069648732058
15142526 21 18262232347556762698
151778 21 18335411426428140092
15475509 84 17037536574940481779
16112460 7 18338792437975161264
17844677 252 18128819643163997603
20567600 9 18412271614278439372
20609170 84 16530637517044811881
21475661 188 18410293635783577078
21716022 299 15337741278696943334
21860390 5 18270679753722439494
22122407 14 18410015446166457705
23559900 14 16986594140169163599
23569914 152 10373375850983912265
245318 6 17897735485400277269
3298306 158 18200307844174743481
3411729 13 18341613698531964669
3493558 16 18342461400749347689
4058900 60 18334303097311288890
474 4 18411410726506812663
6086070 43 17755554085454526007
6371009 1 18267282395725613928
6700243 42 15338832101964853925
7288768 16 18042958972886135914
9981440 41 18265618869551306851

> <PUBCHEM_SHAPE_MULTIPOLES>
611.28
11.99
6.45
1.48
14.13
4.92
0.12
11.25
-1.87
-6.36
-0.1
0.17
-0.39
-2.58

> <PUBCHEM_SHAPE_SELFOVERLAP>
1345.099

> <PUBCHEM_SHAPE_VOLUME>
321.1

> <PUBCHEM_COORDINATE_TYPE>
2
5
10

$$$$
