45784338
  -OEChem-12032416283D

 39 42  0     1  0  0  0  0  0999 V2000
   -8.2806   -0.1085    0.6215 Cl  0  0  0  0  0  0  0  0  0  0  0  0
    7.2899    1.5686   -0.4409 F   0  0  0  0  0  0  0  0  0  0  0  0
    2.8913   -1.5073    0.3163 O   0  0  0  0  0  0  0  0  0  0  0  0
   -1.6349   -0.2505   -0.1777 N   0  0  1  0  0  0  0  0  0  0  0  0
    2.5078    0.7131    0.0723 N   0  0  0  0  0  0  0  0  0  0  0  0
    0.5433   -0.8656    0.4359 C   0  0  1  0  0  0  0  0  0  0  0  0
   -0.1623   -0.2068    1.6340 C   0  0  0  0  0  0  0  0  0  0  0  0
   -0.3207   -0.4934   -0.7765 C   0  0  0  0  0  0  0  0  0  0  0  0
   -1.3600    0.5194    1.0354 C   0  0  0  0  0  0  0  0  0  0  0  0
   -2.5376    0.4452   -1.0829 C   0  0  0  0  0  0  0  0  0  0  0  0
    1.9951   -0.4823    0.2647 C   0  0  0  0  0  0  0  0  0  0  0  0
   -3.9750    0.3076   -0.6567 C   0  0  0  0  0  0  0  0  0  0  0  0
    3.8572    0.4688   -0.0118 C   0  0  0  0  0  0  0  0  0  0  0  0
    4.0958   -0.8895    0.1370 C   0  0  0  0  0  0  0  0  0  0  0  0
   -4.7426   -0.7580   -1.1271 C   0  0  0  0  0  0  0  0  0  0  0  0
   -4.5393    1.2450    0.2084 C   0  0  0  0  0  0  0  0  0  0  0  0
    4.9455    1.3300   -0.2116 C   0  0  0  0  0  0  0  0  0  0  0  0
    5.3526   -1.4809    0.1040 C   0  0  0  0  0  0  0  0  0  0  0  0
   -6.0742   -0.8859   -0.7326 C   0  0  0  0  0  0  0  0  0  0  0  0
   -5.8709    1.1172    0.6030 C   0  0  0  0  0  0  0  0  0  0  0  0
    6.2306    0.7699   -0.2510 C   0  0  0  0  0  0  0  0  0  0  0  0
    6.4274   -0.6079   -0.0961 C   0  0  0  0  0  0  0  0  0  0  0  0
   -6.6385    0.0518    0.1324 C   0  0  0  0  0  0  0  0  0  0  0  0
    0.4927   -1.9543    0.5798 H   0  0  0  0  0  0  0  0  0  0  0  0
   -0.5019   -0.9851    2.3289 H   0  0  0  0  0  0  0  0  0  0  0  0
    0.4816    0.4802    2.1935 H   0  0  0  0  0  0  0  0  0  0  0  0
    0.0624    0.4046   -1.2794 H   0  0  0  0  0  0  0  0  0  0  0  0
   -0.3518   -1.3089   -1.5073 H   0  0  0  0  0  0  0  0  0  0  0  0
   -1.0860    1.5582    0.8105 H   0  0  0  0  0  0  0  0  0  0  0  0
   -2.1982    0.5201    1.7386 H   0  0  0  0  0  0  0  0  0  0  0  0
   -2.2730    1.5048   -1.2030 H   0  0  0  0  0  0  0  0  0  0  0  0
   -2.4532    0.0159   -2.0913 H   0  0  0  0  0  0  0  0  0  0  0  0
   -4.3147   -1.4968   -1.7996 H   0  0  0  0  0  0  0  0  0  0  0  0
   -3.9548    2.0833    0.5782 H   0  0  0  0  0  0  0  0  0  0  0  0
    4.8050    2.3989   -0.3329 H   0  0  0  0  0  0  0  0  0  0  0  0
    5.4940   -2.5476    0.2248 H   0  0  0  0  0  0  0  0  0  0  0  0
   -6.6601   -1.7217   -1.1063 H   0  0  0  0  0  0  0  0  0  0  0  0
   -6.2976    1.8557    1.2769 H   0  0  0  0  0  0  0  0  0  0  0  0
    7.4378   -1.0081   -0.1322 H   0  0  0  0  0  0  0  0  0  0  0  0
  1 23  1  0  0  0  0
  2 21  1  0  0  0  0
  3 11  1  0  0  0  0
  3 14  1  0  0  0  0
  4  8  1  0  0  0  0
  4  9  1  0  0  0  0
  4 10  1  0  0  0  0
  5 11  2  0  0  0  0
  5 13  1  0  0  0  0
  6  7  1  0  0  0  0
  6  8  1  0  0  0  0
  6 11  1  0  0  0  0
  6 24  1  0  0  0  0
  7  9  1  0  0  0  0
  7 25  1  0  0  0  0
  7 26  1  0  0  0  0
  8 27  1  0  0  0  0
  8 28  1  0  0  0  0
  9 29  1  0  0  0  0
  9 30  1  0  0  0  0
 10 12  1  0  0  0  0
 10 31  1  0  0  0  0
 10 32  1  0  0  0  0
 12 15  2  0  0  0  0
 12 16  1  0  0  0  0
 13 14  2  0  0  0  0
 13 17  1  0  0  0  0
 14 18  1  0  0  0  0
 15 19  1  0  0  0  0
 15 33  1  0  0  0  0
 16 20  2  0  0  0  0
 16 34  1  0  0  0  0
 17 21  2  0  0  0  0
 17 35  1  0  0  0  0
 18 22  2  0  0  0  0
 18 36  1  0  0  0  0
 19 23  2  0  0  0  0
 19 37  1  0  0  0  0
 20 23  1  0  0  0  0
 20 38  1  0  0  0  0
 21 22  1  0  0  0  0
 22 39  1  0  0  0  0
M  END
> <PUBCHEM_COMPOUND_CID>
45784338

> <PUBCHEM_CONFORMER_RMSD>
0.6

> <PUBCHEM_CONFORMER_DIVERSEORDER>
1
129
23
134
74
93
99
100
125
105
86
24
43
84
36
121
107
116
83
130
133
12
85
38
103
95
135
48
56
31
124
88
132
30
110
82
94
80
52
57
87
127
58
106
108
18
53
91
122
81
29
109
102
111
75
21
89
20
101
117
92
126
25
112
73
22
19
90
123
7
104
54
28
97
47
76
26
35
10
69
40
118
8
79
45
77
33
67
39
96
42
98
2
60
68
41
32
65
14
34
15
16
72
51
61
50
71
27
3
78
120
37
11
55
13
63
66
70
113
6
9
17
64
128
4
49
59
5
44
115
114
62
119
46
131

> <PUBCHEM_MMFF94_PARTIAL_CHARGES>
29
1 -0.18
10 0.41
11 0.3
12 -0.14
13 0.23
14 0.14
15 -0.15
16 -0.15
17 -0.15
18 -0.15
19 -0.15
2 -0.19
20 -0.15
21 0.19
22 -0.15
23 0.18
3 -0.28
33 0.15
34 0.15
35 0.15
36 0.15
37 0.15
38 0.15
39 0.15
4 -0.81
5 -0.57
6 0.18
8 0.27
9 0.27

> <PUBCHEM_EFFECTIVE_ROTOR_COUNT>
4

> <PUBCHEM_PHARMACOPHORE_FEATURES>
5
1 4 cation
5 3 5 11 13 14 rings
5 4 6 7 8 9 rings
6 12 15 16 19 20 23 rings
6 13 14 17 18 21 22 rings

> <PUBCHEM_HEAVY_ATOM_COUNT>
23

> <PUBCHEM_ATOM_DEF_STEREO_COUNT>
1

> <PUBCHEM_ATOM_UDEF_STEREO_COUNT>
0

> <PUBCHEM_BOND_DEF_STEREO_COUNT>
0

> <PUBCHEM_BOND_UDEF_STEREO_COUNT>
0

> <PUBCHEM_ISOTOPIC_ATOM_COUNT>
0

> <PUBCHEM_COMPONENT_COUNT>
1

> <PUBCHEM_CACTVS_TAUTO_COUNT>
1

> <PUBCHEM_CONFORMER_ID>
02BA9D1200000001

> <PUBCHEM_MMFF94_ENERGY>
45.2123

> <PUBCHEM_FEATURE_SELFOVERLAP>
25.492

> <PUBCHEM_SHAPE_FINGERPRINT>
10 15 15357699721365199132
10299344 5 18201719557386741671
10411042 1 17975128735798448898
10595046 47 18412261701282812849
106641 1 14923947881428095788
11315181 36 18411138040140647193
11638347 137 15936403430017999672
11646440 116 17095528383038728164
12166972 35 18408887338905608220
12236239 1 18201999911033888718
12516196 113 15357697483275703495
12730499 353 17894631427131724042
12916748 109 17095521769194923100
13167372 99 18339924810064915920
13533116 47 18271804584720508394
14123256 10 17094959940391340307
14170010 4 18113900477023270556
1420 363 17385725781603400927
14251752 14 17346598560395260657
14251764 18 17917990581986694991
14251764 46 18410573985151464139
14849402 71 18337114574040016277
14856354 85 17704072919854422743
14933364 13 18342458140563026205
15183329 4 17775566429276583889
15419008 47 16226042306287380061
15537594 2 15985098600572120999
15716309 27 18410855447934518807
18006028 8 11240001156797692459
18335252 98 18335425690130698307
19489759 90 12035447229838363213
20157964 124 18333732421165434650
20281389 69 18410853256836741445
20735858 18 15140679185346965545
21150785 3 18202566194035010000
21236236 1 12247691452469335123
21267235 1 18340770347670886078
21521721 280 18334296482708368475
21792961 116 17275106077043248773
220451 1 17775280560643444183
221357 26 18335135380517074988
22224240 67 16660645167664906531
23035841 295 17917710197799873551
23081809 10 18202273693497611487
23198884 109 18411138030796273835
23516275 137 17916044403198708119
23522609 53 18129965432415827889
23536379 177 18343018869865277235
23559900 14 18335415828505536905
23569943 247 17243569789767316050
23622692 88 14129063620796608786
2747138 104 17240776072897798005
28498 318 11455897948686961337
29717793 49 17846785083880354998
3004659 81 16989123175736699392
34797466 226 18413112753679889734
3545911 37 17967532367730358058
397830 11 16371869506586740497
4073 2 18114466750954669306
4325135 7 18410575089570028077
4340502 62 16226045579141993314
445580 37 16988853752311699009
5283156 175 17203613658105430886
542803 24 18273209789927743222
559249 180 9151167654543102889
5758199 1 18334014999268291051
59682541 35 17095529526027386857
59755656 520 18187359947864847371
9996256 80 18409445869067942125

> <PUBCHEM_SHAPE_MULTIPOLES>
452.09
22.13
1.31
1.02
6.89
0.06
-0.1
2.32
1
-1.16
0.03
0.78
-0.03
-1.01

> <PUBCHEM_SHAPE_SELFOVERLAP>
984.957

> <PUBCHEM_SHAPE_VOLUME>
249.3

> <PUBCHEM_COORDINATE_TYPE>
2
5
10

$$$$
