11879616
  -OEChem-12032416373D

 68 74  0     1  0  0  0  0  0999 V2000
   -3.7945   -2.0241    1.6885 S   0  0  0  0  0  0  0  0  0  0  0  0
   -4.0496    2.6222    0.9316 O   0  0  0  0  0  0  0  0  0  0  0  0
   -2.4014    1.3598   -1.4484 O   0  0  0  0  0  0  0  0  0  0  0  0
    0.3795    2.3405   -1.4343 O   0  0  0  0  0  0  0  0  0  0  0  0
   -5.1186   -2.3333    1.1834 O   0  0  0  0  0  0  0  0  0  0  0  0
   -3.3849   -2.4941    2.9981 O   0  0  0  0  0  0  0  0  0  0  0  0
    6.1676   -0.2634    2.2807 O   0  0  0  0  0  0  0  0  0  0  0  0
   -3.5336   -0.3488    1.6030 N   0  0  0  0  0  0  0  0  0  0  0  0
   -0.8449    3.9537   -0.1995 N   0  0  0  0  0  0  0  0  0  0  0  0
   -0.5820    5.0408    0.5319 N   0  0  0  0  0  0  0  0  0  0  0  0
    1.3060    4.1553   -0.2569 N   0  0  0  0  0  0  0  0  0  0  0  0
    0.7396    5.1604    0.4942 N   0  0  0  0  0  0  0  0  0  0  0  0
    3.6622   -0.1375    1.0352 N   0  0  0  0  0  0  0  0  0  0  0  0
   -2.4647    1.1295   -0.0323 C   0  0  1  0  0  0  0  0  0  0  0  0
   -2.6471    2.4737    0.6460 C   0  0  1  0  0  0  0  0  0  0  0  0
   -3.7173    0.3611    0.3142 C   0  0  2  0  0  0  0  0  0  0  0  0
   -2.2222    3.4931   -0.3940 C   0  0  2  0  0  0  0  0  0  0  0  0
   -4.7510    1.4558    0.4794 C   0  0  0  0  0  0  0  0  0  0  0  0
   -2.4796    2.7675   -1.7097 C   0  0  0  0  0  0  0  0  0  0  0  0
    0.3032    3.4186   -0.6765 C   0  0  0  0  0  0  0  0  0  0  0  0
   -2.6111   -2.6378    0.5274 C   0  0  0  0  0  0  0  0  0  0  0  0
   -1.3367   -2.9551    0.9653 C   0  0  0  0  0  0  0  0  0  0  0  0
   -2.9803   -2.7888   -0.7947 C   0  0  0  0  0  0  0  0  0  0  0  0
    1.4754    1.4888   -1.4146 C   0  0  0  0  0  0  0  0  0  0  0  0
   -0.3848   -3.4431    0.0552 C   0  0  0  0  0  0  0  0  0  0  0  0
   -2.0476   -3.2727   -1.7124 C   0  0  0  0  0  0  0  0  0  0  0  0
   -0.7455   -3.6045   -1.3036 C   0  0  0  0  0  0  0  0  0  0  0  0
    2.0083    1.1104   -0.1974 C   0  0  0  0  0  0  0  0  0  0  0  0
    3.1098    0.2547   -0.1775 C   0  0  0  0  0  0  0  0  0  0  0  0
    2.0012    1.0447   -2.6125 C   0  0  0  0  0  0  0  0  0  0  0  0
    4.0155    0.8554    2.0553 C   0  0  0  0  0  0  0  0  0  0  0  0
    4.3279   -1.4289    1.2201 C   0  0  0  0  0  0  0  0  0  0  0  0
    0.9170   -3.7751    0.4644 C   0  0  0  0  0  0  0  0  0  0  0  0
    5.5375    1.0047    2.0669 C   0  0  0  0  0  0  0  0  0  0  0  0
    5.8351   -1.1988    1.2477 C   0  0  0  0  0  0  0  0  0  0  0  0
    0.2064   -4.0925   -2.2137 C   0  0  0  0  0  0  0  0  0  0  0  0
    3.6570   -0.2059   -1.3750 C   0  0  0  0  0  0  0  0  0  0  0  0
    3.1027    0.1891   -2.5924 C   0  0  0  0  0  0  0  0  0  0  0  0
    1.8500   -4.2586   -0.4533 C   0  0  0  0  0  0  0  0  0  0  0  0
    1.4955   -4.4168   -1.7897 C   0  0  0  0  0  0  0  0  0  0  0  0
   -1.5364    0.6275    0.2586 H   0  0  0  0  0  0  0  0  0  0  0  0
   -2.1119    2.5469    1.5982 H   0  0  0  0  0  0  0  0  0  0  0  0
   -4.0445   -0.3187   -0.4736 H   0  0  0  0  0  0  0  0  0  0  0  0
   -2.8354    4.4027   -0.3621 H   0  0  0  0  0  0  0  0  0  0  0  0
   -5.5445    1.2114    1.1922 H   0  0  0  0  0  0  0  0  0  0  0  0
   -5.2149    1.7067   -0.4809 H   0  0  0  0  0  0  0  0  0  0  0  0
   -3.5030    2.9647   -2.0500 H   0  0  0  0  0  0  0  0  0  0  0  0
   -1.8095    3.0385   -2.5303 H   0  0  0  0  0  0  0  0  0  0  0  0
   -3.0210    0.1394    2.3472 H   0  0  0  0  0  0  0  0  0  0  0  0
   -1.0581   -2.8221    2.0080 H   0  0  0  0  0  0  0  0  0  0  0  0
   -3.9797   -2.5506   -1.1451 H   0  0  0  0  0  0  0  0  0  0  0  0
   -2.3472   -3.3902   -2.7518 H   0  0  0  0  0  0  0  0  0  0  0  0
    1.5582    1.4451    0.7334 H   0  0  0  0  0  0  0  0  0  0  0  0
    3.5481    1.8316    1.8887 H   0  0  0  0  0  0  0  0  0  0  0  0
    3.6734    0.4872    3.0300 H   0  0  0  0  0  0  0  0  0  0  0  0
    4.0067   -1.8416    2.1848 H   0  0  0  0  0  0  0  0  0  0  0  0
    4.0509   -2.1632    0.4569 H   0  0  0  0  0  0  0  0  0  0  0  0
    1.5704    1.3520   -3.5604 H   0  0  0  0  0  0  0  0  0  0  0  0
    1.2173   -3.6580    1.5037 H   0  0  0  0  0  0  0  0  0  0  0  0
    5.9054    1.4344    1.1275 H   0  0  0  0  0  0  0  0  0  0  0  0
    5.8415    1.6698    2.8812 H   0  0  0  0  0  0  0  0  0  0  0  0
    6.3524   -2.1371    1.4704 H   0  0  0  0  0  0  0  0  0  0  0  0
    6.2168   -0.8254    0.2910 H   0  0  0  0  0  0  0  0  0  0  0  0
   -0.0486   -4.2238   -3.2632 H   0  0  0  0  0  0  0  0  0  0  0  0
    4.5210   -0.8629   -1.4003 H   0  0  0  0  0  0  0  0  0  0  0  0
    3.5297   -0.1675   -3.5252 H   0  0  0  0  0  0  0  0  0  0  0  0
    2.8537   -4.5113   -0.1241 H   0  0  0  0  0  0  0  0  0  0  0  0
    2.2226   -4.7924   -2.5036 H   0  0  0  0  0  0  0  0  0  0  0  0
  1  5  2  0  0  0  0
  1  6  2  0  0  0  0
  1  8  1  0  0  0  0
  1 21  1  0  0  0  0
  2 15  1  0  0  0  0
  2 18  1  0  0  0  0
  3 14  1  0  0  0  0
  3 19  1  0  0  0  0
  4 20  1  0  0  0  0
  4 24  1  0  0  0  0
  7 34  1  0  0  0  0
  7 35  1  0  0  0  0
  8 16  1  0  0  0  0
  8 49  1  0  0  0  0
  9 10  1  0  0  0  0
  9 17  1  0  0  0  0
  9 20  1  0  0  0  0
 10 12  2  0  0  0  0
 11 12  1  0  0  0  0
 11 20  2  0  0  0  0
 13 29  1  0  0  0  0
 13 31  1  0  0  0  0
 13 32  1  0  0  0  0
 14 15  1  0  0  0  0
 14 16  1  0  0  0  0
 14 41  1  0  0  0  0
 15 17  1  0  0  0  0
 15 42  1  0  0  0  0
 16 18  1  0  0  0  0
 16 43  1  0  0  0  0
 17 19  1  0  0  0  0
 17 44  1  0  0  0  0
 18 45  1  0  0  0  0
 18 46  1  0  0  0  0
 19 47  1  0  0  0  0
 19 48  1  0  0  0  0
 21 22  2  0  0  0  0
 21 23  1  0  0  0  0
 22 25  1  0  0  0  0
 22 50  1  0  0  0  0
 23 26  2  0  0  0  0
 23 51  1  0  0  0  0
 24 28  1  0  0  0  0
 24 30  2  0  0  0  0
 25 27  1  0  0  0  0
 25 33  2  0  0  0  0
 26 27  1  0  0  0  0
 26 52  1  0  0  0  0
 27 36  2  0  0  0  0
 28 29  2  0  0  0  0
 28 53  1  0  0  0  0
 29 37  1  0  0  0  0
 30 38  1  0  0  0  0
 30 58  1  0  0  0  0
 31 34  1  0  0  0  0
 31 54  1  0  0  0  0
 31 55  1  0  0  0  0
 32 35  1  0  0  0  0
 32 56  1  0  0  0  0
 32 57  1  0  0  0  0
 33 39  1  0  0  0  0
 33 59  1  0  0  0  0
 34 60  1  0  0  0  0
 34 61  1  0  0  0  0
 35 62  1  0  0  0  0
 35 63  1  0  0  0  0
 36 40  1  0  0  0  0
 36 64  1  0  0  0  0
 37 38  2  0  0  0  0
 37 65  1  0  0  0  0
 38 66  1  0  0  0  0
 39 40  2  0  0  0  0
 39 67  1  0  0  0  0
 40 68  1  0  0  0  0
M  END
> <PUBCHEM_COMPOUND_CID>
11879616

> <PUBCHEM_CONFORMER_RMSD>
1.4

> <PUBCHEM_CONFORMER_DIVERSEORDER>
1
320
131
44
274
322
19
176
75
81
69
302
330
60
182
264
56
129
104
180
342
338
53
214
299
82
211
208
26
251
80
334
58
217
24
311
155
103
35
195
48
113
178
306
221
161
4
139
314
135
284
278
40
267
101
198
90
38
148
65
159
14
252
74
328
49
245
18
124
336
291
149
319
79
9
86
297
205
201
266
315
78
280
126
218
344
171
329
114
222
63
120
34
346
152
92
52
233
13
324
61
111
281
307
153
335
42
108
100
70
304
106
223
286
71
2
117
272
116
313
119
57
142
160
246
258
209
112
29
333
51
165
187
7
303
305
287
12
39
242
88
283
199
225
293
309
8
97
232
308
54
197
277
67
85
312
59
83
168
331
87
316
216
122
230
224
265
301
236
310
15
231
247
268
337
318
219
295
62
339
239
275
3
253
238
248
47
321
241
263
45
183
186
145
76
179
64
234
128
206
144
95
20
156
202
50
43
30
262
203
140
46
294
300
194
345
261
190
28
163
254
332
72
298
256
249
98
33
175
141
138
260
91
134
5
325
192
317
290
323
292
259
68
177
17
146
158
273
244
212
227
10
170
282
173
181
25
21
130
150
127
255
136
226
157
189
110
296
143
6
23
109
132
279
31
166
96
36
164
32
228
115
11
193
16
207
105
204
93
270
73
220
102
210
55
200
123
343
276
27
41
125
151
107
269
213
147
196
185
243
22
37
285
326
250
257
271
169
94
172
240
89
77
84
215
167
66
118
133
340
191
99
188
289
235
154
162
184
174
121
237
288
327
137
341
229

> <PUBCHEM_MMFF94_PARTIAL_CHARGES>
49
1 1.45
10 -0.42
11 -0.34
13 -0.84
14 0.28
15 0.28
16 0.36
17 0.26
18 0.28
19 0.28
2 -0.56
20 0.25
21 -0.01
22 -0.15
23 -0.15
24 0.08
26 -0.15
28 -0.15
29 0.1
3 -0.56
30 -0.15
31 0.37
32 0.37
33 -0.15
34 0.28
35 0.28
36 -0.15
37 -0.15
38 -0.15
39 -0.15
4 -0.15
40 -0.15
49 0.42
5 -0.65
50 0.15
51 0.15
52 0.15
53 0.15
58 0.15
59 0.15
6 -0.65
64 0.15
65 0.15
66 0.15
67 0.15
68 0.15
7 -0.56
8 -0.91
9 0.31

> <PUBCHEM_EFFECTIVE_ROTOR_COUNT>
9.4

> <PUBCHEM_PHARMACOPHORE_FEATURES>
15
1 13 cation
1 2 acceptor
1 3 acceptor
1 5 acceptor
1 6 acceptor
1 7 acceptor
1 8 donor
3 9 11 20 cation
5 2 14 15 16 18 rings
5 3 14 15 17 19 rings
5 9 10 11 12 20 rings
6 21 22 23 25 26 27 rings
6 24 28 29 30 37 38 rings
6 25 27 33 36 39 40 rings
6 7 13 31 32 34 35 rings

> <PUBCHEM_HEAVY_ATOM_COUNT>
40

> <PUBCHEM_ATOM_DEF_STEREO_COUNT>
4

> <PUBCHEM_ATOM_UDEF_STEREO_COUNT>
0

> <PUBCHEM_BOND_DEF_STEREO_COUNT>
0

> <PUBCHEM_BOND_UDEF_STEREO_COUNT>
0

> <PUBCHEM_ISOTOPIC_ATOM_COUNT>
0

> <PUBCHEM_COMPONENT_COUNT>
1

> <PUBCHEM_CACTVS_TAUTO_COUNT>
1

> <PUBCHEM_CONFORMER_ID>
00B544C000000001

> <PUBCHEM_MMFF94_ENERGY>
109.9506

> <PUBCHEM_FEATURE_SELFOVERLAP>
76.86

> <PUBCHEM_SHAPE_FINGERPRINT>
10794284 68 18122630720176946268
12422481 6 18192696857738175730
12522641 24 16541013569431329441
13122387 1 18050866690667549279
14114207 22 16012657713699231217
14932702 115 17476394628676755830
15684970 41 18271528701833603940
15968369 153 18271249305452103463
161222 619 17551209785045185534
19319366 153 16958468997280081830
20764821 26 18340216296367320263
21796203 349 17973757888566444768
238918 7 18268990895404265398
24941158 1 16915953855163374870
25019877 29 17058937847659220487
45266715 3 17544169611623388917
86090 222 16966059518720620121
9961470 85 17979640026899525561

> <PUBCHEM_SHAPE_MULTIPOLES>
761.93
9.81
7.78
2.47
7.2
1.2
-0.08
-0.37
7.49
-3.33
-1.93
1.52
-1.02
1.18

> <PUBCHEM_SHAPE_SELFOVERLAP>
1671.515

> <PUBCHEM_SHAPE_VOLUME>
413.6

> <PUBCHEM_COORDINATE_TYPE>
2
5
10

$$$$
