71693364
  -OEChem-12032416233D

 49 51  0     1  0  0  0  0  0999 V2000
    3.0344   -1.1217   -1.7124 O   0  0  0  0  0  0  0  0  0  0  0  0
    4.6878   -0.9451    2.6927 O   0  0  0  0  0  0  0  0  0  0  0  0
    5.5993    1.1416   -1.6288 O   0  0  0  0  0  0  0  0  0  0  0  0
   -4.0123   -1.8692    0.2948 O   0  0  0  0  0  0  0  0  0  0  0  0
    4.1973    0.4950    0.1215 N   0  0  0  0  0  0  0  0  0  0  0  0
   -2.9117    0.1556   -0.1715 N   0  0  0  0  0  0  0  0  0  0  0  0
   -5.3168    1.3629   -0.1287 N   0  0  0  0  0  0  0  0  0  0  0  0
   -7.7048   -0.0315    0.3400 N   0  0  0  0  0  0  0  0  0  0  0  0
    3.4125   -0.5995    0.7032 C   0  0  1  0  0  0  0  0  0  0  0  0
    2.5843   -1.3503   -0.3727 C   0  0  1  0  0  0  0  0  0  0  0  0
    4.4259    1.6805    0.9339 C   0  0  0  0  0  0  0  0  0  0  0  0
    4.3200   -1.5647    1.4775 C   0  0  0  0  0  0  0  0  0  0  0  0
    4.8116    0.3471   -1.1195 C   0  0  0  0  0  0  0  0  0  0  0  0
    1.1222   -0.9493   -0.3187 C   0  0  0  0  0  0  0  0  0  0  0  0
    4.4306   -0.9353   -1.8198 C   0  0  0  0  0  0  0  0  0  0  0  0
    3.9433    2.9255    0.2009 C   0  0  0  0  0  0  0  0  0  0  0  0
    5.8982    1.7962    1.3085 C   0  0  0  0  0  0  0  0  0  0  0  0
    0.1451   -1.9100   -0.0578 C   0  0  0  0  0  0  0  0  0  0  0  0
    0.7546    0.3797   -0.5303 C   0  0  0  0  0  0  0  0  0  0  0  0
   -1.1994   -1.5420   -0.0086 C   0  0  0  0  0  0  0  0  0  0  0  0
   -0.5898    0.7477   -0.4811 C   0  0  0  0  0  0  0  0  0  0  0  0
   -1.5669   -0.2130   -0.2204 C   0  0  0  0  0  0  0  0  0  0  0  0
   -4.0221   -0.6629    0.0745 C   0  0  0  0  0  0  0  0  0  0  0  0
   -5.3355    0.0331    0.0904 C   0  0  0  0  0  0  0  0  0  0  0  0
   -6.5084   -0.6517    0.3207 C   0  0  0  0  0  0  0  0  0  0  0  0
   -6.5133    1.9831   -0.1094 C   0  0  0  0  0  0  0  0  0  0  0  0
   -7.6862    1.2983    0.1208 C   0  0  0  0  0  0  0  0  0  0  0  0
    2.7230   -0.1601    1.4371 H   0  0  0  0  0  0  0  0  0  0  0  0
    2.6499   -2.4325   -0.2046 H   0  0  0  0  0  0  0  0  0  0  0  0
    3.8447    1.5930    1.8592 H   0  0  0  0  0  0  0  0  0  0  0  0
    5.2274   -1.8212    0.9230 H   0  0  0  0  0  0  0  0  0  0  0  0
    3.7863   -2.4862    1.7317 H   0  0  0  0  0  0  0  0  0  0  0  0
    4.6771   -0.8431   -2.8819 H   0  0  0  0  0  0  0  0  0  0  0  0
    4.9805   -1.7878   -1.4101 H   0  0  0  0  0  0  0  0  0  0  0  0
    4.0311    3.8033    0.8511 H   0  0  0  0  0  0  0  0  0  0  0  0
    2.8911    2.8338   -0.0840 H   0  0  0  0  0  0  0  0  0  0  0  0
    4.5156    3.1402   -0.7060 H   0  0  0  0  0  0  0  0  0  0  0  0
    6.0361    2.5930    2.0481 H   0  0  0  0  0  0  0  0  0  0  0  0
    6.2813    0.8693    1.7451 H   0  0  0  0  0  0  0  0  0  0  0  0
    6.5349    2.0434    0.4538 H   0  0  0  0  0  0  0  0  0  0  0  0
    0.4167   -2.9489    0.1095 H   0  0  0  0  0  0  0  0  0  0  0  0
    1.4984    1.1369   -0.7527 H   0  0  0  0  0  0  0  0  0  0  0  0
    5.2603   -1.5678    3.1723 H   0  0  0  0  0  0  0  0  0  0  0  0
   -1.8952   -2.3426    0.1986 H   0  0  0  0  0  0  0  0  0  0  0  0
   -0.8622    1.7862   -0.6520 H   0  0  0  0  0  0  0  0  0  0  0  0
   -3.0990    1.1432   -0.3322 H   0  0  0  0  0  0  0  0  0  0  0  0
   -6.5437   -1.7199    0.4990 H   0  0  0  0  0  0  0  0  0  0  0  0
   -6.4990    3.0515   -0.2854 H   0  0  0  0  0  0  0  0  0  0  0  0
   -8.6471    1.7975    0.1361 H   0  0  0  0  0  0  0  0  0  0  0  0
  1 10  1  0  0  0  0
  1 15  1  0  0  0  0
  2 12  1  0  0  0  0
  2 43  1  0  0  0  0
  3 13  2  0  0  0  0
  4 23  2  0  0  0  0
  5  9  1  0  0  0  0
  5 11  1  0  0  0  0
  5 13  1  0  0  0  0
  6 22  1  0  0  0  0
  6 23  1  0  0  0  0
  6 46  1  0  0  0  0
  7 24  2  0  0  0  0
  7 26  1  0  0  0  0
  8 25  2  0  0  0  0
  8 27  1  0  0  0  0
  9 10  1  0  0  0  0
  9 12  1  0  0  0  0
  9 28  1  0  0  0  0
 10 14  1  0  0  0  0
 10 29  1  0  0  0  0
 11 16  1  0  0  0  0
 11 17  1  0  0  0  0
 11 30  1  0  0  0  0
 12 31  1  0  0  0  0
 12 32  1  0  0  0  0
 13 15  1  0  0  0  0
 14 18  2  0  0  0  0
 14 19  1  0  0  0  0
 15 33  1  0  0  0  0
 15 34  1  0  0  0  0
 16 35  1  0  0  0  0
 16 36  1  0  0  0  0
 16 37  1  0  0  0  0
 17 38  1  0  0  0  0
 17 39  1  0  0  0  0
 17 40  1  0  0  0  0
 18 20  1  0  0  0  0
 18 41  1  0  0  0  0
 19 21  2  0  0  0  0
 19 42  1  0  0  0  0
 20 22  2  0  0  0  0
 20 44  1  0  0  0  0
 21 22  1  0  0  0  0
 21 45  1  0  0  0  0
 23 24  1  0  0  0  0
 24 25  1  0  0  0  0
 25 47  1  0  0  0  0
 26 27  2  0  0  0  0
 26 48  1  0  0  0  0
 27 49  1  0  0  0  0
M  END
> <PUBCHEM_COMPOUND_CID>
71693364

> <PUBCHEM_CONFORMER_RMSD>
0.8

> <PUBCHEM_CONFORMER_DIVERSEORDER>
1
13
3
26
29
16
37
11
28
20
40
33
35
32
14
8
21
17
24
2
19
15
12
22
38
30
18
5
36
9
4
25
23
6
7
34
41
31
27
10
39

> <PUBCHEM_MMFF94_PARTIAL_CHARGES>
34
1 -0.56
10 0.42
11 0.3
12 0.28
13 0.57
14 -0.14
15 0.34
18 -0.15
19 -0.15
2 -0.68
20 -0.15
21 -0.15
22 0.12
23 0.54
24 0.4
25 0.16
26 0.16
27 0.16
3 -0.57
4 -0.57
41 0.15
42 0.15
43 0.4
44 0.15
45 0.15
46 0.37
47 0.15
48 0.15
49 0.15
5 -0.66
6 -0.55
7 -0.62
8 -0.62
9 0.3

> <PUBCHEM_EFFECTIVE_ROTOR_COUNT>
7

> <PUBCHEM_PHARMACOPHORE_FEATURES>
12
1 1 acceptor
1 2 acceptor
1 2 donor
1 3 acceptor
1 4 acceptor
1 6 donor
1 7 acceptor
1 8 acceptor
3 11 16 17 hydrophobe
6 1 5 9 10 13 15 rings
6 14 18 19 20 21 22 rings
6 7 8 24 25 26 27 rings

> <PUBCHEM_HEAVY_ATOM_COUNT>
27

> <PUBCHEM_ATOM_DEF_STEREO_COUNT>
2

> <PUBCHEM_ATOM_UDEF_STEREO_COUNT>
0

> <PUBCHEM_BOND_DEF_STEREO_COUNT>
0

> <PUBCHEM_BOND_UDEF_STEREO_COUNT>
0

> <PUBCHEM_ISOTOPIC_ATOM_COUNT>
0

> <PUBCHEM_COMPONENT_COUNT>
1

> <PUBCHEM_CACTVS_TAUTO_COUNT>
4

> <PUBCHEM_CONFORMER_ID>
0445F43400000001

> <PUBCHEM_MMFF94_ENERGY>
82.8972

> <PUBCHEM_FEATURE_SELFOVERLAP>
60.903

> <PUBCHEM_SHAPE_FINGERPRINT>
10 15 18335140899887173395
10554248 39 18041830715348684023
11991303 11 16558744642401584109
12236239 1 17748828493202386203
125118 31 18261111825550575717
12516196 113 18202283598420118121
12778500 126 18259978267885193666
13533116 47 17385720253732779634
13685833 64 10809340044504924037
13782708 43 11746939798183984385
14251764 18 18187366537340925439
14347332 77 9943532903627530331
14528608 73 18344148094224662695
14556957 393 16128108797122219761
14933364 13 18272656740586141133
15183329 4 18333735706783962573
15352257 5 8646767799012395673
15475509 35 16588850284287290666
19377110 9 16370723725576575389
20157964 124 17917996074505983708
20281389 69 18260546698106380605
21033648 29 18410575127623301392
21130935 74 18187083923976985675
21150785 3 16272206405870421973
21641784 216 15554178003799234347
21792934 111 18114450172512411301
221357 26 17632585924658647272
23081809 10 18040152912212564583
23559900 14 18272661129927082758
24771293 8 18268421502852337204
249057 3 17203614774665040374
29717793 49 11815896755992858971
3411729 13 18338514274359999216
34797466 226 17846787312430246471
3680242 22 18187645773605810849
4073 2 17896044393608834291
4340502 62 15647057083623146458
465052 167 12179839490095881320
5104073 3 18114178653238296979
5109719 28 18340214093513580809
53794403 172 18191875723898816252
5718773 13 8429780283125292232
59682541 52 16056885693264164709

> <PUBCHEM_SHAPE_MULTIPOLES>
512.25
20.14
2.24
1.4
32.09
0.94
-0.26
8.78
-2.39
-1.49
-0.26
-3.39
-0.3
0.53

> <PUBCHEM_SHAPE_SELFOVERLAP>
1090.635

> <PUBCHEM_SHAPE_VOLUME>
281.5

> <PUBCHEM_COORDINATE_TYPE>
2
5
10

$$$$
