40779519
  -OEChem-12032416163D

 63 67  0     1  0  0  0  0  0999 V2000
    1.5100   -1.9281    1.1923 O   0  0  0  0  0  0  0  0  0  0  0  0
    4.2388   -3.5963   -0.3377 O   0  0  0  0  0  0  0  0  0  0  0  0
   -3.5978   -2.8672    0.2365 O   0  0  0  0  0  0  0  0  0  0  0  0
   -6.2074   -2.0132   -0.1927 O   0  0  0  0  0  0  0  0  0  0  0  0
    3.6109    2.6222    0.7158 N   0  0  2  0  0  0  0  0  0  0  0  0
   -1.0475    3.5247    0.3518 N   0  0  0  0  0  0  0  0  0  0  0  0
    3.6376   -1.1367    0.7103 N   0  0  0  0  0  0  0  0  0  0  0  0
   -2.2571    2.9472    0.4484 N   0  0  0  0  0  0  0  0  0  0  0  0
    2.1890    2.4684   -1.4608 C   0  0  2  0  0  0  0  0  0  0  0  0
    1.3679    3.1317   -0.3206 C   0  0  2  0  0  0  0  0  0  0  0  0
    3.6677    1.2413    0.1681 C   0  0  2  0  0  0  0  0  0  0  0  0
    2.6709    1.0768   -0.9993 C   0  0  0  0  0  0  0  0  0  0  0  0
    3.4472    3.3386   -1.6676 C   0  0  0  0  0  0  0  0  0  0  0  0
    2.2024    3.0045    0.9859 C   0  0  0  0  0  0  0  0  0  0  0  0
    4.1506    3.5420   -0.3142 C   0  0  0  0  0  0  0  0  0  0  0  0
   -0.0771    2.6945   -0.1276 C   0  0  0  0  0  0  0  0  0  0  0  0
    3.4617    0.1770    1.2480 C   0  0  0  0  0  0  0  0  0  0  0  0
   -0.6949    1.4901   -0.3604 C   0  0  0  0  0  0  0  0  0  0  0  0
   -2.0355    1.7045    0.0119 C   0  0  0  0  0  0  0  0  0  0  0  0
   -0.8910    4.9053    0.7474 C   0  0  0  0  0  0  0  0  0  0  0  0
    2.6323   -2.1020    0.7245 C   0  0  0  0  0  0  0  0  0  0  0  0
   -3.1075    0.7449   -0.0399 C   0  0  0  0  0  0  0  0  0  0  0  0
    2.9817   -3.4267    0.1501 C   0  0  0  0  0  0  0  0  0  0  0  0
   -2.8363   -0.6134    0.1249 C   0  0  0  0  0  0  0  0  0  0  0  0
   -4.4173    1.1734   -0.2556 C   0  0  0  0  0  0  0  0  0  0  0  0
    2.2478   -4.5812    0.0062 C   0  0  0  0  0  0  0  0  0  0  0  0
   -3.8748   -1.5433    0.0742 C   0  0  0  0  0  0  0  0  0  0  0  0
   -5.4558    0.2435   -0.3065 C   0  0  0  0  0  0  0  0  0  0  0  0
   -5.1846   -1.1148   -0.1416 C   0  0  0  0  0  0  0  0  0  0  0  0
    3.1092   -5.5204   -0.6092 C   0  0  0  0  0  0  0  0  0  0  0  0
    4.3082   -4.8729   -0.7980 C   0  0  0  0  0  0  0  0  0  0  0  0
   -2.2332   -3.2218    0.4526 C   0  0  0  0  0  0  0  0  0  0  0  0
   -7.5164   -1.4926   -0.4171 C   0  0  0  0  0  0  0  0  0  0  0  0
    1.6078    2.3936   -2.3859 H   0  0  0  0  0  0  0  0  0  0  0  0
    1.3248    4.2005   -0.5786 H   0  0  0  0  0  0  0  0  0  0  0  0
    4.6817    1.0801   -0.2282 H   0  0  0  0  0  0  0  0  0  0  0  0
    1.8293    0.4428   -0.7191 H   0  0  0  0  0  0  0  0  0  0  0  0
    3.1754    0.5740   -1.8343 H   0  0  0  0  0  0  0  0  0  0  0  0
    3.1752    4.3104   -2.0957 H   0  0  0  0  0  0  0  0  0  0  0  0
    4.1257    2.8501   -2.3775 H   0  0  0  0  0  0  0  0  0  0  0  0
    2.1951    3.9688    1.5110 H   0  0  0  0  0  0  0  0  0  0  0  0
    1.7431    2.3024    1.6910 H   0  0  0  0  0  0  0  0  0  0  0  0
    5.2302    3.3851   -0.4282 H   0  0  0  0  0  0  0  0  0  0  0  0
    4.0387    4.5813    0.0201 H   0  0  0  0  0  0  0  0  0  0  0  0
    2.4764    0.2561    1.7170 H   0  0  0  0  0  0  0  0  0  0  0  0
    4.2112    0.2970    2.0388 H   0  0  0  0  0  0  0  0  0  0  0  0
   -0.2558    0.5893   -0.7593 H   0  0  0  0  0  0  0  0  0  0  0  0
    4.5492   -1.3831    0.3349 H   0  0  0  0  0  0  0  0  0  0  0  0
   -1.8251    5.2654    1.1874 H   0  0  0  0  0  0  0  0  0  0  0  0
   -0.0919    4.9712    1.4889 H   0  0  0  0  0  0  0  0  0  0  0  0
   -0.6518    5.4943   -0.1411 H   0  0  0  0  0  0  0  0  0  0  0  0
   -1.8071   -0.9038    0.3054 H   0  0  0  0  0  0  0  0  0  0  0  0
   -4.6579    2.2246   -0.3960 H   0  0  0  0  0  0  0  0  0  0  0  0
    1.2203   -4.7318    0.3059 H   0  0  0  0  0  0  0  0  0  0  0  0
   -6.4472    0.6479   -0.4793 H   0  0  0  0  0  0  0  0  0  0  0  0
    2.8845   -6.5415   -0.8815 H   0  0  0  0  0  0  0  0  0  0  0  0
    5.2573   -5.1656   -1.2227 H   0  0  0  0  0  0  0  0  0  0  0  0
   -2.1966   -4.3114    0.5562 H   0  0  0  0  0  0  0  0  0  0  0  0
   -1.8496   -2.8025    1.3889 H   0  0  0  0  0  0  0  0  0  0  0  0
   -1.6065   -2.9654   -0.4086 H   0  0  0  0  0  0  0  0  0  0  0  0
   -8.2043   -2.3445   -0.4277 H   0  0  0  0  0  0  0  0  0  0  0  0
   -7.5956   -1.0081   -1.3962 H   0  0  0  0  0  0  0  0  0  0  0  0
   -7.8355   -0.8368    0.4000 H   0  0  0  0  0  0  0  0  0  0  0  0
  1 21  2  0  0  0  0
  2 23  1  0  0  0  0
  2 31  1  0  0  0  0
  3 27  1  0  0  0  0
  3 32  1  0  0  0  0
  4 29  1  0  0  0  0
  4 33  1  0  0  0  0
  5 11  1  0  0  0  0
  5 14  1  0  0  0  0
  5 15  1  0  0  0  0
  6  8  1  0  0  0  0
  6 16  1  0  0  0  0
  6 20  1  0  0  0  0
  7 17  1  0  0  0  0
  7 21  1  0  0  0  0
  7 48  1  0  0  0  0
  8 19  2  0  0  0  0
  9 10  1  0  0  0  0
  9 12  1  0  0  0  0
  9 13  1  0  0  0  0
  9 34  1  0  0  0  0
 10 14  1  0  0  0  0
 10 16  1  0  0  0  0
 10 35  1  0  0  0  0
 11 12  1  0  0  0  0
 11 17  1  0  0  0  0
 11 36  1  0  0  0  0
 12 37  1  0  0  0  0
 12 38  1  0  0  0  0
 13 15  1  0  0  0  0
 13 39  1  0  0  0  0
 13 40  1  0  0  0  0
 14 41  1  0  0  0  0
 14 42  1  0  0  0  0
 15 43  1  0  0  0  0
 15 44  1  0  0  0  0
 16 18  2  0  0  0  0
 17 45  1  0  0  0  0
 17 46  1  0  0  0  0
 18 19  1  0  0  0  0
 18 47  1  0  0  0  0
 19 22  1  0  0  0  0
 20 49  1  0  0  0  0
 20 50  1  0  0  0  0
 20 51  1  0  0  0  0
 21 23  1  0  0  0  0
 22 24  2  0  0  0  0
 22 25  1  0  0  0  0
 23 26  2  0  0  0  0
 24 27  1  0  0  0  0
 24 52  1  0  0  0  0
 25 28  2  0  0  0  0
 25 53  1  0  0  0  0
 26 30  1  0  0  0  0
 26 54  1  0  0  0  0
 27 29  2  0  0  0  0
 28 29  1  0  0  0  0
 28 55  1  0  0  0  0
 30 31  2  0  0  0  0
 30 56  1  0  0  0  0
 31 57  1  0  0  0  0
 32 58  1  0  0  0  0
 32 59  1  0  0  0  0
 32 60  1  0  0  0  0
 33 61  1  0  0  0  0
 33 62  1  0  0  0  0
 33 63  1  0  0  0  0
M  END
> <PUBCHEM_COMPOUND_CID>
40779519

> <PUBCHEM_CONFORMER_RMSD>
1

> <PUBCHEM_CONFORMER_DIVERSEORDER>
1
33
65
40
34
45
12
26
19
50
3
43
27
24
48
52
39
62
15
53
20
17
42
63
5
59
29
57
18
60
46
16
32
9
55
10
22
44
13
36
47
64
41
37
58
23
11
8
14
49
28
35
61
7
21
56
38
51
54
25
31
4
30
2
6

> <PUBCHEM_MMFF94_PARTIAL_CHARGES>
38
1 -0.57
10 0.18
11 0.27
14 0.27
15 0.27
16 -0.33
17 0.3
18 -0.15
19 0.23
2 -0.28
20 0.26
21 0.71
22 0.05
23 0.05
24 -0.15
25 -0.15
26 -0.15
27 0.08
28 -0.15
29 0.08
3 -0.36
30 -0.15
31 -0.01
32 0.28
33 0.28
4 -0.36
47 0.15
48 0.37
5 -0.81
52 0.15
53 0.15
54 0.15
55 0.15
56 0.15
57 0.15
6 0.31
7 -0.73
8 -0.71

> <PUBCHEM_EFFECTIVE_ROTOR_COUNT>
9.2

> <PUBCHEM_PHARMACOPHORE_FEATURES>
11
1 1 acceptor
1 2 acceptor
1 3 acceptor
1 4 acceptor
1 5 cation
1 7 donor
1 8 acceptor
5 2 23 26 30 31 rings
5 6 8 16 18 19 rings
6 22 24 25 27 28 29 rings
8 5 9 10 11 12 13 14 15 rings

> <PUBCHEM_HEAVY_ATOM_COUNT>
33

> <PUBCHEM_ATOM_DEF_STEREO_COUNT>
3

> <PUBCHEM_ATOM_UDEF_STEREO_COUNT>
0

> <PUBCHEM_BOND_DEF_STEREO_COUNT>
0

> <PUBCHEM_BOND_UDEF_STEREO_COUNT>
0

> <PUBCHEM_ISOTOPIC_ATOM_COUNT>
0

> <PUBCHEM_COMPONENT_COUNT>
1

> <PUBCHEM_CACTVS_TAUTO_COUNT>
2

> <PUBCHEM_CONFORMER_ID>
026E3EFF00000001

> <PUBCHEM_MMFF94_ENERGY>
90.1704

> <PUBCHEM_FEATURE_SELFOVERLAP>
55.828

> <PUBCHEM_SHAPE_FINGERPRINT>
10864689 126 18123193665038821460
10940486 97 17759538668396704676
1100329 8 17979075986082394033
11014199 57 18194682553803380354
11069576 57 18409725183718522404
11285246 1 18044662992333467667
11455722 242 17976821987895105470
11513181 2 18343581862684755791
117089 54 18126289640579928326
11756154 67 17834400012178213190
12107183 9 18054237523031179465
12147406 95 18270965648046347190
12677640 9 17766276475609725585
12969540 37 18337669699274518220
1361 2 18267298914591931619
13692114 37 18196367246879359964
13989917 61 18337954597193159315
14251757 5 17329153464602837098
14863182 85 18337387262072392584
14866123 147 17764872394949932689
15297060 5 18126294279175249818
15320467 1 18411136978060534747
15400415 2 17978510064080409501
15419008 42 17971159635469197805
15803439 3 17392239421899508420
16067689 302 18263362668235893899
16993438 75 17322960404855125458
17492 89 18339359647907639181
17909252 39 18411422799817806418
18681886 176 17899694850166988092
19301676 85 17545594553439426247
19319366 153 18196370535917000164
1979834 28 18340755031406110914
20028762 73 18339922718847917700
20775530 9 18049435951077373074
21344244 181 18196109935298953900
23559900 14 18267294348967284147
3004659 81 18041835220146884577
325973 47 18410577262439104931
3886686 26 17695066591555591160
404807 14 17980767039408665027
4435113 14 17751094698415874899
463206 1 18263641943038472569
5265222 85 17684943783505005197
56633871 153 18052264998954385449
613672 6 17976794533571390942
6433294 58 18409727391326177331
6700243 42 17412489943096874438
70251023 43 18337395937394101931

> <PUBCHEM_SHAPE_MULTIPOLES>
635.72
12.7
8.38
1.04
20.16
5.97
-0.11
8.99
-1.68
-11.09
-0.68
-0.99
-0.45
-0.27

> <PUBCHEM_SHAPE_SELFOVERLAP>
1381.418

> <PUBCHEM_SHAPE_VOLUME>
345.8

> <PUBCHEM_COORDINATE_TYPE>
2
5
10

$$$$
