45783491
  -OEChem-12032416273D

 50 53  0     1  0  0  0  0  0999 V2000
   -2.4614   -2.0368    1.7196 S   0  0  0  0  0  0  0  0  0  0  0  0
   -2.3711    0.2876   -2.0116 O   0  0  0  0  0  0  0  0  0  0  0  0
    7.4818   -0.6995    0.8131 O   0  0  0  0  0  0  0  0  0  0  0  0
   -4.2483    0.5174    0.9503 N   0  0  1  0  0  0  0  0  0  0  0  0
   -1.3455    0.9991   -0.1518 N   0  0  0  0  0  0  0  0  0  0  0  0
   -1.0032    0.0617   -2.2104 N   0  0  0  0  0  0  0  0  0  0  0  0
    3.1686   -0.0874   -1.5891 N   0  0  0  0  0  0  0  0  0  0  0  0
    5.0402    0.3444   -0.1797 N   0  0  0  0  0  0  0  0  0  0  0  0
   -3.8871    1.1838   -0.3168 C   0  0  1  0  0  0  0  0  0  0  0  0
   -4.0695    2.6865   -0.0341 C   0  0  0  0  0  0  0  0  0  0  0  0
   -4.5927    2.7621    1.3932 C   0  0  0  0  0  0  0  0  0  0  0  0
   -5.2070    1.3957    1.6209 C   0  0  0  0  0  0  0  0  0  0  0  0
   -4.7759   -0.8279    0.7617 C   0  0  0  0  0  0  0  0  0  0  0  0
   -2.4853    0.8413   -0.7759 C   0  0  0  0  0  0  0  0  0  0  0  0
   -3.6789   -1.8335    0.5328 C   0  0  0  0  0  0  0  0  0  0  0  0
   -0.4653    0.5067   -1.0709 C   0  0  0  0  0  0  0  0  0  0  0  0
   -3.4907   -2.6654   -0.5489 C   0  0  0  0  0  0  0  0  0  0  0  0
   -2.3316   -3.4807   -0.4013 C   0  0  0  0  0  0  0  0  0  0  0  0
    0.9466    0.4748   -0.8201 C   0  0  0  0  0  0  0  0  0  0  0  0
   -1.6781   -3.2408    0.7874 C   0  0  0  0  0  0  0  0  0  0  0  0
    1.4727    0.9478    0.3770 C   0  0  0  0  0  0  0  0  0  0  0  0
    1.8291   -0.0284   -1.7622 C   0  0  0  0  0  0  0  0  0  0  0  0
    2.8457    0.9038    0.5921 C   0  0  0  0  0  0  0  0  0  0  0  0
    3.6433    0.3815   -0.4133 C   0  0  0  0  0  0  0  0  0  0  0  0
    5.6319    0.8173    1.0293 C   0  0  0  0  0  0  0  0  0  0  0  0
    7.1428    0.6737    0.9593 C   0  0  0  0  0  0  0  0  0  0  0  0
    8.8890   -0.8848    0.7493 C   0  0  0  0  0  0  0  0  0  0  0  0
   -4.5942    0.9140   -1.1140 H   0  0  0  0  0  0  0  0  0  0  0  0
   -3.1525    3.2753   -0.1444 H   0  0  0  0  0  0  0  0  0  0  0  0
   -4.8182    3.1017   -0.7201 H   0  0  0  0  0  0  0  0  0  0  0  0
   -5.3133    3.5741    1.5274 H   0  0  0  0  0  0  0  0  0  0  0  0
   -3.7591    2.9273    2.0872 H   0  0  0  0  0  0  0  0  0  0  0  0
   -6.2005    1.3432    1.1575 H   0  0  0  0  0  0  0  0  0  0  0  0
   -5.2986    1.1688    2.6875 H   0  0  0  0  0  0  0  0  0  0  0  0
   -5.5134   -0.8678   -0.0505 H   0  0  0  0  0  0  0  0  0  0  0  0
   -5.3109   -1.1474    1.6675 H   0  0  0  0  0  0  0  0  0  0  0  0
   -4.1492   -2.6900   -1.4077 H   0  0  0  0  0  0  0  0  0  0  0  0
   -1.9934   -4.2053   -1.1305 H   0  0  0  0  0  0  0  0  0  0  0  0
   -0.7776   -3.7140    1.1524 H   0  0  0  0  0  0  0  0  0  0  0  0
    0.8365    1.3546    1.1589 H   0  0  0  0  0  0  0  0  0  0  0  0
    1.4997   -0.4171   -2.7213 H   0  0  0  0  0  0  0  0  0  0  0  0
    3.2219    1.2789    1.5365 H   0  0  0  0  0  0  0  0  0  0  0  0
    5.6121   -0.0433   -0.9213 H   0  0  0  0  0  0  0  0  0  0  0  0
    5.3980    1.8751    1.1960 H   0  0  0  0  0  0  0  0  0  0  0  0
    5.2675    0.2302    1.8810 H   0  0  0  0  0  0  0  0  0  0  0  0
    7.5395    1.2407    0.1082 H   0  0  0  0  0  0  0  0  0  0  0  0
    7.5898    1.0644    1.8808 H   0  0  0  0  0  0  0  0  0  0  0  0
    9.3647   -0.5336    1.6701 H   0  0  0  0  0  0  0  0  0  0  0  0
    9.0907   -1.9536    0.6385 H   0  0  0  0  0  0  0  0  0  0  0  0
    9.3064   -0.3596   -0.1152 H   0  0  0  0  0  0  0  0  0  0  0  0
  1 15  1  0  0  0  0
  1 20  1  0  0  0  0
  2  6  1  0  0  0  0
  2 14  1  0  0  0  0
  3 26  1  0  0  0  0
  3 27  1  0  0  0  0
  4  9  1  0  0  0  0
  4 12  1  0  0  0  0
  4 13  1  0  0  0  0
  5 14  2  0  0  0  0
  5 16  1  0  0  0  0
  6 16  2  0  0  0  0
  7 22  1  0  0  0  0
  7 24  2  0  0  0  0
  8 24  1  0  0  0  0
  8 25  1  0  0  0  0
  8 43  1  0  0  0  0
  9 10  1  0  0  0  0
  9 14  1  0  0  0  0
  9 28  1  0  0  0  0
 10 11  1  0  0  0  0
 10 29  1  0  0  0  0
 10 30  1  0  0  0  0
 11 12  1  0  0  0  0
 11 31  1  0  0  0  0
 11 32  1  0  0  0  0
 12 33  1  0  0  0  0
 12 34  1  0  0  0  0
 13 15  1  0  0  0  0
 13 35  1  0  0  0  0
 13 36  1  0  0  0  0
 15 17  2  0  0  0  0
 16 19  1  0  0  0  0
 17 18  1  0  0  0  0
 17 37  1  0  0  0  0
 18 20  2  0  0  0  0
 18 38  1  0  0  0  0
 19 21  1  0  0  0  0
 19 22  2  0  0  0  0
 20 39  1  0  0  0  0
 21 23  2  0  0  0  0
 21 40  1  0  0  0  0
 22 41  1  0  0  0  0
 23 24  1  0  0  0  0
 23 42  1  0  0  0  0
 25 26  1  0  0  0  0
 25 44  1  0  0  0  0
 25 45  1  0  0  0  0
 26 46  1  0  0  0  0
 26 47  1  0  0  0  0
 27 48  1  0  0  0  0
 27 49  1  0  0  0  0
 27 50  1  0  0  0  0
M  END
> <PUBCHEM_COMPOUND_CID>
45783491

> <PUBCHEM_CONFORMER_RMSD>
1

> <PUBCHEM_CONFORMER_DIVERSEORDER>
1
68
34
5
78
82
146
6
147
104
116
54
122
58
57
55
115
35
94
137
117
95
10
75
126
3
124
74
49
86
32
96
14
29
47
79
31
27
12
66
62
72
46
69
24
81
138
61
38
136
77
17
132
121
90
59
36
108
20
60
134
44
148
11
101
76
103
118
39
80
125
63
112
51
149
42
99
71
111
110
140
89
30
2
15
127
123
120
113
92
114
64
84
135
119
141
105
70
73
40
144
50
93
97
48
43
145
129
106
56
23
128
4
9
16
87
8
130
13
41
98
25
91
52
21
133
37
102
33
139
88
45
28
107
65
19
100
143
26
109
131
18
7
142
67
85
53
83
22

> <PUBCHEM_MMFF94_PARTIAL_CHARGES>
32
1 -0.08
12 0.27
13 0.45
14 0.3
15 -0.14
16 0.46
17 -0.15
18 -0.15
19 0.05
2 -0.02
20 -0.11
21 -0.15
22 0.16
23 -0.15
24 0.41
25 0.37
26 0.28
27 0.28
3 -0.56
37 0.15
38 0.15
39 0.15
4 -0.81
40 0.15
41 0.15
42 0.15
43 0.4
5 -0.57
6 -0.41
7 -0.62
8 -0.87
9 0.45

> <PUBCHEM_EFFECTIVE_ROTOR_COUNT>
9

> <PUBCHEM_PHARMACOPHORE_FEATURES>
9
1 3 acceptor
1 4 cation
1 8 donor
3 5 6 16 cation
3 7 8 24 cation
5 1 15 17 18 20 rings
5 2 5 6 14 16 rings
5 4 9 10 11 12 rings
6 7 19 21 22 23 24 rings

> <PUBCHEM_HEAVY_ATOM_COUNT>
27

> <PUBCHEM_ATOM_DEF_STEREO_COUNT>
1

> <PUBCHEM_ATOM_UDEF_STEREO_COUNT>
0

> <PUBCHEM_BOND_DEF_STEREO_COUNT>
0

> <PUBCHEM_BOND_UDEF_STEREO_COUNT>
0

> <PUBCHEM_ISOTOPIC_ATOM_COUNT>
0

> <PUBCHEM_COMPONENT_COUNT>
1

> <PUBCHEM_CACTVS_TAUTO_COUNT>
8

> <PUBCHEM_CONFORMER_ID>
02BA99C300000001

> <PUBCHEM_MMFF94_ENERGY>
52.7462

> <PUBCHEM_FEATURE_SELFOVERLAP>
45.672

> <PUBCHEM_SHAPE_FINGERPRINT>
10 15 17775001315271698728
10319926 262 18342184371089889398
11036077 4 18335138700310114043
11315181 36 18336823186251600700
11524674 6 18343016701192279294
12422481 6 17604715452161941435
12616971 3 17022907869612952524
12633257 1 18336841869881759433
13004483 165 17911244141958688879
13583140 156 17489310836122075723
13994607 96 13398363407941111903
14844126 61 18338801242610385827
14856354 85 18408326613871106772
15021287 119 17167867469575971356
15183329 4 16732696169550709506
15326921 28 18045765802491838765
15348495 7 18271522096168257584
15352257 5 18260263032992138338
17093844 174 17703780427854262760
17780758 139 18408321111691049945
17913733 40 17203334425096731726
18927931 339 15791728594243579093
20554085 129 18268416950935940481
21033648 29 17560533827894164733
21150785 3 8214135266734538128
21267235 1 14490485161631250884
21756936 100 18272646818863690089
23522609 53 17896627083928826260
23559900 14 18126311690761859878
23728640 28 18263097651051031315
255183 451 9077102326614134265
397830 11 18267855259502635632
4073 2 18413386549772026402
4169191 19 14260774183961465994
484985 159 18114731746432119159
5104073 3 18060143093982244198
5364581 5 18127405876905125200
59755656 520 18336261267411967048
602551 16 18336274529885887591
68570916 9 18261111941878559524
9953998 17 18334571365580257592

> <PUBCHEM_SHAPE_MULTIPOLES>
522.85
17.38
3.09
1.72
46.16
2.2
0.42
-1.38
-9.04
-6.17
-0.82
-0.55
-0.1
-0.58

> <PUBCHEM_SHAPE_SELFOVERLAP>
1103.255

> <PUBCHEM_SHAPE_VOLUME>
297.3

> <PUBCHEM_COORDINATE_TYPE>
2
5
10

$$$$
