25318005
  -OEChem-12032416193D

 80 83  0     1  0  0  0  0  0999 V2000
   -1.9490   -4.3167   -1.6160 O   0  0  0  0  0  0  0  0  0  0  0  0
   -2.1120    1.9963   -1.1460 O   0  0  0  0  0  0  0  0  0  0  0  0
    2.0865   -0.6320    0.3033 N   0  0  0  0  0  0  0  0  0  0  0  0
   -4.0711    0.8557   -1.6462 N   0  0  0  0  0  0  0  0  0  0  0  0
    7.2795    3.0117   -0.4743 N   0  0  0  0  0  0  0  0  0  0  0  0
   -5.7080    4.2772    0.9398 N   0  0  0  0  0  0  0  0  0  0  0  0
   -0.1137   -1.7154   -0.2475 C   0  0  1  0  0  0  0  0  0  0  0  0
   -1.0796   -2.5734    0.6362 C   0  0  2  0  0  0  0  0  0  0  0  0
   -0.8557   -2.0591    2.1105 C   0  0  0  0  0  0  0  0  0  0  0  0
    1.1153   -1.6223    0.6842 C   0  0  2  0  0  0  0  0  0  0  0  0
    0.5176   -1.3378    2.0707 C   0  0  0  0  0  0  0  0  0  0  0  0
    0.1951   -2.3385   -1.6289 C   0  0  0  0  0  0  0  0  0  0  0  0
   -0.8300   -4.0966    0.4987 C   0  0  0  0  0  0  0  0  0  0  0  0
   -0.7174   -4.5853   -0.9458 C   0  0  2  0  0  0  0  0  0  0  0  0
   -0.6977   -0.3093   -0.5434 C   0  0  0  0  0  0  0  0  0  0  0  0
    0.4279   -3.8433   -1.6347 C   0  0  0  0  0  0  0  0  0  0  0  0
   -1.9801   -1.0837    2.5187 C   0  0  0  0  0  0  0  0  0  0  0  0
   -0.8316   -3.1518    3.1986 C   0  0  0  0  0  0  0  0  0  0  0  0
   -2.1469   -0.4182   -0.9698 C   0  0  0  0  0  0  0  0  0  0  0  0
   -0.4809   -6.0966   -0.9842 C   0  0  0  0  0  0  0  0  0  0  0  0
    3.3686   -0.8866    0.9456 C   0  0  0  0  0  0  0  0  0  0  0  0
   -2.7433    0.9485   -1.2550 C   0  0  0  0  0  0  0  0  0  0  0  0
    4.3982    0.1401    0.5714 C   0  0  0  0  0  0  0  0  0  0  0  0
    4.9978    0.1002   -0.6875 C   0  0  0  0  0  0  0  0  0  0  0  0
    4.7559    1.1334    1.4831 C   0  0  0  0  0  0  0  0  0  0  0  0
   -4.8616    2.0187   -1.9727 C   0  0  0  0  0  0  0  0  0  0  0  0
    5.9545    1.0539   -1.0349 C   0  0  0  0  0  0  0  0  0  0  0  0
    5.7129    2.0870    1.1357 C   0  0  0  0  0  0  0  0  0  0  0  0
    6.3121    2.0473   -0.1232 C   0  0  0  0  0  0  0  0  0  0  0  0
   -5.5683    2.5734   -0.7697 C   0  0  0  0  0  0  0  0  0  0  0  0
   -6.6924    1.9449   -0.2455 C   0  0  0  0  0  0  0  0  0  0  0  0
   -5.1201    3.7267   -0.1460 C   0  0  0  0  0  0  0  0  0  0  0  0
    7.6523    4.0525    0.4632 C   0  0  0  0  0  0  0  0  0  0  0  0
    7.9080    2.9794   -1.7799 C   0  0  0  0  0  0  0  0  0  0  0  0
   -7.3249    2.4812    0.8705 C   0  0  0  0  0  0  0  0  0  0  0  0
   -6.7980    3.6384    1.4211 C   0  0  0  0  0  0  0  0  0  0  0  0
   -2.1292   -2.4741    0.3623 H   0  0  0  0  0  0  0  0  0  0  0  0
    1.5904   -2.6124    0.7097 H   0  0  0  0  0  0  0  0  0  0  0  0
    1.1922   -1.6910    2.8597 H   0  0  0  0  0  0  0  0  0  0  0  0
    0.3942   -0.2597    2.2353 H   0  0  0  0  0  0  0  0  0  0  0  0
    1.0721   -1.8536   -2.0753 H   0  0  0  0  0  0  0  0  0  0  0  0
   -0.6185   -2.1474   -2.3363 H   0  0  0  0  0  0  0  0  0  0  0  0
    0.0929   -4.3802    1.0178 H   0  0  0  0  0  0  0  0  0  0  0  0
   -1.6537   -4.6251    0.9967 H   0  0  0  0  0  0  0  0  0  0  0  0
   -0.6221    0.3588    0.3204 H   0  0  0  0  0  0  0  0  0  0  0  0
   -0.1143    0.1864   -1.3316 H   0  0  0  0  0  0  0  0  0  0  0  0
    0.5101   -4.1707   -2.6790 H   0  0  0  0  0  0  0  0  0  0  0  0
    1.3847   -4.0757   -1.1516 H   0  0  0  0  0  0  0  0  0  0  0  0
   -2.9586   -1.5751    2.4745 H   0  0  0  0  0  0  0  0  0  0  0  0
   -2.0251   -0.1943    1.8885 H   0  0  0  0  0  0  0  0  0  0  0  0
   -1.8345   -0.7271    3.5453 H   0  0  0  0  0  0  0  0  0  0  0  0
   -1.7581   -3.7359    3.1964 H   0  0  0  0  0  0  0  0  0  0  0  0
   -0.7282   -2.7075    4.1960 H   0  0  0  0  0  0  0  0  0  0  0  0
    0.0123   -3.8386    3.0813 H   0  0  0  0  0  0  0  0  0  0  0  0
    2.2180   -0.6444   -0.7070 H   0  0  0  0  0  0  0  0  0  0  0  0
   -2.7958   -0.8094   -0.1845 H   0  0  0  0  0  0  0  0  0  0  0  0
   -2.2827   -1.0299   -1.8659 H   0  0  0  0  0  0  0  0  0  0  0  0
   -1.3030   -6.6348   -0.4989 H   0  0  0  0  0  0  0  0  0  0  0  0
    0.4544   -6.3733   -0.4868 H   0  0  0  0  0  0  0  0  0  0  0  0
   -0.4431   -6.4563   -2.0188 H   0  0  0  0  0  0  0  0  0  0  0  0
   -2.6587   -4.7812   -1.1405 H   0  0  0  0  0  0  0  0  0  0  0  0
    3.7554   -1.8757    0.6651 H   0  0  0  0  0  0  0  0  0  0  0  0
    3.2599   -0.8989    2.0371 H   0  0  0  0  0  0  0  0  0  0  0  0
   -4.5180   -0.0555   -1.6925 H   0  0  0  0  0  0  0  0  0  0  0  0
    4.7282   -0.6700   -1.4056 H   0  0  0  0  0  0  0  0  0  0  0  0
    4.2955    1.1778    2.4666 H   0  0  0  0  0  0  0  0  0  0  0  0
   -5.5946    1.7197   -2.7305 H   0  0  0  0  0  0  0  0  0  0  0  0
   -4.2182    2.7789   -2.4307 H   0  0  0  0  0  0  0  0  0  0  0  0
    6.3915    0.9801   -2.0258 H   0  0  0  0  0  0  0  0  0  0  0  0
    5.9562    2.8392    1.8796 H   0  0  0  0  0  0  0  0  0  0  0  0
   -7.0830    1.0378   -0.6982 H   0  0  0  0  0  0  0  0  0  0  0  0
   -4.2472    4.2622   -0.5063 H   0  0  0  0  0  0  0  0  0  0  0  0
    8.0839    3.6271    1.3760 H   0  0  0  0  0  0  0  0  0  0  0  0
    6.7917    4.6797    0.7212 H   0  0  0  0  0  0  0  0  0  0  0  0
    8.4110    4.7226    0.0436 H   0  0  0  0  0  0  0  0  0  0  0  0
    8.4570    2.0434   -1.9320 H   0  0  0  0  0  0  0  0  0  0  0  0
    8.6361    3.7895   -1.8989 H   0  0  0  0  0  0  0  0  0  0  0  0
    7.1685    3.1056   -2.5784 H   0  0  0  0  0  0  0  0  0  0  0  0
   -8.2024    2.0082    1.2962 H   0  0  0  0  0  0  0  0  0  0  0  0
   -7.2543    4.0966    2.2923 H   0  0  0  0  0  0  0  0  0  0  0  0
  1 14  1  0  0  0  0
  1 61  1  0  0  0  0
  2 22  2  0  0  0  0
  3 10  1  0  0  0  0
  3 21  1  0  0  0  0
  3 55  1  0  0  0  0
  4 22  1  0  0  0  0
  4 26  1  0  0  0  0
  4 64  1  0  0  0  0
  5 29  1  0  0  0  0
  5 33  1  0  0  0  0
  5 34  1  0  0  0  0
  6 32  1  0  0  0  0
  6 36  2  0  0  0  0
  7  8  1  0  0  0  0
  7 10  1  0  0  0  0
  7 12  1  0  0  0  0
  7 15  1  0  0  0  0
  8  9  1  0  0  0  0
  8 13  1  0  0  0  0
  8 37  1  0  0  0  0
  9 11  1  0  0  0  0
  9 17  1  0  0  0  0
  9 18  1  0  0  0  0
 10 11  1  0  0  0  0
 10 38  1  0  0  0  0
 11 39  1  0  0  0  0
 11 40  1  0  0  0  0
 12 16  1  0  0  0  0
 12 41  1  0  0  0  0
 12 42  1  0  0  0  0
 13 14  1  0  0  0  0
 13 43  1  0  0  0  0
 13 44  1  0  0  0  0
 14 16  1  0  0  0  0
 14 20  1  0  0  0  0
 15 19  1  0  0  0  0
 15 45  1  0  0  0  0
 15 46  1  0  0  0  0
 16 47  1  0  0  0  0
 16 48  1  0  0  0  0
 17 49  1  0  0  0  0
 17 50  1  0  0  0  0
 17 51  1  0  0  0  0
 18 52  1  0  0  0  0
 18 53  1  0  0  0  0
 18 54  1  0  0  0  0
 19 22  1  0  0  0  0
 19 56  1  0  0  0  0
 19 57  1  0  0  0  0
 20 58  1  0  0  0  0
 20 59  1  0  0  0  0
 20 60  1  0  0  0  0
 21 23  1  0  0  0  0
 21 62  1  0  0  0  0
 21 63  1  0  0  0  0
 23 24  2  0  0  0  0
 23 25  1  0  0  0  0
 24 27  1  0  0  0  0
 24 65  1  0  0  0  0
 25 28  2  0  0  0  0
 25 66  1  0  0  0  0
 26 30  1  0  0  0  0
 26 67  1  0  0  0  0
 26 68  1  0  0  0  0
 27 29  2  0  0  0  0
 27 69  1  0  0  0  0
 28 29  1  0  0  0  0
 28 70  1  0  0  0  0
 30 31  1  0  0  0  0
 30 32  2  0  0  0  0
 31 35  2  0  0  0  0
 31 71  1  0  0  0  0
 32 72  1  0  0  0  0
 33 73  1  0  0  0  0
 33 74  1  0  0  0  0
 33 75  1  0  0  0  0
 34 76  1  0  0  0  0
 34 77  1  0  0  0  0
 34 78  1  0  0  0  0
 35 36  1  0  0  0  0
 35 79  1  0  0  0  0
 36 80  1  0  0  0  0
M  END
> <PUBCHEM_COMPOUND_CID>
25318005

> <PUBCHEM_CONFORMER_RMSD>
1.2

> <PUBCHEM_CONFORMER_DIVERSEORDER>
1
13
30
12
26
42
46
37
11
33
43
47
29
50
27
6
10
34
49
15
16
48
32
19
22
8
36
44
20
38
40
45
3
28
41
31
4
24
21
14
35
7
2
18
23
39
9
25
17
5

> <PUBCHEM_MMFF94_PARTIAL_CHARGES>
36
1 -0.68
10 0.27
14 0.28
19 0.06
2 -0.57
21 0.41
22 0.57
23 -0.14
24 -0.15
25 -0.15
26 0.44
27 -0.15
28 -0.15
29 0.1
3 -0.9
30 -0.14
31 -0.15
32 0.16
33 0.37
34 0.37
35 -0.15
36 0.16
4 -0.73
5 -0.84
55 0.36
6 -0.62
61 0.4
64 0.37
65 0.15
66 0.15
69 0.15
70 0.15
71 0.15
72 0.15
79 0.15
80 0.15

> <PUBCHEM_EFFECTIVE_ROTOR_COUNT>
11.4

> <PUBCHEM_PHARMACOPHORE_FEATURES>
13
1 1 acceptor
1 1 donor
1 2 acceptor
1 3 cation
1 3 donor
1 4 donor
1 5 cation
1 6 acceptor
3 9 17 18 hydrophobe
5 7 8 9 10 11 rings
6 23 24 25 27 28 29 rings
6 6 30 31 32 35 36 rings
6 7 8 12 13 14 16 rings

> <PUBCHEM_HEAVY_ATOM_COUNT>
36

> <PUBCHEM_ATOM_DEF_STEREO_COUNT>
4

> <PUBCHEM_ATOM_UDEF_STEREO_COUNT>
0

> <PUBCHEM_BOND_DEF_STEREO_COUNT>
0

> <PUBCHEM_BOND_UDEF_STEREO_COUNT>
0

> <PUBCHEM_ISOTOPIC_ATOM_COUNT>
0

> <PUBCHEM_COMPONENT_COUNT>
1

> <PUBCHEM_CACTVS_TAUTO_COUNT>
2

> <PUBCHEM_CONFORMER_ID>
0182527500000001

> <PUBCHEM_MMFF94_ENERGY>
130.6937

> <PUBCHEM_FEATURE_SELFOVERLAP>
66.093

> <PUBCHEM_SHAPE_FINGERPRINT>
10369192 42 18409733958948637213
10673678 19 18269556052870117409
10721379 63 17628357069430693071
10920273 25 18342470217843232041
11135609 149 8645902423152477859
11135609 201 18408885123203162777
11578080 2 18411141355391754830
11621639 254 18126841831903211901
12788726 201 17973138893432627994
14068700 686 17971751078146671861
14114211 80 18341326721533641637
14150022 121 17896608473375895137
14294032 229 18338801237724321114
14565420 104 18042685009865222417
14747281 78 18267602208207994350
14849402 71 18049156666476428770
15198563 99 17981875655934612255
15357212 105 17676785266115205924
15513586 35 17171245324052855756
16114785 44 18115590486034503626
16126227 98 18410292531808527765
19438510 23 18334292076515222776
21424621 283 18342175553000297749
21772528 278 18260827102881887061
44249763 50 18125991914110990224
44880568 143 18123475136649428468
4516262 110 18340199680015487349
497634 4 17485663864128785642
508180 173 17703503380836471544
5219985 13 18335410240853428620
57676310 82 18262533528466355089
58260988 587 18197503930963877183
6703917 75 18342176696025535887
6712543 237 13046213936388862609

> <PUBCHEM_SHAPE_MULTIPOLES>
709.2
19.22
7.81
2.32
14.85
6.27
-1.04
-42.94
1.49
-4.68
1.39
-0.93
1.4
-1.13

> <PUBCHEM_SHAPE_SELFOVERLAP>
1492.171

> <PUBCHEM_SHAPE_VOLUME>
399

> <PUBCHEM_COORDINATE_TYPE>
2
5
10

$$$$
