75367682
  -OEChem-12032416403D

 42 44  0     1  0  0  0  0  0999 V2000
   -1.6052    3.5945    0.5895 O   0  0  0  0  0  0  0  0  0  0  0  0
   -1.4726   -0.0631    0.3621 O   0  0  0  0  0  0  0  0  0  0  0  0
    2.6480    2.0889    0.0810 O   0  0  0  0  0  0  0  0  0  0  0  0
    0.5188    2.1641   -0.8197 N   0  0  0  0  0  0  0  0  0  0  0  0
    1.6094    0.0952   -0.5085 N   0  0  0  0  0  0  0  0  0  0  0  0
    4.8033   -1.3143    0.7228 N   0  0  0  0  0  0  0  0  0  0  0  0
   -1.7134    1.2476   -0.1483 C   0  0  2  0  0  0  0  0  0  0  0  0
   -0.7252    1.5307   -1.2816 C   0  0  0  0  0  0  0  0  0  0  0  0
    0.4662    3.6248   -0.7163 C   0  0  0  0  0  0  0  0  0  0  0  0
   -1.6961    2.2385    1.0161 C   0  0  0  0  0  0  0  0  0  0  0  0
   -0.2607    4.0760    0.5444 C   0  0  0  0  0  0  0  0  0  0  0  0
    1.6794    1.4831   -0.3838 C   0  0  0  0  0  0  0  0  0  0  0  0
   -2.4751   -0.9790    0.1948 C   0  0  0  0  0  0  0  0  0  0  0  0
    2.6005   -0.8560   -0.1618 C   0  0  0  0  0  0  0  0  0  0  0  0
   -3.7330   -0.7455    0.7505 C   0  0  0  0  0  0  0  0  0  0  0  0
   -2.2393   -2.1461   -0.5315 C   0  0  0  0  0  0  0  0  0  0  0  0
   -4.7552   -1.6793    0.5800 C   0  0  0  0  0  0  0  0  0  0  0  0
   -3.2612   -3.0799   -0.7021 C   0  0  0  0  0  0  0  0  0  0  0  0
    2.3833   -2.2171   -0.3458 C   0  0  0  0  0  0  0  0  0  0  0  0
   -4.5192   -2.8466   -0.1464 C   0  0  0  0  0  0  0  0  0  0  0  0
    3.8165   -0.4597    0.3713 C   0  0  0  0  0  0  0  0  0  0  0  0
    3.3747   -3.1272    0.0038 C   0  0  0  0  0  0  0  0  0  0  0  0
    4.5561   -2.6293    0.5294 C   0  0  0  0  0  0  0  0  0  0  0  0
   -2.7075    1.3008   -0.6159 H   0  0  0  0  0  0  0  0  0  0  0  0
   -0.5073    0.6269   -1.8571 H   0  0  0  0  0  0  0  0  0  0  0  0
   -1.1905    2.2215   -1.9962 H   0  0  0  0  0  0  0  0  0  0  0  0
   -0.0354    4.0131   -1.6098 H   0  0  0  0  0  0  0  0  0  0  0  0
    1.4818    4.0346   -0.7121 H   0  0  0  0  0  0  0  0  0  0  0  0
   -2.6346    2.1417    1.5734 H   0  0  0  0  0  0  0  0  0  0  0  0
   -0.9094    1.9909    1.7408 H   0  0  0  0  0  0  0  0  0  0  0  0
    0.2823    3.7837    1.4511 H   0  0  0  0  0  0  0  0  0  0  0  0
   -0.3146    5.1699    0.5445 H   0  0  0  0  0  0  0  0  0  0  0  0
    0.7559   -0.3219   -0.8594 H   0  0  0  0  0  0  0  0  0  0  0  0
   -3.9323    0.1514    1.3291 H   0  0  0  0  0  0  0  0  0  0  0  0
   -1.2616   -2.3324   -0.9673 H   0  0  0  0  0  0  0  0  0  0  0  0
   -5.7339   -1.4990    1.0150 H   0  0  0  0  0  0  0  0  0  0  0  0
   -3.0775   -3.9887   -1.2678 H   0  0  0  0  0  0  0  0  0  0  0  0
    1.4469   -2.5806   -0.7604 H   0  0  0  0  0  0  0  0  0  0  0  0
   -5.3148   -3.5740   -0.2788 H   0  0  0  0  0  0  0  0  0  0  0  0
    4.1031    0.5639    0.5594 H   0  0  0  0  0  0  0  0  0  0  0  0
    3.2274   -4.1926   -0.1308 H   0  0  0  0  0  0  0  0  0  0  0  0
    5.3607   -3.2976    0.8179 H   0  0  0  0  0  0  0  0  0  0  0  0
  1 10  1  0  0  0  0
  1 11  1  0  0  0  0
  2  7  1  0  0  0  0
  2 13  1  0  0  0  0
  3 12  2  0  0  0  0
  4  8  1  0  0  0  0
  4  9  1  0  0  0  0
  4 12  1  0  0  0  0
  5 12  1  0  0  0  0
  5 14  1  0  0  0  0
  5 33  1  0  0  0  0
  6 21  1  0  0  0  0
  6 23  2  0  0  0  0
  7  8  1  0  0  0  0
  7 10  1  0  0  0  0
  7 24  1  0  0  0  0
  8 25  1  0  0  0  0
  8 26  1  0  0  0  0
  9 11  1  0  0  0  0
  9 27  1  0  0  0  0
  9 28  1  0  0  0  0
 10 29  1  0  0  0  0
 10 30  1  0  0  0  0
 11 31  1  0  0  0  0
 11 32  1  0  0  0  0
 13 15  2  0  0  0  0
 13 16  1  0  0  0  0
 14 19  1  0  0  0  0
 14 21  2  0  0  0  0
 15 17  1  0  0  0  0
 15 34  1  0  0  0  0
 16 18  2  0  0  0  0
 16 35  1  0  0  0  0
 17 20  2  0  0  0  0
 17 36  1  0  0  0  0
 18 20  1  0  0  0  0
 18 37  1  0  0  0  0
 19 22  2  0  0  0  0
 19 38  1  0  0  0  0
 20 39  1  0  0  0  0
 21 40  1  0  0  0  0
 22 23  1  0  0  0  0
 22 41  1  0  0  0  0
 23 42  1  0  0  0  0
M  END
> <PUBCHEM_COMPOUND_CID>
75367682

> <PUBCHEM_CONFORMER_RMSD>
1

> <PUBCHEM_CONFORMER_DIVERSEORDER>
1
102
132
144
74
105
125
59
82
85
130
104
110
107
103
17
54
60
133
19
55
16
137
67
20
135
138
50
98
64
18
123
120
78
92
76
141
145
7
140
86
139
36
117
95
28
114
128
97
11
69
39
10
99
146
57
109
90
113
44
100
56
47
106
134
52
48
108
43
71
9
63
37
80
5
101
112
111
118
131
29
88
35
96
61
75
53
23
126
87
38
70
93
66
31
129
58
83
21
12
27
13
94
46
42
65
68
136
34
49
62
73
122
115
14
26
79
32
51
143
119
25
72
121
3
4
77
41
2
116
22
147
33
127
30
84
142
6
8
89
124
81
24
45
40
91
15

> <PUBCHEM_MMFF94_PARTIAL_CHARGES>
33
1 -0.56
10 0.28
11 0.28
12 0.69
13 0.08
14 0.12
15 -0.15
16 -0.15
17 -0.15
18 -0.15
19 -0.15
2 -0.36
20 -0.15
21 0.16
22 -0.15
23 0.16
3 -0.57
33 0.37
34 0.15
35 0.15
36 0.15
37 0.15
38 0.15
39 0.15
4 -0.66
40 0.15
41 0.15
42 0.15
5 -0.55
6 -0.62
7 0.28
8 0.3
9 0.3

> <PUBCHEM_EFFECTIVE_ROTOR_COUNT>
6.4

> <PUBCHEM_PHARMACOPHORE_FEATURES>
8
1 1 acceptor
1 2 acceptor
1 3 acceptor
1 5 donor
1 6 acceptor
6 13 15 16 17 18 20 rings
6 6 14 19 21 22 23 rings
7 1 4 7 8 9 10 11 rings

> <PUBCHEM_HEAVY_ATOM_COUNT>
23

> <PUBCHEM_ATOM_DEF_STEREO_COUNT>
1

> <PUBCHEM_ATOM_UDEF_STEREO_COUNT>
0

> <PUBCHEM_BOND_DEF_STEREO_COUNT>
0

> <PUBCHEM_BOND_UDEF_STEREO_COUNT>
0

> <PUBCHEM_ISOTOPIC_ATOM_COUNT>
0

> <PUBCHEM_COMPONENT_COUNT>
1

> <PUBCHEM_CACTVS_TAUTO_COUNT>
2

> <PUBCHEM_CONFORMER_ID>
047E050200000001

> <PUBCHEM_MMFF94_ENERGY>
79.2086

> <PUBCHEM_FEATURE_SELFOVERLAP>
40.598

> <PUBCHEM_SHAPE_FINGERPRINT>
1100329 8 18338238150885964249
11014199 57 18411143519517149194
11265709 11 18410296929833381027
11552529 35 18198619939455172098
12107183 9 18340499902497135755
12293681 25 18048279436554357493
12422481 6 17907894754598747313
12553582 1 18339371836961872783
12788726 201 18265071183341884627
13004483 165 18411131416309494899
13140716 1 18411419466696675256
13533116 47 17978231883633641727
138480 1 15024148115143890470
14117953 113 18343867693280407631
14178342 30 18266734680590799994
14251757 5 17404322706565007806
14790565 3 17688032332989536748
14844126 61 18191862319220800930
14863182 85 18047193230998930260
14866123 147 17978791203859013635
15042514 8 18265618671713766225
15230672 131 17112424316890133838
15352361 1 18408602560824558402
15927050 60 16611383413293992781
16719943 64 16825027335712093230
19141452 34 18194124018817973953
19591789 44 17257658815806034093
20291156 8 18409449202020910791
20775530 9 18408599270984884018
21421861 104 18267325272795320433
21796203 349 17975170739443740106
2255824 54 17759247684003574325
229767 44 18125172545793126049
23184049 29 18411142398461717164
23559900 14 18267296711252180929
257057 1 18410574011074651549
3421961 26 18337390564316219651
463206 1 18192435379395718458
5309563 4 18410854399314126327
56633871 153 18341060601492801795
59682541 52 17908675652974228535
6443956 14 18336546122369606005
7097593 13 18268719479430352991
79837 15 17764598616322280825
9709674 26 17909825440871647862

> <PUBCHEM_SHAPE_MULTIPOLES>
440.78
8.78
5.59
0.94
0.97
3.67
-0.05
-11.52
1.85
-0.27
-0.02
-0.21
0.25
-0.99

> <PUBCHEM_SHAPE_SELFOVERLAP>
933.698

> <PUBCHEM_SHAPE_VOLUME>
240.4

> <PUBCHEM_COORDINATE_TYPE>
2
5
10

$$$$
