25390299
  -OEChem-12032416173D

 50 52  0     1  0  0  0  0  0999 V2000
    9.2360   -0.4719    0.2479 F   0  0  0  0  0  0  0  0  0  0  0  0
   -0.6371    0.5026   -0.9667 O   0  0  0  0  0  0  0  0  0  0  0  0
    0.7997    3.1847   -0.9553 O   0  0  0  0  0  0  0  0  0  0  0  0
   -0.4402    3.1063    1.4993 O   0  0  0  0  0  0  0  0  0  0  0  0
   -3.7562    0.8737   -1.0956 O   0  0  0  0  0  0  0  0  0  0  0  0
    2.9644   -0.1838   -0.4917 N   0  0  0  0  0  0  0  0  0  0  0  0
   -4.5004   -0.3349    0.7761 N   0  0  0  0  0  0  0  0  0  0  0  0
    1.0015    2.0223   -0.1523 C   0  0  2  0  0  0  0  0  0  0  0  0
    0.7774    0.7960   -1.0302 C   0  0  1  0  0  0  0  0  0  0  0  0
   -0.1109    1.8880    0.8669 C   0  0  2  0  0  0  0  0  0  0  0  0
   -1.2496    1.3655    0.0077 C   0  0  2  0  0  0  0  0  0  0  0  0
    1.5304   -0.4334   -0.5404 C   0  0  0  0  0  0  0  0  0  0  0  0
   -2.2912    0.5902    0.7945 C   0  0  0  0  0  0  0  0  0  0  0  0
   -3.5918    0.4070    0.0269 C   0  0  0  0  0  0  0  0  0  0  0  0
    3.6818   -1.3578   -0.0131 C   0  0  0  0  0  0  0  0  0  0  0  0
    5.1629   -1.1216    0.0567 C   0  0  0  0  0  0  0  0  0  0  0  0
   -5.8135   -0.7150    0.4100 C   0  0  0  0  0  0  0  0  0  0  0  0
    5.9667   -1.4044   -1.0476 C   0  0  0  0  0  0  0  0  0  0  0  0
    5.7351   -0.6194    1.2255 C   0  0  0  0  0  0  0  0  0  0  0  0
   -6.5929   -1.4648    1.2908 C   0  0  0  0  0  0  0  0  0  0  0  0
   -6.3285   -0.3404   -0.8310 C   0  0  0  0  0  0  0  0  0  0  0  0
    7.3427   -1.1852   -0.9832 C   0  0  0  0  0  0  0  0  0  0  0  0
    7.1111   -0.4003    1.2901 C   0  0  0  0  0  0  0  0  0  0  0  0
    7.9149   -0.6831    0.1857 C   0  0  0  0  0  0  0  0  0  0  0  0
   -7.8874   -1.8400    0.9307 C   0  0  0  0  0  0  0  0  0  0  0  0
   -7.6228   -0.7153   -1.1911 C   0  0  0  0  0  0  0  0  0  0  0  0
   -8.4022   -1.4652   -0.3102 C   0  0  0  0  0  0  0  0  0  0  0  0
    1.9893    2.1125    0.3066 H   0  0  0  0  0  0  0  0  0  0  0  0
    1.0234    0.9940   -2.0801 H   0  0  0  0  0  0  0  0  0  0  0  0
    0.1645    1.1536    1.6334 H   0  0  0  0  0  0  0  0  0  0  0  0
   -1.7217    2.1979   -0.5301 H   0  0  0  0  0  0  0  0  0  0  0  0
    1.3051   -1.2741   -1.2094 H   0  0  0  0  0  0  0  0  0  0  0  0
    1.1583   -0.7273    0.4493 H   0  0  0  0  0  0  0  0  0  0  0  0
   -2.5375    1.1252    1.7199 H   0  0  0  0  0  0  0  0  0  0  0  0
   -1.9096   -0.4040    1.0576 H   0  0  0  0  0  0  0  0  0  0  0  0
    1.5154    3.2109   -1.6133 H   0  0  0  0  0  0  0  0  0  0  0  0
    0.3653    3.4367    1.9324 H   0  0  0  0  0  0  0  0  0  0  0  0
    3.2949    0.0663   -1.4237 H   0  0  0  0  0  0  0  0  0  0  0  0
    3.4868   -2.2200   -0.6645 H   0  0  0  0  0  0  0  0  0  0  0  0
    3.3222   -1.6425    0.9845 H   0  0  0  0  0  0  0  0  0  0  0  0
   -4.2028   -0.6485    1.6976 H   0  0  0  0  0  0  0  0  0  0  0  0
    5.5329   -1.7942   -1.9647 H   0  0  0  0  0  0  0  0  0  0  0  0
    5.1197   -0.3932    2.0922 H   0  0  0  0  0  0  0  0  0  0  0  0
   -6.2040   -1.7635    2.2609 H   0  0  0  0  0  0  0  0  0  0  0  0
   -5.7869    0.2389   -1.5655 H   0  0  0  0  0  0  0  0  0  0  0  0
    7.9688   -1.4048   -1.8430 H   0  0  0  0  0  0  0  0  0  0  0  0
    7.5570   -0.0089    2.1997 H   0  0  0  0  0  0  0  0  0  0  0  0
   -8.4944   -2.4239    1.6165 H   0  0  0  0  0  0  0  0  0  0  0  0
   -8.0251   -0.4241   -2.1571 H   0  0  0  0  0  0  0  0  0  0  0  0
   -9.4100   -1.7572   -0.5907 H   0  0  0  0  0  0  0  0  0  0  0  0
  1 24  1  0  0  0  0
  2  9  1  0  0  0  0
  2 11  1  0  0  0  0
  3  8  1  0  0  0  0
  3 36  1  0  0  0  0
  4 10  1  0  0  0  0
  4 37  1  0  0  0  0
  5 14  2  0  0  0  0
  6 12  1  0  0  0  0
  6 15  1  0  0  0  0
  6 38  1  0  0  0  0
  7 14  1  0  0  0  0
  7 17  1  0  0  0  0
  7 41  1  0  0  0  0
  8  9  1  0  0  0  0
  8 10  1  0  0  0  0
  8 28  1  0  0  0  0
  9 12  1  0  0  0  0
  9 29  1  0  0  0  0
 10 11  1  0  0  0  0
 10 30  1  0  0  0  0
 11 13  1  0  0  0  0
 11 31  1  0  0  0  0
 12 32  1  0  0  0  0
 12 33  1  0  0  0  0
 13 14  1  0  0  0  0
 13 34  1  0  0  0  0
 13 35  1  0  0  0  0
 15 16  1  0  0  0  0
 15 39  1  0  0  0  0
 15 40  1  0  0  0  0
 16 18  2  0  0  0  0
 16 19  1  0  0  0  0
 17 20  2  0  0  0  0
 17 21  1  0  0  0  0
 18 22  1  0  0  0  0
 18 42  1  0  0  0  0
 19 23  2  0  0  0  0
 19 43  1  0  0  0  0
 20 25  1  0  0  0  0
 20 44  1  0  0  0  0
 21 26  2  0  0  0  0
 21 45  1  0  0  0  0
 22 24  2  0  0  0  0
 22 46  1  0  0  0  0
 23 24  1  0  0  0  0
 23 47  1  0  0  0  0
 25 27  2  0  0  0  0
 25 48  1  0  0  0  0
 26 27  1  0  0  0  0
 26 49  1  0  0  0  0
 27 50  1  0  0  0  0
M  END
> <PUBCHEM_COMPOUND_CID>
25390299

> <PUBCHEM_CONFORMER_RMSD>
1

> <PUBCHEM_CONFORMER_DIVERSEORDER>
1
152
48
128
161
121
26
62
54
138
118
71
162
12
72
145
81
105
37
57
137
111
16
180
140
73
47
44
79
153
175
126
170
93
34
184
87
61
114
115
112
6
11
2
67
146
154
69
177
143
113
91
89
41
133
83
157
40
156
75
101
10
20
102
59
25
108
100
70
80
52
169
129
97
164
176
159
4
60
149
88
99
36
166
18
123
8
45
15
183
49
130
68
85
19
178
124
95
167
171
90
42
144
7
31
74
168
13
21
117
3
141
119
173
77
14
46
142
50
96
53
106
139
116
151
76
22
131
58
98
158
127
30
29
110
182
23
185
107
120
92
122
160
132
155
9
63
135
33
150
163
84
24
94
174
86
28
148
66
136
186
43
56
32
27
55
147
181
82
125
5
38
172
103
78
65
35
64
179
17
39
104
51
134
109
165

> <PUBCHEM_MMFF94_PARTIAL_CHARGES>
40
1 -0.19
10 0.28
11 0.28
12 0.27
13 0.06
14 0.57
15 0.41
16 -0.14
17 0.12
18 -0.15
19 -0.15
2 -0.56
20 -0.15
21 -0.15
22 -0.15
23 -0.15
24 0.19
25 -0.15
26 -0.15
27 -0.15
3 -0.68
36 0.4
37 0.4
38 0.36
4 -0.68
41 0.37
42 0.15
43 0.15
44 0.15
45 0.15
46 0.15
47 0.15
48 0.15
49 0.15
5 -0.57
50 0.15
6 -0.9
7 -0.55
8 0.28
9 0.28

> <PUBCHEM_EFFECTIVE_ROTOR_COUNT>
9

> <PUBCHEM_PHARMACOPHORE_FEATURES>
12
1 2 acceptor
1 3 acceptor
1 3 donor
1 4 acceptor
1 4 donor
1 5 acceptor
1 6 cation
1 6 donor
1 7 donor
5 2 8 9 10 11 rings
6 16 18 19 22 23 24 rings
6 17 20 21 25 26 27 rings

> <PUBCHEM_HEAVY_ATOM_COUNT>
27

> <PUBCHEM_ATOM_DEF_STEREO_COUNT>
4

> <PUBCHEM_ATOM_UDEF_STEREO_COUNT>
0

> <PUBCHEM_BOND_DEF_STEREO_COUNT>
0

> <PUBCHEM_BOND_UDEF_STEREO_COUNT>
0

> <PUBCHEM_ISOTOPIC_ATOM_COUNT>
0

> <PUBCHEM_COMPONENT_COUNT>
1

> <PUBCHEM_CACTVS_TAUTO_COUNT>
2

> <PUBCHEM_CONFORMER_ID>
01836CDB00000001

> <PUBCHEM_MMFF94_ENERGY>
70.3666

> <PUBCHEM_FEATURE_SELFOVERLAP>
60.908

> <PUBCHEM_SHAPE_FINGERPRINT>
10 15 12751242497870832103
10369192 42 10303815363342175947
106641 1 17632856438794305538
10670039 82 15213010541254559743
10904742 90 8214142949993265241
11135609 99 18270961375245184959
11211813 128 18202568354847009662
11823591 26 8430314606583050153
13150687 139 11891329829474977344
13177829 20 16343982520288648587
13540713 5 16914799600019438061
13673619 4 18260829310980594629
13685833 64 18412263943303188123
14150022 121 16486982747881621961
14150023 24 10015866465935381044
14251764 18 16128653063445487519
14849402 71 15984810601371354466
15183329 4 15140958448278284017
15301273 46 17346883308042176837
15350500 55 11167674148932371363
15392192 104 15626223537389796270
15510800 12 18336842939107466419
15728490 51 18131347531464108982
15849732 13 18202280307926667055
15979999 66 17676209090960780068
16991971 28 18337402586372780294
18006028 8 18413670205653113565
18335252 114 11169907303469967890
18335252 98 18131070412369985870
20105231 36 17632583726231627878
2026 5 18260265244489274443
20771845 171 17897170332672328572
21033650 10 16226321535629359317
21150785 3 16225765215949933918
21267235 1 18343023285249893764
21585482 111 9871210327620449299
22224240 67 17274821354813306646
23389318 12 18187093871051937110
23524908 199 12613020683440263754
23559900 14 18041844055907078965
23576562 1 12613336320645264619
2747138 104 18273498966292434266
2838139 119 10375863052974749739
3383291 50 18411986879659811227
3633792 109 13117996678726629712
4461854 278 17847066605306148031
5219985 9 18407760330643722813
59682541 35 18273209820651956018
59682541 52 15430036556917494806
6126387 218 18059856139465878137
9689198 14 11815893474569448394
9953998 17 15770055043297834711
9962374 69 18270394023071370647

> <PUBCHEM_SHAPE_MULTIPOLES>
514.93
28.4
2.28
1.29
3.3
1.95
0.11
-22.54
1.55
-0.62
0.25
-0.2
0.05
0.84

> <PUBCHEM_SHAPE_SELFOVERLAP>
1090.509

> <PUBCHEM_SHAPE_VOLUME>
288.5

> <PUBCHEM_COORDINATE_TYPE>
2
5
10

$$$$
