45783357
  -OEChem-12032416273D

 51 54  0     1  0  0  0  0  0999 V2000
   -1.7514    0.3419   -1.9662 O   0  0  0  0  0  0  0  0  0  0  0  0
    4.5577    0.0557   -0.5032 O   0  0  0  0  0  0  0  0  0  0  0  0
    8.1310   -0.2107    0.1058 O   0  0  0  0  0  0  0  0  0  0  0  0
   -4.4052    0.5320    0.3295 N   0  0  1  0  0  0  0  0  0  0  0  0
   -1.3506    1.2160    0.0567 N   0  0  0  0  0  0  0  0  0  0  0  0
   -0.3710    0.2268   -1.7587 N   0  0  0  0  0  0  0  0  0  0  0  0
   -2.1005   -3.4261   -0.7330 N   0  0  0  0  0  0  0  0  0  0  0  0
    3.5636    1.0605    1.3370 N   0  0  0  0  0  0  0  0  0  0  0  0
   -3.7467    1.1738   -0.8257 C   0  0  1  0  0  0  0  0  0  0  0  0
   -4.1081    2.6656   -0.7029 C   0  0  0  0  0  0  0  0  0  0  0  0
   -5.0198    2.7551    0.5126 C   0  0  0  0  0  0  0  0  0  0  0  0
   -5.5750    1.3515    0.6463 C   0  0  0  0  0  0  0  0  0  0  0  0
   -4.7605   -0.8605    0.0876 C   0  0  0  0  0  0  0  0  0  0  0  0
   -2.2515    0.9346   -0.8504 C   0  0  0  0  0  0  0  0  0  0  0  0
   -3.5753   -1.7763    0.2406 C   0  0  0  0  0  0  0  0  0  0  0  0
   -0.2127    0.7636   -0.5451 C   0  0  0  0  0  0  0  0  0  0  0  0
   -2.8700   -1.8412    1.4372 C   0  0  0  0  0  0  0  0  0  0  0  0
   -3.1540   -2.5820   -0.8050 C   0  0  0  0  0  0  0  0  0  0  0  0
    1.0680    0.8641    0.0929 C   0  0  0  0  0  0  0  0  0  0  0  0
   -1.7805   -2.6977    1.5500 C   0  0  0  0  0  0  0  0  0  0  0  0
   -1.4395   -3.4620    0.4459 C   0  0  0  0  0  0  0  0  0  0  0  0
    2.2074    0.3925   -0.5497 C   0  0  0  0  0  0  0  0  0  0  0  0
    1.1750    1.4337    1.3569 C   0  0  0  0  0  0  0  0  0  0  0  0
    3.4203    0.5130    0.1093 C   0  0  0  0  0  0  0  0  0  0  0  0
    2.4341    1.5077    1.9304 C   0  0  0  0  0  0  0  0  0  0  0  0
    5.7758    0.2037    0.2168 C   0  0  0  0  0  0  0  0  0  0  0  0
    6.9102   -0.3770   -0.6053 C   0  0  0  0  0  0  0  0  0  0  0  0
    9.2292   -0.7584   -0.6103 C   0  0  0  0  0  0  0  0  0  0  0  0
   -4.1767    0.8108   -1.7700 H   0  0  0  0  0  0  0  0  0  0  0  0
   -3.2419    3.3263   -0.5894 H   0  0  0  0  0  0  0  0  0  0  0  0
   -4.6581    2.9856   -1.5965 H   0  0  0  0  0  0  0  0  0  0  0  0
   -5.8046    3.5068    0.3867 H   0  0  0  0  0  0  0  0  0  0  0  0
   -4.4322    3.0205    1.4002 H   0  0  0  0  0  0  0  0  0  0  0  0
   -6.3892    1.1942   -0.0725 H   0  0  0  0  0  0  0  0  0  0  0  0
   -5.9500    1.1621    1.6568 H   0  0  0  0  0  0  0  0  0  0  0  0
   -5.4978   -1.1923    0.8321 H   0  0  0  0  0  0  0  0  0  0  0  0
   -5.2458   -0.9937   -0.8882 H   0  0  0  0  0  0  0  0  0  0  0  0
   -3.1604   -1.2339    2.2902 H   0  0  0  0  0  0  0  0  0  0  0  0
   -3.6618   -2.5755   -1.7645 H   0  0  0  0  0  0  0  0  0  0  0  0
   -1.2160   -2.7646    2.4729 H   0  0  0  0  0  0  0  0  0  0  0  0
   -0.5973   -4.1452    0.4822 H   0  0  0  0  0  0  0  0  0  0  0  0
    2.1780   -0.0606   -1.5358 H   0  0  0  0  0  0  0  0  0  0  0  0
    0.3181    1.8164    1.9016 H   0  0  0  0  0  0  0  0  0  0  0  0
    2.5716    1.9430    2.9148 H   0  0  0  0  0  0  0  0  0  0  0  0
    5.9784    1.2639    0.4158 H   0  0  0  0  0  0  0  0  0  0  0  0
    5.7235   -0.3222    1.1790 H   0  0  0  0  0  0  0  0  0  0  0  0
    6.7253   -1.4410   -0.7970 H   0  0  0  0  0  0  0  0  0  0  0  0
    6.9675    0.1308   -1.5757 H   0  0  0  0  0  0  0  0  0  0  0  0
   10.1371   -0.6005   -0.0219 H   0  0  0  0  0  0  0  0  0  0  0  0
    9.3468   -0.2561   -1.5754 H   0  0  0  0  0  0  0  0  0  0  0  0
    9.0922   -1.8338   -0.7590 H   0  0  0  0  0  0  0  0  0  0  0  0
  1  6  1  0  0  0  0
  1 14  1  0  0  0  0
  2 24  1  0  0  0  0
  2 26  1  0  0  0  0
  3 27  1  0  0  0  0
  3 28  1  0  0  0  0
  4  9  1  0  0  0  0
  4 12  1  0  0  0  0
  4 13  1  0  0  0  0
  5 14  2  0  0  0  0
  5 16  1  0  0  0  0
  6 16  2  0  0  0  0
  7 18  1  0  0  0  0
  7 21  2  0  0  0  0
  8 24  2  0  0  0  0
  8 25  1  0  0  0  0
  9 10  1  0  0  0  0
  9 14  1  0  0  0  0
  9 29  1  0  0  0  0
 10 11  1  0  0  0  0
 10 30  1  0  0  0  0
 10 31  1  0  0  0  0
 11 12  1  0  0  0  0
 11 32  1  0  0  0  0
 11 33  1  0  0  0  0
 12 34  1  0  0  0  0
 12 35  1  0  0  0  0
 13 15  1  0  0  0  0
 13 36  1  0  0  0  0
 13 37  1  0  0  0  0
 15 17  1  0  0  0  0
 15 18  2  0  0  0  0
 16 19  1  0  0  0  0
 17 20  2  0  0  0  0
 17 38  1  0  0  0  0
 18 39  1  0  0  0  0
 19 22  2  0  0  0  0
 19 23  1  0  0  0  0
 20 21  1  0  0  0  0
 20 40  1  0  0  0  0
 21 41  1  0  0  0  0
 22 24  1  0  0  0  0
 22 42  1  0  0  0  0
 23 25  2  0  0  0  0
 23 43  1  0  0  0  0
 25 44  1  0  0  0  0
 26 27  1  0  0  0  0
 26 45  1  0  0  0  0
 26 46  1  0  0  0  0
 27 47  1  0  0  0  0
 27 48  1  0  0  0  0
 28 49  1  0  0  0  0
 28 50  1  0  0  0  0
 28 51  1  0  0  0  0
M  END
> <PUBCHEM_COMPOUND_CID>
45783357

> <PUBCHEM_CONFORMER_RMSD>
1

> <PUBCHEM_CONFORMER_DIVERSEORDER>
4
89
33
38
65
144
139
143
45
10
26
150
147
109
126
17
11
110
128
113
47
94
132
56
63
131
81
137
49
68
141
55
57
52
91
88
106
133
135
134
122
148
54
19
112
87
121
58
13
93
83
90
39
30
130
18
125
129
59
14
97
37
48
75
127
73
145
153
101
123
36
140
105
43
21
70
32
67
102
62
86
119
96
136
100
85
66
28
114
103
23
142
60
35
16
29
79
76
31
51
44
151
77
82
71
98
138
41
53
1
95
146
20
12
7
120
69
42
22
80
5
50
24
72
9
15
64
152
111
2
3
78
61
92
117
84
116
104
74
27
149
108
124
107
40
25
115
46
99
34
6
8
118

> <PUBCHEM_MMFF94_PARTIAL_CHARGES>
33
1 -0.02
12 0.27
13 0.41
14 0.3
15 -0.14
16 0.46
17 -0.15
18 0.16
19 0.05
2 -0.36
20 -0.15
21 0.16
22 -0.15
23 -0.15
24 0.39
25 0.16
26 0.28
27 0.28
28 0.28
3 -0.56
38 0.15
39 0.15
4 -0.81
40 0.15
41 0.15
42 0.15
43 0.15
44 0.15
5 -0.57
6 -0.41
7 -0.62
8 -0.62
9 0.45

> <PUBCHEM_EFFECTIVE_ROTOR_COUNT>
9

> <PUBCHEM_PHARMACOPHORE_FEATURES>
8
1 3 acceptor
1 4 cation
1 7 acceptor
3 5 6 16 cation
5 1 5 6 14 16 rings
5 4 9 10 11 12 rings
6 7 15 17 18 20 21 rings
6 8 19 22 23 24 25 rings

> <PUBCHEM_HEAVY_ATOM_COUNT>
28

> <PUBCHEM_ATOM_DEF_STEREO_COUNT>
1

> <PUBCHEM_ATOM_UDEF_STEREO_COUNT>
0

> <PUBCHEM_BOND_DEF_STEREO_COUNT>
0

> <PUBCHEM_BOND_UDEF_STEREO_COUNT>
0

> <PUBCHEM_ISOTOPIC_ATOM_COUNT>
0

> <PUBCHEM_COMPONENT_COUNT>
1

> <PUBCHEM_CACTVS_TAUTO_COUNT>
1

> <PUBCHEM_CONFORMER_ID>
02BA993D00000004

> <PUBCHEM_MMFF94_ENERGY>
62.3675

> <PUBCHEM_FEATURE_SELFOVERLAP>
40.598

> <PUBCHEM_SHAPE_FINGERPRINT>
10165383 225 18337955585251415033
10670039 82 18261107487295567931
11135926 11 18187635865923860998
11273773 46 18199756856565429054
11524674 6 18202843249274557046
11796584 16 18412826872536348270
12156800 1 15578141851184449155
12166972 35 14476662144675780945
12633257 1 18057055803376882697
12643181 29 18412542098887623770
13004483 165 17765985487543860455
14840074 17 16588021316359003743
14856354 85 18260832600461066420
15021287 119 17312829281520935868
15183329 4 17022615395568037650
15230672 131 18263359201669466738
15537594 2 17095237016883904720
17093844 174 18060412521812968768
18393751 57 16187178164790441465
20771845 165 17535175658558816461
23516275 137 17971489394452757642
23559900 14 18341890805585373336
23569943 247 14691469222143201916
23728640 28 18262238941043757667
249057 3 18260269646418821876
397830 11 18129089195469451800
4073 2 18410292541225916360
469060 322 12036019078726957513
5265222 85 18336274539040266166
5364581 5 18052244383069699640
57527293 21 17628928021487765935
57676310 188 17968377845893524386
58902169 19 17676778621937449052
59755656 520 18408882906203329509
6009941 240 18343586214039838224
602551 16 18334569195920153121

> <PUBCHEM_SHAPE_MULTIPOLES>
533.71
17.4
3.29
1.44
47.58
2.67
-0.18
-1.04
1.62
-6.08
-0.48
-0.16
-0.07
1.03

> <PUBCHEM_SHAPE_SELFOVERLAP>
1143.456

> <PUBCHEM_SHAPE_VOLUME>
295.9

> <PUBCHEM_COORDINATE_TYPE>
2
5
10

$$$$
