45360841
  -OEChem-12032416253D

 60 63  0     1  0  0  0  0  0999 V2000
    2.1314   -1.5915   -0.7052 O   0  0  0  0  0  0  0  0  0  0  0  0
   -4.4179    0.7811   -1.5906 O   0  0  0  0  0  0  0  0  0  0  0  0
   -7.4380   -1.1176    1.0877 O   0  0  0  0  0  0  0  0  0  0  0  0
    3.7209    0.3635    0.2666 N   0  0  1  0  0  0  0  0  0  0  0  0
    0.4338    1.8653   -0.3076 N   0  0  1  0  0  0  0  0  0  0  0  0
    0.2643   -0.9177    0.4333 N   0  0  0  0  0  0  0  0  0  0  0  0
   -5.6130    1.0612    0.3796 N   0  0  0  0  0  0  0  0  0  0  0  0
    1.7540    1.7829    0.3556 C   0  0  1  0  0  0  0  0  0  0  0  0
    2.3160    0.3762    0.7157 C   0  0  1  0  0  0  0  0  0  0  0  0
    2.9062    2.3872   -0.4684 C   0  0  0  0  0  0  0  0  0  0  0  0
    4.1415    1.7539    0.1360 C   0  0  0  0  0  0  0  0  0  0  0  0
   -0.7016    1.3617    0.5148 C   0  0  2  0  0  0  0  0  0  0  0  0
    1.5897   -0.7963    0.0615 C   0  0  0  0  0  0  0  0  0  0  0  0
   -0.4234    0.0466    1.2688 C   0  0  0  0  0  0  0  0  0  0  0  0
    4.6012   -0.3956    1.1456 C   0  0  0  0  0  0  0  0  0  0  0  0
   -1.9481    1.1365   -0.3666 C   0  0  0  0  0  0  0  0  0  0  0  0
    0.1624    3.2388   -0.7650 C   0  0  0  0  0  0  0  0  0  0  0  0
   -3.2147    1.2121    0.4657 C   0  0  0  0  0  0  0  0  0  0  0  0
    5.8598   -0.8278    0.4415 C   0  0  0  0  0  0  0  0  0  0  0  0
   -4.4552    0.9920   -0.3813 C   0  0  0  0  0  0  0  0  0  0  0  0
    5.9001   -2.0522   -0.2255 C   0  0  0  0  0  0  0  0  0  0  0  0
    6.9855   -0.0043    0.4561 C   0  0  0  0  0  0  0  0  0  0  0  0
    7.0659   -2.4531   -0.8780 C   0  0  0  0  0  0  0  0  0  0  0  0
    8.1513   -0.4051   -0.1964 C   0  0  0  0  0  0  0  0  0  0  0  0
    8.1916   -1.6295   -0.8634 C   0  0  0  0  0  0  0  0  0  0  0  0
   -6.9254    0.8862   -0.1960 C   0  0  0  0  0  0  0  0  0  0  0  0
   -7.3728   -0.5505   -0.1455 C   0  0  0  0  0  0  0  0  0  0  0  0
   -7.7463   -1.4539   -1.1134 C   0  0  0  0  0  0  0  0  0  0  0  0
   -8.0614   -2.6530   -0.4309 C   0  0  0  0  0  0  0  0  0  0  0  0
   -7.8577   -2.3971    0.9054 C   0  0  0  0  0  0  0  0  0  0  0  0
    1.7051    2.3598    1.2923 H   0  0  0  0  0  0  0  0  0  0  0  0
    2.2708    0.2482    1.8055 H   0  0  0  0  0  0  0  0  0  0  0  0
    2.8213    2.1101   -1.5278 H   0  0  0  0  0  0  0  0  0  0  0  0
    2.9444    3.4791   -0.3971 H   0  0  0  0  0  0  0  0  0  0  0  0
    4.3672    2.2173    1.1048 H   0  0  0  0  0  0  0  0  0  0  0  0
    5.0018    1.8746   -0.5288 H   0  0  0  0  0  0  0  0  0  0  0  0
   -0.9360    2.1200    1.2752 H   0  0  0  0  0  0  0  0  0  0  0  0
   -1.3357   -0.4399    1.6241 H   0  0  0  0  0  0  0  0  0  0  0  0
    0.1779    0.2408    2.1628 H   0  0  0  0  0  0  0  0  0  0  0  0
    4.0948   -1.3082    1.4901 H   0  0  0  0  0  0  0  0  0  0  0  0
    4.8436    0.1544    2.0652 H   0  0  0  0  0  0  0  0  0  0  0  0
   -2.0441    1.8701   -1.1705 H   0  0  0  0  0  0  0  0  0  0  0  0
   -1.8858    0.1681   -0.8809 H   0  0  0  0  0  0  0  0  0  0  0  0
   -0.2708   -1.6916    0.0513 H   0  0  0  0  0  0  0  0  0  0  0  0
    0.1835    3.9487    0.0703 H   0  0  0  0  0  0  0  0  0  0  0  0
    0.8995    3.5603   -1.5079 H   0  0  0  0  0  0  0  0  0  0  0  0
   -0.7961    3.3572   -1.2732 H   0  0  0  0  0  0  0  0  0  0  0  0
   -3.2248    0.4612    1.2618 H   0  0  0  0  0  0  0  0  0  0  0  0
   -3.2997    2.2000    0.9347 H   0  0  0  0  0  0  0  0  0  0  0  0
    5.0298   -2.7028   -0.2464 H   0  0  0  0  0  0  0  0  0  0  0  0
    6.9704    0.9497    0.9763 H   0  0  0  0  0  0  0  0  0  0  0  0
    7.0972   -3.4062   -1.3978 H   0  0  0  0  0  0  0  0  0  0  0  0
    9.0282    0.2356   -0.1842 H   0  0  0  0  0  0  0  0  0  0  0  0
   -5.5462    1.2229    1.3805 H   0  0  0  0  0  0  0  0  0  0  0  0
    9.0994   -1.9416   -1.3713 H   0  0  0  0  0  0  0  0  0  0  0  0
   -6.9231    1.2430   -1.2315 H   0  0  0  0  0  0  0  0  0  0  0  0
   -7.6221    1.5053    0.3785 H   0  0  0  0  0  0  0  0  0  0  0  0
   -7.7868   -1.2729   -2.1779 H   0  0  0  0  0  0  0  0  0  0  0  0
   -8.3950   -3.5871   -0.8591 H   0  0  0  0  0  0  0  0  0  0  0  0
   -7.9609   -2.9876    1.8039 H   0  0  0  0  0  0  0  0  0  0  0  0
  1 13  2  0  0  0  0
  2 20  2  0  0  0  0
  3 27  1  0  0  0  0
  3 30  1  0  0  0  0
  4  9  1  0  0  0  0
  4 11  1  0  0  0  0
  4 15  1  0  0  0  0
  5  8  1  0  0  0  0
  5 12  1  0  0  0  0
  5 17  1  0  0  0  0
  6 13  1  0  0  0  0
  6 14  1  0  0  0  0
  6 44  1  0  0  0  0
  7 20  1  0  0  0  0
  7 26  1  0  0  0  0
  7 54  1  0  0  0  0
  8  9  1  0  0  0  0
  8 10  1  0  0  0  0
  8 31  1  0  0  0  0
  9 13  1  0  0  0  0
  9 32  1  0  0  0  0
 10 11  1  0  0  0  0
 10 33  1  0  0  0  0
 10 34  1  0  0  0  0
 11 35  1  0  0  0  0
 11 36  1  0  0  0  0
 12 14  1  0  0  0  0
 12 16  1  0  0  0  0
 12 37  1  0  0  0  0
 14 38  1  0  0  0  0
 14 39  1  0  0  0  0
 15 19  1  0  0  0  0
 15 40  1  0  0  0  0
 15 41  1  0  0  0  0
 16 18  1  0  0  0  0
 16 42  1  0  0  0  0
 16 43  1  0  0  0  0
 17 45  1  0  0  0  0
 17 46  1  0  0  0  0
 17 47  1  0  0  0  0
 18 20  1  0  0  0  0
 18 48  1  0  0  0  0
 18 49  1  0  0  0  0
 19 21  2  0  0  0  0
 19 22  1  0  0  0  0
 21 23  1  0  0  0  0
 21 50  1  0  0  0  0
 22 24  2  0  0  0  0
 22 51  1  0  0  0  0
 23 25  2  0  0  0  0
 23 52  1  0  0  0  0
 24 25  1  0  0  0  0
 24 53  1  0  0  0  0
 25 55  1  0  0  0  0
 26 27  1  0  0  0  0
 26 56  1  0  0  0  0
 26 57  1  0  0  0  0
 27 28  2  0  0  0  0
 28 29  1  0  0  0  0
 28 58  1  0  0  0  0
 29 30  2  0  0  0  0
 29 59  1  0  0  0  0
 30 60  1  0  0  0  0
M  END
> <PUBCHEM_COMPOUND_CID>
45360841

> <PUBCHEM_CONFORMER_RMSD>
1.2

> <PUBCHEM_CONFORMER_DIVERSEORDER>
2
163
110
82
152
116
70
96
1
91
136
35
98
53
72
162
158
59
67
148
19
107
9
132
150
99
167
166
102
6
4
66
130
109
64
41
113
12
137
85
135
156
43
155
140
97
142
106
38
73
127
122
14
154
133
11
92
47
75
45
100
168
114
44
105
39
121
125
145
31
62
104
161
56
36
63
83
112
120
101
111
89
147
95
118
18
77
151
160
126
17
25
60
143
119
37
13
81
28
49
141
128
157
40
90
15
21
144
123
86
23
50
108
55
129
61
24
33
46
71
30
42
138
88
146
8
69
76
149
54
87
58
124
78
52
94
79
134
20
117
57
26
139
68
10
103
84
34
153
5
115
74
22
27
164
16
51
159
32
7
3
165
80
131
29
93
48
65

> <PUBCHEM_MMFF94_PARTIAL_CHARGES>
38
1 -0.57
11 0.27
12 0.27
13 0.57
14 0.3
15 0.41
17 0.27
18 0.06
19 -0.14
2 -0.57
20 0.57
21 -0.15
22 -0.15
23 -0.15
24 -0.15
25 -0.15
26 0.48
27 -0.04
28 -0.15
29 -0.15
3 -0.28
30 -0.01
4 -0.81
44 0.37
5 -0.81
50 0.15
51 0.15
52 0.15
53 0.15
54 0.37
55 0.15
58 0.15
59 0.15
6 -0.73
60 0.15
7 -0.73
8 0.27
9 0.33

> <PUBCHEM_EFFECTIVE_ROTOR_COUNT>
9.4

> <PUBCHEM_PHARMACOPHORE_FEATURES>
11
1 1 acceptor
1 2 acceptor
1 3 acceptor
1 4 cation
1 5 cation
1 6 donor
1 7 donor
5 3 27 28 29 30 rings
5 4 8 9 10 11 rings
6 19 21 22 23 24 25 rings
7 5 6 8 9 12 13 14 rings

> <PUBCHEM_HEAVY_ATOM_COUNT>
30

> <PUBCHEM_ATOM_DEF_STEREO_COUNT>
3

> <PUBCHEM_ATOM_UDEF_STEREO_COUNT>
0

> <PUBCHEM_BOND_DEF_STEREO_COUNT>
0

> <PUBCHEM_BOND_UDEF_STEREO_COUNT>
0

> <PUBCHEM_ISOTOPIC_ATOM_COUNT>
0

> <PUBCHEM_COMPONENT_COUNT>
1

> <PUBCHEM_CACTVS_TAUTO_COUNT>
6

> <PUBCHEM_CONFORMER_ID>
02B426C900000002

> <PUBCHEM_MMFF94_ENERGY>
67.1826

> <PUBCHEM_FEATURE_SELFOVERLAP>
55.858

> <PUBCHEM_SHAPE_FINGERPRINT>
10740516 88 18059024865320256718
11135609 99 18342458179096529903
11386260 185 17095809918461635716
11963148 33 18335130956300385707
12539765 74 7925630037987160256
12592606 108 18412544310062356791
13668630 136 18409727348429394737
13782708 43 18259979405951540265
14178184 131 17988637558409977391
14202775 3 18271811152227326814
150020 25 18114173160454776591
15461852 350 17095241423926674807
16991971 28 18409451383890333284
16994733 274 9727630596772952093
1818759 1 17917716790395370742
20028762 73 18412825772212681555
2026 5 18410294670565311978
21130935 74 18200876154700855530
21150785 3 16298107570793713666
21267235 1 18411982450978127953
21781051 124 18343311387372120678
23569917 315 18343310257764631814
23569943 247 17908427948861447450
23576562 1 14707786137776161383
2747138 104 18342733009627133921
335352 9 18334297578700339156
4340502 62 14549014365154774916
4461854 278 17989210369286680463
4625314 4 18408038525146303093
484989 97 18114187488080879355
54039377 194 18342176674419031999
58083652 198 15769481085195385665
5937810 71 12468627302186232351
6328613 192 8286204955226057783
636775 72 9583518720660784387
636775 8 18411706452585691574
6691757 9 15554438605599181933
999808 66 18343863325620095575

> <PUBCHEM_SHAPE_MULTIPOLES>
579.85
28.06
2.94
1.05
22.18
0.1
0.01
-24.06
3
0.64
0.65
0.43
-0.14
1.15

> <PUBCHEM_SHAPE_SELFOVERLAP>
1226.498

> <PUBCHEM_SHAPE_VOLUME>
324.3

> <PUBCHEM_COORDINATE_TYPE>
2
5
10

$$$$
