51136981
  -OEChem-12032416233D

 62 65  0     1  0  0  0  0  0999 V2000
    8.0109   -2.4564   -0.4792 F   0  0  0  0  0  0  0  0  0  0  0  0
    6.0493   -3.3065   -0.8760 F   0  0  0  0  0  0  0  0  0  0  0  0
    6.8475   -1.7714   -2.1837 F   0  0  0  0  0  0  0  0  0  0  0  0
   -3.3011    2.1153   -0.8092 O   0  0  0  0  0  0  0  0  0  0  0  0
   -1.5192    3.6471    1.0473 O   0  0  0  0  0  0  0  0  0  0  0  0
   -5.0617    4.2921   -1.0679 O   0  0  0  0  0  0  0  0  0  0  0  0
   -2.6264   -2.2176   -0.0444 O   0  0  0  0  0  0  0  0  0  0  0  0
    0.2572    1.6669   -0.0229 N   0  0  0  0  0  0  0  0  0  0  0  0
    2.9652    0.8062    0.2688 N   0  0  0  0  0  0  0  0  0  0  0  0
   -3.5759   -0.2455    0.7259 N   0  0  0  0  0  0  0  0  0  0  0  0
   -6.6113   -3.5812   -0.0601 N   0  0  0  0  0  0  0  0  0  0  0  0
   -7.0895   -2.7771    0.9048 N   0  0  0  0  0  0  0  0  0  0  0  0
   -0.9216    2.1136   -0.7443 C   0  0  1  0  0  0  0  0  0  0  0  0
   -2.1723    1.2356   -0.6098 C   0  0  1  0  0  0  0  0  0  0  0  0
   -1.4303    3.4955   -0.3634 C   0  0  1  0  0  0  0  0  0  0  0  0
   -2.8225    3.4631   -0.9829 C   0  0  2  0  0  0  0  0  0  0  0  0
    0.6651    0.3323   -0.4791 C   0  0  0  0  0  0  0  0  0  0  0  0
    1.3623    2.6159   -0.2039 C   0  0  0  0  0  0  0  0  0  0  0  0
   -2.3757    0.5360    0.7294 C   0  0  0  0  0  0  0  0  0  0  0  0
    1.8724   -0.1737    0.3135 C   0  0  0  0  0  0  0  0  0  0  0  0
    2.5938    2.1859    0.5971 C   0  0  0  0  0  0  0  0  0  0  0  0
   -3.8263    4.4317   -0.3848 C   0  0  0  0  0  0  0  0  0  0  0  0
    4.2635    0.3554    0.5321 C   0  0  0  0  0  0  0  0  0  0  0  0
   -3.6069   -1.5815    0.3331 C   0  0  0  0  0  0  0  0  0  0  0  0
    4.8372   -0.6290   -0.2724 C   0  0  0  0  0  0  0  0  0  0  0  0
    4.9840    0.8906    1.6001 C   0  0  0  0  0  0  0  0  0  0  0  0
    6.1312   -1.0784   -0.0092 C   0  0  0  0  0  0  0  0  0  0  0  0
    6.2782    0.4415    1.8632 C   0  0  0  0  0  0  0  0  0  0  0  0
   -4.9358   -2.2449    0.3609 C   0  0  0  0  0  0  0  0  0  0  0  0
    6.8517   -0.5432    1.0587 C   0  0  0  0  0  0  0  0  0  0  0  0
    6.7443   -2.1308   -0.8700 C   0  0  0  0  0  0  0  0  0  0  0  0
   -5.3258   -3.3040   -0.4218 C   0  0  0  0  0  0  0  0  0  0  0  0
   -6.0614   -1.9629    1.1579 C   0  0  0  0  0  0  0  0  0  0  0  0
   -7.4500   -4.6204   -0.6078 C   0  0  0  0  0  0  0  0  0  0  0  0
   -0.6889    2.1573   -1.8209 H   0  0  0  0  0  0  0  0  0  0  0  0
   -2.1936    0.4905   -1.4150 H   0  0  0  0  0  0  0  0  0  0  0  0
   -0.8278    4.3149   -0.7684 H   0  0  0  0  0  0  0  0  0  0  0  0
   -2.7584    3.6182   -2.0676 H   0  0  0  0  0  0  0  0  0  0  0  0
   -0.1217   -0.4200   -0.3932 H   0  0  0  0  0  0  0  0  0  0  0  0
    0.9332    0.3668   -1.5450 H   0  0  0  0  0  0  0  0  0  0  0  0
    1.6291    2.7058   -1.2657 H   0  0  0  0  0  0  0  0  0  0  0  0
    1.0947    3.6164    0.1519 H   0  0  0  0  0  0  0  0  0  0  0  0
   -2.5095    1.2725    1.5289 H   0  0  0  0  0  0  0  0  0  0  0  0
   -1.5502   -0.1143    1.0208 H   0  0  0  0  0  0  0  0  0  0  0  0
    2.1764   -1.1385   -0.1085 H   0  0  0  0  0  0  0  0  0  0  0  0
    1.5894   -0.3527    1.3589 H   0  0  0  0  0  0  0  0  0  0  0  0
    2.3812    2.2702    1.6707 H   0  0  0  0  0  0  0  0  0  0  0  0
    3.4129    2.8755    0.3573 H   0  0  0  0  0  0  0  0  0  0  0  0
   -4.0172    4.2081    0.6695 H   0  0  0  0  0  0  0  0  0  0  0  0
   -3.4819    5.4656   -0.4834 H   0  0  0  0  0  0  0  0  0  0  0  0
   -1.7445    4.5751    1.2298 H   0  0  0  0  0  0  0  0  0  0  0  0
   -4.4389    0.2135    1.0018 H   0  0  0  0  0  0  0  0  0  0  0  0
   -5.6829    4.9246   -0.6685 H   0  0  0  0  0  0  0  0  0  0  0  0
    4.2893   -1.0428   -1.1160 H   0  0  0  0  0  0  0  0  0  0  0  0
    4.5640    1.6478    2.2559 H   0  0  0  0  0  0  0  0  0  0  0  0
    6.8381    0.8558    2.6965 H   0  0  0  0  0  0  0  0  0  0  0  0
    7.8605   -0.8798    1.2810 H   0  0  0  0  0  0  0  0  0  0  0  0
   -4.8096   -3.8689   -1.1864 H   0  0  0  0  0  0  0  0  0  0  0  0
   -6.1810   -1.2017    1.9159 H   0  0  0  0  0  0  0  0  0  0  0  0
   -6.8980   -5.1690   -1.3749 H   0  0  0  0  0  0  0  0  0  0  0  0
   -8.3345   -4.1525   -1.0471 H   0  0  0  0  0  0  0  0  0  0  0  0
   -7.7342   -5.2959    0.2028 H   0  0  0  0  0  0  0  0  0  0  0  0
  1 31  1  0  0  0  0
  2 31  1  0  0  0  0
  3 31  1  0  0  0  0
  4 14  1  0  0  0  0
  4 16  1  0  0  0  0
  5 15  1  0  0  0  0
  5 51  1  0  0  0  0
  6 22  1  0  0  0  0
  6 53  1  0  0  0  0
  7 24  2  0  0  0  0
  8 13  1  0  0  0  0
  8 17  1  0  0  0  0
  8 18  1  0  0  0  0
  9 20  1  0  0  0  0
  9 21  1  0  0  0  0
  9 23  1  0  0  0  0
 10 19  1  0  0  0  0
 10 24  1  0  0  0  0
 10 52  1  0  0  0  0
 11 12  1  0  0  0  0
 11 32  1  0  0  0  0
 11 34  1  0  0  0  0
 12 33  2  0  0  0  0
 13 14  1  0  0  0  0
 13 15  1  0  0  0  0
 13 35  1  0  0  0  0
 14 19  1  0  0  0  0
 14 36  1  0  0  0  0
 15 16  1  0  0  0  0
 15 37  1  0  0  0  0
 16 22  1  0  0  0  0
 16 38  1  0  0  0  0
 17 20  1  0  0  0  0
 17 39  1  0  0  0  0
 17 40  1  0  0  0  0
 18 21  1  0  0  0  0
 18 41  1  0  0  0  0
 18 42  1  0  0  0  0
 19 43  1  0  0  0  0
 19 44  1  0  0  0  0
 20 45  1  0  0  0  0
 20 46  1  0  0  0  0
 21 47  1  0  0  0  0
 21 48  1  0  0  0  0
 22 49  1  0  0  0  0
 22 50  1  0  0  0  0
 23 25  1  0  0  0  0
 23 26  2  0  0  0  0
 24 29  1  0  0  0  0
 25 27  2  0  0  0  0
 25 54  1  0  0  0  0
 26 28  1  0  0  0  0
 26 55  1  0  0  0  0
 27 30  1  0  0  0  0
 27 31  1  0  0  0  0
 28 30  2  0  0  0  0
 28 56  1  0  0  0  0
 29 32  2  0  0  0  0
 29 33  1  0  0  0  0
 30 57  1  0  0  0  0
 32 58  1  0  0  0  0
 33 59  1  0  0  0  0
 34 60  1  0  0  0  0
 34 61  1  0  0  0  0
 34 62  1  0  0  0  0
M  END
> <PUBCHEM_COMPOUND_CID>
51136981

> <PUBCHEM_CONFORMER_RMSD>
1

> <PUBCHEM_CONFORMER_DIVERSEORDER>
1
42
57
110
80
27
101
90
13
5
25
99
79
71
16
49
95
82
66
109
56
104
63
83
87
6
97
88
64
58
91
112
41
33
93
39
92
8
67
21
72
107
65
69
86
75
47
31
60
36
114
108
81
106
26
94
10
11
115
20
70
37
98
3
96
68
62
59
78
48
32
113
89
54
4
30
44
19
22
73
18
61
103
51
102
74
46
111
14
52
40
105
53
38
24
43
9
12
35
45
77
84
23
34
76
100
55
28
85
50
17
7
29
15
2

> <PUBCHEM_MMFF94_PARTIAL_CHARGES>
43
1 -0.34
10 -0.73
11 0.31
12 -0.71
13 0.27
14 0.28
15 0.28
16 0.28
17 0.27
18 0.27
19 0.3
2 -0.34
20 0.37
21 0.37
22 0.28
23 0.1
24 0.72
25 -0.15
26 -0.15
27 -0.14
28 -0.15
29 -0.09
3 -0.34
30 -0.15
31 1.16
32 -0.3
33 0.14
34 0.26
4 -0.56
5 -0.68
51 0.4
52 0.37
53 0.4
54 0.15
55 0.15
56 0.15
57 0.15
58 0.15
59 0.15
6 -0.68
7 -0.57
8 -0.81
9 -0.84

> <PUBCHEM_EFFECTIVE_ROTOR_COUNT>
10.2

> <PUBCHEM_PHARMACOPHORE_FEATURES>
14
1 10 donor
1 12 acceptor
1 4 acceptor
1 5 acceptor
1 5 donor
1 6 acceptor
1 6 donor
1 7 acceptor
1 8 cation
1 9 cation
5 11 12 29 32 33 rings
5 4 13 14 15 16 rings
6 23 25 26 27 28 30 rings
6 8 9 17 18 20 21 rings

> <PUBCHEM_HEAVY_ATOM_COUNT>
34

> <PUBCHEM_ATOM_DEF_STEREO_COUNT>
4

> <PUBCHEM_ATOM_UDEF_STEREO_COUNT>
0

> <PUBCHEM_BOND_DEF_STEREO_COUNT>
0

> <PUBCHEM_BOND_UDEF_STEREO_COUNT>
0

> <PUBCHEM_ISOTOPIC_ATOM_COUNT>
0

> <PUBCHEM_COMPONENT_COUNT>
1

> <PUBCHEM_CACTVS_TAUTO_COUNT>
2

> <PUBCHEM_CONFORMER_ID>
030C49D500000001

> <PUBCHEM_MMFF94_ENERGY>
83.3724

> <PUBCHEM_FEATURE_SELFOVERLAP>
71.055

> <PUBCHEM_SHAPE_FINGERPRINT>
10119406 146 18339636716954935933
10411042 1 18263922306193523161
10940486 97 18114186272252434444
10981352 41 18200875188027882190
11411753 3 18272078363332258568
117089 54 18411989048707622070
12342043 65 18272085024303964120
12643181 29 18193271898097367814
12645989 146 18339929328165237695
12977781 61 18057897844020098895
13008946 335 17981613672295366161
13540713 5 18041857189210975093
13631057 29 18260258664123843736
13690498 29 18333735706045166212
13757389 114 17969786263742169237
13782708 43 18343301470366207594
13911852 28 18266739272095085285
14068700 675 18187078507458358509
14118638 360 18040720316210693556
14344974 204 18411699915440355515
14347332 77 18335702762449081368
15361156 5 18115324326905472961
15510800 12 18411974775950594198
15927050 60 18118397342204984051
16067689 391 18269533079976308151
16120349 21 18411992343057827425
16992779 147 16270504465245019618
17492 89 18410011065638022980
19301679 30 18338516442890884583
19304671 126 11819537221971123898
20028762 73 18340205297057152578
21315759 148 18272080583766683472
23559900 14 18268420249386583376
23569914 152 11893815786821767832
23576562 1 17894638045402521532
25269216 80 18261684709995052230
255183 451 18335424620657500564
3103668 31 18187071855429951397
32027 91 17974849777302828043
3504750 166 18272374226644537411
397830 11 18342731928128870448
4073 2 18340481159191556608
4144715 1 18270676460000196448
513202 73 18412260662259638039
5718773 13 18338233877140414035
6698420 124 17983857783479249097
6712543 237 16702029711725265319

> <PUBCHEM_SHAPE_MULTIPOLES>
629.5
22.11
6.24
1.25
12.29
2.24
0.05
-30.45
0.19
-13.11
-1.93
1.5
-0.14
3.4

> <PUBCHEM_SHAPE_SELFOVERLAP>
1342.176

> <PUBCHEM_SHAPE_VOLUME>
351.4

> <PUBCHEM_COORDINATE_TYPE>
2
5
10

$$$$
