45784384
  -OEChem-12032416343D

 73 76  0     1  0  0  0  0  0999 V2000
    0.8072    1.0315   -0.5589 O   0  0  0  0  0  0  0  0  0  0  0  0
    4.5295   -2.6732   -0.7769 O   0  0  0  0  0  0  0  0  0  0  0  0
   -5.4715    0.4074    2.1473 O   0  0  0  0  0  0  0  0  0  0  0  0
   -4.4927    0.1040    0.0675 N   0  0  0  0  0  0  0  0  0  0  0  0
    5.0420   -0.7912    0.4679 N   0  0  0  0  0  0  0  0  0  0  0  0
   -6.7472    1.0230   -1.0791 N   0  0  0  0  0  0  0  0  0  0  0  0
   -8.9648    1.8502    0.4256 N   0  0  0  0  0  0  0  0  0  0  0  0
   -0.9176   -2.2923    0.1854 C   0  0  1  0  0  0  0  0  0  0  0  0
   -0.7301   -0.7406    0.1058 C   0  0  2  0  0  0  0  0  0  0  0  0
   -2.0513   -0.0419   -0.3779 C   0  0  1  0  0  0  0  0  0  0  0  0
    0.5533   -0.3680   -0.6908 C   0  0  2  0  0  0  0  0  0  0  0  0
    0.3609   -2.9370    0.7712 C   0  0  0  0  0  0  0  0  0  0  0  0
    1.8120   -1.0969   -0.1654 C   0  0  1  0  0  0  0  0  0  0  0  0
   -2.0873   -2.6101    1.1454 C   0  0  0  0  0  0  0  0  0  0  0  0
   -3.2363   -0.4289    0.5510 C   0  0  2  0  0  0  0  0  0  0  0  0
    1.6135   -2.6064   -0.0292 C   0  0  0  0  0  0  0  0  0  0  0  0
   -3.3914   -1.9374    0.7416 C   0  0  0  0  0  0  0  0  0  0  0  0
   -1.2063   -2.9275   -1.1984 C   0  0  0  0  0  0  0  0  0  0  0  0
    3.0388   -0.8185   -1.0429 C   0  0  2  0  0  0  0  0  0  0  0  0
   -1.9461    1.4907   -0.4516 C   0  0  0  0  0  0  0  0  0  0  0  0
    2.7679   -1.3067   -2.4670 C   0  0  0  0  0  0  0  0  0  0  0  0
    4.2683   -1.5104   -0.4491 C   0  0  0  0  0  0  0  0  0  0  0  0
   -5.5147    0.4807    0.9221 C   0  0  0  0  0  0  0  0  0  0  0  0
   -6.7502    0.9836    0.2682 C   0  0  0  0  0  0  0  0  0  0  0  0
    4.8236    0.5935    0.8811 C   0  0  0  0  0  0  0  0  0  0  0  0
    6.2083   -1.4294    1.0690 C   0  0  0  0  0  0  0  0  0  0  0  0
    5.9826    1.4771    0.5207 C   0  0  0  0  0  0  0  0  0  0  0  0
   -7.8396    1.3900    1.0072 C   0  0  0  0  0  0  0  0  0  0  0  0
    7.0343    1.6501    1.4205 C   0  0  0  0  0  0  0  0  0  0  0  0
    6.0077    2.1250   -0.7142 C   0  0  0  0  0  0  0  0  0  0  0  0
   -7.8725    1.4834   -1.6607 C   0  0  0  0  0  0  0  0  0  0  0  0
   -8.9618    1.8896   -0.9216 C   0  0  0  0  0  0  0  0  0  0  0  0
    8.1111    2.4712    1.0855 C   0  0  0  0  0  0  0  0  0  0  0  0
    7.0844    2.9460   -1.0493 C   0  0  0  0  0  0  0  0  0  0  0  0
    8.1360    3.1192   -0.1495 C   0  0  0  0  0  0  0  0  0  0  0  0
   -0.5659   -0.3757    1.1325 H   0  0  0  0  0  0  0  0  0  0  0  0
   -2.2796   -0.3814   -1.3962 H   0  0  0  0  0  0  0  0  0  0  0  0
    0.3606   -0.5648   -1.7468 H   0  0  0  0  0  0  0  0  0  0  0  0
    0.2463   -4.0274    0.8252 H   0  0  0  0  0  0  0  0  0  0  0  0
    0.5064   -2.5940    1.8045 H   0  0  0  0  0  0  0  0  0  0  0  0
    2.0303   -0.7047    0.8388 H   0  0  0  0  0  0  0  0  0  0  0  0
   -2.2472   -3.6943    1.2039 H   0  0  0  0  0  0  0  0  0  0  0  0
   -1.8294   -2.2831    2.1617 H   0  0  0  0  0  0  0  0  0  0  0  0
   -3.0464    0.0129    1.5391 H   0  0  0  0  0  0  0  0  0  0  0  0
    2.4523   -3.0597    0.5105 H   0  0  0  0  0  0  0  0  0  0  0  0
    1.5495   -3.1227   -0.9884 H   0  0  0  0  0  0  0  0  0  0  0  0
   -3.7841   -2.3958   -0.1742 H   0  0  0  0  0  0  0  0  0  0  0  0
   -4.1459   -2.1388    1.5131 H   0  0  0  0  0  0  0  0  0  0  0  0
   -2.1411   -2.5743   -1.6409 H   0  0  0  0  0  0  0  0  0  0  0  0
   -1.2864   -4.0175   -1.1124 H   0  0  0  0  0  0  0  0  0  0  0  0
   -0.4195   -2.7167   -1.9280 H   0  0  0  0  0  0  0  0  0  0  0  0
    3.2209    0.2528   -1.1418 H   0  0  0  0  0  0  0  0  0  0  0  0
   -1.3021    1.8028   -1.2786 H   0  0  0  0  0  0  0  0  0  0  0  0
   -1.5582    1.9080    0.4833 H   0  0  0  0  0  0  0  0  0  0  0  0
   -2.9166    1.9587   -0.6456 H   0  0  0  0  0  0  0  0  0  0  0  0
   -4.6444    0.1470   -0.9365 H   0  0  0  0  0  0  0  0  0  0  0  0
    0.9335    1.2281    0.3850 H   0  0  0  0  0  0  0  0  0  0  0  0
    1.9823   -0.7391   -2.9712 H   0  0  0  0  0  0  0  0  0  0  0  0
    3.6732   -1.1518   -3.0692 H   0  0  0  0  0  0  0  0  0  0  0  0
    2.5471   -2.3724   -2.5536 H   0  0  0  0  0  0  0  0  0  0  0  0
    4.6884    0.5848    1.9711 H   0  0  0  0  0  0  0  0  0  0  0  0
    3.8958    1.0192    0.4977 H   0  0  0  0  0  0  0  0  0  0  0  0
    7.1164   -1.0658    0.5805 H   0  0  0  0  0  0  0  0  0  0  0  0
    6.1726   -2.5149    0.9391 H   0  0  0  0  0  0  0  0  0  0  0  0
    6.2359   -1.2195    2.1421 H   0  0  0  0  0  0  0  0  0  0  0  0
   -7.8593    1.3658    2.0903 H   0  0  0  0  0  0  0  0  0  0  0  0
    7.0268    1.1594    2.3900 H   0  0  0  0  0  0  0  0  0  0  0  0
    5.1951    1.9969   -1.4242 H   0  0  0  0  0  0  0  0  0  0  0  0
   -7.8707    1.5153   -2.7432 H   0  0  0  0  0  0  0  0  0  0  0  0
   -9.8656    2.2594   -1.3898 H   0  0  0  0  0  0  0  0  0  0  0  0
    8.9291    2.6074    1.7868 H   0  0  0  0  0  0  0  0  0  0  0  0
    7.1041    3.4503   -2.0110 H   0  0  0  0  0  0  0  0  0  0  0  0
    8.9741    3.7587   -0.4103 H   0  0  0  0  0  0  0  0  0  0  0  0
  1 11  1  0  0  0  0
  1 57  1  0  0  0  0
  2 22  2  0  0  0  0
  3 23  2  0  0  0  0
  4 15  1  0  0  0  0
  4 23  1  0  0  0  0
  4 56  1  0  0  0  0
  5 22  1  0  0  0  0
  5 25  1  0  0  0  0
  5 26  1  0  0  0  0
  6 24  2  0  0  0  0
  6 31  1  0  0  0  0
  7 28  2  0  0  0  0
  7 32  1  0  0  0  0
  8  9  1  0  0  0  0
  8 12  1  0  0  0  0
  8 14  1  0  0  0  0
  8 18  1  0  0  0  0
  9 10  1  0  0  0  0
  9 11  1  0  0  0  0
  9 36  1  0  0  0  0
 10 15  1  0  0  0  0
 10 20  1  0  0  0  0
 10 37  1  0  0  0  0
 11 13  1  0  0  0  0
 11 38  1  0  0  0  0
 12 16  1  0  0  0  0
 12 39  1  0  0  0  0
 12 40  1  0  0  0  0
 13 16  1  0  0  0  0
 13 19  1  0  0  0  0
 13 41  1  0  0  0  0
 14 17  1  0  0  0  0
 14 42  1  0  0  0  0
 14 43  1  0  0  0  0
 15 17  1  0  0  0  0
 15 44  1  0  0  0  0
 16 45  1  0  0  0  0
 16 46  1  0  0  0  0
 17 47  1  0  0  0  0
 17 48  1  0  0  0  0
 18 49  1  0  0  0  0
 18 50  1  0  0  0  0
 18 51  1  0  0  0  0
 19 21  1  0  0  0  0
 19 22  1  0  0  0  0
 19 52  1  0  0  0  0
 20 53  1  0  0  0  0
 20 54  1  0  0  0  0
 20 55  1  0  0  0  0
 21 58  1  0  0  0  0
 21 59  1  0  0  0  0
 21 60  1  0  0  0  0
 23 24  1  0  0  0  0
 24 28  1  0  0  0  0
 25 27  1  0  0  0  0
 25 61  1  0  0  0  0
 25 62  1  0  0  0  0
 26 63  1  0  0  0  0
 26 64  1  0  0  0  0
 26 65  1  0  0  0  0
 27 29  2  0  0  0  0
 27 30  1  0  0  0  0
 28 66  1  0  0  0  0
 29 33  1  0  0  0  0
 29 67  1  0  0  0  0
 30 34  2  0  0  0  0
 30 68  1  0  0  0  0
 31 32  2  0  0  0  0
 31 69  1  0  0  0  0
 32 70  1  0  0  0  0
 33 35  2  0  0  0  0
 33 71  1  0  0  0  0
 34 35  1  0  0  0  0
 34 72  1  0  0  0  0
 35 73  1  0  0  0  0
M  END
> <PUBCHEM_COMPOUND_CID>
45784384

> <PUBCHEM_CONFORMER_RMSD>
1

> <PUBCHEM_CONFORMER_DIVERSEORDER>
1
201
245
71
231
108
82
192
161
147
119
164
152
140
94
200
109
64
126
171
246
8
215
135
199
95
78
155
243
170
220
134
236
28
238
131
166
66
168
113
218
114
235
46
58
163
55
146
239
149
213
178
27
39
159
222
189
143
90
34
191
219
162
26
180
105
80
53
207
195
136
225
30
148
160
130
212
128
41
211
169
99
59
197
45
9
244
173
193
185
196
217
145
234
203
62
228
208
141
230
137
88
101
122
102
237
104
127
209
240
44
206
174
229
177
123
132
204
194
110
226
14
57
150
224
68
40
221
210
241
33
142
117
60
233
124
179
144
54
17
232
87
67
216
227
205
198
184
15
50
77
176
72
38
21
84
202
73
214
167
37
158
100
6
97
115
165
29
83
43
112
93
133
242
23
139
89
188
74
125
49
61
153
151
157
70
111
92
129
154
10
187
118
175
36
223
190
182
48
172
22
51
138
20
116
98
4
91
120
107
47
121
56
52
13
5
96
63
11
76
85
32
65
2
103
79
69
186
183
106
35
19
181
31
24
25
7
16
156
86
75
42
12
81
3
18

> <PUBCHEM_MMFF94_PARTIAL_CHARGES>
34
1 -0.68
11 0.28
15 0.3
19 0.06
2 -0.57
22 0.57
23 0.54
24 0.4
25 0.44
26 0.3
27 -0.14
28 0.16
29 -0.15
3 -0.57
30 -0.15
31 0.16
32 0.16
33 -0.15
34 -0.15
35 -0.15
4 -0.73
5 -0.66
56 0.37
57 0.4
6 -0.62
66 0.15
67 0.15
68 0.15
69 0.15
7 -0.62
70 0.15
71 0.15
72 0.15
73 0.15

> <PUBCHEM_EFFECTIVE_ROTOR_COUNT>
9.6

> <PUBCHEM_PHARMACOPHORE_FEATURES>
12
1 1 acceptor
1 1 donor
1 2 acceptor
1 21 hydrophobe
1 3 acceptor
1 4 donor
1 6 acceptor
1 7 acceptor
6 27 29 30 33 34 35 rings
6 6 7 24 28 31 32 rings
6 8 9 10 14 15 17 rings
6 8 9 11 12 13 16 rings

> <PUBCHEM_HEAVY_ATOM_COUNT>
35

> <PUBCHEM_ATOM_DEF_STEREO_COUNT>
6

> <PUBCHEM_ATOM_UDEF_STEREO_COUNT>
1

> <PUBCHEM_BOND_DEF_STEREO_COUNT>
0

> <PUBCHEM_BOND_UDEF_STEREO_COUNT>
0

> <PUBCHEM_ISOTOPIC_ATOM_COUNT>
0

> <PUBCHEM_COMPONENT_COUNT>
1

> <PUBCHEM_CACTVS_TAUTO_COUNT>
2

> <PUBCHEM_CONFORMER_ID>
02BA9D4000000001

> <PUBCHEM_MMFF94_ENERGY>
112.0898

> <PUBCHEM_FEATURE_SELFOVERLAP>
60.916

> <PUBCHEM_SHAPE_FINGERPRINT>
10 15 18040155123471739216
10280341 67 18200020876563135432
10533779 1 18341603854726236384
10554248 39 17775290417852046390
10835480 77 18412546526318196665
11476731 118 18189331269936309405
12522641 126 15338574738902583828
12522641 68 18202283640589784710
12539765 74 17845943935430190583
12925494 130 18268988863958633392
15274700 259 18263344946588751893
15350500 55 18413107294776553496
15840311 113 18260266326540710614
16067689 68 13045934682395066421
17134984 74 11095891463108861692
17980427 23 18043248145008698430
19315958 150 18408325484241972856
20105231 36 11312051072420935285
2026 5 8790343122610972280
20721686 146 18340491175171699708
21033648 29 17822015298514441211
21521721 280 18341050731562386219
21585482 111 18336549438860734444
21792934 111 17895191069517092340
21792938 324 15936400178158194900
21859007 373 17604420804641938445
22899556 105 10951507989368377996
23522609 53 16915958253779383995
23576562 1 16557892584798075641
24771293 8 18409448107342281933
249057 25 16988010370995686794
3383291 50 8358264722122837932
3504750 166 11314029093896852203
3918712 181 18411980277846359656
397638 26 17313105237775498027
3986486 107 16343438267103833960
4112364 45 18114450181144771978
4169191 19 18413111667079959649
4258327 124 17775283889464313287
4403749 210 18335143129028714307
44880568 143 17702110171198151673
45377200 153 12031204257538834101
49967989 163 15840689920771032965
5104073 3 18187649145857349722
54039377 194 8286209357494164240
5470011 282 12247673889930746016
57527293 21 18187631545344951678
9961470 85 17913200146489203520

> <PUBCHEM_SHAPE_MULTIPOLES>
682.75
27.42
3.73
1.51
18.69
0.68
-0.26
-33.13
2.58
-4.01
-0.26
0.18
0.03
1.28

> <PUBCHEM_SHAPE_SELFOVERLAP>
1443.067

> <PUBCHEM_SHAPE_VOLUME>
377.2

> <PUBCHEM_COORDINATE_TYPE>
2
5
10

$$$$
