45361612
  -OEChem-12032416333D

 75 78  0     1  0  0  0  0  0999 V2000
   -0.1447   -2.6480   -1.3620 O   0  0  0  0  0  0  0  0  0  0  0  0
    4.7411   -2.9051    0.7908 O   0  0  0  0  0  0  0  0  0  0  0  0
   -5.1099    2.0913   -1.2159 O   0  0  0  0  0  0  0  0  0  0  0  0
    6.6062    3.7288    0.6646 O   0  0  0  0  0  0  0  0  0  0  0  0
   -4.5070    0.2397    0.0426 N   0  0  0  0  0  0  0  0  0  0  0  0
    4.2990   -1.8589   -1.2315 N   0  0  0  0  0  0  0  0  0  0  0  0
   -7.0961   -0.2996    0.4334 N   0  0  0  0  0  0  0  0  0  0  0  0
   -0.3507    0.2059    1.1654 C   0  0  1  0  0  0  0  0  0  0  0  0
   -0.7652   -0.6891   -0.0495 C   0  0  2  0  0  0  0  0  0  0  0  0
   -2.3171   -0.9325   -0.0608 C   0  0  1  0  0  0  0  0  0  0  0  0
    0.1130   -1.9708   -0.1311 C   0  0  2  0  0  0  0  0  0  0  0  0
    1.1620    0.5191    1.0832 C   0  0  0  0  0  0  0  0  0  0  0  0
   -1.1140    1.5482    1.0865 C   0  0  0  0  0  0  0  0  0  0  0  0
    1.6271   -1.6568   -0.1079 C   0  0  1  0  0  0  0  0  0  0  0  0
   -3.0750    0.4249   -0.0642 C   0  0  2  0  0  0  0  0  0  0  0  0
    2.0270   -0.7337    1.0430 C   0  0  0  0  0  0  0  0  0  0  0  0
   -2.6255    1.3746    1.0459 C   0  0  0  0  0  0  0  0  0  0  0  0
   -0.6458   -0.4694    2.5288 C   0  0  0  0  0  0  0  0  0  0  0  0
    2.4727   -2.9352   -0.0569 C   0  0  2  0  0  0  0  0  0  0  0  0
   -2.7985   -1.7834   -1.2482 C   0  0  0  0  0  0  0  0  0  0  0  0
    2.1281   -3.7430    1.1894 C   0  0  0  0  0  0  0  0  0  0  0  0
    3.9556   -2.5796   -0.0969 C   0  0  0  0  0  0  0  0  0  0  0  0
   -5.4114    1.1029   -0.5520 C   0  0  0  0  0  0  0  0  0  0  0  0
   -6.8462    0.7901   -0.3266 C   0  0  0  0  0  0  0  0  0  0  0  0
    5.6459   -1.4067   -1.4920 C   0  0  0  0  0  0  0  0  0  0  0  0
   -7.8308    1.5932   -0.8791 C   0  0  0  0  0  0  0  0  0  0  0  0
    5.9010   -0.0423   -0.9196 C   0  0  0  0  0  0  0  0  0  0  0  0
   -9.1577    1.2562   -0.6356 C   0  0  0  0  0  0  0  0  0  0  0  0
   -8.3975   -0.5960    0.6483 C   0  0  0  0  0  0  0  0  0  0  0  0
    5.3783    1.0876   -1.5489 C   0  0  0  0  0  0  0  0  0  0  0  0
    6.6608    0.0953    0.2420 C   0  0  0  0  0  0  0  0  0  0  0  0
   -9.4549    0.1422    0.1418 C   0  0  0  0  0  0  0  0  0  0  0  0
    5.6155    2.3549   -1.0167 C   0  0  0  0  0  0  0  0  0  0  0  0
    6.8981    1.3625    0.7743 C   0  0  0  0  0  0  0  0  0  0  0  0
    6.3755    2.4924    0.1448 C   0  0  0  0  0  0  0  0  0  0  0  0
    6.0412    4.8403   -0.0293 C   0  0  0  0  0  0  0  0  0  0  0  0
   -0.5529   -0.1171   -0.9672 H   0  0  0  0  0  0  0  0  0  0  0  0
   -2.5957   -1.4866    0.8446 H   0  0  0  0  0  0  0  0  0  0  0  0
   -0.1937   -2.6369    0.6771 H   0  0  0  0  0  0  0  0  0  0  0  0
    1.3682    1.1139    0.1830 H   0  0  0  0  0  0  0  0  0  0  0  0
    1.4687    1.1394    1.9353 H   0  0  0  0  0  0  0  0  0  0  0  0
   -0.8500    2.1864    1.9395 H   0  0  0  0  0  0  0  0  0  0  0  0
   -0.8043    2.0962    0.1864 H   0  0  0  0  0  0  0  0  0  0  0  0
    1.8457   -1.1222   -1.0420 H   0  0  0  0  0  0  0  0  0  0  0  0
   -2.8747    0.9189   -1.0251 H   0  0  0  0  0  0  0  0  0  0  0  0
    1.9648   -1.2226    2.0174 H   0  0  0  0  0  0  0  0  0  0  0  0
    3.0678   -0.4066    0.9369 H   0  0  0  0  0  0  0  0  0  0  0  0
   -3.0901    2.3589    0.9035 H   0  0  0  0  0  0  0  0  0  0  0  0
   -2.9904    1.0200    2.0176 H   0  0  0  0  0  0  0  0  0  0  0  0
   -1.7114   -0.6498    2.6912 H   0  0  0  0  0  0  0  0  0  0  0  0
   -0.3004    0.1636    3.3547 H   0  0  0  0  0  0  0  0  0  0  0  0
   -0.1490   -1.4380    2.6327 H   0  0  0  0  0  0  0  0  0  0  0  0
    2.2716   -3.5561   -0.9395 H   0  0  0  0  0  0  0  0  0  0  0  0
   -2.4194   -1.3915   -2.1976 H   0  0  0  0  0  0  0  0  0  0  0  0
   -3.8909   -1.8126   -1.3145 H   0  0  0  0  0  0  0  0  0  0  0  0
   -2.4858   -2.8257   -1.1393 H   0  0  0  0  0  0  0  0  0  0  0  0
   -4.8535   -0.5193    0.6227 H   0  0  0  0  0  0  0  0  0  0  0  0
    0.0717   -2.0425   -2.0915 H   0  0  0  0  0  0  0  0  0  0  0  0
    1.1009   -4.1139    1.1911 H   0  0  0  0  0  0  0  0  0  0  0  0
    2.7596   -4.6408    1.2198 H   0  0  0  0  0  0  0  0  0  0  0  0
    2.3212   -3.2216    2.1298 H   0  0  0  0  0  0  0  0  0  0  0  0
    3.6014   -1.6748   -1.9453 H   0  0  0  0  0  0  0  0  0  0  0  0
    5.7860   -1.3882   -2.5789 H   0  0  0  0  0  0  0  0  0  0  0  0
    6.3567   -2.1388   -1.0913 H   0  0  0  0  0  0  0  0  0  0  0  0
   -7.6000    2.4623   -1.4855 H   0  0  0  0  0  0  0  0  0  0  0  0
   -9.9588    1.8604   -1.0507 H   0  0  0  0  0  0  0  0  0  0  0  0
   -8.5758   -1.4739    1.2604 H   0  0  0  0  0  0  0  0  0  0  0  0
    4.7841    0.9913   -2.4539 H   0  0  0  0  0  0  0  0  0  0  0  0
    7.0725   -0.7763    0.7438 H   0  0  0  0  0  0  0  0  0  0  0  0
  -10.4818   -0.1392    0.3445 H   0  0  0  0  0  0  0  0  0  0  0  0
    5.1795    3.1890   -1.5557 H   0  0  0  0  0  0  0  0  0  0  0  0
    7.4901    1.4634    1.6798 H   0  0  0  0  0  0  0  0  0  0  0  0
    6.3239    5.7431    0.5220 H   0  0  0  0  0  0  0  0  0  0  0  0
    4.9467    4.7979   -0.0335 H   0  0  0  0  0  0  0  0  0  0  0  0
    6.4568    4.9385   -1.0379 H   0  0  0  0  0  0  0  0  0  0  0  0
  1 11  1  0  0  0  0
  1 58  1  0  0  0  0
  2 22  2  0  0  0  0
  3 23  2  0  0  0  0
  4 35  1  0  0  0  0
  4 36  1  0  0  0  0
  5 15  1  0  0  0  0
  5 23  1  0  0  0  0
  5 57  1  0  0  0  0
  6 22  1  0  0  0  0
  6 25  1  0  0  0  0
  6 62  1  0  0  0  0
  7 24  1  0  0  0  0
  7 29  2  0  0  0  0
  8  9  1  0  0  0  0
  8 12  1  0  0  0  0
  8 13  1  0  0  0  0
  8 18  1  0  0  0  0
  9 10  1  0  0  0  0
  9 11  1  0  0  0  0
  9 37  1  0  0  0  0
 10 15  1  0  0  0  0
 10 20  1  0  0  0  0
 10 38  1  0  0  0  0
 11 14  1  0  0  0  0
 11 39  1  0  0  0  0
 12 16  1  0  0  0  0
 12 40  1  0  0  0  0
 12 41  1  0  0  0  0
 13 17  1  0  0  0  0
 13 42  1  0  0  0  0
 13 43  1  0  0  0  0
 14 16  1  0  0  0  0
 14 19  1  0  0  0  0
 14 44  1  0  0  0  0
 15 17  1  0  0  0  0
 15 45  1  0  0  0  0
 16 46  1  0  0  0  0
 16 47  1  0  0  0  0
 17 48  1  0  0  0  0
 17 49  1  0  0  0  0
 18 50  1  0  0  0  0
 18 51  1  0  0  0  0
 18 52  1  0  0  0  0
 19 21  1  0  0  0  0
 19 22  1  0  0  0  0
 19 53  1  0  0  0  0
 20 54  1  0  0  0  0
 20 55  1  0  0  0  0
 20 56  1  0  0  0  0
 21 59  1  0  0  0  0
 21 60  1  0  0  0  0
 21 61  1  0  0  0  0
 23 24  1  0  0  0  0
 24 26  2  0  0  0  0
 25 27  1  0  0  0  0
 25 63  1  0  0  0  0
 25 64  1  0  0  0  0
 26 28  1  0  0  0  0
 26 65  1  0  0  0  0
 27 30  2  0  0  0  0
 27 31  1  0  0  0  0
 28 32  2  0  0  0  0
 28 66  1  0  0  0  0
 29 32  1  0  0  0  0
 29 67  1  0  0  0  0
 30 33  1  0  0  0  0
 30 68  1  0  0  0  0
 31 34  2  0  0  0  0
 31 69  1  0  0  0  0
 32 70  1  0  0  0  0
 33 35  2  0  0  0  0
 33 71  1  0  0  0  0
 34 35  1  0  0  0  0
 34 72  1  0  0  0  0
 36 73  1  0  0  0  0
 36 74  1  0  0  0  0
 36 75  1  0  0  0  0
M  END
> <PUBCHEM_COMPOUND_CID>
45361612

> <PUBCHEM_CONFORMER_RMSD>
1

> <PUBCHEM_CONFORMER_DIVERSEORDER>
1
142
287
119
139
163
294
94
239
122
2
222
172
286
71
221
202
38
264
92
41
293
125
196
54
284
147
188
116
220
215
229
88
161
193
34
289
296
121
200
192
211
115
80
217
232
266
157
199
76
127
69
156
205
166
247
158
57
106
101
255
186
261
44
278
70
134
258
191
131
99
104
189
210
179
83
64
23
206
8
77
130
194
35
81
288
48
168
61
53
109
141
295
273
218
46
49
16
79
51
68
75
225
165
148
86
55
39
105
268
281
244
4
97
187
30
267
226
155
91
3
40
203
208
181
82
84
138
183
25
58
50
169
7
178
102
262
56
74
145
280
159
234
228
185
137
160
227
198
95
230
28
117
96
90
290
73
248
201
265
254
62
216
133
164
112
27
110
19
263
143
224
272
132
120
66
195
72
279
175
111
283
246
60
52
245
242
6
87
124
63
126
85
176
291
153
152
32
241
251
236
100
135
214
182
149
98
15
151
276
93
271
180
197
26
10
256
114
65
269
107
170
260
89
17
243
24
12
33
140
282
43
103
78
29
13
240
223
277
118
20
285
128
253
47
113
67
274
213
136
150
204
45
171
233
42
259
31
237
174
129
209
123
231
212
18
108
11
5
177
184
21
9
270
238
146
190
219
252
167
37
59
292
154
14
173
36
249
257
22
235
207
275
162
144
250

> <PUBCHEM_MMFF94_PARTIAL_CHARGES>
36
1 -0.68
11 0.28
15 0.3
19 0.06
2 -0.57
22 0.57
23 0.54
24 0.4
25 0.44
26 -0.15
27 -0.14
28 -0.15
29 0.16
3 -0.57
30 -0.15
31 -0.15
32 -0.15
33 -0.15
34 -0.15
35 0.08
36 0.28
4 -0.36
5 -0.73
57 0.37
58 0.4
6 -0.73
62 0.37
65 0.15
66 0.15
67 0.15
68 0.15
69 0.15
7 -0.62
70 0.15
71 0.15
72 0.15

> <PUBCHEM_EFFECTIVE_ROTOR_COUNT>
10.6

> <PUBCHEM_PHARMACOPHORE_FEATURES>
13
1 1 acceptor
1 1 donor
1 2 acceptor
1 21 hydrophobe
1 3 acceptor
1 4 acceptor
1 5 donor
1 6 donor
1 7 acceptor
6 27 30 31 33 34 35 rings
6 7 24 26 28 29 32 rings
6 8 9 10 13 15 17 rings
6 8 9 11 12 14 16 rings

> <PUBCHEM_HEAVY_ATOM_COUNT>
36

> <PUBCHEM_ATOM_DEF_STEREO_COUNT>
6

> <PUBCHEM_ATOM_UDEF_STEREO_COUNT>
1

> <PUBCHEM_BOND_DEF_STEREO_COUNT>
0

> <PUBCHEM_BOND_UDEF_STEREO_COUNT>
0

> <PUBCHEM_ISOTOPIC_ATOM_COUNT>
0

> <PUBCHEM_COMPONENT_COUNT>
1

> <PUBCHEM_CACTVS_TAUTO_COUNT>
4

> <PUBCHEM_CONFORMER_ID>
02B429CC00000001

> <PUBCHEM_MMFF94_ENERGY>
110.7337

> <PUBCHEM_FEATURE_SELFOVERLAP>
65.988

> <PUBCHEM_SHAPE_FINGERPRINT>
10533779 47 10159698036763373741
10673678 19 18412267229022092454
10816530 90 18271800246502586728
11007060 377 18261403217738141977
11135609 127 18342170124974142112
11135609 187 18198623427179918384
11211813 74 18410291394074685037
11693224 71 18128242584185337936
13165053 371 18335985281415088701
13617811 41 18343298167616154408
13782708 43 11743838053768992305
13947947 19 17846770828973785191
14117953 113 18413113871215925100
14675020 138 15357698561011873306
150020 25 18336274478504873279
15361156 5 18342172277100534103
15840311 113 18410014321148906734
15890870 6 18336269024893439500
16728300 4 10809605035550107592
16992787 43 18343586256921303385
17686467 74 18040720273772352949
19053607 189 17982724479845165176
19302320 297 18261668264544702580
19319366 153 18339356371027908286
20715895 44 18410854400384264328
21049683 118 17748824146880489786
21521721 280 18411705361706514707
21781055 127 15410630181536155979
23522609 53 17488483909226461697
23569914 2 17099418437940298948
3044373 193 17240768363378455582
34797466 226 18059580152666360614
3534868 343 17416697847542871678
3552219 110 17775014462335534009
4112364 45 18188196677025260392
4149490 64 18187645782381213122
44317340 157 18412546505244689846
4625314 4 18336830793013735055
5109719 28 18335427897517106712
5265222 85 18411981365327640655
57634706 280 18113617906428914762
9831232 110 11527946742463714684

> <PUBCHEM_SHAPE_MULTIPOLES>
702.44
26.3
4.1
1.45
41.5
1.32
-0.25
18.58
5.15
-10.06
-0.04
-0.61
-0.2
0.91

> <PUBCHEM_SHAPE_SELFOVERLAP>
1485.715

> <PUBCHEM_SHAPE_VOLUME>
388.9

> <PUBCHEM_COORDINATE_TYPE>
2
5
10

$$$$
