7134359
  -OEChem-12032416123D

 62 65  0     1  0  0  0  0  0999 V2000
   -3.8886    2.7755    1.7738 S   0  0  0  0  0  0  0  0  0  0  0  0
    2.2753   -1.4030   -1.1902 O   0  0  0  0  0  0  0  0  0  0  0  0
    4.6245   -0.0136    0.8075 O   0  0  0  0  0  0  0  0  0  0  0  0
    3.9494    3.3238    0.1009 O   0  0  0  0  0  0  0  0  0  0  0  0
   -2.6059    1.3990   -1.6272 O   0  0  0  0  0  0  0  0  0  0  0  0
    2.6379   -4.4833    1.3077 O   0  0  0  0  0  0  0  0  0  0  0  0
    2.6114    0.8521    0.0411 N   0  0  0  0  0  0  0  0  0  0  0  0
   -1.5637    1.6461    0.4051 N   0  0  0  0  0  0  0  0  0  0  0  0
    1.0421   -2.3874    0.5213 N   0  0  0  0  0  0  0  0  0  0  0  0
    2.3526   -5.4315   -0.7651 N   0  0  0  0  0  0  0  0  0  0  0  0
   -6.0088    3.1069    0.4808 N   0  0  0  0  0  0  0  0  0  0  0  0
   -5.4871    3.2682    1.6864 N   0  0  0  0  0  0  0  0  0  0  0  0
   -0.3045    1.0868   -0.0267 C   0  0  2  0  0  0  0  0  0  0  0  0
    1.7960   -0.1266    0.7712 C   0  0  1  0  0  0  0  0  0  0  0  0
    0.4004    0.3793    1.1331 C   0  0  0  0  0  0  0  0  0  0  0  0
    0.6019    2.1724   -0.6015 C   0  0  0  0  0  0  0  0  0  0  0  0
    1.9440    1.5980   -1.0401 C   0  0  0  0  0  0  0  0  0  0  0  0
    1.7490   -1.3610   -0.0813 C   0  0  0  0  0  0  0  0  0  0  0  0
    3.9946    0.9297    0.3253 C   0  0  0  0  0  0  0  0  0  0  0  0
    0.8313   -3.6741   -0.1019 C   0  0  2  0  0  0  0  0  0  0  0  0
   -2.6569    1.7658   -0.4518 C   0  0  0  0  0  0  0  0  0  0  0  0
    4.6761    2.1842    0.0247 C   0  0  0  0  0  0  0  0  0  0  0  0
   -0.4603   -4.3459    0.3780 C   0  0  0  0  0  0  0  0  0  0  0  0
   -3.8789    2.3245    0.1438 C   0  0  0  0  0  0  0  0  0  0  0  0
    2.0363   -4.5391    0.2378 C   0  0  0  0  0  0  0  0  0  0  0  0
    5.9702    2.4430   -0.3365 C   0  0  0  0  0  0  0  0  0  0  0  0
   -1.6897   -3.5179    0.0932 C   0  0  0  0  0  0  0  0  0  0  0  0
   -5.0884    2.5666   -0.4029 C   0  0  0  0  0  0  0  0  0  0  0  0
    6.0522    3.8468   -0.4961 C   0  0  0  0  0  0  0  0  0  0  0  0
    4.7972    4.3366   -0.2188 C   0  0  0  0  0  0  0  0  0  0  0  0
   -2.1263   -2.6026    1.0380 C   0  0  0  0  0  0  0  0  0  0  0  0
   -2.3600   -3.6873   -1.1082 C   0  0  0  0  0  0  0  0  0  0  0  0
   -5.5178    2.3237   -1.7949 C   0  0  0  0  0  0  0  0  0  0  0  0
   -3.2624   -1.8372    0.7749 C   0  0  0  0  0  0  0  0  0  0  0  0
   -3.4961   -2.9219   -1.3712 C   0  0  0  0  0  0  0  0  0  0  0  0
   -3.9471   -1.9967   -0.4297 C   0  0  0  0  0  0  0  0  0  0  0  0
   -0.5129    0.3481   -0.8113 H   0  0  0  0  0  0  0  0  0  0  0  0
    2.3210   -0.3985    1.6963 H   0  0  0  0  0  0  0  0  0  0  0  0
    0.5144    1.1020    1.9543 H   0  0  0  0  0  0  0  0  0  0  0  0
   -0.2421   -0.4088    1.5355 H   0  0  0  0  0  0  0  0  0  0  0  0
    0.1172    2.6588   -1.4565 H   0  0  0  0  0  0  0  0  0  0  0  0
    0.7687    2.9552    0.1501 H   0  0  0  0  0  0  0  0  0  0  0  0
    2.5778    2.3774   -1.4647 H   0  0  0  0  0  0  0  0  0  0  0  0
    1.7777    0.8955   -1.8649 H   0  0  0  0  0  0  0  0  0  0  0  0
   -1.6383    1.9961    1.3561 H   0  0  0  0  0  0  0  0  0  0  0  0
    0.7695   -2.2905    1.4949 H   0  0  0  0  0  0  0  0  0  0  0  0
    0.7938   -3.5198   -1.1879 H   0  0  0  0  0  0  0  0  0  0  0  0
   -0.5667   -5.3332   -0.0912 H   0  0  0  0  0  0  0  0  0  0  0  0
   -0.4049   -4.5493    1.4567 H   0  0  0  0  0  0  0  0  0  0  0  0
    6.7621    1.7200   -0.4712 H   0  0  0  0  0  0  0  0  0  0  0  0
    6.9175    4.4289   -0.7782 H   0  0  0  0  0  0  0  0  0  0  0  0
    4.3672    5.3274   -0.2054 H   0  0  0  0  0  0  0  0  0  0  0  0
   -1.6075   -2.4762    1.9837 H   0  0  0  0  0  0  0  0  0  0  0  0
   -2.0147   -4.4033   -1.8483 H   0  0  0  0  0  0  0  0  0  0  0  0
    1.8321   -5.4814   -1.6350 H   0  0  0  0  0  0  0  0  0  0  0  0
    3.1280   -6.0776   -0.6613 H   0  0  0  0  0  0  0  0  0  0  0  0
   -6.5590    2.6271   -1.9450 H   0  0  0  0  0  0  0  0  0  0  0  0
   -5.4407    1.2606   -2.0440 H   0  0  0  0  0  0  0  0  0  0  0  0
   -4.8998    2.8930   -2.4964 H   0  0  0  0  0  0  0  0  0  0  0  0
   -3.6136   -1.1168    1.5079 H   0  0  0  0  0  0  0  0  0  0  0  0
   -4.0287   -3.0448   -2.3097 H   0  0  0  0  0  0  0  0  0  0  0  0
   -4.8303   -1.3988   -0.6352 H   0  0  0  0  0  0  0  0  0  0  0  0
  1 12  1  0  0  0  0
  1 24  1  0  0  0  0
  2 18  2  0  0  0  0
  3 19  2  0  0  0  0
  4 22  1  0  0  0  0
  4 30  1  0  0  0  0
  5 21  2  0  0  0  0
  6 25  2  0  0  0  0
  7 14  1  0  0  0  0
  7 17  1  0  0  0  0
  7 19  1  0  0  0  0
  8 13  1  0  0  0  0
  8 21  1  0  0  0  0
  8 45  1  0  0  0  0
  9 18  1  0  0  0  0
  9 20  1  0  0  0  0
  9 46  1  0  0  0  0
 10 25  1  0  0  0  0
 10 55  1  0  0  0  0
 10 56  1  0  0  0  0
 11 12  2  0  0  0  0
 11 28  1  0  0  0  0
 13 15  1  0  0  0  0
 13 16  1  0  0  0  0
 13 37  1  0  0  0  0
 14 15  1  0  0  0  0
 14 18  1  0  0  0  0
 14 38  1  0  0  0  0
 15 39  1  0  0  0  0
 15 40  1  0  0  0  0
 16 17  1  0  0  0  0
 16 41  1  0  0  0  0
 16 42  1  0  0  0  0
 17 43  1  0  0  0  0
 17 44  1  0  0  0  0
 19 22  1  0  0  0  0
 20 23  1  0  0  0  0
 20 25  1  0  0  0  0
 20 47  1  0  0  0  0
 21 24  1  0  0  0  0
 22 26  2  0  0  0  0
 23 27  1  0  0  0  0
 23 48  1  0  0  0  0
 23 49  1  0  0  0  0
 24 28  2  0  0  0  0
 26 29  1  0  0  0  0
 26 50  1  0  0  0  0
 27 31  2  0  0  0  0
 27 32  1  0  0  0  0
 28 33  1  0  0  0  0
 29 30  2  0  0  0  0
 29 51  1  0  0  0  0
 30 52  1  0  0  0  0
 31 34  1  0  0  0  0
 31 53  1  0  0  0  0
 32 35  2  0  0  0  0
 32 54  1  0  0  0  0
 33 57  1  0  0  0  0
 33 58  1  0  0  0  0
 33 59  1  0  0  0  0
 34 36  2  0  0  0  0
 34 60  1  0  0  0  0
 35 36  1  0  0  0  0
 35 61  1  0  0  0  0
 36 62  1  0  0  0  0
M  END
> <PUBCHEM_COMPOUND_CID>
7134359

> <PUBCHEM_CONFORMER_RMSD>
1.2

> <PUBCHEM_CONFORMER_DIVERSEORDER>
1
29
23
51
69
74
75
93
11
91
76
79
53
83
98
34
86
24
25
66
78
19
81
64
45
88
26
50
41
42
20
43
44
94
36
65
3
97
95
48
96
16
17
37
85
49
15
12
47
87
46
13
59
39
27
32
52
38
4
56
30
58
21
92
14
40
10
84
9
60
18
7
89
35
5
28
55
68
90
73
2
62
33
70
31
6
61
72
8
63
71
82
22
57
80
77
67
54

> <PUBCHEM_MMFF94_PARTIAL_CHARGES>
46
1 0.18
10 -0.8
11 -0.23
12 -0.22
13 0.3
14 0.36
17 0.3
18 0.57
19 0.71
2 -0.57
20 0.36
21 0.71
22 0.05
23 0.14
24 -0.05
25 0.57
26 -0.15
27 -0.14
28 0.05
29 -0.15
3 -0.57
30 -0.01
31 -0.15
32 -0.15
33 0.18
34 -0.15
35 -0.15
36 -0.15
4 -0.28
45 0.37
46 0.37
5 -0.57
50 0.15
51 0.15
52 0.15
53 0.15
54 0.15
55 0.37
56 0.37
6 -0.57
60 0.15
61 0.15
62 0.15
7 -0.66
8 -0.73
9 -0.73

> <PUBCHEM_EFFECTIVE_ROTOR_COUNT>
12.2

> <PUBCHEM_PHARMACOPHORE_FEATURES>
12
1 10 donor
1 2 acceptor
1 3 acceptor
1 4 acceptor
1 5 acceptor
1 6 acceptor
1 8 donor
1 9 donor
5 1 11 12 24 28 rings
5 4 22 26 29 30 rings
6 27 31 32 34 35 36 rings
6 7 13 14 15 16 17 rings

> <PUBCHEM_HEAVY_ATOM_COUNT>
36

> <PUBCHEM_ATOM_DEF_STEREO_COUNT>
3

> <PUBCHEM_ATOM_UDEF_STEREO_COUNT>
0

> <PUBCHEM_BOND_DEF_STEREO_COUNT>
0

> <PUBCHEM_BOND_UDEF_STEREO_COUNT>
0

> <PUBCHEM_ISOTOPIC_ATOM_COUNT>
0

> <PUBCHEM_COMPONENT_COUNT>
1

> <PUBCHEM_CACTVS_TAUTO_COUNT>
8

> <PUBCHEM_CONFORMER_ID>
006CDC9700000001

> <PUBCHEM_MMFF94_ENERGY>
75.1434

> <PUBCHEM_FEATURE_SELFOVERLAP>
60.9

> <PUBCHEM_SHAPE_FINGERPRINT>
10675989 125 18120649124734025981
10816530 23 18410014338160347721
1100329 8 18050564045744866907
11135609 187 18337096901193624693
11513181 2 18270685393494891886
12440605 4 18410299137452405579
12788726 201 18124023791616195058
14004853 49 18119560805400321257
14251757 5 17904477764206353082
14790565 3 18337673147790008176
15400415 2 18410292510544980045
15439362 3 18265612083034156340
15927050 60 18413392020943280751
17980427 23 17386292120112478852
19319366 153 18271523108984538768
21133410 38 18341895161399460687
21796203 349 17545915653072312034
283562 15 18195243549483430291
5309563 4 17400924098626385283
53794403 172 18266458711519524055
563151 97 18337109072069826028
6036956 94 17901670693656584701
653340 110 18195243540719610976
7226269 152 17831296465042475454

> <PUBCHEM_SHAPE_MULTIPOLES>
685.48
12.59
8.27
1.31
6.48
7.89
0
-18.71
0.99
-1.05
-0.22
-1.47
-0.37
-1.74

> <PUBCHEM_SHAPE_SELFOVERLAP>
1457.514

> <PUBCHEM_SHAPE_VOLUME>
381.7

> <PUBCHEM_COORDINATE_TYPE>
2
5
10

$$$$
