7155623
  -OEChem-12032416363D

 58 61  0     1  0  0  0  0  0999 V2000
    4.0233    3.5950    0.4328 S   0  0  0  0  0  0  0  0  0  0  0  0
   -1.4196    2.4190    1.8949 O   0  0  0  0  0  0  0  0  0  0  0  0
   -1.3804   -2.6618    1.7947 O   0  0  0  0  0  0  0  0  0  0  0  0
    1.8800    2.7091   -1.6327 O   0  0  0  0  0  0  0  0  0  0  0  0
    5.7195   -2.5978   -0.7292 O   0  0  0  0  0  0  0  0  0  0  0  0
   -2.8827   -1.9988    0.1685 N   0  0  0  0  0  0  0  0  0  0  0  0
   -2.6045    1.1309    0.3466 N   0  0  0  0  0  0  0  0  0  0  0  0
   -0.6733   -2.5798   -0.4138 N   0  0  0  0  0  0  0  0  0  0  0  0
    0.3460    3.3418    0.0025 N   0  0  0  0  0  0  0  0  0  0  0  0
   -4.5653   -0.3771    1.0141 C   0  0  1  0  0  0  0  0  0  0  0  0
   -3.8375   -0.2800   -1.3385 C   0  0  2  0  0  0  0  0  0  0  0  0
   -5.0471   -0.1375   -0.4137 C   0  0  0  0  0  0  0  0  0  0  0  0
   -3.9480   -1.7835    1.1504 C   0  0  0  0  0  0  0  0  0  0  0  0
   -3.5674    0.7287    1.3828 C   0  0  0  0  0  0  0  0  0  0  0  0
   -3.2788   -1.7113   -1.2208 C   0  0  0  0  0  0  0  0  0  0  0  0
   -2.7580    0.7248   -0.9837 C   0  0  0  0  0  0  0  0  0  0  0  0
   -1.9298    1.1915   -1.9331 C   0  0  0  0  0  0  0  0  0  0  0  0
   -1.5836    2.0191    0.7413 C   0  0  0  0  0  0  0  0  0  0  0  0
   -1.6177   -2.4474    0.6032 C   0  0  0  0  0  0  0  0  0  0  0  0
   -0.6659    2.4949   -0.3421 C   0  0  0  0  0  0  0  0  0  0  0  0
   -0.8627    2.0930   -1.6022 C   0  0  0  0  0  0  0  0  0  0  0  0
    0.7310   -2.4267   -0.3083 C   0  0  0  0  0  0  0  0  0  0  0  0
    1.5586    3.4032   -0.6691 C   0  0  0  0  0  0  0  0  0  0  0  0
    1.3072   -2.1072    0.9213 C   0  0  0  0  0  0  0  0  0  0  0  0
    1.5374   -2.5942   -1.4339 C   0  0  0  0  0  0  0  0  0  0  0  0
    2.5017    4.4271   -0.0813 C   0  0  0  0  0  0  0  0  0  0  0  0
    2.6897   -1.9553    1.0251 C   0  0  0  0  0  0  0  0  0  0  0  0
    2.9201   -2.4421   -1.3301 C   0  0  0  0  0  0  0  0  0  0  0  0
    3.4963   -2.1228   -0.1007 C   0  0  0  0  0  0  0  0  0  0  0  0
    4.9378   -1.9649    0.0082 C   0  0  0  0  0  0  0  0  0  0  0  0
    3.4427    2.9210    2.0073 C   0  0  0  0  0  0  0  0  0  0  0  0
    5.5310   -1.0109    1.0395 C   0  0  0  0  0  0  0  0  0  0  0  0
   -5.4160   -0.3195    1.7041 H   0  0  0  0  0  0  0  0  0  0  0  0
   -4.1742   -0.1192   -2.3708 H   0  0  0  0  0  0  0  0  0  0  0  0
   -5.8227   -0.8651   -0.6822 H   0  0  0  0  0  0  0  0  0  0  0  0
   -5.4950    0.8596   -0.5090 H   0  0  0  0  0  0  0  0  0  0  0  0
   -4.7128   -2.5476    0.9656 H   0  0  0  0  0  0  0  0  0  0  0  0
   -3.5819   -1.9349    2.1709 H   0  0  0  0  0  0  0  0  0  0  0  0
   -3.0127    0.4574    2.2899 H   0  0  0  0  0  0  0  0  0  0  0  0
   -4.1285    1.6394    1.6332 H   0  0  0  0  0  0  0  0  0  0  0  0
   -2.4582   -1.8328   -1.9285 H   0  0  0  0  0  0  0  0  0  0  0  0
   -4.0464   -2.4453   -1.4949 H   0  0  0  0  0  0  0  0  0  0  0  0
   -2.0221    0.8826   -2.9691 H   0  0  0  0  0  0  0  0  0  0  0  0
   -0.2758    2.4366   -2.4456 H   0  0  0  0  0  0  0  0  0  0  0  0
   -0.9996   -2.8030   -1.3473 H   0  0  0  0  0  0  0  0  0  0  0  0
    0.2821    3.7776    0.9191 H   0  0  0  0  0  0  0  0  0  0  0  0
    0.7365   -1.9384    1.8255 H   0  0  0  0  0  0  0  0  0  0  0  0
    1.1009   -2.8415   -2.3982 H   0  0  0  0  0  0  0  0  0  0  0  0
    2.7396    5.1498   -0.8684 H   0  0  0  0  0  0  0  0  0  0  0  0
    2.0616    4.9807    0.7529 H   0  0  0  0  0  0  0  0  0  0  0  0
    3.1131   -1.7124    1.9959 H   0  0  0  0  0  0  0  0  0  0  0  0
    3.5320   -2.5723   -2.2189 H   0  0  0  0  0  0  0  0  0  0  0  0
    3.1065    3.7242    2.6681 H   0  0  0  0  0  0  0  0  0  0  0  0
    2.6286    2.2097    1.8460 H   0  0  0  0  0  0  0  0  0  0  0  0
    4.2668    2.3940    2.4958 H   0  0  0  0  0  0  0  0  0  0  0  0
    4.8717   -0.1533    1.1995 H   0  0  0  0  0  0  0  0  0  0  0  0
    5.6964   -1.5440    1.9787 H   0  0  0  0  0  0  0  0  0  0  0  0
    6.4839   -0.6264    0.6635 H   0  0  0  0  0  0  0  0  0  0  0  0
  1 26  1  0  0  0  0
  1 31  1  0  0  0  0
  2 18  2  0  0  0  0
  3 19  2  0  0  0  0
  4 23  2  0  0  0  0
  5 30  2  0  0  0  0
  6 13  1  0  0  0  0
  6 15  1  0  0  0  0
  6 19  1  0  0  0  0
  7 14  1  0  0  0  0
  7 16  1  0  0  0  0
  7 18  1  0  0  0  0
  8 19  1  0  0  0  0
  8 22  1  0  0  0  0
  8 45  1  0  0  0  0
  9 20  1  0  0  0  0
  9 23  1  0  0  0  0
  9 46  1  0  0  0  0
 10 12  1  0  0  0  0
 10 13  1  0  0  0  0
 10 14  1  0  0  0  0
 10 33  1  0  0  0  0
 11 12  1  0  0  0  0
 11 15  1  0  0  0  0
 11 16  1  0  0  0  0
 11 34  1  0  0  0  0
 12 35  1  0  0  0  0
 12 36  1  0  0  0  0
 13 37  1  0  0  0  0
 13 38  1  0  0  0  0
 14 39  1  0  0  0  0
 14 40  1  0  0  0  0
 15 41  1  0  0  0  0
 15 42  1  0  0  0  0
 16 17  2  0  0  0  0
 17 21  1  0  0  0  0
 17 43  1  0  0  0  0
 18 20  1  0  0  0  0
 20 21  2  0  0  0  0
 21 44  1  0  0  0  0
 22 24  2  0  0  0  0
 22 25  1  0  0  0  0
 23 26  1  0  0  0  0
 24 27  1  0  0  0  0
 24 47  1  0  0  0  0
 25 28  2  0  0  0  0
 25 48  1  0  0  0  0
 26 49  1  0  0  0  0
 26 50  1  0  0  0  0
 27 29  2  0  0  0  0
 27 51  1  0  0  0  0
 28 29  1  0  0  0  0
 28 52  1  0  0  0  0
 29 30  1  0  0  0  0
 30 32  1  0  0  0  0
 31 53  1  0  0  0  0
 31 54  1  0  0  0  0
 31 55  1  0  0  0  0
 32 56  1  0  0  0  0
 32 57  1  0  0  0  0
 32 58  1  0  0  0  0
M  END
> <PUBCHEM_COMPOUND_CID>
7155623

> <PUBCHEM_CONFORMER_RMSD>
1

> <PUBCHEM_CONFORMER_DIVERSEORDER>
1
7
2
12
30
14
9
16
18
8
19
21
11
23
25
13
26
27
6
20
4
28
15
29
3
10
22
24
5
17

> <PUBCHEM_MMFF94_PARTIAL_CHARGES>
38
1 -0.46
11 0.14
13 0.3
14 0.3
15 0.3
16 -0.03
17 -0.15
18 0.62
19 0.69
2 -0.57
20 0.12
21 -0.15
22 0.12
23 0.57
24 -0.15
25 -0.15
26 0.29
27 -0.15
28 -0.15
29 0.09
3 -0.57
30 0.42
31 0.23
32 0.06
4 -0.57
43 0.15
44 0.15
45 0.37
46 0.37
47 0.15
48 0.15
5 -0.57
51 0.15
52 0.15
6 -0.66
7 -0.47
8 -0.55
9 -0.54

> <PUBCHEM_EFFECTIVE_ROTOR_COUNT>
9

> <PUBCHEM_PHARMACOPHORE_FEATURES>
11
1 2 acceptor
1 3 acceptor
1 31 hydrophobe
1 4 acceptor
1 5 acceptor
1 8 donor
1 9 donor
6 22 24 25 27 28 29 rings
6 6 10 11 12 13 15 rings
6 7 10 11 12 14 16 rings
6 7 16 17 18 20 21 rings

> <PUBCHEM_HEAVY_ATOM_COUNT>
32

> <PUBCHEM_ATOM_DEF_STEREO_COUNT>
2

> <PUBCHEM_ATOM_UDEF_STEREO_COUNT>
0

> <PUBCHEM_BOND_DEF_STEREO_COUNT>
0

> <PUBCHEM_BOND_UDEF_STEREO_COUNT>
0

> <PUBCHEM_ISOTOPIC_ATOM_COUNT>
0

> <PUBCHEM_COMPONENT_COUNT>
1

> <PUBCHEM_CACTVS_TAUTO_COUNT>
18

> <PUBCHEM_CONFORMER_ID>
006D2FA700000001

> <PUBCHEM_MMFF94_ENERGY>
94.8363

> <PUBCHEM_FEATURE_SELFOVERLAP>
57.421

> <PUBCHEM_SHAPE_FINGERPRINT>
10670039 82 18118982299756115918
10864689 126 17978222756500583644
11513181 2 18057606662633719798
12128747 34 17689961607114828482
12156800 1 11272786385956217623
12422481 6 18116985783411718760
13402501 40 18410851028128347658
13761468 95 17619077131573807686
14142880 1 18051980208463005321
14725015 67 18260542282447347291
18336668 15 17967822609072872278
19311894 1 15318574269604983431
20764821 26 18267581506528885292
21344244 246 18122892386532327567
21623110 236 18412823620496785259
23516275 137 17972058069787644064
3027735 51 17690839390564583335
3298306 158 18192991753780180797
373842 8 18121213440270347514
392239 28 18335980870509152538
4112364 45 17842032977582713953
469060 322 17751383697863758611
6287921 2 18201998820080534090

> <PUBCHEM_SHAPE_MULTIPOLES>
618.99
10.1
5.83
1.76
4.44
3.77
0.05
-3.67
1.5
7.11
-0.07
-0.42
0.29
1.13

> <PUBCHEM_SHAPE_SELFOVERLAP>
1315.594

> <PUBCHEM_SHAPE_VOLUME>
345.3

> <PUBCHEM_COORDINATE_TYPE>
2
5
10

$$$$
