38027519
  -OEChem-12032416243D

 59 60  0     1  0  0  0  0  0999 V2000
    3.0197   -2.7860    1.2709 S   0  0  0  0  0  0  0  0  0  0  0  0
   -5.0517   -2.5339   -1.4153 F   0  0  0  0  0  0  0  0  0  0  0  0
   -1.4936    3.1216    0.2602 O   0  0  0  0  0  0  0  0  0  0  0  0
    1.9138   -3.4715    0.6312 O   0  0  0  0  0  0  0  0  0  0  0  0
    3.0953   -2.6876    2.7159 O   0  0  0  0  0  0  0  0  0  0  0  0
    3.1894   -1.2201    0.6090 N   0  0  0  0  0  0  0  0  0  0  0  0
   -1.5432    1.5101    1.9339 N   0  0  0  0  0  0  0  0  0  0  0  0
    1.3015    0.2231   -1.2166 C   0  0  1  0  0  0  0  0  0  0  0  0
    2.8471    0.2474   -1.3192 C   0  0  1  0  0  0  0  0  0  0  0  0
    0.7365    1.6496   -1.2939 C   0  0  0  0  0  0  0  0  0  0  0  0
    1.2858    2.5553   -0.1755 C   0  0  2  0  0  0  0  0  0  0  0  0
    0.6723   -0.6441   -2.3114 C   0  0  0  0  0  0  0  0  0  0  0  0
    2.7894    2.4296   -0.0367 C   0  0  0  0  0  0  0  0  0  0  0  0
    3.4716    1.3984   -0.5660 C   0  0  0  0  0  0  0  0  0  0  0  0
    3.4547   -1.0724   -0.8305 C   0  0  0  0  0  0  0  0  0  0  0  0
    0.5860    2.2719    1.1584 C   0  0  0  0  0  0  0  0  0  0  0  0
    0.5722    0.1377   -3.6174 C   0  0  0  0  0  0  0  0  0  0  0  0
   -0.7010   -1.1421   -1.8723 C   0  0  0  0  0  0  0  0  0  0  0  0
    3.4979    3.5413    0.6860 C   0  0  0  0  0  0  0  0  0  0  0  0
   -0.9184    2.3709    1.0434 C   0  0  0  0  0  0  0  0  0  0  0  0
    4.5290   -3.5411    0.7106 C   0  0  0  0  0  0  0  0  0  0  0  0
   -2.9792    1.3953    2.0445 C   0  0  0  0  0  0  0  0  0  0  0  0
   -3.5320    0.3476    1.1220 C   0  0  0  0  0  0  0  0  0  0  0  0
   -3.9223    0.6933   -0.1718 C   0  0  0  0  0  0  0  0  0  0  0  0
   -3.6555   -0.9713    1.5589 C   0  0  0  0  0  0  0  0  0  0  0  0
   -4.4362   -0.2799   -1.0287 C   0  0  0  0  0  0  0  0  0  0  0  0
   -4.1693   -1.9445    0.7020 C   0  0  0  0  0  0  0  0  0  0  0  0
   -4.5598   -1.5989   -0.5917 C   0  0  0  0  0  0  0  0  0  0  0  0
    1.0189   -0.1965   -0.2428 H   0  0  0  0  0  0  0  0  0  0  0  0
    3.1425    0.3728   -2.3685 H   0  0  0  0  0  0  0  0  0  0  0  0
   -0.3556    1.6405   -1.3119 H   0  0  0  0  0  0  0  0  0  0  0  0
    1.0477    2.1293   -2.2318 H   0  0  0  0  0  0  0  0  0  0  0  0
    1.0562    3.5886   -0.4715 H   0  0  0  0  0  0  0  0  0  0  0  0
    1.2843   -1.5327   -2.4957 H   0  0  0  0  0  0  0  0  0  0  0  0
    4.5561    1.3842   -0.4761 H   0  0  0  0  0  0  0  0  0  0  0  0
    4.5404   -1.0693   -0.9853 H   0  0  0  0  0  0  0  0  0  0  0  0
    3.0481   -1.9201   -1.3876 H   0  0  0  0  0  0  0  0  0  0  0  0
    0.8916    3.0035    1.9164 H   0  0  0  0  0  0  0  0  0  0  0  0
    0.8741    1.2838    1.5375 H   0  0  0  0  0  0  0  0  0  0  0  0
   -0.2077    0.9062   -3.6012 H   0  0  0  0  0  0  0  0  0  0  0  0
    0.2954   -0.5492   -4.4268 H   0  0  0  0  0  0  0  0  0  0  0  0
    1.5223    0.5934   -3.9112 H   0  0  0  0  0  0  0  0  0  0  0  0
   -1.4021   -0.3195   -1.7093 H   0  0  0  0  0  0  0  0  0  0  0  0
   -0.6322   -1.7201   -0.9445 H   0  0  0  0  0  0  0  0  0  0  0  0
   -1.1339   -1.7967   -2.6366 H   0  0  0  0  0  0  0  0  0  0  0  0
    3.2729    4.5041    0.2158 H   0  0  0  0  0  0  0  0  0  0  0  0
    4.5857    3.4147    0.6724 H   0  0  0  0  0  0  0  0  0  0  0  0
    3.1850    3.5828    1.7336 H   0  0  0  0  0  0  0  0  0  0  0  0
    3.6953   -0.5436    1.1958 H   0  0  0  0  0  0  0  0  0  0  0  0
   -0.9806    0.9196    2.5395 H   0  0  0  0  0  0  0  0  0  0  0  0
    5.3749   -2.9407    1.0506 H   0  0  0  0  0  0  0  0  0  0  0  0
    4.5866   -4.5380    1.1540 H   0  0  0  0  0  0  0  0  0  0  0  0
    4.5165   -3.6291   -0.3765 H   0  0  0  0  0  0  0  0  0  0  0  0
   -3.4399    2.3683    1.8361 H   0  0  0  0  0  0  0  0  0  0  0  0
   -3.2111    1.1508    3.0874 H   0  0  0  0  0  0  0  0  0  0  0  0
   -3.8333    1.7168   -0.5253 H   0  0  0  0  0  0  0  0  0  0  0  0
   -3.3528   -1.2536    2.5638 H   0  0  0  0  0  0  0  0  0  0  0  0
   -4.7393   -0.0114   -2.0363 H   0  0  0  0  0  0  0  0  0  0  0  0
   -4.2646   -2.9717    1.0414 H   0  0  0  0  0  0  0  0  0  0  0  0
  1  4  2  0  0  0  0
  1  5  2  0  0  0  0
  1  6  1  0  0  0  0
  1 21  1  0  0  0  0
  2 28  1  0  0  0  0
  3 20  2  0  0  0  0
  6 15  1  0  0  0  0
  6 49  1  0  0  0  0
  7 20  1  0  0  0  0
  7 22  1  0  0  0  0
  7 50  1  0  0  0  0
  8  9  1  0  0  0  0
  8 10  1  0  0  0  0
  8 12  1  0  0  0  0
  8 29  1  0  0  0  0
  9 14  1  0  0  0  0
  9 15  1  0  0  0  0
  9 30  1  0  0  0  0
 10 11  1  0  0  0  0
 10 31  1  0  0  0  0
 10 32  1  0  0  0  0
 11 13  1  0  0  0  0
 11 16  1  0  0  0  0
 11 33  1  0  0  0  0
 12 17  1  0  0  0  0
 12 18  1  0  0  0  0
 12 34  1  0  0  0  0
 13 14  2  0  0  0  0
 13 19  1  0  0  0  0
 14 35  1  0  0  0  0
 15 36  1  0  0  0  0
 15 37  1  0  0  0  0
 16 20  1  0  0  0  0
 16 38  1  0  0  0  0
 16 39  1  0  0  0  0
 17 40  1  0  0  0  0
 17 41  1  0  0  0  0
 17 42  1  0  0  0  0
 18 43  1  0  0  0  0
 18 44  1  0  0  0  0
 18 45  1  0  0  0  0
 19 46  1  0  0  0  0
 19 47  1  0  0  0  0
 19 48  1  0  0  0  0
 21 51  1  0  0  0  0
 21 52  1  0  0  0  0
 21 53  1  0  0  0  0
 22 23  1  0  0  0  0
 22 54  1  0  0  0  0
 22 55  1  0  0  0  0
 23 24  2  0  0  0  0
 23 25  1  0  0  0  0
 24 26  1  0  0  0  0
 24 56  1  0  0  0  0
 25 27  2  0  0  0  0
 25 57  1  0  0  0  0
 26 28  2  0  0  0  0
 26 58  1  0  0  0  0
 27 28  1  0  0  0  0
 27 59  1  0  0  0  0
M  END
> <PUBCHEM_COMPOUND_CID>
38027519

> <PUBCHEM_CONFORMER_RMSD>
1.2

> <PUBCHEM_CONFORMER_DIVERSEORDER>
1
57
20
2
73
81
36
62
39
53
42
79
17
54
44
23
71
33
66
67
77
6
50
5
72
43
82
27
32
51
45
52
9
16
12
24
58
26
40
10
25
78
65
34
63
30
74
69
14
22
3
31
49
7
11
35
64
59
48
18
55
80
38
28
37
21
8
56
47
76
61
75
13
68
15
70
4
46
60
41
29
19

> <PUBCHEM_MMFF94_PARTIAL_CHARGES>
30
1 1.33
11 0.14
13 -0.28
14 -0.29
15 0.36
16 0.06
19 0.14
2 -0.19
20 0.57
21 0.11
22 0.44
23 -0.14
24 -0.15
25 -0.15
26 -0.15
27 -0.15
28 0.19
3 -0.57
35 0.15
4 -0.65
49 0.42
5 -0.65
50 0.37
56 0.15
57 0.15
58 0.15
59 0.15
6 -0.91
7 -0.73
9 0.14

> <PUBCHEM_EFFECTIVE_ROTOR_COUNT>
9.8

> <PUBCHEM_PHARMACOPHORE_FEATURES>
8
1 3 acceptor
1 4 acceptor
1 5 acceptor
1 6 donor
1 7 donor
3 12 17 18 hydrophobe
6 23 24 25 26 27 28 rings
6 8 9 10 11 13 14 rings

> <PUBCHEM_HEAVY_ATOM_COUNT>
28

> <PUBCHEM_ATOM_DEF_STEREO_COUNT>
3

> <PUBCHEM_ATOM_UDEF_STEREO_COUNT>
0

> <PUBCHEM_BOND_DEF_STEREO_COUNT>
0

> <PUBCHEM_BOND_UDEF_STEREO_COUNT>
0

> <PUBCHEM_ISOTOPIC_ATOM_COUNT>
0

> <PUBCHEM_COMPONENT_COUNT>
1

> <PUBCHEM_CACTVS_TAUTO_COUNT>
2

> <PUBCHEM_CONFORMER_ID>
024440FF00000001

> <PUBCHEM_MMFF94_ENERGY>
49.956

> <PUBCHEM_FEATURE_SELFOVERLAP>
40.612

> <PUBCHEM_SHAPE_FINGERPRINT>
11991303 11 17251470172177350388
12156800 1 15724408675582335051
12633257 1 18128551370431217945
13224815 77 17703246086672900757
13533116 47 18260547857653079287
13583140 156 18336264638876930925
14251757 17 15502672454931871219
14674994 50 17031334273129945902
14705955 166 16194800542229910776
15210252 30 14363872356318244314
19315092 285 18264749117062588367
20764821 26 17614868613152850891
20775530 9 17968944059003517570
21421861 104 18196957516328246441
25222932 49 17981894347938193023
46194498 28 15359986726397944963
463206 1 18117574937071058266
484985 159 17178820559578127802
6287921 2 16341770286035389829

> <PUBCHEM_SHAPE_MULTIPOLES>
545.23
9.47
4.48
2.6
7.64
0.8
-1.19
6.05
1.6
-4.66
2.39
-0.13
0.74
-2.43

> <PUBCHEM_SHAPE_SELFOVERLAP>
1103.952

> <PUBCHEM_SHAPE_VOLUME>
321.2

> <PUBCHEM_COORDINATE_TYPE>
2
5
10

$$$$
