45361190
  -OEChem-12032416203D

 57 59  0     1  0  0  0  0  0999 V2000
   -2.5823    2.2844    0.5099 O   0  0  0  0  0  0  0  0  0  0  0  0
    2.8689   -1.3730    1.1012 O   0  0  0  0  0  0  0  0  0  0  0  0
    5.3165   -1.1620   -0.2279 O   0  0  0  0  0  0  0  0  0  0  0  0
   -1.8047   -1.3985   -0.3965 N   0  0  1  0  0  0  0  0  0  0  0  0
   -4.6160    0.9312   -0.6415 N   0  0  1  0  0  0  0  0  0  0  0  0
   -1.8464    0.5157    1.7616 N   0  0  0  0  0  0  0  0  0  0  0  0
    2.8771    0.7230    0.1207 N   0  0  0  0  0  0  0  0  0  0  0  0
   -3.2432   -1.0648   -0.4899 C   0  0  1  0  0  0  0  0  0  0  0  0
   -3.7703    0.1705    0.2977 C   0  0  1  0  0  0  0  0  0  0  0  0
   -3.7227   -0.7609   -1.9215 C   0  0  0  0  0  0  0  0  0  0  0  0
   -1.3472   -1.7775    0.9696 C   0  0  2  0  0  0  0  0  0  0  0  0
   -5.0057    0.0137   -1.7064 C   0  0  0  0  0  0  0  0  0  0  0  0
   -1.8938   -0.8914    2.1060 C   0  0  0  0  0  0  0  0  0  0  0  0
    0.1932   -1.7405    1.0524 C   0  0  0  0  0  0  0  0  0  0  0  0
   -2.6883    1.1029    0.8362 C   0  0  0  0  0  0  0  0  0  0  0  0
   -1.4470   -2.4495   -1.3641 C   0  0  0  0  0  0  0  0  0  0  0  0
    0.7605   -0.4501    0.4935 C   0  0  0  0  0  0  0  0  0  0  0  0
    4.3179    0.9573    0.2400 C   0  0  2  0  0  0  0  0  0  0  0  0
   -5.7695    1.5542   -0.0050 C   0  0  0  0  0  0  0  0  0  0  0  0
    4.4637    2.4608   -0.0080 C   0  0  0  0  0  0  0  0  0  0  0  0
    2.2011    1.8741   -0.4725 C   0  0  0  0  0  0  0  0  0  0  0  0
    3.3235    2.7718   -0.9705 C   0  0  0  0  0  0  0  0  0  0  0  0
    2.2639   -0.4204    0.6067 C   0  0  0  0  0  0  0  0  0  0  0  0
    5.1040    0.1269   -0.7727 C   0  0  0  0  0  0  0  0  0  0  0  0
    6.0468   -1.9978   -1.1190 C   0  0  0  0  0  0  0  0  0  0  0  0
   -3.8212   -1.9369   -0.1464 H   0  0  0  0  0  0  0  0  0  0  0  0
   -4.3741   -0.1820    1.1444 H   0  0  0  0  0  0  0  0  0  0  0  0
   -2.9933   -0.1397   -2.4584 H   0  0  0  0  0  0  0  0  0  0  0  0
   -3.9017   -1.6697   -2.5053 H   0  0  0  0  0  0  0  0  0  0  0  0
   -1.6697   -2.8037    1.1945 H   0  0  0  0  0  0  0  0  0  0  0  0
   -5.3147    0.5435   -2.6126 H   0  0  0  0  0  0  0  0  0  0  0  0
   -5.8116   -0.6631   -1.3956 H   0  0  0  0  0  0  0  0  0  0  0  0
   -2.9244   -1.1693    2.3488 H   0  0  0  0  0  0  0  0  0  0  0  0
   -1.3188   -1.0188    3.0300 H   0  0  0  0  0  0  0  0  0  0  0  0
    0.6198   -2.5975    0.5167 H   0  0  0  0  0  0  0  0  0  0  0  0
    0.5147   -1.8765    2.0937 H   0  0  0  0  0  0  0  0  0  0  0  0
   -1.1540    1.1030    2.2161 H   0  0  0  0  0  0  0  0  0  0  0  0
   -0.3792   -2.6842   -1.3459 H   0  0  0  0  0  0  0  0  0  0  0  0
   -1.6352   -2.1293   -2.3937 H   0  0  0  0  0  0  0  0  0  0  0  0
   -2.0034   -3.3754   -1.1795 H   0  0  0  0  0  0  0  0  0  0  0  0
    0.4085    0.4239    1.0377 H   0  0  0  0  0  0  0  0  0  0  0  0
    0.5081   -0.3363   -0.5652 H   0  0  0  0  0  0  0  0  0  0  0  0
    4.6322    0.6982    1.2583 H   0  0  0  0  0  0  0  0  0  0  0  0
   -6.3432    2.1313   -0.7385 H   0  0  0  0  0  0  0  0  0  0  0  0
   -5.4515    2.2568    0.7727 H   0  0  0  0  0  0  0  0  0  0  0  0
   -6.4403    0.8177    0.4520 H   0  0  0  0  0  0  0  0  0  0  0  0
    5.4420    2.7549   -0.3986 H   0  0  0  0  0  0  0  0  0  0  0  0
    4.2996    3.0055    0.9305 H   0  0  0  0  0  0  0  0  0  0  0  0
    1.6184    2.3661    0.3137 H   0  0  0  0  0  0  0  0  0  0  0  0
    1.5280    1.5638   -1.2761 H   0  0  0  0  0  0  0  0  0  0  0  0
    3.0448    3.8291   -0.9757 H   0  0  0  0  0  0  0  0  0  0  0  0
    3.6090    2.4882   -1.9904 H   0  0  0  0  0  0  0  0  0  0  0  0
    4.5704    0.0488   -1.7277 H   0  0  0  0  0  0  0  0  0  0  0  0
    6.0832    0.5857   -0.9532 H   0  0  0  0  0  0  0  0  0  0  0  0
    6.1782   -2.9736   -0.6440 H   0  0  0  0  0  0  0  0  0  0  0  0
    7.0339   -1.5715   -1.3221 H   0  0  0  0  0  0  0  0  0  0  0  0
    5.4945   -2.1352   -2.0536 H   0  0  0  0  0  0  0  0  0  0  0  0
  1 15  2  0  0  0  0
  2 23  2  0  0  0  0
  3 24  1  0  0  0  0
  3 25  1  0  0  0  0
  4  8  1  0  0  0  0
  4 11  1  0  0  0  0
  4 16  1  0  0  0  0
  5  9  1  0  0  0  0
  5 12  1  0  0  0  0
  5 19  1  0  0  0  0
  6 13  1  0  0  0  0
  6 15  1  0  0  0  0
  6 37  1  0  0  0  0
  7 18  1  0  0  0  0
  7 21  1  0  0  0  0
  7 23  1  0  0  0  0
  8  9  1  0  0  0  0
  8 10  1  0  0  0  0
  8 26  1  0  0  0  0
  9 15  1  0  0  0  0
  9 27  1  0  0  0  0
 10 12  1  0  0  0  0
 10 28  1  0  0  0  0
 10 29  1  0  0  0  0
 11 13  1  0  0  0  0
 11 14  1  0  0  0  0
 11 30  1  0  0  0  0
 12 31  1  0  0  0  0
 12 32  1  0  0  0  0
 13 33  1  0  0  0  0
 13 34  1  0  0  0  0
 14 17  1  0  0  0  0
 14 35  1  0  0  0  0
 14 36  1  0  0  0  0
 16 38  1  0  0  0  0
 16 39  1  0  0  0  0
 16 40  1  0  0  0  0
 17 23  1  0  0  0  0
 17 41  1  0  0  0  0
 17 42  1  0  0  0  0
 18 20  1  0  0  0  0
 18 24  1  0  0  0  0
 18 43  1  0  0  0  0
 19 44  1  0  0  0  0
 19 45  1  0  0  0  0
 19 46  1  0  0  0  0
 20 22  1  0  0  0  0
 20 47  1  0  0  0  0
 20 48  1  0  0  0  0
 21 22  1  0  0  0  0
 21 49  1  0  0  0  0
 21 50  1  0  0  0  0
 22 51  1  0  0  0  0
 22 52  1  0  0  0  0
 24 53  1  0  0  0  0
 24 54  1  0  0  0  0
 25 55  1  0  0  0  0
 25 56  1  0  0  0  0
 25 57  1  0  0  0  0
M  END
> <PUBCHEM_COMPOUND_CID>
45361190

> <PUBCHEM_CONFORMER_RMSD>
1

> <PUBCHEM_CONFORMER_DIVERSEORDER>
1
19
100
80
38
98
75
56
29
85
33
51
106
116
86
2
12
68
67
78
77
54
55
26
45
3
72
90
64
10
57
87
76
84
115
32
46
28
52
41
93
7
48
30
35
43
114
70
105
110
17
107
102
36
88
5
111
53
66
104
6
63
108
59
109
81
99
31
112
20
101
94
11
27
91
92
34
73
65
22
95
25
23
24
8
82
97
113
4
96
49
9
50
103
79
16
83
13
62
61
47
71
58
21
74
42
15
37
39
69
14
18
44
89
40
60

> <PUBCHEM_MMFF94_PARTIAL_CHARGES>
22
1 -0.57
11 0.27
12 0.27
13 0.3
15 0.57
16 0.27
17 0.06
18 0.3
19 0.27
2 -0.57
21 0.3
23 0.57
24 0.28
25 0.28
3 -0.56
37 0.37
4 -0.81
5 -0.81
6 -0.73
7 -0.66
8 0.27
9 0.33

> <PUBCHEM_EFFECTIVE_ROTOR_COUNT>
8.4

> <PUBCHEM_PHARMACOPHORE_FEATURES>
9
1 1 acceptor
1 2 acceptor
1 3 acceptor
1 4 cation
1 5 cation
1 6 donor
5 5 8 9 10 12 rings
5 7 18 20 21 22 rings
7 4 6 8 9 11 13 15 rings

> <PUBCHEM_HEAVY_ATOM_COUNT>
25

> <PUBCHEM_ATOM_DEF_STEREO_COUNT>
4

> <PUBCHEM_ATOM_UDEF_STEREO_COUNT>
0

> <PUBCHEM_BOND_DEF_STEREO_COUNT>
0

> <PUBCHEM_BOND_UDEF_STEREO_COUNT>
0

> <PUBCHEM_ISOTOPIC_ATOM_COUNT>
0

> <PUBCHEM_COMPONENT_COUNT>
1

> <PUBCHEM_CACTVS_TAUTO_COUNT>
3

> <PUBCHEM_CONFORMER_ID>
02B4282600000001

> <PUBCHEM_MMFF94_ENERGY>
67.7257

> <PUBCHEM_FEATURE_SELFOVERLAP>
45.711

> <PUBCHEM_SHAPE_FINGERPRINT>
11089746 13 18259977189510863298
11578080 2 16662035926159028149
11595378 159 12396289361961807174
12236239 1 18344144800127177725
12403259 415 17603305959954131953
12633257 1 14562531799428652805
12788726 201 17845938438189011025
13544653 18 11671782702073082619
13994607 96 18115316695059538341
14950920 106 10881940801877281862
15183329 4 18343024355150769054
15510800 12 13398335941472533853
15537594 2 10159698031750922736
17349148 13 16988855968730938678
17492 54 18340470258485223821
18335252 114 18337944589939900229
20775438 99 17052981861790067215
21033648 144 18186795915600065252
21033648 29 16588013602782356949
21315764 119 17560804260599361917
23227448 37 18114462370329989971
23559900 14 17060039463329704786
2838139 119 18334287635497881053
3004659 81 18201714025073205986
3459 83 18271248222993542774
4028521 119 18336261340204929729
474 4 18187075161646933235
5326457 24 17560803169936476222
57724786 102 17749680682980170564
59755656 520 17821450144994962227
633830 44 17968094291682467802
6913067 236 13110960912130831490
9971528 1 18412825794557442920

> <PUBCHEM_SHAPE_MULTIPOLES>
476.96
13.23
2.73
1.61
6.72
0.66
0.02
2.66
-5.1
1.95
-0.42
-1.39
-0.56
-0.33

> <PUBCHEM_SHAPE_SELFOVERLAP>
977.497

> <PUBCHEM_SHAPE_VOLUME>
276.3

> <PUBCHEM_COORDINATE_TYPE>
2
5
10

$$$$
