7049320
  -OEChem-12032416153D

 44 44  0     1  0  0  0  0  0999 V2000
   -1.3220    1.1961    2.1167 O   0  0  0  0  0  0  0  0  0  0  0  0
   -0.9451    3.8284   -0.3956 O   0  0  0  0  0  0  0  0  0  0  0  0
    3.0491    1.6238   -1.3209 O   0  0  0  0  0  0  0  0  0  0  0  0
   -4.2127    0.3105   -0.8735 O   0  0  0  0  0  0  0  0  0  0  0  0
    3.4922   -2.5114    1.3705 O   0  0  0  0  0  0  0  0  0  0  0  0
   -2.1676   -0.3625   -0.0070 N   0  0  0  0  0  0  0  0  0  0  0  0
    2.6747   -0.3858   -0.2002 N   0  0  0  0  0  0  0  0  0  0  0  0
   -5.9152   -3.4461    0.1202 N   0  0  0  0  0  0  0  0  0  0  0  0
    5.6761   -1.9738    0.9043 N   0  0  0  0  0  0  0  0  0  0  0  0
   -1.5842    1.8656    0.8815 C   0  0  2  0  0  0  0  0  0  0  0  0
   -1.4636    0.8656   -0.2844 C   0  0  1  0  0  0  0  0  0  0  0  0
   -0.5942    3.0272    0.7308 C   0  0  1  0  0  0  0  0  0  0  0  0
    0.8578    2.5368    0.5975 C   0  0  0  0  0  0  0  0  0  0  0  0
    0.9928    1.2926   -0.2337 C   0  0  0  0  0  0  0  0  0  0  0  0
   -0.0391    0.5393   -0.6430 C   0  0  0  0  0  0  0  0  0  0  0  0
    2.3376    0.8803   -0.6461 C   0  0  0  0  0  0  0  0  0  0  0  0
   -3.5056   -0.5353   -0.3322 C   0  0  0  0  0  0  0  0  0  0  0  0
   -4.0061   -1.9135    0.0626 C   0  0  0  0  0  0  0  0  0  0  0  0
    3.9474   -1.0096   -0.4831 C   0  0  2  0  0  0  0  0  0  0  0  0
   -5.4760   -2.1178   -0.2888 C   0  0  0  0  0  0  0  0  0  0  0  0
    3.8885   -1.8139   -1.7722 C   0  0  0  0  0  0  0  0  0  0  0  0
    4.3151   -1.8964    0.6965 C   0  0  0  0  0  0  0  0  0  0  0  0
   -2.6136    2.2419    0.9215 H   0  0  0  0  0  0  0  0  0  0  0  0
   -1.9148    1.3191   -1.1768 H   0  0  0  0  0  0  0  0  0  0  0  0
   -0.6565    3.6762    1.6128 H   0  0  0  0  0  0  0  0  0  0  0  0
    1.4770    3.3340    0.1691 H   0  0  0  0  0  0  0  0  0  0  0  0
    1.2525    2.3138    1.5969 H   0  0  0  0  0  0  0  0  0  0  0  0
    0.1280   -0.3251   -1.2825 H   0  0  0  0  0  0  0  0  0  0  0  0
   -1.6762   -1.1075    0.4800 H   0  0  0  0  0  0  0  0  0  0  0  0
   -1.4349    1.8458    2.8312 H   0  0  0  0  0  0  0  0  0  0  0  0
   -0.3240    4.5758   -0.4302 H   0  0  0  0  0  0  0  0  0  0  0  0
    2.0037   -0.9150    0.3504 H   0  0  0  0  0  0  0  0  0  0  0  0
   -3.8552   -2.0335    1.1427 H   0  0  0  0  0  0  0  0  0  0  0  0
   -3.3859   -2.6599   -0.4492 H   0  0  0  0  0  0  0  0  0  0  0  0
    4.6988   -0.2177   -0.5891 H   0  0  0  0  0  0  0  0  0  0  0  0
   -5.6295   -1.9981   -1.3673 H   0  0  0  0  0  0  0  0  0  0  0  0
   -6.0933   -1.3651    0.2139 H   0  0  0  0  0  0  0  0  0  0  0  0
    3.1386   -2.6107   -1.7077 H   0  0  0  0  0  0  0  0  0  0  0  0
    3.6231   -1.1762   -2.6220 H   0  0  0  0  0  0  0  0  0  0  0  0
    4.8538   -2.2848   -1.9857 H   0  0  0  0  0  0  0  0  0  0  0  0
   -6.8828   -3.5857   -0.1677 H   0  0  0  0  0  0  0  0  0  0  0  0
   -5.3673   -4.1543   -0.3668 H   0  0  0  0  0  0  0  0  0  0  0  0
    6.0567   -2.5425    1.6533 H   0  0  0  0  0  0  0  0  0  0  0  0
    6.3456   -1.4757    0.3264 H   0  0  0  0  0  0  0  0  0  0  0  0
  1 10  1  0  0  0  0
  1 30  1  0  0  0  0
  2 12  1  0  0  0  0
  2 31  1  0  0  0  0
  3 16  2  0  0  0  0
  4 17  2  0  0  0  0
  5 22  2  0  0  0  0
  6 11  1  0  0  0  0
  6 17  1  0  0  0  0
  6 29  1  0  0  0  0
  7 16  1  0  0  0  0
  7 19  1  0  0  0  0
  7 32  1  0  0  0  0
  8 20  1  0  0  0  0
  8 41  1  0  0  0  0
  8 42  1  0  0  0  0
  9 22  1  0  0  0  0
  9 43  1  0  0  0  0
  9 44  1  0  0  0  0
 10 11  1  0  0  0  0
 10 12  1  0  0  0  0
 10 23  1  0  0  0  0
 11 15  1  0  0  0  0
 11 24  1  0  0  0  0
 12 13  1  0  0  0  0
 12 25  1  0  0  0  0
 13 14  1  0  0  0  0
 13 26  1  0  0  0  0
 13 27  1  0  0  0  0
 14 15  2  0  0  0  0
 14 16  1  0  0  0  0
 15 28  1  0  0  0  0
 17 18  1  0  0  0  0
 18 20  1  0  0  0  0
 18 33  1  0  0  0  0
 18 34  1  0  0  0  0
 19 21  1  0  0  0  0
 19 22  1  0  0  0  0
 19 35  1  0  0  0  0
 20 36  1  0  0  0  0
 20 37  1  0  0  0  0
 21 38  1  0  0  0  0
 21 39  1  0  0  0  0
 21 40  1  0  0  0  0
M  END
> <PUBCHEM_COMPOUND_CID>
7049320

> <PUBCHEM_CONFORMER_RMSD>
0.8

> <PUBCHEM_CONFORMER_DIVERSEORDER>
1
152
56
191
60
231
194
250
61
233
178
120
15
215
219
235
243
21
125
238
129
258
262
207
24
20
57
69
166
9
190
203
146
174
249
206
97
167
87
248
138
176
264
111
42
223
143
259
82
86
256
251
54
197
266
10
105
34
177
31
184
149
49
62
196
27
240
153
102
37
64
150
193
252
225
242
254
154
253
6
135
22
245
244
218
221
26
35
114
85
234
142
180
213
217
2
33
214
148
66
199
117
169
108
170
265
78
89
173
134
36
91
46
14
261
70
227
137
73
155
179
110
210
200
75
63
28
159
263
121
222
84
183
74
83
224
211
4
236
187
3
72
204
53
162
77
164
130
81
195
189
104
16
118
90
201
12
136
145
65
48
59
186
116
41
192
212
18
141
156
51
94
32
198
147
119
209
103
55
99
123
188
232
112
115
44
122
171
45
8
88
80
101
241
157
246
185
113
172
124
95
158
260
39
50
267
29
92
126
127
7
237
205
228
47
13
230
161
239
181
30
163
140
11
168
226
5
40
182
58
133
139
151
229
107
23
100
38
216
144
71
175
67
132
25
202
160
98
76
165
257
19
96
247
128
208
52
109
131
255
68
79
220
17
43
93
106

> <PUBCHEM_MMFF94_PARTIAL_CHARGES>
30
1 -0.68
10 0.28
11 0.44
12 0.28
13 0.14
14 -0.12
15 -0.29
16 0.62
17 0.57
18 0.06
19 0.36
2 -0.68
20 0.27
22 0.57
28 0.15
29 0.37
3 -0.57
30 0.4
31 0.4
32 0.37
4 -0.57
41 0.36
42 0.36
43 0.37
44 0.37
5 -0.57
6 -0.73
7 -0.73
8 -0.99
9 -0.8

> <PUBCHEM_EFFECTIVE_ROTOR_COUNT>
8.8

> <PUBCHEM_PHARMACOPHORE_FEATURES>
13
1 1 acceptor
1 1 donor
1 2 acceptor
1 2 donor
1 3 acceptor
1 4 acceptor
1 5 acceptor
1 6 donor
1 7 donor
1 8 cation
1 8 donor
1 9 donor
6 10 11 12 13 14 15 rings

> <PUBCHEM_HEAVY_ATOM_COUNT>
22

> <PUBCHEM_ATOM_DEF_STEREO_COUNT>
4

> <PUBCHEM_ATOM_UDEF_STEREO_COUNT>
0

> <PUBCHEM_BOND_DEF_STEREO_COUNT>
0

> <PUBCHEM_BOND_UDEF_STEREO_COUNT>
0

> <PUBCHEM_ISOTOPIC_ATOM_COUNT>
0

> <PUBCHEM_COMPONENT_COUNT>
1

> <PUBCHEM_CACTVS_TAUTO_COUNT>
8

> <PUBCHEM_CONFORMER_ID>
006B906800000001

> <PUBCHEM_MMFF94_ENERGY>
33.3925

> <PUBCHEM_FEATURE_SELFOVERLAP>
65.981

> <PUBCHEM_SHAPE_FINGERPRINT>
10730089 43 10879726385443622867
11796584 16 18410008802189803519
12107183 9 18271824432164888187
12553582 1 18117860819085094970
12824470 246 18411140216481167608
13052359 8 18122905318125071285
13533116 47 18053670450188598427
13631057 29 18409451358848665974
13955234 65 17765436835452048313
13965767 371 10159421930068196358
14178342 30 18053665768283563358
14251751 18 18187638094194080294
14866123 147 18268713810432341929
15019793 15 17616816973807720091
15099037 8 18335987467531543900
15342816 4 18341346577030424756
15842332 3 18118992233730608628
17492 89 18341054013002166974
20567600 70 18337948008311848538
20626108 58 18260823761935199048
23419403 2 17273102796733133577
23526113 38 17896038904915072801
23559900 14 18340193103892730568
23622692 118 18408887304840580508
3004659 81 18334580152534836150
3057174 1 12757416259724050169
3421961 26 18270116967125143481
345986 75 17702678773164361691
463206 1 18335984284882215107
5104073 3 18202568401753767321
5924683 9 18194958548517742560
6433294 58 17978512258428811627
76465 3 18409446985738262003
7970288 3 18411416206864678439

> <PUBCHEM_SHAPE_MULTIPOLES>
403.48
11.27
4.1
1.28
4.21
1.01
-0.17
-15.92
0.08
1.79
-0.68
-1.05
-0.09
-0.94

> <PUBCHEM_SHAPE_SELFOVERLAP>
813.122

> <PUBCHEM_SHAPE_VOLUME>
233

> <PUBCHEM_COORDINATE_TYPE>
2
5
10

$$$$
