7687228
  -OEChem-12032416353D

 55 59  0     1  0  0  0  0  0999 V2000
   -7.4510   -2.2060    0.3497 Cl  0  0  0  0  0  0  0  0  0  0  0  0
    2.3890   -1.2695   -1.4828 S   0  0  0  0  0  0  0  0  0  0  0  0
    3.7309   -1.1038   -1.9999 O   0  0  0  0  0  0  0  0  0  0  0  0
    1.2427   -1.2526   -2.3670 O   0  0  0  0  0  0  0  0  0  0  0  0
    2.5739    4.7809   -0.7885 O   0  0  0  0  0  0  0  0  0  0  0  0
    2.1334   -0.1455   -0.2181 N   0  0  2  0  0  0  0  0  0  0  0  0
    1.6123    2.9328    0.2816 N   0  0  0  0  0  0  0  0  0  0  0  0
    3.0368    1.2749    1.6225 C   0  0  1  0  0  0  0  0  0  0  0  0
    0.6154    0.9320    1.4289 C   0  0  2  0  0  0  0  0  0  0  0  0
    1.7658    1.0612    2.4246 C   0  0  0  0  0  0  0  0  0  0  0  0
    3.2980    0.0884    0.6817 C   0  0  0  0  0  0  0  0  0  0  0  0
    0.8517   -0.2981    0.5317 C   0  0  0  0  0  0  0  0  0  0  0  0
    2.9160    2.6019    0.8731 C   0  0  0  0  0  0  0  0  0  0  0  0
    0.4478    2.1929    0.5742 C   0  0  0  0  0  0  0  0  0  0  0  0
   -0.7592    2.5923    0.0891 C   0  0  0  0  0  0  0  0  0  0  0  0
    1.5919    4.0907   -0.5146 C   0  0  0  0  0  0  0  0  0  0  0  0
   -0.8083    3.7887   -0.7363 C   0  0  0  0  0  0  0  0  0  0  0  0
    0.2744    4.5026   -1.0426 C   0  0  0  0  0  0  0  0  0  0  0  0
    2.3466   -2.7793   -0.5683 C   0  0  0  0  0  0  0  0  0  0  0  0
   -1.9906    1.8596    0.3354 C   0  0  0  0  0  0  0  0  0  0  0  0
    1.1375   -3.4322   -0.3931 C   0  0  0  0  0  0  0  0  0  0  0  0
    3.5231   -3.2853   -0.0404 C   0  0  0  0  0  0  0  0  0  0  0  0
   -2.4145    0.8845   -0.4668 C   0  0  0  0  0  0  0  0  0  0  0  0
    1.1041   -4.6246    0.3299 C   0  0  0  0  0  0  0  0  0  0  0  0
    3.4895   -4.4777    0.6826 C   0  0  0  0  0  0  0  0  0  0  0  0
    2.2801   -5.1474    0.8678 C   0  0  0  0  0  0  0  0  0  0  0  0
   -3.6582    0.1211   -0.2643 C   0  0  0  0  0  0  0  0  0  0  0  0
   -4.6568    0.6497    0.5378 C   0  0  0  0  0  0  0  0  0  0  0  0
   -3.8060   -1.1110   -0.8807 C   0  0  0  0  0  0  0  0  0  0  0  0
   -5.8345   -0.0729    0.7285 C   0  0  0  0  0  0  0  0  0  0  0  0
   -4.9837   -1.8337   -0.6902 C   0  0  0  0  0  0  0  0  0  0  0  0
   -5.9979   -1.3147    0.1146 C   0  0  0  0  0  0  0  0  0  0  0  0
    3.8924    1.3448    2.3060 H   0  0  0  0  0  0  0  0  0  0  0  0
   -0.2945    0.7576    2.0167 H   0  0  0  0  0  0  0  0  0  0  0  0
    1.5929    1.8991    3.1116 H   0  0  0  0  0  0  0  0  0  0  0  0
    1.8467    0.1556    3.0383 H   0  0  0  0  0  0  0  0  0  0  0  0
    4.1945    0.2969    0.0884 H   0  0  0  0  0  0  0  0  0  0  0  0
    3.4865   -0.8049    1.2863 H   0  0  0  0  0  0  0  0  0  0  0  0
    0.0262   -0.4242   -0.1724 H   0  0  0  0  0  0  0  0  0  0  0  0
    0.8932   -1.1856    1.1721 H   0  0  0  0  0  0  0  0  0  0  0  0
    3.1354    3.4188    1.5749 H   0  0  0  0  0  0  0  0  0  0  0  0
    3.6823    2.6681    0.0900 H   0  0  0  0  0  0  0  0  0  0  0  0
   -1.7749    4.0998   -1.1230 H   0  0  0  0  0  0  0  0  0  0  0  0
    0.2171    5.3888   -1.6631 H   0  0  0  0  0  0  0  0  0  0  0  0
   -2.5171    2.1596    1.2360 H   0  0  0  0  0  0  0  0  0  0  0  0
    0.2102   -3.0420   -0.8014 H   0  0  0  0  0  0  0  0  0  0  0  0
    4.4744   -2.7785   -0.1703 H   0  0  0  0  0  0  0  0  0  0  0  0
   -1.8329    0.6129   -1.3455 H   0  0  0  0  0  0  0  0  0  0  0  0
    0.1622   -5.1456    0.4749 H   0  0  0  0  0  0  0  0  0  0  0  0
    4.4049   -4.8843    1.1024 H   0  0  0  0  0  0  0  0  0  0  0  0
    2.2539   -6.0755    1.4312 H   0  0  0  0  0  0  0  0  0  0  0  0
   -4.5835    1.6209    1.0166 H   0  0  0  0  0  0  0  0  0  0  0  0
   -3.0237   -1.5291   -1.5088 H   0  0  0  0  0  0  0  0  0  0  0  0
   -6.6189    0.3457    1.3540 H   0  0  0  0  0  0  0  0  0  0  0  0
   -5.0970   -2.8003   -1.1744 H   0  0  0  0  0  0  0  0  0  0  0  0
  1 32  1  0  0  0  0
  2  3  2  0  0  0  0
  2  4  2  0  0  0  0
  2  6  1  0  0  0  0
  2 19  1  0  0  0  0
  5 16  2  0  0  0  0
  6 11  1  0  0  0  0
  6 12  1  0  0  0  0
  7 13  1  0  0  0  0
  7 14  1  0  0  0  0
  7 16  1  0  0  0  0
  8 10  1  0  0  0  0
  8 11  1  0  0  0  0
  8 13  1  0  0  0  0
  8 33  1  0  0  0  0
  9 10  1  0  0  0  0
  9 12  1  0  0  0  0
  9 14  1  0  0  0  0
  9 34  1  0  0  0  0
 10 35  1  0  0  0  0
 10 36  1  0  0  0  0
 11 37  1  0  0  0  0
 11 38  1  0  0  0  0
 12 39  1  0  0  0  0
 12 40  1  0  0  0  0
 13 41  1  0  0  0  0
 13 42  1  0  0  0  0
 14 15  2  0  0  0  0
 15 17  1  0  0  0  0
 15 20  1  0  0  0  0
 16 18  1  0  0  0  0
 17 18  2  0  0  0  0
 17 43  1  0  0  0  0
 18 44  1  0  0  0  0
 19 21  2  0  0  0  0
 19 22  1  0  0  0  0
 20 23  2  0  0  0  0
 20 45  1  0  0  0  0
 21 24  1  0  0  0  0
 21 46  1  0  0  0  0
 22 25  2  0  0  0  0
 22 47  1  0  0  0  0
 23 27  1  0  0  0  0
 23 48  1  0  0  0  0
 24 26  2  0  0  0  0
 24 49  1  0  0  0  0
 25 26  1  0  0  0  0
 25 50  1  0  0  0  0
 26 51  1  0  0  0  0
 27 28  2  0  0  0  0
 27 29  1  0  0  0  0
 28 30  1  0  0  0  0
 28 52  1  0  0  0  0
 29 31  2  0  0  0  0
 29 53  1  0  0  0  0
 30 32  2  0  0  0  0
 30 54  1  0  0  0  0
 31 32  1  0  0  0  0
 31 55  1  0  0  0  0
M  END
> <PUBCHEM_COMPOUND_CID>
7687228

> <PUBCHEM_CONFORMER_RMSD>
0.8

> <PUBCHEM_CONFORMER_DIVERSEORDER>
1
10
6
15
7
12
8
2
4
11
5
13
9
3
14

> <PUBCHEM_MMFF94_PARTIAL_CHARGES>
42
1 -0.18
11 0.36
12 0.36
13 0.3
14 -0.03
16 0.62
17 -0.15
18 -0.14
19 -0.01
2 1.45
20 -0.15
21 -0.15
22 -0.15
23 -0.18
24 -0.15
25 -0.15
26 -0.15
27 0.03
28 -0.15
29 -0.15
3 -0.65
30 -0.15
31 -0.15
32 0.18
4 -0.65
43 0.15
44 0.15
45 0.15
46 0.15
47 0.15
48 0.15
49 0.15
5 -0.57
50 0.15
51 0.15
52 0.15
53 0.15
54 0.15
55 0.15
6 -0.85
7 -0.47
9 0.14

> <PUBCHEM_EFFECTIVE_ROTOR_COUNT>
5

> <PUBCHEM_PHARMACOPHORE_FEATURES>
8
1 3 acceptor
1 4 acceptor
1 5 acceptor
6 19 21 22 24 25 26 rings
6 27 28 29 30 31 32 rings
6 6 8 9 10 11 12 rings
6 7 14 15 16 17 18 rings
6 7 8 9 10 13 14 rings

> <PUBCHEM_HEAVY_ATOM_COUNT>
32

> <PUBCHEM_ATOM_DEF_STEREO_COUNT>
2

> <PUBCHEM_ATOM_UDEF_STEREO_COUNT>
0

> <PUBCHEM_BOND_DEF_STEREO_COUNT>
1

> <PUBCHEM_BOND_UDEF_STEREO_COUNT>
0

> <PUBCHEM_ISOTOPIC_ATOM_COUNT>
0

> <PUBCHEM_COMPONENT_COUNT>
1

> <PUBCHEM_CACTVS_TAUTO_COUNT>
1

> <PUBCHEM_CONFORMER_ID>
00754C3C00000001

> <PUBCHEM_MMFF94_ENERGY>
82.2432

> <PUBCHEM_FEATURE_SELFOVERLAP>
42.19

> <PUBCHEM_SHAPE_FINGERPRINT>
10483366 6 18194421080969877020
11421498 54 18264217919886535990
114674 6 18340767134634733963
12293681 25 17975664261277461381
12712778 12 17183605612527764906
12990986 174 17906449926798927946
1361 2 18266458896150045641
13692114 37 17620465153249997753
14251757 5 17329140274240825859
14863182 85 18266738171887930748
15484559 13 18196381539538732004
15664445 248 18408045117166819209
15968369 26 18261097600339205971
1813 80 18333169479686338701
19301679 30 18341336674022366913
19315092 285 17989199331425840731
19319366 153 18127125505945206557
1979834 28 18199463436656816697
20511986 3 16381711957401977314
20764821 26 18122625217479827551
20775530 9 18199746938488397119
22956985 138 18338507531234685306
3737641 26 18341892952957926691
38695281 34 17977108190612112541
4409770 3 17256244848306196837
44880168 125 16986588646647783023
463206 1 17762621689767222227
49967989 163 17403179192907814766
50080093 196 17981308299640312671
5309563 4 18339081488983570535
9831232 110 18335420214854679599

> <PUBCHEM_SHAPE_MULTIPOLES>
636.69
10.86
7.54
1.53
26.14
0.89
-0.05
10.2
1.06
-8.31
-0.62
-1.32
-0.18
0.25

> <PUBCHEM_SHAPE_SELFOVERLAP>
1375.03

> <PUBCHEM_SHAPE_VOLUME>
348.9

> <PUBCHEM_COORDINATE_TYPE>
2
5
10

$$$$
