56774933
  -OEChem-12032416273D

 53 54  0     1  0  0  0  0  0999 V2000
   -1.7501   -2.0407   -1.6127 O   0  0  0  0  0  0  0  0  0  0  0  0
   -1.5815   -0.5111    2.3047 O   0  0  0  0  0  0  0  0  0  0  0  0
   -4.4078    1.9807   -0.1120 O   0  0  0  0  0  0  0  0  0  0  0  0
   -5.0291   -2.3929   -0.1412 O   0  0  0  0  0  0  0  0  0  0  0  0
    5.4373   -1.0701   -0.0165 O   0  0  0  0  0  0  0  0  0  0  0  0
   -3.4483   -0.7157    0.1820 N   0  0  0  0  0  0  0  0  0  0  0  0
    4.2317    0.9230    0.3079 N   0  0  0  0  0  0  0  0  0  0  0  0
    6.5178    0.9734   -0.0382 N   0  0  0  0  0  0  0  0  0  0  0  0
   -2.0690   -0.2658   -0.0441 C   0  0  1  0  0  0  0  0  0  0  0  0
   -1.1271   -0.8671    1.0032 C   0  0  1  0  0  0  0  0  0  0  0  0
   -1.6258   -0.6322   -1.4554 C   0  0  0  0  0  0  0  0  0  0  0  0
   -4.2246   -0.0203    1.1997 C   0  0  0  0  0  0  0  0  0  0  0  0
   -3.9487   -1.8691   -0.4188 C   0  0  0  0  0  0  0  0  0  0  0  0
    0.2918   -0.3927    0.8186 C   0  0  0  0  0  0  0  0  0  0  0  0
   -3.1015   -2.4387   -1.5511 C   0  0  0  0  0  0  0  0  0  0  0  0
   -5.1652    0.9992    0.5839 C   0  0  0  0  0  0  0  0  0  0  0  0
    0.5841    0.9702    0.8682 C   0  0  0  0  0  0  0  0  0  0  0  0
    1.3128   -1.3174    0.5984 C   0  0  0  0  0  0  0  0  0  0  0  0
    1.8973    1.4086    0.6980 C   0  0  0  0  0  0  0  0  0  0  0  0
    2.6259   -0.8791    0.4281 C   0  0  0  0  0  0  0  0  0  0  0  0
    2.9181    0.4839    0.4780 C   0  0  0  0  0  0  0  0  0  0  0  0
   -5.2468    2.9606   -0.7080 C   0  0  0  0  0  0  0  0  0  0  0  0
   -4.3850    3.9737   -1.4311 C   0  0  0  0  0  0  0  0  0  0  0  0
    5.3902    0.1541    0.0767 C   0  0  0  0  0  0  0  0  0  0  0  0
    7.8460    0.4578   -0.2775 C   0  0  0  0  0  0  0  0  0  0  0  0
    8.0575    0.1278   -1.7407 C   0  0  0  0  0  0  0  0  0  0  0  0
   -2.0818    0.8276    0.0334 H   0  0  0  0  0  0  0  0  0  0  0  0
   -1.1687   -1.9621    0.9625 H   0  0  0  0  0  0  0  0  0  0  0  0
   -2.2472   -0.1278   -2.2069 H   0  0  0  0  0  0  0  0  0  0  0  0
   -0.5907   -0.3496   -1.6655 H   0  0  0  0  0  0  0  0  0  0  0  0
   -3.5681    0.5047    1.8949 H   0  0  0  0  0  0  0  0  0  0  0  0
   -4.8060   -0.7540    1.7687 H   0  0  0  0  0  0  0  0  0  0  0  0
   -3.1170   -3.5301   -1.4636 H   0  0  0  0  0  0  0  0  0  0  0  0
   -3.5903   -2.1752   -2.4965 H   0  0  0  0  0  0  0  0  0  0  0  0
   -5.7510    1.4809    1.3752 H   0  0  0  0  0  0  0  0  0  0  0  0
   -5.8542    0.5081   -0.1136 H   0  0  0  0  0  0  0  0  0  0  0  0
   -1.3889    0.4273    2.4667 H   0  0  0  0  0  0  0  0  0  0  0  0
   -0.1922    1.7098    1.0428 H   0  0  0  0  0  0  0  0  0  0  0  0
    1.0988   -2.3821    0.5562 H   0  0  0  0  0  0  0  0  0  0  0  0
    2.1110    2.4737    0.7401 H   0  0  0  0  0  0  0  0  0  0  0  0
    3.3604   -1.6545    0.2619 H   0  0  0  0  0  0  0  0  0  0  0  0
   -5.9281    2.4816   -1.4200 H   0  0  0  0  0  0  0  0  0  0  0  0
   -5.8369    3.4639    0.0660 H   0  0  0  0  0  0  0  0  0  0  0  0
    4.3686    1.9296    0.3572 H   0  0  0  0  0  0  0  0  0  0  0  0
   -5.0003    4.7444   -1.9038 H   0  0  0  0  0  0  0  0  0  0  0  0
   -3.7784    3.4843   -2.2003 H   0  0  0  0  0  0  0  0  0  0  0  0
   -3.6890    4.4541   -0.7355 H   0  0  0  0  0  0  0  0  0  0  0  0
    6.3997    1.9787    0.0396 H   0  0  0  0  0  0  0  0  0  0  0  0
    8.5588    1.2217    0.0479 H   0  0  0  0  0  0  0  0  0  0  0  0
    7.9937   -0.4374    0.3357 H   0  0  0  0  0  0  0  0  0  0  0  0
    7.3596   -0.6442   -2.0807 H   0  0  0  0  0  0  0  0  0  0  0  0
    7.9045    1.0129   -2.3673 H   0  0  0  0  0  0  0  0  0  0  0  0
    9.0758   -0.2371   -1.9060 H   0  0  0  0  0  0  0  0  0  0  0  0
  1 11  1  0  0  0  0
  1 15  1  0  0  0  0
  2 10  1  0  0  0  0
  2 37  1  0  0  0  0
  3 16  1  0  0  0  0
  3 22  1  0  0  0  0
  4 13  2  0  0  0  0
  5 24  2  0  0  0  0
  6  9  1  0  0  0  0
  6 12  1  0  0  0  0
  6 13  1  0  0  0  0
  7 21  1  0  0  0  0
  7 24  1  0  0  0  0
  7 44  1  0  0  0  0
  8 24  1  0  0  0  0
  8 25  1  0  0  0  0
  8 48  1  0  0  0  0
  9 10  1  0  0  0  0
  9 11  1  0  0  0  0
  9 27  1  0  0  0  0
 10 14  1  0  0  0  0
 10 28  1  0  0  0  0
 11 29  1  0  0  0  0
 11 30  1  0  0  0  0
 12 16  1  0  0  0  0
 12 31  1  0  0  0  0
 12 32  1  0  0  0  0
 13 15  1  0  0  0  0
 14 17  2  0  0  0  0
 14 18  1  0  0  0  0
 15 33  1  0  0  0  0
 15 34  1  0  0  0  0
 16 35  1  0  0  0  0
 16 36  1  0  0  0  0
 17 19  1  0  0  0  0
 17 38  1  0  0  0  0
 18 20  2  0  0  0  0
 18 39  1  0  0  0  0
 19 21  2  0  0  0  0
 19 40  1  0  0  0  0
 20 21  1  0  0  0  0
 20 41  1  0  0  0  0
 22 23  1  0  0  0  0
 22 42  1  0  0  0  0
 22 43  1  0  0  0  0
 23 45  1  0  0  0  0
 23 46  1  0  0  0  0
 23 47  1  0  0  0  0
 25 26  1  0  0  0  0
 25 49  1  0  0  0  0
 25 50  1  0  0  0  0
 26 51  1  0  0  0  0
 26 52  1  0  0  0  0
 26 53  1  0  0  0  0
M  END
> <PUBCHEM_COMPOUND_CID>
56774933

> <PUBCHEM_CONFORMER_RMSD>
1

> <PUBCHEM_CONFORMER_DIVERSEORDER>
1
39
51
76
36
58
37
42
16
19
67
75
32
85
43
26
24
69
86
44
66
87
81
73
88
13
79
49
27
52
50
80
28
53
54
33
83
45
72
60
55
30
77
59
29
78
82
47
18
46
23
71
84
20
56
14
25
41
11
34
40
68
57
4
48
74
38
8
62
17
35
70
65
31
21
61
3
7
6
63
9
64
15
10
5
22
2
12

> <PUBCHEM_MMFF94_PARTIAL_CHARGES>
31
1 -0.56
10 0.42
11 0.28
12 0.3
13 0.57
14 -0.14
15 0.34
16 0.28
17 -0.15
18 -0.15
19 -0.15
2 -0.68
20 -0.15
21 0.12
22 0.28
24 0.69
25 0.3
3 -0.56
37 0.4
38 0.15
39 0.15
4 -0.57
40 0.15
41 0.15
44 0.37
48 0.37
5 -0.57
6 -0.66
7 -0.55
8 -0.73
9 0.3

> <PUBCHEM_EFFECTIVE_ROTOR_COUNT>
11

> <PUBCHEM_PHARMACOPHORE_FEATURES>
10
1 1 acceptor
1 2 acceptor
1 2 donor
1 3 acceptor
1 4 acceptor
1 5 acceptor
1 7 donor
1 8 donor
6 1 6 9 11 13 15 rings
6 14 17 18 19 20 21 rings

> <PUBCHEM_HEAVY_ATOM_COUNT>
26

> <PUBCHEM_ATOM_DEF_STEREO_COUNT>
2

> <PUBCHEM_ATOM_UDEF_STEREO_COUNT>
0

> <PUBCHEM_BOND_DEF_STEREO_COUNT>
0

> <PUBCHEM_BOND_UDEF_STEREO_COUNT>
0

> <PUBCHEM_ISOTOPIC_ATOM_COUNT>
0

> <PUBCHEM_COMPONENT_COUNT>
1

> <PUBCHEM_CACTVS_TAUTO_COUNT>
6

> <PUBCHEM_CONFORMER_ID>
0362511500000001

> <PUBCHEM_MMFF94_ENERGY>
62.6939

> <PUBCHEM_FEATURE_SELFOVERLAP>
50.797

> <PUBCHEM_SHAPE_FINGERPRINT>
105312 117 18200593601735099165
11135926 11 17418101983815284182
11315181 36 17132123476407497218
12236239 1 17917717946031554674
13690498 29 18129934710825736095
14251752 14 18412544289167795064
14856354 85 18114192985491584515
15183329 4 18413666911766670866
15198563 99 18337654409649790405
15419008 91 17917132971771371672
15876981 60 18187650240952307837
17093844 174 18201715180566920138
21267235 1 18059016214865419811
21424621 283 17676491610125823504
21709351 56 18342454884909335000
21756936 100 17967813838544009617
22393880 68 18201429311654101266
23081809 10 17968087625951188674
23198884 109 18186521042061954538
23402539 116 18202002162024026370
23559900 14 16701732852401917162
4098825 35 18114744820475474734
44802255 64 18343021069152479023
559249 180 17917996096229168654
59755656 215 17489597727780365334
59755656 520 17603304847489258555
6327066 14 18190734233930407213
9953998 17 7853857195906393869

> <PUBCHEM_SHAPE_MULTIPOLES>
490.78
17.92
2.89
1.49
35.15
2.11
-0.2
6.86
-6
-7.09
-1.6
-0.54
-0.22
0.4

> <PUBCHEM_SHAPE_SELFOVERLAP>
1003.537

> <PUBCHEM_SHAPE_VOLUME>
279.9

> <PUBCHEM_COORDINATE_TYPE>
2
5
10

$$$$
