28961322
  -OEChem-12032416343D

 59 62  0     1  0  0  0  0  0999 V2000
    2.1081    2.2296    0.5885 O   0  0  0  0  0  0  0  0  0  0  0  0
    0.0106    3.1851   -1.3235 O   0  0  0  0  0  0  0  0  0  0  0  0
    3.4893    4.6742    0.4430 O   0  0  0  0  0  0  0  0  0  0  0  0
    2.1339   -2.2190    0.4370 O   0  0  0  0  0  0  0  0  0  0  0  0
   -1.3573    1.1141    0.1123 N   0  0  0  0  0  0  0  0  0  0  0  0
   -3.8935   -0.2001    0.1204 N   0  0  0  0  0  0  0  0  0  0  0  0
    2.7030   -0.2466   -0.6445 N   0  0  0  0  0  0  0  0  0  0  0  0
   -0.2379    1.8390    0.6876 C   0  0  1  0  0  0  0  0  0  0  0  0
    1.1346    1.1618    0.5821 C   0  0  1  0  0  0  0  0  0  0  0  0
    0.0140    3.2181    0.0978 C   0  0  1  0  0  0  0  0  0  0  0  0
    1.4191    3.4945    0.6193 C   0  0  2  0  0  0  0  0  0  0  0  0
   -1.5144   -0.1922    0.7638 C   0  0  0  0  0  0  0  0  0  0  0  0
   -2.5962    1.8902    0.2448 C   0  0  0  0  0  0  0  0  0  0  0  0
    1.3899    0.3250   -0.6665 C   0  0  0  0  0  0  0  0  0  0  0  0
   -2.6553   -0.9894    0.1276 C   0  0  0  0  0  0  0  0  0  0  0  0
   -3.7741    1.1625   -0.4078 C   0  0  0  0  0  0  0  0  0  0  0  0
    2.2176    4.5188   -0.1661 C   0  0  0  0  0  0  0  0  0  0  0  0
   -5.1088   -0.8844    0.0070 C   0  0  0  0  0  0  0  0  0  0  0  0
    2.9755   -1.4930   -0.0857 C   0  0  0  0  0  0  0  0  0  0  0  0
   -5.4711   -1.8265    0.9698 C   0  0  0  0  0  0  0  0  0  0  0  0
   -5.9579   -0.6242   -1.0686 C   0  0  0  0  0  0  0  0  0  0  0  0
    4.3939   -1.9330   -0.1189 C   0  0  0  0  0  0  0  0  0  0  0  0
   -6.6828   -2.5082    0.8570 C   0  0  0  0  0  0  0  0  0  0  0  0
   -7.1696   -1.3060   -1.1813 C   0  0  0  0  0  0  0  0  0  0  0  0
   -7.5321   -2.2479   -0.2184 C   0  0  0  0  0  0  0  0  0  0  0  0
    4.8717   -2.8188    0.8469 C   0  0  0  0  0  0  0  0  0  0  0  0
    5.2481   -1.4601   -1.1151 C   0  0  0  0  0  0  0  0  0  0  0  0
    6.2037   -3.2317    0.8166 C   0  0  0  0  0  0  0  0  0  0  0  0
    6.5801   -1.8730   -1.1454 C   0  0  0  0  0  0  0  0  0  0  0  0
    7.0580   -2.7589   -0.1798 C   0  0  0  0  0  0  0  0  0  0  0  0
   -0.4244    1.9937    1.7631 H   0  0  0  0  0  0  0  0  0  0  0  0
    1.3177    0.5486    1.4732 H   0  0  0  0  0  0  0  0  0  0  0  0
   -0.6978    3.9789    0.4342 H   0  0  0  0  0  0  0  0  0  0  0  0
    1.3803    3.7861    1.6767 H   0  0  0  0  0  0  0  0  0  0  0  0
   -1.7348   -0.0536    1.8321 H   0  0  0  0  0  0  0  0  0  0  0  0
   -0.6176   -0.8137    0.7220 H   0  0  0  0  0  0  0  0  0  0  0  0
   -2.5167    2.8615   -0.2545 H   0  0  0  0  0  0  0  0  0  0  0  0
   -2.8246    2.0826    1.3020 H   0  0  0  0  0  0  0  0  0  0  0  0
    1.3609    0.9554   -1.5618 H   0  0  0  0  0  0  0  0  0  0  0  0
    0.6725   -0.4830   -0.8139 H   0  0  0  0  0  0  0  0  0  0  0  0
   -2.3951   -1.2640   -0.9029 H   0  0  0  0  0  0  0  0  0  0  0  0
   -2.7736   -1.9224    0.6906 H   0  0  0  0  0  0  0  0  0  0  0  0
   -4.6851    1.7389   -0.2032 H   0  0  0  0  0  0  0  0  0  0  0  0
   -3.6287    1.1301   -1.4953 H   0  0  0  0  0  0  0  0  0  0  0  0
    1.7099    5.4880   -0.1782 H   0  0  0  0  0  0  0  0  0  0  0  0
    2.3941    4.1848   -1.1935 H   0  0  0  0  0  0  0  0  0  0  0  0
    0.0684    4.1028   -1.6392 H   0  0  0  0  0  0  0  0  0  0  0  0
    3.4570    0.3327   -0.9978 H   0  0  0  0  0  0  0  0  0  0  0  0
    3.9766    5.3363   -0.0764 H   0  0  0  0  0  0  0  0  0  0  0  0
   -4.8300   -2.0331    1.8229 H   0  0  0  0  0  0  0  0  0  0  0  0
   -5.7017    0.0921   -1.8440 H   0  0  0  0  0  0  0  0  0  0  0  0
   -6.9667   -3.2395    1.6082 H   0  0  0  0  0  0  0  0  0  0  0  0
   -7.8298   -1.1059   -2.0203 H   0  0  0  0  0  0  0  0  0  0  0  0
   -8.4756   -2.7787   -0.3061 H   0  0  0  0  0  0  0  0  0  0  0  0
    4.2232   -3.1949    1.6339 H   0  0  0  0  0  0  0  0  0  0  0  0
    4.9090   -0.7940   -1.9028 H   0  0  0  0  0  0  0  0  0  0  0  0
    6.5762   -3.9207    1.5689 H   0  0  0  0  0  0  0  0  0  0  0  0
    7.2440   -1.5106   -1.9250 H   0  0  0  0  0  0  0  0  0  0  0  0
    8.0947   -3.0816   -0.2043 H   0  0  0  0  0  0  0  0  0  0  0  0
  1  9  1  0  0  0  0
  1 11  1  0  0  0  0
  2 10  1  0  0  0  0
  2 47  1  0  0  0  0
  3 17  1  0  0  0  0
  3 49  1  0  0  0  0
  4 19  2  0  0  0  0
  5  8  1  0  0  0  0
  5 12  1  0  0  0  0
  5 13  1  0  0  0  0
  6 15  1  0  0  0  0
  6 16  1  0  0  0  0
  6 18  1  0  0  0  0
  7 14  1  0  0  0  0
  7 19  1  0  0  0  0
  7 48  1  0  0  0  0
  8  9  1  0  0  0  0
  8 10  1  0  0  0  0
  8 31  1  0  0  0  0
  9 14  1  0  0  0  0
  9 32  1  0  0  0  0
 10 11  1  0  0  0  0
 10 33  1  0  0  0  0
 11 17  1  0  0  0  0
 11 34  1  0  0  0  0
 12 15  1  0  0  0  0
 12 35  1  0  0  0  0
 12 36  1  0  0  0  0
 13 16  1  0  0  0  0
 13 37  1  0  0  0  0
 13 38  1  0  0  0  0
 14 39  1  0  0  0  0
 14 40  1  0  0  0  0
 15 41  1  0  0  0  0
 15 42  1  0  0  0  0
 16 43  1  0  0  0  0
 16 44  1  0  0  0  0
 17 45  1  0  0  0  0
 17 46  1  0  0  0  0
 18 20  2  0  0  0  0
 18 21  1  0  0  0  0
 19 22  1  0  0  0  0
 20 23  1  0  0  0  0
 20 50  1  0  0  0  0
 21 24  2  0  0  0  0
 21 51  1  0  0  0  0
 22 26  2  0  0  0  0
 22 27  1  0  0  0  0
 23 25  2  0  0  0  0
 23 52  1  0  0  0  0
 24 25  1  0  0  0  0
 24 53  1  0  0  0  0
 25 54  1  0  0  0  0
 26 28  1  0  0  0  0
 26 55  1  0  0  0  0
 27 29  2  0  0  0  0
 27 56  1  0  0  0  0
 28 30  2  0  0  0  0
 28 57  1  0  0  0  0
 29 30  1  0  0  0  0
 29 58  1  0  0  0  0
 30 59  1  0  0  0  0
M  END
> <PUBCHEM_COMPOUND_CID>
28961322

> <PUBCHEM_CONFORMER_RMSD>
1

> <PUBCHEM_CONFORMER_DIVERSEORDER>
1
27
11
19
10
30
6
29
31
3
13
14
9
25
18
15
20
17
4
28
5
23
26
8
16
24
12
22
32
7
21
2

> <PUBCHEM_MMFF94_PARTIAL_CHARGES>
43
1 -0.56
10 0.28
11 0.28
12 0.27
13 0.27
14 0.3
15 0.37
16 0.37
17 0.28
18 0.1
19 0.54
2 -0.68
20 -0.15
21 -0.15
22 0.09
23 -0.15
24 -0.15
25 -0.15
26 -0.15
27 -0.15
28 -0.15
29 -0.15
3 -0.68
30 -0.15
4 -0.57
47 0.4
48 0.37
49 0.4
5 -0.81
50 0.15
51 0.15
52 0.15
53 0.15
54 0.15
55 0.15
56 0.15
57 0.15
58 0.15
59 0.15
6 -0.84
7 -0.73
8 0.27
9 0.28

> <PUBCHEM_EFFECTIVE_ROTOR_COUNT>
9.2

> <PUBCHEM_PHARMACOPHORE_FEATURES>
13
1 1 acceptor
1 2 acceptor
1 2 donor
1 3 acceptor
1 3 donor
1 4 acceptor
1 5 cation
1 6 cation
1 7 donor
5 1 8 9 10 11 rings
6 18 20 21 23 24 25 rings
6 22 26 27 28 29 30 rings
6 5 6 12 13 15 16 rings

> <PUBCHEM_HEAVY_ATOM_COUNT>
30

> <PUBCHEM_ATOM_DEF_STEREO_COUNT>
4

> <PUBCHEM_ATOM_UDEF_STEREO_COUNT>
0

> <PUBCHEM_BOND_DEF_STEREO_COUNT>
0

> <PUBCHEM_BOND_UDEF_STEREO_COUNT>
0

> <PUBCHEM_ISOTOPIC_ATOM_COUNT>
0

> <PUBCHEM_COMPONENT_COUNT>
1

> <PUBCHEM_CACTVS_TAUTO_COUNT>
2

> <PUBCHEM_CONFORMER_ID>
01B9EA2A00000001

> <PUBCHEM_MMFF94_ENERGY>
94.5004

> <PUBCHEM_FEATURE_SELFOVERLAP>
65.979

> <PUBCHEM_SHAPE_FINGERPRINT>
10050765 1 18411982464433391801
10100884 174 18188206486779434610
10319688 140 18338800134239609260
10411042 1 18411700950669099672
11059845 2 17415581834835303305
11204353 107 18120946259093198914
11297750 10 18335692828174642380
11497681 19 18191311481972518166
11621639 208 17756431821830285803
11719270 70 18194676205615480912
11963148 33 17909825775953333351
12107183 9 18199200507908033833
12166972 35 18041005028943730118
12522641 68 17180537395245268244
12788726 201 17828483570648688808
13533116 47 18200594838754148225
13540713 4 18337934745574638253
13540713 5 18129119908216843273
13631057 29 18264490590406980234
13690498 29 18187362091685732159
13782708 43 18187079577174422399
13955234 65 18127127704526098057
14068700 675 18273496749699016995
14394314 77 18266462005632489200
14784336 7 18115020780656493682
14931854 50 17895197653639277074
15183329 4 16660642916939181779
15890870 6 18191875733649209316
15927050 60 17909269427295729806
16990366 60 18334287665505065626
16991971 28 18342749498692456974
17492 89 18411135870655012441
17686467 74 18342449306738529858
19319366 153 17911800489956818237
19841028 212 18269554000662539051
20771845 171 18042409196146388476
20775438 99 17975684301753483675
21049683 271 18335147522426472844
21130935 74 18195251247130942315
21344244 246 18336834182185945780
21682296 61 18411983581477770771
21756936 100 8646183932224851360
22311459 1 18124312976455704993
23522609 53 18051167801813406353
23559900 14 18262235629433626411
249999 5 18198058277960674344
25269216 80 15140967297093238603
255183 451 18412827996973722357
3004659 81 18040715861464489314
32027 91 18408885170321429923
3504750 166 17467906373420180154
3627633 1 18195247720060887068
4046055 25 17969788479944397460
439807 62 18333455335450524463
4461854 278 17775289377964228238
46194498 28 17822285859536310885
469060 322 18126581028614672386
484989 97 18042135396023385699
5104073 3 18060426824391857353
5219985 13 9079104562408394634
5219985 9 18411703153597146770
5718773 13 18411698759883084847
59755656 215 18194123142898359885
6669772 16 18194118753150924745
6697151 62 18196908081602952421
6700243 42 17627256476346358556
7970288 3 18338514140599126899

> <PUBCHEM_SHAPE_MULTIPOLES>
578.97
19.41
5.56
1.05
10.82
6.67
0.13
-27.73
2.83
-7.09
-0.76
0.08
-0.24
0.39

> <PUBCHEM_SHAPE_SELFOVERLAP>
1233.815

> <PUBCHEM_SHAPE_VOLUME>
319.7

> <PUBCHEM_COORDINATE_TYPE>
2
5
10

$$$$
