40777157
  -OEChem-12032416183D

 65 69  0     1  0  0  0  0  0999 V2000
    8.7191   -0.3507   -1.2375 F   0  0  0  0  0  0  0  0  0  0  0  0
    7.7412   -1.9267   -2.3724 F   0  0  0  0  0  0  0  0  0  0  0  0
    8.4687   -2.3187   -0.3612 F   0  0  0  0  0  0  0  0  0  0  0  0
   -5.6975    0.1648   -2.1614 O   0  0  0  0  0  0  0  0  0  0  0  0
   -8.0111   -3.1870    0.6484 O   0  0  0  0  0  0  0  0  0  0  0  0
   -1.8859    2.4958   -1.5741 N   0  0  2  0  0  0  0  0  0  0  0  0
   -4.0367   -0.4837   -0.7173 N   0  0  0  0  0  0  0  0  0  0  0  0
    0.3315    0.8601    2.0632 N   0  0  0  0  0  0  0  0  0  0  0  0
   -6.2552   -1.2348   -0.3977 N   0  0  0  0  0  0  0  0  0  0  0  0
    2.3766   -0.4138    2.1117 N   0  0  0  0  0  0  0  0  0  0  0  0
   -1.5128    2.7738    0.9884 C   0  0  2  0  0  0  0  0  0  0  0  0
   -0.1705    2.4518    0.2752 C   0  0  2  0  0  0  0  0  0  0  0  0
   -2.8685    1.6690   -0.8248 C   0  0  2  0  0  0  0  0  0  0  0  0
   -2.5334    1.6575    0.6823 C   0  0  0  0  0  0  0  0  0  0  0  0
   -2.0551    4.0714    0.3518 C   0  0  0  0  0  0  0  0  0  0  0  0
   -0.5034    2.1029   -1.2036 C   0  0  0  0  0  0  0  0  0  0  0  0
   -2.0867    3.9104   -1.1781 C   0  0  0  0  0  0  0  0  0  0  0  0
   -2.9919    0.2534   -1.3923 C   0  0  0  0  0  0  0  0  0  0  0  0
    0.7561    1.4282    0.9154 C   0  0  0  0  0  0  0  0  0  0  0  0
    1.9617    1.1311    0.3131 C   0  0  0  0  0  0  0  0  0  0  0  0
    2.7386    0.1934    0.9625 C   0  0  0  0  0  0  0  0  0  0  0  0
   -5.3535   -0.4756   -1.1625 C   0  0  0  0  0  0  0  0  0  0  0  0
    1.1787   -0.0387    2.5997 C   0  0  0  0  0  0  0  0  0  0  0  0
    4.0226   -0.2040    0.4365 C   0  0  0  0  0  0  0  0  0  0  0  0
    0.7448   -0.6870    3.8706 C   0  0  0  0  0  0  0  0  0  0  0  0
   -7.6656   -1.2771   -0.7908 C   0  0  0  0  0  0  0  0  0  0  0  0
   -5.9629   -1.8981    0.8811 C   0  0  0  0  0  0  0  0  0  0  0  0
   -8.2222   -2.6874   -0.6734 C   0  0  0  0  0  0  0  0  0  0  0  0
   -6.6158   -3.2751    0.9396 C   0  0  0  0  0  0  0  0  0  0  0  0
    4.1092   -0.7793   -0.8313 C   0  0  0  0  0  0  0  0  0  0  0  0
    5.1770   -0.0125    1.1957 C   0  0  0  0  0  0  0  0  0  0  0  0
    5.3499   -1.1631   -1.3399 C   0  0  0  0  0  0  0  0  0  0  0  0
    6.4178   -0.3964    0.6873 C   0  0  0  0  0  0  0  0  0  0  0  0
    6.5043   -0.9717   -0.5805 C   0  0  0  0  0  0  0  0  0  0  0  0
    7.8309   -1.3822   -1.1239 C   0  0  0  0  0  0  0  0  0  0  0  0
   -1.3841    2.9027    2.0682 H   0  0  0  0  0  0  0  0  0  0  0  0
    0.4118    3.3865    0.2762 H   0  0  0  0  0  0  0  0  0  0  0  0
   -3.8569    2.1364   -0.9470 H   0  0  0  0  0  0  0  0  0  0  0  0
   -3.4500    1.8288    1.2604 H   0  0  0  0  0  0  0  0  0  0  0  0
   -2.1317    0.6892    1.0010 H   0  0  0  0  0  0  0  0  0  0  0  0
   -3.0625    4.2802    0.7318 H   0  0  0  0  0  0  0  0  0  0  0  0
   -1.4223    4.9245    0.6232 H   0  0  0  0  0  0  0  0  0  0  0  0
    0.2014    2.6259   -1.8640 H   0  0  0  0  0  0  0  0  0  0  0  0
   -0.3500    1.0386   -1.4165 H   0  0  0  0  0  0  0  0  0  0  0  0
   -3.0425    4.2778   -1.5717 H   0  0  0  0  0  0  0  0  0  0  0  0
   -1.3167    4.5393   -1.6428 H   0  0  0  0  0  0  0  0  0  0  0  0
   -2.0711   -0.3235   -1.2590 H   0  0  0  0  0  0  0  0  0  0  0  0
   -3.2111    0.2882   -2.4657 H   0  0  0  0  0  0  0  0  0  0  0  0
   -3.7547   -1.0063    0.0993 H   0  0  0  0  0  0  0  0  0  0  0  0
    2.2797    1.6135   -0.6037 H   0  0  0  0  0  0  0  0  0  0  0  0
    1.1235   -0.1167    4.7239 H   0  0  0  0  0  0  0  0  0  0  0  0
   -0.3472   -0.7288    3.9334 H   0  0  0  0  0  0  0  0  0  0  0  0
    1.1274   -1.7104    3.9342 H   0  0  0  0  0  0  0  0  0  0  0  0
   -8.1955   -0.6048   -0.1055 H   0  0  0  0  0  0  0  0  0  0  0  0
   -7.8045   -0.8994   -1.8082 H   0  0  0  0  0  0  0  0  0  0  0  0
   -4.8990   -2.0035    1.0849 H   0  0  0  0  0  0  0  0  0  0  0  0
   -6.3887   -1.2520    1.6582 H   0  0  0  0  0  0  0  0  0  0  0  0
   -7.7553   -3.3652   -1.3979 H   0  0  0  0  0  0  0  0  0  0  0  0
   -9.2999   -2.6836   -0.8639 H   0  0  0  0  0  0  0  0  0  0  0  0
   -6.1424   -3.9680    0.2336 H   0  0  0  0  0  0  0  0  0  0  0  0
   -6.5081   -3.6978    1.9434 H   0  0  0  0  0  0  0  0  0  0  0  0
    3.2208   -0.9422   -1.4371 H   0  0  0  0  0  0  0  0  0  0  0  0
    5.1300    0.4376    2.1846 H   0  0  0  0  0  0  0  0  0  0  0  0
    5.3956   -1.6104   -2.3290 H   0  0  0  0  0  0  0  0  0  0  0  0
    7.3118   -0.2427    1.2858 H   0  0  0  0  0  0  0  0  0  0  0  0
  1 35  1  0  0  0  0
  2 35  1  0  0  0  0
  3 35  1  0  0  0  0
  4 22  2  0  0  0  0
  5 28  1  0  0  0  0
  5 29  1  0  0  0  0
  6 13  1  0  0  0  0
  6 16  1  0  0  0  0
  6 17  1  0  0  0  0
  7 18  1  0  0  0  0
  7 22  1  0  0  0  0
  7 49  1  0  0  0  0
  8 19  2  0  0  0  0
  8 23  1  0  0  0  0
  9 22  1  0  0  0  0
  9 26  1  0  0  0  0
  9 27  1  0  0  0  0
 10 21  1  0  0  0  0
 10 23  2  0  0  0  0
 11 12  1  0  0  0  0
 11 14  1  0  0  0  0
 11 15  1  0  0  0  0
 11 36  1  0  0  0  0
 12 16  1  0  0  0  0
 12 19  1  0  0  0  0
 12 37  1  0  0  0  0
 13 14  1  0  0  0  0
 13 18  1  0  0  0  0
 13 38  1  0  0  0  0
 14 39  1  0  0  0  0
 14 40  1  0  0  0  0
 15 17  1  0  0  0  0
 15 41  1  0  0  0  0
 15 42  1  0  0  0  0
 16 43  1  0  0  0  0
 16 44  1  0  0  0  0
 17 45  1  0  0  0  0
 17 46  1  0  0  0  0
 18 47  1  0  0  0  0
 18 48  1  0  0  0  0
 19 20  1  0  0  0  0
 20 21  2  0  0  0  0
 20 50  1  0  0  0  0
 21 24  1  0  0  0  0
 23 25  1  0  0  0  0
 24 30  2  0  0  0  0
 24 31  1  0  0  0  0
 25 51  1  0  0  0  0
 25 52  1  0  0  0  0
 25 53  1  0  0  0  0
 26 28  1  0  0  0  0
 26 54  1  0  0  0  0
 26 55  1  0  0  0  0
 27 29  1  0  0  0  0
 27 56  1  0  0  0  0
 27 57  1  0  0  0  0
 28 58  1  0  0  0  0
 28 59  1  0  0  0  0
 29 60  1  0  0  0  0
 29 61  1  0  0  0  0
 30 32  1  0  0  0  0
 30 62  1  0  0  0  0
 31 33  2  0  0  0  0
 31 63  1  0  0  0  0
 32 34  2  0  0  0  0
 32 64  1  0  0  0  0
 33 34  1  0  0  0  0
 33 65  1  0  0  0  0
 34 35  1  0  0  0  0
M  END
> <PUBCHEM_COMPOUND_CID>
40777157

> <PUBCHEM_CONFORMER_RMSD>
1

> <PUBCHEM_CONFORMER_DIVERSEORDER>
1
46
130
110
120
62
112
71
36
48
47
76
101
151
100
4
86
138
146
82
95
55
3
142
26
159
158
107
52
85
33
79
58
34
157
121
50
141
106
57
135
29
22
11
40
160
16
119
155
75
97
150
154
44
118
127
92
117
32
122
20
149
81
136
125
153
54
90
116
108
148
65
39
78
69
105
67
104
53
111
93
49
2
94
87
89
70
51
72
61
145
129
37
134
35
131
137
115
17
91
99
19
84
147
144
56
143
13
128
156
109
132
74
12
23
133
24
98
102
68
42
152
83
41
28
96
43
38
15
103
21
60
88
45
31
59
10
126
8
64
139
18
124
5
66
14
7
114
113
77
25
30
73
63
6
140
27
123
80
9

> <PUBCHEM_MMFF94_PARTIAL_CHARGES>
37
1 -0.34
10 -0.62
12 0.14
13 0.27
16 0.27
17 0.27
18 0.3
19 0.17
2 -0.34
20 -0.15
21 0.31
22 0.69
23 0.48
25 0.14
26 0.3
27 0.3
28 0.28
29 0.28
3 -0.34
30 -0.15
31 -0.15
32 -0.15
33 -0.15
34 -0.14
35 1.16
4 -0.57
49 0.37
5 -0.56
50 0.15
6 -0.81
62 0.15
63 0.15
64 0.15
65 0.15
7 -0.73
8 -0.62
9 -0.66

> <PUBCHEM_EFFECTIVE_ROTOR_COUNT>
9.4

> <PUBCHEM_PHARMACOPHORE_FEATURES>
10
1 4 acceptor
1 5 acceptor
1 6 cation
1 7 donor
1 8 acceptor
3 8 10 23 cation
6 24 30 31 32 33 34 rings
6 5 9 26 27 28 29 rings
6 8 10 19 20 21 23 rings
8 6 11 12 13 14 15 16 17 rings

> <PUBCHEM_HEAVY_ATOM_COUNT>
35

> <PUBCHEM_ATOM_DEF_STEREO_COUNT>
3

> <PUBCHEM_ATOM_UDEF_STEREO_COUNT>
0

> <PUBCHEM_BOND_DEF_STEREO_COUNT>
0

> <PUBCHEM_BOND_UDEF_STEREO_COUNT>
0

> <PUBCHEM_ISOTOPIC_ATOM_COUNT>
0

> <PUBCHEM_COMPONENT_COUNT>
1

> <PUBCHEM_CACTVS_TAUTO_COUNT>
2

> <PUBCHEM_CONFORMER_ID>
026E35C500000001

> <PUBCHEM_MMFF94_ENERGY>
88.5704

> <PUBCHEM_FEATURE_SELFOVERLAP>
50.747

> <PUBCHEM_SHAPE_FINGERPRINT>
10049733 73 17843116168029836063
10190206 1 18040442074953648506
11211813 15 12901547953459008615
117089 54 18337677516046795235
11973864 196 16082233955286297382
12013929 27 18270971125095182638
12107183 9 14045733863515142185
12124843 1 17023169523479888971
12539745 222 17632584816551758873
13103583 49 15195276568969208149
131258 43 18337112370716525525
13165054 146 14346087437980355522
13383661 66 18410862079259003611
1361 4 18338235938804142634
13631057 29 18187077338921364137
13673619 4 17917708006775916992
13690498 29 18341607079803407988
13782708 43 18059286566324739546
13911987 19 16298392318783839400
14040221 275 16700640943029714195
14040221 310 17748831795774300201
14068700 675 18040148530971493637
14767858 380 17167860850640893408
14931854 50 17385998481962173259
14950920 106 14907034137255571525
15350500 185 8683930737869647347
15510800 12 18341896307333036559
15669420 48 18339923827055644180
19246450 95 14620523285704986555
195137 95 9943532898910628399
20505436 4 17683250161699055913
20737093 207 17896585208636286378
208703 8 18408884053234073597
21344244 246 18261397814575247500
21585481 104 15358519858271453967
21585481 151 18271527589616538903
21716022 299 18043259131293202189
25269216 80 18411424986304495068
2747138 104 18341890805421543916
2838139 119 13190328033462936317
393628 179 8142091935750997559
397638 26 10375874082107750871
4330586 98 17024042634148177827
437815 12 18337952398364023899
4461854 278 17489588995827601582
44880168 125 18059000800702483727
5372103 7 12324233975822159143
54039377 194 18341615931714765118
54728670 133 14404350447323891530
57527295 17 18190462658826394736
58083652 198 15122926436472029280
6009941 240 17273982341447093785
6058803 2 16881860133694241673
6201320 77 17274551935688047951
636775 8 18412549799611044246
999808 66 17775565325327336951

> <PUBCHEM_SHAPE_MULTIPOLES>
661.82
24.49
3.94
2.4
8.36
2.43
1.67
-31.92
-12.24
-7.14
-0.41
1.58
-0.49
2.64

> <PUBCHEM_SHAPE_SELFOVERLAP>
1427.642

> <PUBCHEM_SHAPE_VOLUME>
363.6

> <PUBCHEM_COORDINATE_TYPE>
2
5
10

$$$$
