7144128
  -OEChem-12032416113D

 54 58  0     1  0  0  0  0  0999 V2000
   -2.3613    5.9496   -1.0406 Cl  0  0  0  0  0  0  0  0  0  0  0  0
   -2.1723   -3.4531    2.5042 O   0  0  0  0  0  0  0  0  0  0  0  0
    2.0210   -2.9414   -0.6422 O   0  0  0  0  0  0  0  0  0  0  0  0
    3.2656   -0.9517    0.2972 O   0  0  0  0  0  0  0  0  0  0  0  0
    0.2308   -1.7507   -1.5224 N   0  0  0  0  0  0  0  0  0  0  0  0
   -2.0984   -2.0580    0.6242 N   0  0  0  0  0  0  0  0  0  0  0  0
   -1.9046   -3.0128   -1.7470 C   0  0  1  0  0  0  0  0  0  0  0  0
   -1.9628   -0.5795   -1.4049 C   0  0  2  0  0  0  0  0  0  0  0  0
   -2.6139   -1.7342   -2.1643 C   0  0  0  0  0  0  0  0  0  0  0  0
   -0.4063   -2.9414   -2.0848 C   0  0  0  0  0  0  0  0  0  0  0  0
   -2.1438   -3.2358   -0.2533 C   0  0  0  0  0  0  0  0  0  0  0  0
   -0.4711   -0.4886   -1.7896 C   0  0  0  0  0  0  0  0  0  0  0  0
   -2.1095   -0.7460    0.1102 C   0  0  0  0  0  0  0  0  0  0  0  0
   -2.2199    0.3111    0.9565 C   0  0  0  0  0  0  0  0  0  0  0  0
   -2.1647   -2.3286    2.0026 C   0  0  0  0  0  0  0  0  0  0  0  0
    1.4497   -1.8687   -0.8551 C   0  0  0  0  0  0  0  0  0  0  0  0
   -2.2869    0.0706    2.3854 C   0  0  0  0  0  0  0  0  0  0  0  0
   -2.2483   -1.1568    2.9033 C   0  0  0  0  0  0  0  0  0  0  0  0
   -2.2547    1.7051    0.4622 C   0  0  0  0  0  0  0  0  0  0  0  0
    2.0798   -0.5887   -0.3672 C   0  0  0  0  0  0  0  0  0  0  0  0
   -1.0661    2.4093    0.2969 C   0  0  0  0  0  0  0  0  0  0  0  0
   -3.4761    2.3029    0.1667 C   0  0  0  0  0  0  0  0  0  0  0  0
   -1.0990    3.7239   -0.1684 C   0  0  0  0  0  0  0  0  0  0  0  0
   -3.5091    3.6175   -0.2987 C   0  0  0  0  0  0  0  0  0  0  0  0
   -2.3206    4.3279   -0.4662 C   0  0  0  0  0  0  0  0  0  0  0  0
    4.2847   -0.0258    0.3236 C   0  0  0  0  0  0  0  0  0  0  0  0
    3.9774    1.3265    0.3061 C   0  0  0  0  0  0  0  0  0  0  0  0
    5.6006   -0.4619    0.3664 C   0  0  0  0  0  0  0  0  0  0  0  0
    5.0097    2.2643    0.3319 C   0  0  0  0  0  0  0  0  0  0  0  0
    6.6328    0.4759    0.3923 C   0  0  0  0  0  0  0  0  0  0  0  0
    6.3373    1.8390    0.3749 C   0  0  0  0  0  0  0  0  0  0  0  0
   -2.3269   -3.8639   -2.2956 H   0  0  0  0  0  0  0  0  0  0  0  0
   -2.4586    0.3376   -1.7420 H   0  0  0  0  0  0  0  0  0  0  0  0
   -3.6861   -1.7926   -1.9387 H   0  0  0  0  0  0  0  0  0  0  0  0
   -2.5216   -1.5815   -3.2466 H   0  0  0  0  0  0  0  0  0  0  0  0
    0.1019   -3.8505   -1.7463 H   0  0  0  0  0  0  0  0  0  0  0  0
   -0.2723   -2.8866   -3.1723 H   0  0  0  0  0  0  0  0  0  0  0  0
   -3.1485   -3.6608   -0.1212 H   0  0  0  0  0  0  0  0  0  0  0  0
   -1.4474   -3.9897    0.1356 H   0  0  0  0  0  0  0  0  0  0  0  0
   -0.3767   -0.3008   -2.8666 H   0  0  0  0  0  0  0  0  0  0  0  0
    0.0090    0.3509   -1.2886 H   0  0  0  0  0  0  0  0  0  0  0  0
   -2.3582    0.9281    3.0483 H   0  0  0  0  0  0  0  0  0  0  0  0
   -2.2932   -1.3268    3.9724 H   0  0  0  0  0  0  0  0  0  0  0  0
    1.4044   -0.1009    0.3425 H   0  0  0  0  0  0  0  0  0  0  0  0
    2.2722    0.0398   -1.2452 H   0  0  0  0  0  0  0  0  0  0  0  0
   -0.1067    1.9576    0.5350 H   0  0  0  0  0  0  0  0  0  0  0  0
   -4.4102    1.7610    0.2919 H   0  0  0  0  0  0  0  0  0  0  0  0
   -0.1650    4.2660   -0.2919 H   0  0  0  0  0  0  0  0  0  0  0  0
   -4.4682    4.0752   -0.5271 H   0  0  0  0  0  0  0  0  0  0  0  0
    2.9565    1.6956    0.2974 H   0  0  0  0  0  0  0  0  0  0  0  0
    5.8335   -1.5226    0.3796 H   0  0  0  0  0  0  0  0  0  0  0  0
    4.7799    3.3258    0.3242 H   0  0  0  0  0  0  0  0  0  0  0  0
    7.6666    0.1448    0.4261 H   0  0  0  0  0  0  0  0  0  0  0  0
    7.1410    2.5692    0.3965 H   0  0  0  0  0  0  0  0  0  0  0  0
  1 25  1  0  0  0  0
  2 15  2  0  0  0  0
  3 16  2  0  0  0  0
  4 20  1  0  0  0  0
  4 26  1  0  0  0  0
  5 10  1  0  0  0  0
  5 12  1  0  0  0  0
  5 16  1  0  0  0  0
  6 11  1  0  0  0  0
  6 13  1  0  0  0  0
  6 15  1  0  0  0  0
  7  9  1  0  0  0  0
  7 10  1  0  0  0  0
  7 11  1  0  0  0  0
  7 32  1  0  0  0  0
  8  9  1  0  0  0  0
  8 12  1  0  0  0  0
  8 13  1  0  0  0  0
  8 33  1  0  0  0  0
  9 34  1  0  0  0  0
  9 35  1  0  0  0  0
 10 36  1  0  0  0  0
 10 37  1  0  0  0  0
 11 38  1  0  0  0  0
 11 39  1  0  0  0  0
 12 40  1  0  0  0  0
 12 41  1  0  0  0  0
 13 14  2  0  0  0  0
 14 17  1  0  0  0  0
 14 19  1  0  0  0  0
 15 18  1  0  0  0  0
 16 20  1  0  0  0  0
 17 18  2  0  0  0  0
 17 42  1  0  0  0  0
 18 43  1  0  0  0  0
 19 21  2  0  0  0  0
 19 22  1  0  0  0  0
 20 44  1  0  0  0  0
 20 45  1  0  0  0  0
 21 23  1  0  0  0  0
 21 46  1  0  0  0  0
 22 24  2  0  0  0  0
 22 47  1  0  0  0  0
 23 25  2  0  0  0  0
 23 48  1  0  0  0  0
 24 25  1  0  0  0  0
 24 49  1  0  0  0  0
 26 27  2  0  0  0  0
 26 28  1  0  0  0  0
 27 29  1  0  0  0  0
 27 50  1  0  0  0  0
 28 30  2  0  0  0  0
 28 51  1  0  0  0  0
 29 31  2  0  0  0  0
 29 52  1  0  0  0  0
 30 31  1  0  0  0  0
 30 53  1  0  0  0  0
 31 54  1  0  0  0  0
M  END
> <PUBCHEM_COMPOUND_CID>
7144128

> <PUBCHEM_CONFORMER_RMSD>
0.8

> <PUBCHEM_CONFORMER_DIVERSEORDER>
1
13
12
4
15
16
2
20
10
9
19
22
11
5
17
3
18
26
7
8
24
6
23
21
25
14

> <PUBCHEM_MMFF94_PARTIAL_CHARGES>
40
1 -0.18
10 0.3
11 0.3
12 0.3
13 -0.03
14 -0.03
15 0.62
16 0.57
17 -0.15
18 -0.14
19 0.03
2 -0.57
20 0.34
21 -0.15
22 -0.15
23 -0.15
24 -0.15
25 0.18
26 0.08
27 -0.15
28 -0.15
29 -0.15
3 -0.57
30 -0.15
31 -0.15
4 -0.36
42 0.15
43 0.15
46 0.15
47 0.15
48 0.15
49 0.15
5 -0.66
50 0.15
51 0.15
52 0.15
53 0.15
54 0.15
6 -0.47
8 0.14

> <PUBCHEM_EFFECTIVE_ROTOR_COUNT>
6

> <PUBCHEM_PHARMACOPHORE_FEATURES>
8
1 2 acceptor
1 3 acceptor
1 4 acceptor
6 19 21 22 23 24 25 rings
6 26 27 28 29 30 31 rings
6 5 7 8 9 10 12 rings
6 6 13 14 15 17 18 rings
6 6 7 8 9 11 13 rings

> <PUBCHEM_HEAVY_ATOM_COUNT>
31

> <PUBCHEM_ATOM_DEF_STEREO_COUNT>
2

> <PUBCHEM_ATOM_UDEF_STEREO_COUNT>
0

> <PUBCHEM_BOND_DEF_STEREO_COUNT>
0

> <PUBCHEM_BOND_UDEF_STEREO_COUNT>
0

> <PUBCHEM_ISOTOPIC_ATOM_COUNT>
0

> <PUBCHEM_COMPONENT_COUNT>
1

> <PUBCHEM_CACTVS_TAUTO_COUNT>
1

> <PUBCHEM_CONFORMER_ID>
006D02C000000001

> <PUBCHEM_MMFF94_ENERGY>
93.9075

> <PUBCHEM_FEATURE_SELFOVERLAP>
42.18

> <PUBCHEM_SHAPE_FINGERPRINT>
10483366 6 18127951162116442157
10653451 467 18410019836636553273
10670039 82 18199755907356427732
10675989 125 17403735554513318080
107951 10 18189335675875812137
10871710 139 18271237339182210164
11370993 144 18113899304592261234
11552529 35 17895477050415864570
11582403 64 17686620148163831975
12156800 1 17123613170213603143
12788726 201 18264467581792090649
1361 2 18126838305530093221
13627167 48 18052550052166874708
13761468 95 17773620294339245576
14142880 1 17917441959680605035
14468879 13 18267868285183499665
14950920 106 17894628184705228666
15264996 74 18058990870347757372
15513586 35 18123479534015236856
16067690 210 18044911662730338224
16993438 75 18411412891582163504
17974551 9 17245006838658817370
18681886 176 16613344951017633415
20101258 96 18266741479049366808
21304303 64 18271239530438730391
21475661 188 17689714160361201213
21927370 108 17836369615941431590
23419403 2 17248078157182767883
238 59 17409932431868433199
376196 1 17905607696813362085
460360 51 18272097085004972774
469060 322 18126571360237593890
50677037 204 17620756519959410184
508706 21 18413672405330555572
5109719 28 17832713366143776321
5895379 119 14014496235954485485
6036956 94 18262798587540445244
7288768 16 18116711820343117677
9981440 41 18341327773636845195

> <PUBCHEM_SHAPE_MULTIPOLES>
612.27
10.2
6.4
2.17
27.14
7.33
0.9
6.51
2.29
-7.94
-2.05
-2.56
-2.29
1.47

> <PUBCHEM_SHAPE_SELFOVERLAP>
1337.451

> <PUBCHEM_SHAPE_VOLUME>
329.7

> <PUBCHEM_COORDINATE_TYPE>
2
5
10

$$$$
