28963083
  -OEChem-12032416293D

 69 72  0     1  0  0  0  0  0999 V2000
    1.2933    1.4059   -1.0364 O   0  0  0  0  0  0  0  0  0  0  0  0
    5.4664   -1.7399   -0.7030 O   0  0  0  0  0  0  0  0  0  0  0  0
   -4.7532    0.6048    2.1153 O   0  0  0  0  0  0  0  0  0  0  0  0
    7.3739    2.5001    0.9836 O   0  0  0  0  0  0  0  0  0  0  0  0
   -3.8075   -0.0245    0.0941 N   0  0  0  0  0  0  0  0  0  0  0  0
    5.6788    0.4077    0.1534 N   0  0  0  0  0  0  0  0  0  0  0  0
   -6.1812    0.3154   -1.0876 N   0  0  0  0  0  0  0  0  0  0  0  0
    0.0642   -1.8620    0.5081 C   0  0  1  0  0  0  0  0  0  0  0  0
    0.0348   -0.3555    0.0855 C   0  0  2  0  0  0  0  0  0  0  0  0
   -1.3841    0.0456   -0.4564 C   0  0  1  0  0  0  0  0  0  0  0  0
    1.2296   -0.0086   -0.8487 C   0  0  2  0  0  0  0  0  0  0  0  0
    1.4364   -2.1939    1.1405 C   0  0  0  0  0  0  0  0  0  0  0  0
    2.5920   -0.4376   -0.2559 C   0  0  1  0  0  0  0  0  0  0  0  0
   -1.0204   -2.1055    1.5829 C   0  0  0  0  0  0  0  0  0  0  0  0
   -2.4754   -0.2734    0.6040 C   0  0  2  0  0  0  0  0  0  0  0  0
    2.6065   -1.8923    0.2134 C   0  0  0  0  0  0  0  0  0  0  0  0
   -2.4164   -1.7097    1.1235 C   0  0  0  0  0  0  0  0  0  0  0  0
   -0.1778   -2.8189   -0.6867 C   0  0  0  0  0  0  0  0  0  0  0  0
    3.7410   -0.2070   -1.2452 C   0  0  2  0  0  0  0  0  0  0  0  0
   -1.4922    1.5246   -0.8641 C   0  0  0  0  0  0  0  0  0  0  0  0
    3.5462   -1.0221   -2.5107 C   0  0  0  0  0  0  0  0  0  0  0  0
    5.0370   -0.5905   -0.5765 C   0  0  0  0  0  0  0  0  0  0  0  0
   -4.8443    0.3991    0.9078 C   0  0  0  0  0  0  0  0  0  0  0  0
    6.9438    0.1217    0.8298 C   0  0  0  0  0  0  0  0  0  0  0  0
    5.1367    1.7424    0.4292 C   0  0  0  0  0  0  0  0  0  0  0  0
   -6.1569    0.5841    0.2370 C   0  0  0  0  0  0  0  0  0  0  0  0
    7.9400    1.2473    0.5897 C   0  0  0  0  0  0  0  0  0  0  0  0
    6.2090    2.8026    0.2111 C   0  0  0  0  0  0  0  0  0  0  0  0
   -7.2588    1.0058    0.9635 C   0  0  0  0  0  0  0  0  0  0  0  0
   -8.4634    1.1614    0.2868 C   0  0  0  0  0  0  0  0  0  0  0  0
   -7.3695    0.4781   -1.7115 C   0  0  0  0  0  0  0  0  0  0  0  0
   -8.5283    0.8945   -1.0763 C   0  0  0  0  0  0  0  0  0  0  0  0
    0.1793    0.2452    0.9980 H   0  0  0  0  0  0  0  0  0  0  0  0
   -1.5953   -0.5369   -1.3622 H   0  0  0  0  0  0  0  0  0  0  0  0
    1.0399   -0.4575   -1.8259 H   0  0  0  0  0  0  0  0  0  0  0  0
    1.4739   -3.2509    1.4341 H   0  0  0  0  0  0  0  0  0  0  0  0
    1.5659   -1.6154    2.0653 H   0  0  0  0  0  0  0  0  0  0  0  0
    2.7761    0.1877    0.6293 H   0  0  0  0  0  0  0  0  0  0  0  0
   -0.7783   -1.5318    2.4877 H   0  0  0  0  0  0  0  0  0  0  0  0
   -1.0284   -3.1612    1.8826 H   0  0  0  0  0  0  0  0  0  0  0  0
   -2.3171    0.3963    1.4607 H   0  0  0  0  0  0  0  0  0  0  0  0
    3.5152   -2.1086    0.7863 H   0  0  0  0  0  0  0  0  0  0  0  0
    2.5831   -2.6076   -0.6110 H   0  0  0  0  0  0  0  0  0  0  0  0
   -2.7709   -2.4054    0.3530 H   0  0  0  0  0  0  0  0  0  0  0  0
   -3.1118   -1.8295    1.9644 H   0  0  0  0  0  0  0  0  0  0  0  0
   -1.1658   -2.6943   -1.1371 H   0  0  0  0  0  0  0  0  0  0  0  0
   -0.1045   -3.8641   -0.3638 H   0  0  0  0  0  0  0  0  0  0  0  0
    0.5491   -2.6762   -1.4911 H   0  0  0  0  0  0  0  0  0  0  0  0
    3.7773    0.8299   -1.5855 H   0  0  0  0  0  0  0  0  0  0  0  0
   -1.1363    2.1841   -0.0659 H   0  0  0  0  0  0  0  0  0  0  0  0
   -2.5233    1.8112   -1.0952 H   0  0  0  0  0  0  0  0  0  0  0  0
   -0.9231    1.7253   -1.7762 H   0  0  0  0  0  0  0  0  0  0  0  0
   -3.9947   -0.2242   -0.8846 H   0  0  0  0  0  0  0  0  0  0  0  0
    1.4190    1.8209   -0.1660 H   0  0  0  0  0  0  0  0  0  0  0  0
    3.4842   -2.1019   -2.3561 H   0  0  0  0  0  0  0  0  0  0  0  0
    4.4079   -0.8717   -3.1746 H   0  0  0  0  0  0  0  0  0  0  0  0
    2.6722   -0.7049   -3.0854 H   0  0  0  0  0  0  0  0  0  0  0  0
    7.3606   -0.8343    0.4992 H   0  0  0  0  0  0  0  0  0  0  0  0
    6.7135    0.0411    1.8986 H   0  0  0  0  0  0  0  0  0  0  0  0
    4.8440    1.7314    1.4865 H   0  0  0  0  0  0  0  0  0  0  0  0
    4.2472    1.9960   -0.1431 H   0  0  0  0  0  0  0  0  0  0  0  0
    8.8434    1.0838    1.1854 H   0  0  0  0  0  0  0  0  0  0  0  0
    8.2374    1.3005   -0.4644 H   0  0  0  0  0  0  0  0  0  0  0  0
    6.4858    2.8784   -0.8471 H   0  0  0  0  0  0  0  0  0  0  0  0
    5.8398    3.7816    0.5321 H   0  0  0  0  0  0  0  0  0  0  0  0
   -7.2092    1.2144    2.0267 H   0  0  0  0  0  0  0  0  0  0  0  0
   -9.3502    1.4901    0.8204 H   0  0  0  0  0  0  0  0  0  0  0  0
   -7.3670    0.2572   -2.7738 H   0  0  0  0  0  0  0  0  0  0  0  0
   -9.4566    1.0090   -1.6241 H   0  0  0  0  0  0  0  0  0  0  0  0
  1 11  1  0  0  0  0
  1 54  1  0  0  0  0
  2 22  2  0  0  0  0
  3 23  2  0  0  0  0
  4 27  1  0  0  0  0
  4 28  1  0  0  0  0
  5 15  1  0  0  0  0
  5 23  1  0  0  0  0
  5 53  1  0  0  0  0
  6 22  1  0  0  0  0
  6 24  1  0  0  0  0
  6 25  1  0  0  0  0
  7 26  1  0  0  0  0
  7 31  2  0  0  0  0
  8  9  1  0  0  0  0
  8 12  1  0  0  0  0
  8 14  1  0  0  0  0
  8 18  1  0  0  0  0
  9 10  1  0  0  0  0
  9 11  1  0  0  0  0
  9 33  1  0  0  0  0
 10 15  1  0  0  0  0
 10 20  1  0  0  0  0
 10 34  1  0  0  0  0
 11 13  1  0  0  0  0
 11 35  1  0  0  0  0
 12 16  1  0  0  0  0
 12 36  1  0  0  0  0
 12 37  1  0  0  0  0
 13 16  1  0  0  0  0
 13 19  1  0  0  0  0
 13 38  1  0  0  0  0
 14 17  1  0  0  0  0
 14 39  1  0  0  0  0
 14 40  1  0  0  0  0
 15 17  1  0  0  0  0
 15 41  1  0  0  0  0
 16 42  1  0  0  0  0
 16 43  1  0  0  0  0
 17 44  1  0  0  0  0
 17 45  1  0  0  0  0
 18 46  1  0  0  0  0
 18 47  1  0  0  0  0
 18 48  1  0  0  0  0
 19 21  1  0  0  0  0
 19 22  1  0  0  0  0
 19 49  1  0  0  0  0
 20 50  1  0  0  0  0
 20 51  1  0  0  0  0
 20 52  1  0  0  0  0
 21 55  1  0  0  0  0
 21 56  1  0  0  0  0
 21 57  1  0  0  0  0
 23 26  1  0  0  0  0
 24 27  1  0  0  0  0
 24 58  1  0  0  0  0
 24 59  1  0  0  0  0
 25 28  1  0  0  0  0
 25 60  1  0  0  0  0
 25 61  1  0  0  0  0
 26 29  2  0  0  0  0
 27 62  1  0  0  0  0
 27 63  1  0  0  0  0
 28 64  1  0  0  0  0
 28 65  1  0  0  0  0
 29 30  1  0  0  0  0
 29 66  1  0  0  0  0
 30 32  2  0  0  0  0
 30 67  1  0  0  0  0
 31 32  1  0  0  0  0
 31 68  1  0  0  0  0
 32 69  1  0  0  0  0
M  END
> <PUBCHEM_COMPOUND_CID>
28963083

> <PUBCHEM_CONFORMER_RMSD>
1

> <PUBCHEM_CONFORMER_DIVERSEORDER>
1
21
48
46
33
29
28
11
34
56
51
16
26
42
3
60
31
52
45
44
61
57
15
20
59
47
27
19
24
55
4
50
32
39
30
49
53
37
54
8
58
18
40
41
35
25
2
13
43
38
17
10
23
9
12
6
14
36
5
22
7

> <PUBCHEM_MMFF94_PARTIAL_CHARGES>
27
1 -0.68
11 0.28
15 0.3
19 0.06
2 -0.57
22 0.57
23 0.54
24 0.3
25 0.3
26 0.4
27 0.28
28 0.28
29 -0.15
3 -0.57
30 -0.15
31 0.16
32 -0.15
4 -0.56
5 -0.73
53 0.37
54 0.4
6 -0.66
66 0.15
67 0.15
68 0.15
69 0.15
7 -0.62

> <PUBCHEM_EFFECTIVE_ROTOR_COUNT>
8.8

> <PUBCHEM_PHARMACOPHORE_FEATURES>
12
1 1 acceptor
1 1 donor
1 2 acceptor
1 21 hydrophobe
1 3 acceptor
1 4 acceptor
1 5 donor
1 7 acceptor
6 4 6 24 25 27 28 rings
6 7 26 29 30 31 32 rings
6 8 9 10 14 15 17 rings
6 8 9 11 12 13 16 rings

> <PUBCHEM_HEAVY_ATOM_COUNT>
32

> <PUBCHEM_ATOM_DEF_STEREO_COUNT>
7

> <PUBCHEM_ATOM_UDEF_STEREO_COUNT>
0

> <PUBCHEM_BOND_DEF_STEREO_COUNT>
0

> <PUBCHEM_BOND_UDEF_STEREO_COUNT>
0

> <PUBCHEM_ISOTOPIC_ATOM_COUNT>
0

> <PUBCHEM_COMPONENT_COUNT>
1

> <PUBCHEM_CACTVS_TAUTO_COUNT>
2

> <PUBCHEM_CONFORMER_ID>
01B9F10B00000001

> <PUBCHEM_MMFF94_ENERGY>
95.6841

> <PUBCHEM_FEATURE_SELFOVERLAP>
60.912

> <PUBCHEM_SHAPE_FINGERPRINT>
10 15 17603587447963736284
10006869 2 18260819363809794394
11315181 36 17704071794889657745
11719270 70 17313388894036874115
12373685 5 18060129938624628094
12592606 108 8934991573936504049
12838862 33 18113606894301461845
12925494 130 18125719234863825144
13383668 254 18059028246028516817
13782708 43 14189286012218645853
13811026 1 18335986445054975587
14040221 8 15913051972583050337
15238133 3 17386015004701288998
15840311 113 18411421691689857238
16994733 274 17704072867692661097
19301679 30 14635410656244824880
20157964 124 18130792244122304870
20554085 129 18336255799697196570
21033648 29 17530687619370949131
21150785 3 16917066659693163049
21403212 168 18259980479160406552
21521721 280 18413389826067195283
21585482 111 18193276519805308992
21792934 111 17676481705429760216
21859007 373 17603855693993114493
22224240 67 18333168366957129443
23522609 53 16916245264705110699
23576562 1 13613935835294792473
24771293 8 18411140238151715741
335352 9 18041288694290646462
34797466 226 17917999338733947799
397638 26 17385444332348943905
4093350 32 17918278632009670988
4258327 124 17489027174906895204
4340502 62 17748828501175389218
439807 62 9511466628528619400
44880568 143 17488475078900710177
484989 97 13613944669868070197
5104073 3 16661785447254092322
5470011 282 13038907746378499976

> <PUBCHEM_SHAPE_MULTIPOLES>
620.12
24.39
2.46
1.57
18.67
0.39
-0.37
-18.09
0.87
-3.36
0.49
0.59
0.23
1.69

> <PUBCHEM_SHAPE_SELFOVERLAP>
1304.172

> <PUBCHEM_SHAPE_VOLUME>
343.5

> <PUBCHEM_COORDINATE_TYPE>
2
5
10

$$$$
