51137233
  -OEChem-12032416343D

 45 48  0     1  0  0  0  0  0999 V2000
    7.7560    3.4117   -0.1592 Cl  0  0  0  0  0  0  0  0  0  0  0  0
    2.5959   -0.7762    0.1668 O   0  0  0  0  0  0  0  0  0  0  0  0
   -7.8488    1.9239    1.0421 O   0  0  0  0  0  0  0  0  0  0  0  0
   -8.5392   -0.0073    0.0620 O   0  0  0  0  0  0  0  0  0  0  0  0
   -1.4353   -0.8559   -0.2803 N   0  0  1  0  0  0  0  0  0  0  0  0
    2.8683   -2.9964    0.1392 N   0  0  0  0  0  0  0  0  0  0  0  0
    4.1183   -2.4117    0.0582 N   0  0  0  0  0  0  0  0  0  0  0  0
    0.5033   -2.0406    0.3010 C   0  0  1  0  0  0  0  0  0  0  0  0
   -0.0779   -1.3589    1.5520 C   0  0  0  0  0  0  0  0  0  0  0  0
   -0.1915   -1.3461   -0.8780 C   0  0  0  0  0  0  0  0  0  0  0  0
   -1.0394   -0.3060    1.0163 C   0  0  0  0  0  0  0  0  0  0  0  0
   -2.1041    0.1281   -1.1186 C   0  0  0  0  0  0  0  0  0  0  0  0
    2.0108   -2.0047    0.2007 C   0  0  0  0  0  0  0  0  0  0  0  0
   -3.5506    0.2991   -0.7372 C   0  0  0  0  0  0  0  0  0  0  0  0
   -4.4882   -0.6639   -1.1103 C   0  0  0  0  0  0  0  0  0  0  0  0
   -3.9530    1.4202   -0.0113 C   0  0  0  0  0  0  0  0  0  0  0  0
    3.9109   -1.1157    0.0774 C   0  0  0  0  0  0  0  0  0  0  0  0
   -5.8283   -0.5058   -0.7572 C   0  0  0  0  0  0  0  0  0  0  0  0
   -5.2932    1.5782    0.3416 C   0  0  0  0  0  0  0  0  0  0  0  0
    4.8385   -0.0234    0.0204 C   0  0  0  0  0  0  0  0  0  0  0  0
   -6.2309    0.6151   -0.0312 C   0  0  0  0  0  0  0  0  0  0  0  0
    6.2074   -0.2752   -0.0716 C   0  0  0  0  0  0  0  0  0  0  0  0
    4.3719    1.2906    0.0565 C   0  0  0  0  0  0  0  0  0  0  0  0
   -7.6279    0.7799    0.3379 C   0  0  0  0  0  0  0  0  0  0  0  0
    7.1097    0.7870   -0.1272 C   0  0  0  0  0  0  0  0  0  0  0  0
    5.2741    2.3528    0.0010 C   0  0  0  0  0  0  0  0  0  0  0  0
    6.6430    2.1011   -0.0909 C   0  0  0  0  0  0  0  0  0  0  0  0
    0.2003   -3.0967    0.3208 H   0  0  0  0  0  0  0  0  0  0  0  0
   -0.6262   -2.1002    2.1468 H   0  0  0  0  0  0  0  0  0  0  0  0
    0.6837   -0.9118    2.1995 H   0  0  0  0  0  0  0  0  0  0  0  0
    0.4136   -0.5203   -1.2750 H   0  0  0  0  0  0  0  0  0  0  0  0
   -0.3851   -2.0507   -1.6942 H   0  0  0  0  0  0  0  0  0  0  0  0
   -1.8882   -0.1694    1.6936 H   0  0  0  0  0  0  0  0  0  0  0  0
   -0.5144    0.6524    0.9126 H   0  0  0  0  0  0  0  0  0  0  0  0
   -1.5811    1.0942   -1.1201 H   0  0  0  0  0  0  0  0  0  0  0  0
   -2.0912   -0.2053   -2.1660 H   0  0  0  0  0  0  0  0  0  0  0  0
   -4.1869   -1.5417   -1.6760 H   0  0  0  0  0  0  0  0  0  0  0  0
   -3.2318    2.1766    0.2866 H   0  0  0  0  0  0  0  0  0  0  0  0
   -6.5433   -1.2674   -1.0572 H   0  0  0  0  0  0  0  0  0  0  0  0
   -5.5628    2.4656    0.9073 H   0  0  0  0  0  0  0  0  0  0  0  0
    6.5935   -1.2913   -0.1012 H   0  0  0  0  0  0  0  0  0  0  0  0
    3.3131    1.5265    0.1276 H   0  0  0  0  0  0  0  0  0  0  0  0
    8.1736    0.5761   -0.1985 H   0  0  0  0  0  0  0  0  0  0  0  0
    4.8966    3.3718    0.0301 H   0  0  0  0  0  0  0  0  0  0  0  0
   -8.7936    2.0254    1.2861 H   0  0  0  0  0  0  0  0  0  0  0  0
  1 27  1  0  0  0  0
  2 13  1  0  0  0  0
  2 17  1  0  0  0  0
  3 24  1  0  0  0  0
  3 45  1  0  0  0  0
  4 24  2  0  0  0  0
  5 10  1  0  0  0  0
  5 11  1  0  0  0  0
  5 12  1  0  0  0  0
  6  7  1  0  0  0  0
  6 13  2  0  0  0  0
  7 17  2  0  0  0  0
  8  9  1  0  0  0  0
  8 10  1  0  0  0  0
  8 13  1  0  0  0  0
  8 28  1  0  0  0  0
  9 11  1  0  0  0  0
  9 29  1  0  0  0  0
  9 30  1  0  0  0  0
 10 31  1  0  0  0  0
 10 32  1  0  0  0  0
 11 33  1  0  0  0  0
 11 34  1  0  0  0  0
 12 14  1  0  0  0  0
 12 35  1  0  0  0  0
 12 36  1  0  0  0  0
 14 15  2  0  0  0  0
 14 16  1  0  0  0  0
 15 18  1  0  0  0  0
 15 37  1  0  0  0  0
 16 19  2  0  0  0  0
 16 38  1  0  0  0  0
 17 20  1  0  0  0  0
 18 21  2  0  0  0  0
 18 39  1  0  0  0  0
 19 21  1  0  0  0  0
 19 40  1  0  0  0  0
 20 22  2  0  0  0  0
 20 23  1  0  0  0  0
 21 24  1  0  0  0  0
 22 25  1  0  0  0  0
 22 41  1  0  0  0  0
 23 26  2  0  0  0  0
 23 42  1  0  0  0  0
 25 27  2  0  0  0  0
 25 43  1  0  0  0  0
 26 27  1  0  0  0  0
 26 44  1  0  0  0  0
M  END
> <PUBCHEM_COMPOUND_CID>
51137233

> <PUBCHEM_CONFORMER_RMSD>
0.8

> <PUBCHEM_CONFORMER_DIVERSEORDER>
1
49
13
33
67
8
58
46
55
42
48
71
9
68
17
32
38
15
34
6
72
43
56
53
79
76
47
30
23
4
73
27
59
41
66
26
64
78
63
12
21
28
18
37
70
61
5
36
24
51
16
81
2
65
7
14
80
10
19
75
77
44
35
74
54
31
25
50
62
3
39
22
40
45
69
20
52
29
11
57
60

> <PUBCHEM_MMFF94_PARTIAL_CHARGES>
35
1 -0.18
10 0.27
11 0.27
12 0.41
13 0.3
14 -0.14
15 -0.15
16 -0.15
17 0.43
18 -0.15
19 -0.15
2 -0.28
20 0.05
21 0.09
22 -0.15
23 -0.15
24 0.63
25 -0.15
26 -0.15
27 0.18
3 -0.65
37 0.15
38 0.15
39 0.15
4 -0.57
40 0.15
41 0.15
42 0.15
43 0.15
44 0.15
45 0.5
5 -0.81
6 -0.34
7 -0.34
8 0.18

> <PUBCHEM_EFFECTIVE_ROTOR_COUNT>
6

> <PUBCHEM_PHARMACOPHORE_FEATURES>
8
1 3 acceptor
1 4 acceptor
1 5 cation
3 3 4 24 anion
5 2 6 7 13 17 rings
5 5 8 9 10 11 rings
6 14 15 16 18 19 21 rings
6 20 22 23 25 26 27 rings

> <PUBCHEM_HEAVY_ATOM_COUNT>
27

> <PUBCHEM_ATOM_DEF_STEREO_COUNT>
1

> <PUBCHEM_ATOM_UDEF_STEREO_COUNT>
0

> <PUBCHEM_BOND_DEF_STEREO_COUNT>
0

> <PUBCHEM_BOND_UDEF_STEREO_COUNT>
0

> <PUBCHEM_ISOTOPIC_ATOM_COUNT>
0

> <PUBCHEM_COMPONENT_COUNT>
1

> <PUBCHEM_CACTVS_TAUTO_COUNT>
1

> <PUBCHEM_CONFORMER_ID>
030C4AD100000001

> <PUBCHEM_MMFF94_ENERGY>
61.2274

> <PUBCHEM_FEATURE_SELFOVERLAP>
40.655

> <PUBCHEM_SHAPE_FINGERPRINT>
10 15 17676488354018041993
10074138 170 16226337035042614098
10299344 5 18131067117808115007
10319688 67 16298386889660140121
10411042 1 17905606598278407866
10595046 47 18341608196774167679
106641 1 13695874736004647686
10673678 19 18272092703594680182
10838868 160 18342165713673659288
11273773 38 18189621708572992276
11273773 42 18342453793829419316
11315181 36 18413107244223162137
11374522 155 18042128815648308620
11578821 258 18411135793620810749
11646440 116 17458346333842079876
11719270 70 12973886992324571729
1200032 147 18260266391555953784
12035758 1 16805042934392238239
12592606 108 8862942775490392825
12730499 353 18187366485063482962
12788726 201 17275108284266140498
12821665 9 18339920532404135359
13685833 64 10015866483515377550
13690498 29 17416110918592222559
14142895 15 18411417350000244759
14394314 77 18341056229258799193
14461889 52 17530974591800447235
14565420 104 18040995129355466194
14617042 71 18410579491833177533
14681490 219 18413386514737788992
14849402 71 18411702119017086793
14856354 85 17203888570625126127
14919807 6 12894807878767143121
14931854 50 17917161597707144168
14933364 13 18412826867645106695
15183329 4 17060342928596889041
15188451 53 11891328747026875094
15419008 145 18116701929914754016
15475509 8 14045745919842088715
15685185 35 18266180720009664988
15728490 51 18335983164655074631
15840311 113 18410296870078249485
16126227 98 18410855511731137926
16989713 51 16557611110591226567
16994733 274 18411134723598090593
18393751 57 17748825241442794114
18608769 82 18335983172558771995
19302320 297 18114741642538052556
20157964 124 18410293584470855234
2026 5 9295292733760245705
21033648 29 18191297377288699304
21298829 104 18339361967770805972
21304303 64 18334573572534389589
21307412 95 13038906672146195573
21521721 280 18335986393979741299
21585481 104 17274838925941349468
21585482 111 18263362499376500205
21641784 216 16487260924196673137
2215653 11 12175617386804097623
22224240 67 17748545940009601355
23389318 12 18341601647692794999
23522609 53 17774452585986403105
23576562 1 16199283535142517329
24771293 8 18114461248842671845
25269216 80 16844438505056696261
2747138 104 17531259322647028637
2838139 119 18334848412429647470
28498 318 10375874069765998987
306946 40 17241031151538154653
335352 9 18410015426042295206
34797466 226 18202005387112274167
3711267 37 17704078386805180337
397830 11 18114194055144040043
4073 2 18333734649636906811
4325135 7 18413106143741071079
444735 82 18260833661708905021
445580 126 18411409619095950920
445580 167 18412818097907464055
474113 269 7853582287966366161
5080951 261 16443344338883877715
5104073 3 16951960649080100777
5265222 85 17560230457343133975
5372103 7 15983678140041646808
5385378 56 18260822688584051258
54076057 255 17918269844401082273
543368 44 18411134745325679453
5758199 1 18334295370565058931
5911458 16 18130794451356057209
59682541 35 17749394784613821361
59682541 52 17346049900805544190
6328613 192 18272651221695636129
6438161 24 8790884064396782941
9689198 14 18343869922103981493
9980921 177 18262780940642484656

> <PUBCHEM_SHAPE_MULTIPOLES>
524.97
25.03
2.91
0.96
13.47
0.3
-0.06
20.47
-0.43
-5.54
-0.27
0.88
-0.12
-1.15

> <PUBCHEM_SHAPE_SELFOVERLAP>
1138.055

> <PUBCHEM_SHAPE_VOLUME>
289.6

> <PUBCHEM_COORDINATE_TYPE>
2
5
10

$$$$
