40776931
  -OEChem-12032416183D

 64 68  0     1  0  0  0  0  0999 V2000
   -8.0801   -2.0129    1.5665 F   0  0  0  0  0  0  0  0  0  0  0  0
    2.2605   -0.3565    2.0944 O   0  0  0  0  0  0  0  0  0  0  0  0
    0.2693    3.9761    0.4642 N   0  0  2  0  0  0  0  0  0  0  0  0
    3.0371    1.8119    1.8007 N   0  0  0  0  0  0  0  0  0  0  0  0
   -0.6775    0.0140   -1.5918 N   0  0  0  0  0  0  0  0  0  0  0  0
   -2.3943   -1.5816   -1.0312 N   0  0  0  0  0  0  0  0  0  0  0  0
    4.5387    0.0601    1.9303 N   0  0  0  0  0  0  0  0  0  0  0  0
    0.4865    2.6287   -1.7540 C   0  0  2  0  0  0  0  0  0  0  0  0
   -0.9111    2.4014   -1.1143 C   0  0  2  0  0  0  0  0  0  0  0  0
    1.5333    3.1934    0.4666 C   0  0  2  0  0  0  0  0  0  0  0  0
    1.5815    2.2329   -0.7411 C   0  0  0  0  0  0  0  0  0  0  0  0
    0.6225    4.1469   -1.9988 C   0  0  0  0  0  0  0  0  0  0  0  0
   -0.8912    3.0671    0.2914 C   0  0  0  0  0  0  0  0  0  0  0  0
    0.3095    4.9004   -0.6943 C   0  0  0  0  0  0  0  0  0  0  0  0
    1.7612    2.4584    1.7892 C   0  0  0  0  0  0  0  0  0  0  0  0
   -1.4607    0.9827   -1.0736 C   0  0  0  0  0  0  0  0  0  0  0  0
   -2.7052    0.7507   -0.5245 C   0  0  0  0  0  0  0  0  0  0  0  0
   -3.1249   -0.5640   -0.5304 C   0  0  0  0  0  0  0  0  0  0  0  0
   -1.1985   -1.2268   -1.5387 C   0  0  0  0  0  0  0  0  0  0  0  0
    3.1965    0.4296    1.9546 C   0  0  0  0  0  0  0  0  0  0  0  0
   -4.4082   -0.9392    0.0134 C   0  0  0  0  0  0  0  0  0  0  0  0
   -0.3625   -2.3247   -2.1040 C   0  0  0  0  0  0  0  0  0  0  0  0
    4.9850   -1.3070    2.0680 C   0  0  0  0  0  0  0  0  0  0  0  0
   -4.6987   -0.6883    1.3545 C   0  0  0  0  0  0  0  0  0  0  0  0
   -5.3583   -1.5528   -0.8029 C   0  0  0  0  0  0  0  0  0  0  0  0
   -5.9390   -1.0511    1.8792 C   0  0  0  0  0  0  0  0  0  0  0  0
   -6.5987   -1.9157   -0.2783 C   0  0  0  0  0  0  0  0  0  0  0  0
    5.0890   -2.0005    0.7404 C   0  0  0  0  0  0  0  0  0  0  0  0
   -6.8890   -1.6649    1.0627 C   0  0  0  0  0  0  0  0  0  0  0  0
    3.9903   -2.6873    0.2238 C   0  0  0  0  0  0  0  0  0  0  0  0
    6.2847   -1.9580    0.0236 C   0  0  0  0  0  0  0  0  0  0  0  0
    4.0873   -3.3316   -1.0095 C   0  0  0  0  0  0  0  0  0  0  0  0
    6.3818   -2.6022   -1.2098 C   0  0  0  0  0  0  0  0  0  0  0  0
    5.2831   -3.2890   -1.7263 C   0  0  0  0  0  0  0  0  0  0  0  0
    0.6033    2.0782   -2.6934 H   0  0  0  0  0  0  0  0  0  0  0  0
   -1.6299    2.9557   -1.7378 H   0  0  0  0  0  0  0  0  0  0  0  0
    2.3671    3.9045    0.3659 H   0  0  0  0  0  0  0  0  0  0  0  0
    1.4426    1.1899   -0.4364 H   0  0  0  0  0  0  0  0  0  0  0  0
    2.5664    2.2979   -1.2200 H   0  0  0  0  0  0  0  0  0  0  0  0
   -0.0646    4.4703   -2.7894 H   0  0  0  0  0  0  0  0  0  0  0  0
    1.6395    4.3804   -2.3367 H   0  0  0  0  0  0  0  0  0  0  0  0
   -1.8151    3.6453    0.4279 H   0  0  0  0  0  0  0  0  0  0  0  0
   -0.9064    2.3228    1.0957 H   0  0  0  0  0  0  0  0  0  0  0  0
    1.0617    5.6808   -0.5252 H   0  0  0  0  0  0  0  0  0  0  0  0
   -0.6480    5.4296   -0.7810 H   0  0  0  0  0  0  0  0  0  0  0  0
    0.9750    1.7247    1.9905 H   0  0  0  0  0  0  0  0  0  0  0  0
    1.7623    3.1738    2.6196 H   0  0  0  0  0  0  0  0  0  0  0  0
    3.8708    2.3884    1.7392 H   0  0  0  0  0  0  0  0  0  0  0  0
   -3.3155    1.5527   -0.1262 H   0  0  0  0  0  0  0  0  0  0  0  0
   -0.4895   -2.3644   -3.1898 H   0  0  0  0  0  0  0  0  0  0  0  0
    0.6955   -2.1567   -1.8791 H   0  0  0  0  0  0  0  0  0  0  0  0
   -0.6489   -3.2934   -1.6824 H   0  0  0  0  0  0  0  0  0  0  0  0
    5.2382    0.7817    1.7850 H   0  0  0  0  0  0  0  0  0  0  0  0
    4.2992   -1.8499    2.7292 H   0  0  0  0  0  0  0  0  0  0  0  0
    5.9596   -1.2862    2.5686 H   0  0  0  0  0  0  0  0  0  0  0  0
   -3.9702   -0.2158    2.0093 H   0  0  0  0  0  0  0  0  0  0  0  0
   -5.1519   -1.7533   -1.8517 H   0  0  0  0  0  0  0  0  0  0  0  0
   -6.1652   -0.8570    2.9235 H   0  0  0  0  0  0  0  0  0  0  0  0
   -7.3391   -2.3927   -0.9136 H   0  0  0  0  0  0  0  0  0  0  0  0
    3.0531   -2.7312    0.7717 H   0  0  0  0  0  0  0  0  0  0  0  0
    7.1473   -1.4247    0.4144 H   0  0  0  0  0  0  0  0  0  0  0  0
    3.2316   -3.8661   -1.4118 H   0  0  0  0  0  0  0  0  0  0  0  0
    7.3127   -2.5687   -1.7683 H   0  0  0  0  0  0  0  0  0  0  0  0
    5.3587   -3.7904   -2.6867 H   0  0  0  0  0  0  0  0  0  0  0  0
  1 29  1  0  0  0  0
  2 20  2  0  0  0  0
  3 10  1  0  0  0  0
  3 13  1  0  0  0  0
  3 14  1  0  0  0  0
  4 15  1  0  0  0  0
  4 20  1  0  0  0  0
  4 48  1  0  0  0  0
  5 16  2  0  0  0  0
  5 19  1  0  0  0  0
  6 18  1  0  0  0  0
  6 19  2  0  0  0  0
  7 20  1  0  0  0  0
  7 23  1  0  0  0  0
  7 53  1  0  0  0  0
  8  9  1  0  0  0  0
  8 11  1  0  0  0  0
  8 12  1  0  0  0  0
  8 35  1  0  0  0  0
  9 13  1  0  0  0  0
  9 16  1  0  0  0  0
  9 36  1  0  0  0  0
 10 11  1  0  0  0  0
 10 15  1  0  0  0  0
 10 37  1  0  0  0  0
 11 38  1  0  0  0  0
 11 39  1  0  0  0  0
 12 14  1  0  0  0  0
 12 40  1  0  0  0  0
 12 41  1  0  0  0  0
 13 42  1  0  0  0  0
 13 43  1  0  0  0  0
 14 44  1  0  0  0  0
 14 45  1  0  0  0  0
 15 46  1  0  0  0  0
 15 47  1  0  0  0  0
 16 17  1  0  0  0  0
 17 18  2  0  0  0  0
 17 49  1  0  0  0  0
 18 21  1  0  0  0  0
 19 22  1  0  0  0  0
 21 24  2  0  0  0  0
 21 25  1  0  0  0  0
 22 50  1  0  0  0  0
 22 51  1  0  0  0  0
 22 52  1  0  0  0  0
 23 28  1  0  0  0  0
 23 54  1  0  0  0  0
 23 55  1  0  0  0  0
 24 26  1  0  0  0  0
 24 56  1  0  0  0  0
 25 27  2  0  0  0  0
 25 57  1  0  0  0  0
 26 29  2  0  0  0  0
 26 58  1  0  0  0  0
 27 29  1  0  0  0  0
 27 59  1  0  0  0  0
 28 30  2  0  0  0  0
 28 31  1  0  0  0  0
 30 32  1  0  0  0  0
 30 60  1  0  0  0  0
 31 33  2  0  0  0  0
 31 61  1  0  0  0  0
 32 34  2  0  0  0  0
 32 62  1  0  0  0  0
 33 34  1  0  0  0  0
 33 63  1  0  0  0  0
 34 64  1  0  0  0  0
M  END
> <PUBCHEM_COMPOUND_CID>
40776931

> <PUBCHEM_CONFORMER_RMSD>
1.2

> <PUBCHEM_CONFORMER_DIVERSEORDER>
1
68
22
91
9
59
29
79
72
58
66
31
121
115
26
33
62
8
65
63
82
75
76
64
43
13
3
86
27
44
117
85
57
19
77
102
109
36
56
103
37
114
126
15
21
30
55
40
24
111
49
14
120
61
81
4
11
10
98
96
46
18
80
45
83
130
78
12
113
25
16
131
60
123
110
104
124
50
53
28
101
5
112
95
125
17
99
52
122
107
20
34
93
118
35
87
67
132
70
32
108
39
92
84
23
89
47
128
73
129
51
41
74
71
2
100
69
42
88
90
106
54
127
97
7
94
119
38
6
116
105
48

> <PUBCHEM_MMFF94_PARTIAL_CHARGES>
42
1 -0.19
10 0.27
13 0.27
14 0.27
15 0.3
16 0.17
17 -0.15
18 0.31
19 0.48
2 -0.57
20 0.69
22 0.14
23 0.44
24 -0.15
25 -0.15
26 -0.15
27 -0.15
28 -0.14
29 0.19
3 -0.81
30 -0.15
31 -0.15
32 -0.15
33 -0.15
34 -0.15
4 -0.73
48 0.37
49 0.15
5 -0.62
53 0.37
56 0.15
57 0.15
58 0.15
59 0.15
6 -0.62
60 0.15
61 0.15
62 0.15
63 0.15
64 0.15
7 -0.73
9 0.14

> <PUBCHEM_EFFECTIVE_ROTOR_COUNT>
9.2

> <PUBCHEM_PHARMACOPHORE_FEATURES>
10
1 2 acceptor
1 3 cation
1 4 donor
1 5 acceptor
1 7 donor
3 5 6 19 cation
6 21 24 25 26 27 29 rings
6 28 30 31 32 33 34 rings
6 5 6 16 17 18 19 rings
8 3 8 9 10 11 12 13 14 rings

> <PUBCHEM_HEAVY_ATOM_COUNT>
34

> <PUBCHEM_ATOM_DEF_STEREO_COUNT>
3

> <PUBCHEM_ATOM_UDEF_STEREO_COUNT>
0

> <PUBCHEM_BOND_DEF_STEREO_COUNT>
0

> <PUBCHEM_BOND_UDEF_STEREO_COUNT>
0

> <PUBCHEM_ISOTOPIC_ATOM_COUNT>
0

> <PUBCHEM_COMPONENT_COUNT>
1

> <PUBCHEM_CACTVS_TAUTO_COUNT>
3

> <PUBCHEM_CONFORMER_ID>
026E34E300000001

> <PUBCHEM_MMFF94_ENERGY>
88.3483

> <PUBCHEM_FEATURE_SELFOVERLAP>
50.795

> <PUBCHEM_SHAPE_FINGERPRINT>
10169797 241 17844790509970114714
10692045 39 16988568995737582167
10764073 3 17273422668495527433
10883706 89 18410020927747364585
10951579 204 15576645437851321591
11399939 17 17981883361047957239
11513181 2 17465676988376408835
11991303 11 17609210152570115581
12422481 6 18059574659534778033
12597179 24 10052447776368721818
12623949 98 18412258459052392696
13135754 10 18196650696760454600
13150687 139 7925637739121757240
13383668 362 17988378056786717279
13785724 45 18410295817779905253
15669420 48 18408047317302586412
15721738 202 18260275136014429406
20501277 180 9150635461210094563
20554085 129 10592043544248991307
20578428 11 16226898911354242815
20771845 140 18121492712340850640
20775530 9 18338783551454794774
21049683 118 10015576178233918268
21716022 299 18041860487856388324
22864921 267 18272377477480983579
22889206 1 17483942041119152833
3737641 26 18342166766182752640
4112364 45 14189569745441254106
42767 28 14490201492021120114
437795 150 17555747500141355070
4394409 98 15741052838545008254
44344687 77 17824571709787180776
469060 322 18045235851224657514
56633871 153 18201709682819208391
57366028 249 17561077044039014744
6695519 79 17127282331274457880
86090 222 17168134706894040331
9555976 147 16702028621225642699
9980921 177 18201455649353585307

> <PUBCHEM_SHAPE_MULTIPOLES>
661.66
16.23
5.86
2.33
11.79
6.5
-0.51
-24.78
-6.49
-4.04
2.24
-1.17
-0.04
2.63

> <PUBCHEM_SHAPE_SELFOVERLAP>
1435.457

> <PUBCHEM_SHAPE_VOLUME>
361.1

> <PUBCHEM_COORDINATE_TYPE>
2
5
10

$$$$
