75536769
  -OEChem-12032416303D

 47 49  0     1  0  0  0  0  0999 V2000
   -0.1755   -1.2518    0.0214 O   0  0  0  0  0  0  0  0  0  0  0  0
   -1.1631    2.1180    0.7793 O   0  0  0  0  0  0  0  0  0  0  0  0
    3.4074    1.3509    0.6022 O   0  0  0  0  0  0  0  0  0  0  0  0
   -3.5310    0.1450    0.1659 N   0  0  0  0  0  0  0  0  0  0  0  0
    2.3426   -0.5982    1.2477 N   0  0  0  0  0  0  0  0  0  0  0  0
    4.4986   -0.7216    0.4448 N   0  0  0  0  0  0  0  0  0  0  0  0
   -6.5293    0.9906   -1.0206 N   0  0  0  0  0  0  0  0  0  0  0  0
   -2.1222    0.0927   -0.1894 C   0  0  1  0  0  0  0  0  0  0  0  0
   -1.2077    0.7063    0.8546 C   0  0  1  0  0  0  0  0  0  0  0  0
    0.1273    0.0755    0.4822 C   0  0  1  0  0  0  0  0  0  0  0  0
   -1.5833   -1.3265   -0.2645 C   0  0  0  0  0  0  0  0  0  0  0  0
    1.1030    0.0057    1.6434 C   0  0  0  0  0  0  0  0  0  0  0  0
   -4.3747   -0.1390   -0.9889 C   0  0  0  0  0  0  0  0  0  0  0  0
   -5.8379   -0.1055   -0.6358 C   0  0  0  0  0  0  0  0  0  0  0  0
    3.4320    0.1306    0.7440 C   0  0  0  0  0  0  0  0  0  0  0  0
   -6.3952   -1.1733    0.0492 C   0  0  0  0  0  0  0  0  0  0  0  0
   -7.7492   -1.1122    0.3591 C   0  0  0  0  0  0  0  0  0  0  0  0
    5.7660   -0.3750   -0.0791 C   0  0  0  0  0  0  0  0  0  0  0  0
   -7.8430    1.0145   -0.7018 C   0  0  0  0  0  0  0  0  0  0  0  0
   -8.4941   -0.0009   -0.0202 C   0  0  0  0  0  0  0  0  0  0  0  0
    6.7167   -1.3673   -0.3182 C   0  0  0  0  0  0  0  0  0  0  0  0
    6.0652    0.9587   -0.3563 C   0  0  0  0  0  0  0  0  0  0  0  0
    7.9667   -1.0258   -0.8345 C   0  0  0  0  0  0  0  0  0  0  0  0
    7.3150    1.3004   -0.8727 C   0  0  0  0  0  0  0  0  0  0  0  0
    8.2658    0.3081   -1.1118 C   0  0  0  0  0  0  0  0  0  0  0  0
   -1.9511    0.6162   -1.1407 H   0  0  0  0  0  0  0  0  0  0  0  0
   -1.5138    0.4157    1.8673 H   0  0  0  0  0  0  0  0  0  0  0  0
    0.5912    0.6138   -0.3548 H   0  0  0  0  0  0  0  0  0  0  0  0
   -2.0314   -1.9830    0.4903 H   0  0  0  0  0  0  0  0  0  0  0  0
   -1.7291   -1.7825   -1.2484 H   0  0  0  0  0  0  0  0  0  0  0  0
    0.7003   -0.6197    2.4477 H   0  0  0  0  0  0  0  0  0  0  0  0
    1.2985    1.0055    2.0451 H   0  0  0  0  0  0  0  0  0  0  0  0
   -3.7526    1.0778    0.5152 H   0  0  0  0  0  0  0  0  0  0  0  0
   -4.1463   -1.1250   -1.4122 H   0  0  0  0  0  0  0  0  0  0  0  0
   -4.1903    0.5967   -1.7824 H   0  0  0  0  0  0  0  0  0  0  0  0
   -0.8925    2.3679   -0.1204 H   0  0  0  0  0  0  0  0  0  0  0  0
    2.4302   -1.6068    1.3246 H   0  0  0  0  0  0  0  0  0  0  0  0
   -5.8057   -2.0362    0.3400 H   0  0  0  0  0  0  0  0  0  0  0  0
    4.3543   -1.7125    0.6219 H   0  0  0  0  0  0  0  0  0  0  0  0
   -8.2233   -1.9290    0.8949 H   0  0  0  0  0  0  0  0  0  0  0  0
   -8.3790    1.9027   -1.0197 H   0  0  0  0  0  0  0  0  0  0  0  0
   -9.5509    0.0682    0.2107 H   0  0  0  0  0  0  0  0  0  0  0  0
    6.4964   -2.4105   -0.1066 H   0  0  0  0  0  0  0  0  0  0  0  0
    5.3831    1.7820   -0.1982 H   0  0  0  0  0  0  0  0  0  0  0  0
    8.7070   -1.7982   -1.0207 H   0  0  0  0  0  0  0  0  0  0  0  0
    7.5494    2.3388   -1.0890 H   0  0  0  0  0  0  0  0  0  0  0  0
    9.2390    0.5742   -1.5138 H   0  0  0  0  0  0  0  0  0  0  0  0
  1 10  1  0  0  0  0
  1 11  1  0  0  0  0
  2  9  1  0  0  0  0
  2 36  1  0  0  0  0
  3 15  2  0  0  0  0
  4  8  1  0  0  0  0
  4 13  1  0  0  0  0
  4 33  1  0  0  0  0
  5 12  1  0  0  0  0
  5 15  1  0  0  0  0
  5 37  1  0  0  0  0
  6 15  1  0  0  0  0
  6 18  1  0  0  0  0
  6 39  1  0  0  0  0
  7 14  1  0  0  0  0
  7 19  2  0  0  0  0
  8  9  1  0  0  0  0
  8 11  1  0  0  0  0
  8 26  1  0  0  0  0
  9 10  1  0  0  0  0
  9 27  1  0  0  0  0
 10 12  1  0  0  0  0
 10 28  1  0  0  0  0
 11 29  1  0  0  0  0
 11 30  1  0  0  0  0
 12 31  1  0  0  0  0
 12 32  1  0  0  0  0
 13 14  1  0  0  0  0
 13 34  1  0  0  0  0
 13 35  1  0  0  0  0
 14 16  2  0  0  0  0
 16 17  1  0  0  0  0
 16 38  1  0  0  0  0
 17 20  2  0  0  0  0
 17 40  1  0  0  0  0
 18 21  2  0  0  0  0
 18 22  1  0  0  0  0
 19 20  1  0  0  0  0
 19 41  1  0  0  0  0
 20 42  1  0  0  0  0
 21 23  1  0  0  0  0
 21 43  1  0  0  0  0
 22 24  2  0  0  0  0
 22 44  1  0  0  0  0
 23 25  2  0  0  0  0
 23 45  1  0  0  0  0
 24 25  1  0  0  0  0
 24 46  1  0  0  0  0
 25 47  1  0  0  0  0
M  END
> <PUBCHEM_COMPOUND_CID>
75536769

> <PUBCHEM_CONFORMER_RMSD>
1

> <PUBCHEM_CONFORMER_DIVERSEORDER>
1
59
160
131
87
132
134
46
2
169
4
180
155
102
108
92
120
189
26
179
107
48
85
125
150
6
24
77
191
97
135
56
73
14
136
112
71
74
159
166
178
79
30
52
9
157
156
186
23
182
195
116
173
45
86
55
119
184
144
37
43
36
82
129
143
8
192
177
142
167
171
174
31
100
183
162
50
193
172
130
84
29
83
47
118
151
117
161
146
20
42
123
81
18
109
68
148
22
32
149
16
19
111
165
33
158
75
163
64
67
90
185
128
57
28
127
96
139
41
53
194
145
58
153
101
181
63
10
66
89
13
154
140
15
34
113
141
110
103
5
21
164
91
80
95
12
93
106
170
72
147
98
105
3
175
27
124
115
137
168
11
104
7
176
51
99
39
196
121
65
69
88
60
122
25
94
114
187
76
62
35
133
152
49
44
78
188
61
190
70
126
17
38
54
138
40

> <PUBCHEM_MMFF94_PARTIAL_CHARGES>
38
1 -0.56
10 0.28
11 0.28
12 0.3
13 0.41
14 0.17
15 0.69
16 -0.15
17 -0.15
18 0.12
19 0.16
2 -0.68
20 -0.15
21 -0.15
22 -0.15
23 -0.15
24 -0.15
25 -0.15
3 -0.57
33 0.36
36 0.4
37 0.37
38 0.15
39 0.37
4 -0.9
40 0.15
41 0.15
42 0.15
43 0.15
44 0.15
45 0.15
46 0.15
47 0.15
5 -0.73
6 -0.55
7 -0.62
8 0.27
9 0.28

> <PUBCHEM_EFFECTIVE_ROTOR_COUNT>
9

> <PUBCHEM_PHARMACOPHORE_FEATURES>
12
1 1 acceptor
1 2 acceptor
1 2 donor
1 3 acceptor
1 4 cation
1 4 donor
1 5 donor
1 6 donor
1 7 acceptor
5 1 8 9 10 11 rings
6 18 21 22 23 24 25 rings
6 7 14 16 17 19 20 rings

> <PUBCHEM_HEAVY_ATOM_COUNT>
25

> <PUBCHEM_ATOM_DEF_STEREO_COUNT>
3

> <PUBCHEM_ATOM_UDEF_STEREO_COUNT>
0

> <PUBCHEM_BOND_DEF_STEREO_COUNT>
0

> <PUBCHEM_BOND_UDEF_STEREO_COUNT>
0

> <PUBCHEM_ISOTOPIC_ATOM_COUNT>
0

> <PUBCHEM_COMPONENT_COUNT>
1

> <PUBCHEM_CACTVS_TAUTO_COUNT>
3

> <PUBCHEM_CONFORMER_ID>
0480998100000001

> <PUBCHEM_MMFF94_ENERGY>
60.0508

> <PUBCHEM_FEATURE_SELFOVERLAP>
60.948

> <PUBCHEM_SHAPE_FINGERPRINT>
10 15 8070024471993351586
10066227 49 18200596895933337062
10162869 55 12973891446321890323
10299344 5 17918277549451208075
106641 1 11963395141531972021
10670039 82 18059575754989341945
10883706 142 16515398582815041954
11315181 36 17313100848994037389
11524674 6 14620791617570166885
11638347 137 9655582911546556364
12592606 108 16845566543925894863
13673619 4 16917347026331253704
13685833 64 15195565702415660210
13885169 127 13038912118702614675
14216079 64 14979962454355753684
14251764 18 17132119034720313802
14251764 46 18202845453214771334
14347424 109 12823005444283521442
14856354 85 18411697717228911879
14933364 13 18260827107640895685
15183329 4 17989487411597658002
15690457 1 12463566274951921516
15849732 13 18186802495426769831
16994733 274 16009020645230840125
1754911 235 17821444660358226263
18335252 98 17967817145774627899
19301679 30 11311516662545644796
20105231 36 18342459257740365563
20554085 129 14345789483430401200
21150785 3 18040716969618292510
21267235 1 18273496780075076233
21403212 168 11312060937163994893
21792934 111 10447928351883761498
221357 26 18412262831651009192
22224240 67 14129058118737677200
23559900 14 17702370926677074824
23576562 1 18192138503494005413
246663 6 17275387603121827530
24771293 8 13407073670041705119
249057 25 12391237170472997779
28498 318 15841554063151948068
335352 9 18272083916713844615
4107672 100 18410006629289545781
4339292 15 11098154279819837417
439807 62 17703793596614623102
444769 64 16630805535000878807
5219985 9 16271928211826681016
5283156 175 18131634474260598036
5470011 282 18410858763685974134
5758199 1 16225764108238495763
59682541 35 14273742850153832525
67123 10 17967253109257491519
9689198 14 18040434386608734495

> <PUBCHEM_SHAPE_MULTIPOLES>
476.96
29.95
1.4
1.11
2.18
0.16
-0.14
-0.62
10.95
-0.36
0.02
-0.51
0.11
0.33

> <PUBCHEM_SHAPE_SELFOVERLAP>
1005.411

> <PUBCHEM_SHAPE_VOLUME>
266.6

> <PUBCHEM_COORDINATE_TYPE>
2
5
10

$$$$
