11867047
  -OEChem-12032416333D

 78 81  0     1  0  0  0  0  0999 V2000
   -0.8245    3.2182   -0.1162 S   0  0  0  0  0  0  0  0  0  0  0  0
   -7.4284   -1.0250   -0.2110 O   0  0  0  0  0  0  0  0  0  0  0  0
   -7.4082    0.8117    1.3286 O   0  0  0  0  0  0  0  0  0  0  0  0
    0.4495   -1.6621   -1.8776 O   0  0  0  0  0  0  0  0  0  0  0  0
    3.2102    1.0401   -0.9488 O   0  0  0  0  0  0  0  0  0  0  0  0
    0.2848    0.9104   -0.4848 N   0  0  0  0  0  0  0  0  0  0  0  0
    1.2501   -3.0552   -0.1983 N   0  0  0  0  0  0  0  0  0  0  0  0
    1.7316    2.8367   -0.5597 N   0  0  0  0  0  0  0  0  0  0  0  0
   -3.1150   -0.7107    0.3405 C   0  0  2  0  0  0  0  0  0  0  0  0
   -3.9342    0.5222   -0.2465 C   0  0  1  0  0  0  0  0  0  0  0  0
   -5.5017    0.4874   -0.0739 C   0  0  1  0  0  0  0  0  0  0  0  0
   -1.6573   -0.6904   -0.3139 C   0  0  1  0  0  0  0  0  0  0  0  0
   -3.8142   -2.0343   -0.0648 C   0  0  0  0  0  0  0  0  0  0  0  0
   -6.0305   -0.9180   -0.4779 C   0  0  1  0  0  0  0  0  0  0  0  0
   -3.2886    1.8790    0.1597 C   0  0  0  0  0  0  0  0  0  0  0  0
   -5.3073   -2.0585    0.2299 C   0  0  0  0  0  0  0  0  0  0  0  0
   -2.9875   -0.6682    1.8832 C   0  0  0  0  0  0  0  0  0  0  0  0
   -1.0645    0.6947   -0.2736 C   0  0  0  0  0  0  0  0  0  0  0  0
   -5.9999    0.8793    1.3348 C   0  0  0  0  0  0  0  0  0  0  0  0
   -6.1417    1.5191   -1.0455 C   0  0  0  0  0  0  0  0  0  0  0  0
   -1.8170    1.8349   -0.0780 C   0  0  0  0  0  0  0  0  0  0  0  0
   -0.6872   -1.7335    0.2571 C   0  0  0  0  0  0  0  0  0  0  0  0
    0.3794   -2.1211   -0.7407 C   0  0  0  0  0  0  0  0  0  0  0  0
    0.5266    2.2015   -0.4168 C   0  0  0  0  0  0  0  0  0  0  0  0
    2.3678   -3.6094   -0.9273 C   0  0  0  0  0  0  0  0  0  0  0  0
    2.9772    2.2378   -0.8115 C   0  0  0  0  0  0  0  0  0  0  0  0
    4.1104    3.2529   -0.9042 C   0  0  0  0  0  0  0  0  0  0  0  0
    3.6777   -3.3192   -0.2533 C   0  0  0  0  0  0  0  0  0  0  0  0
    4.8771    3.4909    0.4188 C   0  0  0  0  0  0  0  0  0  0  0  0
    4.3831   -2.1583   -0.5708 C   0  0  0  0  0  0  0  0  0  0  0  0
    4.1891   -4.2099    0.6905 C   0  0  0  0  0  0  0  0  0  0  0  0
    3.9651    4.0933    1.4999 C   0  0  0  0  0  0  0  0  0  0  0  0
    6.0188    4.4870    0.1354 C   0  0  0  0  0  0  0  0  0  0  0  0
    5.4922    2.1833    0.9451 C   0  0  0  0  0  0  0  0  0  0  0  0
    5.5999   -1.8883    0.0555 C   0  0  0  0  0  0  0  0  0  0  0  0
    5.4059   -3.9397    1.3168 C   0  0  0  0  0  0  0  0  0  0  0  0
    6.1113   -2.7789    0.9992 C   0  0  0  0  0  0  0  0  0  0  0  0
   -3.7843    0.4439   -1.3374 H   0  0  0  0  0  0  0  0  0  0  0  0
   -1.8088   -0.9043   -1.3826 H   0  0  0  0  0  0  0  0  0  0  0  0
   -3.3551   -2.8894    0.4440 H   0  0  0  0  0  0  0  0  0  0  0  0
   -3.6761   -2.2082   -1.1402 H   0  0  0  0  0  0  0  0  0  0  0  0
   -5.9063   -1.0471   -1.5613 H   0  0  0  0  0  0  0  0  0  0  0  0
   -3.7236    2.6941   -0.4283 H   0  0  0  0  0  0  0  0  0  0  0  0
   -3.4732    2.0997    1.2164 H   0  0  0  0  0  0  0  0  0  0  0  0
   -5.5014   -2.0313    1.3078 H   0  0  0  0  0  0  0  0  0  0  0  0
   -5.7243   -3.0159   -0.1080 H   0  0  0  0  0  0  0  0  0  0  0  0
   -2.3952   -1.5115    2.2551 H   0  0  0  0  0  0  0  0  0  0  0  0
   -3.9458   -0.7491    2.3919 H   0  0  0  0  0  0  0  0  0  0  0  0
   -2.4978    0.2423    2.2394 H   0  0  0  0  0  0  0  0  0  0  0  0
   -5.6505    0.2056    2.1130 H   0  0  0  0  0  0  0  0  0  0  0  0
   -5.7071    1.8994    1.6010 H   0  0  0  0  0  0  0  0  0  0  0  0
   -5.9234    2.5498   -0.7471 H   0  0  0  0  0  0  0  0  0  0  0  0
   -7.2321    1.4241   -1.0968 H   0  0  0  0  0  0  0  0  0  0  0  0
   -5.7654    1.3824   -2.0659 H   0  0  0  0  0  0  0  0  0  0  0  0
   -1.2105   -2.6603    0.5132 H   0  0  0  0  0  0  0  0  0  0  0  0
   -0.1986   -1.3651    1.1680 H   0  0  0  0  0  0  0  0  0  0  0  0
   -7.7217   -1.8986   -0.5214 H   0  0  0  0  0  0  0  0  0  0  0  0
   -7.7146    1.0690    2.2149 H   0  0  0  0  0  0  0  0  0  0  0  0
    1.0933   -3.3872    0.7493 H   0  0  0  0  0  0  0  0  0  0  0  0
    1.6945    3.8484   -0.4668 H   0  0  0  0  0  0  0  0  0  0  0  0
    2.3785   -3.2355   -1.9576 H   0  0  0  0  0  0  0  0  0  0  0  0
    2.2055   -4.6917   -0.9905 H   0  0  0  0  0  0  0  0  0  0  0  0
    4.7984    2.8896   -1.6794 H   0  0  0  0  0  0  0  0  0  0  0  0
    3.7087    4.2021   -1.2821 H   0  0  0  0  0  0  0  0  0  0  0  0
    4.5358    4.3472    2.4006 H   0  0  0  0  0  0  0  0  0  0  0  0
    3.4818    5.0099    1.1439 H   0  0  0  0  0  0  0  0  0  0  0  0
    3.1795    3.3928    1.8021 H   0  0  0  0  0  0  0  0  0  0  0  0
    6.6007    4.6937    1.0408 H   0  0  0  0  0  0  0  0  0  0  0  0
    5.6278    5.4421   -0.2333 H   0  0  0  0  0  0  0  0  0  0  0  0
    6.7087    4.0941   -0.6200 H   0  0  0  0  0  0  0  0  0  0  0  0
    6.1188    2.3689    1.8252 H   0  0  0  0  0  0  0  0  0  0  0  0
    4.7224    1.4639    1.2433 H   0  0  0  0  0  0  0  0  0  0  0  0
    6.1217    1.7089    0.1842 H   0  0  0  0  0  0  0  0  0  0  0  0
    3.9983   -1.4641   -1.3118 H   0  0  0  0  0  0  0  0  0  0  0  0
    3.6483   -5.1167    0.9481 H   0  0  0  0  0  0  0  0  0  0  0  0
    6.1502   -0.9859   -0.1938 H   0  0  0  0  0  0  0  0  0  0  0  0
    5.8041   -4.6329    2.0520 H   0  0  0  0  0  0  0  0  0  0  0  0
    7.0588   -2.5687    1.4865 H   0  0  0  0  0  0  0  0  0  0  0  0
  1 21  1  0  0  0  0
  1 24  1  0  0  0  0
  2 14  1  0  0  0  0
  2 57  1  0  0  0  0
  3 19  1  0  0  0  0
  3 58  1  0  0  0  0
  4 23  2  0  0  0  0
  5 26  2  0  0  0  0
  6 18  1  0  0  0  0
  6 24  2  0  0  0  0
  7 23  1  0  0  0  0
  7 25  1  0  0  0  0
  7 59  1  0  0  0  0
  8 24  1  0  0  0  0
  8 26  1  0  0  0  0
  8 60  1  0  0  0  0
  9 10  1  0  0  0  0
  9 12  1  0  0  0  0
  9 13  1  0  0  0  0
  9 17  1  0  0  0  0
 10 11  1  0  0  0  0
 10 15  1  0  0  0  0
 10 38  1  0  0  0  0
 11 14  1  0  0  0  0
 11 19  1  0  0  0  0
 11 20  1  0  0  0  0
 12 18  1  0  0  0  0
 12 22  1  0  0  0  0
 12 39  1  0  0  0  0
 13 16  1  0  0  0  0
 13 40  1  0  0  0  0
 13 41  1  0  0  0  0
 14 16  1  0  0  0  0
 14 42  1  0  0  0  0
 15 21  1  0  0  0  0
 15 43  1  0  0  0  0
 15 44  1  0  0  0  0
 16 45  1  0  0  0  0
 16 46  1  0  0  0  0
 17 47  1  0  0  0  0
 17 48  1  0  0  0  0
 17 49  1  0  0  0  0
 18 21  2  0  0  0  0
 19 50  1  0  0  0  0
 19 51  1  0  0  0  0
 20 52  1  0  0  0  0
 20 53  1  0  0  0  0
 20 54  1  0  0  0  0
 22 23  1  0  0  0  0
 22 55  1  0  0  0  0
 22 56  1  0  0  0  0
 25 28  1  0  0  0  0
 25 61  1  0  0  0  0
 25 62  1  0  0  0  0
 26 27  1  0  0  0  0
 27 29  1  0  0  0  0
 27 63  1  0  0  0  0
 27 64  1  0  0  0  0
 28 30  2  0  0  0  0
 28 31  1  0  0  0  0
 29 32  1  0  0  0  0
 29 33  1  0  0  0  0
 29 34  1  0  0  0  0
 30 35  1  0  0  0  0
 30 74  1  0  0  0  0
 31 36  2  0  0  0  0
 31 75  1  0  0  0  0
 32 65  1  0  0  0  0
 32 66  1  0  0  0  0
 32 67  1  0  0  0  0
 33 68  1  0  0  0  0
 33 69  1  0  0  0  0
 33 70  1  0  0  0  0
 34 71  1  0  0  0  0
 34 72  1  0  0  0  0
 34 73  1  0  0  0  0
 35 37  2  0  0  0  0
 35 76  1  0  0  0  0
 36 37  1  0  0  0  0
 36 77  1  0  0  0  0
 37 78  1  0  0  0  0
M  END
> <PUBCHEM_COMPOUND_CID>
11867047

> <PUBCHEM_CONFORMER_RMSD>
1.2

> <PUBCHEM_CONFORMER_DIVERSEORDER>
1
22
7
26
27
9
19
33
23
10
31
36
8
4
28
32
35
13
29
21
11
12
17
38
3
34
18
5
25
16
20
40
37
30
39
24
6
14
2
15

> <PUBCHEM_MMFF94_PARTIAL_CHARGES>
35
1 -0.08
12 0.18
14 0.28
15 0.18
18 0.05
19 0.28
2 -0.68
21 -0.14
22 0.06
23 0.57
24 0.44
25 0.44
26 0.57
27 0.06
28 -0.14
3 -0.68
30 -0.15
31 -0.15
35 -0.15
36 -0.15
37 -0.15
4 -0.57
5 -0.57
57 0.4
58 0.4
59 0.37
6 -0.57
60 0.37
7 -0.73
74 0.15
75 0.15
76 0.15
77 0.15
78 0.15
8 -0.49

> <PUBCHEM_EFFECTIVE_ROTOR_COUNT>
11.2

> <PUBCHEM_PHARMACOPHORE_FEATURES>
13
1 2 acceptor
1 2 donor
1 3 acceptor
1 3 donor
1 4 acceptor
1 5 acceptor
1 7 donor
1 8 donor
4 29 32 33 34 hydrophobe
5 1 6 18 21 24 rings
6 28 30 31 35 36 37 rings
6 9 10 11 13 14 16 rings
6 9 10 12 15 18 21 rings

> <PUBCHEM_HEAVY_ATOM_COUNT>
37

> <PUBCHEM_ATOM_DEF_STEREO_COUNT>
5

> <PUBCHEM_ATOM_UDEF_STEREO_COUNT>
0

> <PUBCHEM_BOND_DEF_STEREO_COUNT>
0

> <PUBCHEM_BOND_UDEF_STEREO_COUNT>
0

> <PUBCHEM_ISOTOPIC_ATOM_COUNT>
0

> <PUBCHEM_COMPONENT_COUNT>
1

> <PUBCHEM_CACTVS_TAUTO_COUNT>
6

> <PUBCHEM_CONFORMER_ID>
00B513A700000001

> <PUBCHEM_MMFF94_ENERGY>
110.538

> <PUBCHEM_FEATURE_SELFOVERLAP>
66.117

> <PUBCHEM_SHAPE_FINGERPRINT>
10050765 1 18410291385632294037
10290309 65 18339067307297640276
10581848 197 17911479304650759488
11135926 11 18337665424954033436
11136131 41 18262510507504575218
11963148 33 17977947110001228855
12107698 1 18337107852304811258
12440605 4 18197220458616897267
12677640 9 17909829830218169104
12857493 111 18194674869817640661
12977781 61 17750533921088014915
13533116 47 18410014329897304060
13560911 43 18337668608426535770
14295345 954 18335138713385037248
14415360 78 17396124752295490837
14725015 67 18187923907467321162
15200665 1 17548134884523147954
15219463 3 16226049964503977719
15400415 2 18050002500483394548
15815584 197 18121524558942465191
15927050 60 18197216073713309326
19611394 137 18262525780123930490
20721686 56 18335141986060465386
21344244 246 18338226181096758919
21360443 120 18263367052584444700
21792965 2 18042680800697695523
22223350 30 17677916650062614331
22311459 1 18266178319085906383
23559900 14 18338508643604587523
24771293 8 18200590298451768866
3411729 13 18412266176665213046
373842 8 18410009953061658082
4149490 64 18335146406362820875
5104073 3 18341063977457740363
5385378 56 18339933696478858441
5776283 40 18337402655920594132
6176135 31 18339630261761638280
67856867 119 18411139125802418487
99344 41 18339921623098870952
9961470 85 18268423711103311082

> <PUBCHEM_SHAPE_MULTIPOLES>
726.87
17.93
6.45
1.23
12.17
0.7
-0.23
-0.59
-4.24
-15.74
-0.68
-0.06
-0.04
-0.34

> <PUBCHEM_SHAPE_SELFOVERLAP>
1519.587

> <PUBCHEM_SHAPE_VOLUME>
415

> <PUBCHEM_COORDINATE_TYPE>
2
5
10

$$$$
