7143722
  -OEChem-12032416213D

 62 67  0     1  0  0  0  0  0999 V2000
   -0.8674    2.3987   -1.6490 O   0  0  0  0  0  0  0  0  0  0  0  0
    3.0088   -0.5605   -2.1475 O   0  0  0  0  0  0  0  0  0  0  0  0
    1.3929   -2.6607    2.1226 O   0  0  0  0  0  0  0  0  0  0  0  0
    0.9976    2.4909   -0.2512 N   0  0  0  0  0  0  0  0  0  0  0  0
    3.6492    0.8636   -0.4443 N   0  0  0  0  0  0  0  0  0  0  0  0
    2.6102   -1.1944    0.0502 N   0  0  0  0  0  0  0  0  0  0  0  0
    3.3054    3.2331   -1.0834 C   0  0  2  0  0  0  0  0  0  0  0  0
    3.0096    2.5344    1.2639 C   0  0  2  0  0  0  0  0  0  0  0  0
    3.5331    3.6568    0.3656 C   0  0  0  0  0  0  0  0  0  0  0  0
    1.7935    3.1146   -1.3203 C   0  0  0  0  0  0  0  0  0  0  0  0
    4.0454    1.9130   -1.3857 C   0  0  0  0  0  0  0  0  0  0  0  0
    3.8030    1.2448    0.9702 C   0  0  0  0  0  0  0  0  0  0  0  0
    1.5320    2.2893    1.0251 C   0  0  0  0  0  0  0  0  0  0  0  0
    0.7542    1.8290    2.0176 C   0  0  0  0  0  0  0  0  0  0  0  0
   -0.3486    2.2025   -0.5486 C   0  0  0  0  0  0  0  0  0  0  0  0
    3.0926   -0.3360   -0.9374 C   0  0  0  0  0  0  0  0  0  0  0  0
   -1.1805    1.6375    0.5706 C   0  0  0  0  0  0  0  0  0  0  0  0
   -0.6211    1.4938    1.7811 C   0  0  0  0  0  0  0  0  0  0  0  0
   -2.5780    1.2301    0.3502 C   0  0  0  0  0  0  0  0  0  0  0  0
    2.4390   -2.5979   -0.0357 C   0  0  0  0  0  0  0  0  0  0  0  0
   -2.8708   -0.0724   -0.0570 C   0  0  0  0  0  0  0  0  0  0  0  0
   -3.6090    2.1445    0.5485 C   0  0  0  0  0  0  0  0  0  0  0  0
   -4.1988   -0.4760   -0.2710 C   0  0  0  0  0  0  0  0  0  0  0  0
   -4.9342    1.7608    0.3410 C   0  0  0  0  0  0  0  0  0  0  0  0
   -5.2460    0.4542   -0.0690 C   0  0  0  0  0  0  0  0  0  0  0  0
    1.8331   -3.3011    1.0025 C   0  0  0  0  0  0  0  0  0  0  0  0
    2.8836   -3.2682   -1.1728 C   0  0  0  0  0  0  0  0  0  0  0  0
   -4.5104   -1.7828   -0.6806 C   0  0  0  0  0  0  0  0  0  0  0  0
   -6.5741    0.0505   -0.2831 C   0  0  0  0  0  0  0  0  0  0  0  0
    1.6707   -4.6829    0.9032 C   0  0  0  0  0  0  0  0  0  0  0  0
    2.7213   -4.6501   -1.2721 C   0  0  0  0  0  0  0  0  0  0  0  0
    2.1149   -5.3574   -0.2341 C   0  0  0  0  0  0  0  0  0  0  0  0
   -5.8355   -2.1666   -0.8886 C   0  0  0  0  0  0  0  0  0  0  0  0
   -6.8652   -1.2517   -0.6905 C   0  0  0  0  0  0  0  0  0  0  0  0
    0.0495   -2.1834    2.1096 C   0  0  0  0  0  0  0  0  0  0  0  0
    3.7038    4.0004   -1.7583 H   0  0  0  0  0  0  0  0  0  0  0  0
    3.1804    2.8219    2.3093 H   0  0  0  0  0  0  0  0  0  0  0  0
    3.0145    4.5999    0.5792 H   0  0  0  0  0  0  0  0  0  0  0  0
    4.6007    3.8284    0.5496 H   0  0  0  0  0  0  0  0  0  0  0  0
    1.3767    4.1230   -1.4478 H   0  0  0  0  0  0  0  0  0  0  0  0
    1.5949    2.5847   -2.2605 H   0  0  0  0  0  0  0  0  0  0  0  0
    3.8611    1.6085   -2.4207 H   0  0  0  0  0  0  0  0  0  0  0  0
    5.1275    2.0545   -1.2766 H   0  0  0  0  0  0  0  0  0  0  0  0
    4.8738    1.4194    1.1361 H   0  0  0  0  0  0  0  0  0  0  0  0
    3.5194    0.4453    1.6568 H   0  0  0  0  0  0  0  0  0  0  0  0
    1.1496    1.6458    3.0112 H   0  0  0  0  0  0  0  0  0  0  0  0
   -1.1773    1.0874    2.6208 H   0  0  0  0  0  0  0  0  0  0  0  0
    2.3065   -0.7895    0.9290 H   0  0  0  0  0  0  0  0  0  0  0  0
   -2.0604   -0.7828   -0.2144 H   0  0  0  0  0  0  0  0  0  0  0  0
   -3.3974    3.1632    0.8649 H   0  0  0  0  0  0  0  0  0  0  0  0
   -5.7231    2.4926    0.5022 H   0  0  0  0  0  0  0  0  0  0  0  0
    3.3939   -2.7818   -1.9949 H   0  0  0  0  0  0  0  0  0  0  0  0
   -3.7216   -2.5147   -0.8414 H   0  0  0  0  0  0  0  0  0  0  0  0
   -7.3950    0.7489   -0.1341 H   0  0  0  0  0  0  0  0  0  0  0  0
    1.2004   -5.2409    1.7083 H   0  0  0  0  0  0  0  0  0  0  0  0
    3.0744   -5.1774   -2.1536 H   0  0  0  0  0  0  0  0  0  0  0  0
    1.9905   -6.4337   -0.3105 H   0  0  0  0  0  0  0  0  0  0  0  0
   -6.0630   -3.1804   -1.2055 H   0  0  0  0  0  0  0  0  0  0  0  0
   -7.8966   -1.5512   -0.8526 H   0  0  0  0  0  0  0  0  0  0  0  0
   -0.6506   -3.0246    2.1036 H   0  0  0  0  0  0  0  0  0  0  0  0
   -0.1282   -1.5448    1.2397 H   0  0  0  0  0  0  0  0  0  0  0  0
   -0.1155   -1.5967    3.0172 H   0  0  0  0  0  0  0  0  0  0  0  0
  1 15  2  0  0  0  0
  2 16  2  0  0  0  0
  3 26  1  0  0  0  0
  3 35  1  0  0  0  0
  4 10  1  0  0  0  0
  4 13  1  0  0  0  0
  4 15  1  0  0  0  0
  5 11  1  0  0  0  0
  5 12  1  0  0  0  0
  5 16  1  0  0  0  0
  6 16  1  0  0  0  0
  6 20  1  0  0  0  0
  6 48  1  0  0  0  0
  7  9  1  0  0  0  0
  7 10  1  0  0  0  0
  7 11  1  0  0  0  0
  7 36  1  0  0  0  0
  8  9  1  0  0  0  0
  8 12  1  0  0  0  0
  8 13  1  0  0  0  0
  8 37  1  0  0  0  0
  9 38  1  0  0  0  0
  9 39  1  0  0  0  0
 10 40  1  0  0  0  0
 10 41  1  0  0  0  0
 11 42  1  0  0  0  0
 11 43  1  0  0  0  0
 12 44  1  0  0  0  0
 12 45  1  0  0  0  0
 13 14  2  0  0  0  0
 14 18  1  0  0  0  0
 14 46  1  0  0  0  0
 15 17  1  0  0  0  0
 17 18  2  0  0  0  0
 17 19  1  0  0  0  0
 18 47  1  0  0  0  0
 19 21  2  0  0  0  0
 19 22  1  0  0  0  0
 20 26  1  0  0  0  0
 20 27  2  0  0  0  0
 21 23  1  0  0  0  0
 21 49  1  0  0  0  0
 22 24  2  0  0  0  0
 22 50  1  0  0  0  0
 23 25  1  0  0  0  0
 23 28  2  0  0  0  0
 24 25  1  0  0  0  0
 24 51  1  0  0  0  0
 25 29  2  0  0  0  0
 26 30  2  0  0  0  0
 27 31  1  0  0  0  0
 27 52  1  0  0  0  0
 28 33  1  0  0  0  0
 28 53  1  0  0  0  0
 29 34  1  0  0  0  0
 29 54  1  0  0  0  0
 30 32  1  0  0  0  0
 30 55  1  0  0  0  0
 31 32  2  0  0  0  0
 31 56  1  0  0  0  0
 32 57  1  0  0  0  0
 33 34  2  0  0  0  0
 33 58  1  0  0  0  0
 34 59  1  0  0  0  0
 35 60  1  0  0  0  0
 35 61  1  0  0  0  0
 35 62  1  0  0  0  0
M  END
> <PUBCHEM_COMPOUND_CID>
7143722

> <PUBCHEM_CONFORMER_RMSD>
1

> <PUBCHEM_CONFORMER_DIVERSEORDER>
1
33
56
44
54
10
64
24
55
52
26
7
19
48
23
46
17
49
53
51
58
42
36
25
40
39
37
59
34
18
8
41
45
57
9
62
13
50
21
20
63
27
61
38
29
60
28
11
32
65
16
43
22
4
30
31
2
14
12
35
47
15
6
3
5

> <PUBCHEM_MMFF94_PARTIAL_CHARGES>
45
1 -0.57
10 0.3
11 0.3
12 0.3
13 -0.03
14 -0.15
15 0.62
16 0.69
17 -0.01
18 -0.15
19 0.03
2 -0.57
20 0.12
21 -0.15
22 -0.15
24 -0.15
26 0.08
27 -0.15
28 -0.15
29 -0.15
3 -0.36
30 -0.15
31 -0.15
32 -0.15
33 -0.15
34 -0.15
35 0.28
4 -0.47
46 0.15
47 0.15
48 0.37
49 0.15
5 -0.66
50 0.15
51 0.15
52 0.15
53 0.15
54 0.15
55 0.15
56 0.15
57 0.15
58 0.15
59 0.15
6 -0.55
8 0.14

> <PUBCHEM_EFFECTIVE_ROTOR_COUNT>
6

> <PUBCHEM_PHARMACOPHORE_FEATURES>
10
1 1 acceptor
1 2 acceptor
1 3 acceptor
1 6 donor
6 19 21 22 23 24 25 rings
6 20 26 27 30 31 32 rings
6 23 25 28 29 33 34 rings
6 4 13 14 15 17 18 rings
6 4 7 8 9 10 13 rings
6 5 7 8 9 11 12 rings

> <PUBCHEM_HEAVY_ATOM_COUNT>
35

> <PUBCHEM_ATOM_DEF_STEREO_COUNT>
2

> <PUBCHEM_ATOM_UDEF_STEREO_COUNT>
0

> <PUBCHEM_BOND_DEF_STEREO_COUNT>
0

> <PUBCHEM_BOND_UDEF_STEREO_COUNT>
0

> <PUBCHEM_ISOTOPIC_ATOM_COUNT>
0

> <PUBCHEM_COMPONENT_COUNT>
1

> <PUBCHEM_CACTVS_TAUTO_COUNT>
2

> <PUBCHEM_CONFORMER_ID>
006D012A00000001

> <PUBCHEM_MMFF94_ENERGY>
119.7772

> <PUBCHEM_FEATURE_SELFOVERLAP>
52.394

> <PUBCHEM_SHAPE_FINGERPRINT>
10675989 125 18411704317681652905
11093857 51 18042708232885280630
12107183 9 17839754668856694345
13150687 139 18044111266101015620
1361 2 18336829804864749645
13617811 41 18189328130478200437
13692114 37 18125712642125149512
14068700 675 18195528095826176354
14675020 138 18199454627451955264
15219462 58 17771873126901938465
15250474 111 18341890797300977879
15419008 42 18043503098462136245
15484559 13 17968371359458289088
15968369 26 18337090350761349723
16993438 75 17615131413532669234
17909252 39 18272367573059454755
18365409 1 17689438608197328236
19319366 153 18270955872653158815
20028762 73 18412539938249957502
20567600 347 18337102475274353442
20764821 26 18048036564833477491
20775438 99 18336537283702457811
20775530 9 18051692140200130230
23559900 14 18199741441441993465
25222932 49 18131623513256275935
4409770 3 17906196275474487204
444735 86 18270949259131698455
463206 1 18047202847040212058
4756261 7 18120621740323338762
70251023 43 18048045064262227979
86090 222 18125723637025617571

> <PUBCHEM_SHAPE_MULTIPOLES>
687.73
11.96
6.7
1.73
24.48
8.32
0.35
0.84
-3.76
-9.11
-0.21
-1.34
0.07
-0.76

> <PUBCHEM_SHAPE_SELFOVERLAP>
1531.289

> <PUBCHEM_SHAPE_VOLUME>
360.6

> <PUBCHEM_COORDINATE_TYPE>
2
5
10

$$$$
