45783383
  -OEChem-12032416273D

 52 54  0     1  0  0  0  0  0999 V2000
    0.5389    2.7331   -0.0174 O   0  0  0  0  0  0  0  0  0  0  0  0
    0.2485   -3.2264   -0.7297 O   0  0  0  0  0  0  0  0  0  0  0  0
    2.9556    0.1902   -0.2221 N   0  0  1  0  0  0  0  0  0  0  0  0
   -0.1131    0.6929   -0.6726 N   0  0  0  0  0  0  0  0  0  0  0  0
   -0.8382    2.6663    0.2294 N   0  0  0  0  0  0  0  0  0  0  0  0
   -1.6664   -1.3375    0.1647 N   0  0  0  0  0  0  0  0  0  0  0  0
   -4.0010   -0.9554    0.1117 N   0  0  0  0  0  0  0  0  0  0  0  0
    2.3443    1.3466   -0.9071 C   0  0  1  0  0  0  0  0  0  0  0  0
    2.5574    1.0702   -2.4070 C   0  0  0  0  0  0  0  0  0  0  0  0
    4.0146   -0.3005   -1.1043 C   0  0  0  0  0  0  0  0  0  0  0  0
    3.3485   -0.2289   -2.4635 C   0  0  0  0  0  0  0  0  0  0  0  0
    3.4550    0.5093    1.1092 C   0  0  0  0  0  0  0  0  0  0  0  0
    2.3466    0.4784    2.1755 C   0  0  0  0  0  0  0  0  0  0  0  0
    0.8848    1.5310   -0.5482 C   0  0  0  0  0  0  0  0  0  0  0  0
    1.7224   -0.9185    2.2314 C   0  0  0  0  0  0  0  0  0  0  0  0
    2.8570    0.8699    3.5647 C   0  0  0  0  0  0  0  0  0  0  0  0
   -1.1490    1.4336   -0.1827 C   0  0  0  0  0  0  0  0  0  0  0  0
   -2.4840    0.9128   -0.1200 C   0  0  0  0  0  0  0  0  0  0  0  0
   -2.7546   -0.4356    0.0490 C   0  0  0  0  0  0  0  0  0  0  0  0
   -3.5621    1.7839   -0.2316 C   0  0  0  0  0  0  0  0  0  0  0  0
   -4.8593    1.2870   -0.1719 C   0  0  0  0  0  0  0  0  0  0  0  0
   -1.8463   -2.7411    0.3408 C   0  0  0  0  0  0  0  0  0  0  0  0
   -5.0236   -0.0782   -0.0006 C   0  0  0  0  0  0  0  0  0  0  0  0
   -0.4961   -3.4265    0.4652 C   0  0  0  0  0  0  0  0  0  0  0  0
    1.5202   -3.8565   -0.6627 C   0  0  0  0  0  0  0  0  0  0  0  0
    2.8850    2.2728   -0.6667 H   0  0  0  0  0  0  0  0  0  0  0  0
    1.6283    0.9854   -2.9809 H   0  0  0  0  0  0  0  0  0  0  0  0
    3.1515    1.8793   -2.8495 H   0  0  0  0  0  0  0  0  0  0  0  0
    4.8991    0.3487   -1.0792 H   0  0  0  0  0  0  0  0  0  0  0  0
    4.3152   -1.3236   -0.8581 H   0  0  0  0  0  0  0  0  0  0  0  0
    4.0698   -0.2390   -3.2858 H   0  0  0  0  0  0  0  0  0  0  0  0
    2.6643   -1.0758   -2.5991 H   0  0  0  0  0  0  0  0  0  0  0  0
    3.9738    1.4766    1.1239 H   0  0  0  0  0  0  0  0  0  0  0  0
    4.2081   -0.2357    1.4031 H   0  0  0  0  0  0  0  0  0  0  0  0
    1.5624    1.1985    1.9286 H   0  0  0  0  0  0  0  0  0  0  0  0
    2.4622   -1.6773    2.5087 H   0  0  0  0  0  0  0  0  0  0  0  0
    0.9126   -0.9518    2.9680 H   0  0  0  0  0  0  0  0  0  0  0  0
    1.2989   -1.1939    1.2644 H   0  0  0  0  0  0  0  0  0  0  0  0
    2.0440    0.8560    4.2983 H   0  0  0  0  0  0  0  0  0  0  0  0
    3.2786    1.8803    3.5489 H   0  0  0  0  0  0  0  0  0  0  0  0
    3.6375    0.1827    3.9083 H   0  0  0  0  0  0  0  0  0  0  0  0
   -3.4241    2.8530   -0.3736 H   0  0  0  0  0  0  0  0  0  0  0  0
   -0.7916   -0.9376    0.4854 H   0  0  0  0  0  0  0  0  0  0  0  0
   -2.4368   -2.9460    1.2410 H   0  0  0  0  0  0  0  0  0  0  0  0
   -2.3799   -3.1536   -0.5238 H   0  0  0  0  0  0  0  0  0  0  0  0
   -5.7150    1.9467   -0.2584 H   0  0  0  0  0  0  0  0  0  0  0  0
   -6.0149   -0.5160    0.0518 H   0  0  0  0  0  0  0  0  0  0  0  0
    0.0562   -3.0430    1.3280 H   0  0  0  0  0  0  0  0  0  0  0  0
   -0.6542   -4.5014    0.6133 H   0  0  0  0  0  0  0  0  0  0  0  0
    2.1133   -3.4406    0.1573 H   0  0  0  0  0  0  0  0  0  0  0  0
    1.4069   -4.9375   -0.5360 H   0  0  0  0  0  0  0  0  0  0  0  0
    2.0469   -3.6685   -1.6022 H   0  0  0  0  0  0  0  0  0  0  0  0
  1  5  1  0  0  0  0
  1 14  1  0  0  0  0
  2 24  1  0  0  0  0
  2 25  1  0  0  0  0
  3  8  1  0  0  0  0
  3 10  1  0  0  0  0
  3 12  1  0  0  0  0
  4 14  2  0  0  0  0
  4 17  1  0  0  0  0
  5 17  2  0  0  0  0
  6 19  1  0  0  0  0
  6 22  1  0  0  0  0
  6 43  1  0  0  0  0
  7 19  1  0  0  0  0
  7 23  2  0  0  0  0
  8  9  1  0  0  0  0
  8 14  1  0  0  0  0
  8 26  1  0  0  0  0
  9 11  1  0  0  0  0
  9 27  1  0  0  0  0
  9 28  1  0  0  0  0
 10 11  1  0  0  0  0
 10 29  1  0  0  0  0
 10 30  1  0  0  0  0
 11 31  1  0  0  0  0
 11 32  1  0  0  0  0
 12 13  1  0  0  0  0
 12 33  1  0  0  0  0
 12 34  1  0  0  0  0
 13 15  1  0  0  0  0
 13 16  1  0  0  0  0
 13 35  1  0  0  0  0
 15 36  1  0  0  0  0
 15 37  1  0  0  0  0
 15 38  1  0  0  0  0
 16 39  1  0  0  0  0
 16 40  1  0  0  0  0
 16 41  1  0  0  0  0
 17 18  1  0  0  0  0
 18 19  2  0  0  0  0
 18 20  1  0  0  0  0
 20 21  2  0  0  0  0
 20 42  1  0  0  0  0
 21 23  1  0  0  0  0
 21 46  1  0  0  0  0
 22 24  1  0  0  0  0
 22 44  1  0  0  0  0
 22 45  1  0  0  0  0
 23 47  1  0  0  0  0
 24 48  1  0  0  0  0
 24 49  1  0  0  0  0
 25 50  1  0  0  0  0
 25 51  1  0  0  0  0
 25 52  1  0  0  0  0
M  END
> <PUBCHEM_COMPOUND_CID>
45783383

> <PUBCHEM_CONFORMER_RMSD>
1

> <PUBCHEM_CONFORMER_DIVERSEORDER>
1
35
80
18
88
76
33
37
44
64
6
60
79
29
58
65
95
83
36
74
68
27
24
26
91
38
41
71
43
84
78
54
50
23
82
39
63
59
62
21
49
47
7
69
70
92
55
10
72
67
14
94
45
77
15
31
17
51
25
4
86
52
57
40
87
19
53
16
5
32
90
56
42
22
30
85
28
66
20
13
48
75
89
3
81
9
93
8
96
73
34
46
12
2
11
61

> <PUBCHEM_MMFF94_PARTIAL_CHARGES>
24
1 -0.02
10 0.27
12 0.27
14 0.3
17 0.46
18 0.05
19 0.41
2 -0.56
20 -0.15
21 -0.15
22 0.37
23 0.16
24 0.28
25 0.28
3 -0.81
4 -0.57
42 0.15
43 0.4
46 0.15
47 0.15
5 -0.41
6 -0.87
7 -0.62
8 0.45

> <PUBCHEM_EFFECTIVE_ROTOR_COUNT>
9

> <PUBCHEM_PHARMACOPHORE_FEATURES>
10
1 2 acceptor
1 3 cation
1 6 cation
1 6 donor
1 7 acceptor
3 13 15 16 hydrophobe
3 4 5 17 cation
5 1 4 5 14 17 rings
5 3 8 9 10 11 rings
6 7 18 19 20 21 23 rings

> <PUBCHEM_HEAVY_ATOM_COUNT>
25

> <PUBCHEM_ATOM_DEF_STEREO_COUNT>
1

> <PUBCHEM_ATOM_UDEF_STEREO_COUNT>
0

> <PUBCHEM_BOND_DEF_STEREO_COUNT>
0

> <PUBCHEM_BOND_UDEF_STEREO_COUNT>
0

> <PUBCHEM_ISOTOPIC_ATOM_COUNT>
0

> <PUBCHEM_COMPONENT_COUNT>
1

> <PUBCHEM_CACTVS_TAUTO_COUNT>
8

> <PUBCHEM_CONFORMER_ID>
02BA995700000001

> <PUBCHEM_MMFF94_ENERGY>
54.1384

> <PUBCHEM_FEATURE_SELFOVERLAP>
50.746

> <PUBCHEM_SHAPE_FINGERPRINT>
10366900 7 17346607395396624888
11578080 2 16771273775428512699
12553582 1 18334853926967578469
13583140 156 15697709428462971013
13726171 33 17973194934149763749
14022347 108 18410019839997602957
16752209 62 18408041797410151157
17093844 170 18411986832303615118
1813 80 16734369518388517168
18681886 176 18334863839815499036
19319366 153 17313949760967755280
20028762 73 18056763350585894727
20511986 3 17677035967113293572
20600515 1 18341321284121291384
20905425 154 17983023249420040423
23559900 14 18267303131885468845
3298306 158 18408887304961913223
59755656 215 18408328804979992079
9709674 26 18125448754807602605

> <PUBCHEM_SHAPE_MULTIPOLES>
477.84
8.04
3.61
2.3
6.93
4.1
1.5
-1.99
-0.59
0.49
-0.47
-4.4
-0.53
0.45

> <PUBCHEM_SHAPE_SELFOVERLAP>
994.152

> <PUBCHEM_SHAPE_VOLUME>
274.7

> <PUBCHEM_COORDINATE_TYPE>
2
5
10

$$$$
