25390222
  -OEChem-12032416173D

 58 60  0     1  0  0  0  0  0999 V2000
   -2.7818   -0.8000   -0.9278 O   0  0  0  0  0  0  0  0  0  0  0  0
   -5.3536   -1.4041    0.5805 O   0  0  0  0  0  0  0  0  0  0  0  0
   -5.4145    1.3288    0.2709 O   0  0  0  0  0  0  0  0  0  0  0  0
   -0.7494   -2.9387   -0.0251 O   0  0  0  0  0  0  0  0  0  0  0  0
   -0.3417    0.4332   -2.1569 O   0  0  0  0  0  0  0  0  0  0  0  0
   -1.8579    1.8744   -1.1530 N   0  0  0  0  0  0  0  0  0  0  0  0
    0.6334   -1.8864    1.5111 N   0  0  0  0  0  0  0  0  0  0  0  0
   -4.1968   -0.6700    0.9798 C   0  0  1  0  0  0  0  0  0  0  0  0
   -2.9716   -1.3612    0.3913 C   0  0  2  0  0  0  0  0  0  0  0  0
   -4.1630    0.6760    0.2861 C   0  0  1  0  0  0  0  0  0  0  0  0
   -3.7052    0.2878   -1.1099 C   0  0  1  0  0  0  0  0  0  0  0  0
   -1.7019   -1.1080    1.1925 C   0  0  0  0  0  0  0  0  0  0  0  0
   -3.0212    1.4197   -1.8556 C   0  0  0  0  0  0  0  0  0  0  0  0
   -0.5746   -2.0652    0.8285 C   0  0  0  0  0  0  0  0  0  0  0  0
   -0.5909    1.3366   -1.3628 C   0  0  0  0  0  0  0  0  0  0  0  0
    1.8025   -2.7283    1.2681 C   0  0  0  0  0  0  0  0  0  0  0  0
    0.8165   -0.8465    2.5163 C   0  0  0  0  0  0  0  0  0  0  0  0
    0.5074    1.8995   -0.5360 C   0  0  0  0  0  0  0  0  0  0  0  0
    2.7056   -2.1464    0.2193 C   0  0  0  0  0  0  0  0  0  0  0  0
    1.8194    1.8767   -1.0091 C   0  0  0  0  0  0  0  0  0  0  0  0
    0.2264    2.4508    0.7141 C   0  0  0  0  0  0  0  0  0  0  0  0
    2.5172   -2.4737   -1.1235 C   0  0  0  0  0  0  0  0  0  0  0  0
    3.7333   -1.2784    0.5879 C   0  0  0  0  0  0  0  0  0  0  0  0
    2.8504    2.4046   -0.2321 C   0  0  0  0  0  0  0  0  0  0  0  0
    1.2573    2.9788    1.4913 C   0  0  0  0  0  0  0  0  0  0  0  0
    2.5692    2.9557    1.0182 C   0  0  0  0  0  0  0  0  0  0  0  0
    3.3566   -1.9331   -2.0977 C   0  0  0  0  0  0  0  0  0  0  0  0
    4.5725   -0.7376   -0.3862 C   0  0  0  0  0  0  0  0  0  0  0  0
    4.3842   -1.0651   -1.7290 C   0  0  0  0  0  0  0  0  0  0  0  0
    3.6721    3.5201    1.8489 C   0  0  0  0  0  0  0  0  0  0  0  0
   -4.2081   -0.5967    2.0709 H   0  0  0  0  0  0  0  0  0  0  0  0
   -3.1516   -2.4351    0.2669 H   0  0  0  0  0  0  0  0  0  0  0  0
   -3.4385    1.3238    0.7918 H   0  0  0  0  0  0  0  0  0  0  0  0
   -4.5464   -0.0761   -1.7129 H   0  0  0  0  0  0  0  0  0  0  0  0
   -1.9242   -1.2660    2.2544 H   0  0  0  0  0  0  0  0  0  0  0  0
   -1.3554   -0.0840    1.0376 H   0  0  0  0  0  0  0  0  0  0  0  0
   -3.6963    2.2729   -1.9762 H   0  0  0  0  0  0  0  0  0  0  0  0
   -2.7150    1.0783   -2.8507 H   0  0  0  0  0  0  0  0  0  0  0  0
   -5.3174   -2.2682    1.0251 H   0  0  0  0  0  0  0  0  0  0  0  0
   -5.7013    1.4313    1.1944 H   0  0  0  0  0  0  0  0  0  0  0  0
   -1.9831    2.6575   -0.5206 H   0  0  0  0  0  0  0  0  0  0  0  0
    1.4607   -3.7185    0.9416 H   0  0  0  0  0  0  0  0  0  0  0  0
    2.3417   -2.8902    2.2093 H   0  0  0  0  0  0  0  0  0  0  0  0
   -0.0858   -0.2916    2.7675 H   0  0  0  0  0  0  0  0  0  0  0  0
    1.5625   -0.1344    2.1556 H   0  0  0  0  0  0  0  0  0  0  0  0
    1.1841   -1.3112    3.4368 H   0  0  0  0  0  0  0  0  0  0  0  0
    2.0566    1.4570   -1.9831 H   0  0  0  0  0  0  0  0  0  0  0  0
   -0.7759    2.4620    1.1319 H   0  0  0  0  0  0  0  0  0  0  0  0
    1.7219   -3.1494   -1.4258 H   0  0  0  0  0  0  0  0  0  0  0  0
    3.8936   -1.0169    1.6304 H   0  0  0  0  0  0  0  0  0  0  0  0
    3.8677    2.3880   -0.6139 H   0  0  0  0  0  0  0  0  0  0  0  0
    1.0266    3.4004    2.4660 H   0  0  0  0  0  0  0  0  0  0  0  0
    3.2096   -2.1875   -3.1432 H   0  0  0  0  0  0  0  0  0  0  0  0
    5.3728   -0.0618   -0.0991 H   0  0  0  0  0  0  0  0  0  0  0  0
    5.0371   -0.6431   -2.4873 H   0  0  0  0  0  0  0  0  0  0  0  0
    3.8282    4.5744    1.6000 H   0  0  0  0  0  0  0  0  0  0  0  0
    3.4432    3.4419    2.9171 H   0  0  0  0  0  0  0  0  0  0  0  0
    4.6082    2.9764    1.6817 H   0  0  0  0  0  0  0  0  0  0  0  0
  1  9  1  0  0  0  0
  1 11  1  0  0  0  0
  2  8  1  0  0  0  0
  2 39  1  0  0  0  0
  3 10  1  0  0  0  0
  3 40  1  0  0  0  0
  4 14  2  0  0  0  0
  5 15  2  0  0  0  0
  6 13  1  0  0  0  0
  6 15  1  0  0  0  0
  6 41  1  0  0  0  0
  7 14  1  0  0  0  0
  7 16  1  0  0  0  0
  7 17  1  0  0  0  0
  8  9  1  0  0  0  0
  8 10  1  0  0  0  0
  8 31  1  0  0  0  0
  9 12  1  0  0  0  0
  9 32  1  0  0  0  0
 10 11  1  0  0  0  0
 10 33  1  0  0  0  0
 11 13  1  0  0  0  0
 11 34  1  0  0  0  0
 12 14  1  0  0  0  0
 12 35  1  0  0  0  0
 12 36  1  0  0  0  0
 13 37  1  0  0  0  0
 13 38  1  0  0  0  0
 15 18  1  0  0  0  0
 16 19  1  0  0  0  0
 16 42  1  0  0  0  0
 16 43  1  0  0  0  0
 17 44  1  0  0  0  0
 17 45  1  0  0  0  0
 17 46  1  0  0  0  0
 18 20  2  0  0  0  0
 18 21  1  0  0  0  0
 19 22  2  0  0  0  0
 19 23  1  0  0  0  0
 20 24  1  0  0  0  0
 20 47  1  0  0  0  0
 21 25  2  0  0  0  0
 21 48  1  0  0  0  0
 22 27  1  0  0  0  0
 22 49  1  0  0  0  0
 23 28  2  0  0  0  0
 23 50  1  0  0  0  0
 24 26  2  0  0  0  0
 24 51  1  0  0  0  0
 25 26  1  0  0  0  0
 25 52  1  0  0  0  0
 26 30  1  0  0  0  0
 27 29  2  0  0  0  0
 27 53  1  0  0  0  0
 28 29  1  0  0  0  0
 28 54  1  0  0  0  0
 29 55  1  0  0  0  0
 30 56  1  0  0  0  0
 30 57  1  0  0  0  0
 30 58  1  0  0  0  0
M  END
> <PUBCHEM_COMPOUND_CID>
25390222

> <PUBCHEM_CONFORMER_RMSD>
1.4

> <PUBCHEM_CONFORMER_DIVERSEORDER>
2
32
47
63
14
25
62
36
4
54
9
90
1
102
40
55
60
43
84
93
16
85
30
37
97
15
78
99
68
53
6
76
42
12
72
96
49
24
17
57
45
35
74
52
70
31
66
27
65
71
82
81
80
38
58
50
69
26
22
79
95
21
10
56
59
73
44
101
5
92
34
86
28
39
100
88
94
41
33
64
83
7
75
19
87
20
48
98
3
18
61
89
67
29
8
13
46
11
77
91
23
51

> <PUBCHEM_MMFF94_PARTIAL_CHARGES>
42
1 -0.56
10 0.28
11 0.28
12 0.06
13 0.3
14 0.57
15 0.54
16 0.44
17 0.3
18 0.09
19 -0.14
2 -0.68
20 -0.15
21 -0.15
22 -0.15
23 -0.15
24 -0.15
25 -0.15
26 -0.14
27 -0.15
28 -0.15
29 -0.15
3 -0.68
30 0.14
39 0.4
4 -0.57
40 0.4
41 0.37
47 0.15
48 0.15
49 0.15
5 -0.57
50 0.15
51 0.15
52 0.15
53 0.15
54 0.15
55 0.15
6 -0.73
7 -0.66
8 0.28
9 0.28

> <PUBCHEM_EFFECTIVE_ROTOR_COUNT>
10

> <PUBCHEM_PHARMACOPHORE_FEATURES>
11
1 1 acceptor
1 2 acceptor
1 2 donor
1 3 acceptor
1 3 donor
1 4 acceptor
1 5 acceptor
1 6 donor
5 1 8 9 10 11 rings
6 18 20 21 24 25 26 rings
6 19 22 23 27 28 29 rings

> <PUBCHEM_HEAVY_ATOM_COUNT>
30

> <PUBCHEM_ATOM_DEF_STEREO_COUNT>
4

> <PUBCHEM_ATOM_UDEF_STEREO_COUNT>
0

> <PUBCHEM_BOND_DEF_STEREO_COUNT>
0

> <PUBCHEM_BOND_UDEF_STEREO_COUNT>
0

> <PUBCHEM_ISOTOPIC_ATOM_COUNT>
0

> <PUBCHEM_COMPONENT_COUNT>
1

> <PUBCHEM_CACTVS_TAUTO_COUNT>
5

> <PUBCHEM_CONFORMER_ID>
01836C8E00000002

> <PUBCHEM_MMFF94_ENERGY>
78.2321

> <PUBCHEM_FEATURE_SELFOVERLAP>
55.835

> <PUBCHEM_SHAPE_FINGERPRINT>
11112241 14 17772736398300987168
11370993 70 17768248273419360200
12166972 35 17459195088669165626
12422481 6 18046876485961782192
12522641 24 18271820055503646907
12597179 24 18196080273917353072
12788726 201 18125167026464698892
13402501 40 18334579079177763220
13617811 41 17168142309229266941
14251757 17 18333734593806943760
14790565 3 17179396686623219109
14932702 115 17684411530067477036
20600515 1 15950151465302229034
20691752 17 17168135797320080939
20715895 44 16304557095728212221
20764821 26 18114460184054551582
20905425 154 18117547655597165914
22182313 1 18041264548469356669
23559900 14 18334296491272397157
238918 7 18049722120505982154
35225 105 16545820153552063316
3524813 1 18187367631692663238
437795 51 18270972353255381652
469060 322 16664067899943576378
508706 21 17968092083810873435
5265222 85 17687477071671185956
5895379 119 17058114115791174217
6287921 2 18341325690968538555

> <PUBCHEM_SHAPE_MULTIPOLES>
578.08
9
4.22
2.11
7.05
1.74
0.1
-1.02
0.93
-4.14
-1.35
-0.86
0.03
2.37

> <PUBCHEM_SHAPE_SELFOVERLAP>
1223.252

> <PUBCHEM_SHAPE_VOLUME>
323.3

> <PUBCHEM_COORDINATE_TYPE>
2
5
10

$$$$
