75537103
  -OEChem-12032416333D

 44 47  0     1  0  0  0  0  0999 V2000
    5.4696    1.1380   -0.0748 O   0  0  0  0  0  0  0  0  0  0  0  0
    3.1648    0.6835   -0.0931 N   0  0  0  0  0  0  0  0  0  0  0  0
    0.4923    0.6328    0.7822 N   0  0  2  0  0  0  0  0  0  0  0  0
    4.5765   -0.9513   -0.7081 N   0  0  0  0  0  0  0  0  0  0  0  0
   -3.3121   -1.6913    0.3475 N   0  0  0  0  0  0  0  0  0  0  0  0
    2.3032   -0.3952   -0.5299 C   0  0  2  0  0  0  0  0  0  0  0  0
    1.1919   -0.6351    0.4915 C   0  0  0  0  0  0  0  0  0  0  0  0
    3.2614   -1.5687   -0.7236 C   0  0  0  0  0  0  0  0  0  0  0  0
    2.5724    1.9257    0.3575 C   0  0  0  0  0  0  0  0  0  0  0  0
    1.4270    1.6362    1.3309 C   0  0  0  0  0  0  0  0  0  0  0  0
    4.5229    0.3876   -0.2710 C   0  0  0  0  0  0  0  0  0  0  0  0
   -0.6123    0.4030    1.7131 C   0  0  0  0  0  0  0  0  0  0  0  0
   -1.8039   -0.2117    1.0283 C   0  0  0  0  0  0  0  0  0  0  0  0
    5.7812   -1.7072   -0.9708 C   0  0  0  0  0  0  0  0  0  0  0  0
   -2.7374    0.4585    0.1891 C   0  0  0  0  0  0  0  0  0  0  0  0
   -2.1838   -1.5318    1.1064 C   0  0  0  0  0  0  0  0  0  0  0  0
   -3.6729   -0.4922   -0.2246 C   0  0  0  0  0  0  0  0  0  0  0  0
   -2.8765    1.7869   -0.2599 C   0  0  0  0  0  0  0  0  0  0  0  0
   -4.7450   -0.1797   -1.0679 C   0  0  0  0  0  0  0  0  0  0  0  0
   -4.0123   -2.9465    0.1814 C   0  0  0  0  0  0  0  0  0  0  0  0
   -3.9440    2.1142   -1.1038 C   0  0  0  0  0  0  0  0  0  0  0  0
   -4.8627    1.1444   -1.5005 C   0  0  0  0  0  0  0  0  0  0  0  0
    1.8775   -0.0941   -1.4962 H   0  0  0  0  0  0  0  0  0  0  0  0
    0.5068   -1.3796    0.0714 H   0  0  0  0  0  0  0  0  0  0  0  0
    1.6100   -1.0564    1.4160 H   0  0  0  0  0  0  0  0  0  0  0  0
    3.2152   -2.2953    0.0941 H   0  0  0  0  0  0  0  0  0  0  0  0
    3.0989   -2.0795   -1.6774 H   0  0  0  0  0  0  0  0  0  0  0  0
    2.2001    2.4493   -0.5305 H   0  0  0  0  0  0  0  0  0  0  0  0
    3.3405    2.5511    0.8232 H   0  0  0  0  0  0  0  0  0  0  0  0
    1.8402    1.2833    2.2854 H   0  0  0  0  0  0  0  0  0  0  0  0
    0.9004    2.5777    1.5277 H   0  0  0  0  0  0  0  0  0  0  0  0
   -0.9547    1.3576    2.1361 H   0  0  0  0  0  0  0  0  0  0  0  0
   -0.3006   -0.2093    2.5699 H   0  0  0  0  0  0  0  0  0  0  0  0
    5.8720   -2.4956   -0.2189 H   0  0  0  0  0  0  0  0  0  0  0  0
    6.6564   -1.0547   -0.9200 H   0  0  0  0  0  0  0  0  0  0  0  0
    5.7097   -2.1516   -1.9668 H   0  0  0  0  0  0  0  0  0  0  0  0
   -1.7432   -2.3647    1.6383 H   0  0  0  0  0  0  0  0  0  0  0  0
   -2.1689    2.5549    0.0395 H   0  0  0  0  0  0  0  0  0  0  0  0
   -5.4637   -0.9299   -1.3804 H   0  0  0  0  0  0  0  0  0  0  0  0
   -5.0327   -2.8242    0.5536 H   0  0  0  0  0  0  0  0  0  0  0  0
   -4.0147   -3.2021   -0.8812 H   0  0  0  0  0  0  0  0  0  0  0  0
   -3.5030   -3.7296    0.7490 H   0  0  0  0  0  0  0  0  0  0  0  0
   -4.0562    3.1371   -1.4533 H   0  0  0  0  0  0  0  0  0  0  0  0
   -5.6843    1.4206   -2.1565 H   0  0  0  0  0  0  0  0  0  0  0  0
  1 11  2  0  0  0  0
  2  6  1  0  0  0  0
  2  9  1  0  0  0  0
  2 11  1  0  0  0  0
  3  7  1  0  0  0  0
  3 10  1  0  0  0  0
  3 12  1  0  0  0  0
  4  8  1  0  0  0  0
  4 11  1  0  0  0  0
  4 14  1  0  0  0  0
  5 16  1  0  0  0  0
  5 17  1  0  0  0  0
  5 20  1  0  0  0  0
  6  7  1  0  0  0  0
  6  8  1  0  0  0  0
  6 23  1  0  0  0  0
  7 24  1  0  0  0  0
  7 25  1  0  0  0  0
  8 26  1  0  0  0  0
  8 27  1  0  0  0  0
  9 10  1  0  0  0  0
  9 28  1  0  0  0  0
  9 29  1  0  0  0  0
 10 30  1  0  0  0  0
 10 31  1  0  0  0  0
 12 13  1  0  0  0  0
 12 32  1  0  0  0  0
 12 33  1  0  0  0  0
 13 15  1  0  0  0  0
 13 16  2  0  0  0  0
 14 34  1  0  0  0  0
 14 35  1  0  0  0  0
 14 36  1  0  0  0  0
 15 17  1  0  0  0  0
 15 18  2  0  0  0  0
 16 37  1  0  0  0  0
 17 19  2  0  0  0  0
 18 21  1  0  0  0  0
 18 38  1  0  0  0  0
 19 22  1  0  0  0  0
 19 39  1  0  0  0  0
 20 40  1  0  0  0  0
 20 41  1  0  0  0  0
 20 42  1  0  0  0  0
 21 22  2  0  0  0  0
 21 43  1  0  0  0  0
 22 44  1  0  0  0  0
M  END
> <PUBCHEM_COMPOUND_CID>
75537103

> <PUBCHEM_CONFORMER_RMSD>
0.6

> <PUBCHEM_CONFORMER_DIVERSEORDER>
1
45
39
26
38
17
7
40
46
41
19
33
27
47
23
36
31
37
13
28
34
18
35
42
49
43
14
3
9
29
21
5
11
30
8
6
2
24
25
48
12
20
4
32
22
16
44
10
15

> <PUBCHEM_MMFF94_PARTIAL_CHARGES>
26
1 -0.57
10 0.27
11 0.69
12 0.45
13 -0.18
14 0.3
16 -0.3
17 -0.15
18 -0.15
19 -0.15
2 -0.66
20 0.26
21 -0.15
22 -0.15
3 -0.81
37 0.15
38 0.15
39 0.15
4 -0.66
43 0.15
44 0.15
5 0.05
6 0.3
7 0.27
8 0.3
9 0.3

> <PUBCHEM_EFFECTIVE_ROTOR_COUNT>
3.2

> <PUBCHEM_PHARMACOPHORE_FEATURES>
7
1 1 acceptor
1 3 cation
1 5 cation
5 2 4 6 8 11 rings
5 5 13 15 16 17 rings
6 15 17 18 19 21 22 rings
6 2 3 6 7 9 10 rings

> <PUBCHEM_HEAVY_ATOM_COUNT>
22

> <PUBCHEM_ATOM_DEF_STEREO_COUNT>
1

> <PUBCHEM_ATOM_UDEF_STEREO_COUNT>
0

> <PUBCHEM_BOND_DEF_STEREO_COUNT>
0

> <PUBCHEM_BOND_UDEF_STEREO_COUNT>
0

> <PUBCHEM_ISOTOPIC_ATOM_COUNT>
0

> <PUBCHEM_COMPONENT_COUNT>
1

> <PUBCHEM_CACTVS_TAUTO_COUNT>
1

> <PUBCHEM_CONFORMER_ID>
04809ACF00000001

> <PUBCHEM_MMFF94_ENERGY>
45.5171

> <PUBCHEM_FEATURE_SELFOVERLAP>
35.709

> <PUBCHEM_SHAPE_FINGERPRINT>
10447042 23 17917991664265628188
10498660 4 17749658620017877357
10670039 82 17313943005089973365
10730089 88 18410011014161296789
10803635 8 18335139752282085711
10835480 77 18342170081597188400
11796584 16 18335698317664696314
12788726 201 17272292336609704257
12892183 10 10303816475206071880
13544653 18 17060063614299633146
13944108 23 16674698820439386429
14251764 38 17604718913948215860
14341114 328 12607400001336973050
14573314 32 18334857216696002716
15183329 4 18262233313781621974
15788980 27 17967819344760544170
15961568 22 17606396807426366868
16126227 98 9653276145169600650
17349148 13 16128657457313011148
17870717 6 18410862036055609503
1813 80 14836405851945400288
18186145 218 18410009940392924009
18222031 100 16558751200732241144
19377110 9 13686288098264094242
19433438 38 18410577322404480298
19784866 240 16128647557798567717
200 152 17418374692462783713
20645477 70 18060704979100027462
21033650 10 17749675090916835392
21065201 7 18260542359376879459
21756936 100 16008756783735304505
221357 26 18341887485739242133
221490 88 18270403909500140082
22393880 68 18335417967589595890
23402539 116 17385720313993982164
23557571 272 18188205537157592153
23559900 14 18412537734451881936
23596394 208 18413385436694904434
27216 239 7853575691054783459
3004659 81 18335702694431341542
312423 11 13614232750019198227
314194 84 17203611484546108534
4028521 119 18040710347274854229
44062 13 18410855460366097399
46194498 28 18190184666166125940
4921388 177 18040441022755336411
5104073 3 17917721180015601546
5161694 15 18408041805709720929
5281201 14 18336270136108197220
5283173 99 18335981961336160028
633830 44 16153719729878351294
9709674 26 18264488558443999883

> <PUBCHEM_SHAPE_MULTIPOLES>
426.96
12.57
2.41
1.32
8.58
0.67
-0.14
1.77
5.92
-1.45
0.06
-0.61
-0.18
2.08

> <PUBCHEM_SHAPE_SELFOVERLAP>
924.424

> <PUBCHEM_SHAPE_VOLUME>
238.1

> <PUBCHEM_COORDINATE_TYPE>
2
5
10

$$$$
