26763567
  -OEChem-12032416133D

 61 64  0     1  0  0  0  0  0999 V2000
    8.3947    1.3168   -1.5198 Cl  0  0  0  0  0  0  0  0  0  0  0  0
   -5.5991   -0.4593    1.5532 O   0  0  0  0  0  0  0  0  0  0  0  0
   -2.6211    1.9910    0.6949 O   0  0  0  0  0  0  0  0  0  0  0  0
    0.6118   -0.9498   -2.2787 O   0  0  0  0  0  0  0  0  0  0  0  0
    4.3665   -1.9741    1.2099 O   0  0  0  0  0  0  0  0  0  0  0  0
   -3.9127   -0.6071   -0.0402 N   0  0  0  0  0  0  0  0  0  0  0  0
   -1.1094   -0.5338   -0.7902 N   0  0  0  0  0  0  0  0  0  0  0  0
   -0.3529    2.0153    0.5080 N   0  0  0  0  0  0  0  0  0  0  0  0
   -1.5236   -0.1547    0.5535 C   0  0  2  0  0  0  0  0  0  0  0  0
   -2.8592   -0.7893    0.9617 C   0  0  0  0  0  0  0  0  0  0  0  0
   -3.4945   -0.5983   -1.4449 C   0  0  0  0  0  0  0  0  0  0  0  0
   -2.1053   -1.1872   -1.6403 C   0  0  0  0  0  0  0  0  0  0  0  0
   -7.6838   -0.0605   -0.1767 C   0  0  0  0  0  0  0  0  0  0  0  0
   -6.2605   -0.2760   -0.7202 C   0  0  0  0  0  0  0  0  0  0  0  0
   -5.2368   -0.4534    0.3745 C   0  0  0  0  0  0  0  0  0  0  0  0
   -1.5675    1.3653    0.5614 C   0  0  0  0  0  0  0  0  0  0  0  0
    0.2120   -0.4607   -1.2210 C   0  0  0  0  0  0  0  0  0  0  0  0
    1.2025    0.2696   -0.3856 C   0  0  0  0  0  0  0  0  0  0  0  0
   -8.1392   -1.2552    0.6786 C   0  0  0  0  0  0  0  0  0  0  0  0
   -8.6881    0.1615   -1.3205 C   0  0  0  0  0  0  0  0  0  0  0  0
   -7.6637    1.1987    0.7101 C   0  0  0  0  0  0  0  0  0  0  0  0
    0.9275    1.4573    0.3115 C   0  0  0  0  0  0  0  0  0  0  0  0
    2.5302   -0.1894   -0.4677 C   0  0  0  0  0  0  0  0  0  0  0  0
    1.9976    2.1938    0.8493 C   0  0  0  0  0  0  0  0  0  0  0  0
    3.5740    0.5289    0.1142 C   0  0  0  0  0  0  0  0  0  0  0  0
    3.3092    1.7286    0.7614 C   0  0  0  0  0  0  0  0  0  0  0  0
    4.9321    0.0385    0.0231 C   0  0  0  0  0  0  0  0  0  0  0  0
    5.2855   -1.1942    0.5720 C   0  0  0  0  0  0  0  0  0  0  0  0
    5.8934    0.8152   -0.6238 C   0  0  0  0  0  0  0  0  0  0  0  0
    6.6002   -1.6501    0.4742 C   0  0  0  0  0  0  0  0  0  0  0  0
    7.2080    0.3593   -0.7218 C   0  0  0  0  0  0  0  0  0  0  0  0
    7.5614   -0.8734   -0.1729 C   0  0  0  0  0  0  0  0  0  0  0  0
    4.2108   -1.7733    2.6129 C   0  0  0  0  0  0  0  0  0  0  0  0
   -0.7634   -0.4804    1.2744 H   0  0  0  0  0  0  0  0  0  0  0  0
   -2.7337   -1.8731    1.0780 H   0  0  0  0  0  0  0  0  0  0  0  0
   -3.1912   -0.3987    1.9303 H   0  0  0  0  0  0  0  0  0  0  0  0
   -3.5144    0.4470   -1.7754 H   0  0  0  0  0  0  0  0  0  0  0  0
   -4.2130   -1.1539   -2.0533 H   0  0  0  0  0  0  0  0  0  0  0  0
   -2.0979   -2.2523   -1.3778 H   0  0  0  0  0  0  0  0  0  0  0  0
   -1.8082   -1.1090   -2.6916 H   0  0  0  0  0  0  0  0  0  0  0  0
   -6.2567   -1.1749   -1.3478 H   0  0  0  0  0  0  0  0  0  0  0  0
   -5.9655    0.5756   -1.3453 H   0  0  0  0  0  0  0  0  0  0  0  0
   -7.6536   -1.3387    1.6526 H   0  0  0  0  0  0  0  0  0  0  0  0
   -7.9859   -2.1984    0.1420 H   0  0  0  0  0  0  0  0  0  0  0  0
   -9.2129   -1.1803    0.8922 H   0  0  0  0  0  0  0  0  0  0  0  0
   -8.4040    1.0257   -1.9313 H   0  0  0  0  0  0  0  0  0  0  0  0
   -8.7278   -0.7135   -1.9787 H   0  0  0  0  0  0  0  0  0  0  0  0
   -9.7001    0.3396   -0.9402 H   0  0  0  0  0  0  0  0  0  0  0  0
   -7.1567    2.0313    0.2086 H   0  0  0  0  0  0  0  0  0  0  0  0
   -7.2106    1.0679    1.6948 H   0  0  0  0  0  0  0  0  0  0  0  0
   -8.6902    1.5317    0.9111 H   0  0  0  0  0  0  0  0  0  0  0  0
   -0.3774    3.0064    0.7360 H   0  0  0  0  0  0  0  0  0  0  0  0
    2.7523   -1.1055   -1.0138 H   0  0  0  0  0  0  0  0  0  0  0  0
    1.8139    3.1297    1.3739 H   0  0  0  0  0  0  0  0  0  0  0  0
    4.1048    2.3144    1.2155 H   0  0  0  0  0  0  0  0  0  0  0  0
    5.6247    1.7753   -1.0607 H   0  0  0  0  0  0  0  0  0  0  0  0
    6.8830   -2.6097    0.8987 H   0  0  0  0  0  0  0  0  0  0  0  0
    8.5818   -1.2415   -0.2418 H   0  0  0  0  0  0  0  0  0  0  0  0
    3.4116   -2.4310    2.9655 H   0  0  0  0  0  0  0  0  0  0  0  0
    3.9333   -0.7383    2.8344 H   0  0  0  0  0  0  0  0  0  0  0  0
    5.1346   -2.0335    3.1394 H   0  0  0  0  0  0  0  0  0  0  0  0
  1 31  1  0  0  0  0
  2 15  2  0  0  0  0
  3 16  2  0  0  0  0
  4 17  2  0  0  0  0
  5 28  1  0  0  0  0
  5 33  1  0  0  0  0
  6 10  1  0  0  0  0
  6 11  1  0  0  0  0
  6 15  1  0  0  0  0
  7  9  1  0  0  0  0
  7 12  1  0  0  0  0
  7 17  1  0  0  0  0
  8 16  1  0  0  0  0
  8 22  1  0  0  0  0
  8 52  1  0  0  0  0
  9 10  1  0  0  0  0
  9 16  1  0  0  0  0
  9 34  1  0  0  0  0
 10 35  1  0  0  0  0
 10 36  1  0  0  0  0
 11 12  1  0  0  0  0
 11 37  1  0  0  0  0
 11 38  1  0  0  0  0
 12 39  1  0  0  0  0
 12 40  1  0  0  0  0
 13 14  1  0  0  0  0
 13 19  1  0  0  0  0
 13 20  1  0  0  0  0
 13 21  1  0  0  0  0
 14 15  1  0  0  0  0
 14 41  1  0  0  0  0
 14 42  1  0  0  0  0
 17 18  1  0  0  0  0
 18 22  2  0  0  0  0
 18 23  1  0  0  0  0
 19 43  1  0  0  0  0
 19 44  1  0  0  0  0
 19 45  1  0  0  0  0
 20 46  1  0  0  0  0
 20 47  1  0  0  0  0
 20 48  1  0  0  0  0
 21 49  1  0  0  0  0
 21 50  1  0  0  0  0
 21 51  1  0  0  0  0
 22 24  1  0  0  0  0
 23 25  2  0  0  0  0
 23 53  1  0  0  0  0
 24 26  2  0  0  0  0
 24 54  1  0  0  0  0
 25 26  1  0  0  0  0
 25 27  1  0  0  0  0
 26 55  1  0  0  0  0
 27 28  2  0  0  0  0
 27 29  1  0  0  0  0
 28 30  1  0  0  0  0
 29 31  2  0  0  0  0
 29 56  1  0  0  0  0
 30 32  2  0  0  0  0
 30 57  1  0  0  0  0
 31 32  1  0  0  0  0
 32 58  1  0  0  0  0
 33 59  1  0  0  0  0
 33 60  1  0  0  0  0
 33 61  1  0  0  0  0
M  END
> <PUBCHEM_COMPOUND_CID>
26763567

> <PUBCHEM_CONFORMER_RMSD>
0.8

> <PUBCHEM_CONFORMER_DIVERSEORDER>
1
4
50
43
57
23
38
66
72
24
34
73
48
27
39
45
51
41
14
16
75
17
54
68
46
6
36
26
74
60
33
69
61
42
25
52
3
15
13
58
19
55
20
30
77
47
71
70
28
18
53
32
40
22
12
49
10
67
65
2
63
7
76
56
21
62
44
29
59
31
64
35
11
5
8
9
37

> <PUBCHEM_MMFF94_PARTIAL_CHARGES>
34
1 -0.18
10 0.3
11 0.3
12 0.3
14 0.06
15 0.57
16 0.57
17 0.54
18 0.09
2 -0.57
22 0.12
23 -0.15
24 -0.15
26 -0.15
28 0.08
29 -0.15
3 -0.57
30 -0.15
31 0.18
32 -0.15
33 0.28
4 -0.57
5 -0.36
52 0.37
53 0.15
54 0.15
55 0.15
56 0.15
57 0.15
58 0.15
6 -0.66
7 -0.66
8 -0.55
9 0.36

> <PUBCHEM_EFFECTIVE_ROTOR_COUNT>
6

> <PUBCHEM_PHARMACOPHORE_FEATURES>
10
1 2 acceptor
1 3 acceptor
1 4 acceptor
1 5 acceptor
1 8 donor
4 13 19 20 21 hydrophobe
6 18 22 23 24 25 26 rings
6 27 28 29 30 31 32 rings
6 6 7 9 10 11 12 rings
7 7 8 9 16 17 18 22 rings

> <PUBCHEM_HEAVY_ATOM_COUNT>
33

> <PUBCHEM_ATOM_DEF_STEREO_COUNT>
1

> <PUBCHEM_ATOM_UDEF_STEREO_COUNT>
0

> <PUBCHEM_BOND_DEF_STEREO_COUNT>
0

> <PUBCHEM_BOND_UDEF_STEREO_COUNT>
0

> <PUBCHEM_ISOTOPIC_ATOM_COUNT>
0

> <PUBCHEM_COMPONENT_COUNT>
1

> <PUBCHEM_CACTVS_TAUTO_COUNT>
9

> <PUBCHEM_CONFORMER_ID>
0198612F00000001

> <PUBCHEM_MMFF94_ENERGY>
131.6977

> <PUBCHEM_FEATURE_SELFOVERLAP>
50.775

> <PUBCHEM_SHAPE_FINGERPRINT>
10299344 5 18334295370380410183
11135609 127 17168433787184550012
11135926 11 17060336311001410591
11181472 205 18261958427554301725
11409948 35 17750504092994155603
11456790 92 17703519865653611515
117089 54 18052542067717585114
11719270 70 17632859724476130983
11828532 37 15266770143607085527
12107698 1 18342176661159798097
12592606 108 18273212023791051463
12741549 16 17385995184002849004
13533116 47 18260259724922867106
13692114 37 15841260536650032279
13914758 101 18201721730613683345
13947947 19 17774439498482749244
14117953 113 17561085808611947133
14251764 18 18342459235690035409
14294032 229 17488756571036107129
15131766 46 17978507868967331365
15183329 4 18408881824520320353
15301273 46 17458061564815168519
15352257 5 17530964696254014283
15439362 3 17900830663116832924
15461852 350 15410612614597766965
16090146 7 16371020567957054921
16728300 4 18122612865212062334
18608769 82 16950566609811844635
19301679 30 18127974114290114030
19315958 150 17458349636787968274
19319366 153 18186513312065840466
21150785 3 16298386859521333316
21267235 1 18273218595048699180
21781055 127 15984005728858380057
21792934 111 18202272603203867448
21792961 116 18334569101531034604
22224240 67 16343702131685274727
22311459 1 17989208148354940839
22956985 138 17628087685404326982
23516275 137 18189070715254856618
23522609 53 18127160599765429816
23559900 14 18041561459310882096
23569917 315 17203333355502410223
24893992 56 16630240394946614147
249057 3 17775566476589581839
3004659 81 18201718478727614208
335352 9 17989207074755834157
34797466 226 16515406283501610342
3633792 109 17458063746442289749
4017518 198 16272217400643608420
4073 2 18042407013474320507
4098825 35 17603863377689294733
4149490 64 16660639644975346018
4258327 124 10951470661500867226
439807 62 18259983752347557226
5104073 3 17631165466830048027
5758199 1 12107783000160297965
59755656 215 16630536124307487470
6081469 158 18040713649577073948
6691757 9 16200158733318211735
9663363 56 18272085003282586872

> <PUBCHEM_SHAPE_MULTIPOLES>
642.57
25.58
1.84
1.6
16.74
0.23
0.1
-2.51
2.98
-1.99
-0.78
-0.18
-0.43
-1.53

> <PUBCHEM_SHAPE_SELFOVERLAP>
1382.029

> <PUBCHEM_SHAPE_VOLUME>
354

> <PUBCHEM_COORDINATE_TYPE>
2
5
10

$$$$
