51137588
  -OEChem-12032416233D

 50 53  0     1  0  0  0  0  0999 V2000
    9.9923    1.3033    0.4249 F   0  0  0  0  0  0  0  0  0  0  0  0
    1.8166   -0.2606    0.3619 O   0  0  0  0  0  0  0  0  0  0  0  0
    4.7060    0.0709   -0.4363 O   0  0  0  0  0  0  0  0  0  0  0  0
   -8.9634    1.5710    0.0588 O   0  0  0  0  0  0  0  0  0  0  0  0
   -2.9163   -0.3279    0.3155 N   0  0  1  0  0  0  0  0  0  0  0  0
    0.8915   -1.9867   -0.7192 N   0  0  0  0  0  0  0  0  0  0  0  0
    2.2480   -2.2291   -0.6094 N   0  0  0  0  0  0  0  0  0  0  0  0
   -0.6025   -0.0583    0.0451 C   0  0  1  0  0  0  0  0  0  0  0  0
   -1.3210    0.3214   -1.2613 C   0  0  0  0  0  0  0  0  0  0  0  0
   -1.6516   -0.8323    0.8547 C   0  0  0  0  0  0  0  0  0  0  0  0
   -2.7155   -0.2779   -1.1327 C   0  0  0  0  0  0  0  0  0  0  0  0
   -4.0504   -1.1600    0.6892 C   0  0  0  0  0  0  0  0  0  0  0  0
    0.6851   -0.8277   -0.1388 C   0  0  0  0  0  0  0  0  0  0  0  0
   -5.3583   -0.4331    0.5220 C   0  0  0  0  0  0  0  0  0  0  0  0
   -5.7481    0.5263    1.4566 C   0  0  0  0  0  0  0  0  0  0  0  0
   -6.1802   -0.7191   -0.5682 C   0  0  0  0  0  0  0  0  0  0  0  0
    2.7473   -1.1959    0.0278 C   0  0  0  0  0  0  0  0  0  0  0  0
   -6.9597    1.1995    1.3012 C   0  0  0  0  0  0  0  0  0  0  0  0
   -7.3918   -0.0459   -0.7237 C   0  0  0  0  0  0  0  0  0  0  0  0
    4.1349   -0.9208    0.4214 C   0  0  0  0  0  0  0  0  0  0  0  0
   -7.7817    0.9134    0.2110 C   0  0  0  0  0  0  0  0  0  0  0  0
    6.0206    0.3773   -0.2221 C   0  0  0  0  0  0  0  0  0  0  0  0
   -9.7548    1.2293   -1.0783 C   0  0  0  0  0  0  0  0  0  0  0  0
    6.7310   -0.2672    0.7906 C   0  0  0  0  0  0  0  0  0  0  0  0
    6.6521    1.3344   -1.0165 C   0  0  0  0  0  0  0  0  0  0  0  0
    8.0725    0.0456    1.0092 C   0  0  0  0  0  0  0  0  0  0  0  0
    7.9936    1.6473   -0.7979 C   0  0  0  0  0  0  0  0  0  0  0  0
    8.7039    1.0028    0.2149 C   0  0  0  0  0  0  0  0  0  0  0  0
   -0.3676    0.8744    0.5776 H   0  0  0  0  0  0  0  0  0  0  0  0
   -0.8115   -0.0437   -2.1593 H   0  0  0  0  0  0  0  0  0  0  0  0
   -1.3861    1.4142   -1.3362 H   0  0  0  0  0  0  0  0  0  0  0  0
   -1.5566   -0.6274    1.9266 H   0  0  0  0  0  0  0  0  0  0  0  0
   -1.5542   -1.9155    0.7016 H   0  0  0  0  0  0  0  0  0  0  0  0
   -3.4583    0.3454   -1.6403 H   0  0  0  0  0  0  0  0  0  0  0  0
   -2.7289   -1.2785   -1.5839 H   0  0  0  0  0  0  0  0  0  0  0  0
   -4.0593   -2.1152    0.1468 H   0  0  0  0  0  0  0  0  0  0  0  0
   -3.9759   -1.4351    1.7509 H   0  0  0  0  0  0  0  0  0  0  0  0
   -5.1163    0.7581    2.3101 H   0  0  0  0  0  0  0  0  0  0  0  0
   -5.8865   -1.4633   -1.3038 H   0  0  0  0  0  0  0  0  0  0  0  0
   -7.2579    1.9460    2.0323 H   0  0  0  0  0  0  0  0  0  0  0  0
   -7.9810   -0.3165   -1.5932 H   0  0  0  0  0  0  0  0  0  0  0  0
    4.6888   -1.8641    0.3350 H   0  0  0  0  0  0  0  0  0  0  0  0
    4.1378   -0.5722    1.4617 H   0  0  0  0  0  0  0  0  0  0  0  0
   -9.2401    1.4719   -2.0143 H   0  0  0  0  0  0  0  0  0  0  0  0
  -10.0807    0.1842   -1.0424 H   0  0  0  0  0  0  0  0  0  0  0  0
  -10.6580    1.8471   -1.0409 H   0  0  0  0  0  0  0  0  0  0  0  0
    6.3077   -1.0160    1.4507 H   0  0  0  0  0  0  0  0  0  0  0  0
    6.1038    1.8396   -1.8070 H   0  0  0  0  0  0  0  0  0  0  0  0
    8.6268   -0.4544    1.7982 H   0  0  0  0  0  0  0  0  0  0  0  0
    8.4855    2.3925   -1.4161 H   0  0  0  0  0  0  0  0  0  0  0  0
  1 28  1  0  0  0  0
  2 13  1  0  0  0  0
  2 17  1  0  0  0  0
  3 20  1  0  0  0  0
  3 22  1  0  0  0  0
  4 21  1  0  0  0  0
  4 23  1  0  0  0  0
  5 10  1  0  0  0  0
  5 11  1  0  0  0  0
  5 12  1  0  0  0  0
  6  7  1  0  0  0  0
  6 13  2  0  0  0  0
  7 17  2  0  0  0  0
  8  9  1  0  0  0  0
  8 10  1  0  0  0  0
  8 13  1  0  0  0  0
  8 29  1  0  0  0  0
  9 11  1  0  0  0  0
  9 30  1  0  0  0  0
  9 31  1  0  0  0  0
 10 32  1  0  0  0  0
 10 33  1  0  0  0  0
 11 34  1  0  0  0  0
 11 35  1  0  0  0  0
 12 14  1  0  0  0  0
 12 36  1  0  0  0  0
 12 37  1  0  0  0  0
 14 15  2  0  0  0  0
 14 16  1  0  0  0  0
 15 18  1  0  0  0  0
 15 38  1  0  0  0  0
 16 19  2  0  0  0  0
 16 39  1  0  0  0  0
 17 20  1  0  0  0  0
 18 21  2  0  0  0  0
 18 40  1  0  0  0  0
 19 21  1  0  0  0  0
 19 41  1  0  0  0  0
 20 42  1  0  0  0  0
 20 43  1  0  0  0  0
 22 24  2  0  0  0  0
 22 25  1  0  0  0  0
 23 44  1  0  0  0  0
 23 45  1  0  0  0  0
 23 46  1  0  0  0  0
 24 26  1  0  0  0  0
 24 47  1  0  0  0  0
 25 27  2  0  0  0  0
 25 48  1  0  0  0  0
 26 28  2  0  0  0  0
 26 49  1  0  0  0  0
 27 28  1  0  0  0  0
 27 50  1  0  0  0  0
M  END
> <PUBCHEM_COMPOUND_CID>
51137588

> <PUBCHEM_CONFORMER_RMSD>
1.2

> <PUBCHEM_CONFORMER_DIVERSEORDER>
1
26
19
43
84
56
39
38
57
76
25
73
28
96
22
69
50
93
17
97
24
95
20
74
75
77
33
16
87
91
83
9
65
53
36
21
7
52
78
88
94
59
80
90
32
42
10
61
4
81
72
11
68
41
46
13
3
62
48
23
92
12
51
8
86
35
34
29
30
67
15
85
64
45
18
14
49
31
79
27
63
89
2
47
60
6
82
5
55
37
58
66
98
54
71
70
44
40

> <PUBCHEM_MMFF94_PARTIAL_CHARGES>
35
1 -0.19
10 0.27
11 0.27
12 0.41
13 0.3
14 -0.14
15 -0.15
16 -0.15
17 0.3
18 -0.15
19 -0.15
2 -0.28
20 0.46
21 0.08
22 0.08
23 0.28
24 -0.15
25 -0.15
26 -0.15
27 -0.15
28 0.19
3 -0.36
38 0.15
39 0.15
4 -0.36
40 0.15
41 0.15
47 0.15
48 0.15
49 0.15
5 -0.81
50 0.15
6 -0.34
7 -0.34
8 0.18

> <PUBCHEM_EFFECTIVE_ROTOR_COUNT>
8

> <PUBCHEM_PHARMACOPHORE_FEATURES>
7
1 3 acceptor
1 4 acceptor
1 5 cation
5 2 6 7 13 17 rings
5 5 8 9 10 11 rings
6 14 15 16 18 19 21 rings
6 22 24 25 26 27 28 rings

> <PUBCHEM_HEAVY_ATOM_COUNT>
28

> <PUBCHEM_ATOM_DEF_STEREO_COUNT>
1

> <PUBCHEM_ATOM_UDEF_STEREO_COUNT>
0

> <PUBCHEM_BOND_DEF_STEREO_COUNT>
0

> <PUBCHEM_BOND_UDEF_STEREO_COUNT>
0

> <PUBCHEM_ISOTOPIC_ATOM_COUNT>
0

> <PUBCHEM_COMPONENT_COUNT>
1

> <PUBCHEM_CACTVS_TAUTO_COUNT>
1

> <PUBCHEM_CONFORMER_ID>
030C4C3400000001

> <PUBCHEM_MMFF94_ENERGY>
74.2416

> <PUBCHEM_FEATURE_SELFOVERLAP>
35.523

> <PUBCHEM_SHAPE_FINGERPRINT>
10 15 17821447958513196948
10054150 59 16047555526082902791
10076449 9 11383834869875738603
10533779 47 16226043350117335472
10670039 82 13973693801803262195
10904742 90 17775284967475166414
11135926 11 14273729681662752195
11315181 36 18273217491985753499
11386260 185 14333117585981317714
11463208 3 10375863096463194565
11578821 258 18412263901035250857
11638347 137 15646766783126848744
12082328 90 12175628356535589891
12522641 33 18131636682322889942
12592606 108 9655578513399591084
12645989 146 10303806579976098555
12838862 33 18272925029686238072
13553643 46 17748824120230192124
14150022 121 18260828160035439213
14251764 46 18334011692269969642
14344974 52 16271635780657254136
14394314 77 17167860876795825747
14617042 71 18041848436906149068
150020 25 15626222442336619686
15198563 99 14117529696714081179
15461852 350 16200428079523049261
155225 1 18341894090839722248
15690457 1 7997973462425274464
15849732 13 15913328004659815928
17093844 174 17530687611471851435
1754908 1 15140965083929455656
1754911 235 17346598577517399857
1818759 1 7997971284418140536
19301679 30 11891590414210385448
19315958 150 18186523172466590435
195137 175 18201442463302981929
19841028 212 11675139459834691408
20105231 36 11599714096472744237
2026 5 9655315713152537316
21095086 128 10735872877145756057
21150785 3 15626222407913376361
21267235 1 8935000369412315139
21344244 246 10951785061750428684
21792934 111 16370444453933749989
22224240 67 18261111880936725130
23576562 1 16629665375644455001
246663 6 9727632812954873387
24771293 8 18341900662846657717
249057 3 14908176482591988976
306946 40 17676198054007476741
335352 9 12247678292757682724
4017518 198 15195285343682425181
4073 2 18411143528677224891
54039377 194 9223230749980073419
5758199 1 18342458144831951058
636775 72 18187927228168761173
636775 8 15913038855974019541
68570916 9 15937272146898373138
9663363 56 16732980926209189285
9953998 17 17385725824178657803

> <PUBCHEM_SHAPE_MULTIPOLES>
536.4
34.89
1.57
1.16
11.03
0.1
-0.06
-21.24
-2.45
0.64
0.24
-0.94
-0.12
-0.49

> <PUBCHEM_SHAPE_SELFOVERLAP>
1155.756

> <PUBCHEM_SHAPE_VOLUME>
299.3

> <PUBCHEM_COORDINATE_TYPE>
2
5
10

$$$$
