40533467
  -OEChem-12032416113D

 50 53  0     1  0  0  0  0  0999 V2000
   -1.5139    0.0695   -1.9812 O   0  0  0  0  0  0  0  0  0  0  0  0
    2.8643   -1.0718    1.9964 O   0  0  0  0  0  0  0  0  0  0  0  0
    2.9438    0.5582    0.3444 N   0  0  0  0  0  0  0  0  0  0  0  0
   -0.0187    1.2953   -0.6770 N   0  0  0  0  0  0  0  0  0  0  0  0
    3.3470   -1.7193   -0.1509 N   0  0  0  0  0  0  0  0  0  0  0  0
   -5.8572   -0.2546    0.2233 N   0  0  0  0  0  0  0  0  0  0  0  0
    2.2613    2.0633   -1.5477 C   0  0  1  0  0  0  0  0  0  0  0  0
    1.5864    2.6139    0.7466 C   0  0  2  0  0  0  0  0  0  0  0  0
    2.1053    3.2095   -0.5586 C   0  0  0  0  0  0  0  0  0  0  0  0
    3.2530    1.0073   -1.0221 C   0  0  0  0  0  0  0  0  0  0  0  0
    0.8788    1.4610   -1.8274 C   0  0  0  0  0  0  0  0  0  0  0  0
    2.6265    1.6258    1.3010 C   0  0  0  0  0  0  0  0  0  0  0  0
    0.2592    1.9077    0.5468 C   0  0  0  0  0  0  0  0  0  0  0  0
   -0.6331    1.8466    1.5480 C   0  0  0  0  0  0  0  0  0  0  0  0
   -1.2170    0.5905   -0.9047 C   0  0  0  0  0  0  0  0  0  0  0  0
    3.0377   -0.7656    0.8121 C   0  0  0  0  0  0  0  0  0  0  0  0
   -2.1805    0.5066    0.2484 C   0  0  0  0  0  0  0  0  0  0  0  0
   -1.8672    1.1297    1.3943 C   0  0  0  0  0  0  0  0  0  0  0  0
   -3.4411   -0.2474    0.1364 C   0  0  0  0  0  0  0  0  0  0  0  0
    3.4844   -3.1219    0.1721 C   0  0  0  0  0  0  0  0  0  0  0  0
    2.1364   -3.8262    0.0803 C   0  0  0  0  0  0  0  0  0  0  0  0
    4.5128   -3.7770   -0.7406 C   0  0  0  0  0  0  0  0  0  0  0  0
   -3.4400   -1.6084   -0.1486 C   0  0  0  0  0  0  0  0  0  0  0  0
   -4.6654    0.3774    0.3120 C   0  0  0  0  0  0  0  0  0  0  0  0
   -4.6462   -2.2931   -0.2480 C   0  0  0  0  0  0  0  0  0  0  0  0
   -5.8164   -1.5769   -0.0552 C   0  0  0  0  0  0  0  0  0  0  0  0
    2.6622    2.4490   -2.4934 H   0  0  0  0  0  0  0  0  0  0  0  0
    1.4646    3.4306    1.4702 H   0  0  0  0  0  0  0  0  0  0  0  0
    1.4092    3.9638   -0.9464 H   0  0  0  0  0  0  0  0  0  0  0  0
    3.0670    3.7118   -0.3980 H   0  0  0  0  0  0  0  0  0  0  0  0
    4.2565    1.4483   -0.9720 H   0  0  0  0  0  0  0  0  0  0  0  0
    3.3108    0.1933   -1.7428 H   0  0  0  0  0  0  0  0  0  0  0  0
    0.9775    0.4941   -2.3367 H   0  0  0  0  0  0  0  0  0  0  0  0
    0.3441    2.1174   -2.5276 H   0  0  0  0  0  0  0  0  0  0  0  0
    2.2818    1.2032    2.2514 H   0  0  0  0  0  0  0  0  0  0  0  0
    3.5675    2.1493    1.5114 H   0  0  0  0  0  0  0  0  0  0  0  0
   -0.4382    2.3055    2.5117 H   0  0  0  0  0  0  0  0  0  0  0  0
   -2.5205    1.0979    2.2613 H   0  0  0  0  0  0  0  0  0  0  0  0
    3.3613   -1.4890   -1.1336 H   0  0  0  0  0  0  0  0  0  0  0  0
    3.8446   -3.2048    1.2046 H   0  0  0  0  0  0  0  0  0  0  0  0
    1.7222   -3.7589   -0.9320 H   0  0  0  0  0  0  0  0  0  0  0  0
    1.4093   -3.3728    0.7629 H   0  0  0  0  0  0  0  0  0  0  0  0
    2.2293   -4.8855    0.3416 H   0  0  0  0  0  0  0  0  0  0  0  0
    4.2061   -3.7217   -1.7911 H   0  0  0  0  0  0  0  0  0  0  0  0
    5.4833   -3.2761   -0.6542 H   0  0  0  0  0  0  0  0  0  0  0  0
    4.6516   -4.8317   -0.4811 H   0  0  0  0  0  0  0  0  0  0  0  0
   -2.5090   -2.1509   -0.2915 H   0  0  0  0  0  0  0  0  0  0  0  0
   -4.7389    1.4387    0.5314 H   0  0  0  0  0  0  0  0  0  0  0  0
   -4.6694   -3.3542   -0.4683 H   0  0  0  0  0  0  0  0  0  0  0  0
   -6.7833   -2.0646   -0.1217 H   0  0  0  0  0  0  0  0  0  0  0  0
  1 15  2  0  0  0  0
  2 16  2  0  0  0  0
  3 10  1  0  0  0  0
  3 12  1  0  0  0  0
  3 16  1  0  0  0  0
  4 11  1  0  0  0  0
  4 13  1  0  0  0  0
  4 15  1  0  0  0  0
  5 16  1  0  0  0  0
  5 20  1  0  0  0  0
  5 39  1  0  0  0  0
  6 24  1  0  0  0  0
  6 26  2  0  0  0  0
  7  9  1  0  0  0  0
  7 10  1  0  0  0  0
  7 11  1  0  0  0  0
  7 27  1  0  0  0  0
  8  9  1  0  0  0  0
  8 12  1  0  0  0  0
  8 13  1  0  0  0  0
  8 28  1  0  0  0  0
  9 29  1  0  0  0  0
  9 30  1  0  0  0  0
 10 31  1  0  0  0  0
 10 32  1  0  0  0  0
 11 33  1  0  0  0  0
 11 34  1  0  0  0  0
 12 35  1  0  0  0  0
 12 36  1  0  0  0  0
 13 14  2  0  0  0  0
 14 18  1  0  0  0  0
 14 37  1  0  0  0  0
 15 17  1  0  0  0  0
 17 18  2  0  0  0  0
 17 19  1  0  0  0  0
 18 38  1  0  0  0  0
 19 23  1  0  0  0  0
 19 24  2  0  0  0  0
 20 21  1  0  0  0  0
 20 22  1  0  0  0  0
 20 40  1  0  0  0  0
 21 41  1  0  0  0  0
 21 42  1  0  0  0  0
 21 43  1  0  0  0  0
 22 44  1  0  0  0  0
 22 45  1  0  0  0  0
 22 46  1  0  0  0  0
 23 25  2  0  0  0  0
 23 47  1  0  0  0  0
 24 48  1  0  0  0  0
 25 26  1  0  0  0  0
 25 49  1  0  0  0  0
 26 50  1  0  0  0  0
M  END
> <PUBCHEM_COMPOUND_CID>
40533467

> <PUBCHEM_CONFORMER_RMSD>
0.8

> <PUBCHEM_CONFORMER_DIVERSEORDER>
1
10
5
7
4
6
2
9
8
3

> <PUBCHEM_MMFF94_PARTIAL_CHARGES>
29
1 -0.57
10 0.3
11 0.3
12 0.3
13 -0.03
14 -0.15
15 0.62
16 0.69
17 -0.01
18 -0.15
19 0.03
2 -0.57
20 0.3
23 -0.15
24 0.16
25 -0.15
26 0.16
3 -0.66
37 0.15
38 0.15
39 0.37
4 -0.47
47 0.15
48 0.15
49 0.15
5 -0.73
50 0.15
6 -0.62
8 0.14

> <PUBCHEM_EFFECTIVE_ROTOR_COUNT>
5

> <PUBCHEM_PHARMACOPHORE_FEATURES>
9
1 1 acceptor
1 2 acceptor
1 5 donor
1 6 acceptor
3 20 21 22 hydrophobe
6 3 7 8 9 10 12 rings
6 4 13 14 15 17 18 rings
6 4 7 8 9 11 13 rings
6 6 19 23 24 25 26 rings

> <PUBCHEM_HEAVY_ATOM_COUNT>
26

> <PUBCHEM_ATOM_DEF_STEREO_COUNT>
2

> <PUBCHEM_ATOM_UDEF_STEREO_COUNT>
0

> <PUBCHEM_BOND_DEF_STEREO_COUNT>
0

> <PUBCHEM_BOND_UDEF_STEREO_COUNT>
0

> <PUBCHEM_ISOTOPIC_ATOM_COUNT>
0

> <PUBCHEM_COMPONENT_COUNT>
1

> <PUBCHEM_CACTVS_TAUTO_COUNT>
6

> <PUBCHEM_CONFORMER_ID>
026A7DDB00000001

> <PUBCHEM_MMFF94_ENERGY>
65.4706

> <PUBCHEM_FEATURE_SELFOVERLAP>
47.221

> <PUBCHEM_SHAPE_FINGERPRINT>
10042902 136 18127140667211890798
10064457 181 17906165510064804228
10554248 39 18336818772101199061
114674 6 18260824908328191842
11796584 16 18269563891649682503
11954058 11 18341614793427307127
12107183 9 18125732188595498473
12969540 37 18339356371406904610
13135754 10 16769585682115703098
13383661 66 17257982532066682678
13533116 47 18412263969632466291
13583140 156 18129083671688191901
14251740 57 18413107260016401671
14251764 30 17842569452946811078
14863182 85 18337667637552897312
15250474 111 18197770219004963575
15475509 35 18199747128105761987
15664445 248 17313673770633029932
15848702 151 18113611318365676901
17492 54 17677635171307082158
17492 89 18411702097499792443
17818456 19 18268998579412137641
1813 80 18114743724667886170
20645477 70 18187081797250163961
20775530 9 18265606589876434110
21033648 29 14692298296580122403
21285901 2 17458335377575433293
21421861 104 18199209350696634291
23227448 37 8574129662454732809
23466295 7 17547855149235655726
23559900 14 18411696569802529283
238 59 18042415788403664480
239999 70 17773326835723485364
25222932 49 17628912623771755135
2838139 119 8141497108808306634
3004659 81 18335416893947492139
3421961 26 18413103948812335834
345986 75 17775288244445139803
3680242 22 18201453467183306699
404807 78 17176877095419332027
4072396 5 17346322592342258853
4340502 62 18124030401771836952
46194498 28 17676491678328121413
463206 1 18268427004747582851
484985 159 17471290656808419438
5309563 4 18267582407860574870
633830 44 16588016949058025037
6433294 58 18266459987035497563
6443956 14 18337107873879484561
7970288 3 18195247719902735454

> <PUBCHEM_SHAPE_MULTIPOLES>
503.41
10.25
4.3
1.51
13.59
3.63
-0.11
8.72
0.03
-6.04
-0.22
-0.82
-0.74
-0.62

> <PUBCHEM_SHAPE_SELFOVERLAP>
1086.655

> <PUBCHEM_SHAPE_VOLUME>
268.3

> <PUBCHEM_COORDINATE_TYPE>
2
5
10

$$$$
