11941510
  -OEChem-12032416153D

 48 51  0     1  0  0  0  0  0999 V2000
   -5.7240   -1.9045   -0.2819 O   0  0  0  0  0  0  0  0  0  0  0  0
   -2.5178    2.1497   -1.4548 O   0  0  0  0  0  0  0  0  0  0  0  0
    8.2695    0.9342    0.2084 O   0  0  0  0  0  0  0  0  0  0  0  0
   -4.1361    1.0406   -0.2513 N   0  0  0  0  0  0  0  0  0  0  0  0
   -6.1485    0.1358    2.5612 N   0  0  0  0  0  0  0  0  0  0  0  0
   -3.4766   -1.8313   -0.5884 N   0  0  0  0  0  0  0  0  0  0  0  0
   -4.5724   -0.0058    0.6584 C   0  0  1  0  0  0  0  0  0  0  0  0
   -5.9374    0.4786    1.1820 C   0  0  2  0  0  0  0  0  0  0  0  0
   -5.9016    1.9880    0.9516 C   0  0  0  0  0  0  0  0  0  0  0  0
   -5.1292    2.1008   -0.3491 C   0  0  0  0  0  0  0  0  0  0  0  0
   -4.6624   -1.2934   -0.1401 C   0  0  0  0  0  0  0  0  0  0  0  0
   -2.8717    1.1781   -0.7862 C   0  0  0  0  0  0  0  0  0  0  0  0
   -1.8813    0.0970   -0.5511 C   0  0  0  0  0  0  0  0  0  0  0  0
   -2.1832   -1.2729   -0.5526 C   0  0  0  0  0  0  0  0  0  0  0  0
   -0.5361    0.5068   -0.4872 C   0  0  0  0  0  0  0  0  0  0  0  0
   -1.1261   -2.2008   -0.5586 C   0  0  0  0  0  0  0  0  0  0  0  0
    0.4975   -0.4278   -0.4462 C   0  0  0  0  0  0  0  0  0  0  0  0
    0.2028   -1.7834   -0.4950 C   0  0  0  0  0  0  0  0  0  0  0  0
    1.8807    0.0155   -0.3792 C   0  0  0  0  0  0  0  0  0  0  0  0
    2.9260   -0.7471    0.0203 C   0  0  0  0  0  0  0  0  0  0  0  0
    4.3307   -0.3045    0.0701 C   0  0  0  0  0  0  0  0  0  0  0  0
    4.7231    0.7931   -0.6785 C   0  0  0  0  0  0  0  0  0  0  0  0
    5.2314   -0.9955    0.8641 C   0  0  0  0  0  0  0  0  0  0  0  0
    6.0531    1.2112   -0.6316 C   0  0  0  0  0  0  0  0  0  0  0  0
    6.5613   -0.5771    0.9111 C   0  0  0  0  0  0  0  0  0  0  0  0
    6.9721    0.5262    0.1632 C   0  0  0  0  0  0  0  0  0  0  0  0
    9.1562    0.1888    1.0415 C   0  0  0  0  0  0  0  0  0  0  0  0
   -3.8313   -0.1133    1.4600 H   0  0  0  0  0  0  0  0  0  0  0  0
   -6.7623    0.0662    0.5889 H   0  0  0  0  0  0  0  0  0  0  0  0
   -6.8977    2.4367    0.8915 H   0  0  0  0  0  0  0  0  0  0  0  0
   -5.3477    2.4944    1.7529 H   0  0  0  0  0  0  0  0  0  0  0  0
   -4.6680    3.0830   -0.4857 H   0  0  0  0  0  0  0  0  0  0  0  0
   -5.7656    1.8796   -1.2129 H   0  0  0  0  0  0  0  0  0  0  0  0
   -7.0098    0.5637    2.8986 H   0  0  0  0  0  0  0  0  0  0  0  0
   -5.4018    0.5167    3.1412 H   0  0  0  0  0  0  0  0  0  0  0  0
   -3.5331   -2.7958   -0.9076 H   0  0  0  0  0  0  0  0  0  0  0  0
   -0.2929    1.5686   -0.4817 H   0  0  0  0  0  0  0  0  0  0  0  0
   -1.3320   -3.2694   -0.5909 H   0  0  0  0  0  0  0  0  0  0  0  0
    0.9685   -2.5531   -0.5053 H   0  0  0  0  0  0  0  0  0  0  0  0
    2.0341    1.0523   -0.6658 H   0  0  0  0  0  0  0  0  0  0  0  0
    2.7707   -1.7685    0.3571 H   0  0  0  0  0  0  0  0  0  0  0  0
    4.0487    1.3419   -1.3279 H   0  0  0  0  0  0  0  0  0  0  0  0
    4.9258   -1.8562    1.4534 H   0  0  0  0  0  0  0  0  0  0  0  0
    6.3690    2.0683   -1.2202 H   0  0  0  0  0  0  0  0  0  0  0  0
    7.2220   -1.1542    1.5490 H   0  0  0  0  0  0  0  0  0  0  0  0
   10.1449    0.6518    0.9570 H   0  0  0  0  0  0  0  0  0  0  0  0
    9.2574   -0.8460    0.6971 H   0  0  0  0  0  0  0  0  0  0  0  0
    8.8641    0.2489    2.0954 H   0  0  0  0  0  0  0  0  0  0  0  0
  1 11  2  0  0  0  0
  2 12  2  0  0  0  0
  3 26  1  0  0  0  0
  3 27  1  0  0  0  0
  4  7  1  0  0  0  0
  4 10  1  0  0  0  0
  4 12  1  0  0  0  0
  5  8  1  0  0  0  0
  5 34  1  0  0  0  0
  5 35  1  0  0  0  0
  6 11  1  0  0  0  0
  6 14  1  0  0  0  0
  6 36  1  0  0  0  0
  7  8  1  0  0  0  0
  7 11  1  0  0  0  0
  7 28  1  0  0  0  0
  8  9  1  0  0  0  0
  8 29  1  0  0  0  0
  9 10  1  0  0  0  0
  9 30  1  0  0  0  0
  9 31  1  0  0  0  0
 10 32  1  0  0  0  0
 10 33  1  0  0  0  0
 12 13  1  0  0  0  0
 13 14  2  0  0  0  0
 13 15  1  0  0  0  0
 14 16  1  0  0  0  0
 15 17  2  0  0  0  0
 15 37  1  0  0  0  0
 16 18  2  0  0  0  0
 16 38  1  0  0  0  0
 17 18  1  0  0  0  0
 17 19  1  0  0  0  0
 18 39  1  0  0  0  0
 19 20  2  0  0  0  0
 19 40  1  0  0  0  0
 20 21  1  0  0  0  0
 20 41  1  0  0  0  0
 21 22  2  0  0  0  0
 21 23  1  0  0  0  0
 22 24  1  0  0  0  0
 22 42  1  0  0  0  0
 23 25  2  0  0  0  0
 23 43  1  0  0  0  0
 24 26  2  0  0  0  0
 24 44  1  0  0  0  0
 25 26  1  0  0  0  0
 25 45  1  0  0  0  0
 27 46  1  0  0  0  0
 27 47  1  0  0  0  0
 27 48  1  0  0  0  0
M  END
> <PUBCHEM_COMPOUND_CID>
11941510

> <PUBCHEM_CONFORMER_RMSD>
0.8

> <PUBCHEM_CONFORMER_DIVERSEORDER>
2
1

> <PUBCHEM_MMFF94_PARTIAL_CHARGES>
38
1 -0.57
10 0.3
11 0.57
12 0.54
13 0.09
14 0.12
15 -0.15
16 -0.15
17 0.03
18 -0.15
19 -0.18
2 -0.57
20 -0.18
21 0.03
22 -0.15
23 -0.15
24 -0.15
25 -0.15
26 0.08
27 0.28
3 -0.36
34 0.36
35 0.36
36 0.37
37 0.15
38 0.15
39 0.15
4 -0.66
40 0.15
41 0.15
42 0.15
43 0.15
44 0.15
45 0.15
5 -0.99
6 -0.55
7 0.36
8 0.27

> <PUBCHEM_EFFECTIVE_ROTOR_COUNT>
3.8

> <PUBCHEM_PHARMACOPHORE_FEATURES>
10
1 1 acceptor
1 2 acceptor
1 3 acceptor
1 5 cation
1 5 donor
1 6 donor
5 4 7 8 9 10 rings
6 13 14 15 16 17 18 rings
6 21 22 23 24 25 26 rings
7 4 6 7 11 12 13 14 rings

> <PUBCHEM_HEAVY_ATOM_COUNT>
27

> <PUBCHEM_ATOM_DEF_STEREO_COUNT>
2

> <PUBCHEM_ATOM_UDEF_STEREO_COUNT>
0

> <PUBCHEM_BOND_DEF_STEREO_COUNT>
1

> <PUBCHEM_BOND_UDEF_STEREO_COUNT>
0

> <PUBCHEM_ISOTOPIC_ATOM_COUNT>
0

> <PUBCHEM_COMPONENT_COUNT>
1

> <PUBCHEM_CACTVS_TAUTO_COUNT>
3

> <PUBCHEM_CONFORMER_ID>
00B6368600000002

> <PUBCHEM_MMFF94_ENERGY>
105.4372

> <PUBCHEM_FEATURE_SELFOVERLAP>
50.794

> <PUBCHEM_SHAPE_FINGERPRINT>
10 15 18334580118238206057
10165383 225 18131917040528312755
10299344 5 18260828211801003058
10369192 42 17775286070906766885
10411042 1 17908419509498812319
106641 1 18409737266326325259
11315181 36 18408600379666285877
12236239 1 18260264149240010038
12596602 18 17022623061341057000
13690498 29 11599133536700163941
13782708 43 13118001098042216488
14251764 18 18186518822238907108
14849402 71 17969226797508196292
14856354 85 18273218616655183829
14933364 13 18412544315106312876
15021287 119 17603585252713033868
15183329 4 18335131004071520132
15352257 5 14634867535896953456
15461852 350 17560792256482170637
1577012 14 18410568479794921814
16110190 28 18334579057212706492
17093844 174 17989203763393927899
17980427 23 18335423486664283015
19377110 9 17894340077935061386
19489759 90 8935001473271261583
21033648 29 17560504197552781490
21130935 74 18342174454032398018
21236236 1 18412542128741398527
21756936 100 17846495920463876061
23081809 10 18343011195128335462
23198884 109 13326851119867066089
23522609 53 18189921827316809292
29717793 49 9799695926769484362
3663271 9 18333447634384038274
4073 2 17822575019095594162
44802255 64 14476962251637800941
5104073 3 18335131034115199106
5385378 56 18130232553959819190
58083652 198 17095518547690084804
636775 72 17846778494641699832
7226269 152 17989489602031057361
9953998 17 18187086131289222057

> <PUBCHEM_SHAPE_MULTIPOLES>
523.1
23.31
2.01
1.21
37.57
0.15
-0.53
-7.21
-9.44
-3
0.45
-1.25
-0.23
-0.82

> <PUBCHEM_SHAPE_SELFOVERLAP>
1147.608

> <PUBCHEM_SHAPE_VOLUME>
282.4

> <PUBCHEM_COORDINATE_TYPE>
2
5
10

$$$$
