75536116
  -OEChem-12032416293D

 38 40  0     1  0  0  0  0  0999 V2000
   -1.1748   -2.5628   -1.5102 O   0  0  0  0  0  0  0  0  0  0  0  0
   -1.1155   -3.9646    0.8797 O   0  0  0  0  0  0  0  0  0  0  0  0
    1.8119   -0.8128   -0.4333 N   0  0  0  0  0  0  0  0  0  0  0  0
   -3.1310    1.7438   -0.9010 N   0  0  0  0  0  0  0  0  0  0  0  0
    0.3658   -0.9440   -0.6240 C   0  0  2  0  0  0  0  0  0  0  0  0
    3.7257    0.6922   -0.5161 C   0  0  0  0  0  0  0  0  0  0  0  0
   -0.3790   -0.3756    0.6235 C   0  0  2  0  0  0  0  0  0  0  0  0
   -0.0217   -2.4302   -0.6802 C   0  0  1  0  0  0  0  0  0  0  0  0
    4.2903    0.8437    0.8692 C   0  0  0  0  0  0  0  0  0  0  0  0
    4.3035    2.0100   -0.0791 C   0  0  0  0  0  0  0  0  0  0  0  0
   -1.1450   -1.5652    1.2340 C   0  0  0  0  0  0  0  0  0  0  0  0
   -0.3549   -2.7790    0.7671 C   0  0  1  0  0  0  0  0  0  0  0  0
    2.2520    0.5458   -0.7161 C   0  0  0  0  0  0  0  0  0  0  0  0
   -1.2656    0.8143    0.3243 C   0  0  0  0  0  0  0  0  0  0  0  0
   -1.0624    2.0360    0.9563 C   0  0  0  0  0  0  0  0  0  0  0  0
   -2.3042    0.7209   -0.5881 C   0  0  0  0  0  0  0  0  0  0  0  0
   -1.8922    3.1119    0.6607 C   0  0  0  0  0  0  0  0  0  0  0  0
   -2.9028    2.9157   -0.2668 C   0  0  0  0  0  0  0  0  0  0  0  0
    0.0660   -0.4490   -1.5565 H   0  0  0  0  0  0  0  0  0  0  0  0
    4.2996    0.1132   -1.2313 H   0  0  0  0  0  0  0  0  0  0  0  0
    0.3573   -0.0653    1.3797 H   0  0  0  0  0  0  0  0  0  0  0  0
    0.7491   -3.0900   -1.0919 H   0  0  0  0  0  0  0  0  0  0  0  0
    5.2340    0.3577    1.0843 H   0  0  0  0  0  0  0  0  0  0  0  0
    3.6057    0.8857    1.7076 H   0  0  0  0  0  0  0  0  0  0  0  0
    3.6291    2.8323    0.1252 H   0  0  0  0  0  0  0  0  0  0  0  0
    5.2566    2.3063   -0.4998 H   0  0  0  0  0  0  0  0  0  0  0  0
   -2.1859   -1.6286    0.8940 H   0  0  0  0  0  0  0  0  0  0  0  0
   -1.1845   -1.5061    2.3276 H   0  0  0  0  0  0  0  0  0  0  0  0
    0.5636   -2.8893    1.3560 H   0  0  0  0  0  0  0  0  0  0  0  0
    2.0225    0.8117   -1.7552 H   0  0  0  0  0  0  0  0  0  0  0  0
    1.7282    1.2636   -0.0757 H   0  0  0  0  0  0  0  0  0  0  0  0
    2.2943   -1.4494   -1.0681 H   0  0  0  0  0  0  0  0  0  0  0  0
   -0.9135   -2.3167   -2.4139 H   0  0  0  0  0  0  0  0  0  0  0  0
   -1.3619   -4.0662    1.8148 H   0  0  0  0  0  0  0  0  0  0  0  0
   -0.2623    2.1647    1.6799 H   0  0  0  0  0  0  0  0  0  0  0  0
   -2.5193   -0.2010   -1.1177 H   0  0  0  0  0  0  0  0  0  0  0  0
   -1.7524    4.0735    1.1409 H   0  0  0  0  0  0  0  0  0  0  0  0
   -3.5771    3.7232   -0.5323 H   0  0  0  0  0  0  0  0  0  0  0  0
  1  8  1  0  0  0  0
  1 33  1  0  0  0  0
  2 12  1  0  0  0  0
  2 34  1  0  0  0  0
  3  5  1  0  0  0  0
  3 13  1  0  0  0  0
  3 32  1  0  0  0  0
  4 16  1  0  0  0  0
  4 18  2  0  0  0  0
  5  7  1  0  0  0  0
  5  8  1  0  0  0  0
  5 19  1  0  0  0  0
  6  9  1  0  0  0  0
  6 10  1  0  0  0  0
  6 13  1  0  0  0  0
  6 20  1  0  0  0  0
  7 11  1  0  0  0  0
  7 14  1  0  0  0  0
  7 21  1  0  0  0  0
  8 12  1  0  0  0  0
  8 22  1  0  0  0  0
  9 10  1  0  0  0  0
  9 23  1  0  0  0  0
  9 24  1  0  0  0  0
 10 25  1  0  0  0  0
 10 26  1  0  0  0  0
 11 12  1  0  0  0  0
 11 27  1  0  0  0  0
 11 28  1  0  0  0  0
 12 29  1  0  0  0  0
 13 30  1  0  0  0  0
 13 31  1  0  0  0  0
 14 15  1  0  0  0  0
 14 16  2  0  0  0  0
 15 17  2  0  0  0  0
 15 35  1  0  0  0  0
 16 36  1  0  0  0  0
 17 18  1  0  0  0  0
 17 37  1  0  0  0  0
 18 38  1  0  0  0  0
M  END
> <PUBCHEM_COMPOUND_CID>
75536116

> <PUBCHEM_CONFORMER_RMSD>
0.8

> <PUBCHEM_CONFORMER_DIVERSEORDER>
3
35
5
11
25
18
29
34
22
21
16
8
14
32
33
4
1
17
9
15
6
23
13
7
26
31
24
28
27
20
2
10
19
30
12

> <PUBCHEM_MMFF94_PARTIAL_CHARGES>
29
1 -0.68
10 -0.2
12 0.28
13 0.37
14 -0.14
15 -0.15
16 0.16
17 -0.15
18 0.16
2 -0.68
20 0.1
23 0.1
24 0.1
25 0.1
26 0.1
3 -0.9
32 0.36
33 0.4
34 0.4
35 0.15
36 0.15
37 0.15
38 0.15
4 -0.62
5 0.27
6 -0.19
7 0.14
8 0.28
9 -0.2

> <PUBCHEM_EFFECTIVE_ROTOR_COUNT>
5.6

> <PUBCHEM_PHARMACOPHORE_FEATURES>
9
1 1 acceptor
1 1 donor
1 2 acceptor
1 2 donor
1 3 cation
1 3 donor
1 4 acceptor
5 5 7 8 11 12 rings
6 4 14 15 16 17 18 rings

> <PUBCHEM_HEAVY_ATOM_COUNT>
18

> <PUBCHEM_ATOM_DEF_STEREO_COUNT>
4

> <PUBCHEM_ATOM_UDEF_STEREO_COUNT>
0

> <PUBCHEM_BOND_DEF_STEREO_COUNT>
0

> <PUBCHEM_BOND_UDEF_STEREO_COUNT>
0

> <PUBCHEM_ISOTOPIC_ATOM_COUNT>
0

> <PUBCHEM_COMPONENT_COUNT>
1

> <PUBCHEM_CACTVS_TAUTO_COUNT>
1

> <PUBCHEM_CONFORMER_ID>
048096F400000003

> <PUBCHEM_MMFF94_ENERGY>
52.0337

> <PUBCHEM_FEATURE_SELFOVERLAP>
45.68

> <PUBCHEM_SHAPE_FINGERPRINT>
10670039 82 17688040026104548484
11357001 24 18263648540182007682
12035758 1 18123196955189077115
121448 382 18341885290604557569
12788726 201 18264477571886430506
13140716 1 17979927325476979384
14250199 8 17693381040488582253
14787075 74 18341607153223598509
14840074 17 16035739164190909976
173720 79 18115005472754363297
17980427 23 17262125070671705945
19765921 60 18269830917850253993
20097449 115 17618229850115870586
20510252 161 18411707620363050376
20671657 1 17834398921340662621
21304303 282 18049402016292776380
21524375 3 18267020561892518444
21650355 55 17976826715856551898
21731228 192 18338243648106291696
220403 375 18338527339154277586
2255824 54 17691407408552734719
22907989 373 18193573374114908012
2306618 200 17845382209663656978
23419403 2 16269093829642854923
23557571 272 18198352947250725228
23558518 356 18410289194792979678
2748010 2 18193585305385901494
3071541 236 18408600387876509728
3091708 16 8981297479626233282
3187 122 17690254424672496424
394222 165 18122053213787431579
474 4 18121780521686914888
526903 126 18342739572490317889
5939293 188 17042606410166006133
7364860 26 17692532212926496716
7832392 63 16829254966246536769
81228 2 18195830662790983706
84936 182 18053380990129219320
90316 7 18050021174662743258
9981440 41 18338792330151774632

> <PUBCHEM_SHAPE_MULTIPOLES>
348.73
5.87
4.42
1.17
7.76
2.41
-0.01
-6.36
0.35
-3.2
-0.63
-0.23
0.39
0.3

> <PUBCHEM_SHAPE_SELFOVERLAP>
729.607

> <PUBCHEM_SHAPE_VOLUME>
198.6

> <PUBCHEM_COORDINATE_TYPE>
2
5
10

$$$$
