38031273
  -OEChem-12032416143D

 68 70  0     1  0  0  0  0  0999 V2000
   -1.0399    1.0462    0.9727 O   0  0  0  0  0  0  0  0  0  0  0  0
    2.4876   -3.0472   -1.2411 O   0  0  0  0  0  0  0  0  0  0  0  0
   -6.4973   -1.5106   -0.8637 O   0  0  0  0  0  0  0  0  0  0  0  0
    3.7471   -1.3394   -0.2939 N   0  0  0  0  0  0  0  0  0  0  0  0
   -0.9568    3.0915    1.8750 N   0  0  0  0  0  0  0  0  0  0  0  0
    2.8482   -2.9926    1.0504 N   0  0  0  0  0  0  0  0  0  0  0  0
   -2.2770    2.8090    1.5780 N   0  0  0  0  0  0  0  0  0  0  0  0
    1.9506    0.8091   -1.3895 C   0  0  1  0  0  0  0  0  0  0  0  0
    3.4990    0.8012   -1.4364 C   0  0  1  0  0  0  0  0  0  0  0  0
    1.4358    2.1733   -0.9058 C   0  0  0  0  0  0  0  0  0  0  0  0
    1.9683    2.5342    0.4938 C   0  0  2  0  0  0  0  0  0  0  0  0
    1.3385    0.4778   -2.7541 C   0  0  0  0  0  0  0  0  0  0  0  0
    3.4602    2.2949    0.6075 C   0  0  0  0  0  0  0  0  0  0  0  0
    4.1295    1.5284   -0.2719 C   0  0  0  0  0  0  0  0  0  0  0  0
    4.0432   -0.6306   -1.4993 C   0  0  0  0  0  0  0  0  0  0  0  0
    1.2062    1.7769    1.5869 C   0  0  0  0  0  0  0  0  0  0  0  0
   -0.0669   -0.0900   -2.5833 C   0  0  0  0  0  0  0  0  0  0  0  0
    1.3169    1.7176   -3.6425 C   0  0  0  0  0  0  0  0  0  0  0  0
    4.1745    2.9944    1.7304 C   0  0  0  0  0  0  0  0  0  0  0  0
   -0.2711    2.0351    1.5052 C   0  0  0  0  0  0  0  0  0  0  0  0
    2.9810   -2.5113   -0.2496 C   0  0  0  0  0  0  0  0  0  0  0  0
   -2.2779    1.6058    1.0534 C   0  0  0  0  0  0  0  0  0  0  0  0
    2.1051   -4.1888    1.3698 C   0  0  0  0  0  0  0  0  0  0  0  0
   -3.3616    0.8052    0.5621 C   0  0  0  0  0  0  0  0  0  0  0  0
    0.6398   -3.8524    1.6139 C   0  0  0  0  0  0  0  0  0  0  0  0
    2.7178   -4.8934    2.5738 C   0  0  0  0  0  0  0  0  0  0  0  0
   -4.6666    1.2960    0.6046 C   0  0  0  0  0  0  0  0  0  0  0  0
   -3.1106   -0.4642    0.0411 C   0  0  0  0  0  0  0  0  0  0  0  0
   -5.7205    0.5174    0.1264 C   0  0  0  0  0  0  0  0  0  0  0  0
   -4.1644   -1.2428   -0.4371 C   0  0  0  0  0  0  0  0  0  0  0  0
   -5.4694   -0.7520   -0.3944 C   0  0  0  0  0  0  0  0  0  0  0  0
   -6.1691   -2.7988   -1.3825 C   0  0  0  0  0  0  0  0  0  0  0  0
    1.6142    0.0527   -0.6699 H   0  0  0  0  0  0  0  0  0  0  0  0
    3.8411    1.3191   -2.3412 H   0  0  0  0  0  0  0  0  0  0  0  0
    0.3453    2.2373   -0.9508 H   0  0  0  0  0  0  0  0  0  0  0  0
    1.8055    2.9695   -1.5666 H   0  0  0  0  0  0  0  0  0  0  0  0
    1.7854    3.6102    0.6277 H   0  0  0  0  0  0  0  0  0  0  0  0
    1.9294   -0.2919   -3.2608 H   0  0  0  0  0  0  0  0  0  0  0  0
    5.2084    1.4300   -0.1686 H   0  0  0  0  0  0  0  0  0  0  0  0
    5.1358   -0.6156   -1.5935 H   0  0  0  0  0  0  0  0  0  0  0  0
    3.6631   -1.1752   -2.3677 H   0  0  0  0  0  0  0  0  0  0  0  0
    1.5417    2.0992    2.5800 H   0  0  0  0  0  0  0  0  0  0  0  0
    1.3949    0.6979    1.5327 H   0  0  0  0  0  0  0  0  0  0  0  0
   -0.7519    0.6283   -2.1227 H   0  0  0  0  0  0  0  0  0  0  0  0
   -0.0527   -0.9923   -1.9625 H   0  0  0  0  0  0  0  0  0  0  0  0
   -0.4881   -0.3674   -3.5559 H   0  0  0  0  0  0  0  0  0  0  0  0
    0.5628    2.4518   -3.3399 H   0  0  0  0  0  0  0  0  0  0  0  0
    1.0505    1.4223   -4.6650 H   0  0  0  0  0  0  0  0  0  0  0  0
    2.2927    2.2079   -3.7077 H   0  0  0  0  0  0  0  0  0  0  0  0
    3.9951    4.0733    1.6811 H   0  0  0  0  0  0  0  0  0  0  0  0
    5.2579    2.8392    1.6896 H   0  0  0  0  0  0  0  0  0  0  0  0
    3.8264    2.6266    2.7001 H   0  0  0  0  0  0  0  0  0  0  0  0
    4.1671   -1.0180    0.5730 H   0  0  0  0  0  0  0  0  0  0  0  0
    3.2265   -2.4367    1.8115 H   0  0  0  0  0  0  0  0  0  0  0  0
    2.1625   -4.8659    0.5089 H   0  0  0  0  0  0  0  0  0  0  0  0
    0.5266   -3.1591    2.4549 H   0  0  0  0  0  0  0  0  0  0  0  0
    0.1945   -3.3753    0.7339 H   0  0  0  0  0  0  0  0  0  0  0  0
    0.0621   -4.7557    1.8360 H   0  0  0  0  0  0  0  0  0  0  0  0
    2.6913   -4.2557    3.4645 H   0  0  0  0  0  0  0  0  0  0  0  0
    3.7661   -5.1478    2.3820 H   0  0  0  0  0  0  0  0  0  0  0  0
    2.1802   -5.8198    2.8011 H   0  0  0  0  0  0  0  0  0  0  0  0
   -4.8857    2.2825    1.0060 H   0  0  0  0  0  0  0  0  0  0  0  0
   -2.1074   -0.8803   -0.0078 H   0  0  0  0  0  0  0  0  0  0  0  0
   -6.7350    0.9051    0.1615 H   0  0  0  0  0  0  0  0  0  0  0  0
   -3.8988   -2.2189   -0.8285 H   0  0  0  0  0  0  0  0  0  0  0  0
   -7.1052   -3.2634   -1.7096 H   0  0  0  0  0  0  0  0  0  0  0  0
   -5.7434   -3.4475   -0.6093 H   0  0  0  0  0  0  0  0  0  0  0  0
   -5.5237   -2.7249   -2.2643 H   0  0  0  0  0  0  0  0  0  0  0  0
  1 20  1  0  0  0  0
  1 22  1  0  0  0  0
  2 21  2  0  0  0  0
  3 31  1  0  0  0  0
  3 32  1  0  0  0  0
  4 15  1  0  0  0  0
  4 21  1  0  0  0  0
  4 53  1  0  0  0  0
  5  7  1  0  0  0  0
  5 20  2  0  0  0  0
  6 21  1  0  0  0  0
  6 23  1  0  0  0  0
  6 54  1  0  0  0  0
  7 22  2  0  0  0  0
  8  9  1  0  0  0  0
  8 10  1  0  0  0  0
  8 12  1  0  0  0  0
  8 33  1  0  0  0  0
  9 14  1  0  0  0  0
  9 15  1  0  0  0  0
  9 34  1  0  0  0  0
 10 11  1  0  0  0  0
 10 35  1  0  0  0  0
 10 36  1  0  0  0  0
 11 13  1  0  0  0  0
 11 16  1  0  0  0  0
 11 37  1  0  0  0  0
 12 17  1  0  0  0  0
 12 18  1  0  0  0  0
 12 38  1  0  0  0  0
 13 14  2  0  0  0  0
 13 19  1  0  0  0  0
 14 39  1  0  0  0  0
 15 40  1  0  0  0  0
 15 41  1  0  0  0  0
 16 20  1  0  0  0  0
 16 42  1  0  0  0  0
 16 43  1  0  0  0  0
 17 44  1  0  0  0  0
 17 45  1  0  0  0  0
 17 46  1  0  0  0  0
 18 47  1  0  0  0  0
 18 48  1  0  0  0  0
 18 49  1  0  0  0  0
 19 50  1  0  0  0  0
 19 51  1  0  0  0  0
 19 52  1  0  0  0  0
 22 24  1  0  0  0  0
 23 25  1  0  0  0  0
 23 26  1  0  0  0  0
 23 55  1  0  0  0  0
 24 27  2  0  0  0  0
 24 28  1  0  0  0  0
 25 56  1  0  0  0  0
 25 57  1  0  0  0  0
 25 58  1  0  0  0  0
 26 59  1  0  0  0  0
 26 60  1  0  0  0  0
 26 61  1  0  0  0  0
 27 29  1  0  0  0  0
 27 62  1  0  0  0  0
 28 30  2  0  0  0  0
 28 63  1  0  0  0  0
 29 31  2  0  0  0  0
 29 64  1  0  0  0  0
 30 31  1  0  0  0  0
 30 65  1  0  0  0  0
 32 66  1  0  0  0  0
 32 67  1  0  0  0  0
 32 68  1  0  0  0  0
M  END
> <PUBCHEM_COMPOUND_CID>
38031273

> <PUBCHEM_CONFORMER_RMSD>
1.2

> <PUBCHEM_CONFORMER_DIVERSEORDER>
1
55
134
49
96
87
60
76
75
57
92
146
12
105
13
29
17
150
35
120
18
151
140
111
39
59
118
112
136
86
45
72
147
27
61
107
117
139
77
9
129
64
141
119
53
99
127
109
73
106
67
31
98
93
21
14
126
47
133
145
11
51
62
81
37
58
138
22
32
28
8
74
84
48
114
121
100
132
91
40
54
63
46
85
19
149
148
69
102
103
110
4
7
33
104
80
41
20
2
137
130
143
122
131
124
79
82
38
144
5
123
34
42
135
113
90
56
94
97
116
16
25
95
44
26
50
52
65
43
23
36
142
83
101
128
10
108
24
15
71
88
115
125
89
3
6
30
68
70
78
66

> <PUBCHEM_MMFF94_PARTIAL_CHARGES>
32
1 -0.28
11 0.14
13 -0.28
14 -0.29
15 0.3
16 0.18
19 0.14
2 -0.57
20 0.3
21 0.69
22 0.43
23 0.3
24 0.05
27 -0.15
28 -0.15
29 -0.15
3 -0.36
30 -0.15
31 0.08
32 0.28
39 0.15
4 -0.73
5 -0.34
53 0.37
54 0.37
6 -0.73
62 0.15
63 0.15
64 0.15
65 0.15
7 -0.34
9 0.14

> <PUBCHEM_EFFECTIVE_ROTOR_COUNT>
10.8

> <PUBCHEM_PHARMACOPHORE_FEATURES>
9
1 2 acceptor
1 3 acceptor
1 4 donor
1 6 donor
3 12 17 18 hydrophobe
3 23 25 26 hydrophobe
5 1 5 7 20 22 rings
6 24 27 28 29 30 31 rings
6 8 9 10 11 13 14 rings

> <PUBCHEM_HEAVY_ATOM_COUNT>
32

> <PUBCHEM_ATOM_DEF_STEREO_COUNT>
3

> <PUBCHEM_ATOM_UDEF_STEREO_COUNT>
0

> <PUBCHEM_BOND_DEF_STEREO_COUNT>
0

> <PUBCHEM_BOND_UDEF_STEREO_COUNT>
0

> <PUBCHEM_ISOTOPIC_ATOM_COUNT>
0

> <PUBCHEM_COMPONENT_COUNT>
1

> <PUBCHEM_CACTVS_TAUTO_COUNT>
3

> <PUBCHEM_CONFORMER_ID>
02444FA900000001

> <PUBCHEM_MMFF94_ENERGY>
64.4065

> <PUBCHEM_FEATURE_SELFOVERLAP>
45.719

> <PUBCHEM_SHAPE_FINGERPRINT>
10816530 23 17317624405984440868
11186622 123 18343021082089965555
11796584 16 17988372455489609745
12156800 1 15192432205634548166
12977781 61 17537118542733541916
131258 38 18339635642955109966
13383668 262 17971455537589858307
13402501 40 17488752310423059837
13583140 156 18270110211142288844
13761468 95 11087640873324113858
15003188 105 18411978048853174378
17138139 8 18342189872658386222
18681886 176 16917074326437263508
19315092 285 18337379466068271647
19319366 153 18336541741556588495
20764821 26 18120950643900880571
20775530 9 17030239172708286050
23559900 14 17201099001555457381
25222932 49 17987790964230359399
4394409 98 17328857704612366341
444735 86 18200300147994476951
463206 1 18412554227326628835
484985 159 16530876081012784346
59025328 239 17677331585131999262
66674814 147 17968668124714109866
6823239 73 16772136660260497644

> <PUBCHEM_SHAPE_MULTIPOLES>
621.01
11.66
5.51
2.78
20.99
7.84
-1.61
3.24
-2.09
-5.45
4.41
-1.88
-0.46
-2.6

> <PUBCHEM_SHAPE_SELFOVERLAP>
1292.286

> <PUBCHEM_SHAPE_VOLUME>
354

> <PUBCHEM_COORDINATE_TYPE>
2
5
10

$$$$
