11941480
  -OEChem-12032416363D

 56 59  0     1  0  0  0  0  0999 V2000
    6.6619    2.8694   -0.7441 F   0  0  0  0  0  0  0  0  0  0  0  0
    5.0275    2.3990   -2.0899 F   0  0  0  0  0  0  0  0  0  0  0  0
    4.6295    3.4403   -0.2228 F   0  0  0  0  0  0  0  0  0  0  0  0
   -3.6856   -3.2715    0.7197 O   0  0  0  0  0  0  0  0  0  0  0  0
   -0.0162   -1.4769   -2.6081 O   0  0  0  0  0  0  0  0  0  0  0  0
   -5.0986    0.9033    1.4704 O   0  0  0  0  0  0  0  0  0  0  0  0
   -1.9812   -1.4278   -1.4142 N   0  0  0  0  0  0  0  0  0  0  0  0
   -4.2462    0.6072   -0.6687 N   0  0  0  0  0  0  0  0  0  0  0  0
   -1.4471   -2.9829    1.0255 N   0  0  0  0  0  0  0  0  0  0  0  0
   -4.7356    2.7244    0.0792 N   0  0  0  0  0  0  0  0  0  0  0  0
   -4.1280   -0.8323   -0.6205 C   0  0  2  0  0  0  0  0  0  0  0  0
   -2.7198   -1.2527   -0.1775 C   0  0  1  0  0  0  0  0  0  0  0  0
   -4.2604   -1.4453   -2.0161 C   0  0  0  0  0  0  0  0  0  0  0  0
   -2.8511   -1.3461   -2.5786 C   0  0  0  0  0  0  0  0  0  0  0  0
   -2.6720   -2.5993    0.5206 C   0  0  0  0  0  0  0  0  0  0  0  0
   -0.6092   -1.4925   -1.5295 C   0  0  0  0  0  0  0  0  0  0  0  0
    0.1930   -1.6118   -0.2842 C   0  0  0  0  0  0  0  0  0  0  0  0
   -0.1869   -2.3764    0.8320 C   0  0  0  0  0  0  0  0  0  0  0  0
   -4.7279    1.3677    0.3931 C   0  0  0  0  0  0  0  0  0  0  0  0
    1.4806   -1.0468   -0.3293 C   0  0  0  0  0  0  0  0  0  0  0  0
    0.7582   -2.6110    1.8462 C   0  0  0  0  0  0  0  0  0  0  0  0
    2.3883   -1.2512    0.7088 C   0  0  0  0  0  0  0  0  0  0  0  0
    2.0314   -2.0445    1.7915 C   0  0  0  0  0  0  0  0  0  0  0  0
   -5.1879    3.7386    1.0023 C   0  0  0  0  0  0  0  0  0  0  0  0
    3.7066   -0.6585    0.6475 C   0  0  0  0  0  0  0  0  0  0  0  0
   -5.8138    4.9025    0.2449 C   0  0  0  0  0  0  0  0  0  0  0  0
   -4.0388    4.2086    1.8853 C   0  0  0  0  0  0  0  0  0  0  0  0
    3.8951    0.5578   -0.0090 C   0  0  0  0  0  0  0  0  0  0  0  0
    4.7898   -1.3034    1.2450 C   0  0  0  0  0  0  0  0  0  0  0  0
    5.1661    1.1291   -0.0679 C   0  0  0  0  0  0  0  0  0  0  0  0
    6.0608   -0.7320    1.1863 C   0  0  0  0  0  0  0  0  0  0  0  0
    6.2490    0.4842    0.5298 C   0  0  0  0  0  0  0  0  0  0  0  0
    5.3686    2.4306   -0.7677 C   0  0  0  0  0  0  0  0  0  0  0  0
   -4.9113   -1.2081    0.0462 H   0  0  0  0  0  0  0  0  0  0  0  0
   -2.2418   -0.4987    0.4592 H   0  0  0  0  0  0  0  0  0  0  0  0
   -4.9979   -0.9471   -2.6527 H   0  0  0  0  0  0  0  0  0  0  0  0
   -4.5434   -2.5014   -1.9289 H   0  0  0  0  0  0  0  0  0  0  0  0
   -2.6149   -2.1429   -3.2903 H   0  0  0  0  0  0  0  0  0  0  0  0
   -2.6751   -0.3798   -3.0642 H   0  0  0  0  0  0  0  0  0  0  0  0
   -3.9059    1.0952   -1.4917 H   0  0  0  0  0  0  0  0  0  0  0  0
   -1.4710   -3.7550    1.6875 H   0  0  0  0  0  0  0  0  0  0  0  0
    1.7692   -0.4826   -1.2139 H   0  0  0  0  0  0  0  0  0  0  0  0
    0.4970   -3.2157    2.7129 H   0  0  0  0  0  0  0  0  0  0  0  0
   -4.3396    3.0170   -0.8091 H   0  0  0  0  0  0  0  0  0  0  0  0
    2.6950   -2.2241    2.6326 H   0  0  0  0  0  0  0  0  0  0  0  0
   -5.9560    3.2945    1.6470 H   0  0  0  0  0  0  0  0  0  0  0  0
   -6.1927    5.6617    0.9368 H   0  0  0  0  0  0  0  0  0  0  0  0
   -5.0876    5.3805   -0.4221 H   0  0  0  0  0  0  0  0  0  0  0  0
   -6.6510    4.5585   -0.3723 H   0  0  0  0  0  0  0  0  0  0  0  0
   -3.6131    3.3736    2.4524 H   0  0  0  0  0  0  0  0  0  0  0  0
   -4.3788    4.9639    2.6014 H   0  0  0  0  0  0  0  0  0  0  0  0
   -3.2311    4.6445    1.2866 H   0  0  0  0  0  0  0  0  0  0  0  0
    3.0693    1.1035   -0.4590 H   0  0  0  0  0  0  0  0  0  0  0  0
    4.6974   -2.2661    1.7404 H   0  0  0  0  0  0  0  0  0  0  0  0
    6.9056   -1.2372    1.6454 H   0  0  0  0  0  0  0  0  0  0  0  0
    7.2468    0.9125    0.4936 H   0  0  0  0  0  0  0  0  0  0  0  0
  1 33  1  0  0  0  0
  2 33  1  0  0  0  0
  3 33  1  0  0  0  0
  4 15  2  0  0  0  0
  5 16  2  0  0  0  0
  6 19  2  0  0  0  0
  7 12  1  0  0  0  0
  7 14  1  0  0  0  0
  7 16  1  0  0  0  0
  8 11  1  0  0  0  0
  8 19  1  0  0  0  0
  8 40  1  0  0  0  0
  9 15  1  0  0  0  0
  9 18  1  0  0  0  0
  9 41  1  0  0  0  0
 10 19  1  0  0  0  0
 10 24  1  0  0  0  0
 10 44  1  0  0  0  0
 11 12  1  0  0  0  0
 11 13  1  0  0  0  0
 11 34  1  0  0  0  0
 12 15  1  0  0  0  0
 12 35  1  0  0  0  0
 13 14  1  0  0  0  0
 13 36  1  0  0  0  0
 13 37  1  0  0  0  0
 14 38  1  0  0  0  0
 14 39  1  0  0  0  0
 16 17  1  0  0  0  0
 17 18  2  0  0  0  0
 17 20  1  0  0  0  0
 18 21  1  0  0  0  0
 20 22  2  0  0  0  0
 20 42  1  0  0  0  0
 21 23  2  0  0  0  0
 21 43  1  0  0  0  0
 22 23  1  0  0  0  0
 22 25  1  0  0  0  0
 23 45  1  0  0  0  0
 24 26  1  0  0  0  0
 24 27  1  0  0  0  0
 24 46  1  0  0  0  0
 25 28  2  0  0  0  0
 25 29  1  0  0  0  0
 26 47  1  0  0  0  0
 26 48  1  0  0  0  0
 26 49  1  0  0  0  0
 27 50  1  0  0  0  0
 27 51  1  0  0  0  0
 27 52  1  0  0  0  0
 28 30  1  0  0  0  0
 28 53  1  0  0  0  0
 29 31  2  0  0  0  0
 29 54  1  0  0  0  0
 30 32  2  0  0  0  0
 30 33  1  0  0  0  0
 31 32  1  0  0  0  0
 31 55  1  0  0  0  0
 32 56  1  0  0  0  0
M  END
> <PUBCHEM_COMPOUND_CID>
11941480

> <PUBCHEM_CONFORMER_RMSD>
1

> <PUBCHEM_CONFORMER_DIVERSEORDER>
1
7
16
8
11
17
9
5
12
6
14
18
3
4
15
10
13
2

> <PUBCHEM_MMFF94_PARTIAL_CHARGES>
38
1 -0.34
10 -0.73
11 0.3
12 0.36
14 0.3
15 0.57
16 0.54
17 0.09
18 0.12
19 0.69
2 -0.34
20 -0.15
21 -0.15
23 -0.15
24 0.3
28 -0.15
29 -0.15
3 -0.34
30 -0.14
31 -0.15
32 -0.15
33 1.16
4 -0.57
40 0.37
41 0.37
42 0.15
43 0.15
44 0.37
45 0.15
5 -0.57
53 0.15
54 0.15
55 0.15
56 0.15
6 -0.57
7 -0.66
8 -0.73
9 -0.55

> <PUBCHEM_EFFECTIVE_ROTOR_COUNT>
6.8

> <PUBCHEM_PHARMACOPHORE_FEATURES>
11
1 10 donor
1 4 acceptor
1 5 acceptor
1 6 acceptor
1 8 donor
1 9 donor
3 24 26 27 hydrophobe
5 7 11 12 13 14 rings
6 17 18 20 21 22 23 rings
6 25 28 29 30 31 32 rings
7 7 9 12 15 16 17 18 rings

> <PUBCHEM_HEAVY_ATOM_COUNT>
33

> <PUBCHEM_ATOM_DEF_STEREO_COUNT>
2

> <PUBCHEM_ATOM_UDEF_STEREO_COUNT>
0

> <PUBCHEM_BOND_DEF_STEREO_COUNT>
0

> <PUBCHEM_BOND_UDEF_STEREO_COUNT>
0

> <PUBCHEM_ISOTOPIC_ATOM_COUNT>
0

> <PUBCHEM_COMPONENT_COUNT>
1

> <PUBCHEM_CACTVS_TAUTO_COUNT>
9

> <PUBCHEM_CONFORMER_ID>
00B6366800000001

> <PUBCHEM_MMFF94_ENERGY>
96.8258

> <PUBCHEM_FEATURE_SELFOVERLAP>
55.93

> <PUBCHEM_SHAPE_FINGERPRINT>
100830 2 18340776922660058057
105312 117 17060333024586972871
11578080 2 17202785725897565407
12013929 29 18408892837102109140
12104220 4 18121798130984568557
12107183 9 18189606160464021562
12390115 104 17968380164526724902
12975358 362 17768266617600469281
13885169 86 18267026059756996145
14790565 3 18409449210863767296
15163728 17 17917154914073276511
15289351 153 18266168630499750904
15513586 35 18261953063161533957
15968369 153 17915725677864176305
16112460 7 18333449850503078284
20691028 202 18337666408950060321
21033648 29 16227145107781236390
21223535 225 18341896320851070916
21458453 9 15358281379695183584
21756936 100 18412819171185603427
21774942 28 18342738555617095488
22122407 14 18408325492520931432
23559900 14 18187631536834353306
249057 25 18339623603786972854
2838139 119 18202272598238460648
3388396 114 17552619762362526405
3552219 110 18335133255120141727
392239 28 17604135000454074790
4144715 1 18335711571802110826
44802255 64 17275095167868723726
50677037 204 18263074565048505412
5104073 3 17531236318870952258
57724786 102 18266172834006260095
6036956 94 18195813960323722081
6058803 2 18265029393796489323
6376802 137 17608384754841055483
6608658 132 18200584912741907557
7808743 9 18058721395894162867
9849439 229 18265344906741786005

> <PUBCHEM_SHAPE_MULTIPOLES>
619.77
16.42
5.4
2.02
9.14
6.47
-0.81
19.54
1.13
-6.76
1.27
-0.64
-0.68
-4.98

> <PUBCHEM_SHAPE_SELFOVERLAP>
1350.598

> <PUBCHEM_SHAPE_VOLUME>
338.1

> <PUBCHEM_COORDINATE_TYPE>
2
5
10

$$$$
