56776145
  -OEChem-12032416403D

 70 72  0     1  0  0  0  0  0999 V2000
    0.1073   -2.3719    0.0902 O   0  0  0  0  0  0  0  0  0  0  0  0
    1.7016   -1.7035   -3.0998 O   0  0  0  0  0  0  0  0  0  0  0  0
    5.8775    2.3138    3.2921 O   0  0  0  0  0  0  0  0  0  0  0  0
    6.0854    2.8498    1.0898 O   0  0  0  0  0  0  0  0  0  0  0  0
    2.8251   -0.0043   -1.9978 N   0  0  0  0  0  0  0  0  0  0  0  0
   -0.3113    0.2949   -1.7924 N   0  0  0  0  0  0  0  0  0  0  0  0
   -4.9765   -0.4506    1.3462 N   0  0  3  0  0  0  0  0  0  0  0  0
   -5.8299    2.6714   -0.4765 N   0  0  0  0  0  0  0  0  0  0  0  0
    4.0602   -0.8011   -0.0089 C   0  0  2  0  0  0  0  0  0  0  0  0
    4.4669    0.6681    0.2980 C   0  0  1  0  0  0  0  0  0  0  0  0
    3.4073    1.6537   -0.2252 C   0  0  0  0  0  0  0  0  0  0  0  0
    3.8797   -0.9131   -1.5366 C   0  0  0  0  0  0  0  0  0  0  0  0
    2.7905   -1.2343    0.7630 C   0  0  0  0  0  0  0  0  0  0  0  0
    3.0700    1.4136   -1.6984 C   0  0  0  0  0  0  0  0  0  0  0  0
    4.7602    0.9227    1.7765 C   0  0  0  0  0  0  0  0  0  0  0  0
    2.4068   -2.7147    0.6150 C   0  0  0  0  0  0  0  0  0  0  0  0
    1.7485   -0.5291   -2.7152 C   0  0  0  0  0  0  0  0  0  0  0  0
    0.9655   -2.9330    1.0873 C   0  0  0  0  0  0  0  0  0  0  0  0
    5.6387    2.1279    1.9685 C   0  0  0  0  0  0  0  0  0  0  0  0
    0.5498    0.3652   -2.9745 C   0  0  0  0  0  0  0  0  0  0  0  0
   -1.2242   -0.8529   -1.8494 C   0  0  0  0  0  0  0  0  0  0  0  0
   -1.1427   -1.9506    0.4552 C   0  0  0  0  0  0  0  0  0  0  0  0
   -1.8305   -1.1677   -0.4977 C   0  0  0  0  0  0  0  0  0  0  0  0
   -3.1047   -0.6698   -0.1857 C   0  0  0  0  0  0  0  0  0  0  0  0
   -1.7597   -2.2618    1.6709 C   0  0  0  0  0  0  0  0  0  0  0  0
   -3.7011   -0.9671    1.0382 C   0  0  0  0  0  0  0  0  0  0  0  0
   -3.0328   -1.7675    1.9602 C   0  0  0  0  0  0  0  0  0  0  0  0
   -5.6768    0.3896    0.3955 C   0  0  0  0  0  0  0  0  0  0  0  0
   -5.1551    1.8174    0.4928 C   0  0  0  0  0  0  0  0  0  0  0  0
   -5.6001   -0.7475    2.6202 C   0  0  0  0  0  0  0  0  0  0  0  0
   -5.7249    4.0786   -0.0859 C   0  0  0  0  0  0  0  0  0  0  0  0
   -5.2710    2.4738   -1.8155 C   0  0  0  0  0  0  0  0  0  0  0  0
    4.8860   -1.4604    0.2882 H   0  0  0  0  0  0  0  0  0  0  0  0
    5.3917    0.8535   -0.2683 H   0  0  0  0  0  0  0  0  0  0  0  0
    3.7473    2.6889   -0.1092 H   0  0  0  0  0  0  0  0  0  0  0  0
    2.4890    1.5665    0.3684 H   0  0  0  0  0  0  0  0  0  0  0  0
    4.8045   -0.6280   -2.0539 H   0  0  0  0  0  0  0  0  0  0  0  0
    3.6717   -1.9445   -1.8317 H   0  0  0  0  0  0  0  0  0  0  0  0
    1.9435   -0.6107    0.4577 H   0  0  0  0  0  0  0  0  0  0  0  0
    2.9310   -1.0422    1.8335 H   0  0  0  0  0  0  0  0  0  0  0  0
    2.2281    2.0483   -1.9715 H   0  0  0  0  0  0  0  0  0  0  0  0
    3.9160    1.7211   -2.3251 H   0  0  0  0  0  0  0  0  0  0  0  0
    3.8340    1.0732    2.3418 H   0  0  0  0  0  0  0  0  0  0  0  0
    5.2976    0.0648    2.1977 H   0  0  0  0  0  0  0  0  0  0  0  0
    3.0924   -3.3250    1.2132 H   0  0  0  0  0  0  0  0  0  0  0  0
    2.4872   -3.0400   -0.4257 H   0  0  0  0  0  0  0  0  0  0  0  0
    0.8378   -2.4568    2.0662 H   0  0  0  0  0  0  0  0  0  0  0  0
    0.7542   -4.0045    1.1673 H   0  0  0  0  0  0  0  0  0  0  0  0
    0.8484    1.3928   -3.1830 H   0  0  0  0  0  0  0  0  0  0  0  0
    0.0312    0.0258   -3.8796 H   0  0  0  0  0  0  0  0  0  0  0  0
   -0.8694    1.1468   -1.7325 H   0  0  0  0  0  0  0  0  0  0  0  0
   -0.7219   -1.7576   -2.2120 H   0  0  0  0  0  0  0  0  0  0  0  0
   -2.0205   -0.6516   -2.5779 H   0  0  0  0  0  0  0  0  0  0  0  0
    6.4492    3.0944    3.4544 H   0  0  0  0  0  0  0  0  0  0  0  0
   -3.5873   -0.0574   -0.9397 H   0  0  0  0  0  0  0  0  0  0  0  0
   -1.2791   -2.8937    2.4115 H   0  0  0  0  0  0  0  0  0  0  0  0
   -3.4595   -2.0371    2.9215 H   0  0  0  0  0  0  0  0  0  0  0  0
   -5.6368   -0.0347   -0.6132 H   0  0  0  0  0  0  0  0  0  0  0  0
   -6.7505    0.3957    0.6305 H   0  0  0  0  0  0  0  0  0  0  0  0
   -4.0651    1.8824    0.3900 H   0  0  0  0  0  0  0  0  0  0  0  0
   -5.3742    2.1681    1.5114 H   0  0  0  0  0  0  0  0  0  0  0  0
   -6.5738   -0.2537    2.7166 H   0  0  0  0  0  0  0  0  0  0  0  0
   -4.9885   -0.3873    3.4550 H   0  0  0  0  0  0  0  0  0  0  0  0
   -5.7798   -1.8224    2.7321 H   0  0  0  0  0  0  0  0  0  0  0  0
   -4.6830    4.4139   -0.0274 H   0  0  0  0  0  0  0  0  0  0  0  0
   -6.2538    4.7177   -0.8018 H   0  0  0  0  0  0  0  0  0  0  0  0
   -6.1981    4.2458    0.8882 H   0  0  0  0  0  0  0  0  0  0  0  0
   -5.7773    3.1250   -2.5376 H   0  0  0  0  0  0  0  0  0  0  0  0
   -4.1982    2.6967   -1.8545 H   0  0  0  0  0  0  0  0  0  0  0  0
   -5.4252    1.4524   -2.1755 H   0  0  0  0  0  0  0  0  0  0  0  0
  1 18  1  0  0  0  0
  1 22  1  0  0  0  0
  2 17  2  0  0  0  0
  3 19  1  0  0  0  0
  3 54  1  0  0  0  0
  4 19  2  0  0  0  0
  5 12  1  0  0  0  0
  5 14  1  0  0  0  0
  5 17  1  0  0  0  0
  6 20  1  0  0  0  0
  6 21  1  0  0  0  0
  6 51  1  0  0  0  0
  7 26  1  0  0  0  0
  7 28  1  0  0  0  0
  7 30  1  0  0  0  0
  8 29  1  0  0  0  0
  8 31  1  0  0  0  0
  8 32  1  0  0  0  0
  9 10  1  0  0  0  0
  9 12  1  0  0  0  0
  9 13  1  0  0  0  0
  9 33  1  0  0  0  0
 10 11  1  0  0  0  0
 10 15  1  0  0  0  0
 10 34  1  0  0  0  0
 11 14  1  0  0  0  0
 11 35  1  0  0  0  0
 11 36  1  0  0  0  0
 12 37  1  0  0  0  0
 12 38  1  0  0  0  0
 13 16  1  0  0  0  0
 13 39  1  0  0  0  0
 13 40  1  0  0  0  0
 14 41  1  0  0  0  0
 14 42  1  0  0  0  0
 15 19  1  0  0  0  0
 15 43  1  0  0  0  0
 15 44  1  0  0  0  0
 16 18  1  0  0  0  0
 16 45  1  0  0  0  0
 16 46  1  0  0  0  0
 17 20  1  0  0  0  0
 18 47  1  0  0  0  0
 18 48  1  0  0  0  0
 20 49  1  0  0  0  0
 20 50  1  0  0  0  0
 21 23  1  0  0  0  0
 21 52  1  0  0  0  0
 21 53  1  0  0  0  0
 22 23  2  0  0  0  0
 22 25  1  0  0  0  0
 23 24  1  0  0  0  0
 24 26  2  0  0  0  0
 24 55  1  0  0  0  0
 25 27  2  0  0  0  0
 25 56  1  0  0  0  0
 26 27  1  0  0  0  0
 27 57  1  0  0  0  0
 28 29  1  0  0  0  0
 28 58  1  0  0  0  0
 28 59  1  0  0  0  0
 29 60  1  0  0  0  0
 29 61  1  0  0  0  0
 30 62  1  0  0  0  0
 30 63  1  0  0  0  0
 30 64  1  0  0  0  0
 31 65  1  0  0  0  0
 31 66  1  0  0  0  0
 31 67  1  0  0  0  0
 32 68  1  0  0  0  0
 32 69  1  0  0  0  0
 32 70  1  0  0  0  0
M  END
> <PUBCHEM_COMPOUND_CID>
56776145

> <PUBCHEM_CONFORMER_RMSD>
1

> <PUBCHEM_CONFORMER_DIVERSEORDER>
4
107
37
23
92
76
112
86
111
83
7
62
101
113
65
105
64
80
33
116
52
121
87
72
81
40
14
63
25
78
13
122
74
104
45
60
57
5
51
115
69
10
73
91
102
31
117
68
123
100
21
77
43
15
35
90
61
41
84
67
50
29
66
109
6
97
114
38
79
12
70
56
32
106
95
108
9
118
3
58
44
85
34
103
28
55
27
47
11
89
42
54
39
93
124
110
1
36
119
53
98
71
46
120
96
18
8
59
48
88
75
24
82
17
49
20
2
22
16
30
99
19
94
26

> <PUBCHEM_MMFF94_PARTIAL_CHARGES>
32
1 -0.36
12 0.3
14 0.3
15 0.06
17 0.57
18 0.28
19 0.66
2 -0.57
20 0.33
21 0.41
22 0.08
23 -0.14
24 -0.15
25 -0.15
26 0.1
27 -0.15
28 0.37
29 0.27
3 -0.65
30 0.37
31 0.27
32 0.27
4 -0.57
5 -0.66
51 0.36
54 0.5
55 0.15
56 0.15
57 0.15
6 -0.9
7 -0.84
8 -0.81

> <PUBCHEM_EFFECTIVE_ROTOR_COUNT>
8.2

> <PUBCHEM_PHARMACOPHORE_FEATURES>
11
1 1 acceptor
1 2 acceptor
1 3 acceptor
1 4 acceptor
1 6 cation
1 6 donor
1 7 cation
1 8 cation
3 3 4 19 anion
6 22 23 24 25 26 27 rings
6 5 9 10 11 12 14 rings

> <PUBCHEM_HEAVY_ATOM_COUNT>
32

> <PUBCHEM_ATOM_DEF_STEREO_COUNT>
2

> <PUBCHEM_ATOM_UDEF_STEREO_COUNT>
0

> <PUBCHEM_BOND_DEF_STEREO_COUNT>
0

> <PUBCHEM_BOND_UDEF_STEREO_COUNT>
0

> <PUBCHEM_ISOTOPIC_ATOM_COUNT>
0

> <PUBCHEM_COMPONENT_COUNT>
1

> <PUBCHEM_CACTVS_TAUTO_COUNT>
2

> <PUBCHEM_CONFORMER_ID>
036255D100000004

> <PUBCHEM_MMFF94_ENERGY>
99.3065

> <PUBCHEM_FEATURE_SELFOVERLAP>
55.878

> <PUBCHEM_SHAPE_FINGERPRINT>
10674148 151 17750258975427010318
12422481 6 17313377890251078829
12633257 1 17972589155414767740
12925494 130 18115029585492209849
13383661 66 11870030923297481234
14747281 78 18057605366160563433
14950920 106 15502669229791350793
17492 54 14117250498265078150
19246450 95 16227147237858070333
1979834 28 17895202120584346634
20775530 9 12757687869181701160
21033648 29 18334295366080187811
21421861 104 16009041561483882990
23559900 14 17825682053766082475
2838139 119 17417819408899534681
3680242 22 15502375638310730930
4112364 45 18202282489627784403
444735 86 12102690019382207065
445580 182 17748817531886989369
484985 159 12833648643989148138
5104073 3 16877951580589897965
513202 73 13840257083899418975
58260988 393 17628070414918874910
6201320 77 11386924386535442705
7064713 232 17968099745615986298

> <PUBCHEM_SHAPE_MULTIPOLES>
615.14
15.36
3.75
3.09
6.72
1.26
0.43
13.54
-11.29
3.36
-1.34
-3.87
0.95
3.46

> <PUBCHEM_SHAPE_SELFOVERLAP>
1261.138

> <PUBCHEM_SHAPE_VOLUME>
351.1

> <PUBCHEM_COORDINATE_TYPE>
2
5
10

$$$$
