38028744
  -OEChem-12032416243D

 67 69  0     1  0  0  0  0  0999 V2000
   -3.1778   -0.7690    1.6498 S   0  0  0  0  0  0  0  0  0  0  0  0
    4.3759   -0.6694   -0.3987 O   0  0  0  0  0  0  0  0  0  0  0  0
   -3.0584   -0.4897    3.0681 O   0  0  0  0  0  0  0  0  0  0  0  0
   -4.4412   -1.2212    1.0994 O   0  0  0  0  0  0  0  0  0  0  0  0
   -1.6565    4.1272   -1.3069 O   0  0  0  0  0  0  0  0  0  0  0  0
    3.3340    1.1841    0.5052 N   0  0  0  0  0  0  0  0  0  0  0  0
   -1.9469   -1.8511    1.1845 N   0  0  0  0  0  0  0  0  0  0  0  0
   -0.1106   -1.6675   -1.1763 C   0  0  1  0  0  0  0  0  0  0  0  0
   -0.7439   -2.9709   -0.6287 C   0  0  1  0  0  0  0  0  0  0  0  0
    1.3972   -1.8577   -1.4021 C   0  0  0  0  0  0  0  0  0  0  0  0
    2.1346   -2.2528   -0.1087 C   0  0  2  0  0  0  0  0  0  0  0  0
   -0.7771   -1.2151   -2.4793 C   0  0  0  0  0  0  0  0  0  0  0  0
    1.4162   -3.3618    0.6328 C   0  0  0  0  0  0  0  0  0  0  0  0
    0.1341   -3.6774    0.3776 C   0  0  0  0  0  0  0  0  0  0  0  0
    2.3496   -1.0359    0.7982 C   0  0  0  0  0  0  0  0  0  0  0  0
   -2.1178   -2.6989   -0.0056 C   0  0  0  0  0  0  0  0  0  0  0  0
   -0.2040    0.1236   -2.9333 C   0  0  0  0  0  0  0  0  0  0  0  0
   -0.6007   -2.2743   -3.5626 C   0  0  0  0  0  0  0  0  0  0  0  0
    2.2197   -4.1314    1.6439 C   0  0  0  0  0  0  0  0  0  0  0  0
    3.4493   -0.1684    0.2405 C   0  0  0  0  0  0  0  0  0  0  0  0
    4.3168    2.1529    0.0425 C   0  0  0  0  0  0  0  0  0  0  0  0
    2.2634    1.8393    1.2502 C   0  0  0  0  0  0  0  0  0  0  0  0
    3.6505    3.5031    0.2575 C   0  0  0  0  0  0  0  0  0  0  0  0
    2.7711    3.2562    1.4767 C   0  0  0  0  0  0  0  0  0  0  0  0
   -2.7240    0.6934    0.7665 C   0  0  0  0  0  0  0  0  0  0  0  0
   -1.8745    1.6290    1.3571 C   0  0  0  0  0  0  0  0  0  0  0  0
   -3.2152    0.9119   -0.5206 C   0  0  0  0  0  0  0  0  0  0  0  0
   -1.5162    2.7831    0.6604 C   0  0  0  0  0  0  0  0  0  0  0  0
   -2.8570    2.0661   -1.2173 C   0  0  0  0  0  0  0  0  0  0  0  0
   -2.0075    3.0018   -0.6267 C   0  0  0  0  0  0  0  0  0  0  0  0
   -0.7830    5.0404   -0.6442 C   0  0  0  0  0  0  0  0  0  0  0  0
   -0.2417   -0.8628   -0.4436 H   0  0  0  0  0  0  0  0  0  0  0  0
   -0.8896   -3.7063   -1.4239 H   0  0  0  0  0  0  0  0  0  0  0  0
    1.8669   -0.9622   -1.8186 H   0  0  0  0  0  0  0  0  0  0  0  0
    1.5785   -2.6657   -2.1208 H   0  0  0  0  0  0  0  0  0  0  0  0
    3.1043   -2.6657   -0.4185 H   0  0  0  0  0  0  0  0  0  0  0  0
   -1.8494   -1.0699   -2.3150 H   0  0  0  0  0  0  0  0  0  0  0  0
   -0.3168   -4.5139    0.9083 H   0  0  0  0  0  0  0  0  0  0  0  0
    2.6813   -1.3328    1.7998 H   0  0  0  0  0  0  0  0  0  0  0  0
    1.4134   -0.4886    0.9238 H   0  0  0  0  0  0  0  0  0  0  0  0
   -2.5851   -3.6392    0.3108 H   0  0  0  0  0  0  0  0  0  0  0  0
   -2.7886   -2.2320   -0.7310 H   0  0  0  0  0  0  0  0  0  0  0  0
    0.7875    0.0274   -3.3869 H   0  0  0  0  0  0  0  0  0  0  0  0
   -0.1383    0.8379   -2.1067 H   0  0  0  0  0  0  0  0  0  0  0  0
   -0.8533    0.5654   -3.6979 H   0  0  0  0  0  0  0  0  0  0  0  0
    0.4417   -2.4610   -3.8323 H   0  0  0  0  0  0  0  0  0  0  0  0
   -1.0827   -1.9194   -4.4830 H   0  0  0  0  0  0  0  0  0  0  0  0
   -1.0866   -3.2243   -3.3343 H   0  0  0  0  0  0  0  0  0  0  0  0
    3.1237   -4.5393    1.1802 H   0  0  0  0  0  0  0  0  0  0  0  0
    1.6573   -4.9739    2.0607 H   0  0  0  0  0  0  0  0  0  0  0  0
    2.5155   -3.4907    2.4794 H   0  0  0  0  0  0  0  0  0  0  0  0
   -1.3173   -2.2012    1.9165 H   0  0  0  0  0  0  0  0  0  0  0  0
    4.5864    1.9673   -1.0014 H   0  0  0  0  0  0  0  0  0  0  0  0
    5.2119    2.0419    0.6645 H   0  0  0  0  0  0  0  0  0  0  0  0
    2.0532    1.3154    2.1869 H   0  0  0  0  0  0  0  0  0  0  0  0
    1.3697    1.8336    0.6184 H   0  0  0  0  0  0  0  0  0  0  0  0
    3.0229    3.7547   -0.6060 H   0  0  0  0  0  0  0  0  0  0  0  0
    4.3719    4.3111    0.4057 H   0  0  0  0  0  0  0  0  0  0  0  0
    3.3815    3.2951    2.3870 H   0  0  0  0  0  0  0  0  0  0  0  0
    1.9607    3.9833    1.5757 H   0  0  0  0  0  0  0  0  0  0  0  0
   -1.4745    1.4731    2.3551 H   0  0  0  0  0  0  0  0  0  0  0  0
   -3.8732    0.1946   -1.0025 H   0  0  0  0  0  0  0  0  0  0  0  0
   -0.8511    3.4666    1.1772 H   0  0  0  0  0  0  0  0  0  0  0  0
   -3.2402    2.2293   -2.2208 H   0  0  0  0  0  0  0  0  0  0  0  0
   -0.6105    5.8773   -1.3287 H   0  0  0  0  0  0  0  0  0  0  0  0
    0.1932    4.5870   -0.4416 H   0  0  0  0  0  0  0  0  0  0  0  0
   -1.2438    5.4554    0.2587 H   0  0  0  0  0  0  0  0  0  0  0  0
  1  3  2  0  0  0  0
  1  4  2  0  0  0  0
  1  7  1  0  0  0  0
  1 25  1  0  0  0  0
  2 20  2  0  0  0  0
  5 30  1  0  0  0  0
  5 31  1  0  0  0  0
  6 20  1  0  0  0  0
  6 21  1  0  0  0  0
  6 22  1  0  0  0  0
  7 16  1  0  0  0  0
  7 52  1  0  0  0  0
  8  9  1  0  0  0  0
  8 10  1  0  0  0  0
  8 12  1  0  0  0  0
  8 32  1  0  0  0  0
  9 14  1  0  0  0  0
  9 16  1  0  0  0  0
  9 33  1  0  0  0  0
 10 11  1  0  0  0  0
 10 34  1  0  0  0  0
 10 35  1  0  0  0  0
 11 13  1  0  0  0  0
 11 15  1  0  0  0  0
 11 36  1  0  0  0  0
 12 17  1  0  0  0  0
 12 18  1  0  0  0  0
 12 37  1  0  0  0  0
 13 14  2  0  0  0  0
 13 19  1  0  0  0  0
 14 38  1  0  0  0  0
 15 20  1  0  0  0  0
 15 39  1  0  0  0  0
 15 40  1  0  0  0  0
 16 41  1  0  0  0  0
 16 42  1  0  0  0  0
 17 43  1  0  0  0  0
 17 44  1  0  0  0  0
 17 45  1  0  0  0  0
 18 46  1  0  0  0  0
 18 47  1  0  0  0  0
 18 48  1  0  0  0  0
 19 49  1  0  0  0  0
 19 50  1  0  0  0  0
 19 51  1  0  0  0  0
 21 23  1  0  0  0  0
 21 53  1  0  0  0  0
 21 54  1  0  0  0  0
 22 24  1  0  0  0  0
 22 55  1  0  0  0  0
 22 56  1  0  0  0  0
 23 24  1  0  0  0  0
 23 57  1  0  0  0  0
 23 58  1  0  0  0  0
 24 59  1  0  0  0  0
 24 60  1  0  0  0  0
 25 26  2  0  0  0  0
 25 27  1  0  0  0  0
 26 28  1  0  0  0  0
 26 61  1  0  0  0  0
 27 29  2  0  0  0  0
 27 62  1  0  0  0  0
 28 30  2  0  0  0  0
 28 63  1  0  0  0  0
 29 30  1  0  0  0  0
 29 64  1  0  0  0  0
 31 65  1  0  0  0  0
 31 66  1  0  0  0  0
 31 67  1  0  0  0  0
M  END
> <PUBCHEM_COMPOUND_CID>
38028744

> <PUBCHEM_CONFORMER_RMSD>
1.4

> <PUBCHEM_CONFORMER_DIVERSEORDER>
2
30
45
116
71
72
121
80
75
110
48
53
59
33
115
102
63
27
68
123
58
120
117
62
87
39
34
47
43
118
76
6
86
49
99
40
106
3
111
35
105
56
73
67
38
23
88
61
54
83
37
20
60
114
41
70
85
46
94
51
89
112
81
65
36
4
24
26
74
95
7
119
93
11
107
8
29
16
32
15
127
69
1
126
124
109
22
125
10
84
42
25
77
113
12
5
21
55
66
90
98
50
14
97
122
44
19
28
13
52
18
9
57
79
92
103
64
108
104
96
17
31
78
82
101
91
100

> <PUBCHEM_MMFF94_PARTIAL_CHARGES>
30
1 1.45
11 0.14
13 -0.28
14 -0.29
15 0.06
16 0.36
19 0.14
2 -0.57
20 0.57
21 0.3
22 0.3
25 -0.01
26 -0.15
27 -0.15
28 -0.15
29 -0.15
3 -0.65
30 0.08
31 0.28
38 0.15
4 -0.65
5 -0.36
52 0.42
6 -0.66
61 0.15
62 0.15
63 0.15
64 0.15
7 -0.91
9 0.14

> <PUBCHEM_EFFECTIVE_ROTOR_COUNT>
10.8

> <PUBCHEM_PHARMACOPHORE_FEATURES>
9
1 2 acceptor
1 3 acceptor
1 4 acceptor
1 5 acceptor
1 7 donor
3 12 17 18 hydrophobe
5 6 21 22 23 24 rings
6 25 26 27 28 29 30 rings
6 8 9 10 11 13 14 rings

> <PUBCHEM_HEAVY_ATOM_COUNT>
31

> <PUBCHEM_ATOM_DEF_STEREO_COUNT>
3

> <PUBCHEM_ATOM_UDEF_STEREO_COUNT>
0

> <PUBCHEM_BOND_DEF_STEREO_COUNT>
0

> <PUBCHEM_BOND_UDEF_STEREO_COUNT>
0

> <PUBCHEM_ISOTOPIC_ATOM_COUNT>
0

> <PUBCHEM_COMPONENT_COUNT>
1

> <PUBCHEM_CACTVS_TAUTO_COUNT>
1

> <PUBCHEM_CONFORMER_ID>
024445C800000002

> <PUBCHEM_MMFF94_ENERGY>
65.9394

> <PUBCHEM_FEATURE_SELFOVERLAP>
45.69

> <PUBCHEM_SHAPE_FINGERPRINT>
11513181 2 16548354510738132316
12156800 1 16968064431155913684
12539773 59 17269203048021407979
12633257 1 17178556663495910115
13122387 1 18051129198910548440
13583140 156 18263925449360855007
1361 2 18266724939721251021
17921350 177 18199189486494255806
17974551 9 17680718012094554595
19930381 70 18337659816196008881
20764821 26 18265597948507320528
21860390 5 17405135232297525102
238 59 18126545865300668469
35225 105 18059288872189642212
469060 322 17977927300893556585
5081480 168 16842507560658813806

> <PUBCHEM_SHAPE_MULTIPOLES>
608.38
6.62
6.57
2.55
0.38
5.14
-1.43
2.5
1.98
2.22
0.69
-1.21
-1.8
1.41

> <PUBCHEM_SHAPE_SELFOVERLAP>
1247.334

> <PUBCHEM_SHAPE_VOLUME>
353.8

> <PUBCHEM_COORDINATE_TYPE>
2
5
10

$$$$
