51137137
  -OEChem-12032416223D

 52 56  0     1  0  0  0  0  0999 V2000
    6.9789    0.4730   -0.7045 S   0  0  0  0  0  0  0  0  0  0  0  0
    1.7832   -1.7926    0.6562 O   0  0  0  0  0  0  0  0  0  0  0  0
    7.8860   -0.5693   -1.1619 O   0  0  0  0  0  0  0  0  0  0  0  0
    6.7061    1.6216   -1.5550 O   0  0  0  0  0  0  0  0  0  0  0  0
   -2.4662    0.1806    0.0565 N   0  0  1  0  0  0  0  0  0  0  0  0
    1.7883    0.4045    0.0998 N   0  0  0  0  0  0  0  0  0  0  0  0
   -6.5405    2.0079    0.3369 N   0  0  0  0  0  0  0  0  0  0  0  0
   -0.4075   -0.7266    0.7183 C   0  0  2  0  0  0  0  0  0  0  0  0
   -1.2416   -0.3769   -0.5215 C   0  0  0  0  0  0  0  0  0  0  0  0
   -0.9354    0.2093    1.8196 C   0  0  0  0  0  0  0  0  0  0  0  0
   -2.0096    1.0495    1.1412 C   0  0  0  0  0  0  0  0  0  0  0  0
   -3.2684    0.8952   -0.9255 C   0  0  0  0  0  0  0  0  0  0  0  0
    1.0808   -0.6399    0.4708 C   0  0  0  0  0  0  0  0  0  0  0  0
   -4.6887    1.0804   -0.4615 C   0  0  0  0  0  0  0  0  0  0  0  0
   -5.7101    0.0900   -0.4434 C   0  0  0  0  0  0  0  0  0  0  0  0
    3.0687   -0.0891    0.0311 C   0  0  0  0  0  0  0  0  0  0  0  0
    3.0694   -1.4339    0.3710 C   0  0  0  0  0  0  0  0  0  0  0  0
   -5.2295    2.2486    0.0240 C   0  0  0  0  0  0  0  0  0  0  0  0
   -6.8615    0.6978    0.0618 C   0  0  0  0  0  0  0  0  0  0  0  0
    4.2829    0.5248   -0.3078 C   0  0  0  0  0  0  0  0  0  0  0  0
    5.4461   -0.2584   -0.2857 C   0  0  0  0  0  0  0  0  0  0  0  0
    4.1994   -2.2415    0.4043 C   0  0  0  0  0  0  0  0  0  0  0  0
   -5.7659   -1.2696   -0.8095 C   0  0  0  0  0  0  0  0  0  0  0  0
    5.4025   -1.6138    0.0637 C   0  0  0  0  0  0  0  0  0  0  0  0
   -8.0706    0.0113    0.2199 C   0  0  0  0  0  0  0  0  0  0  0  0
   -6.9688   -1.9689   -0.6569 C   0  0  0  0  0  0  0  0  0  0  0  0
   -8.1021   -1.3363   -0.1499 C   0  0  0  0  0  0  0  0  0  0  0  0
    7.6157    1.0744    0.8425 C   0  0  0  0  0  0  0  0  0  0  0  0
    8.9583    1.7477    0.6655 C   0  0  0  0  0  0  0  0  0  0  0  0
   -0.6438   -1.7574    1.0187 H   0  0  0  0  0  0  0  0  0  0  0  0
   -1.4468   -1.2671   -1.1261 H   0  0  0  0  0  0  0  0  0  0  0  0
   -0.7269    0.3580   -1.1550 H   0  0  0  0  0  0  0  0  0  0  0  0
   -1.3786   -0.3902    2.6246 H   0  0  0  0  0  0  0  0  0  0  0  0
   -0.1577    0.8395    2.2640 H   0  0  0  0  0  0  0  0  0  0  0  0
   -1.5649    1.9791    0.7631 H   0  0  0  0  0  0  0  0  0  0  0  0
   -2.8104    1.3043    1.8424 H   0  0  0  0  0  0  0  0  0  0  0  0
   -3.3135    0.3143   -1.8573 H   0  0  0  0  0  0  0  0  0  0  0  0
   -2.8227    1.8613   -1.1973 H   0  0  0  0  0  0  0  0  0  0  0  0
   -4.8006    3.2293    0.1761 H   0  0  0  0  0  0  0  0  0  0  0  0
   -7.1805    2.6924    0.7155 H   0  0  0  0  0  0  0  0  0  0  0  0
    4.3043    1.5772   -0.5700 H   0  0  0  0  0  0  0  0  0  0  0  0
    4.1550   -3.2883    0.6775 H   0  0  0  0  0  0  0  0  0  0  0  0
   -4.8916   -1.7779   -1.2059 H   0  0  0  0  0  0  0  0  0  0  0  0
    6.3119   -2.2100    0.0844 H   0  0  0  0  0  0  0  0  0  0  0  0
   -8.9535    0.5029    0.6145 H   0  0  0  0  0  0  0  0  0  0  0  0
   -7.0177   -3.0177   -0.9375 H   0  0  0  0  0  0  0  0  0  0  0  0
    7.7054    0.2206    1.5209 H   0  0  0  0  0  0  0  0  0  0  0  0
    6.8869    1.7811    1.2505 H   0  0  0  0  0  0  0  0  0  0  0  0
   -9.0259   -1.8985   -0.0397 H   0  0  0  0  0  0  0  0  0  0  0  0
    9.3306    2.1126    1.6276 H   0  0  0  0  0  0  0  0  0  0  0  0
    8.8866    2.6006   -0.0171 H   0  0  0  0  0  0  0  0  0  0  0  0
    9.6990    1.0538    0.2554 H   0  0  0  0  0  0  0  0  0  0  0  0
  1  3  2  0  0  0  0
  1  4  2  0  0  0  0
  1 21  1  0  0  0  0
  1 28  1  0  0  0  0
  2 13  1  0  0  0  0
  2 17  1  0  0  0  0
  5  9  1  0  0  0  0
  5 11  1  0  0  0  0
  5 12  1  0  0  0  0
  6 13  2  0  0  0  0
  6 16  1  0  0  0  0
  7 18  1  0  0  0  0
  7 19  1  0  0  0  0
  7 40  1  0  0  0  0
  8  9  1  0  0  0  0
  8 10  1  0  0  0  0
  8 13  1  0  0  0  0
  8 30  1  0  0  0  0
  9 31  1  0  0  0  0
  9 32  1  0  0  0  0
 10 11  1  0  0  0  0
 10 33  1  0  0  0  0
 10 34  1  0  0  0  0
 11 35  1  0  0  0  0
 11 36  1  0  0  0  0
 12 14  1  0  0  0  0
 12 37  1  0  0  0  0
 12 38  1  0  0  0  0
 14 15  1  0  0  0  0
 14 18  2  0  0  0  0
 15 19  1  0  0  0  0
 15 23  2  0  0  0  0
 16 17  2  0  0  0  0
 16 20  1  0  0  0  0
 17 22  1  0  0  0  0
 18 39  1  0  0  0  0
 19 25  2  0  0  0  0
 20 21  2  0  0  0  0
 20 41  1  0  0  0  0
 21 24  1  0  0  0  0
 22 24  2  0  0  0  0
 22 42  1  0  0  0  0
 23 26  1  0  0  0  0
 23 43  1  0  0  0  0
 24 44  1  0  0  0  0
 25 27  1  0  0  0  0
 25 45  1  0  0  0  0
 26 27  2  0  0  0  0
 26 46  1  0  0  0  0
 27 49  1  0  0  0  0
 28 29  1  0  0  0  0
 28 47  1  0  0  0  0
 28 48  1  0  0  0  0
 29 50  1  0  0  0  0
 29 51  1  0  0  0  0
 29 52  1  0  0  0  0
M  END
> <PUBCHEM_COMPOUND_CID>
51137137

> <PUBCHEM_CONFORMER_RMSD>
1

> <PUBCHEM_CONFORMER_DIVERSEORDER>
1
116
134
41
106
44
26
136
105
29
34
24
121
130
23
127
79
83
35
52
119
74
114
123
145
96
101
27
21
22
91
48
133
139
5
58
61
67
3
143
128
112
103
69
28
131
81
137
2
36
120
111
104
57
80
54
31
124
68
7
138
6
59
53
99
125
46
45
115
20
144
12
55
10
89
100
122
65
32
11
93
129
75
126
92
135
107
39
70
109
17
113
142
49
102
40
16
94
108
140
73
15
86
13
38
141
117
9
76
62
77
47
8
30
132
43
110
95
42
66
60
118
98
37
63
82
50
4
51
71
97
18
88
25
85
87
78
19
56
33
64
14
84
90
72

> <PUBCHEM_MMFF94_PARTIAL_CHARGES>
35
1 1.2
11 0.27
12 0.45
13 0.3
14 -0.18
16 0.23
17 0.14
18 -0.3
19 -0.15
2 -0.28
20 -0.15
21 -0.01
22 -0.15
23 -0.15
24 -0.15
25 -0.15
26 -0.15
27 -0.15
28 0.11
3 -0.65
39 0.15
4 -0.65
40 0.27
41 0.15
42 0.15
43 0.15
44 0.15
45 0.15
46 0.15
49 0.15
5 -0.81
6 -0.57
7 0.03
8 0.18
9 0.27

> <PUBCHEM_EFFECTIVE_ROTOR_COUNT>
6

> <PUBCHEM_PHARMACOPHORE_FEATURES>
10
1 3 acceptor
1 4 acceptor
1 5 cation
1 7 cation
1 7 donor
5 2 6 13 16 17 rings
5 5 8 9 10 11 rings
5 7 14 15 18 19 rings
6 15 19 23 25 26 27 rings
6 16 17 20 21 22 24 rings

> <PUBCHEM_HEAVY_ATOM_COUNT>
29

> <PUBCHEM_ATOM_DEF_STEREO_COUNT>
1

> <PUBCHEM_ATOM_UDEF_STEREO_COUNT>
0

> <PUBCHEM_BOND_DEF_STEREO_COUNT>
0

> <PUBCHEM_BOND_UDEF_STEREO_COUNT>
0

> <PUBCHEM_ISOTOPIC_ATOM_COUNT>
0

> <PUBCHEM_COMPONENT_COUNT>
1

> <PUBCHEM_CACTVS_TAUTO_COUNT>
1

> <PUBCHEM_CONFORMER_ID>
030C4A7100000001

> <PUBCHEM_MMFF94_ENERGY>
42.6281

> <PUBCHEM_FEATURE_SELFOVERLAP>
50.975

> <PUBCHEM_SHAPE_FINGERPRINT>
10 15 14634875253894901604
10076449 9 17846219999064651355
10162869 55 17603584170365658502
10299344 5 18412263926635275199
10595046 47 18335419015798551227
10666366 153 11963664483642797042
10674148 151 11167941360137484510
11146346 142 17901395807640105772
11315181 36 18409729544323500545
12082328 90 18202000997718897085
12166972 35 18409449185073429513
12236239 1 18341048527806326347
12373685 5 17313096475910761858
13422730 43 18335131012244723616
1361 4 18409445869680846227
13685833 64 11095882653829639816
14251764 18 17894347778658467888
14347424 109 9007051358318160110
14444916 359 15195569005024063181
14849402 71 18334581273521917389
14856354 85 17989205950471031679
14933364 13 18342175549142679941
15142383 8 11674878896973908606
15183329 4 18410291394005736467
15301273 46 11530475623961288464
1577012 14 18336825299581043649
15840311 113 18409451402183487412
16994733 274 18114742629567933209
18335252 98 18412546517944936083
18365409 1 18268992154067483006
18608769 82 18411415141891065315
20105231 36 16487258780992551135
20157964 124 18186803552748424898
2026 5 15050629093655587204
20554085 129 15140675908192447560
21049683 271 18342174496633781857
21150785 3 18410576192764647786
21403212 168 12829481554548486712
21585481 151 8934999283218502288
21792961 116 17346600729770411671
21795232 338 18412269454880522107
22224240 67 17167581592046590634
23424782 7 18412261770144948363
23516275 137 18127712452161863083
23522609 53 18267327364402864697
23559900 14 18341317991025762721
24771293 8 17749393650115143476
335352 9 18187654592466282670
335507 130 18409169943837843991
34797466 226 16415759743847356392
3552219 110 17632585954633975985
395649 100 18114180899654366227
4073 2 18040722471577634923
4258327 124 17677067839985988934
4325135 7 18335139795975096183
44317340 157 17274533334733568408
445580 167 18260546740586354247
5219985 9 12895355486707434314
5265222 85 18130784590184985823
5381727 24 18261106384037839690
5470011 282 17489873735226914756
5758199 1 18259704488582827578
6394761 36 11167943567265403467
6691757 9 16153717517822800425
67123 10 18342175583375733348

> <PUBCHEM_SHAPE_MULTIPOLES>
568.1
29.15
2.02
1.08
7.04
0.12
-0.08
-4.89
4.39
-0.4
-0.06
0.69
-0.15
-0.71

> <PUBCHEM_SHAPE_SELFOVERLAP>
1240.987

> <PUBCHEM_SHAPE_VOLUME>
312.9

> <PUBCHEM_COORDINATE_TYPE>
2
5
10

$$$$
