25389527
  -OEChem-12032416163D

 64 68  0     1  0  0  0  0  0999 V2000
   -3.5005    1.6288   -0.0390 O   0  0  0  0  0  0  0  0  0  0  0  0
   -3.0592    2.8534    1.8532 O   0  0  0  0  0  0  0  0  0  0  0  0
   -4.0040   -2.0121    0.5313 N   0  0  2  0  0  0  0  0  0  0  0  0
    0.4916   -3.5677    0.6599 N   0  0  0  0  0  0  0  0  0  0  0  0
    1.7635   -3.1478    0.7701 N   0  0  0  0  0  0  0  0  0  0  0  0
   -3.2382    3.8655   -0.2268 N   0  0  0  0  0  0  0  0  0  0  0  0
   -2.4503   -2.3702   -1.5280 C   0  0  2  0  0  0  0  0  0  0  0  0
   -1.7999   -2.9613   -0.2467 C   0  0  2  0  0  0  0  0  0  0  0  0
   -3.8316   -0.7316   -0.2042 C   0  0  2  0  0  0  0  0  0  0  0  0
   -2.7553   -0.8744   -1.3016 C   0  0  0  0  0  0  0  0  0  0  0  0
   -3.8055   -3.0869   -1.7105 C   0  0  0  0  0  0  0  0  0  0  0  0
   -2.6824   -2.5337    0.9607 C   0  0  0  0  0  0  0  0  0  0  0  0
   -4.6082   -2.9938   -0.4011 C   0  0  0  0  0  0  0  0  0  0  0  0
   -0.3210   -2.6960   -0.0035 C   0  0  0  0  0  0  0  0  0  0  0  0
   -3.5395    0.4433    0.7317 C   0  0  0  0  0  0  0  0  0  0  0  0
    0.4744   -1.6316   -0.3511 C   0  0  0  0  0  0  0  0  0  0  0  0
    1.7469   -1.9646    0.1506 C   0  0  0  0  0  0  0  0  0  0  0  0
    0.1174   -4.8419    1.2285 C   0  0  0  0  0  0  0  0  0  0  0  0
    2.9457   -1.1737    0.0509 C   0  0  0  0  0  0  0  0  0  0  0  0
   -3.2474    2.7950    0.6424 C   0  0  0  0  0  0  0  0  0  0  0  0
    2.8611    0.2182    0.0068 C   0  0  0  0  0  0  0  0  0  0  0  0
    4.1885   -1.7981   -0.0006 C   0  0  0  0  0  0  0  0  0  0  0  0
   -2.9998    5.2300    0.1837 C   0  0  0  0  0  0  0  0  0  0  0  0
    4.0211    1.0039   -0.0897 C   0  0  0  0  0  0  0  0  0  0  0  0
    5.3513   -1.0332   -0.0965 C   0  0  0  0  0  0  0  0  0  0  0  0
    5.2848    0.3689   -0.1422 C   0  0  0  0  0  0  0  0  0  0  0  0
   -3.7727    6.1936   -0.7074 C   0  0  0  0  0  0  0  0  0  0  0  0
   -1.5081    5.5400    0.1686 C   0  0  0  0  0  0  0  0  0  0  0  0
    3.9547    2.4060   -0.1355 C   0  0  0  0  0  0  0  0  0  0  0  0
    6.4448    1.1546   -0.2389 C   0  0  0  0  0  0  0  0  0  0  0  0
    5.1174    3.1710   -0.2316 C   0  0  0  0  0  0  0  0  0  0  0  0
    6.3601    2.5465   -0.2832 C   0  0  0  0  0  0  0  0  0  0  0  0
   -1.8115   -2.5102   -2.4064 H   0  0  0  0  0  0  0  0  0  0  0  0
   -1.8944   -4.0527   -0.3509 H   0  0  0  0  0  0  0  0  0  0  0  0
   -4.7822   -0.4888   -0.7021 H   0  0  0  0  0  0  0  0  0  0  0  0
   -1.8532   -0.3170   -1.0457 H   0  0  0  0  0  0  0  0  0  0  0  0
   -3.1346   -0.4385   -2.2348 H   0  0  0  0  0  0  0  0  0  0  0  0
   -3.6500   -4.1385   -1.9780 H   0  0  0  0  0  0  0  0  0  0  0  0
   -4.3650   -2.6227   -2.5318 H   0  0  0  0  0  0  0  0  0  0  0  0
   -2.8428   -3.4022    1.6130 H   0  0  0  0  0  0  0  0  0  0  0  0
   -2.1704   -1.8015    1.5956 H   0  0  0  0  0  0  0  0  0  0  0  0
   -5.6459   -2.7130   -0.6196 H   0  0  0  0  0  0  0  0  0  0  0  0
   -4.6654   -3.9780    0.0809 H   0  0  0  0  0  0  0  0  0  0  0  0
   -2.5788    0.3190    1.2435 H   0  0  0  0  0  0  0  0  0  0  0  0
   -4.3328    0.5248    1.4849 H   0  0  0  0  0  0  0  0  0  0  0  0
    0.1923   -0.7487   -0.9029 H   0  0  0  0  0  0  0  0  0  0  0  0
   -0.1510   -5.5184    0.4137 H   0  0  0  0  0  0  0  0  0  0  0  0
    0.9635   -5.2540    1.7855 H   0  0  0  0  0  0  0  0  0  0  0  0
   -0.7247   -4.6914    1.9073 H   0  0  0  0  0  0  0  0  0  0  0  0
    1.8937    0.7156    0.0580 H   0  0  0  0  0  0  0  0  0  0  0  0
    4.2860   -2.8809    0.0233 H   0  0  0  0  0  0  0  0  0  0  0  0
   -3.3623    3.6715   -1.2163 H   0  0  0  0  0  0  0  0  0  0  0  0
   -3.3627    5.3419    1.2126 H   0  0  0  0  0  0  0  0  0  0  0  0
    6.3120   -1.5423   -0.1374 H   0  0  0  0  0  0  0  0  0  0  0  0
   -3.4513    6.1155   -1.7521 H   0  0  0  0  0  0  0  0  0  0  0  0
   -4.8459    5.9753   -0.6759 H   0  0  0  0  0  0  0  0  0  0  0  0
   -3.6281    7.2292   -0.3826 H   0  0  0  0  0  0  0  0  0  0  0  0
   -1.0883    5.4207   -0.8366 H   0  0  0  0  0  0  0  0  0  0  0  0
   -0.9608    4.8645    0.8351 H   0  0  0  0  0  0  0  0  0  0  0  0
   -1.3181    6.5665    0.4986 H   0  0  0  0  0  0  0  0  0  0  0  0
    2.9943    2.9160   -0.0967 H   0  0  0  0  0  0  0  0  0  0  0  0
    7.4268    0.6879   -0.2806 H   0  0  0  0  0  0  0  0  0  0  0  0
    5.0522    4.2546   -0.2661 H   0  0  0  0  0  0  0  0  0  0  0  0
    7.2650    3.1427   -0.3581 H   0  0  0  0  0  0  0  0  0  0  0  0
  1 15  1  0  0  0  0
  1 20  1  0  0  0  0
  2 20  2  0  0  0  0
  3  9  1  0  0  0  0
  3 12  1  0  0  0  0
  3 13  1  0  0  0  0
  4  5  1  0  0  0  0
  4 14  1  0  0  0  0
  4 18  1  0  0  0  0
  5 17  2  0  0  0  0
  6 20  1  0  0  0  0
  6 23  1  0  0  0  0
  6 52  1  0  0  0  0
  7  8  1  0  0  0  0
  7 10  1  0  0  0  0
  7 11  1  0  0  0  0
  7 33  1  0  0  0  0
  8 12  1  0  0  0  0
  8 14  1  0  0  0  0
  8 34  1  0  0  0  0
  9 10  1  0  0  0  0
  9 15  1  0  0  0  0
  9 35  1  0  0  0  0
 10 36  1  0  0  0  0
 10 37  1  0  0  0  0
 11 13  1  0  0  0  0
 11 38  1  0  0  0  0
 11 39  1  0  0  0  0
 12 40  1  0  0  0  0
 12 41  1  0  0  0  0
 13 42  1  0  0  0  0
 13 43  1  0  0  0  0
 14 16  2  0  0  0  0
 15 44  1  0  0  0  0
 15 45  1  0  0  0  0
 16 17  1  0  0  0  0
 16 46  1  0  0  0  0
 17 19  1  0  0  0  0
 18 47  1  0  0  0  0
 18 48  1  0  0  0  0
 18 49  1  0  0  0  0
 19 21  2  0  0  0  0
 19 22  1  0  0  0  0
 21 24  1  0  0  0  0
 21 50  1  0  0  0  0
 22 25  2  0  0  0  0
 22 51  1  0  0  0  0
 23 27  1  0  0  0  0
 23 28  1  0  0  0  0
 23 53  1  0  0  0  0
 24 26  1  0  0  0  0
 24 29  2  0  0  0  0
 25 26  1  0  0  0  0
 25 54  1  0  0  0  0
 26 30  2  0  0  0  0
 27 55  1  0  0  0  0
 27 56  1  0  0  0  0
 27 57  1  0  0  0  0
 28 58  1  0  0  0  0
 28 59  1  0  0  0  0
 28 60  1  0  0  0  0
 29 31  1  0  0  0  0
 29 61  1  0  0  0  0
 30 32  1  0  0  0  0
 30 62  1  0  0  0  0
 31 32  2  0  0  0  0
 31 63  1  0  0  0  0
 32 64  1  0  0  0  0
M  END
> <PUBCHEM_COMPOUND_CID>
25389527

> <PUBCHEM_CONFORMER_RMSD>
1

> <PUBCHEM_CONFORMER_DIVERSEORDER>
1
33
84
70
31
89
4
5
65
46
87
98
39
48
80
88
35
100
93
22
99
79
57
94
95
36
9
52
63
49
13
62
40
71
3
91
77
82
78
51
12
26
24
30
73
16
96
56
18
7
6
17
55
44
23
29
81
45
69
74
60
76
15
59
50
64
37
97
54
8
85
68
47
10
92
11
28
86
41
34
20
2
83
53
42
67
32
19
58
90
14
61
21
43
72
66
25
75
27
38

> <PUBCHEM_MMFF94_PARTIAL_CHARGES>
34
1 -0.43
12 0.27
13 0.27
14 -0.33
15 0.28
16 -0.15
17 0.23
18 0.26
19 0.05
2 -0.57
20 0.78
21 -0.15
22 -0.15
23 0.3
25 -0.15
29 -0.15
3 -0.81
30 -0.15
31 -0.15
32 -0.15
4 0.31
46 0.15
5 -0.71
50 0.15
51 0.15
52 0.37
54 0.15
6 -0.73
61 0.15
62 0.15
63 0.15
64 0.15
8 0.18
9 0.27

> <PUBCHEM_EFFECTIVE_ROTOR_COUNT>
8.2

> <PUBCHEM_PHARMACOPHORE_FEATURES>
9
1 2 acceptor
1 3 cation
1 5 acceptor
1 6 donor
3 23 27 28 hydrophobe
5 4 5 14 16 17 rings
6 19 21 22 24 25 26 rings
6 24 26 29 30 31 32 rings
8 3 7 8 9 10 11 12 13 rings

> <PUBCHEM_HEAVY_ATOM_COUNT>
32

> <PUBCHEM_ATOM_DEF_STEREO_COUNT>
3

> <PUBCHEM_ATOM_UDEF_STEREO_COUNT>
0

> <PUBCHEM_BOND_DEF_STEREO_COUNT>
0

> <PUBCHEM_BOND_UDEF_STEREO_COUNT>
0

> <PUBCHEM_ISOTOPIC_ATOM_COUNT>
0

> <PUBCHEM_COMPONENT_COUNT>
1

> <PUBCHEM_CACTVS_TAUTO_COUNT>
2

> <PUBCHEM_CONFORMER_ID>
018369D700000001

> <PUBCHEM_MMFF94_ENERGY>
77.8475

> <PUBCHEM_FEATURE_SELFOVERLAP>
45.698

> <PUBCHEM_SHAPE_FINGERPRINT>
10439779 11 18049708634372060802
10670039 82 18341330106389669032
10864689 126 17834403315730822196
10951579 204 18338816589135391348
11374522 363 18047189648764915596
11476731 118 17619350244593025888
11477941 20 18057309802672535822
11973864 220 17324092910998021004
12107183 9 18048026377477039402
12788726 201 18339070618231330186
13617811 41 18194949967188837937
13761468 95 17844550849607405440
14117953 113 17259055195578662454
14251764 75 17981613667345848593
14394314 77 18267311009604718561
144659 178 18048601718179358188
14790565 3 18337394851200126114
15320291 9 18411699881312966192
15320467 1 18410294739506328144
15322535 138 18339068298954784744
15400415 2 18050849910268409452
15419008 145 18337096952822572000
15483637 11 18410573968436611268
155225 5 18410294752712866496
15961568 22 18198065982683240303
16992787 43 18411414000464122949
17844677 252 18413113874814618518
19304152 47 18189075143059371041
19611394 137 17610631091050326939
20771845 165 18128837394200691742
21033648 29 16878765210637043838
21859007 373 18128532868593230880
23516275 100 17622995112189946456
325973 47 17834114530219067904
3388396 114 18268133434947145182
4487111 67 18411136939738314136
50150288 127 17774718654525779405
50677037 204 18124316274853204584
550186 7 18202293527941337204
6036956 94 18335143107026578013
653340 110 18410849976004155136
6608658 132 18127406963278162830
9980921 221 18264794184813581804

> <PUBCHEM_SHAPE_MULTIPOLES>
626.88
13.58
8.86
1.09
18.97
13.91
-0.06
6.79
-1.82
-11.5
0.69
-1.21
-0.49
-1.57

> <PUBCHEM_SHAPE_SELFOVERLAP>
1359.567

> <PUBCHEM_SHAPE_VOLUME>
341.5

> <PUBCHEM_COORDINATE_TYPE>
2
5
10

$$$$
