40779397
  -OEChem-12032416163D

 58 61  0     1  0  0  0  0  0999 V2000
   -2.0592    3.7063    0.1542 S   0  0  0  0  0  0  0  0  0  0  0  0
   -2.4194    4.8499   -0.6610 O   0  0  0  0  0  0  0  0  0  0  0  0
   -0.6754    3.2904    0.2788 O   0  0  0  0  0  0  0  0  0  0  0  0
   -3.3848   -1.3161    0.5191 N   0  0  2  0  0  0  0  0  0  0  0  0
    1.1554   -2.6975    0.8821 N   0  0  0  0  0  0  0  0  0  0  0  0
   -2.9943    2.3523   -0.3041 N   0  0  0  0  0  0  0  0  0  0  0  0
    2.4085   -2.2256    0.9982 N   0  0  0  0  0  0  0  0  0  0  0  0
   -1.7570   -1.7579   -1.4653 C   0  0  2  0  0  0  0  0  0  0  0  0
   -1.1269   -2.2366   -0.1281 C   0  0  2  0  0  0  0  0  0  0  0  0
   -3.2332   -0.0833   -0.2980 C   0  0  2  0  0  0  0  0  0  0  0  0
   -2.1192   -0.2620   -1.3518 C   0  0  0  0  0  0  0  0  0  0  0  0
   -2.0603   -1.7595    1.0210 C   0  0  0  0  0  0  0  0  0  0  0  0
   -3.0809   -2.5334   -1.6364 C   0  0  0  0  0  0  0  0  0  0  0  0
   -3.9264   -2.3801   -0.3600 C   0  0  0  0  0  0  0  0  0  0  0  0
    0.3339   -1.9024    0.1381 C   0  0  0  0  0  0  0  0  0  0  0  0
   -3.0099    1.1623    0.5623 C   0  0  0  0  0  0  0  0  0  0  0  0
    1.1028   -0.8362   -0.2598 C   0  0  0  0  0  0  0  0  0  0  0  0
    3.6191   -0.2338    0.1806 C   0  0  0  0  0  0  0  0  0  0  0  0
    2.3702   -1.0885    0.2986 C   0  0  0  0  0  0  0  0  0  0  0  0
    3.4242    1.1544    0.8151 C   0  0  0  0  0  0  0  0  0  0  0  0
    4.0942   -0.1108   -1.2778 C   0  0  0  0  0  0  0  0  0  0  0  0
    4.6891    2.0035    0.7004 C   0  0  0  0  0  0  0  0  0  0  0  0
    5.3565    0.7433   -1.3837 C   0  0  0  0  0  0  0  0  0  0  0  0
    5.1629    2.1158   -0.7457 C   0  0  0  0  0  0  0  0  0  0  0  0
    0.8084   -3.9431    1.5261 C   0  0  0  0  0  0  0  0  0  0  0  0
   -2.6786    3.9886    1.7969 C   0  0  0  0  0  0  0  0  0  0  0  0
   -1.0870   -1.9344   -2.3133 H   0  0  0  0  0  0  0  0  0  0  0  0
   -1.1811   -3.3352   -0.1592 H   0  0  0  0  0  0  0  0  0  0  0  0
   -4.1812    0.0814   -0.8319 H   0  0  0  0  0  0  0  0  0  0  0  0
   -1.2422    0.3402   -1.1103 H   0  0  0  0  0  0  0  0  0  0  0  0
   -2.4836    0.0952   -2.3236 H   0  0  0  0  0  0  0  0  0  0  0  0
   -2.2116   -2.5873    1.7265 H   0  0  0  0  0  0  0  0  0  0  0  0
   -1.5928   -0.9689    1.6190 H   0  0  0  0  0  0  0  0  0  0  0  0
   -2.8817   -3.5946   -1.8260 H   0  0  0  0  0  0  0  0  0  0  0  0
   -3.6300   -2.1465   -2.5034 H   0  0  0  0  0  0  0  0  0  0  0  0
   -4.9659   -2.1529   -0.6267 H   0  0  0  0  0  0  0  0  0  0  0  0
   -3.9649   -3.3306    0.1872 H   0  0  0  0  0  0  0  0  0  0  0  0
   -2.0648    1.0918    1.1091 H   0  0  0  0  0  0  0  0  0  0  0  0
   -3.8223    1.2687    1.2899 H   0  0  0  0  0  0  0  0  0  0  0  0
    0.8174    0.0045   -0.8718 H   0  0  0  0  0  0  0  0  0  0  0  0
    4.4189   -0.7394    0.7423 H   0  0  0  0  0  0  0  0  0  0  0  0
   -3.9034    2.5542   -0.7411 H   0  0  0  0  0  0  0  0  0  0  0  0
    3.1509    1.0500    1.8724 H   0  0  0  0  0  0  0  0  0  0  0  0
    2.5929    1.6810    0.3285 H   0  0  0  0  0  0  0  0  0  0  0  0
    3.3057    0.3357   -1.8975 H   0  0  0  0  0  0  0  0  0  0  0  0
    4.2925   -1.1061   -1.6941 H   0  0  0  0  0  0  0  0  0  0  0  0
    5.4838    1.5586    1.3119 H   0  0  0  0  0  0  0  0  0  0  0  0
    4.4981    3.0042    1.1042 H   0  0  0  0  0  0  0  0  0  0  0  0
    5.6324    0.8627   -2.4375 H   0  0  0  0  0  0  0  0  0  0  0  0
    6.1895    0.2259   -0.8920 H   0  0  0  0  0  0  0  0  0  0  0  0
    4.4284    2.6873   -1.3265 H   0  0  0  0  0  0  0  0  0  0  0  0
    6.1044    2.6753   -0.7825 H   0  0  0  0  0  0  0  0  0  0  0  0
    0.5898   -4.6830    0.7524 H   0  0  0  0  0  0  0  0  0  0  0  0
    1.6501   -4.2846    2.1349 H   0  0  0  0  0  0  0  0  0  0  0  0
   -0.0597   -3.7784    2.1679 H   0  0  0  0  0  0  0  0  0  0  0  0
   -2.2031    4.8946    2.1803 H   0  0  0  0  0  0  0  0  0  0  0  0
   -3.7592    4.1361    1.7484 H   0  0  0  0  0  0  0  0  0  0  0  0
   -2.4217    3.1459    2.4401 H   0  0  0  0  0  0  0  0  0  0  0  0
  1  2  2  0  0  0  0
  1  3  2  0  0  0  0
  1  6  1  0  0  0  0
  1 26  1  0  0  0  0
  4 10  1  0  0  0  0
  4 12  1  0  0  0  0
  4 14  1  0  0  0  0
  5  7  1  0  0  0  0
  5 15  1  0  0  0  0
  5 25  1  0  0  0  0
  6 16  1  0  0  0  0
  6 42  1  0  0  0  0
  7 19  2  0  0  0  0
  8  9  1  0  0  0  0
  8 11  1  0  0  0  0
  8 13  1  0  0  0  0
  8 27  1  0  0  0  0
  9 12  1  0  0  0  0
  9 15  1  0  0  0  0
  9 28  1  0  0  0  0
 10 11  1  0  0  0  0
 10 16  1  0  0  0  0
 10 29  1  0  0  0  0
 11 30  1  0  0  0  0
 11 31  1  0  0  0  0
 12 32  1  0  0  0  0
 12 33  1  0  0  0  0
 13 14  1  0  0  0  0
 13 34  1  0  0  0  0
 13 35  1  0  0  0  0
 14 36  1  0  0  0  0
 14 37  1  0  0  0  0
 15 17  2  0  0  0  0
 16 38  1  0  0  0  0
 16 39  1  0  0  0  0
 17 19  1  0  0  0  0
 17 40  1  0  0  0  0
 18 19  1  0  0  0  0
 18 20  1  0  0  0  0
 18 21  1  0  0  0  0
 18 41  1  0  0  0  0
 20 22  1  0  0  0  0
 20 43  1  0  0  0  0
 20 44  1  0  0  0  0
 21 23  1  0  0  0  0
 21 45  1  0  0  0  0
 21 46  1  0  0  0  0
 22 24  1  0  0  0  0
 22 47  1  0  0  0  0
 22 48  1  0  0  0  0
 23 24  1  0  0  0  0
 23 49  1  0  0  0  0
 23 50  1  0  0  0  0
 24 51  1  0  0  0  0
 24 52  1  0  0  0  0
 25 53  1  0  0  0  0
 25 54  1  0  0  0  0
 25 55  1  0  0  0  0
 26 56  1  0  0  0  0
 26 57  1  0  0  0  0
 26 58  1  0  0  0  0
M  END
> <PUBCHEM_COMPOUND_CID>
40779397

> <PUBCHEM_CONFORMER_RMSD>
1

> <PUBCHEM_CONFORMER_DIVERSEORDER>
1
37
42
36
31
59
50
41
63
79
64
8
67
66
32
49
30
11
74
33
60
18
48
62
24
53
7
65
43
28
80
75
16
78
45
56
3
39
57
73
35
5
68
52
22
69
19
27
2
46
55
14
9
76
15
12
77
70
20
51
58
26
4
13
54
34
38
44
71
29
72
10
61
40
47
6
25
17
23
21

> <PUBCHEM_MMFF94_PARTIAL_CHARGES>
20
1 1.33
10 0.27
12 0.27
14 0.27
15 -0.33
16 0.36
17 -0.15
18 0.18
19 0.11
2 -0.65
25 0.26
26 0.11
3 -0.65
4 -0.81
40 0.15
42 0.42
5 0.31
6 -0.91
7 -0.71
9 0.18

> <PUBCHEM_EFFECTIVE_ROTOR_COUNT>
7.4

> <PUBCHEM_PHARMACOPHORE_FEATURES>
8
1 2 acceptor
1 3 acceptor
1 4 cation
1 6 donor
1 7 acceptor
5 5 7 15 17 19 rings
6 18 20 21 22 23 24 rings
8 4 8 9 10 11 12 13 14 rings

> <PUBCHEM_HEAVY_ATOM_COUNT>
26

> <PUBCHEM_ATOM_DEF_STEREO_COUNT>
3

> <PUBCHEM_ATOM_UDEF_STEREO_COUNT>
0

> <PUBCHEM_BOND_DEF_STEREO_COUNT>
0

> <PUBCHEM_BOND_UDEF_STEREO_COUNT>
0

> <PUBCHEM_ISOTOPIC_ATOM_COUNT>
0

> <PUBCHEM_COMPONENT_COUNT>
1

> <PUBCHEM_CACTVS_TAUTO_COUNT>
1

> <PUBCHEM_CONFORMER_ID>
026E3E8500000001

> <PUBCHEM_MMFF94_ENERGY>
40.9454

> <PUBCHEM_FEATURE_SELFOVERLAP>
40.614

> <PUBCHEM_SHAPE_FINGERPRINT>
10006869 2 18339079268949383971
10087517 78 18269270335020132380
10498660 4 18410847793754002332
10670039 82 18335987558174282844
10871710 139 18411423938010604069
10940486 97 17911501113588501854
1100329 8 17832424572478657851
11059048 146 18055644906082888248
12788726 201 18338232795008914216
12978246 48 18050566235835141048
14251757 17 17846230912471081324
14251764 75 18054238622047376689
14363568 33 17183643519793152800
14950920 106 17531816731485834835
151778 21 17764034566472746337
15183329 4 17821729464768378926
15961568 22 17909259527496735224
19930381 70 17186151510390119003
21033650 10 18196680508686982660
21864079 5 18408601448733626738
221357 26 18129946796794556694
22907989 373 18200298941139925677
235170 7 17417539119776766958
469060 322 18041010578215562385
5048184 11 18266181625952241912
5252454 2 18268437828065227376
532947 4 17619613023280379253
6371009 1 17762316043126220761
7097593 13 17757258289206116771
7226269 152 18192140715439176376
7288768 16 17749400230025782505

> <PUBCHEM_SHAPE_MULTIPOLES>
507.25
9.6
5.77
1.46
12.14
6.07
-0.06
3.55
-2.44
-5.34
1.76
-0.04
-0.34
-1.56

> <PUBCHEM_SHAPE_SELFOVERLAP>
1046.982

> <PUBCHEM_SHAPE_VOLUME>
294.4

> <PUBCHEM_COORDINATE_TYPE>
2
5
10

$$$$
