45783326
  -OEChem-12032416273D

 59 63  0     1  0  0  0  0  0999 V2000
   -3.6081   -2.0917   -0.0468 O   0  0  0  0  0  0  0  0  0  0  0  0
    5.8674    1.9624    0.9701 O   0  0  0  0  0  0  0  0  0  0  0  0
   -3.9624    1.4380   -1.0062 N   0  0  1  0  0  0  0  0  0  0  0  0
    3.1303   -0.4995   -0.4092 N   0  0  0  0  0  0  0  0  0  0  0  0
   -1.9315   -0.7101   -0.5919 N   0  0  0  0  0  0  0  0  0  0  0  0
   -2.4270   -2.7480    0.3221 N   0  0  0  0  0  0  0  0  0  0  0  0
    2.6430   -2.6122    0.5417 N   0  0  0  0  0  0  0  0  0  0  0  0
    7.4238    1.2793   -0.5808 N   0  0  0  0  0  0  0  0  0  0  0  0
   -0.7641    1.7745    1.8595 N   0  0  0  0  0  0  0  0  0  0  0  0
   -4.3365    0.0106   -1.0582 C   0  0  1  0  0  0  0  0  0  0  0  0
   -4.7156   -0.2410   -2.5294 C   0  0  0  0  0  0  0  0  0  0  0  0
   -4.5830    1.1132   -3.2115 C   0  0  0  0  0  0  0  0  0  0  0  0
   -4.7153    2.1018   -2.0707 C   0  0  0  0  0  0  0  0  0  0  0  0
    5.1128    1.4516   -1.2414 C   0  0  0  0  0  0  0  0  0  0  0  0
    5.0972    0.0276   -1.7934 C   0  0  0  0  0  0  0  0  0  0  0  0
    3.7311    1.8680   -0.7417 C   0  0  0  0  0  0  0  0  0  0  0  0
   -4.2010    2.0473    0.2959 C   0  0  0  0  0  0  0  0  0  0  0  0
    4.4527   -0.9736   -0.8349 C   0  0  0  0  0  0  0  0  0  0  0  0
    3.0830    0.8387    0.1867 C   0  0  0  0  0  0  0  0  0  0  0  0
   -3.2266   -0.9000   -0.5766 C   0  0  0  0  0  0  0  0  0  0  0  0
    2.1957   -1.4639   -0.0142 C   0  0  0  0  0  0  0  0  0  0  0  0
   -3.1101    1.7146    1.2789 C   0  0  0  0  0  0  0  0  0  0  0  0
    6.1502    1.5891   -0.1657 C   0  0  0  0  0  0  0  0  0  0  0  0
   -1.4831   -1.8703   -0.0306 C   0  0  0  0  0  0  0  0  0  0  0  0
    0.8572   -1.1733   -0.2234 C   0  0  0  0  0  0  0  0  0  0  0  0
   -0.0829   -2.1225    0.1625 C   0  0  0  0  0  0  0  0  0  0  0  0
   -3.3967    1.0632    2.4735 C   0  0  0  0  0  0  0  0  0  0  0  0
   -1.7895    2.0456    1.0213 C   0  0  0  0  0  0  0  0  0  0  0  0
    0.3384   -3.3162    0.7377 C   0  0  0  0  0  0  0  0  0  0  0  0
    1.7001   -3.5109    0.9041 C   0  0  0  0  0  0  0  0  0  0  0  0
   -2.3684    0.7671    3.3615 C   0  0  0  0  0  0  0  0  0  0  0  0
   -1.0811    1.1406    3.0108 C   0  0  0  0  0  0  0  0  0  0  0  0
   -5.2306   -0.1799   -0.4479 H   0  0  0  0  0  0  0  0  0  0  0  0
   -4.0890   -0.9898   -3.0260 H   0  0  0  0  0  0  0  0  0  0  0  0
   -5.7568   -0.5809   -2.5886 H   0  0  0  0  0  0  0  0  0  0  0  0
   -5.3408    1.2623   -3.9862 H   0  0  0  0  0  0  0  0  0  0  0  0
   -3.5946    1.1993   -3.6798 H   0  0  0  0  0  0  0  0  0  0  0  0
   -4.2898    3.0758   -2.3313 H   0  0  0  0  0  0  0  0  0  0  0  0
   -5.7711    2.2333   -1.8016 H   0  0  0  0  0  0  0  0  0  0  0  0
    5.4081    2.1385   -2.0460 H   0  0  0  0  0  0  0  0  0  0  0  0
    4.5119    0.0336   -2.7233 H   0  0  0  0  0  0  0  0  0  0  0  0
    6.0937   -0.3317   -2.0701 H   0  0  0  0  0  0  0  0  0  0  0  0
    3.7684    2.8421   -0.2392 H   0  0  0  0  0  0  0  0  0  0  0  0
    3.0779    1.9972   -1.6154 H   0  0  0  0  0  0  0  0  0  0  0  0
   -5.1909    1.7869    0.6928 H   0  0  0  0  0  0  0  0  0  0  0  0
   -4.1994    3.1423    0.2013 H   0  0  0  0  0  0  0  0  0  0  0  0
    4.3706   -1.9338   -1.3601 H   0  0  0  0  0  0  0  0  0  0  0  0
    5.0913   -1.1312    0.0430 H   0  0  0  0  0  0  0  0  0  0  0  0
    2.0535    1.1619    0.3796 H   0  0  0  0  0  0  0  0  0  0  0  0
    3.5873    0.8161    1.1597 H   0  0  0  0  0  0  0  0  0  0  0  0
    0.5573   -0.2397   -0.6905 H   0  0  0  0  0  0  0  0  0  0  0  0
   -4.4152    0.7792    2.7228 H   0  0  0  0  0  0  0  0  0  0  0  0
   -1.5007    2.5578    0.1086 H   0  0  0  0  0  0  0  0  0  0  0  0
    8.2058    1.3347    0.0635 H   0  0  0  0  0  0  0  0  0  0  0  0
    7.6481    1.0328   -1.5390 H   0  0  0  0  0  0  0  0  0  0  0  0
   -0.3484   -4.0925    1.0584 H   0  0  0  0  0  0  0  0  0  0  0  0
    2.0807   -4.4249    1.3480 H   0  0  0  0  0  0  0  0  0  0  0  0
   -2.5681    0.2586    4.2977 H   0  0  0  0  0  0  0  0  0  0  0  0
   -0.2434    0.9311    3.6678 H   0  0  0  0  0  0  0  0  0  0  0  0
  1  6  1  0  0  0  0
  1 20  1  0  0  0  0
  2 23  2  0  0  0  0
  3 10  1  0  0  0  0
  3 13  1  0  0  0  0
  3 17  1  0  0  0  0
  4 18  1  0  0  0  0
  4 19  1  0  0  0  0
  4 21  1  0  0  0  0
  5 20  2  0  0  0  0
  5 24  1  0  0  0  0
  6 24  2  0  0  0  0
  7 21  2  0  0  0  0
  7 30  1  0  0  0  0
  8 23  1  0  0  0  0
  8 54  1  0  0  0  0
  8 55  1  0  0  0  0
  9 28  1  0  0  0  0
  9 32  2  0  0  0  0
 10 11  1  0  0  0  0
 10 20  1  0  0  0  0
 10 33  1  0  0  0  0
 11 12  1  0  0  0  0
 11 34  1  0  0  0  0
 11 35  1  0  0  0  0
 12 13  1  0  0  0  0
 12 36  1  0  0  0  0
 12 37  1  0  0  0  0
 13 38  1  0  0  0  0
 13 39  1  0  0  0  0
 14 15  1  0  0  0  0
 14 16  1  0  0  0  0
 14 23  1  0  0  0  0
 14 40  1  0  0  0  0
 15 18  1  0  0  0  0
 15 41  1  0  0  0  0
 15 42  1  0  0  0  0
 16 19  1  0  0  0  0
 16 43  1  0  0  0  0
 16 44  1  0  0  0  0
 17 22  1  0  0  0  0
 17 45  1  0  0  0  0
 17 46  1  0  0  0  0
 18 47  1  0  0  0  0
 18 48  1  0  0  0  0
 19 49  1  0  0  0  0
 19 50  1  0  0  0  0
 21 25  1  0  0  0  0
 22 27  1  0  0  0  0
 22 28  2  0  0  0  0
 24 26  1  0  0  0  0
 25 26  2  0  0  0  0
 25 51  1  0  0  0  0
 26 29  1  0  0  0  0
 27 31  2  0  0  0  0
 27 52  1  0  0  0  0
 28 53  1  0  0  0  0
 29 30  2  0  0  0  0
 29 56  1  0  0  0  0
 30 57  1  0  0  0  0
 31 32  1  0  0  0  0
 31 58  1  0  0  0  0
 32 59  1  0  0  0  0
M  END
> <PUBCHEM_COMPOUND_CID>
45783326

> <PUBCHEM_CONFORMER_RMSD>
1.2

> <PUBCHEM_CONFORMER_DIVERSEORDER>
1
28
60
58
24
47
108
96
91
73
49
79
61
41
17
67
82
54
44
46
14
66
13
98
77
102
84
57
42
70
11
37
99
90
16
93
55
45
69
43
68
31
52
80
86
92
56
71
53
65
3
5
85
64
36
33
12
97
63
51
50
106
105
35
18
81
39
103
59
48
109
94
29
104
76
27
88
101
38
72
32
21
75
95
6
100
62
34
9
15
87
89
40
78
7
20
10
83
22
23
2
19
30
107
26
25
74
4
8

> <PUBCHEM_MMFF94_PARTIAL_CHARGES>
37
1 -0.02
10 0.45
13 0.27
14 0.06
17 0.41
18 0.37
19 0.37
2 -0.57
20 0.3
21 0.41
22 -0.14
23 0.57
24 0.46
25 -0.15
26 0.05
27 -0.15
28 0.16
29 -0.15
3 -0.81
30 0.16
31 -0.15
32 0.16
4 -0.84
5 -0.57
51 0.15
52 0.15
53 0.15
54 0.37
55 0.37
56 0.15
57 0.15
58 0.15
59 0.15
6 -0.41
7 -0.62
8 -0.8
9 -0.62

> <PUBCHEM_EFFECTIVE_ROTOR_COUNT>
8.2

> <PUBCHEM_PHARMACOPHORE_FEATURES>
11
1 2 acceptor
1 3 cation
1 8 donor
1 9 acceptor
3 4 7 21 cation
3 5 6 24 cation
5 1 5 6 20 24 rings
5 3 10 11 12 13 rings
6 4 14 15 16 18 19 rings
6 7 21 25 26 29 30 rings
6 9 22 27 28 31 32 rings

> <PUBCHEM_HEAVY_ATOM_COUNT>
32

> <PUBCHEM_ATOM_DEF_STEREO_COUNT>
1

> <PUBCHEM_ATOM_UDEF_STEREO_COUNT>
0

> <PUBCHEM_BOND_DEF_STEREO_COUNT>
0

> <PUBCHEM_BOND_UDEF_STEREO_COUNT>
0

> <PUBCHEM_ISOTOPIC_ATOM_COUNT>
0

> <PUBCHEM_COMPONENT_COUNT>
1

> <PUBCHEM_CACTVS_TAUTO_COUNT>
2

> <PUBCHEM_CONFORMER_ID>
02BA991E00000001

> <PUBCHEM_MMFF94_ENERGY>
79.8184

> <PUBCHEM_FEATURE_SELFOVERLAP>
55.823

> <PUBCHEM_SHAPE_FINGERPRINT>
11477941 20 16702302373323277504
11479125 193 17901381196019218285
11582403 64 16878767319792071623
12422481 6 17022892433574461030
12788726 201 17488184786350567705
13583140 156 16877946104839041776
14114206 34 17846215519050050865
14468879 13 17603586288222034285
14848178 96 18333725797692978910
14931854 50 18273205400756328517
14950920 106 14562817698216261268
15513586 35 16445062900431175069
20775438 99 16121565745201378847
21033648 144 18335420144969061038
21033648 29 17095806508172666815
22440779 20 13830137217237253403
22907989 373 17775005648645825851
3459 83 18057058912965366574
3610482 184 17273720713656519888
394222 165 17968362455912626291
4112364 45 15866575534177330293
469060 322 17969805135922646347
6034566 193 17824567346237448100
6299153 45 18336262350403446570
6523845 18 17900580897392362766
9981440 41 17749387087431579523

> <PUBCHEM_SHAPE_MULTIPOLES>
611.94
13.89
3.55
2.75
18.19
2.67
-0.8
-10.05
7.77
0.8
-0.79
-4.59
-1.7
-0.47

> <PUBCHEM_SHAPE_SELFOVERLAP>
1329.34

> <PUBCHEM_SHAPE_VOLUME>
331.5

> <PUBCHEM_COORDINATE_TYPE>
2
5
10

$$$$
