26743306
  -OEChem-12032416383D

 77 81  0     1  0  0  0  0  0999 V2000
    3.4343    2.8155   -1.3294 O   0  0  0  0  0  0  0  0  0  0  0  0
   -4.1401    0.7052   -1.8170 O   0  0  0  0  0  0  0  0  0  0  0  0
   -0.4227    3.0031    2.3253 N   0  0  0  0  0  0  0  0  0  0  0  0
    4.4758    0.8983   -0.5297 N   0  0  0  0  0  0  0  0  0  0  0  0
    6.8323   -0.7382   -0.1431 N   0  0  0  0  0  0  0  0  0  0  0  0
   -2.7973    1.0328   -1.9610 N   0  0  0  0  0  0  0  0  0  0  0  0
    1.0546    2.4615   -0.1709 C   0  0  1  0  0  0  0  0  0  0  0  0
   -0.3890    1.9603    0.0720 C   0  0  2  0  0  0  0  0  0  0  0  0
    1.3117    3.6965    0.7088 C   0  0  0  0  0  0  0  0  0  0  0  0
   -0.6819    1.7765    1.5707 C   0  0  0  0  0  0  0  0  0  0  0  0
    2.1321    1.3949    0.0580 C   0  0  0  0  0  0  0  0  0  0  0  0
    0.9601    3.4513    2.1756 C   0  0  0  0  0  0  0  0  0  0  0  0
   -0.7173    0.6818   -0.7002 C   0  0  0  0  0  0  0  0  0  0  0  0
    3.4004    1.7769   -0.6650 C   0  0  0  0  0  0  0  0  0  0  0  0
   -2.1984    0.5183   -0.8832 C   0  0  0  0  0  0  0  0  0  0  0  0
    5.7373    1.1952   -1.2035 C   0  0  0  0  0  0  0  0  0  0  0  0
    4.4371   -0.3292    0.2684 C   0  0  0  0  0  0  0  0  0  0  0  0
    6.9415    0.6997   -0.4058 C   0  0  0  0  0  0  0  0  0  0  0  0
    5.4987   -1.3445   -0.1553 C   0  0  0  0  0  0  0  0  0  0  0  0
   -3.1038   -0.1387   -0.0321 C   0  0  0  0  0  0  0  0  0  0  0  0
   -4.3100    0.0077   -0.6647 C   0  0  0  0  0  0  0  0  0  0  0  0
    7.9711   -1.5094    0.0761 C   0  0  0  0  0  0  0  0  0  0  0  0
   -5.6543   -0.4020   -0.3791 C   0  0  0  0  0  0  0  0  0  0  0  0
   -9.6675   -1.6238    0.4749 C   0  0  0  0  0  0  0  0  0  0  0  0
    9.1013   -0.9351    0.6579 C   0  0  0  0  0  0  0  0  0  0  0  0
    7.9803   -2.8571   -0.2832 C   0  0  0  0  0  0  0  0  0  0  0  0
   -8.2695   -1.1978    0.1774 C   0  0  0  0  0  0  0  0  0  0  0  0
   -5.9316   -1.1240    0.7817 C   0  0  0  0  0  0  0  0  0  0  0  0
   -6.6848   -0.0778   -1.2616 C   0  0  0  0  0  0  0  0  0  0  0  0
   -7.2391   -1.5220    1.0600 C   0  0  0  0  0  0  0  0  0  0  0  0
   -7.9924   -0.4757   -0.9835 C   0  0  0  0  0  0  0  0  0  0  0  0
   10.2407   -1.7085    0.8804 C   0  0  0  0  0  0  0  0  0  0  0  0
    9.1196   -3.6306   -0.0605 C   0  0  0  0  0  0  0  0  0  0  0  0
  -10.1662   -1.0236    1.8259 C   0  0  0  0  0  0  0  0  0  0  0  0
   -9.7753   -3.1766    0.5817 C   0  0  0  0  0  0  0  0  0  0  0  0
  -10.7376   -1.2045   -0.5871 C   0  0  0  0  0  0  0  0  0  0  0  0
   10.2497   -3.0562    0.5211 C   0  0  0  0  0  0  0  0  0  0  0  0
    1.0873    2.7855   -1.2204 H   0  0  0  0  0  0  0  0  0  0  0  0
   -1.0544    2.7597   -0.2906 H   0  0  0  0  0  0  0  0  0  0  0  0
    0.6994    4.5279    0.3336 H   0  0  0  0  0  0  0  0  0  0  0  0
    2.3521    4.0315    0.6391 H   0  0  0  0  0  0  0  0  0  0  0  0
   -1.7343    1.5222    1.7264 H   0  0  0  0  0  0  0  0  0  0  0  0
   -0.0905    0.9511    1.9860 H   0  0  0  0  0  0  0  0  0  0  0  0
    1.8112    0.4423   -0.3717 H   0  0  0  0  0  0  0  0  0  0  0  0
    2.3408    1.2382    1.1197 H   0  0  0  0  0  0  0  0  0  0  0  0
    1.0825    4.3895    2.7284 H   0  0  0  0  0  0  0  0  0  0  0  0
    1.6458    2.7295    2.6327 H   0  0  0  0  0  0  0  0  0  0  0  0
   -0.3228   -0.2050   -0.1891 H   0  0  0  0  0  0  0  0  0  0  0  0
   -0.2496    0.7099   -1.6931 H   0  0  0  0  0  0  0  0  0  0  0  0
   -0.6192    2.8398    3.3124 H   0  0  0  0  0  0  0  0  0  0  0  0
    5.6972    0.7023   -2.1827 H   0  0  0  0  0  0  0  0  0  0  0  0
    5.8236    2.2721   -1.3837 H   0  0  0  0  0  0  0  0  0  0  0  0
    4.5961   -0.0290    1.3114 H   0  0  0  0  0  0  0  0  0  0  0  0
    3.4507   -0.7958    0.2072 H   0  0  0  0  0  0  0  0  0  0  0  0
    7.0023    1.2388    0.5476 H   0  0  0  0  0  0  0  0  0  0  0  0
    7.8453    0.9242   -0.9853 H   0  0  0  0  0  0  0  0  0  0  0  0
    5.4437   -2.1925    0.5384 H   0  0  0  0  0  0  0  0  0  0  0  0
    5.2791   -1.7151   -1.1642 H   0  0  0  0  0  0  0  0  0  0  0  0
   -2.8992   -0.6441    0.9004 H   0  0  0  0  0  0  0  0  0  0  0  0
    9.1225    0.1073    0.9635 H   0  0  0  0  0  0  0  0  0  0  0  0
    7.1236   -3.3324   -0.7529 H   0  0  0  0  0  0  0  0  0  0  0  0
   -5.1500   -1.3910    1.4882 H   0  0  0  0  0  0  0  0  0  0  0  0
   -6.5082    0.4834   -2.1758 H   0  0  0  0  0  0  0  0  0  0  0  0
   -7.4270   -2.0831    1.9709 H   0  0  0  0  0  0  0  0  0  0  0  0
   -8.7547   -0.1976   -1.7028 H   0  0  0  0  0  0  0  0  0  0  0  0
  -11.2034   -1.3125    2.0319 H   0  0  0  0  0  0  0  0  0  0  0  0
   -9.5615   -1.3649    2.6733 H   0  0  0  0  0  0  0  0  0  0  0  0
  -10.1194    0.0716    1.8061 H   0  0  0  0  0  0  0  0  0  0  0  0
  -10.8076   -3.4926    0.7718 H   0  0  0  0  0  0  0  0  0  0  0  0
   -9.4426   -3.6546   -0.3472 H   0  0  0  0  0  0  0  0  0  0  0  0
   -9.1607   -3.5745    1.3966 H   0  0  0  0  0  0  0  0  0  0  0  0
  -11.7371   -1.5526   -0.2992 H   0  0  0  0  0  0  0  0  0  0  0  0
  -10.7958   -0.1146   -0.6901 H   0  0  0  0  0  0  0  0  0  0  0  0
  -10.5188   -1.6371   -1.5703 H   0  0  0  0  0  0  0  0  0  0  0  0
   11.1197   -1.2625    1.3365 H   0  0  0  0  0  0  0  0  0  0  0  0
    9.1283   -4.6793   -0.3434 H   0  0  0  0  0  0  0  0  0  0  0  0
   11.1368   -3.6583    0.6943 H   0  0  0  0  0  0  0  0  0  0  0  0
  1 14  2  0  0  0  0
  2  6  1  0  0  0  0
  2 21  1  0  0  0  0
  3 10  1  0  0  0  0
  3 12  1  0  0  0  0
  3 50  1  0  0  0  0
  4 14  1  0  0  0  0
  4 16  1  0  0  0  0
  4 17  1  0  0  0  0
  5 18  1  0  0  0  0
  5 19  1  0  0  0  0
  5 22  1  0  0  0  0
  6 15  2  0  0  0  0
  7  8  1  0  0  0  0
  7  9  1  0  0  0  0
  7 11  1  0  0  0  0
  7 38  1  0  0  0  0
  8 10  1  0  0  0  0
  8 13  1  0  0  0  0
  8 39  1  0  0  0  0
  9 12  1  0  0  0  0
  9 40  1  0  0  0  0
  9 41  1  0  0  0  0
 10 42  1  0  0  0  0
 10 43  1  0  0  0  0
 11 14  1  0  0  0  0
 11 44  1  0  0  0  0
 11 45  1  0  0  0  0
 12 46  1  0  0  0  0
 12 47  1  0  0  0  0
 13 15  1  0  0  0  0
 13 48  1  0  0  0  0
 13 49  1  0  0  0  0
 15 20  1  0  0  0  0
 16 18  1  0  0  0  0
 16 51  1  0  0  0  0
 16 52  1  0  0  0  0
 17 19  1  0  0  0  0
 17 53  1  0  0  0  0
 17 54  1  0  0  0  0
 18 55  1  0  0  0  0
 18 56  1  0  0  0  0
 19 57  1  0  0  0  0
 19 58  1  0  0  0  0
 20 21  2  0  0  0  0
 20 59  1  0  0  0  0
 21 23  1  0  0  0  0
 22 25  2  0  0  0  0
 22 26  1  0  0  0  0
 23 28  2  0  0  0  0
 23 29  1  0  0  0  0
 24 27  1  0  0  0  0
 24 34  1  0  0  0  0
 24 35  1  0  0  0  0
 24 36  1  0  0  0  0
 25 32  1  0  0  0  0
 25 60  1  0  0  0  0
 26 33  2  0  0  0  0
 26 61  1  0  0  0  0
 27 30  2  0  0  0  0
 27 31  1  0  0  0  0
 28 30  1  0  0  0  0
 28 62  1  0  0  0  0
 29 31  2  0  0  0  0
 29 63  1  0  0  0  0
 30 64  1  0  0  0  0
 31 65  1  0  0  0  0
 32 37  2  0  0  0  0
 32 75  1  0  0  0  0
 33 37  1  0  0  0  0
 33 76  1  0  0  0  0
 34 66  1  0  0  0  0
 34 67  1  0  0  0  0
 34 68  1  0  0  0  0
 35 69  1  0  0  0  0
 35 70  1  0  0  0  0
 35 71  1  0  0  0  0
 36 72  1  0  0  0  0
 36 73  1  0  0  0  0
 36 74  1  0  0  0  0
 37 77  1  0  0  0  0
M  END
> <PUBCHEM_COMPOUND_CID>
26743306

> <PUBCHEM_CONFORMER_RMSD>
1.2

> <PUBCHEM_CONFORMER_DIVERSEORDER>
1
103
23
143
65
185
22
31
98
172
58
94
156
17
99
122
150
3
136
187
52
164
91
33
162
193
194
43
92
49
63
81
174
142
128
141
208
56
167
9
157
84
160
145
146
39
105
85
199
176
66
202
45
102
30
64
96
204
42
67
177
171
79
97
68
135
14
47
173
108
209
178
179
57
189
126
182
19
165
184
124
80
100
188
201
107
83
86
203
7
101
20
186
74
127
190
205
170
72
119
113
93
118
111
120
131
41
139
106
62
110
196
90
75
166
27
130
36
140
71
123
152
175
181
53
116
129
159
76
134
95
200
60
32
148
10
8
13
198
82
183
25
155
46
151
26
29
88
5
51
153
149
163
87
89
115
54
192
112
161
37
35
21
180
34
117
132
137
78
195
40
206
121
207
70
2
191
73
15
28
169
77
12
197
24
147
38
59
168
48
6
11
50
16
154
61
138
158
44
133
4
55
109
18
104
125
69
144
114

> <PUBCHEM_MMFF94_PARTIAL_CHARGES>
42
1 -0.57
10 0.27
11 0.06
12 0.27
13 0.18
14 0.57
15 0.11
16 0.3
17 0.3
18 0.37
19 0.37
2 -0.02
20 -0.15
21 0.09
22 0.1
23 0.05
24 0.14
25 -0.15
26 -0.15
27 -0.14
28 -0.15
29 -0.15
3 -0.9
30 -0.15
31 -0.15
32 -0.15
33 -0.15
37 -0.15
4 -0.66
5 -0.84
50 0.36
59 0.15
6 -0.41
60 0.15
61 0.15
62 0.15
63 0.15
64 0.15
65 0.15
75 0.15
76 0.15
77 0.15

> <PUBCHEM_EFFECTIVE_ROTOR_COUNT>
10.4

> <PUBCHEM_PHARMACOPHORE_FEATURES>
11
1 1 acceptor
1 3 cation
1 3 donor
1 5 cation
1 6 acceptor
4 24 34 35 36 hydrophobe
5 2 6 15 20 21 rings
6 22 25 26 32 33 37 rings
6 23 27 28 29 30 31 rings
6 3 7 8 9 10 12 rings
6 4 5 16 17 18 19 rings

> <PUBCHEM_HEAVY_ATOM_COUNT>
37

> <PUBCHEM_ATOM_DEF_STEREO_COUNT>
2

> <PUBCHEM_ATOM_UDEF_STEREO_COUNT>
0

> <PUBCHEM_BOND_DEF_STEREO_COUNT>
0

> <PUBCHEM_BOND_UDEF_STEREO_COUNT>
0

> <PUBCHEM_ISOTOPIC_ATOM_COUNT>
0

> <PUBCHEM_COMPONENT_COUNT>
1

> <PUBCHEM_CACTVS_TAUTO_COUNT>
1

> <PUBCHEM_CONFORMER_ID>
0198120A00000001

> <PUBCHEM_MMFF94_ENERGY>
104.2355

> <PUBCHEM_FEATURE_SELFOVERLAP>
55.822

> <PUBCHEM_SHAPE_FINGERPRINT>
10258705 36 18113908207949313651
10429389 143 10303815384801259183
10904742 90 8790877498251766492
10930396 42 14979953658189183771
11273773 46 18260267443005510355
11297750 10 18272358776909475528
11409948 35 18410012165460289517
11421887 45 8718243708756434870
11456790 92 17703516575550257217
11463208 3 18114466764789468387
11672396 167 18270673277777193567
12013929 2 18260261950949912853
12539745 222 18410856521613643565
12838863 1 18261672581129104282
13383665 225 14490734725934376423
13947934 56 18409444748356570533
14202775 3 18114186384670592059
14359421 15 17822287942996506218
14617042 71 9943807793844590422
15198563 99 16009022857059370613
15347590 135 16558750075572382238
15419008 145 17775012267776148209
15510794 2 18113898268813708607
16993427 108 18202560653638208680
1754911 235 11314311650356138059
19301679 30 17774173309310404164
19841028 212 18407759244865881514
20105231 36 18260830423683241483
20156587 128 15285626660696357279
2026 5 18261670381473066646
20721686 146 9655577422240508488
20771845 65 18413387657552855312
21057603 199 18334012826437826947
212700 22 18336257964851836710
21792961 116 18339635655897689997
21792965 326 10809610507845839519
21987483 16 18335693920472565610
22899556 105 17676762072790257970
23569917 315 18266462006767736318
23569943 247 18343578564967205199
23576562 1 11819581249490919006
24771293 8 12319452191109935033
25242607 90 18059846269182781806
2851757 41 18409452445513003966
3986486 107 15936407819194981612
406291 66 18410573938898893150
4149490 64 18334292115560233800
437795 160 14333126412856249501
439807 62 18261114097155160998
4403749 210 10087627226473305045
44389302 135 18131634473834337567
4461854 278 17775562032111717622
45377200 153 17314235652226096203
5372103 7 9367349236527340071
54039377 194 18409446973222807454
54131252 71 17131561531297322179
5470011 282 17967818271498872716
5719381 82 18259701194680729450
57527295 17 16806439202992309672
58260988 647 18334017206766001776
6058803 2 16339741871919393141
6327066 14 8214135266502650344
6691757 9 15769479968419791373
9937071 3 18409446981907960154
9962374 69 17774435109738257709

> <PUBCHEM_SHAPE_MULTIPOLES>
729.78
42.05
3.99
1.53
11.07
0.86
-0.35
-54.36
-5.61
-6.69
-1.55
1.72
1.02
0.27

> <PUBCHEM_SHAPE_SELFOVERLAP>
1558.176

> <PUBCHEM_SHAPE_VOLUME>
403.7

> <PUBCHEM_COORDINATE_TYPE>
2
5
10

$$$$
