45361548
  -OEChem-12032416203D

 69 72  0     1  0  0  0  0  0999 V2000
    0.4145   -2.3087   -1.4481 O   0  0  0  0  0  0  0  0  0  0  0  0
    5.2986   -2.2854    0.7235 O   0  0  0  0  0  0  0  0  0  0  0  0
   -4.9029    2.0221   -1.1226 O   0  0  0  0  0  0  0  0  0  0  0  0
   -4.1626    0.1675    0.0556 N   0  0  0  0  0  0  0  0  0  0  0  0
    4.7833   -1.1859   -1.2528 N   0  0  0  0  0  0  0  0  0  0  0  0
   -6.7241   -0.5836    0.3972 N   0  0  0  0  0  0  0  0  0  0  0  0
   -8.8708    0.8948   -0.6385 N   0  0  0  0  0  0  0  0  0  0  0  0
    7.1411    2.0881    0.9383 N   0  0  0  0  0  0  0  0  0  0  0  0
   -0.0197    0.4036    1.2034 C   0  0  1  0  0  0  0  0  0  0  0  0
   -0.3599   -0.4648   -0.0532 C   0  0  2  0  0  0  0  0  0  0  0  0
   -1.8883   -0.8264   -0.0857 C   0  0  1  0  0  0  0  0  0  0  0  0
    0.6151   -1.6700   -0.1863 C   0  0  2  0  0  0  0  0  0  0  0  0
    1.4645    0.8359    1.1454 C   0  0  0  0  0  0  0  0  0  0  0  0
   -0.8843    1.6852    1.1797 C   0  0  0  0  0  0  0  0  0  0  0  0
    2.1002   -1.2415   -0.1390 C   0  0  1  0  0  0  0  0  0  0  0  0
   -2.7489    0.4672   -0.0333 C   0  0  2  0  0  0  0  0  0  0  0  0
    2.4240   -0.3434    1.0548 C   0  0  0  0  0  0  0  0  0  0  0  0
   -2.3777    1.3976    1.1213 C   0  0  0  0  0  0  0  0  0  0  0  0
   -0.2659   -0.3534    2.5331 C   0  0  0  0  0  0  0  0  0  0  0  0
    3.0420   -2.4519   -0.1398 C   0  0  2  0  0  0  0  0  0  0  0  0
   -2.2986   -1.6574   -1.3132 C   0  0  0  0  0  0  0  0  0  0  0  0
    2.7571   -3.3394    1.0667 C   0  0  0  0  0  0  0  0  0  0  0  0
    4.4931   -1.9816   -0.1540 C   0  0  0  0  0  0  0  0  0  0  0  0
   -5.1292    0.9844   -0.5057 C   0  0  0  0  0  0  0  0  0  0  0  0
   -6.5361    0.5520   -0.3041 C   0  0  0  0  0  0  0  0  0  0  0  0
    6.0921   -0.6198   -1.4837 C   0  0  0  0  0  0  0  0  0  0  0  0
   -7.5905    1.2781   -0.8128 C   0  0  0  0  0  0  0  0  0  0  0  0
    6.2390    0.7328   -0.8491 C   0  0  0  0  0  0  0  0  0  0  0  0
   -8.0044   -0.9669    0.5714 C   0  0  0  0  0  0  0  0  0  0  0  0
    5.6435    1.8569   -1.4107 C   0  0  0  0  0  0  0  0  0  0  0  0
    6.9710    0.9003    0.3156 C   0  0  0  0  0  0  0  0  0  0  0  0
   -9.0588   -0.2408    0.0627 C   0  0  0  0  0  0  0  0  0  0  0  0
    5.7959    3.0963   -0.7992 C   0  0  0  0  0  0  0  0  0  0  0  0
    6.5475    3.1581    0.3632 C   0  0  0  0  0  0  0  0  0  0  0  0
   -0.1895    0.1627   -0.9429 H   0  0  0  0  0  0  0  0  0  0  0  0
   -2.1260   -1.4407    0.7920 H   0  0  0  0  0  0  0  0  0  0  0  0
    0.3582   -2.3936    0.5891 H   0  0  0  0  0  0  0  0  0  0  0  0
    1.6269    1.4850    0.2742 H   0  0  0  0  0  0  0  0  0  0  0  0
    1.7196    1.4388    2.0265 H   0  0  0  0  0  0  0  0  0  0  0  0
   -0.6732    2.3026    2.0622 H   0  0  0  0  0  0  0  0  0  0  0  0
   -0.6150    2.2956    0.3072 H   0  0  0  0  0  0  0  0  0  0  0  0
    2.2798   -0.6500   -1.0468 H   0  0  0  0  0  0  0  0  0  0  0  0
   -2.5844    1.0181   -0.9697 H   0  0  0  0  0  0  0  0  0  0  0  0
    2.3966   -0.8792    2.0058 H   0  0  0  0  0  0  0  0  0  0  0  0
    3.4367    0.0675    0.9704 H   0  0  0  0  0  0  0  0  0  0  0  0
   -2.9165    2.3486    1.0201 H   0  0  0  0  0  0  0  0  0  0  0  0
   -2.7171    0.9723    2.0737 H   0  0  0  0  0  0  0  0  0  0  0  0
   -1.3150   -0.6226    2.6802 H   0  0  0  0  0  0  0  0  0  0  0  0
    0.0268    0.2663    3.3888 H   0  0  0  0  0  0  0  0  0  0  0  0
    0.3039   -1.2846    2.5968 H   0  0  0  0  0  0  0  0  0  0  0  0
    2.8924   -3.0459   -1.0506 H   0  0  0  0  0  0  0  0  0  0  0  0
   -1.9066   -2.6763   -1.2492 H   0  0  0  0  0  0  0  0  0  0  0  0
   -1.9480   -1.1949   -2.2416 H   0  0  0  0  0  0  0  0  0  0  0  0
   -3.3853   -1.7676   -1.3880 H   0  0  0  0  0  0  0  0  0  0  0  0
   -4.4513   -0.6414    0.5988 H   0  0  0  0  0  0  0  0  0  0  0  0
    0.5856   -1.6560   -2.1482 H   0  0  0  0  0  0  0  0  0  0  0  0
    2.9062   -2.8478    2.0308 H   0  0  0  0  0  0  0  0  0  0  0  0
    3.4560   -4.1863    1.0611 H   0  0  0  0  0  0  0  0  0  0  0  0
    1.7616   -3.7881    1.0450 H   0  0  0  0  0  0  0  0  0  0  0  0
    4.0759   -1.0239   -1.9621 H   0  0  0  0  0  0  0  0  0  0  0  0
    6.8565   -1.3106   -1.1092 H   0  0  0  0  0  0  0  0  0  0  0  0
    6.2340   -0.5408   -2.5675 H   0  0  0  0  0  0  0  0  0  0  0  0
   -7.4579    2.1923   -1.3791 H   0  0  0  0  0  0  0  0  0  0  0  0
   -8.1562   -1.8792    1.1348 H   0  0  0  0  0  0  0  0  0  0  0  0
    5.0584    1.7778   -2.3228 H   0  0  0  0  0  0  0  0  0  0  0  0
    7.4580    0.0616    0.8032 H   0  0  0  0  0  0  0  0  0  0  0  0
  -10.0872   -0.5496    0.2032 H   0  0  0  0  0  0  0  0  0  0  0  0
    5.3402    3.9858   -1.2188 H   0  0  0  0  0  0  0  0  0  0  0  0
    6.6962    4.1010    0.8789 H   0  0  0  0  0  0  0  0  0  0  0  0
  1 12  1  0  0  0  0
  1 56  1  0  0  0  0
  2 23  2  0  0  0  0
  3 24  2  0  0  0  0
  4 16  1  0  0  0  0
  4 24  1  0  0  0  0
  4 55  1  0  0  0  0
  5 23  1  0  0  0  0
  5 26  1  0  0  0  0
  5 60  1  0  0  0  0
  6 25  2  0  0  0  0
  6 29  1  0  0  0  0
  7 27  2  0  0  0  0
  7 32  1  0  0  0  0
  8 31  1  0  0  0  0
  8 34  2  0  0  0  0
  9 10  1  0  0  0  0
  9 13  1  0  0  0  0
  9 14  1  0  0  0  0
  9 19  1  0  0  0  0
 10 11  1  0  0  0  0
 10 12  1  0  0  0  0
 10 35  1  0  0  0  0
 11 16  1  0  0  0  0
 11 21  1  0  0  0  0
 11 36  1  0  0  0  0
 12 15  1  0  0  0  0
 12 37  1  0  0  0  0
 13 17  1  0  0  0  0
 13 38  1  0  0  0  0
 13 39  1  0  0  0  0
 14 18  1  0  0  0  0
 14 40  1  0  0  0  0
 14 41  1  0  0  0  0
 15 17  1  0  0  0  0
 15 20  1  0  0  0  0
 15 42  1  0  0  0  0
 16 18  1  0  0  0  0
 16 43  1  0  0  0  0
 17 44  1  0  0  0  0
 17 45  1  0  0  0  0
 18 46  1  0  0  0  0
 18 47  1  0  0  0  0
 19 48  1  0  0  0  0
 19 49  1  0  0  0  0
 19 50  1  0  0  0  0
 20 22  1  0  0  0  0
 20 23  1  0  0  0  0
 20 51  1  0  0  0  0
 21 52  1  0  0  0  0
 21 53  1  0  0  0  0
 21 54  1  0  0  0  0
 22 57  1  0  0  0  0
 22 58  1  0  0  0  0
 22 59  1  0  0  0  0
 24 25  1  0  0  0  0
 25 27  1  0  0  0  0
 26 28  1  0  0  0  0
 26 61  1  0  0  0  0
 26 62  1  0  0  0  0
 27 63  1  0  0  0  0
 28 30  1  0  0  0  0
 28 31  2  0  0  0  0
 29 32  2  0  0  0  0
 29 64  1  0  0  0  0
 30 33  2  0  0  0  0
 30 65  1  0  0  0  0
 31 66  1  0  0  0  0
 32 67  1  0  0  0  0
 33 34  1  0  0  0  0
 33 68  1  0  0  0  0
 34 69  1  0  0  0  0
M  END
> <PUBCHEM_COMPOUND_CID>
45361548

> <PUBCHEM_CONFORMER_RMSD>
1

> <PUBCHEM_CONFORMER_DIVERSEORDER>
1
9
103
115
255
46
33
140
226
263
236
91
48
269
93
134
267
169
126
88
258
230
71
98
152
102
270
174
239
192
254
210
247
176
154
206
54
195
187
190
268
171
162
101
142
104
40
164
180
273
265
5
124
246
108
63
214
141
157
223
15
83
237
272
158
22
68
136
204
173
156
43
120
186
233
194
193
2
147
72
149
182
238
84
159
216
29
6
85
200
220
234
168
36
202
18
170
256
128
243
177
160
250
181
31
127
99
201
260
51
245
75
251
259
125
183
53
59
47
198
39
203
123
144
28
50
242
209
62
264
185
90
30
271
166
163
150
100
219
27
130
132
167
172
41
94
191
229
133
60
55
129
231
95
197
81
82
188
12
138
92
240
70
34
244
205
67
196
66
241
189
249
118
225
184
11
261
86
151
215
112
57
69
143
218
89
179
228
37
87
106
139
19
155
114
97
145
178
253
65
266
207
208
137
119
165
52
121
109
222
111
38
235
64
110
131
217
24
3
275
122
73
135
80
113
262
199
44
61
224
10
175
248
42
211
4
227
17
16
58
107
7
212
32
148
105
20
153
213
96
21
35
13
221
26
25
78
161
45
274
76
74
49
23
79
77
117
56
146
8
116
252
14
232
257

> <PUBCHEM_MMFF94_PARTIAL_CHARGES>
33
1 -0.68
12 0.28
16 0.3
2 -0.57
20 0.06
23 0.57
24 0.54
25 0.4
26 0.44
27 0.16
28 -0.14
29 0.16
3 -0.57
30 -0.15
31 0.16
32 0.16
33 -0.15
34 0.16
4 -0.73
5 -0.73
55 0.37
56 0.4
6 -0.62
60 0.37
63 0.15
64 0.15
65 0.15
66 0.15
67 0.15
68 0.15
69 0.15
7 -0.62
8 -0.62

> <PUBCHEM_EFFECTIVE_ROTOR_COUNT>
9.6

> <PUBCHEM_PHARMACOPHORE_FEATURES>
14
1 1 acceptor
1 1 donor
1 2 acceptor
1 22 hydrophobe
1 3 acceptor
1 4 donor
1 5 donor
1 6 acceptor
1 7 acceptor
1 8 acceptor
6 6 7 25 27 29 32 rings
6 8 28 30 31 33 34 rings
6 9 10 11 14 16 18 rings
6 9 10 12 13 15 17 rings

> <PUBCHEM_HEAVY_ATOM_COUNT>
34

> <PUBCHEM_ATOM_DEF_STEREO_COUNT>
6

> <PUBCHEM_ATOM_UDEF_STEREO_COUNT>
1

> <PUBCHEM_BOND_DEF_STEREO_COUNT>
0

> <PUBCHEM_BOND_UDEF_STEREO_COUNT>
0

> <PUBCHEM_ISOTOPIC_ATOM_COUNT>
0

> <PUBCHEM_COMPONENT_COUNT>
1

> <PUBCHEM_CACTVS_TAUTO_COUNT>
4

> <PUBCHEM_CONFORMER_ID>
02B4298C00000001

> <PUBCHEM_MMFF94_ENERGY>
98.0081

> <PUBCHEM_FEATURE_SELFOVERLAP>
71.068

> <PUBCHEM_SHAPE_FINGERPRINT>
10533779 47 10087644844956219357
10673678 19 18411985758487938270
10677351 14 18342449354188638613
10816530 90 18060412552046428648
11007060 377 18334304149947646177
11135609 187 18197217160508827120
11211813 74 18410008828055020381
13150687 139 18059586797908916278
13165053 68 18118127107242635383
13617811 41 16343706526038296040
13947947 19 17703781553552426367
14117953 113 18409738383377291604
14251757 52 18407758140241673621
14675020 138 15357697470348474082
150020 25 18336274491205016006
15183329 4 17203608181752947237
15361156 5 18341610443754174711
15840311 113 18409451379975187694
15890870 6 18336269042110465860
16120349 18 18335416868030047293
16992787 43 18130790087685063401
16994733 274 17676487207868916325
17686467 74 18113339726778712053
18608769 82 18339361972065526267
19319366 153 18412258407376161166
20157964 124 18408606955292981380
20554085 129 16443063902376538416
20715895 44 18410011079287393612
21049683 118 17895186758303682426
21049683 271 18272088314460357601
21150785 3 18408605851354439525
21267235 1 17774720857748660259
21521721 280 18411424998994373987
21781055 127 15266798680271334643
22149856 69 17346043247004897283
23522609 53 17630912450549468249
23569914 2 17099697727031986956
3044373 193 17313105246428638372
34797466 226 18060707165196339374
3552219 110 17846228743745011489
4073 2 18260550039675781715
4098825 35 18334856130333046647
4149490 64 18260546715017848770
44317340 157 18342458153864718366
4625314 4 18336549326500215599
5109719 28 18188501266904547896
5265222 85 18411981378091171247
5372103 7 15553305099821989352
9831232 110 11887676160878423428

> <PUBCHEM_SHAPE_MULTIPOLES>
657.19
24.99
3.09
1.47
33.63
0.16
0.33
-11.99
-5.63
-6.28
-0.1
-0.8
0.01
0.31

> <PUBCHEM_SHAPE_SELFOVERLAP>
1391.816

> <PUBCHEM_SHAPE_VOLUME>
361.6

> <PUBCHEM_COORDINATE_TYPE>
2
5
10

$$$$
