11912241
  -OEChem-12032416353D

 52 55  0     1  0  0  0  0  0999 V2000
   -5.2881   -1.8615    0.9515 S   0  0  0  0  0  0  0  0  0  0  0  0
   -0.3725    2.3667    1.1992 O   0  0  0  0  0  0  0  0  0  0  0  0
   -1.7826    2.9216   -1.5285 O   0  0  0  0  0  0  0  0  0  0  0  0
   -5.3373    1.2147    0.3275 O   0  0  0  0  0  0  0  0  0  0  0  0
   -2.5666   -4.4146   -0.1350 O   0  0  0  0  0  0  0  0  0  0  0  0
   -4.5304   -3.8256   -1.1156 O   0  0  0  0  0  0  0  0  0  0  0  0
   -3.2466    1.1924    1.3436 N   0  0  0  0  0  0  0  0  0  0  0  0
    0.7070    1.1663   -2.0754 N   0  0  0  0  0  0  0  0  0  0  0  0
    2.4474    0.2747   -0.8230 N   0  0  0  0  0  0  0  0  0  0  0  0
    1.8458   -0.6515   -2.9647 N   0  0  0  0  0  0  0  0  0  0  0  0
   -1.8846    1.8593   -0.5658 C   0  0  1  0  0  0  0  0  0  0  0  0
   -0.4925    1.6115   -0.0182 C   0  0  1  0  0  0  0  0  0  0  0  0
   -2.6777    2.3149    0.6378 C   0  0  2  0  0  0  0  0  0  0  0  0
    0.4265    2.1743   -1.0766 C   0  0  2  0  0  0  0  0  0  0  0  0
   -1.6228    3.0148    1.4760 C   0  0  0  0  0  0  0  0  0  0  0  0
   -0.4043    3.2928   -1.6783 C   0  0  0  0  0  0  0  0  0  0  0  0
   -4.5374    0.7331    1.1282 C   0  0  0  0  0  0  0  0  0  0  0  0
    1.7103    0.2220   -1.9488 C   0  0  0  0  0  0  0  0  0  0  0  0
   -4.9011   -0.4425    2.0043 C   0  0  0  0  0  0  0  0  0  0  0  0
    3.4162   -0.6599   -0.7326 C   0  0  0  0  0  0  0  0  0  0  0  0
    2.8331   -1.5578   -2.8086 C   0  0  0  0  0  0  0  0  0  0  0  0
    3.6575   -1.6105   -1.7034 C   0  0  0  0  0  0  0  0  0  0  0  0
    4.2077   -0.6073    0.4731 C   0  0  0  0  0  0  0  0  0  0  0  0
   -3.5991   -2.3927    0.5840 C   0  0  0  0  0  0  0  0  0  0  0  0
    4.2415   -1.7048    1.3335 C   0  0  0  0  0  0  0  0  0  0  0  0
    4.9395    0.5405    0.7780 C   0  0  0  0  0  0  0  0  0  0  0  0
   -3.6384   -3.6003   -0.3077 C   0  0  0  0  0  0  0  0  0  0  0  0
    5.0067   -1.6545    2.4987 C   0  0  0  0  0  0  0  0  0  0  0  0
    5.7048    0.5907    1.9432 C   0  0  0  0  0  0  0  0  0  0  0  0
    5.7382   -0.5068    2.8035 C   0  0  0  0  0  0  0  0  0  0  0  0
   -2.3037    0.9887   -1.0806 H   0  0  0  0  0  0  0  0  0  0  0  0
   -0.3177    0.5607    0.2339 H   0  0  0  0  0  0  0  0  0  0  0  0
   -3.4838    3.0085    0.3757 H   0  0  0  0  0  0  0  0  0  0  0  0
    1.3561    2.5952   -0.6764 H   0  0  0  0  0  0  0  0  0  0  0  0
   -1.8185    2.9815    2.5521 H   0  0  0  0  0  0  0  0  0  0  0  0
   -1.5177    4.0636    1.1771 H   0  0  0  0  0  0  0  0  0  0  0  0
   -0.1939    3.4845   -2.7351 H   0  0  0  0  0  0  0  0  0  0  0  0
   -0.2597    4.2276   -1.1254 H   0  0  0  0  0  0  0  0  0  0  0  0
   -2.6456    0.6871    1.9884 H   0  0  0  0  0  0  0  0  0  0  0  0
    0.1151    1.0994   -2.8957 H   0  0  0  0  0  0  0  0  0  0  0  0
   -4.1154   -0.6954    2.7217 H   0  0  0  0  0  0  0  0  0  0  0  0
   -5.7935   -0.1686    2.5763 H   0  0  0  0  0  0  0  0  0  0  0  0
    2.9478   -2.2632   -3.6246 H   0  0  0  0  0  0  0  0  0  0  0  0
    4.4406   -2.3544   -1.6242 H   0  0  0  0  0  0  0  0  0  0  0  0
   -3.0405   -1.6046    0.0722 H   0  0  0  0  0  0  0  0  0  0  0  0
   -3.1019   -2.6557    1.5224 H   0  0  0  0  0  0  0  0  0  0  0  0
    3.6742   -2.6072    1.1177 H   0  0  0  0  0  0  0  0  0  0  0  0
    4.9285    1.4049    0.1181 H   0  0  0  0  0  0  0  0  0  0  0  0
    5.0319   -2.5084    3.1694 H   0  0  0  0  0  0  0  0  0  0  0  0
    6.2751    1.4840    2.1805 H   0  0  0  0  0  0  0  0  0  0  0  0
    6.3339   -0.4675    3.7108 H   0  0  0  0  0  0  0  0  0  0  0  0
   -2.6008   -5.1954   -0.7280 H   0  0  0  0  0  0  0  0  0  0  0  0
  1 19  1  0  0  0  0
  1 24  1  0  0  0  0
  2 12  1  0  0  0  0
  2 15  1  0  0  0  0
  3 11  1  0  0  0  0
  3 16  1  0  0  0  0
  4 17  2  0  0  0  0
  5 27  1  0  0  0  0
  5 52  1  0  0  0  0
  6 27  2  0  0  0  0
  7 13  1  0  0  0  0
  7 17  1  0  0  0  0
  7 39  1  0  0  0  0
  8 14  1  0  0  0  0
  8 18  1  0  0  0  0
  8 40  1  0  0  0  0
  9 18  1  0  0  0  0
  9 20  2  0  0  0  0
 10 18  2  0  0  0  0
 10 21  1  0  0  0  0
 11 12  1  0  0  0  0
 11 13  1  0  0  0  0
 11 31  1  0  0  0  0
 12 14  1  0  0  0  0
 12 32  1  0  0  0  0
 13 15  1  0  0  0  0
 13 33  1  0  0  0  0
 14 16  1  0  0  0  0
 14 34  1  0  0  0  0
 15 35  1  0  0  0  0
 15 36  1  0  0  0  0
 16 37  1  0  0  0  0
 16 38  1  0  0  0  0
 17 19  1  0  0  0  0
 19 41  1  0  0  0  0
 19 42  1  0  0  0  0
 20 22  1  0  0  0  0
 20 23  1  0  0  0  0
 21 22  2  0  0  0  0
 21 43  1  0  0  0  0
 22 44  1  0  0  0  0
 23 25  2  0  0  0  0
 23 26  1  0  0  0  0
 24 27  1  0  0  0  0
 24 45  1  0  0  0  0
 24 46  1  0  0  0  0
 25 28  1  0  0  0  0
 25 47  1  0  0  0  0
 26 29  2  0  0  0  0
 26 48  1  0  0  0  0
 28 30  2  0  0  0  0
 28 49  1  0  0  0  0
 29 30  1  0  0  0  0
 29 50  1  0  0  0  0
 30 51  1  0  0  0  0
M  END
> <PUBCHEM_COMPOUND_CID>
11912241

> <PUBCHEM_CONFORMER_RMSD>
1

> <PUBCHEM_CONFORMER_DIVERSEORDER>
4
110
25
74
107
64
134
114
42
46
54
111
102
29
98
17
59
142
146
86
103
53
125
89
96
126
47
138
38
122
62
81
50
147
67
145
26
140
91
101
84
106
87
120
60
127
123
99
18
133
117
36
66
124
51
149
73
79
85
148
70
65
108
104
105
76
152
143
129
116
41
49
115
131
52
69
128
44
48
112
58
121
55
28
118
95
97
80
82
136
57
92
35
150
6
130
9
34
12
63
119
19
90
135
15
83
113
139
43
141
37
8
88
94
93
71
27
10
56
77
61
132
100
33
144
21
151
68
39
24
78
22
20
72
31
3
109
5
40
11
14
45
23
13
16
2
7
137
75
1
32
30

> <PUBCHEM_MMFF94_PARTIAL_CHARGES>
39
1 -0.46
10 -0.62
11 0.28
12 0.28
13 0.3
14 0.37
15 0.28
16 0.28
17 0.57
18 0.72
19 0.29
2 -0.56
20 0.31
21 0.16
22 -0.15
24 0.29
25 -0.15
26 -0.15
27 0.66
28 -0.15
29 -0.15
3 -0.56
30 -0.15
39 0.37
4 -0.57
40 0.4
43 0.15
44 0.15
47 0.15
48 0.15
49 0.15
5 -0.65
50 0.15
51 0.15
52 0.5
6 -0.57
7 -0.73
8 -0.87
9 -0.62

> <PUBCHEM_EFFECTIVE_ROTOR_COUNT>
10.2

> <PUBCHEM_PHARMACOPHORE_FEATURES>
14
1 2 acceptor
1 3 acceptor
1 4 acceptor
1 5 acceptor
1 6 acceptor
1 7 donor
1 8 donor
1 9 acceptor
3 5 6 27 anion
4 8 9 10 18 cation
5 2 11 12 13 15 rings
5 3 11 12 14 16 rings
6 23 25 26 28 29 30 rings
6 9 10 18 20 21 22 rings

> <PUBCHEM_HEAVY_ATOM_COUNT>
30

> <PUBCHEM_ATOM_DEF_STEREO_COUNT>
4

> <PUBCHEM_ATOM_UDEF_STEREO_COUNT>
0

> <PUBCHEM_BOND_DEF_STEREO_COUNT>
0

> <PUBCHEM_BOND_UDEF_STEREO_COUNT>
0

> <PUBCHEM_ISOTOPIC_ATOM_COUNT>
0

> <PUBCHEM_COMPONENT_COUNT>
1

> <PUBCHEM_CACTVS_TAUTO_COUNT>
6

> <PUBCHEM_CONFORMER_ID>
00B5C43100000004

> <PUBCHEM_MMFF94_ENERGY>
81.7917

> <PUBCHEM_FEATURE_SELFOVERLAP>
71.812

> <PUBCHEM_SHAPE_FINGERPRINT>
10319688 77 17895463825836961853
10429389 16 12396291548131952202
10622 236 16588307120884191616
10794284 68 17767406052345443228
10908659 184 17907317776924850323
11069576 57 16515985687353663154
11135609 149 14634857648913651858
11135926 11 14708653558103166670
12523318 42 18337950087012716425
12712778 12 18410289216567957355
13561361 72 18412548673913237942
13828863 39 15339113567565178912
14508693 111 18190190163930415362
14705955 166 16842503149537607409
14950920 106 18126560116455688584
15163728 17 10663825191102060121
161222 619 17418089940505179976
20775530 9 18051712224110667719
21458453 9 17559662018183559954
21585480 29 18336812191652593530
22122407 14 14979408252897637731
23536364 44 13407061596703681863
3459 110 17346025792194145195
3882209 13 17484503883604182983
4394409 98 18262503867622746767
463206 1 17458356233804857993
4756261 7 17479719959718183288
5085150 59 18336263419797256457
552612 73 17632305601250111342
66674814 147 16588296198851267802
9961470 85 18196091041479790603

> <PUBCHEM_SHAPE_MULTIPOLES>
571.96
13.61
4.55
2.92
2.76
2.07
0.63
8.97
-10.02
-7.09
1.08
3.88
0.36
-0.9

> <PUBCHEM_SHAPE_SELFOVERLAP>
1215.85

> <PUBCHEM_SHAPE_VOLUME>
320

> <PUBCHEM_COORDINATE_TYPE>
2
5
10

$$$$
