11865732
  -OEChem-12032416123D

 63 65  0     1  0  0  0  0  0999 V2000
   -4.1239    3.5615    1.9494 S   0  0  0  0  0  0  0  0  0  0  0  0
    3.3157    0.9443    2.5871 F   0  0  0  0  0  0  0  0  0  0  0  0
    7.5823    0.8310    0.5475 F   0  0  0  0  0  0  0  0  0  0  0  0
   -1.8045   -0.0597    0.8218 O   0  0  0  0  0  0  0  0  0  0  0  0
   -5.1529    0.9042    0.2012 O   0  0  0  0  0  0  0  0  0  0  0  0
    1.7758    1.8528   -2.1546 O   0  0  0  0  0  0  0  0  0  0  0  0
   -4.3499   -3.7899   -0.0071 O   0  0  0  0  0  0  0  0  0  0  0  0
   -3.1804    1.6849   -0.7246 N   0  0  0  0  0  0  0  0  0  0  0  0
   -0.0212    1.8092   -0.7003 N   0  0  0  0  0  0  0  0  0  0  0  0
   -2.4954   -1.8278   -0.5255 N   0  0  0  0  0  0  0  0  0  0  0  0
    2.0899    1.4593    0.1384 N   0  0  0  0  0  0  0  0  0  0  0  0
   -3.3388   -4.1593    2.0222 N   0  0  0  0  0  0  0  0  0  0  0  0
   -1.0418    2.0695   -1.6844 C   0  0  1  0  0  0  0  0  0  0  0  0
   -2.7658    0.4186   -1.3103 C   0  0  1  0  0  0  0  0  0  0  0  0
   -1.6230    0.7747   -2.2587 C   0  0  0  0  0  0  0  0  0  0  0  0
   -2.2554    2.7631   -1.0734 C   0  0  0  0  0  0  0  0  0  0  0  0
   -2.3057   -0.4928   -0.2124 C   0  0  0  0  0  0  0  0  0  0  0  0
   -4.3974    1.8369   -0.0775 C   0  0  0  0  0  0  0  0  0  0  0  0
   -2.1146   -2.9082    0.3554 C   0  0  2  0  0  0  0  0  0  0  0  0
   -4.7631    3.2510    0.2973 C   0  0  0  0  0  0  0  0  0  0  0  0
    1.3412    1.7180   -1.0133 C   0  0  0  0  0  0  0  0  0  0  0  0
   -1.1273   -3.8758   -0.3071 C   0  0  0  0  0  0  0  0  0  0  0  0
   -3.3911   -3.6386    0.7462 C   0  0  0  0  0  0  0  0  0  0  0  0
    0.2893   -3.3550   -0.3075 C   0  0  0  0  0  0  0  0  0  0  0  0
    3.4910    1.2980    0.2447 C   0  0  0  0  0  0  0  0  0  0  0  0
    0.7482   -2.5827   -1.3747 C   0  0  0  0  0  0  0  0  0  0  0  0
    1.1396   -3.6455    0.7594 C   0  0  0  0  0  0  0  0  0  0  0  0
   -4.6827    5.2714    2.1486 C   0  0  0  0  0  0  0  0  0  0  0  0
    4.0740    1.0422    1.4860 C   0  0  0  0  0  0  0  0  0  0  0  0
    4.2903    1.3960   -0.8942 C   0  0  0  0  0  0  0  0  0  0  0  0
    2.0573   -2.1013   -1.3752 C   0  0  0  0  0  0  0  0  0  0  0  0
    2.4488   -3.1638    0.7590 C   0  0  0  0  0  0  0  0  0  0  0  0
    2.9075   -2.3917   -0.3083 C   0  0  0  0  0  0  0  0  0  0  0  0
    5.4561    0.8846    1.5881 C   0  0  0  0  0  0  0  0  0  0  0  0
    5.6724    1.2384   -0.7922 C   0  0  0  0  0  0  0  0  0  0  0  0
    6.2553    0.9825    0.4489 C   0  0  0  0  0  0  0  0  0  0  0  0
   -0.5986    2.6849   -2.4748 H   0  0  0  0  0  0  0  0  0  0  0  0
   -3.6137   -0.0274   -1.8426 H   0  0  0  0  0  0  0  0  0  0  0  0
   -0.8806   -0.0211   -2.3710 H   0  0  0  0  0  0  0  0  0  0  0  0
   -2.0417    0.9871   -3.2506 H   0  0  0  0  0  0  0  0  0  0  0  0
   -2.0153    3.3774   -0.2018 H   0  0  0  0  0  0  0  0  0  0  0  0
   -2.7520    3.3856   -1.8264 H   0  0  0  0  0  0  0  0  0  0  0  0
   -0.3077    1.6228    0.2560 H   0  0  0  0  0  0  0  0  0  0  0  0
   -2.9416   -2.0726   -1.4051 H   0  0  0  0  0  0  0  0  0  0  0  0
   -1.6713   -2.4828    1.2646 H   0  0  0  0  0  0  0  0  0  0  0  0
   -4.3892    3.9838   -0.4200 H   0  0  0  0  0  0  0  0  0  0  0  0
   -5.8557    3.3276    0.3046 H   0  0  0  0  0  0  0  0  0  0  0  0
   -1.1383   -4.8440    0.2116 H   0  0  0  0  0  0  0  0  0  0  0  0
   -1.4370   -4.1005   -1.3369 H   0  0  0  0  0  0  0  0  0  0  0  0
    1.5745    1.3738    1.0108 H   0  0  0  0  0  0  0  0  0  0  0  0
    0.0969   -2.3525   -2.2132 H   0  0  0  0  0  0  0  0  0  0  0  0
    0.7930   -4.2437    1.5979 H   0  0  0  0  0  0  0  0  0  0  0  0
   -4.1203   -4.6824    2.4030 H   0  0  0  0  0  0  0  0  0  0  0  0
   -2.5301   -4.0472    2.6251 H   0  0  0  0  0  0  0  0  0  0  0  0
   -4.3757    5.6384    3.1315 H   0  0  0  0  0  0  0  0  0  0  0  0
   -5.7723    5.3256    2.0813 H   0  0  0  0  0  0  0  0  0  0  0  0
   -4.2335    5.9094    1.3831 H   0  0  0  0  0  0  0  0  0  0  0  0
    3.9145    1.5903   -1.8886 H   0  0  0  0  0  0  0  0  0  0  0  0
    2.4145   -1.4996   -2.2058 H   0  0  0  0  0  0  0  0  0  0  0  0
    3.1109   -3.3891    1.5898 H   0  0  0  0  0  0  0  0  0  0  0  0
    3.9275   -2.0189   -0.3093 H   0  0  0  0  0  0  0  0  0  0  0  0
    5.9100    0.6849    2.5541 H   0  0  0  0  0  0  0  0  0  0  0  0
    6.2960    1.3138   -1.6781 H   0  0  0  0  0  0  0  0  0  0  0  0
  1 20  1  0  0  0  0
  1 28  1  0  0  0  0
  2 29  1  0  0  0  0
  3 36  1  0  0  0  0
  4 17  2  0  0  0  0
  5 18  2  0  0  0  0
  6 21  2  0  0  0  0
  7 23  2  0  0  0  0
  8 14  1  0  0  0  0
  8 16  1  0  0  0  0
  8 18  1  0  0  0  0
  9 13  1  0  0  0  0
  9 21  1  0  0  0  0
  9 43  1  0  0  0  0
 10 17  1  0  0  0  0
 10 19  1  0  0  0  0
 10 44  1  0  0  0  0
 11 21  1  0  0  0  0
 11 25  1  0  0  0  0
 11 50  1  0  0  0  0
 12 23  1  0  0  0  0
 12 53  1  0  0  0  0
 12 54  1  0  0  0  0
 13 15  1  0  0  0  0
 13 16  1  0  0  0  0
 13 37  1  0  0  0  0
 14 15  1  0  0  0  0
 14 17  1  0  0  0  0
 14 38  1  0  0  0  0
 15 39  1  0  0  0  0
 15 40  1  0  0  0  0
 16 41  1  0  0  0  0
 16 42  1  0  0  0  0
 18 20  1  0  0  0  0
 19 22  1  0  0  0  0
 19 23  1  0  0  0  0
 19 45  1  0  0  0  0
 20 46  1  0  0  0  0
 20 47  1  0  0  0  0
 22 24  1  0  0  0  0
 22 48  1  0  0  0  0
 22 49  1  0  0  0  0
 24 26  2  0  0  0  0
 24 27  1  0  0  0  0
 25 29  2  0  0  0  0
 25 30  1  0  0  0  0
 26 31  1  0  0  0  0
 26 51  1  0  0  0  0
 27 32  2  0  0  0  0
 27 52  1  0  0  0  0
 28 55  1  0  0  0  0
 28 56  1  0  0  0  0
 28 57  1  0  0  0  0
 29 34  1  0  0  0  0
 30 35  2  0  0  0  0
 30 58  1  0  0  0  0
 31 33  2  0  0  0  0
 31 59  1  0  0  0  0
 32 33  1  0  0  0  0
 32 60  1  0  0  0  0
 33 61  1  0  0  0  0
 34 36  2  0  0  0  0
 34 62  1  0  0  0  0
 35 36  1  0  0  0  0
 35 63  1  0  0  0  0
M  END
> <PUBCHEM_COMPOUND_CID>
11865732

> <PUBCHEM_CONFORMER_RMSD>
1.2

> <PUBCHEM_CONFORMER_DIVERSEORDER>
1
26
66
84
88
2
32
50
49
48
52
30
87
95
23
70
12
82
62
89
101
35
75
14
59
74
37
45
98
69
16
10
40
60
83
97
61
90
31
43
94
93
15
67
81
41
19
71
58
29
76
47
79
27
34
68
73
85
6
65
39
25
72
91
28
64
51
13
7
77
42
78
57
4
54
56
86
99
33
38
21
18
36
44
8
24
3
46
96
53
11
22
100
92
80
5
9
63
55
17
20

> <PUBCHEM_MMFF94_PARTIAL_CHARGES>
48
1 -0.46
10 -0.73
11 -0.55
12 -0.8
13 0.3
14 0.36
16 0.3
17 0.57
18 0.57
19 0.36
2 -0.19
20 0.29
21 0.69
22 0.14
23 0.57
24 -0.14
25 0.12
26 -0.15
27 -0.15
28 0.23
29 0.19
3 -0.19
30 -0.15
31 -0.15
32 -0.15
33 -0.15
34 -0.15
35 -0.15
36 0.19
4 -0.57
43 0.37
44 0.37
5 -0.57
50 0.37
51 0.15
52 0.15
53 0.37
54 0.37
58 0.15
59 0.15
6 -0.57
60 0.15
61 0.15
62 0.15
63 0.15
7 -0.57
8 -0.66
9 -0.73

> <PUBCHEM_EFFECTIVE_ROTOR_COUNT>
14

> <PUBCHEM_PHARMACOPHORE_FEATURES>
12
1 10 donor
1 11 donor
1 12 donor
1 28 hydrophobe
1 4 acceptor
1 5 acceptor
1 6 acceptor
1 7 acceptor
1 9 donor
5 8 13 14 15 16 rings
6 24 26 27 31 32 33 rings
6 25 29 30 34 35 36 rings

> <PUBCHEM_HEAVY_ATOM_COUNT>
36

> <PUBCHEM_ATOM_DEF_STEREO_COUNT>
3

> <PUBCHEM_ATOM_UDEF_STEREO_COUNT>
0

> <PUBCHEM_BOND_DEF_STEREO_COUNT>
0

> <PUBCHEM_BOND_UDEF_STEREO_COUNT>
0

> <PUBCHEM_ISOTOPIC_ATOM_COUNT>
0

> <PUBCHEM_COMPONENT_COUNT>
1

> <PUBCHEM_CACTVS_TAUTO_COUNT>
12

> <PUBCHEM_CONFORMER_ID>
00B50E8400000001

> <PUBCHEM_MMFF94_ENERGY>
88.9571

> <PUBCHEM_FEATURE_SELFOVERLAP>
60.949

> <PUBCHEM_SHAPE_FINGERPRINT>
11513181 2 18201996625442911606
12422481 6 18196102255022131282
12522641 33 18116411688830606765
12788726 201 17831599916929009837
13726171 33 18119552048600763724
14068700 675 18052247690157041991
14117953 113 18191864733193478943
14178342 30 18409733997054496157
14955137 171 17542229403518989227
15968369 153 18271536389930532575
16112460 7 18197498428872848744
20764821 26 18187651288549774790
21591340 35 17983582905244289264
22223350 30 18189911824132222023
3052486 1 18188208823129658654
4112364 45 17625555484535330265
508706 21 18409448120079601334
653340 110 18339080492144885126
9896288 288 18341338858979260263

> <PUBCHEM_SHAPE_MULTIPOLES>
681.78
12.68
6.75
1.97
10.9
4.7
-0.27
-12.72
-5.33
-8.21
-2.93
-0.34
-1.19
-0.6

> <PUBCHEM_SHAPE_SELFOVERLAP>
1425.506

> <PUBCHEM_SHAPE_VOLUME>
388.7

> <PUBCHEM_COORDINATE_TYPE>
2
5
10

$$$$
