11883985
  -OEChem-12032416393D

 56 60  0     1  0  0  0  0  0999 V2000
   -8.2736    2.5338    1.2730 F   0  0  0  0  0  0  0  0  0  0  0  0
   -8.2887    3.0124   -0.8424 F   0  0  0  0  0  0  0  0  0  0  0  0
   -6.7760    3.8820    0.4555 F   0  0  0  0  0  0  0  0  0  0  0  0
    0.3263   -1.6427   -0.7372 O   0  0  0  0  0  0  0  0  0  0  0  0
   -0.2380   -4.1391    0.9520 O   0  0  0  0  0  0  0  0  0  0  0  0
    2.6583   -2.0444    0.7142 O   0  0  0  0  0  0  0  0  0  0  0  0
   -4.2861   -2.5574   -1.6353 O   0  0  0  0  0  0  0  0  0  0  0  0
    2.2467    0.0230    1.6010 O   0  0  0  0  0  0  0  0  0  0  0  0
   -2.7427   -1.6921   -0.1360 N   0  0  0  0  0  0  0  0  0  0  0  0
    4.1869   -0.4222    0.3691 N   0  0  0  0  0  0  0  0  0  0  0  0
   -0.8710   -2.8428    0.9210 C   0  0  1  0  0  0  0  0  0  0  0  0
    0.2258   -1.8239    0.6852 C   0  0  1  0  0  0  0  0  0  0  0  0
   -1.7470   -2.7223   -0.3041 C   0  0  2  0  0  0  0  0  0  0  0  0
    1.4427   -2.5182    1.2481 C   0  0  1  0  0  0  0  0  0  0  0  0
   -0.7437   -2.3506   -1.3822 C   0  0  0  0  0  0  0  0  0  0  0  0
    1.1845   -3.9622    0.8814 C   0  0  0  0  0  0  0  0  0  0  0  0
   -3.9464   -1.6975   -0.8267 C   0  0  0  0  0  0  0  0  0  0  0  0
    2.9731   -0.7231    0.9559 C   0  0  0  0  0  0  0  0  0  0  0  0
   -4.8538   -0.5514   -0.5619 C   0  0  0  0  0  0  0  0  0  0  0  0
   -4.7760    0.0916    0.6562 C   0  0  0  0  0  0  0  0  0  0  0  0
   -5.7462   -0.1677   -1.5412 C   0  0  0  0  0  0  0  0  0  0  0  0
    4.8738    0.8131    0.3745 C   0  0  0  0  0  0  0  0  0  0  0  0
    6.1052    0.9625   -0.2689 C   0  0  0  0  0  0  0  0  0  0  0  0
   -5.6292    1.1665    0.9061 C   0  0  0  0  0  0  0  0  0  0  0  0
   -6.5992    0.9073   -1.2913 C   0  0  0  0  0  0  0  0  0  0  0  0
   -6.5407    1.5745   -0.0676 C   0  0  0  0  0  0  0  0  0  0  0  0
    4.2705    1.8680    1.0474 C   0  0  0  0  0  0  0  0  0  0  0  0
    6.7467    2.2233   -0.2293 C   0  0  0  0  0  0  0  0  0  0  0  0
    6.7205   -0.0999   -0.9509 C   0  0  0  0  0  0  0  0  0  0  0  0
    4.9012    3.1080    1.0860 C   0  0  0  0  0  0  0  0  0  0  0  0
    6.1314    3.2860    0.4523 C   0  0  0  0  0  0  0  0  0  0  0  0
   -7.4522    2.7246    0.1985 C   0  0  0  0  0  0  0  0  0  0  0  0
    7.9846    2.3847   -0.8728 C   0  0  0  0  0  0  0  0  0  0  0  0
    7.9507    0.0782   -1.5844 C   0  0  0  0  0  0  0  0  0  0  0  0
    8.5816    1.3181   -1.5454 C   0  0  0  0  0  0  0  0  0  0  0  0
   -1.3949   -2.7062    1.8725 H   0  0  0  0  0  0  0  0  0  0  0  0
    0.0014   -0.8512    1.1305 H   0  0  0  0  0  0  0  0  0  0  0  0
   -2.2504   -3.6605   -0.5615 H   0  0  0  0  0  0  0  0  0  0  0  0
    1.4534   -2.4322    2.3431 H   0  0  0  0  0  0  0  0  0  0  0  0
   -1.1592   -1.7278   -2.1803 H   0  0  0  0  0  0  0  0  0  0  0  0
   -0.3084   -3.2472   -1.8370 H   0  0  0  0  0  0  0  0  0  0  0  0
    1.5213   -4.2009   -0.1337 H   0  0  0  0  0  0  0  0  0  0  0  0
    1.6753   -4.6593    1.5671 H   0  0  0  0  0  0  0  0  0  0  0  0
   -2.4821   -0.8904    0.4287 H   0  0  0  0  0  0  0  0  0  0  0  0
    4.6169   -1.1991   -0.1188 H   0  0  0  0  0  0  0  0  0  0  0  0
   -4.1058   -0.2162    1.4520 H   0  0  0  0  0  0  0  0  0  0  0  0
   -5.8009   -0.6732   -2.5007 H   0  0  0  0  0  0  0  0  0  0  0  0
   -5.5817    1.6757    1.8651 H   0  0  0  0  0  0  0  0  0  0  0  0
   -7.3015    1.2112   -2.0626 H   0  0  0  0  0  0  0  0  0  0  0  0
    3.3253    1.8301    1.5654 H   0  0  0  0  0  0  0  0  0  0  0  0
    6.2846   -1.0912   -1.0205 H   0  0  0  0  0  0  0  0  0  0  0  0
    4.4375    3.9393    1.6094 H   0  0  0  0  0  0  0  0  0  0  0  0
    6.6063    4.2640    0.4954 H   0  0  0  0  0  0  0  0  0  0  0  0
    8.4956    3.3451   -0.8553 H   0  0  0  0  0  0  0  0  0  0  0  0
    8.4167   -0.7512   -2.1086 H   0  0  0  0  0  0  0  0  0  0  0  0
    9.5393    1.4561   -2.0388 H   0  0  0  0  0  0  0  0  0  0  0  0
  1 32  1  0  0  0  0
  2 32  1  0  0  0  0
  3 32  1  0  0  0  0
  4 12  1  0  0  0  0
  4 15  1  0  0  0  0
  5 11  1  0  0  0  0
  5 16  1  0  0  0  0
  6 14  1  0  0  0  0
  6 18  1  0  0  0  0
  7 17  2  0  0  0  0
  8 18  2  0  0  0  0
  9 13  1  0  0  0  0
  9 17  1  0  0  0  0
  9 44  1  0  0  0  0
 10 18  1  0  0  0  0
 10 22  1  0  0  0  0
 10 45  1  0  0  0  0
 11 12  1  0  0  0  0
 11 13  1  0  0  0  0
 11 36  1  0  0  0  0
 12 14  1  0  0  0  0
 12 37  1  0  0  0  0
 13 15  1  0  0  0  0
 13 38  1  0  0  0  0
 14 16  1  0  0  0  0
 14 39  1  0  0  0  0
 15 40  1  0  0  0  0
 15 41  1  0  0  0  0
 16 42  1  0  0  0  0
 16 43  1  0  0  0  0
 17 19  1  0  0  0  0
 19 20  2  0  0  0  0
 19 21  1  0  0  0  0
 20 24  1  0  0  0  0
 20 46  1  0  0  0  0
 21 25  2  0  0  0  0
 21 47  1  0  0  0  0
 22 23  1  0  0  0  0
 22 27  2  0  0  0  0
 23 28  1  0  0  0  0
 23 29  2  0  0  0  0
 24 26  2  0  0  0  0
 24 48  1  0  0  0  0
 25 26  1  0  0  0  0
 25 49  1  0  0  0  0
 26 32  1  0  0  0  0
 27 30  1  0  0  0  0
 27 50  1  0  0  0  0
 28 31  1  0  0  0  0
 28 33  2  0  0  0  0
 29 34  1  0  0  0  0
 29 51  1  0  0  0  0
 30 31  2  0  0  0  0
 30 52  1  0  0  0  0
 31 53  1  0  0  0  0
 33 35  1  0  0  0  0
 33 54  1  0  0  0  0
 34 35  2  0  0  0  0
 34 55  1  0  0  0  0
 35 56  1  0  0  0  0
M  END
> <PUBCHEM_COMPOUND_CID>
11883985

> <PUBCHEM_CONFORMER_RMSD>
1

> <PUBCHEM_CONFORMER_DIVERSEORDER>
1
58
45
71
40
51
37
44
29
7
49
43
35
11
20
60
34
69
68
67
46
28
12
55
42
24
59
70
50
65
3
64
30
17
16
74
36
9
27
26
6
72
48
56
33
15
31
2
8
39
77
54
22
73
32
63
5
21
75
52
80
19
38
76
25
47
61
79
62
41
13
23
14
53
10
4
78
57
18
66

> <PUBCHEM_MMFF94_PARTIAL_CHARGES>
46
1 -0.34
10 -0.55
11 0.28
12 0.28
13 0.3
14 0.28
15 0.28
16 0.28
17 0.54
18 0.78
19 0.09
2 -0.34
20 -0.15
21 -0.15
22 0.12
24 -0.15
25 -0.15
26 -0.14
27 -0.15
29 -0.15
3 -0.34
30 -0.15
31 -0.15
32 1.16
33 -0.15
34 -0.15
35 -0.15
4 -0.56
44 0.37
45 0.37
46 0.15
47 0.15
48 0.15
49 0.15
5 -0.56
50 0.15
51 0.15
52 0.15
53 0.15
54 0.15
55 0.15
56 0.15
6 -0.43
7 -0.57
8 -0.57
9 -0.73

> <PUBCHEM_EFFECTIVE_ROTOR_COUNT>
9.2

> <PUBCHEM_PHARMACOPHORE_FEATURES>
11
1 10 donor
1 4 acceptor
1 5 acceptor
1 7 acceptor
1 8 acceptor
1 9 donor
5 4 11 12 13 15 rings
5 5 11 12 14 16 rings
6 19 20 21 24 25 26 rings
6 22 23 27 28 30 31 rings
6 23 28 29 33 34 35 rings

> <PUBCHEM_HEAVY_ATOM_COUNT>
35

> <PUBCHEM_ATOM_DEF_STEREO_COUNT>
4

> <PUBCHEM_ATOM_UDEF_STEREO_COUNT>
0

> <PUBCHEM_BOND_DEF_STEREO_COUNT>
0

> <PUBCHEM_BOND_UDEF_STEREO_COUNT>
0

> <PUBCHEM_ISOTOPIC_ATOM_COUNT>
0

> <PUBCHEM_COMPONENT_COUNT>
1

> <PUBCHEM_CACTVS_TAUTO_COUNT>
4

> <PUBCHEM_CONFORMER_ID>
00B555D100000001

> <PUBCHEM_MMFF94_ENERGY>
105.6767

> <PUBCHEM_FEATURE_SELFOVERLAP>
56.566

> <PUBCHEM_SHAPE_FINGERPRINT>
10055352 69 18341614841874155803
10190206 1 17846508014612059056
10622 236 8934999296145121603
10816530 90 18341329977440891026
10864689 126 18272649060789620616
10917259 69 18341897351479613576
10920273 25 18261405450272257717
11475781 23 18201151174705808360
11476731 99 18057031618063748200
11621639 336 18192995924732281044
1200032 147 18113335306455622186
12013929 112 18343029865820533862
12013929 29 18263928911906804004
12124843 1 17917987313021399037
13782708 43 12751239220104046651
13944108 23 18340204081976156706
14150022 121 17895766235191415035
14359421 15 12679178281104825533
14394314 77 18335140890960427773
14664723 55 18334576883975092093
14747281 78 18339654347732915062
14931854 50 17917711300994663113
15064981 113 17060625481589110188
15183329 4 17918280878720970350
15320295 40 13686304548125877284
15519825 34 9079122129220430260
15530120 55 16770965895273058676
15803439 3 17203609315160889870
15980000 95 17689430482647653482
16067689 134 18410293609718893853
16728433 281 18261960768675338572
16992727 255 18411984684778054840
16993089 31 13325994695505276381
17899979 129 18342179916681990734
19303781 99 11167933684909866677
19304152 47 18114184129859305153
2026 5 11312062041160819493
20691028 202 18335137634984333204
21223535 225 18341607183372778580
21424621 283 18408323315141531258
21585482 111 18262233322936812997
23569914 152 17844825689772345278
23569943 247 9655282766959310653
23729398 52 18046063762133494986
25025965 108 11886860302261412908
2748736 6 18337095852250218521
38570 142 18411698802917030386
397830 11 11098117982423022670
3986486 107 18342746239186299612
406291 66 9943804491215024645
4144715 1 17902798797313484554
4169191 19 18335132060887118117
4258327 124 18272645724475061703
42767 24 12535356687621965593
42767 28 17989485246823631817
44880568 143 18197500834555993220
4516262 110 18262230033360629375
4756326 101 16700306829345189960
4760202 70 10879703330829272882
50009960 94 8862648098037487273
508180 173 18131068294191149376
54583773 228 18339911672967681429
5718773 13 10159696893436629483
57303763 176 18342176610769787488
57634706 229 18113624520504957827
5874358 3 13182750187083163228
5937810 71 18343588455875805081
6036956 94 18196650684635695321
6058803 2 18195213734175182019
6201320 221 14763519119462461772
6201320 82 17099202015915399204
6636798 310 12829492532959441061
6673363 416 18052535770872652887
6703917 75 18042129915207291674
9689198 14 18408047320400327694
9896288 288 17678464284163067666
9980921 52 14978299924413971764

> <PUBCHEM_SHAPE_MULTIPOLES>
659.15
27.92
5.06
1.5
0.93
0.68
-0.24
-35.82
-8.89
4.2
1.43
-0.34
0.23
-1.3

> <PUBCHEM_SHAPE_SELFOVERLAP>
1461.498

> <PUBCHEM_SHAPE_VOLUME>
352.8

> <PUBCHEM_COORDINATE_TYPE>
2
5
10

$$$$
