11882029
  -OEChem-12032416343D

 77 81  0     1  0  0  0  0  0999 V2000
    1.0791    0.4023    0.9073 O   0  0  0  0  0  0  0  0  0  0  0  0
    4.0882    1.9453    0.0484 O   0  0  0  0  0  0  0  0  0  0  0  0
   -0.7805   -3.0960   -2.2744 O   0  0  0  0  0  0  0  0  0  0  0  0
    1.1981    4.3441    1.4652 O   0  0  0  0  0  0  0  0  0  0  0  0
    3.0305    0.1591   -0.9581 N   0  0  0  0  0  0  0  0  0  0  0  0
    0.7322   -2.0339   -0.8710 N   0  0  0  0  0  0  0  0  0  0  0  0
   -0.9727   -3.2896    0.0312 N   0  0  0  0  0  0  0  0  0  0  0  0
    0.2821    2.3172   -0.1496 N   0  0  0  0  0  0  0  0  0  0  0  0
    5.8699   -0.3251    1.0735 N   0  0  0  0  0  0  0  0  0  0  0  0
   -3.4600    1.9733   -2.4447 N   0  0  0  0  0  0  0  0  0  0  0  0
   -0.1300    3.5457    3.1606 N   0  0  0  0  0  0  0  0  0  0  0  0
    1.5334   -1.4295   -1.9051 C   0  0  1  0  0  0  0  0  0  0  0  0
    1.8241    0.8960   -1.3067 C   0  0  1  0  0  0  0  0  0  0  0  0
    1.0594   -0.0179   -2.2622 C   0  0  0  0  0  0  0  0  0  0  0  0
    2.9743   -1.2188   -1.4520 C   0  0  0  0  0  0  0  0  0  0  0  0
   -2.1437   -4.1380    0.0466 C   0  0  0  0  0  0  0  0  0  0  0  0
   -2.1168   -5.0922    1.2454 C   0  0  0  0  0  0  0  0  0  0  0  0
   -3.4289   -3.3036    0.0293 C   0  0  0  0  0  0  0  0  0  0  0  0
   -2.3694   -4.3734    2.5707 C   0  0  0  0  0  0  0  0  0  0  0  0
   -3.6793   -2.5878    1.3566 C   0  0  0  0  0  0  0  0  0  0  0  0
    1.0393    1.1620   -0.0570 C   0  0  0  0  0  0  0  0  0  0  0  0
   -3.6591   -3.5592    2.5328 C   0  0  0  0  0  0  0  0  0  0  0  0
    4.1216    0.7770   -0.3403 C   0  0  0  0  0  0  0  0  0  0  0  0
   -0.3787   -2.8321   -1.1419 C   0  0  0  0  0  0  0  0  0  0  0  0
   -0.5809    2.7839    0.9113 C   0  0  2  0  0  0  0  0  0  0  0  0
    5.3085   -0.0455   -0.1449 C   0  0  0  0  0  0  0  0  0  0  0  0
   -1.7638    3.6033    0.3801 C   0  0  0  0  0  0  0  0  0  0  0  0
    6.0636   -0.6725   -1.1114 C   0  0  0  0  0  0  0  0  0  0  0  0
   -2.6329    2.8333   -0.5729 C   0  0  0  0  0  0  0  0  0  0  0  0
    0.2744    3.6282    1.8449 C   0  0  0  0  0  0  0  0  0  0  0  0
    6.9715   -1.1217    0.8995 C   0  0  0  0  0  0  0  0  0  0  0  0
    7.1158   -1.3532   -0.4506 C   0  0  0  0  0  0  0  0  0  0  0  0
   -3.7653    2.0403   -0.2357 C   0  0  0  0  0  0  0  0  0  0  0  0
    5.3871    0.1394    2.3554 C   0  0  0  0  0  0  0  0  0  0  0  0
   -2.4706    2.7724   -1.9378 C   0  0  0  0  0  0  0  0  0  0  0  0
   -4.2655    1.5122   -1.4278 C   0  0  0  0  0  0  0  0  0  0  0  0
   -4.4148    1.7201    0.9731 C   0  0  0  0  0  0  0  0  0  0  0  0
   -5.3872    0.6766   -1.4718 C   0  0  0  0  0  0  0  0  0  0  0  0
   -5.5379    0.8854    0.9445 C   0  0  0  0  0  0  0  0  0  0  0  0
   -6.0149    0.3729   -0.2604 C   0  0  0  0  0  0  0  0  0  0  0  0
    1.4960   -2.0851   -2.7822 H   0  0  0  0  0  0  0  0  0  0  0  0
    2.1063    1.8408   -1.7853 H   0  0  0  0  0  0  0  0  0  0  0  0
    1.3708    0.2081   -3.2900 H   0  0  0  0  0  0  0  0  0  0  0  0
   -0.0278    0.1011   -2.2060 H   0  0  0  0  0  0  0  0  0  0  0  0
    3.3089   -1.9212   -0.6824 H   0  0  0  0  0  0  0  0  0  0  0  0
    3.6417   -1.2836   -2.3174 H   0  0  0  0  0  0  0  0  0  0  0  0
   -2.1182   -4.7411   -0.8696 H   0  0  0  0  0  0  0  0  0  0  0  0
   -1.1544   -5.6157    1.2939 H   0  0  0  0  0  0  0  0  0  0  0  0
   -2.8897   -5.8592    1.1079 H   0  0  0  0  0  0  0  0  0  0  0  0
   -4.2797   -3.9651   -0.1790 H   0  0  0  0  0  0  0  0  0  0  0  0
   -3.3983   -2.5643   -0.7800 H   0  0  0  0  0  0  0  0  0  0  0  0
    0.9473   -1.8207    0.0984 H   0  0  0  0  0  0  0  0  0  0  0  0
   -2.4275   -5.1110    3.3793 H   0  0  0  0  0  0  0  0  0  0  0  0
   -1.5262   -3.7144    2.8085 H   0  0  0  0  0  0  0  0  0  0  0  0
   -2.9213   -1.8097    1.5080 H   0  0  0  0  0  0  0  0  0  0  0  0
   -4.6506   -2.0832    1.3209 H   0  0  0  0  0  0  0  0  0  0  0  0
   -3.7735   -3.0048    3.4711 H   0  0  0  0  0  0  0  0  0  0  0  0
   -4.5167   -4.2392    2.4578 H   0  0  0  0  0  0  0  0  0  0  0  0
   -0.6032   -2.9511    0.9141 H   0  0  0  0  0  0  0  0  0  0  0  0
    0.3768    2.9036   -0.9740 H   0  0  0  0  0  0  0  0  0  0  0  0
   -0.9495    1.9052    1.4559 H   0  0  0  0  0  0  0  0  0  0  0  0
   -2.3713    3.9661    1.2191 H   0  0  0  0  0  0  0  0  0  0  0  0
   -1.3938    4.5044   -0.1284 H   0  0  0  0  0  0  0  0  0  0  0  0
    5.8954   -0.6364   -2.1788 H   0  0  0  0  0  0  0  0  0  0  0  0
    7.5625   -1.4568    1.7414 H   0  0  0  0  0  0  0  0  0  0  0  0
    7.8964   -1.9444   -0.9083 H   0  0  0  0  0  0  0  0  0  0  0  0
    5.9232   -0.3760    3.1564 H   0  0  0  0  0  0  0  0  0  0  0  0
    4.3192   -0.0824    2.4286 H   0  0  0  0  0  0  0  0  0  0  0  0
    5.5656    1.2156    2.4195 H   0  0  0  0  0  0  0  0  0  0  0  0
   -1.7410    3.2246   -2.5951 H   0  0  0  0  0  0  0  0  0  0  0  0
   -3.5818    1.7529   -3.4234 H   0  0  0  0  0  0  0  0  0  0  0  0
    0.3471    4.0708    3.8858 H   0  0  0  0  0  0  0  0  0  0  0  0
   -0.9099    2.9673    3.4563 H   0  0  0  0  0  0  0  0  0  0  0  0
   -4.0547    2.1094    1.9211 H   0  0  0  0  0  0  0  0  0  0  0  0
   -5.7587    0.2762   -2.4091 H   0  0  0  0  0  0  0  0  0  0  0  0
   -6.0417    0.6334    1.8738 H   0  0  0  0  0  0  0  0  0  0  0  0
   -6.8878   -0.2749   -0.2593 H   0  0  0  0  0  0  0  0  0  0  0  0
  1 21  2  0  0  0  0
  2 23  2  0  0  0  0
  3 24  2  0  0  0  0
  4 30  2  0  0  0  0
  5 13  1  0  0  0  0
  5 15  1  0  0  0  0
  5 23  1  0  0  0  0
  6 12  1  0  0  0  0
  6 24  1  0  0  0  0
  6 52  1  0  0  0  0
  7 16  1  0  0  0  0
  7 24  1  0  0  0  0
  7 59  1  0  0  0  0
  8 21  1  0  0  0  0
  8 25  1  0  0  0  0
  8 60  1  0  0  0  0
  9 26  1  0  0  0  0
  9 31  1  0  0  0  0
  9 34  1  0  0  0  0
 10 35  1  0  0  0  0
 10 36  1  0  0  0  0
 10 71  1  0  0  0  0
 11 30  1  0  0  0  0
 11 72  1  0  0  0  0
 11 73  1  0  0  0  0
 12 14  1  0  0  0  0
 12 15  1  0  0  0  0
 12 41  1  0  0  0  0
 13 14  1  0  0  0  0
 13 21  1  0  0  0  0
 13 42  1  0  0  0  0
 14 43  1  0  0  0  0
 14 44  1  0  0  0  0
 15 45  1  0  0  0  0
 15 46  1  0  0  0  0
 16 17  1  0  0  0  0
 16 18  1  0  0  0  0
 16 47  1  0  0  0  0
 17 19  1  0  0  0  0
 17 48  1  0  0  0  0
 17 49  1  0  0  0  0
 18 20  1  0  0  0  0
 18 50  1  0  0  0  0
 18 51  1  0  0  0  0
 19 22  1  0  0  0  0
 19 53  1  0  0  0  0
 19 54  1  0  0  0  0
 20 22  1  0  0  0  0
 20 55  1  0  0  0  0
 20 56  1  0  0  0  0
 22 57  1  0  0  0  0
 22 58  1  0  0  0  0
 23 26  1  0  0  0  0
 25 27  1  0  0  0  0
 25 30  1  0  0  0  0
 25 61  1  0  0  0  0
 26 28  2  0  0  0  0
 27 29  1  0  0  0  0
 27 62  1  0  0  0  0
 27 63  1  0  0  0  0
 28 32  1  0  0  0  0
 28 64  1  0  0  0  0
 29 33  1  0  0  0  0
 29 35  2  0  0  0  0
 31 32  2  0  0  0  0
 31 65  1  0  0  0  0
 32 66  1  0  0  0  0
 33 36  1  0  0  0  0
 33 37  2  0  0  0  0
 34 67  1  0  0  0  0
 34 68  1  0  0  0  0
 34 69  1  0  0  0  0
 35 70  1  0  0  0  0
 36 38  2  0  0  0  0
 37 39  1  0  0  0  0
 37 74  1  0  0  0  0
 38 40  1  0  0  0  0
 38 75  1  0  0  0  0
 39 40  2  0  0  0  0
 39 76  1  0  0  0  0
 40 77  1  0  0  0  0
M  END
> <PUBCHEM_COMPOUND_CID>
11882029

> <PUBCHEM_CONFORMER_RMSD>
1.2

> <PUBCHEM_CONFORMER_DIVERSEORDER>
1
38
91
61
98
50
63
109
114
82
86
54
104
2
43
21
93
46
116
115
33
26
3
57
117
25
84
39
18
29
42
30
100
34
90
89
94
67
110
51
96
73
95
60
41
53
85
102
66
74
113
4
106
58
10
68
17
79
37
105
97
76
112
107
31
49
6
103
78
99
13
72
80
7
5
15
45
47
22
83
20
64
44
69
14
88
12
108
59
16
23
101
111
36
28
56
81
55
19
27
77
92
52
8
65
32
40
11
35
75
24
48
9
62
87
71
70

> <PUBCHEM_MMFF94_PARTIAL_CHARGES>
47
1 -0.57
10 0.03
11 -0.8
12 0.3
13 0.36
15 0.3
16 0.3
2 -0.57
21 0.57
23 0.71
24 0.69
25 0.36
26 -0.24
27 0.18
28 -0.15
29 -0.18
3 -0.57
30 0.57
31 -0.3
32 -0.15
34 0.26
35 -0.3
36 -0.15
37 -0.15
38 -0.15
39 -0.15
4 -0.57
40 -0.15
5 -0.66
52 0.37
59 0.37
6 -0.73
60 0.37
64 0.15
65 0.15
66 0.15
7 -0.73
70 0.15
71 0.27
72 0.37
73 0.37
74 0.15
75 0.15
76 0.15
77 0.15
8 -0.73
9 0.05

> <PUBCHEM_EFFECTIVE_ROTOR_COUNT>
14.2

> <PUBCHEM_PHARMACOPHORE_FEATURES>
16
1 1 acceptor
1 10 cation
1 10 donor
1 11 donor
1 2 acceptor
1 3 acceptor
1 4 acceptor
1 6 donor
1 7 donor
1 8 donor
1 9 cation
5 10 29 33 35 36 rings
5 5 12 13 14 15 rings
5 9 26 28 31 32 rings
6 16 17 18 19 20 22 rings
6 33 36 37 38 39 40 rings

> <PUBCHEM_HEAVY_ATOM_COUNT>
40

> <PUBCHEM_ATOM_DEF_STEREO_COUNT>
3

> <PUBCHEM_ATOM_UDEF_STEREO_COUNT>
0

> <PUBCHEM_BOND_DEF_STEREO_COUNT>
0

> <PUBCHEM_BOND_UDEF_STEREO_COUNT>
0

> <PUBCHEM_ISOTOPIC_ATOM_COUNT>
0

> <PUBCHEM_COMPONENT_COUNT>
1

> <PUBCHEM_CACTVS_TAUTO_COUNT>
12

> <PUBCHEM_CONFORMER_ID>
00B54E2D00000001

> <PUBCHEM_MMFF94_ENERGY>
70.6859

> <PUBCHEM_FEATURE_SELFOVERLAP>
81.342

> <PUBCHEM_SHAPE_FINGERPRINT>
10032420 55 18196063609312415269
10119406 146 18197505026434051278
10675989 125 17617659861154585013
10974685 15 17905903478521425628
11991303 11 18113622257310140550
12422481 6 17916884528902798090
13165054 411 18045780083405018827
13383668 90 16371572453863614342
13402501 40 18412549821212240599
13947930 73 18335427906143457673
14040221 137 16769544239992096128
14040221 299 18337393746823877455
14725015 67 18337105796086445807
15351339 4 18195518195873564593
17627616 140 18116986698767533083
18603816 31 16298384635551071330
19611394 137 18342173389254457928
20764821 26 18199190762104862989
22223350 30 18267019647006787105
392239 28 18059574646249501821
42626532 9 17534915383129111627
57527295 17 17838024063657149749
86090 222 18336839632752138731

> <PUBCHEM_SHAPE_MULTIPOLES>
764.84
14.1
6.57
2.55
18.12
4.76
-0.7
1.77
-1.09
-8.31
-3.77
-0.52
-0.07
3.1

> <PUBCHEM_SHAPE_SELFOVERLAP>
1642.453

> <PUBCHEM_SHAPE_VOLUME>
421.5

> <PUBCHEM_COORDINATE_TYPE>
2
5
10

$$$$
