75368577
  -OEChem-12032416393D

 41 44  0     1  0  0  0  0  0999 V2000
   -2.3969   -2.4313   -0.1421 O   0  0  0  0  0  0  0  0  0  0  0  0
   -0.3116   -1.3973   -0.2704 N   0  0  0  0  0  0  0  0  0  0  0  0
    2.4271   -0.9427    0.1871 N   0  0  2  0  0  0  0  0  0  0  0  0
   -2.1286   -0.0528   -0.1373 N   0  0  0  0  0  0  0  0  0  0  0  0
    5.2904    0.0832   -0.7275 N   0  0  0  0  0  0  0  0  0  0  0  0
    4.6566    1.5767    0.7887 N   0  0  0  0  0  0  0  0  0  0  0  0
    0.2155   -0.0664   -0.4404 C   0  0  2  0  0  0  0  0  0  0  0  0
    1.4517    0.1381    0.4344 C   0  0  0  0  0  0  0  0  0  0  0  0
   -0.9684    0.8307   -0.0995 C   0  0  0  0  0  0  0  0  0  0  0  0
    0.5902   -2.5293   -0.3434 C   0  0  0  0  0  0  0  0  0  0  0  0
    1.8397   -2.2611    0.4987 C   0  0  0  0  0  0  0  0  0  0  0  0
   -1.7131   -1.4169   -0.1844 C   0  0  0  0  0  0  0  0  0  0  0  0
    3.6396   -0.7251    0.9756 C   0  0  0  0  0  0  0  0  0  0  0  0
   -3.4643    0.4358   -0.0510 C   0  0  0  0  0  0  0  0  0  0  0  0
    4.5181    0.3380    0.3714 C   0  0  0  0  0  0  0  0  0  0  0  0
   -4.5326   -0.4598   -0.0033 C   0  0  0  0  0  0  0  0  0  0  0  0
   -3.7035    1.8093   -0.0143 C   0  0  0  0  0  0  0  0  0  0  0  0
   -5.8404    0.0183    0.0810 C   0  0  0  0  0  0  0  0  0  0  0  0
   -5.0111    2.2875    0.0700 C   0  0  0  0  0  0  0  0  0  0  0  0
    5.9643    1.2328   -1.0302 C   0  0  0  0  0  0  0  0  0  0  0  0
   -6.0795    1.3920    0.1176 C   0  0  0  0  0  0  0  0  0  0  0  0
    5.5568    2.1401   -0.0808 C   0  0  0  0  0  0  0  0  0  0  0  0
    0.4758    0.0414   -1.5018 H   0  0  0  0  0  0  0  0  0  0  0  0
    1.8803    1.1179    0.1944 H   0  0  0  0  0  0  0  0  0  0  0  0
    1.1675    0.1545    1.4956 H   0  0  0  0  0  0  0  0  0  0  0  0
   -0.8916    1.2584    0.9064 H   0  0  0  0  0  0  0  0  0  0  0  0
   -1.0574    1.6320   -0.8399 H   0  0  0  0  0  0  0  0  0  0  0  0
    0.8575   -2.6640   -1.3978 H   0  0  0  0  0  0  0  0  0  0  0  0
    0.0729   -3.4336   -0.0078 H   0  0  0  0  0  0  0  0  0  0  0  0
    1.5795   -2.3151    1.5644 H   0  0  0  0  0  0  0  0  0  0  0  0
    2.5654   -3.0578    0.2960 H   0  0  0  0  0  0  0  0  0  0  0  0
    4.2398   -1.6448    1.0108 H   0  0  0  0  0  0  0  0  0  0  0  0
    3.4086   -0.4715    2.0182 H   0  0  0  0  0  0  0  0  0  0  0  0
   -4.4192   -1.5348   -0.0289 H   0  0  0  0  0  0  0  0  0  0  0  0
   -2.9031    2.5418   -0.0424 H   0  0  0  0  0  0  0  0  0  0  0  0
    5.3523   -0.7941   -1.2270 H   0  0  0  0  0  0  0  0  0  0  0  0
   -6.6731   -0.6781    0.1180 H   0  0  0  0  0  0  0  0  0  0  0  0
   -5.1980    3.3571    0.1001 H   0  0  0  0  0  0  0  0  0  0  0  0
    6.6476    1.2965   -1.8645 H   0  0  0  0  0  0  0  0  0  0  0  0
   -7.0976    1.7644    0.1836 H   0  0  0  0  0  0  0  0  0  0  0  0
    5.8657    3.1702    0.0209 H   0  0  0  0  0  0  0  0  0  0  0  0
  1 12  2  0  0  0  0
  2  7  1  0  0  0  0
  2 10  1  0  0  0  0
  2 12  1  0  0  0  0
  3  8  1  0  0  0  0
  3 11  1  0  0  0  0
  3 13  1  0  0  0  0
  4  9  1  0  0  0  0
  4 12  1  0  0  0  0
  4 14  1  0  0  0  0
  5 15  1  0  0  0  0
  5 20  1  0  0  0  0
  5 36  1  0  0  0  0
  6 15  2  0  0  0  0
  6 22  1  0  0  0  0
  7  8  1  0  0  0  0
  7  9  1  0  0  0  0
  7 23  1  0  0  0  0
  8 24  1  0  0  0  0
  8 25  1  0  0  0  0
  9 26  1  0  0  0  0
  9 27  1  0  0  0  0
 10 11  1  0  0  0  0
 10 28  1  0  0  0  0
 10 29  1  0  0  0  0
 11 30  1  0  0  0  0
 11 31  1  0  0  0  0
 13 15  1  0  0  0  0
 13 32  1  0  0  0  0
 13 33  1  0  0  0  0
 14 16  2  0  0  0  0
 14 17  1  0  0  0  0
 16 18  1  0  0  0  0
 16 34  1  0  0  0  0
 17 19  2  0  0  0  0
 17 35  1  0  0  0  0
 18 21  2  0  0  0  0
 18 37  1  0  0  0  0
 19 21  1  0  0  0  0
 19 38  1  0  0  0  0
 20 22  2  0  0  0  0
 20 39  1  0  0  0  0
 21 40  1  0  0  0  0
 22 41  1  0  0  0  0
M  END
> <PUBCHEM_COMPOUND_CID>
75368577

> <PUBCHEM_CONFORMER_RMSD>
0.6

> <PUBCHEM_CONFORMER_DIVERSEORDER>
1
6
20
10
27
13
30
7
19
11
35
8
18
21
36
15
34
23
28
24
26
3
14
25
29
2
17
16
33
32
5
12
31
9
4
22

> <PUBCHEM_MMFF94_PARTIAL_CHARGES>
30
1 -0.57
10 0.3
11 0.27
12 0.69
13 0.45
14 0.12
15 0.01
16 -0.15
17 -0.15
18 -0.15
19 -0.15
2 -0.66
20 -0.3
21 -0.15
22 0.08
3 -0.81
34 0.15
35 0.15
36 0.27
37 0.15
38 0.15
39 0.15
4 -0.48
40 0.15
41 0.15
5 0.03
6 -0.57
7 0.3
8 0.27
9 0.3

> <PUBCHEM_EFFECTIVE_ROTOR_COUNT>
4.2

> <PUBCHEM_PHARMACOPHORE_FEATURES>
8
1 1 acceptor
1 3 cation
1 5 donor
3 5 6 15 cation
5 2 4 7 9 12 rings
5 5 6 15 20 22 rings
6 14 16 17 18 19 21 rings
6 2 3 7 8 10 11 rings

> <PUBCHEM_HEAVY_ATOM_COUNT>
22

> <PUBCHEM_ATOM_DEF_STEREO_COUNT>
1

> <PUBCHEM_ATOM_UDEF_STEREO_COUNT>
0

> <PUBCHEM_BOND_DEF_STEREO_COUNT>
0

> <PUBCHEM_BOND_UDEF_STEREO_COUNT>
0

> <PUBCHEM_ISOTOPIC_ATOM_COUNT>
0

> <PUBCHEM_COMPONENT_COUNT>
1

> <PUBCHEM_CACTVS_TAUTO_COUNT>
1

> <PUBCHEM_CONFORMER_ID>
047E088100000001

> <PUBCHEM_MMFF94_ENERGY>
53.3709

> <PUBCHEM_FEATURE_SELFOVERLAP>
40.692

> <PUBCHEM_SHAPE_FINGERPRINT>
10 15 18187652375867564561
10378564 45 17917436398177491668
10493431 412 18407758148900290375
10670039 82 17845662452027491136
10906281 52 18261689098808063129
11796584 16 13110953228244630348
12236239 1 18113898268845350330
12390115 104 18342469148442880235
12596602 18 17530963566745907921
12760667 363 8430317935446247321
12788726 201 17632016329963629977
13782708 43 12103552092243690637
13785724 45 17761486994390531770
14020679 6 17458632266910512833
14251732 16 18261112993596433811
14257110 125 18409449189446855516
14341114 328 17531241781762975034
14347332 77 10447933858147288283
14528608 73 18413668015367628604
1454969 45 18412539942924765815
14790565 3 18409732901964773628
14840074 17 17676492773903744508
15183329 4 15698005123896797212
15196674 1 18339358557439763043
15961568 22 18334017155173686141
1601671 61 18409727361615074356
17980427 23 18186524336702856127
18222031 100 10665228108188796794
19611394 137 17969519271526107579
19784866 170 18335141981485773563
200 152 10881404223017944871
20281389 69 18334855008903756632
20374829 77 9151169857496718299
21033648 29 18200023079617094304
21304253 335 18333737892104515756
22079108 93 16950282927311276544
23272321 79 18410009936224517705
23559900 14 18056755429885426622
245318 6 17678193782827362844
25147074 1 18338216224661491970
2838139 119 18342729719882306916
293599 30 18412826901952038966
3004659 81 18412263896876426722
335352 9 18411699851611575038
3472631 163 18339084895198546388
34797466 226 17917719014708434117
34934 24 18409445882158877515
350125 39 18339360872569222603
4340502 62 16732702740111986178
474 4 17821732766922670996
5104073 3 18189337883879061371
53794403 172 18193557998486058788
5486654 2 18343301461992472705
56616090 163 18342744009270376662
59682541 35 18262247703061397867
59682541 52 16343427198181204332
59755656 215 18271252638293562020
633830 44 18412256255850234054
636775 72 18125154086251430864
6438161 24 9871459890519866069
7808743 9 18411132567213030810
960060 61 12679175046761530288

> <PUBCHEM_SHAPE_MULTIPOLES>
421.98
15.32
2.54
0.79
2.01
0.6
-0.01
-11.05
0.47
0.14
0.04
0.72
-0.04
-0.54

> <PUBCHEM_SHAPE_SELFOVERLAP>
914.026

> <PUBCHEM_SHAPE_VOLUME>
229

> <PUBCHEM_COORDINATE_TYPE>
2
5
10

$$$$
