11941479
  -OEChem-12032416363D

 52 55  0     1  0  0  0  0  0999 V2000
   -3.0150    3.9320    1.1704 S   0  0  0  0  0  0  0  0  0  0  0  0
    6.6607    2.3852   -0.5678 F   0  0  0  0  0  0  0  0  0  0  0  0
    4.9502    2.2444   -1.8937 F   0  0  0  0  0  0  0  0  0  0  0  0
    4.7142    3.0929    0.0945 F   0  0  0  0  0  0  0  0  0  0  0  0
   -4.2304   -2.8089    0.5859 O   0  0  0  0  0  0  0  0  0  0  0  0
   -0.4843   -1.0139   -2.6551 O   0  0  0  0  0  0  0  0  0  0  0  0
   -5.1776    1.3830    1.8664 O   0  0  0  0  0  0  0  0  0  0  0  0
   -2.4004   -0.9079   -1.3876 N   0  0  0  0  0  0  0  0  0  0  0  0
   -4.4184    1.2432   -0.3258 N   0  0  0  0  0  0  0  0  0  0  0  0
   -1.9666   -2.7859    0.8351 N   0  0  0  0  0  0  0  0  0  0  0  0
   -4.4506   -0.1964   -0.4476 C   0  0  2  0  0  0  0  0  0  0  0  0
   -3.0828   -0.8062   -0.1110 C   0  0  1  0  0  0  0  0  0  0  0  0
   -4.6843   -0.6239   -1.8980 C   0  0  0  0  0  0  0  0  0  0  0  0
   -3.2881   -0.6019   -2.5001 C   0  0  0  0  0  0  0  0  0  0  0  0
   -3.1577   -2.2236    0.4257 C   0  0  0  0  0  0  0  0  0  0  0  0
   -1.0463   -1.0967   -1.5631 C   0  0  0  0  0  0  0  0  0  0  0  0
   -0.2277   -1.4426   -0.3719 C   0  0  0  0  0  0  0  0  0  0  0  0
   -0.6554   -2.2913    0.6633 C   0  0  0  0  0  0  0  0  0  0  0  0
   -4.7870    1.9147    0.8285 C   0  0  0  0  0  0  0  0  0  0  0  0
    1.1104   -1.0091   -0.4023 C   0  0  0  0  0  0  0  0  0  0  0  0
    0.2870   -2.7382    1.6062 C   0  0  0  0  0  0  0  0  0  0  0  0
    2.0193   -1.4253    0.5692 C   0  0  0  0  0  0  0  0  0  0  0  0
    1.6106   -2.3007    1.5670 C   0  0  0  0  0  0  0  0  0  0  0  0
   -4.6823    3.4157    0.6956 C   0  0  0  0  0  0  0  0  0  0  0  0
    3.3904   -0.9657    0.5249 C   0  0  0  0  0  0  0  0  0  0  0  0
    3.6876    0.2943    0.0052 C   0  0  0  0  0  0  0  0  0  0  0  0
    4.4157   -1.7826    1.0018 C   0  0  0  0  0  0  0  0  0  0  0  0
    5.0095    0.7373   -0.0375 C   0  0  0  0  0  0  0  0  0  0  0  0
    5.7376   -1.3397    0.9592 C   0  0  0  0  0  0  0  0  0  0  0  0
    6.0345   -0.0797    0.4396 C   0  0  0  0  0  0  0  0  0  0  0  0
   -3.2012    5.7124    0.9139 C   0  0  0  0  0  0  0  0  0  0  0  0
    5.3284    2.0851   -0.5910 C   0  0  0  0  0  0  0  0  0  0  0  0
   -5.2506   -0.5670    0.2021 H   0  0  0  0  0  0  0  0  0  0  0  0
   -2.5114   -0.1847    0.5886 H   0  0  0  0  0  0  0  0  0  0  0  0
   -5.3824    0.0178   -2.4440 H   0  0  0  0  0  0  0  0  0  0  0  0
   -5.0740   -1.6489   -1.9214 H   0  0  0  0  0  0  0  0  0  0  0  0
   -3.1560   -1.3289   -3.3071 H   0  0  0  0  0  0  0  0  0  0  0  0
   -3.0248    0.3922   -2.8782 H   0  0  0  0  0  0  0  0  0  0  0  0
   -4.0543    1.7799   -1.1081 H   0  0  0  0  0  0  0  0  0  0  0  0
   -2.0534   -3.6244    1.4047 H   0  0  0  0  0  0  0  0  0  0  0  0
    1.4325   -0.3765   -1.2270 H   0  0  0  0  0  0  0  0  0  0  0  0
   -0.0127   -3.4114    2.4075 H   0  0  0  0  0  0  0  0  0  0  0  0
    2.2742   -2.6444    2.3555 H   0  0  0  0  0  0  0  0  0  0  0  0
   -5.4238    3.8768    1.3556 H   0  0  0  0  0  0  0  0  0  0  0  0
   -4.8954    3.7214   -0.3336 H   0  0  0  0  0  0  0  0  0  0  0  0
    2.9117    0.9699   -0.3467 H   0  0  0  0  0  0  0  0  0  0  0  0
    4.2364   -2.7828    1.3867 H   0  0  0  0  0  0  0  0  0  0  0  0
    6.5369   -1.9783    1.3240 H   0  0  0  0  0  0  0  0  0  0  0  0
    7.0704    0.2469    0.4137 H   0  0  0  0  0  0  0  0  0  0  0  0
   -2.2608    6.2122    1.1606 H   0  0  0  0  0  0  0  0  0  0  0  0
   -3.9866    6.1103    1.5617 H   0  0  0  0  0  0  0  0  0  0  0  0
   -3.4431    5.9233   -0.1310 H   0  0  0  0  0  0  0  0  0  0  0  0
  1 24  1  0  0  0  0
  1 31  1  0  0  0  0
  2 32  1  0  0  0  0
  3 32  1  0  0  0  0
  4 32  1  0  0  0  0
  5 15  2  0  0  0  0
  6 16  2  0  0  0  0
  7 19  2  0  0  0  0
  8 12  1  0  0  0  0
  8 14  1  0  0  0  0
  8 16  1  0  0  0  0
  9 11  1  0  0  0  0
  9 19  1  0  0  0  0
  9 39  1  0  0  0  0
 10 15  1  0  0  0  0
 10 18  1  0  0  0  0
 10 40  1  0  0  0  0
 11 12  1  0  0  0  0
 11 13  1  0  0  0  0
 11 33  1  0  0  0  0
 12 15  1  0  0  0  0
 12 34  1  0  0  0  0
 13 14  1  0  0  0  0
 13 35  1  0  0  0  0
 13 36  1  0  0  0  0
 14 37  1  0  0  0  0
 14 38  1  0  0  0  0
 16 17  1  0  0  0  0
 17 18  2  0  0  0  0
 17 20  1  0  0  0  0
 18 21  1  0  0  0  0
 19 24  1  0  0  0  0
 20 22  2  0  0  0  0
 20 41  1  0  0  0  0
 21 23  2  0  0  0  0
 21 42  1  0  0  0  0
 22 23  1  0  0  0  0
 22 25  1  0  0  0  0
 23 43  1  0  0  0  0
 24 44  1  0  0  0  0
 24 45  1  0  0  0  0
 25 26  2  0  0  0  0
 25 27  1  0  0  0  0
 26 28  1  0  0  0  0
 26 46  1  0  0  0  0
 27 29  2  0  0  0  0
 27 47  1  0  0  0  0
 28 30  2  0  0  0  0
 28 32  1  0  0  0  0
 29 30  1  0  0  0  0
 29 48  1  0  0  0  0
 30 49  1  0  0  0  0
 31 50  1  0  0  0  0
 31 51  1  0  0  0  0
 31 52  1  0  0  0  0
M  END
> <PUBCHEM_COMPOUND_CID>
11941479

> <PUBCHEM_CONFORMER_RMSD>
0.8

> <PUBCHEM_CONFORMER_DIVERSEORDER>
5
16
2
27
24
19
12
20
29
7
15
4
18
26
32
10
13
8
3
30
14
31
1
25
6
23
22
17
9
11
21
28

> <PUBCHEM_MMFF94_PARTIAL_CHARGES>
38
1 -0.46
10 -0.55
11 0.3
12 0.36
14 0.3
15 0.57
16 0.54
17 0.09
18 0.12
19 0.57
2 -0.34
20 -0.15
21 -0.15
23 -0.15
24 0.29
26 -0.15
27 -0.15
28 -0.14
29 -0.15
3 -0.34
30 -0.15
31 0.23
32 1.16
39 0.37
4 -0.34
40 0.37
41 0.15
42 0.15
43 0.15
46 0.15
47 0.15
48 0.15
49 0.15
5 -0.57
6 -0.57
7 -0.57
8 -0.66
9 -0.73

> <PUBCHEM_EFFECTIVE_ROTOR_COUNT>
6.8

> <PUBCHEM_PHARMACOPHORE_FEATURES>
10
1 10 donor
1 31 hydrophobe
1 5 acceptor
1 6 acceptor
1 7 acceptor
1 9 donor
5 8 11 12 13 14 rings
6 17 18 20 21 22 23 rings
6 25 26 27 28 29 30 rings
7 8 10 12 15 16 17 18 rings

> <PUBCHEM_HEAVY_ATOM_COUNT>
32

> <PUBCHEM_ATOM_DEF_STEREO_COUNT>
2

> <PUBCHEM_ATOM_UDEF_STEREO_COUNT>
0

> <PUBCHEM_BOND_DEF_STEREO_COUNT>
0

> <PUBCHEM_BOND_UDEF_STEREO_COUNT>
0

> <PUBCHEM_ISOTOPIC_ATOM_COUNT>
0

> <PUBCHEM_COMPONENT_COUNT>
1

> <PUBCHEM_CACTVS_TAUTO_COUNT>
6

> <PUBCHEM_CONFORMER_ID>
00B6366700000005

> <PUBCHEM_MMFF94_ENERGY>
100.5281

> <PUBCHEM_FEATURE_SELFOVERLAP>
50.804

> <PUBCHEM_SHAPE_FINGERPRINT>
100830 2 18198351645285596704
105312 117 16702013150293766263
1200032 147 17130442185832313683
12107183 9 18118959192541874210
12390115 104 18114468954336045926
12422481 6 16588025701452334166
12788726 201 18343303691007036184
12975358 362 17482008739475900113
14784336 7 17908414002891004133
14790565 3 18410294670680479728
15163728 17 17775011133255668703
15183329 4 15123519120431611214
15289351 153 18339915044343565416
15513586 35 18129104609516707929
15968369 153 17987503969909963049
16067690 210 18413390942537763297
16112460 7 18187366519565314608
21223535 225 18341611470008589852
21458453 9 15575867021418563704
21756936 100 18341887455526849627
22122407 14 18410578387735815560
23559900 14 18260818286227352954
23569914 152 11956952956770677289
23569943 247 16662309725449543754
249057 25 18269537412506701350
2838139 119 18272365386825875722
3493558 16 18340213998712998520
3552219 110 18409725206353823767
392239 28 17821719529627853414
44280116 191 16832371012739978416
44802255 64 17275094042592560462
46194498 28 15553015922592257434
50677037 204 18410288151095256440
5104073 3 17749101223494093466
6036956 94 18336834100260489341
6376802 137 17826527836090529875
6608658 132 18201147841225923029
7808743 9 17986665979420569273

> <PUBCHEM_SHAPE_MULTIPOLES>
608.02
15.12
5.17
1.86
13.85
7.83
-0.94
11.41
0.4
-4.83
2.12
-1.27
-0.47
-4.06

> <PUBCHEM_SHAPE_SELFOVERLAP>
1314.05

> <PUBCHEM_SHAPE_VOLUME>
337.3

> <PUBCHEM_COORDINATE_TYPE>
2
5
10

$$$$
