7675143
  -OEChem-12032416133D

 37 39  0     1  0  0  0  0  0999 V2000
    3.1024    1.0175   -0.5485 S   0  0  0  0  0  0  0  0  0  0  0  0
    3.0049   -1.8609   -1.0513 S   0  0  0  0  0  0  0  0  0  0  0  0
   -2.2624    0.3083   -2.4126 O   0  0  0  0  0  0  0  0  0  0  0  0
   -2.8760    0.9189    2.1145 O   0  0  0  0  0  0  0  0  0  0  0  0
    3.9923    1.8546    0.2279 O   0  0  0  0  0  0  0  0  0  0  0  0
    3.2335    0.8803   -1.9831 O   0  0  0  0  0  0  0  0  0  0  0  0
   -2.9045   -2.3225   -0.3278 O   0  0  0  0  0  0  0  0  0  0  0  0
   -1.1873    1.5715    0.6301 N   0  0  0  0  0  0  0  0  0  0  0  0
    1.4866    1.4472   -0.1720 N   0  0  1  0  0  0  0  0  0  0  0  0
   -2.9284    0.4491   -0.1762 N   0  0  0  0  0  0  0  0  0  0  0  0
   -5.0424   -2.3781    0.5163 N   0  0  0  0  0  0  0  0  0  0  0  0
   -0.8940    1.4675   -0.7805 C   0  0  1  0  0  0  0  0  0  0  0  0
    0.4352    0.7616   -0.9949 C   0  0  0  0  0  0  0  0  0  0  0  0
   -0.1895    2.1460    1.5119 C   0  0  0  0  0  0  0  0  0  0  0  0
    1.1490    1.4454    1.2914 C   0  0  0  0  0  0  0  0  0  0  0  0
   -2.0961    0.6689   -1.2550 C   0  0  0  0  0  0  0  0  0  0  0  0
   -2.3964    0.9771    0.9896 C   0  0  0  0  0  0  0  0  0  0  0  0
   -4.1855   -0.2691   -0.2484 C   0  0  0  0  0  0  0  0  0  0  0  0
    3.3740   -0.6386    0.0707 C   0  0  0  0  0  0  0  0  0  0  0  0
   -3.9439   -1.7438   -0.0231 C   0  0  0  0  0  0  0  0  0  0  0  0
    3.8179   -1.1041    1.2653 C   0  0  0  0  0  0  0  0  0  0  0  0
    3.8633   -2.5282    1.2763 C   0  0  0  0  0  0  0  0  0  0  0  0
    3.4475   -3.0684    0.0794 C   0  0  0  0  0  0  0  0  0  0  0  0
   -0.9129    2.4732   -1.2135 H   0  0  0  0  0  0  0  0  0  0  0  0
    0.3639   -0.2908   -0.6973 H   0  0  0  0  0  0  0  0  0  0  0  0
    0.6893    0.8012   -2.0588 H   0  0  0  0  0  0  0  0  0  0  0  0
   -0.5135    2.0535    2.5529 H   0  0  0  0  0  0  0  0  0  0  0  0
   -0.1119    3.2105    1.2644 H   0  0  0  0  0  0  0  0  0  0  0  0
    1.9225    1.9702    1.8606 H   0  0  0  0  0  0  0  0  0  0  0  0
    1.0900    0.4104    1.6476 H   0  0  0  0  0  0  0  0  0  0  0  0
   -4.8644    0.1270    0.5136 H   0  0  0  0  0  0  0  0  0  0  0  0
   -4.6278   -0.1404   -1.2414 H   0  0  0  0  0  0  0  0  0  0  0  0
    4.0988   -0.4758    2.1003 H   0  0  0  0  0  0  0  0  0  0  0  0
    4.1840   -3.1259    2.1196 H   0  0  0  0  0  0  0  0  0  0  0  0
    3.3823   -4.1144   -0.1852 H   0  0  0  0  0  0  0  0  0  0  0  0
   -5.0258   -3.3743    0.7080 H   0  0  0  0  0  0  0  0  0  0  0  0
   -5.9012   -1.8862    0.7416 H   0  0  0  0  0  0  0  0  0  0  0  0
  1  5  2  0  0  0  0
  1  6  2  0  0  0  0
  1  9  1  0  0  0  0
  1 19  1  0  0  0  0
  2 19  1  0  0  0  0
  2 23  1  0  0  0  0
  3 16  2  0  0  0  0
  4 17  2  0  0  0  0
  7 20  2  0  0  0  0
  8 12  1  0  0  0  0
  8 14  1  0  0  0  0
  8 17  1  0  0  0  0
  9 13  1  0  0  0  0
  9 15  1  0  0  0  0
 10 16  1  0  0  0  0
 10 17  1  0  0  0  0
 10 18  1  0  0  0  0
 11 20  1  0  0  0  0
 11 36  1  0  0  0  0
 11 37  1  0  0  0  0
 12 13  1  0  0  0  0
 12 16  1  0  0  0  0
 12 24  1  0  0  0  0
 13 25  1  0  0  0  0
 13 26  1  0  0  0  0
 14 15  1  0  0  0  0
 14 27  1  0  0  0  0
 14 28  1  0  0  0  0
 15 29  1  0  0  0  0
 15 30  1  0  0  0  0
 18 20  1  0  0  0  0
 18 31  1  0  0  0  0
 18 32  1  0  0  0  0
 19 21  2  0  0  0  0
 21 22  1  0  0  0  0
 21 33  1  0  0  0  0
 22 23  2  0  0  0  0
 22 34  1  0  0  0  0
 23 35  1  0  0  0  0
M  END
> <PUBCHEM_COMPOUND_CID>
7675143

> <PUBCHEM_CONFORMER_RMSD>
0.8

> <PUBCHEM_CONFORMER_DIVERSEORDER>
1
9
33
64
21
15
46
60
28
30
53
63
29
44
52
57
48
26
56
36
55
43
54
40
32
38
20
65
59
18
8
49
16
62
19
58
24
6
47
51
61
12
45
7
27
31
13
4
42
35
25
14
50
10
22
34
39
17
37
11
23
5
2
41
3

> <PUBCHEM_MMFF94_PARTIAL_CHARGES>
28
1 1.5
10 -0.42
11 -0.8
12 0.36
13 0.36
14 0.3
15 0.36
16 0.57
17 0.69
18 0.36
19 -0.02
2 -0.08
20 0.57
21 -0.15
22 -0.15
23 -0.11
3 -0.57
33 0.15
34 0.15
35 0.15
36 0.37
37 0.37
4 -0.57
5 -0.65
6 -0.65
7 -0.57
8 -0.66
9 -0.85

> <PUBCHEM_EFFECTIVE_ROTOR_COUNT>
5

> <PUBCHEM_PHARMACOPHORE_FEATURES>
9
1 11 donor
1 3 acceptor
1 4 acceptor
1 5 acceptor
1 6 acceptor
1 7 acceptor
5 2 19 21 22 23 rings
5 8 10 12 16 17 rings
6 8 9 12 13 14 15 rings

> <PUBCHEM_HEAVY_ATOM_COUNT>
23

> <PUBCHEM_ATOM_DEF_STEREO_COUNT>
1

> <PUBCHEM_ATOM_UDEF_STEREO_COUNT>
0

> <PUBCHEM_BOND_DEF_STEREO_COUNT>
0

> <PUBCHEM_BOND_UDEF_STEREO_COUNT>
0

> <PUBCHEM_ISOTOPIC_ATOM_COUNT>
0

> <PUBCHEM_COMPONENT_COUNT>
1

> <PUBCHEM_CACTVS_TAUTO_COUNT>
2

> <PUBCHEM_CONFORMER_ID>
00751D0700000001

> <PUBCHEM_MMFF94_ENERGY>
34.3211

> <PUBCHEM_FEATURE_SELFOVERLAP>
45.806

> <PUBCHEM_SHAPE_FINGERPRINT>
10498660 4 11891344135726138318
11578080 2 18126258893241566808
11796584 16 18410294692408601711
12160290 23 17201367247695753728
12363563 72 17606402047633535418
12506688 2 18413385432341934156
12553582 1 17703783743199886852
12596599 1 18269281166199555466
12633257 1 18199479770090187763
12824470 246 18411986875068535209
13224815 77 18412545396921243254
13533116 47 18343298172063348267
13583140 156 18059280032988957705
14251751 18 18114731660194766986
14848178 5 18336817615658217651
15163728 17 10809614849708887771
15295992 7 14044353821676964281
15375462 189 18060412551645793884
15475509 35 18125442158139087483
15475509 8 17168139002336167381
18186145 218 13840273571735743852
20281475 54 18410578366034177264
20645477 70 18187077322200144820
20775530 9 18408317795892583387
21033648 29 15051461466105534947
21054139 6 18264496255463140532
21475661 188 11023290696819398915
21503847 285 10663829580821841456
22907989 373 14635165485998893743
23559900 14 18410565189370146064
238 59 17095535006321019954
25222932 49 18057039331354720535
33382 64 18262806293095771931
3797600 57 18202289143016883388
392239 28 17558235943629766746
463206 1 18193275419322600883
5262128 65 17023195877150855796
59444896 2 11368461610598859677
633830 44 15791737364693684293
6433294 58 18337107968453862746
90316 7 17559675036267091280

> <PUBCHEM_SHAPE_MULTIPOLES>
431.76
9.33
3.06
1.73
2.06
1.84
-0.18
6.7
0.87
-0.98
0.66
0.05
-0.48
-0.72

> <PUBCHEM_SHAPE_SELFOVERLAP>
895.188

> <PUBCHEM_SHAPE_VOLUME>
247.4

> <PUBCHEM_COORDINATE_TYPE>
2
5
10

$$$$
