51137737
  -OEChem-12032416233D

 40 43  0     1  0  0  0  0  0999 V2000
   -1.2276    0.8884   -0.2478 O   0  0  0  0  0  0  0  0  0  0  0  0
    2.5724   -0.1077    2.4681 O   0  0  0  0  0  0  0  0  0  0  0  0
    1.7842    1.2832    0.7835 N   0  0  0  0  0  0  0  0  0  0  0  0
   -2.0808    2.7603   -1.1270 N   0  0  0  0  0  0  0  0  0  0  0  0
   -3.1083    1.8455   -0.9906 N   0  0  0  0  0  0  0  0  0  0  0  0
    3.9868   -0.2131   -0.5150 N   0  0  0  0  0  0  0  0  0  0  0  0
    0.4231    2.6742   -0.5862 C   0  0  1  0  0  0  0  0  0  0  0  0
    0.6857    3.3711    0.7579 C   0  0  0  0  0  0  0  0  0  0  0  0
    1.5378    1.6190   -0.6198 C   0  0  0  0  0  0  0  0  0  0  0  0
    1.1464    2.2431    1.6710 C   0  0  0  0  0  0  0  0  0  0  0  0
   -1.0026    2.1589   -0.6811 C   0  0  0  0  0  0  0  0  0  0  0  0
    2.4521    0.1734    1.2774 C   0  0  0  0  0  0  0  0  0  0  0  0
    3.0516   -0.7492    0.3008 C   0  0  0  0  0  0  0  0  0  0  0  0
   -2.5645    0.7683   -0.4741 C   0  0  0  0  0  0  0  0  0  0  0  0
   -3.1504   -0.4912   -0.1178 C   0  0  0  0  0  0  0  0  0  0  0  0
    2.6517   -2.0751    0.2566 C   0  0  0  0  0  0  0  0  0  0  0  0
   -4.5147   -0.7060   -0.3133 C   0  0  0  0  0  0  0  0  0  0  0  0
   -2.3561   -1.5015    0.4242 C   0  0  0  0  0  0  0  0  0  0  0  0
    3.2506   -2.9042   -0.6856 C   0  0  0  0  0  0  0  0  0  0  0  0
    4.5466   -1.0493   -1.4179 C   0  0  0  0  0  0  0  0  0  0  0  0
    4.2170   -2.3893   -1.5424 C   0  0  0  0  0  0  0  0  0  0  0  0
   -5.0848   -1.9310    0.0332 C   0  0  0  0  0  0  0  0  0  0  0  0
   -2.9260   -2.7265    0.7708 C   0  0  0  0  0  0  0  0  0  0  0  0
   -4.2904   -2.9412    0.5752 C   0  0  0  0  0  0  0  0  0  0  0  0
    0.5546    3.3793   -1.4159 H   0  0  0  0  0  0  0  0  0  0  0  0
    1.5031    4.0932    0.6359 H   0  0  0  0  0  0  0  0  0  0  0  0
   -0.1790    3.9054    1.1634 H   0  0  0  0  0  0  0  0  0  0  0  0
    1.2847    0.7276   -1.2015 H   0  0  0  0  0  0  0  0  0  0  0  0
    2.4642    2.0525   -1.0136 H   0  0  0  0  0  0  0  0  0  0  0  0
    0.3010    1.7434    2.1568 H   0  0  0  0  0  0  0  0  0  0  0  0
    1.8464    2.5760    2.4433 H   0  0  0  0  0  0  0  0  0  0  0  0
    1.8945   -2.4658    0.9280 H   0  0  0  0  0  0  0  0  0  0  0  0
   -5.1530    0.0671   -0.7343 H   0  0  0  0  0  0  0  0  0  0  0  0
   -1.2896   -1.3720    0.5914 H   0  0  0  0  0  0  0  0  0  0  0  0
    2.9640   -3.9493   -0.7525 H   0  0  0  0  0  0  0  0  0  0  0  0
    5.2939   -0.5988   -2.0627 H   0  0  0  0  0  0  0  0  0  0  0  0
    4.6967   -3.0169   -2.2846 H   0  0  0  0  0  0  0  0  0  0  0  0
   -6.1471   -2.0984   -0.1190 H   0  0  0  0  0  0  0  0  0  0  0  0
   -2.3078   -3.5136    1.1927 H   0  0  0  0  0  0  0  0  0  0  0  0
   -4.7340   -3.8951    0.8451 H   0  0  0  0  0  0  0  0  0  0  0  0
  1 11  1  0  0  0  0
  1 14  1  0  0  0  0
  2 12  2  0  0  0  0
  3  9  1  0  0  0  0
  3 10  1  0  0  0  0
  3 12  1  0  0  0  0
  4  5  1  0  0  0  0
  4 11  2  0  0  0  0
  5 14  2  0  0  0  0
  6 13  1  0  0  0  0
  6 20  2  0  0  0  0
  7  8  1  0  0  0  0
  7  9  1  0  0  0  0
  7 11  1  0  0  0  0
  7 25  1  0  0  0  0
  8 10  1  0  0  0  0
  8 26  1  0  0  0  0
  8 27  1  0  0  0  0
  9 28  1  0  0  0  0
  9 29  1  0  0  0  0
 10 30  1  0  0  0  0
 10 31  1  0  0  0  0
 12 13  1  0  0  0  0
 13 16  2  0  0  0  0
 14 15  1  0  0  0  0
 15 17  2  0  0  0  0
 15 18  1  0  0  0  0
 16 19  1  0  0  0  0
 16 32  1  0  0  0  0
 17 22  1  0  0  0  0
 17 33  1  0  0  0  0
 18 23  2  0  0  0  0
 18 34  1  0  0  0  0
 19 21  2  0  0  0  0
 19 35  1  0  0  0  0
 20 21  1  0  0  0  0
 20 36  1  0  0  0  0
 21 37  1  0  0  0  0
 22 24  2  0  0  0  0
 22 38  1  0  0  0  0
 23 24  1  0  0  0  0
 23 39  1  0  0  0  0
 24 40  1  0  0  0  0
M  END
> <PUBCHEM_COMPOUND_CID>
51137737

> <PUBCHEM_CONFORMER_RMSD>
0.8

> <PUBCHEM_CONFORMER_DIVERSEORDER>
1
47
13
71
33
26
64
61
54
65
27
67
11
73
66
80
42
46
30
68
50
39
43
5
17
32
25
70
38
29
40
52
53
4
19
37
57
63
48
45
6
62
69
21
51
35
34
7
2
16
55
60
49
58
20
28
44
12
78
14
72
15
3
75
56
31
10
74
76
41
8
79
24
59
77
81
9
18
23
22
36

> <PUBCHEM_MMFF94_PARTIAL_CHARGES>
32
1 -0.28
10 0.3
11 0.3
12 0.54
13 0.4
14 0.43
15 0.05
16 -0.15
17 -0.15
18 -0.15
19 -0.15
2 -0.57
20 0.16
21 -0.15
22 -0.15
23 -0.15
24 -0.15
3 -0.66
32 0.15
33 0.15
34 0.15
35 0.15
36 0.15
37 0.15
38 0.15
39 0.15
4 -0.34
40 0.15
5 -0.34
6 -0.62
7 0.18
9 0.3

> <PUBCHEM_EFFECTIVE_ROTOR_COUNT>
5

> <PUBCHEM_PHARMACOPHORE_FEATURES>
6
1 2 acceptor
1 6 acceptor
5 1 4 5 11 14 rings
5 3 7 8 9 10 rings
6 15 17 18 22 23 24 rings
6 6 13 16 19 20 21 rings

> <PUBCHEM_HEAVY_ATOM_COUNT>
24

> <PUBCHEM_ATOM_DEF_STEREO_COUNT>
1

> <PUBCHEM_ATOM_UDEF_STEREO_COUNT>
0

> <PUBCHEM_BOND_DEF_STEREO_COUNT>
0

> <PUBCHEM_BOND_UDEF_STEREO_COUNT>
0

> <PUBCHEM_ISOTOPIC_ATOM_COUNT>
0

> <PUBCHEM_COMPONENT_COUNT>
1

> <PUBCHEM_CACTVS_TAUTO_COUNT>
1

> <PUBCHEM_CONFORMER_ID>
030C4CC900000001

> <PUBCHEM_MMFF94_ENERGY>
57.4031

> <PUBCHEM_FEATURE_SELFOVERLAP>
30.449

> <PUBCHEM_SHAPE_FINGERPRINT>
10928967 22 18260268529843512803
114674 6 18264484168687198003
12506688 2 18413389838952246472
12553582 1 18260827107530106555
12712778 12 17616509789129791602
13135754 10 16699797552796251048
13402501 40 18337390547168408298
13533116 47 18128539456724617411
13631057 29 18339934714734085726
13911882 115 18343580772379460906
14251740 57 18124882506493890571
14251757 5 18263935336359369439
14251764 30 17274279257390201750
14363568 33 18196107752669291118
14681488 357 18340773761679782743
14863182 85 17901951073189690364
14866123 147 18196379109288608601
15352361 1 18410015441914038799
15664445 248 17097494451827012965
17909252 39 18341066180865510308
17974551 9 17274259431483507881
1979834 28 17907015432737691971
20645477 70 18045777055737462527
20775530 9 18412546496243363187
21279426 13 18261942025996780071
23379529 103 18198072382738964518
23428019 142 16902740856307736902
23466295 7 17982186517103622910
23559900 14 18335980977962365637
238078 22 18267877094557121020
3117164 225 18341066172502468529
314173 41 18115304608958270433
329604 57 18409175407126162270
3737641 26 18342188790289476664
4280585 95 18188486870664113036
5309563 4 18342179976990744615
6287921 2 17982733274756148835
6823239 73 18411696595456360186
7987 15 18201165364265073118
9709674 26 18337943584716579343
9862886 166 18124032335229832558

> <PUBCHEM_SHAPE_MULTIPOLES>
462.25
9.63
4.35
1.46
3.78
0.79
-0.49
-9.71
1.78
0.25
0.26
-1.32
0.24
2.49

> <PUBCHEM_SHAPE_SELFOVERLAP>
1016.037

> <PUBCHEM_SHAPE_VOLUME>
249.1

> <PUBCHEM_COORDINATE_TYPE>
2
5
10

$$$$
