40722264
  -OEChem-12032416153D

 60 64  0     1  0  0  0  0  0999 V2000
    1.6531    0.4536    2.3628 O   0  0  0  0  0  0  0  0  0  0  0  0
    4.6051   -1.4682   -1.1196 O   0  0  0  0  0  0  0  0  0  0  0  0
    1.4746    3.0803   -1.1116 N   0  0  2  0  0  0  0  0  0  0  0  0
   -1.8365    1.1550   -1.1464 N   0  0  0  0  0  0  0  0  0  0  0  0
    3.6297    0.0949    1.1863 N   0  0  0  0  0  0  0  0  0  0  0  0
   -2.7819    2.0728   -1.4053 N   0  0  0  0  0  0  0  0  0  0  0  0
   -3.9486    1.5504   -1.0433 N   0  0  0  0  0  0  0  0  0  0  0  0
   -4.2833   -1.7903    0.3741 N   0  0  0  0  0  0  0  0  0  0  0  0
    1.3136    3.0330    1.4853 C   0  0  2  0  0  0  0  0  0  0  0  0
    0.1050    2.6765   -0.6954 C   0  0  2  0  0  0  0  0  0  0  0  0
    2.5131    2.2049    0.9857 C   0  0  2  0  0  0  0  0  0  0  0  0
    0.0242    2.4921    0.8358 C   0  0  0  0  0  0  0  0  0  0  0  0
    1.5192    4.4685    0.9690 C   0  0  0  0  0  0  0  0  0  0  0  0
    2.4798    2.1432   -0.5518 C   0  0  0  0  0  0  0  0  0  0  0  0
    1.7405    4.4304   -0.5548 C   0  0  0  0  0  0  0  0  0  0  0  0
   -0.3910    1.4379   -1.4448 C   0  0  0  0  0  0  0  0  0  0  0  0
    2.5287    0.8315    1.5889 C   0  0  0  0  0  0  0  0  0  0  0  0
   -2.3697    0.0221   -0.6129 C   0  0  0  0  0  0  0  0  0  0  0  0
    3.8901   -1.2511    1.6430 C   0  0  0  0  0  0  0  0  0  0  0  0
   -3.7134    0.2947   -0.5560 C   0  0  0  0  0  0  0  0  0  0  0  0
    3.3024   -2.2806    0.7216 C   0  0  0  0  0  0  0  0  0  0  0  0
   -4.7214   -0.5893   -0.0651 C   0  0  0  0  0  0  0  0  0  0  0  0
    3.6875   -2.3415   -0.6176 C   0  0  0  0  0  0  0  0  0  0  0  0
    2.3611   -3.1821    1.2183 C   0  0  0  0  0  0  0  0  0  0  0  0
   -6.0508   -0.1989   -0.0594 C   0  0  0  0  0  0  0  0  0  0  0  0
    3.1312   -3.3039   -1.4601 C   0  0  0  0  0  0  0  0  0  0  0  0
    1.8046   -4.1445    0.3757 C   0  0  0  0  0  0  0  0  0  0  0  0
    2.1896   -4.2055   -0.9636 C   0  0  0  0  0  0  0  0  0  0  0  0
   -6.9911   -1.0992    0.4289 C   0  0  0  0  0  0  0  0  0  0  0  0
   -5.2262   -2.6391    0.8416 C   0  0  0  0  0  0  0  0  0  0  0  0
   -6.5791   -2.3446    0.8900 C   0  0  0  0  0  0  0  0  0  0  0  0
    4.9399   -1.6028   -2.4994 C   0  0  0  0  0  0  0  0  0  0  0  0
    1.2306    3.0238    2.5775 H   0  0  0  0  0  0  0  0  0  0  0  0
   -0.5686    3.5010   -0.9698 H   0  0  0  0  0  0  0  0  0  0  0  0
    3.4382    2.7038    1.3083 H   0  0  0  0  0  0  0  0  0  0  0  0
   -0.1422    1.4460    1.1082 H   0  0  0  0  0  0  0  0  0  0  0  0
   -0.8371    3.0528    1.2212 H   0  0  0  0  0  0  0  0  0  0  0  0
    2.3839    4.9309    1.4592 H   0  0  0  0  0  0  0  0  0  0  0  0
    0.6422    5.0823    1.2076 H   0  0  0  0  0  0  0  0  0  0  0  0
    3.4686    2.4138   -0.9456 H   0  0  0  0  0  0  0  0  0  0  0  0
    2.2962    1.1308   -0.9294 H   0  0  0  0  0  0  0  0  0  0  0  0
    1.0952    5.1705   -1.0439 H   0  0  0  0  0  0  0  0  0  0  0  0
    2.7674    4.7341   -0.7949 H   0  0  0  0  0  0  0  0  0  0  0  0
    0.1528    0.5261   -1.1766 H   0  0  0  0  0  0  0  0  0  0  0  0
   -0.3491    1.5724   -2.5318 H   0  0  0  0  0  0  0  0  0  0  0  0
    4.2983    0.5085    0.5429 H   0  0  0  0  0  0  0  0  0  0  0  0
   -1.7672   -0.8321   -0.3360 H   0  0  0  0  0  0  0  0  0  0  0  0
    3.4988   -1.3590    2.6611 H   0  0  0  0  0  0  0  0  0  0  0  0
    4.9769   -1.3816    1.6966 H   0  0  0  0  0  0  0  0  0  0  0  0
    2.0495   -3.1473    2.2588 H   0  0  0  0  0  0  0  0  0  0  0  0
   -6.3763    0.7721   -0.4184 H   0  0  0  0  0  0  0  0  0  0  0  0
    3.3809   -3.4115   -2.5099 H   0  0  0  0  0  0  0  0  0  0  0  0
    1.0712   -4.8461    0.7621 H   0  0  0  0  0  0  0  0  0  0  0  0
    1.7554   -4.9551   -1.6188 H   0  0  0  0  0  0  0  0  0  0  0  0
   -8.0431   -0.8311    0.4504 H   0  0  0  0  0  0  0  0  0  0  0  0
   -4.8533   -3.5969    1.1890 H   0  0  0  0  0  0  0  0  0  0  0  0
   -7.2945   -3.0622    1.2750 H   0  0  0  0  0  0  0  0  0  0  0  0
    5.6815   -0.8299   -2.7270 H   0  0  0  0  0  0  0  0  0  0  0  0
    4.0757   -1.4123   -3.1449 H   0  0  0  0  0  0  0  0  0  0  0  0
    5.4135   -2.5681   -2.7083 H   0  0  0  0  0  0  0  0  0  0  0  0
  1 17  2  0  0  0  0
  2 23  1  0  0  0  0
  2 32  1  0  0  0  0
  3 10  1  0  0  0  0
  3 14  1  0  0  0  0
  3 15  1  0  0  0  0
  4  6  1  0  0  0  0
  4 16  1  0  0  0  0
  4 18  1  0  0  0  0
  5 17  1  0  0  0  0
  5 19  1  0  0  0  0
  5 46  1  0  0  0  0
  6  7  2  0  0  0  0
  7 20  1  0  0  0  0
  8 22  1  0  0  0  0
  8 30  2  0  0  0  0
  9 11  1  0  0  0  0
  9 12  1  0  0  0  0
  9 13  1  0  0  0  0
  9 33  1  0  0  0  0
 10 12  1  0  0  0  0
 10 16  1  0  0  0  0
 10 34  1  0  0  0  0
 11 14  1  0  0  0  0
 11 17  1  0  0  0  0
 11 35  1  0  0  0  0
 12 36  1  0  0  0  0
 12 37  1  0  0  0  0
 13 15  1  0  0  0  0
 13 38  1  0  0  0  0
 13 39  1  0  0  0  0
 14 40  1  0  0  0  0
 14 41  1  0  0  0  0
 15 42  1  0  0  0  0
 15 43  1  0  0  0  0
 16 44  1  0  0  0  0
 16 45  1  0  0  0  0
 18 20  2  0  0  0  0
 18 47  1  0  0  0  0
 19 21  1  0  0  0  0
 19 48  1  0  0  0  0
 19 49  1  0  0  0  0
 20 22  1  0  0  0  0
 21 23  1  0  0  0  0
 21 24  2  0  0  0  0
 22 25  2  0  0  0  0
 23 26  2  0  0  0  0
 24 27  1  0  0  0  0
 24 50  1  0  0  0  0
 25 29  1  0  0  0  0
 25 51  1  0  0  0  0
 26 28  1  0  0  0  0
 26 52  1  0  0  0  0
 27 28  2  0  0  0  0
 27 53  1  0  0  0  0
 28 54  1  0  0  0  0
 29 31  2  0  0  0  0
 29 55  1  0  0  0  0
 30 31  1  0  0  0  0
 30 56  1  0  0  0  0
 31 57  1  0  0  0  0
 32 58  1  0  0  0  0
 32 59  1  0  0  0  0
 32 60  1  0  0  0  0
M  END
> <PUBCHEM_COMPOUND_CID>
40722264

> <PUBCHEM_CONFORMER_RMSD>
1.2

> <PUBCHEM_CONFORMER_DIVERSEORDER>
1
70
28
122
136
108
116
134
109
85
98
45
100
114
36
72
123
10
81
111
107
63
84
130
97
83
94
16
23
95
106
52
33
110
124
119
56
96
76
91
117
125
132
86
112
25
93
65
29
92
24
118
53
126
77
75
133
58
105
71
11
38
78
101
59
74
99
104
120
113
27
90
89
127
48
2
80
64
20
9
51
31
47
3
46
41
66
67
129
87
103
61
73
35
69
50
128
37
60
135
13
19
137
15
6
7
34
44
55
18
57
49
121
54
5
22
82
79
14
26
115
4
88
131
43
17
68
40
8
42
62
39
32
30
102
21
12

> <PUBCHEM_MMFF94_PARTIAL_CHARGES>
39
1 -0.57
10 0.27
11 0.06
14 0.27
15 0.27
16 0.26
17 0.57
18 -0.3
19 0.44
2 -0.36
20 0.17
21 -0.14
22 0.36
23 0.08
24 -0.15
25 -0.15
26 -0.15
27 -0.15
28 -0.15
29 -0.15
3 -0.81
30 0.16
31 -0.15
32 0.28
4 0.31
46 0.37
47 0.15
5 -0.73
50 0.15
51 0.15
52 0.15
53 0.15
54 0.15
55 0.15
56 0.15
57 0.15
6 -0.42
7 -0.23
8 -0.62

> <PUBCHEM_EFFECTIVE_ROTOR_COUNT>
9.2

> <PUBCHEM_PHARMACOPHORE_FEATURES>
9
1 1 acceptor
1 2 acceptor
1 3 cation
1 5 donor
1 8 acceptor
5 4 6 7 18 20 rings
6 21 23 24 26 27 28 rings
6 8 22 25 29 30 31 rings
8 3 9 10 11 12 13 14 15 rings

> <PUBCHEM_HEAVY_ATOM_COUNT>
32

> <PUBCHEM_ATOM_DEF_STEREO_COUNT>
3

> <PUBCHEM_ATOM_UDEF_STEREO_COUNT>
0

> <PUBCHEM_BOND_DEF_STEREO_COUNT>
0

> <PUBCHEM_BOND_UDEF_STEREO_COUNT>
0

> <PUBCHEM_ISOTOPIC_ATOM_COUNT>
0

> <PUBCHEM_COMPONENT_COUNT>
1

> <PUBCHEM_CACTVS_TAUTO_COUNT>
2

> <PUBCHEM_CONFORMER_ID>
026D5F5800000001

> <PUBCHEM_MMFF94_ENERGY>
85.0334

> <PUBCHEM_FEATURE_SELFOVERLAP>
45.672

> <PUBCHEM_SHAPE_FINGERPRINT>
11421498 54 18267593395114801854
11513181 2 17835807765061664751
117089 54 18268998591648290359
12522641 24 18271536402920546611
12623949 98 18262802990297348693
13383661 66 17843707498968328406
13533116 47 18340770450971582417
1361 87 17837209277261865134
13785724 45 18270690744844027405
14681488 357 18408326596760302547
150020 26 18271230660808842545
151778 21 18196365038442802099
17909252 39 18410859836726334042
19301679 30 18188209914399420139
1979834 28 18341602771839816843
20028762 73 17328591026019724655
20775530 9 18269263591113856118
21133410 38 17842273950596452735
21315759 227 18189884332088147846
21344244 181 18198075853547039988
22889206 1 17699834413956897505
23466295 7 17549826581957473106
23559900 14 18260829311222837101
3117164 225 18340210679378843577
3737641 26 18128813045772087750
3886686 26 17911246014463982473
44317340 157 8934735413681184477
46194498 28 18260264191525337053
50080093 196 18049420828598945827
5309563 4 18340484469751420750
5776283 40 18048054131708414468
613672 6 18195786501789319391
6201320 77 14761554210647825830
6823239 73 18335132073017295067
86090 222 18114464552110664619
9831232 110 18334853914610340159
9980921 177 18129682798925945633

> <PUBCHEM_SHAPE_MULTIPOLES>
616.92
13.08
6.49
1.85
26.91
0.85
0.04
-12.05
-0.34
-6.73
0.09
-2.1
-0.07
2.71

> <PUBCHEM_SHAPE_SELFOVERLAP>
1340.216

> <PUBCHEM_SHAPE_VOLUME>
331

> <PUBCHEM_COORDINATE_TYPE>
2
5
10

$$$$
