7143829
  -OEChem-12032416223D

 55 58  0     1  0  0  0  0  0999 V2000
    7.0264    0.4024   -0.0319 S   0  0  0  0  0  0  0  0  0  0  0  0
    0.7673   -0.9977   -1.8149 O   0  0  0  0  0  0  0  0  0  0  0  0
   -3.8417    2.4751   -1.0390 O   0  0  0  0  0  0  0  0  0  0  0  0
   -3.7413    0.3639   -0.0738 N   0  0  0  0  0  0  0  0  0  0  0  0
   -1.0854   -1.3691   -0.4477 N   0  0  0  0  0  0  0  0  0  0  0  0
   -1.7427    3.3317    0.2603 N   0  0  0  0  0  0  0  0  0  0  0  0
   -3.4383   -1.7386   -1.3874 C   0  0  1  0  0  0  0  0  0  0  0  0
   -3.0775   -1.7569    1.0447 C   0  0  2  0  0  0  0  0  0  0  0  0
   -3.6667   -2.5514   -0.1188 C   0  0  0  0  0  0  0  0  0  0  0  0
   -4.1287   -0.3676   -1.2816 C   0  0  0  0  0  0  0  0  0  0  0  0
   -1.9296   -1.6072   -1.6266 C   0  0  0  0  0  0  0  0  0  0  0  0
   -3.8138   -0.4092    1.1751 C   0  0  0  0  0  0  0  0  0  0  0  0
   -1.5932   -1.5144    0.8454 C   0  0  0  0  0  0  0  0  0  0  0  0
   -0.7758   -1.4108    1.9053 C   0  0  0  0  0  0  0  0  0  0  0  0
    0.2759   -1.0983   -0.6892 C   0  0  0  0  0  0  0  0  0  0  0  0
   -3.4173    1.7178   -0.1625 C   0  0  0  0  0  0  0  0  0  0  0  0
    1.1598   -0.9508    0.5199 C   0  0  0  0  0  0  0  0  0  0  0  0
    0.6193   -1.1194    1.7359 C   0  0  0  0  0  0  0  0  0  0  0  0
   -2.4815    2.2587    0.8889 C   0  0  0  0  0  0  0  0  0  0  0  0
    2.5893   -0.6209    0.3846 C   0  0  0  0  0  0  0  0  0  0  0  0
    3.5343   -1.6418    0.2761 C   0  0  0  0  0  0  0  0  0  0  0  0
    2.9997    0.7126    0.3654 C   0  0  0  0  0  0  0  0  0  0  0  0
   -0.9823    2.8414   -0.8957 C   0  0  0  0  0  0  0  0  0  0  0  0
   -0.8345    3.9770    1.2163 C   0  0  0  0  0  0  0  0  0  0  0  0
    4.8878   -1.3296    0.1486 C   0  0  0  0  0  0  0  0  0  0  0  0
    4.3533    1.0248    0.2378 C   0  0  0  0  0  0  0  0  0  0  0  0
    5.2972    0.0037    0.1295 C   0  0  0  0  0  0  0  0  0  0  0  0
    7.0399    1.3745   -1.5648 C   0  0  0  0  0  0  0  0  0  0  0  0
   -3.8769   -2.2640   -2.2448 H   0  0  0  0  0  0  0  0  0  0  0  0
   -3.2389   -2.3300    1.9670 H   0  0  0  0  0  0  0  0  0  0  0  0
   -3.1900   -3.5364   -0.1993 H   0  0  0  0  0  0  0  0  0  0  0  0
   -4.7383   -2.7246    0.0378 H   0  0  0  0  0  0  0  0  0  0  0  0
   -3.9135    0.2362   -2.1706 H   0  0  0  0  0  0  0  0  0  0  0  0
   -5.2165   -0.4999   -1.2354 H   0  0  0  0  0  0  0  0  0  0  0  0
   -1.5617   -2.5434   -2.0687 H   0  0  0  0  0  0  0  0  0  0  0  0
   -1.7247   -0.8237   -2.3670 H   0  0  0  0  0  0  0  0  0  0  0  0
   -4.8789   -0.5849    1.3717 H   0  0  0  0  0  0  0  0  0  0  0  0
   -3.4363    0.1740    2.0200 H   0  0  0  0  0  0  0  0  0  0  0  0
   -1.1463   -1.5091    2.9203 H   0  0  0  0  0  0  0  0  0  0  0  0
    1.2124   -1.0228    2.6407 H   0  0  0  0  0  0  0  0  0  0  0  0
   -1.8078    1.4798    1.2586 H   0  0  0  0  0  0  0  0  0  0  0  0
   -3.0930    2.6272    1.7202 H   0  0  0  0  0  0  0  0  0  0  0  0
    3.2305   -2.6857    0.2885 H   0  0  0  0  0  0  0  0  0  0  0  0
    2.2756    1.5196    0.4499 H   0  0  0  0  0  0  0  0  0  0  0  0
   -1.5976    2.4761   -1.7223 H   0  0  0  0  0  0  0  0  0  0  0  0
   -0.2845    2.0440   -0.6131 H   0  0  0  0  0  0  0  0  0  0  0  0
   -0.3901    3.6594   -1.3241 H   0  0  0  0  0  0  0  0  0  0  0  0
   -0.3232    4.8261    0.7493 H   0  0  0  0  0  0  0  0  0  0  0  0
   -0.0775    3.2824    1.5984 H   0  0  0  0  0  0  0  0  0  0  0  0
   -1.3970    4.3777    2.0669 H   0  0  0  0  0  0  0  0  0  0  0  0
    5.6089   -2.1389    0.0652 H   0  0  0  0  0  0  0  0  0  0  0  0
    4.6496    2.0707    0.2325 H   0  0  0  0  0  0  0  0  0  0  0  0
    8.0741    1.6080   -1.8311 H   0  0  0  0  0  0  0  0  0  0  0  0
    6.4957    2.3133   -1.4332 H   0  0  0  0  0  0  0  0  0  0  0  0
    6.5890    0.8036   -2.3811 H   0  0  0  0  0  0  0  0  0  0  0  0
  1 27  1  0  0  0  0
  1 28  1  0  0  0  0
  2 15  2  0  0  0  0
  3 16  2  0  0  0  0
  4 10  1  0  0  0  0
  4 12  1  0  0  0  0
  4 16  1  0  0  0  0
  5 11  1  0  0  0  0
  5 13  1  0  0  0  0
  5 15  1  0  0  0  0
  6 19  1  0  0  0  0
  6 23  1  0  0  0  0
  6 24  1  0  0  0  0
  7  9  1  0  0  0  0
  7 10  1  0  0  0  0
  7 11  1  0  0  0  0
  7 29  1  0  0  0  0
  8  9  1  0  0  0  0
  8 12  1  0  0  0  0
  8 13  1  0  0  0  0
  8 30  1  0  0  0  0
  9 31  1  0  0  0  0
  9 32  1  0  0  0  0
 10 33  1  0  0  0  0
 10 34  1  0  0  0  0
 11 35  1  0  0  0  0
 11 36  1  0  0  0  0
 12 37  1  0  0  0  0
 12 38  1  0  0  0  0
 13 14  2  0  0  0  0
 14 18  1  0  0  0  0
 14 39  1  0  0  0  0
 15 17  1  0  0  0  0
 16 19  1  0  0  0  0
 17 18  2  0  0  0  0
 17 20  1  0  0  0  0
 18 40  1  0  0  0  0
 19 41  1  0  0  0  0
 19 42  1  0  0  0  0
 20 21  2  0  0  0  0
 20 22  1  0  0  0  0
 21 25  1  0  0  0  0
 21 43  1  0  0  0  0
 22 26  2  0  0  0  0
 22 44  1  0  0  0  0
 23 45  1  0  0  0  0
 23 46  1  0  0  0  0
 23 47  1  0  0  0  0
 24 48  1  0  0  0  0
 24 49  1  0  0  0  0
 24 50  1  0  0  0  0
 25 27  2  0  0  0  0
 25 51  1  0  0  0  0
 26 27  1  0  0  0  0
 26 52  1  0  0  0  0
 28 53  1  0  0  0  0
 28 54  1  0  0  0  0
 28 55  1  0  0  0  0
M  END
> <PUBCHEM_COMPOUND_CID>
7143829

> <PUBCHEM_CONFORMER_RMSD>
0.8

> <PUBCHEM_CONFORMER_DIVERSEORDER>
1
10
5
8
6
4
11
3
9
7
2

> <PUBCHEM_MMFF94_PARTIAL_CHARGES>
32
1 -0.33
10 0.3
11 0.3
12 0.3
13 -0.03
14 -0.15
15 0.62
16 0.57
17 -0.01
18 -0.15
19 0.33
2 -0.57
20 0.03
21 -0.15
22 -0.15
23 0.27
24 0.27
25 -0.15
26 -0.15
27 0.1
28 0.23
3 -0.57
39 0.15
4 -0.66
40 0.15
43 0.15
44 0.15
5 -0.47
51 0.15
52 0.15
6 -0.81
8 0.14

> <PUBCHEM_EFFECTIVE_ROTOR_COUNT>
6

> <PUBCHEM_PHARMACOPHORE_FEATURES>
8
1 2 acceptor
1 28 hydrophobe
1 3 acceptor
1 6 cation
6 20 21 22 25 26 27 rings
6 4 7 8 9 10 12 rings
6 5 13 14 15 17 18 rings
6 5 7 8 9 11 13 rings

> <PUBCHEM_HEAVY_ATOM_COUNT>
28

> <PUBCHEM_ATOM_DEF_STEREO_COUNT>
2

> <PUBCHEM_ATOM_UDEF_STEREO_COUNT>
0

> <PUBCHEM_BOND_DEF_STEREO_COUNT>
0

> <PUBCHEM_BOND_UDEF_STEREO_COUNT>
0

> <PUBCHEM_ISOTOPIC_ATOM_COUNT>
0

> <PUBCHEM_COMPONENT_COUNT>
1

> <PUBCHEM_CACTVS_TAUTO_COUNT>
1

> <PUBCHEM_CONFORMER_ID>
006D019500000001

> <PUBCHEM_MMFF94_ENERGY>
85.2258

> <PUBCHEM_FEATURE_SELFOVERLAP>
42.161

> <PUBCHEM_SHAPE_FINGERPRINT>
10291535 26 18334018302135045834
10670039 82 18409173238420982860
10871710 139 18335132047669867429
11477941 20 18201707501044666764
11578080 2 17558576641461888358
12107183 9 17760642573633502322
12166972 35 17604429737788551343
12403814 3 18131072653862957387
12596602 18 17312822688882896728
12788726 201 18409440380616605576
13994607 96 18334575720355283853
14251751 93 18267017254730693048
14713325 29 18272373040141397615
14856354 85 18268154330454436718
14931854 50 18335408050562746949
15183329 4 18131635587016032030
15876981 60 18336548321208317351
17492 54 18193531425881406381
19930381 70 17402041700772300787
19958102 18 17561086887059896494
20101258 96 18123752221267183355
20775438 99 16903233940281244695
21033648 144 17985828362124468666
21236236 1 18408604751906323144
21641784 216 18261125092878698396
22956985 138 16963245319005227155
445580 37 18262249876162069860
469060 322 16081096969557276715
5171179 24 18057309789804055537
531348 171 18272652303663963070
550186 7 18201441324883551812
57527585 21 17771327692088822389
70251023 43 17980182408476229119
7237137 82 18342461448094214376

> <PUBCHEM_SHAPE_MULTIPOLES>
553.39
12.73
3.52
1.58
24.95
3.99
-0.1
1.22
-3.35
-3.67
0.39
-0.69
-0.28
-0.75

> <PUBCHEM_SHAPE_SELFOVERLAP>
1174.882

> <PUBCHEM_SHAPE_VOLUME>
312.3

> <PUBCHEM_COORDINATE_TYPE>
2
5
10

$$$$
