11911995
  -OEChem-12032416373D

 64 69  0     1  0  0  0  0  0999 V2000
   -1.0460    0.9420    2.0617 O   0  0  0  0  0  0  0  0  0  0  0  0
   -2.7949    2.2105   -0.1166 O   0  0  0  0  0  0  0  0  0  0  0  0
    0.7578    2.1611    0.3410 O   0  0  0  0  0  0  0  0  0  0  0  0
    1.8186    0.6403   -0.9976 O   0  0  0  0  0  0  0  0  0  0  0  0
    8.3149    0.6088   -0.4042 O   0  0  0  0  0  0  0  0  0  0  0  0
   -3.5766   -0.8386    1.7590 N   0  0  0  0  0  0  0  0  0  0  0  0
   -5.5297   -0.7760    0.5041 N   0  0  0  0  0  0  0  0  0  0  0  0
   -4.7309   -2.8331    1.4723 N   0  0  0  0  0  0  0  0  0  0  0  0
    3.0077    2.0453    0.4489 N   0  0  0  0  0  0  0  0  0  0  0  0
   -2.6161    0.8368    0.2878 C   0  0  1  0  0  0  0  0  0  0  0  0
   -1.1544    0.6739    0.6542 C   0  0  1  0  0  0  0  0  0  0  0  0
   -3.3485    0.5798    1.5839 C   0  0  2  0  0  0  0  0  0  0  0  0
   -0.4882    1.7474   -0.1724 C   0  0  1  0  0  0  0  0  0  0  0  0
   -2.3608    1.0866    2.6204 C   0  0  0  0  0  0  0  0  0  0  0  0
   -1.5142    2.8576   -0.1393 C   0  0  0  0  0  0  0  0  0  0  0  0
   -4.6595   -1.5119    1.2216 C   0  0  0  0  0  0  0  0  0  0  0  0
    1.8781    1.5253   -0.1527 C   0  0  0  0  0  0  0  0  0  0  0  0
   -6.5730   -1.4638   -0.0044 C   0  0  0  0  0  0  0  0  0  0  0  0
   -5.7988   -3.4579    0.9339 C   0  0  0  0  0  0  0  0  0  0  0  0
   -6.7610   -2.8186    0.1793 C   0  0  0  0  0  0  0  0  0  0  0  0
    4.3558    1.6795    0.2326 C   0  0  0  0  0  0  0  0  0  0  0  0
   -7.5074   -0.6788   -0.7750 C   0  0  0  0  0  0  0  0  0  0  0  0
    4.6680    0.6781   -0.6868 C   0  0  0  0  0  0  0  0  0  0  0  0
    5.3740    2.3207    0.9382 C   0  0  0  0  0  0  0  0  0  0  0  0
   -8.8431   -0.5996   -0.3807 C   0  0  0  0  0  0  0  0  0  0  0  0
   -7.0749    0.0013   -1.9136 C   0  0  0  0  0  0  0  0  0  0  0  0
    5.9986    0.3180   -0.9008 C   0  0  0  0  0  0  0  0  0  0  0  0
    6.7044    1.9607    0.7244 C   0  0  0  0  0  0  0  0  0  0  0  0
    7.0168    0.9595   -0.1952 C   0  0  0  0  0  0  0  0  0  0  0  0
   -9.7463    0.1592   -1.1250 C   0  0  0  0  0  0  0  0  0  0  0  0
   -7.9781    0.7602   -2.6578 C   0  0  0  0  0  0  0  0  0  0  0  0
   -9.3138    0.8391   -2.2635 C   0  0  0  0  0  0  0  0  0  0  0  0
    8.6162   -0.7420   -0.4585 C   0  0  0  0  0  0  0  0  0  0  0  0
    8.0800   -1.6150    0.4882 C   0  0  0  0  0  0  0  0  0  0  0  0
    9.4564   -1.2293   -1.4597 C   0  0  0  0  0  0  0  0  0  0  0  0
    8.3843   -2.9752    0.4338 C   0  0  0  0  0  0  0  0  0  0  0  0
    9.7605   -2.5896   -1.5141 C   0  0  0  0  0  0  0  0  0  0  0  0
    9.2243   -3.4624   -0.5673 C   0  0  0  0  0  0  0  0  0  0  0  0
   -2.9209    0.2049   -0.5524 H   0  0  0  0  0  0  0  0  0  0  0  0
   -0.7569   -0.3294    0.4753 H   0  0  0  0  0  0  0  0  0  0  0  0
   -4.2856    1.1402    1.6803 H   0  0  0  0  0  0  0  0  0  0  0  0
   -0.4089    1.4086   -1.2146 H   0  0  0  0  0  0  0  0  0  0  0  0
   -2.4079    0.5557    3.5762 H   0  0  0  0  0  0  0  0  0  0  0  0
   -2.5119    2.1543    2.8145 H   0  0  0  0  0  0  0  0  0  0  0  0
   -1.4192    3.4858    0.7534 H   0  0  0  0  0  0  0  0  0  0  0  0
   -1.4486    3.5115   -1.0142 H   0  0  0  0  0  0  0  0  0  0  0  0
   -2.8907   -1.3956    2.2558 H   0  0  0  0  0  0  0  0  0  0  0  0
    2.8540    2.7824    1.1326 H   0  0  0  0  0  0  0  0  0  0  0  0
   -5.8608   -4.5227    1.1314 H   0  0  0  0  0  0  0  0  0  0  0  0
   -7.5991   -3.3635   -0.2371 H   0  0  0  0  0  0  0  0  0  0  0  0
    3.9343    0.1422   -1.2729 H   0  0  0  0  0  0  0  0  0  0  0  0
    5.1442    3.1026    1.6576 H   0  0  0  0  0  0  0  0  0  0  0  0
   -9.1999   -1.1172    0.5067 H   0  0  0  0  0  0  0  0  0  0  0  0
   -6.0382   -0.0504   -2.2384 H   0  0  0  0  0  0  0  0  0  0  0  0
    6.2152   -0.4489   -1.6400 H   0  0  0  0  0  0  0  0  0  0  0  0
    7.4933    2.4634    1.2772 H   0  0  0  0  0  0  0  0  0  0  0  0
  -10.7860    0.2220   -0.8175 H   0  0  0  0  0  0  0  0  0  0  0  0
   -7.6418    1.2893   -3.5447 H   0  0  0  0  0  0  0  0  0  0  0  0
  -10.0170    1.4302   -2.8429 H   0  0  0  0  0  0  0  0  0  0  0  0
    7.4407   -1.2592    1.2918 H   0  0  0  0  0  0  0  0  0  0  0  0
    9.8765   -0.5538   -2.1998 H   0  0  0  0  0  0  0  0  0  0  0  0
    7.9711   -3.6544    1.1739 H   0  0  0  0  0  0  0  0  0  0  0  0
   10.4148   -2.9691   -2.2935 H   0  0  0  0  0  0  0  0  0  0  0  0
    9.4621   -4.5213   -0.6089 H   0  0  0  0  0  0  0  0  0  0  0  0
  1 11  1  0  0  0  0
  1 14  1  0  0  0  0
  2 10  1  0  0  0  0
  2 15  1  0  0  0  0
  3 13  1  0  0  0  0
  3 17  1  0  0  0  0
  4 17  2  0  0  0  0
  5 29  1  0  0  0  0
  5 33  1  0  0  0  0
  6 12  1  0  0  0  0
  6 16  1  0  0  0  0
  6 47  1  0  0  0  0
  7 16  1  0  0  0  0
  7 18  2  0  0  0  0
  8 16  2  0  0  0  0
  8 19  1  0  0  0  0
  9 17  1  0  0  0  0
  9 21  1  0  0  0  0
  9 48  1  0  0  0  0
 10 11  1  0  0  0  0
 10 12  1  0  0  0  0
 10 39  1  0  0  0  0
 11 13  1  0  0  0  0
 11 40  1  0  0  0  0
 12 14  1  0  0  0  0
 12 41  1  0  0  0  0
 13 15  1  0  0  0  0
 13 42  1  0  0  0  0
 14 43  1  0  0  0  0
 14 44  1  0  0  0  0
 15 45  1  0  0  0  0
 15 46  1  0  0  0  0
 18 20  1  0  0  0  0
 18 22  1  0  0  0  0
 19 20  2  0  0  0  0
 19 49  1  0  0  0  0
 20 50  1  0  0  0  0
 21 23  2  0  0  0  0
 21 24  1  0  0  0  0
 22 25  2  0  0  0  0
 22 26  1  0  0  0  0
 23 27  1  0  0  0  0
 23 51  1  0  0  0  0
 24 28  2  0  0  0  0
 24 52  1  0  0  0  0
 25 30  1  0  0  0  0
 25 53  1  0  0  0  0
 26 31  2  0  0  0  0
 26 54  1  0  0  0  0
 27 29  2  0  0  0  0
 27 55  1  0  0  0  0
 28 29  1  0  0  0  0
 28 56  1  0  0  0  0
 30 32  2  0  0  0  0
 30 57  1  0  0  0  0
 31 32  1  0  0  0  0
 31 58  1  0  0  0  0
 32 59  1  0  0  0  0
 33 34  2  0  0  0  0
 33 35  1  0  0  0  0
 34 36  1  0  0  0  0
 34 60  1  0  0  0  0
 35 37  2  0  0  0  0
 35 61  1  0  0  0  0
 36 38  2  0  0  0  0
 36 62  1  0  0  0  0
 37 38  1  0  0  0  0
 37 63  1  0  0  0  0
 38 64  1  0  0  0  0
M  END
> <PUBCHEM_COMPOUND_CID>
11911995

> <PUBCHEM_CONFORMER_RMSD>
1.2

> <PUBCHEM_CONFORMER_DIVERSEORDER>
1
21
50
5
66
94
68
105
112
97
62
60
78
20
109
4
56
30
48
46
44
41
36
76
22
52
89
80
2
100
79
57
67
13
91
58
17
23
27
85
99
110
47
74
72
64
9
25
33
19
53
73
111
40
51
42
6
101
90
63
12
16
104
93
65
106
107
77
87
34
113
10
92
26
8
96
115
35
18
75
24
14
108
59
37
83
98
49
70
55
32
61
84
38
29
15
7
82
28
88
114
103
95
81
102
45
31
43
11
69
86
39
54
3
71

> <PUBCHEM_MMFF94_PARTIAL_CHARGES>
55
1 -0.56
10 0.28
11 0.28
12 0.37
13 0.28
14 0.28
15 0.28
16 0.72
17 0.78
18 0.31
19 0.16
2 -0.56
20 -0.15
21 0.12
23 -0.15
24 -0.15
25 -0.15
26 -0.15
27 -0.15
28 -0.15
29 0.08
3 -0.43
30 -0.15
31 -0.15
32 -0.15
33 0.08
34 -0.15
35 -0.15
36 -0.15
37 -0.15
38 -0.15
4 -0.57
47 0.4
48 0.37
49 0.15
5 -0.17
50 0.15
51 0.15
52 0.15
53 0.15
54 0.15
55 0.15
56 0.15
57 0.15
58 0.15
59 0.15
6 -0.87
60 0.15
61 0.15
62 0.15
63 0.15
64 0.15
7 -0.62
8 -0.62
9 -0.55

> <PUBCHEM_EFFECTIVE_ROTOR_COUNT>
10.2

> <PUBCHEM_PHARMACOPHORE_FEATURES>
14
1 1 acceptor
1 2 acceptor
1 4 acceptor
1 5 acceptor
1 6 donor
1 7 acceptor
1 9 donor
4 6 7 8 16 cation
5 1 10 11 12 14 rings
5 2 10 11 13 15 rings
6 21 23 24 27 28 29 rings
6 22 25 26 30 31 32 rings
6 33 34 35 36 37 38 rings
6 7 8 16 18 19 20 rings

> <PUBCHEM_HEAVY_ATOM_COUNT>
38

> <PUBCHEM_ATOM_DEF_STEREO_COUNT>
4

> <PUBCHEM_ATOM_UDEF_STEREO_COUNT>
0

> <PUBCHEM_BOND_DEF_STEREO_COUNT>
0

> <PUBCHEM_BOND_UDEF_STEREO_COUNT>
0

> <PUBCHEM_ISOTOPIC_ATOM_COUNT>
0

> <PUBCHEM_COMPONENT_COUNT>
1

> <PUBCHEM_CACTVS_TAUTO_COUNT>
6

> <PUBCHEM_CONFORMER_ID>
00B5C33B00000001

> <PUBCHEM_MMFF94_ENERGY>
134.2382

> <PUBCHEM_FEATURE_SELFOVERLAP>
71.765

> <PUBCHEM_SHAPE_FINGERPRINT>
10 15 10807941466015398229
10625338 86 10159701291609644055
10677351 14 18186809089172474324
10930396 42 13973960991807948691
11135926 11 18342465859410814523
11181472 205 14996275886876174052
11408170 108 18131358487972971823
11409948 8 10303806614863130501
11534866 41 15410897337039278438
11672396 167 18338233766161996930
11828042 163 18188765051818711693
11828042 74 17240775020414812835
11966995 16 18186522078135984318
12013929 112 17603858997402719679
12120059 9 18129649924207472779
12728208 25 18272652355271428456
12758862 11 18336539530365791265
13740195 50 11312054348958216485
13782708 43 18335707101479263408
13811026 1 18410571790913825368
14279260 333 18343864416979560621
14294032 229 16733808810820351853
150020 25 18334292080477581550
15065858 18 18342170103256218941
15183329 4 14707472759528973705
15419008 91 18119510266937484937
15455200 90 17313944096528293949
16126227 98 9799692588614882040
16992610 120 17022619754980591223
16993089 31 18411423891372619494
1768 4 7853574608459170341
18603816 31 17703785977458567943
19841028 212 18410854378624936026
20156587 128 15864346910417993546
2026 5 18340208621768209939
212700 22 18343019983032635242
25025965 108 17846488227961821191
3711267 37 11242244143713442110
4339292 15 18343021065268987444
437795 160 13542457692047018357
44575985 123 17346319238680170345
4516262 110 18123753321512703140
4625314 4 18187928421177463892
474113 269 18273211993467622452
504579 68 16226051102586077340
5718773 13 18410862070863513482
5937810 71 11819283277940222658
6081469 158 18408039611213756028
6201320 221 18262796247537246346
9689198 14 8718563704602590049
9953998 17 11167677512281750943

> <PUBCHEM_SHAPE_MULTIPOLES>
732.75
39.91
3.59
1.9
27.07
2.33
0.1
27.75
20.73
4.16
-0.73
-3.78
-0.06
4.01

> <PUBCHEM_SHAPE_SELFOVERLAP>
1621.232

> <PUBCHEM_SHAPE_VOLUME>
390.4

> <PUBCHEM_COORDINATE_TYPE>
2
5
10

$$$$
