11884399
  -OEChem-12032416333D

 69 73  0     1  0  0  0  0  0999 V2000
   -3.6570    0.8728    2.5231 O   0  0  0  0  0  0  0  0  0  0  0  0
   -0.8739   -1.0415   -2.4915 O   0  0  0  0  0  0  0  0  0  0  0  0
    2.4438   -0.9781    1.0157 O   0  0  0  0  0  0  0  0  0  0  0  0
    8.8338    1.7696    1.7235 O   0  0  0  0  0  0  0  0  0  0  0  0
   -4.5495   -0.5826    0.9491 N   0  0  0  0  0  0  0  0  0  0  0  0
   -2.2413   -1.9594   -0.8338 N   0  0  0  0  0  0  0  0  0  0  0  0
   -4.4984    1.7531    0.5787 N   0  0  0  0  0  0  0  0  0  0  0  0
    1.4159   -1.4095   -1.0175 N   0  0  0  0  0  0  0  0  0  0  0  0
    3.5900   -0.6745   -1.0097 N   0  0  0  0  0  0  0  0  0  0  0  0
   -4.7872   -2.0863   -1.0505 C   0  0  1  0  0  0  0  0  0  0  0  0
   -3.6958   -2.9291    0.9796 C   0  0  2  0  0  0  0  0  0  0  0  0
   -4.6720   -3.2958   -0.1339 C   0  0  0  0  0  0  0  0  0  0  0  0
   -5.3063   -0.8553   -0.2827 C   0  0  0  0  0  0  0  0  0  0  0  0
   -4.2686   -1.7535    1.7889 C   0  0  0  0  0  0  0  0  0  0  0  0
   -3.4213   -1.8235   -1.6967 C   0  0  0  0  0  0  0  0  0  0  0  0
   -2.3332   -2.5598    0.4252 C   0  0  0  0  0  0  0  0  0  0  0  0
   -4.1955    0.6933    1.4258 C   0  0  0  0  0  0  0  0  0  0  0  0
   -4.2037    3.1255    0.9266 C   0  0  0  0  0  0  0  0  0  0  0  0
   -1.2237   -2.7832    1.1497 C   0  0  0  0  0  0  0  0  0  0  0  0
   -1.0061   -1.5565   -1.3804 C   0  0  0  0  0  0  0  0  0  0  0  0
   -5.2411    4.0808    0.3266 C   0  0  0  0  0  0  0  0  0  0  0  0
   -2.7829    3.5091    0.4996 C   0  0  0  0  0  0  0  0  0  0  0  0
   -5.0997    4.2205   -1.1890 C   0  0  0  0  0  0  0  0  0  0  0  0
   -2.6457    3.6500   -1.0164 C   0  0  0  0  0  0  0  0  0  0  0  0
    0.2029   -1.7993   -0.5309 C   0  0  0  0  0  0  0  0  0  0  0  0
   -3.6808    4.6137   -1.5884 C   0  0  0  0  0  0  0  0  0  0  0  0
    0.0681   -2.3922    0.6600 C   0  0  0  0  0  0  0  0  0  0  0  0
    2.4915   -1.0126   -0.2119 C   0  0  0  0  0  0  0  0  0  0  0  0
    4.8640   -0.2264   -0.5894 C   0  0  0  0  0  0  0  0  0  0  0  0
    5.8472    0.0665   -1.5344 C   0  0  0  0  0  0  0  0  0  0  0  0
    5.1376   -0.0787    0.7705 C   0  0  0  0  0  0  0  0  0  0  0  0
    7.1039    0.5071   -1.1197 C   0  0  0  0  0  0  0  0  0  0  0  0
    6.3943    0.3620    1.1851 C   0  0  0  0  0  0  0  0  0  0  0  0
    7.3776    0.6550    0.2400 C   0  0  0  0  0  0  0  0  0  0  0  0
    8.6877    1.1152    0.6719 C   0  0  0  0  0  0  0  0  0  0  0  0
    9.9254    0.8036   -0.1626 C   0  0  0  0  0  0  0  0  0  0  0  0
   -5.5062   -2.3017   -1.8508 H   0  0  0  0  0  0  0  0  0  0  0  0
   -3.5994   -3.7947    1.6479 H   0  0  0  0  0  0  0  0  0  0  0  0
   -5.6525   -3.5564    0.2829 H   0  0  0  0  0  0  0  0  0  0  0  0
   -4.3163   -4.1716   -0.6911 H   0  0  0  0  0  0  0  0  0  0  0  0
   -5.3419   -0.0081   -0.9658 H   0  0  0  0  0  0  0  0  0  0  0  0
   -6.3401   -1.0390    0.0364 H   0  0  0  0  0  0  0  0  0  0  0  0
   -5.2206   -2.0441    2.2509 H   0  0  0  0  0  0  0  0  0  0  0  0
   -3.5899   -1.4878    2.6071 H   0  0  0  0  0  0  0  0  0  0  0  0
   -3.2744   -2.5429   -2.5140 H   0  0  0  0  0  0  0  0  0  0  0  0
   -3.4016   -0.8304   -2.1629 H   0  0  0  0  0  0  0  0  0  0  0  0
   -4.2640    3.2086    2.0188 H   0  0  0  0  0  0  0  0  0  0  0  0
   -1.2698   -3.2419    2.1320 H   0  0  0  0  0  0  0  0  0  0  0  0
   -4.8148    1.5897   -0.3651 H   0  0  0  0  0  0  0  0  0  0  0  0
   -6.2556    3.7407    0.5670 H   0  0  0  0  0  0  0  0  0  0  0  0
   -5.1206    5.0711    0.7842 H   0  0  0  0  0  0  0  0  0  0  0  0
   -2.5180    4.4664    0.9665 H   0  0  0  0  0  0  0  0  0  0  0  0
   -2.0581    2.7700    0.8615 H   0  0  0  0  0  0  0  0  0  0  0  0
   -5.3731    3.2803   -1.6820 H   0  0  0  0  0  0  0  0  0  0  0  0
   -5.8035    4.9789   -1.5512 H   0  0  0  0  0  0  0  0  0  0  0  0
   -1.6384    4.0059   -1.2612 H   0  0  0  0  0  0  0  0  0  0  0  0
   -2.7579    2.6674   -1.4910 H   0  0  0  0  0  0  0  0  0  0  0  0
   -3.4698    5.6289   -1.2300 H   0  0  0  0  0  0  0  0  0  0  0  0
   -3.5983    4.6381   -2.6808 H   0  0  0  0  0  0  0  0  0  0  0  0
    0.8982   -2.6547    1.3046 H   0  0  0  0  0  0  0  0  0  0  0  0
    1.4592   -1.1636   -2.0027 H   0  0  0  0  0  0  0  0  0  0  0  0
    3.4668   -0.7614   -2.0154 H   0  0  0  0  0  0  0  0  0  0  0  0
    5.6458   -0.0421   -2.5971 H   0  0  0  0  0  0  0  0  0  0  0  0
    4.4301   -0.2864    1.5607 H   0  0  0  0  0  0  0  0  0  0  0  0
    7.8466    0.7403   -1.8778 H   0  0  0  0  0  0  0  0  0  0  0  0
    6.5919    0.4678    2.2488 H   0  0  0  0  0  0  0  0  0  0  0  0
   10.7945    0.7382    0.4990 H   0  0  0  0  0  0  0  0  0  0  0  0
    9.8220   -0.1619   -0.6652 H   0  0  0  0  0  0  0  0  0  0  0  0
   10.0824    1.5991   -0.8951 H   0  0  0  0  0  0  0  0  0  0  0  0
  1 17  2  0  0  0  0
  2 20  2  0  0  0  0
  3 28  2  0  0  0  0
  4 35  2  0  0  0  0
  5 13  1  0  0  0  0
  5 14  1  0  0  0  0
  5 17  1  0  0  0  0
  6 15  1  0  0  0  0
  6 16  1  0  0  0  0
  6 20  1  0  0  0  0
  7 17  1  0  0  0  0
  7 18  1  0  0  0  0
  7 49  1  0  0  0  0
  8 25  1  0  0  0  0
  8 28  1  0  0  0  0
  8 61  1  0  0  0  0
  9 28  1  0  0  0  0
  9 29  1  0  0  0  0
  9 62  1  0  0  0  0
 10 12  1  0  0  0  0
 10 13  1  0  0  0  0
 10 15  1  0  0  0  0
 10 37  1  0  0  0  0
 11 12  1  0  0  0  0
 11 14  1  0  0  0  0
 11 16  1  0  0  0  0
 11 38  1  0  0  0  0
 12 39  1  0  0  0  0
 12 40  1  0  0  0  0
 13 41  1  0  0  0  0
 13 42  1  0  0  0  0
 14 43  1  0  0  0  0
 14 44  1  0  0  0  0
 15 45  1  0  0  0  0
 15 46  1  0  0  0  0
 16 19  2  0  0  0  0
 18 21  1  0  0  0  0
 18 22  1  0  0  0  0
 18 47  1  0  0  0  0
 19 27  1  0  0  0  0
 19 48  1  0  0  0  0
 20 25  1  0  0  0  0
 21 23  1  0  0  0  0
 21 50  1  0  0  0  0
 21 51  1  0  0  0  0
 22 24  1  0  0  0  0
 22 52  1  0  0  0  0
 22 53  1  0  0  0  0
 23 26  1  0  0  0  0
 23 54  1  0  0  0  0
 23 55  1  0  0  0  0
 24 26  1  0  0  0  0
 24 56  1  0  0  0  0
 24 57  1  0  0  0  0
 25 27  2  0  0  0  0
 26 58  1  0  0  0  0
 26 59  1  0  0  0  0
 27 60  1  0  0  0  0
 29 30  2  0  0  0  0
 29 31  1  0  0  0  0
 30 32  1  0  0  0  0
 30 63  1  0  0  0  0
 31 33  2  0  0  0  0
 31 64  1  0  0  0  0
 32 34  2  0  0  0  0
 32 65  1  0  0  0  0
 33 34  1  0  0  0  0
 33 66  1  0  0  0  0
 34 35  1  0  0  0  0
 35 36  1  0  0  0  0
 36 67  1  0  0  0  0
 36 68  1  0  0  0  0
 36 69  1  0  0  0  0
M  END
> <PUBCHEM_COMPOUND_CID>
11884399

> <PUBCHEM_CONFORMER_RMSD>
1

> <PUBCHEM_CONFORMER_DIVERSEORDER>
1
34
48
16
20
28
30
57
33
51
45
27
6
38
19
55
44
9
2
43
26
39
59
23
60
35
29
12
5
52
22
50
4
36
46
56
18
15
61
63
47
14
32
37
31
17
62
24
8
3
25
21
11
49
41
7
58
13
10
42
54
53
40

> <PUBCHEM_MMFF94_PARTIAL_CHARGES>
38
1 -0.57
11 0.14
13 0.3
14 0.3
15 0.3
16 -0.03
17 0.69
18 0.3
19 -0.15
2 -0.57
20 0.62
25 0.12
27 -0.15
28 0.69
29 0.12
3 -0.57
30 -0.15
31 -0.15
32 -0.15
33 -0.15
34 0.09
35 0.42
36 0.06
4 -0.57
48 0.15
49 0.37
5 -0.66
6 -0.47
60 0.15
61 0.37
62 0.37
63 0.15
64 0.15
65 0.15
66 0.15
7 -0.73
8 -0.54
9 -0.55

> <PUBCHEM_EFFECTIVE_ROTOR_COUNT>
10.2

> <PUBCHEM_PHARMACOPHORE_FEATURES>
12
1 1 acceptor
1 2 acceptor
1 3 acceptor
1 4 acceptor
1 7 donor
1 8 donor
1 9 donor
6 18 21 22 23 24 26 rings
6 29 30 31 32 33 34 rings
6 5 10 11 12 13 14 rings
6 6 10 11 12 15 16 rings
6 6 16 19 20 25 27 rings

> <PUBCHEM_HEAVY_ATOM_COUNT>
36

> <PUBCHEM_ATOM_DEF_STEREO_COUNT>
2

> <PUBCHEM_ATOM_UDEF_STEREO_COUNT>
0

> <PUBCHEM_BOND_DEF_STEREO_COUNT>
0

> <PUBCHEM_BOND_UDEF_STEREO_COUNT>
0

> <PUBCHEM_ISOTOPIC_ATOM_COUNT>
0

> <PUBCHEM_COMPONENT_COUNT>
1

> <PUBCHEM_CACTVS_TAUTO_COUNT>
32

> <PUBCHEM_CONFORMER_ID>
00B5576F00000001

> <PUBCHEM_MMFF94_ENERGY>
91.1317

> <PUBCHEM_FEATURE_SELFOVERLAP>
62.498

> <PUBCHEM_SHAPE_FINGERPRINT>
100830 39 18410294718326208912
10087517 78 18410858780174928399
10554248 39 15625954101944777492
10670039 82 18412823616159808586
10816530 145 17677053559214695047
10864689 126 18123194489709667236
10930396 42 18335427885470455611
10951579 204 18267607744858851644
11477941 20 18059846320864645687
11479125 193 17391336422422307813
12104220 1 18334294313771294359
12717326 25 12325065111912143069
13008946 62 12219004717159414687
14150022 121 18408602586593972797
14294032 229 18114179710438704316
14512766 119 18341619174626245332
14856354 85 18264775526610867182
14950920 106 16589457317384350769
15183329 4 15626233433390545310
15264996 74 18341598318655550829
15328684 2 18041827455694918280
15338160 23 18408038498500669820
15347590 135 17895207618828262771
16114785 44 18412543189577481735
19304152 47 18260840258888837465
19309040 13 16054650287979302913
19315092 285 15434310444851773001
20156587 191 18198630926752090750
21223535 225 18413385454434170008
21792965 68 18335695036467619740
21927370 108 18193849352283027075
22956985 138 17330277685494335539
23522609 53 17169295765672271142
3418910 222 17975429219239270532
3525247 154 17917705765320675344
44249763 50 18410577249532844252
44802255 64 17704070720024819382
4616759 239 17749389308071810875
4938544 92 18335702723789198517
57828716 94 16589450776503140396
6201320 215 18272367534795165136

> <PUBCHEM_SHAPE_MULTIPOLES>
692.48
23.42
5.46
1.84
72.52
6.27
-0.03
14.11
4.07
-14.72
-0.77
-0.8
0.05
1.25

> <PUBCHEM_SHAPE_SELFOVERLAP>
1489.302

> <PUBCHEM_SHAPE_VOLUME>
370.9

> <PUBCHEM_COORDINATE_TYPE>
2
5
10

$$$$
