51137309
  -OEChem-12032416243D

 44 48  0     1  0  0  0  0  0999 V2000
    2.8126   -0.5060    0.1788 O   0  0  0  0  0  0  0  0  0  0  0  0
   -5.8909    2.1561    0.7897 O   0  0  0  0  0  0  0  0  0  0  0  0
   -7.3507    0.3145    0.2555 O   0  0  0  0  0  0  0  0  0  0  0  0
   -1.1949   -0.9557   -0.2619 N   0  0  1  0  0  0  0  0  0  0  0  0
    3.2709   -2.6920    0.3047 N   0  0  0  0  0  0  0  0  0  0  0  0
    4.4677   -2.0109    0.1837 N   0  0  0  0  0  0  0  0  0  0  0  0
    6.6078    2.6821   -0.2794 N   0  0  0  0  0  0  0  0  0  0  0  0
    0.8329   -1.9300    0.4000 C   0  0  2  0  0  0  0  0  0  0  0  0
    0.0892   -1.3793   -0.8242 C   0  0  0  0  0  0  0  0  0  0  0  0
    0.1892   -1.2152    1.6008 C   0  0  0  0  0  0  0  0  0  0  0  0
   -0.8543   -0.2865    0.9936 C   0  0  0  0  0  0  0  0  0  0  0  0
   -1.9391   -0.0916   -1.1662 C   0  0  0  0  0  0  0  0  0  0  0  0
    2.3326   -1.7741    0.2975 C   0  0  0  0  0  0  0  0  0  0  0  0
   -3.3971   -0.0173   -0.7977 C   0  0  0  0  0  0  0  0  0  0  0  0
   -3.8920    1.1185   -0.1523 C   0  0  0  0  0  0  0  0  0  0  0  0
   -4.2488   -1.0917   -1.1092 C   0  0  0  0  0  0  0  0  0  0  0  0
    4.1520   -0.7389    0.1132 C   0  0  0  0  0  0  0  0  0  0  0  0
   -5.2351    1.1414    0.1631 C   0  0  0  0  0  0  0  0  0  0  0  0
   -5.6052   -1.0428   -0.7788 C   0  0  0  0  0  0  0  0  0  0  0  0
   -6.0687    0.0898   -0.1417 C   0  0  0  0  0  0  0  0  0  0  0  0
    4.9848    0.4212   -0.0191 C   0  0  0  0  0  0  0  0  0  0  0  0
   -7.2309    1.6254    0.8445 C   0  0  0  0  0  0  0  0  0  0  0  0
    6.3664    0.2838   -0.0934 C   0  0  0  0  0  0  0  0  0  0  0  0
    4.4137    1.6878   -0.0749 C   0  0  0  0  0  0  0  0  0  0  0  0
    7.1267    1.4350   -0.2219 C   0  0  0  0  0  0  0  0  0  0  0  0
    5.2613    2.7763   -0.2043 C   0  0  0  0  0  0  0  0  0  0  0  0
    0.6197   -3.0040    0.4927 H   0  0  0  0  0  0  0  0  0  0  0  0
   -0.0397   -2.1522   -1.5898 H   0  0  0  0  0  0  0  0  0  0  0  0
    0.6251   -0.5348   -1.2774 H   0  0  0  0  0  0  0  0  0  0  0  0
    0.9067   -0.6619    2.2160 H   0  0  0  0  0  0  0  0  0  0  0  0
   -0.2984   -1.9573    2.2455 H   0  0  0  0  0  0  0  0  0  0  0  0
   -1.7156   -0.1755    1.6598 H   0  0  0  0  0  0  0  0  0  0  0  0
   -0.4111    0.7034    0.8240 H   0  0  0  0  0  0  0  0  0  0  0  0
   -1.4992    0.9126   -1.2344 H   0  0  0  0  0  0  0  0  0  0  0  0
   -1.8920   -0.4939   -2.1882 H   0  0  0  0  0  0  0  0  0  0  0  0
   -3.2486    1.9557    0.0962 H   0  0  0  0  0  0  0  0  0  0  0  0
   -3.8586   -1.9734   -1.6120 H   0  0  0  0  0  0  0  0  0  0  0  0
   -6.2652   -1.8692   -1.0171 H   0  0  0  0  0  0  0  0  0  0  0  0
   -7.9018    2.3111    0.3142 H   0  0  0  0  0  0  0  0  0  0  0  0
   -7.5432    1.5687    1.8936 H   0  0  0  0  0  0  0  0  0  0  0  0
    6.8546   -0.6846   -0.0541 H   0  0  0  0  0  0  0  0  0  0  0  0
    3.3433    1.8573   -0.0222 H   0  0  0  0  0  0  0  0  0  0  0  0
    8.2087    1.3821   -0.2839 H   0  0  0  0  0  0  0  0  0  0  0  0
    4.8661    3.7856   -0.2525 H   0  0  0  0  0  0  0  0  0  0  0  0
  1 13  1  0  0  0  0
  1 17  1  0  0  0  0
  2 18  1  0  0  0  0
  2 22  1  0  0  0  0
  3 20  1  0  0  0  0
  3 22  1  0  0  0  0
  4  9  1  0  0  0  0
  4 11  1  0  0  0  0
  4 12  1  0  0  0  0
  5  6  1  0  0  0  0
  5 13  2  0  0  0  0
  6 17  2  0  0  0  0
  7 25  2  0  0  0  0
  7 26  1  0  0  0  0
  8  9  1  0  0  0  0
  8 10  1  0  0  0  0
  8 13  1  0  0  0  0
  8 27  1  0  0  0  0
  9 28  1  0  0  0  0
  9 29  1  0  0  0  0
 10 11  1  0  0  0  0
 10 30  1  0  0  0  0
 10 31  1  0  0  0  0
 11 32  1  0  0  0  0
 11 33  1  0  0  0  0
 12 14  1  0  0  0  0
 12 34  1  0  0  0  0
 12 35  1  0  0  0  0
 14 15  2  0  0  0  0
 14 16  1  0  0  0  0
 15 18  1  0  0  0  0
 15 36  1  0  0  0  0
 16 19  2  0  0  0  0
 16 37  1  0  0  0  0
 17 21  1  0  0  0  0
 18 20  2  0  0  0  0
 19 20  1  0  0  0  0
 19 38  1  0  0  0  0
 21 23  2  0  0  0  0
 21 24  1  0  0  0  0
 22 39  1  0  0  0  0
 22 40  1  0  0  0  0
 23 25  1  0  0  0  0
 23 41  1  0  0  0  0
 24 26  2  0  0  0  0
 24 42  1  0  0  0  0
 25 43  1  0  0  0  0
 26 44  1  0  0  0  0
M  END
> <PUBCHEM_COMPOUND_CID>
51137309

> <PUBCHEM_CONFORMER_RMSD>
0.8

> <PUBCHEM_CONFORMER_DIVERSEORDER>
1
40
64
86
65
71
119
10
66
96
92
43
25
97
62
50
109
22
89
84
41
122
42
110
91
24
113
19
121
100
39
21
49
76
85
111
2
44
12
105
75
115
4
59
77
99
74
34
69
55
87
8
101
88
36
118
82
81
57
6
47
117
33
72
102
70
83
3
106
28
107
90
114
27
11
112
5
120
53
26
78
32
58
29
31
38
52
116
9
14
16
103
15
79
63
13
80
108
56
48
20
104
30
73
61
54
17
35
51
7
98
67
37
23
18
68
94
45
95
60
93
46

> <PUBCHEM_MMFF94_PARTIAL_CHARGES>
32
1 -0.28
11 0.27
12 0.41
13 0.3
14 -0.14
15 -0.15
16 -0.15
17 0.43
18 0.08
19 -0.15
2 -0.36
20 0.08
21 0.05
22 0.56
23 -0.15
24 -0.15
25 0.16
26 0.16
3 -0.36
36 0.15
37 0.15
38 0.15
4 -0.81
41 0.15
42 0.15
43 0.15
44 0.15
5 -0.34
6 -0.34
7 -0.62
8 0.18
9 0.27

> <PUBCHEM_EFFECTIVE_ROTOR_COUNT>
5.6

> <PUBCHEM_PHARMACOPHORE_FEATURES>
9
1 2 acceptor
1 3 acceptor
1 4 cation
1 7 acceptor
5 1 5 6 13 17 rings
5 2 3 18 20 22 rings
5 4 8 9 10 11 rings
6 14 15 16 18 19 20 rings
6 7 21 23 24 25 26 rings

> <PUBCHEM_HEAVY_ATOM_COUNT>
26

> <PUBCHEM_ATOM_DEF_STEREO_COUNT>
1

> <PUBCHEM_ATOM_UDEF_STEREO_COUNT>
0

> <PUBCHEM_BOND_DEF_STEREO_COUNT>
0

> <PUBCHEM_BOND_UDEF_STEREO_COUNT>
0

> <PUBCHEM_ISOTOPIC_ATOM_COUNT>
0

> <PUBCHEM_COMPONENT_COUNT>
1

> <PUBCHEM_CACTVS_TAUTO_COUNT>
1

> <PUBCHEM_CONFORMER_ID>
030C4B1D00000001

> <PUBCHEM_MMFF94_ENERGY>
57.0453

> <PUBCHEM_FEATURE_SELFOVERLAP>
45.829

> <PUBCHEM_SHAPE_FINGERPRINT>
10 15 17458063772069551824
10074138 170 15864640599010603346
10411042 1 17904479598828269642
10554248 39 17844234134940957527
10595046 47 18412821387351603335
10638233 991 18342734126719323069
106641 1 13262402181053928870
10670039 82 16056890099884773459
10673678 19 18272655666538394446
10906281 52 17703239429800691491
11273773 42 18340204206134966068
11315181 36 18411135836933168295
11408170 253 17702109067365671225
11456790 92 18187640285381684904
11646440 116 17167861967612154028
1200032 147 18040999605302316336
12035758 1 16588027926397880125
12236239 1 18271804597188490471
12643181 29 13398626165218303604
12730499 353 18113620054218920162
12788726 201 17346323660981910352
12821665 9 18339077215659805751
12895836 83 17846493785580332414
13167372 99 18341048532396621360
13533116 47 17241319171544143514
13668630 136 11959721669247379341
13690498 29 17344617369861422447
13782708 43 11671789256050686370
13955234 65 17823126831502926818
14251757 52 18341333301850910801
14251764 75 18190183567382875260
14394314 77 18412550894812795889
14428016 167 8934460505436202304
14461889 52 17458352965255728411
14681490 219 18412261727248620432
146900 427 18114458981200276395
14849402 71 18337393841667098861
14856354 85 17561081432667604071
14931854 50 17988376965827763056
14933364 13 18412827979841182815
15183329 4 17132119047716122137
15188451 53 11746933196154514766
15419008 145 18116420467817787424
15419008 42 11603909797883297363
15475509 35 15792561956277149394
15475509 8 14261360149948709611
15685185 35 18192156112623236548
1577012 14 18343015588462842559
15840311 113 18337677412872082949
16760501 71 18334016107253977684
16989713 51 16772940563002140295
16994733 274 18410852153214821921
20157964 124 18409449172541572322
21033648 29 18117834620296571936
21298829 104 18339361967823618348
21304303 64 18333449871640317909
21307412 95 13182742579926201700
21315764 119 17060346223416807324
21521721 280 18334579027575313915
21585482 111 18262799558113220805
21641784 216 16486982751986613545
22061861 79 11959726066818928801
2215653 11 12607402204190718958
22224240 67 17530964692106369427
23081809 10 18059842949025615967
23522609 53 17917161520086191553
2747138 104 17386018243227903993
2838139 119 18334004008879497372
3004659 81 17846215493523138686
335352 9 18408324402949535590
3472631 163 18343587369406925990
34797466 226 18201443549550075295
397830 11 18041573511142043883
4073 2 18261115192346208003
4325135 7 18412260636363116559
4340502 62 17095521790564524714
437815 12 11600009855365930050
445580 126 18410565198492532208
5104073 3 16372120006543765609
5265222 85 17631445833868934727
5312510 48 18340767139299135272
5372103 7 16055456470990175880
5385378 56 18260260842442415386
543368 44 18409727374805626245
5718773 13 9151175346006291969
5758199 1 18260831505175879195
5911458 16 18202009806723630265
59682541 35 17676212390270375441
59682541 52 17489041387992531750
6328613 192 18343301440744645617
6608658 132 17274557433272944609

> <PUBCHEM_SHAPE_MULTIPOLES>
497.54
21.71
2.64
1
5.09
0.55
-0.08
14.96
0.06
-3.36
-0.23
0.85
-0.17
-1.83

> <PUBCHEM_SHAPE_SELFOVERLAP>
1105.5

> <PUBCHEM_SHAPE_VOLUME>
266.5

> <PUBCHEM_COORDINATE_TYPE>
2
5
10

$$$$
