11885929
  -OEChem-12032416213D

 58 62  0     1  0  0  0  0  0999 V2000
    1.0614   -5.6181    0.4358 F   0  0  0  0  0  0  0  0  0  0  0  0
   -0.3893    2.4458    2.0688 O   0  0  0  0  0  0  0  0  0  0  0  0
   -3.7801   -1.5088    1.6677 O   0  0  0  0  0  0  0  0  0  0  0  0
    2.6334    0.5484   -1.1823 O   0  0  0  0  0  0  0  0  0  0  0  0
   -4.2297    0.0023   -0.0259 N   0  0  0  0  0  0  0  0  0  0  0  0
   -1.9670    2.2184    0.3603 N   0  0  0  0  0  0  0  0  0  0  0  0
   -3.0049   -1.9654   -0.4690 N   0  0  0  0  0  0  0  0  0  0  0  0
    1.7299    2.0098    0.3750 N   0  0  0  0  0  0  0  0  0  0  0  0
    3.9591    1.4817    0.5149 N   0  0  0  0  0  0  0  0  0  0  0  0
   -4.4885    2.3557    0.7763 C   0  0  1  0  0  0  0  0  0  0  0  0
   -3.6493    1.9286   -1.4936 C   0  0  2  0  0  0  0  0  0  0  0  0
   -4.5619    2.8321   -0.6689 C   0  0  0  0  0  0  0  0  0  0  0  0
   -4.9563    0.8945    0.8823 C   0  0  0  0  0  0  0  0  0  0  0  0
   -3.0566    2.5421    1.2907 C   0  0  0  0  0  0  0  0  0  0  0  0
   -4.1513    0.4709   -1.4215 C   0  0  0  0  0  0  0  0  0  0  0  0
   -2.2163    1.9998   -0.9983 C   0  0  0  0  0  0  0  0  0  0  0  0
   -1.1946    1.8204   -1.8523 C   0  0  0  0  0  0  0  0  0  0  0  0
   -0.6587    2.2415    0.8844 C   0  0  0  0  0  0  0  0  0  0  0  0
   -3.6675   -1.1900    0.4812 C   0  0  0  0  0  0  0  0  0  0  0  0
    0.4499    2.0113   -0.0954 C   0  0  0  0  0  0  0  0  0  0  0  0
    0.1641    1.8254   -1.3884 C   0  0  0  0  0  0  0  0  0  0  0  0
   -1.9641   -2.8984   -0.2380 C   0  0  0  0  0  0  0  0  0  0  0  0
    2.7733    1.2697   -0.1970 C   0  0  0  0  0  0  0  0  0  0  0  0
   -1.4747   -3.6643   -1.2924 C   0  0  0  0  0  0  0  0  0  0  0  0
   -1.4380   -3.0452    1.0426 C   0  0  0  0  0  0  0  0  0  0  0  0
   -0.4511   -4.5842   -1.0645 C   0  0  0  0  0  0  0  0  0  0  0  0
   -0.4145   -3.9650    1.2704 C   0  0  0  0  0  0  0  0  0  0  0  0
    0.0790   -4.7345    0.2170 C   0  0  0  0  0  0  0  0  0  0  0  0
    5.2344    0.9239    0.2640 C   0  0  0  0  0  0  0  0  0  0  0  0
    6.2957    1.2590    1.0891 C   0  0  0  0  0  0  0  0  0  0  0  0
    5.3959    0.0529   -0.8011 C   0  0  0  0  0  0  0  0  0  0  0  0
    7.5532    0.7080    0.8422 C   0  0  0  0  0  0  0  0  0  0  0  0
    6.6534   -0.4981   -1.0479 C   0  0  0  0  0  0  0  0  0  0  0  0
    7.7320   -0.1706   -0.2263 C   0  0  0  0  0  0  0  0  0  0  0  0
   -5.1585    2.9632    1.3973 H   0  0  0  0  0  0  0  0  0  0  0  0
   -3.6961    2.2589   -2.5395 H   0  0  0  0  0  0  0  0  0  0  0  0
   -5.5929    2.7772   -1.0392 H   0  0  0  0  0  0  0  0  0  0  0  0
   -4.2474    3.8804   -0.7471 H   0  0  0  0  0  0  0  0  0  0  0  0
   -4.8759    0.5507    1.9186 H   0  0  0  0  0  0  0  0  0  0  0  0
   -6.0157    0.8248    0.6058 H   0  0  0  0  0  0  0  0  0  0  0  0
   -2.9138    3.5988    1.5555 H   0  0  0  0  0  0  0  0  0  0  0  0
   -2.9044    1.9762    2.2185 H   0  0  0  0  0  0  0  0  0  0  0  0
   -5.1647    0.4005   -1.8354 H   0  0  0  0  0  0  0  0  0  0  0  0
   -3.5083   -0.1565   -2.0403 H   0  0  0  0  0  0  0  0  0  0  0  0
   -1.3628    1.6405   -2.9090 H   0  0  0  0  0  0  0  0  0  0  0  0
    0.9111    1.7114   -2.1647 H   0  0  0  0  0  0  0  0  0  0  0  0
   -3.3050   -1.9018   -1.4355 H   0  0  0  0  0  0  0  0  0  0  0  0
    1.8744    2.3627    1.3172 H   0  0  0  0  0  0  0  0  0  0  0  0
   -1.8794   -3.5566   -2.2954 H   0  0  0  0  0  0  0  0  0  0  0  0
   -1.7523   -2.4532    1.8930 H   0  0  0  0  0  0  0  0  0  0  0  0
    3.9059    2.1153    1.3086 H   0  0  0  0  0  0  0  0  0  0  0  0
   -0.0667   -5.1835   -1.8845 H   0  0  0  0  0  0  0  0  0  0  0  0
    0.0047   -4.0774    2.2660 H   0  0  0  0  0  0  0  0  0  0  0  0
    6.1672    1.9421    1.9241 H   0  0  0  0  0  0  0  0  0  0  0  0
    4.6135   -0.2498   -1.4807 H   0  0  0  0  0  0  0  0  0  0  0  0
    8.3930    0.9629    1.4820 H   0  0  0  0  0  0  0  0  0  0  0  0
    6.7941   -1.1825   -1.8796 H   0  0  0  0  0  0  0  0  0  0  0  0
    8.7109   -0.5997   -0.4184 H   0  0  0  0  0  0  0  0  0  0  0  0
  1 28  1  0  0  0  0
  2 18  2  0  0  0  0
  3 19  2  0  0  0  0
  4 23  2  0  0  0  0
  5 13  1  0  0  0  0
  5 15  1  0  0  0  0
  5 19  1  0  0  0  0
  6 14  1  0  0  0  0
  6 16  1  0  0  0  0
  6 18  1  0  0  0  0
  7 19  1  0  0  0  0
  7 22  1  0  0  0  0
  7 47  1  0  0  0  0
  8 20  1  0  0  0  0
  8 23  1  0  0  0  0
  8 48  1  0  0  0  0
  9 23  1  0  0  0  0
  9 29  1  0  0  0  0
  9 51  1  0  0  0  0
 10 12  1  0  0  0  0
 10 13  1  0  0  0  0
 10 14  1  0  0  0  0
 10 35  1  0  0  0  0
 11 12  1  0  0  0  0
 11 15  1  0  0  0  0
 11 16  1  0  0  0  0
 11 36  1  0  0  0  0
 12 37  1  0  0  0  0
 12 38  1  0  0  0  0
 13 39  1  0  0  0  0
 13 40  1  0  0  0  0
 14 41  1  0  0  0  0
 14 42  1  0  0  0  0
 15 43  1  0  0  0  0
 15 44  1  0  0  0  0
 16 17  2  0  0  0  0
 17 21  1  0  0  0  0
 17 45  1  0  0  0  0
 18 20  1  0  0  0  0
 20 21  2  0  0  0  0
 21 46  1  0  0  0  0
 22 24  2  0  0  0  0
 22 25  1  0  0  0  0
 24 26  1  0  0  0  0
 24 49  1  0  0  0  0
 25 27  2  0  0  0  0
 25 50  1  0  0  0  0
 26 28  2  0  0  0  0
 26 52  1  0  0  0  0
 27 28  1  0  0  0  0
 27 53  1  0  0  0  0
 29 30  2  0  0  0  0
 29 31  1  0  0  0  0
 30 32  1  0  0  0  0
 30 54  1  0  0  0  0
 31 33  2  0  0  0  0
 31 55  1  0  0  0  0
 32 34  2  0  0  0  0
 32 56  1  0  0  0  0
 33 34  1  0  0  0  0
 33 57  1  0  0  0  0
 34 58  1  0  0  0  0
M  END
> <PUBCHEM_COMPOUND_CID>
11885929

> <PUBCHEM_CONFORMER_RMSD>
1

> <PUBCHEM_CONFORMER_DIVERSEORDER>
1
24
22
27
28
20
9
30
29
26
10
25
31
14
21
13
16
8
12
23
15
11
17
18
6
7
19
5
3
4
2

> <PUBCHEM_MMFF94_PARTIAL_CHARGES>
46
1 -0.19
11 0.14
13 0.3
14 0.3
15 0.3
16 -0.03
17 -0.15
18 0.62
19 0.69
2 -0.57
20 0.12
21 -0.15
22 0.12
23 0.69
24 -0.15
25 -0.15
26 -0.15
27 -0.15
28 0.19
29 0.12
3 -0.57
30 -0.15
31 -0.15
32 -0.15
33 -0.15
34 -0.15
4 -0.57
45 0.15
46 0.15
47 0.37
48 0.37
49 0.15
5 -0.66
50 0.15
51 0.37
52 0.15
53 0.15
54 0.15
55 0.15
56 0.15
57 0.15
58 0.15
6 -0.47
7 -0.55
8 -0.54
9 -0.55

> <PUBCHEM_EFFECTIVE_ROTOR_COUNT>
8

> <PUBCHEM_PHARMACOPHORE_FEATURES>
11
1 2 acceptor
1 3 acceptor
1 4 acceptor
1 7 donor
1 8 donor
1 9 donor
6 22 24 25 26 27 28 rings
6 29 30 31 32 33 34 rings
6 5 10 11 12 13 15 rings
6 6 10 11 12 14 16 rings
6 6 16 17 18 20 21 rings

> <PUBCHEM_HEAVY_ATOM_COUNT>
34

> <PUBCHEM_ATOM_DEF_STEREO_COUNT>
2

> <PUBCHEM_ATOM_UDEF_STEREO_COUNT>
0

> <PUBCHEM_BOND_DEF_STEREO_COUNT>
0

> <PUBCHEM_BOND_UDEF_STEREO_COUNT>
0

> <PUBCHEM_ISOTOPIC_ATOM_COUNT>
0

> <PUBCHEM_COMPONENT_COUNT>
1

> <PUBCHEM_CACTVS_TAUTO_COUNT>
6

> <PUBCHEM_CONFORMER_ID>
00B55D6900000001

> <PUBCHEM_MMFF94_ENERGY>
104.2952

> <PUBCHEM_FEATURE_SELFOVERLAP>
57.443

> <PUBCHEM_SHAPE_FINGERPRINT>
11014199 57 17615688870355008466
11200772 71 17898874576021604444
11524674 6 18413386523147654565
12712778 12 18338517559866919278
14020679 6 17846227656691082641
14028597 1 17774175500693349945
14251757 5 18336263561030309938
14659021 117 18051959613630798786
14674994 50 18340491178822536274
14725015 67 18196652011431877675
14856354 85 16877949355685945744
14866123 147 18339078301732974767
15183329 4 13118001089795881320
15274700 242 17023446613399823408
15320294 125 17968090949982017126
15439362 3 17902505996540572349
15927050 60 18341044108965539215
16112460 7 18268713810179251290
16719943 64 18409731772446514010
16993438 75 18129654326976336678
17627616 140 18336820875491156259
19311894 1 18046906258612397682
19611394 137 18129375068767298712
19958102 18 18408317787913682332
20771845 165 17536587414283202925
20775530 9 17402907012049655215
21796203 349 16756668537196296714
229767 44 18335706082580393282
23516275 137 18046366144914920946
3383291 50 18340204206293617307
4017518 198 18412542085385784430
4073 2 18343578569620666888
4625314 4 18339364167653819988
5080951 261 18042662040749550528
5085150 59 18410567367161132658
5265222 85 18335708264371337869
70634741 139 18337960120742186632

> <PUBCHEM_SHAPE_MULTIPOLES>
649.92
14.93
6.26
1.58
35.64
11.83
0.04
-8.02
-0.9
-4.6
-0.46
-0.78
-0.32
0.72

> <PUBCHEM_SHAPE_SELFOVERLAP>
1425.594

> <PUBCHEM_SHAPE_VOLUME>
346.7

> <PUBCHEM_COORDINATE_TYPE>
2
5
10

$$$$
