25390364
  -OEChem-12032416173D

 64 67  0     1  0  0  0  0  0999 V2000
    4.6306   -0.9302   -1.9709 S   0  0  0  0  0  0  0  0  0  0  0  0
    1.6534    2.2995   -0.6832 O   0  0  0  0  0  0  0  0  0  0  0  0
    1.5679    3.8961    2.5328 O   0  0  0  0  0  0  0  0  0  0  0  0
    3.2320    4.6315    0.4692 O   0  0  0  0  0  0  0  0  0  0  0  0
   -1.2075    3.1462   -1.1270 O   0  0  0  0  0  0  0  0  0  0  0  0
    5.9555   -0.3400   -1.9611 O   0  0  0  0  0  0  0  0  0  0  0  0
    4.1585   -1.6435   -3.1422 O   0  0  0  0  0  0  0  0  0  0  0  0
   -2.5516    1.5423   -0.1167 N   0  0  0  0  0  0  0  0  0  0  0  0
    3.4892    0.2746   -1.5073 N   0  0  0  0  0  0  0  0  0  0  0  0
   -4.9387   -0.0940   -0.0494 N   0  0  0  0  0  0  0  0  0  0  0  0
   -6.8404   -0.9280    1.0756 N   0  0  0  0  0  0  0  0  0  0  0  0
    0.9314    2.8588    0.4282 C   0  0  2  0  0  0  0  0  0  0  0  0
    1.9277    2.9253    1.5732 C   0  0  1  0  0  0  0  0  0  0  0  0
    3.2116    3.2535    0.8398 C   0  0  1  0  0  0  0  0  0  0  0  0
    3.0719    2.4236   -0.4316 C   0  0  1  0  0  0  0  0  0  0  0  0
   -0.2819    1.9990    0.7346 C   0  0  0  0  0  0  0  0  0  0  0  0
    3.6449    1.0198   -0.2931 C   0  0  0  0  0  0  0  0  0  0  0  0
   -1.3806    2.2876   -0.2588 C   0  0  0  0  0  0  0  0  0  0  0  0
   -3.6637    1.7665   -1.0367 C   0  0  0  0  0  0  0  0  0  0  0  0
   -2.7513    0.5154    0.9085 C   0  0  0  0  0  0  0  0  0  0  0  0
   -4.4509    0.4856   -1.3040 C   0  0  0  0  0  0  0  0  0  0  0  0
   -4.2284    0.2377    1.1883 C   0  0  0  0  0  0  0  0  0  0  0  0
   -6.0686   -0.9083   -0.0342 C   0  0  0  0  0  0  0  0  0  0  0  0
    4.5226   -2.0493   -0.6068 C   0  0  0  0  0  0  0  0  0  0  0  0
   -6.3282   -1.6537   -1.1730 C   0  0  0  0  0  0  0  0  0  0  0  0
    3.6056   -3.0999   -0.6381 C   0  0  0  0  0  0  0  0  0  0  0  0
    5.3521   -1.8801    0.5018 C   0  0  0  0  0  0  0  0  0  0  0  0
   -7.4525   -2.4717   -1.1729 C   0  0  0  0  0  0  0  0  0  0  0  0
   -7.9244   -1.7349    1.0388 C   0  0  0  0  0  0  0  0  0  0  0  0
    3.5182   -3.9815    0.4393 C   0  0  0  0  0  0  0  0  0  0  0  0
    5.2646   -2.7617    1.5791 C   0  0  0  0  0  0  0  0  0  0  0  0
    4.3478   -3.8125    1.5479 C   0  0  0  0  0  0  0  0  0  0  0  0
   -8.2712   -2.5187   -0.0498 C   0  0  0  0  0  0  0  0  0  0  0  0
    4.2543   -4.7553    2.6997 C   0  0  0  0  0  0  0  0  0  0  0  0
    0.6319    3.8800    0.1582 H   0  0  0  0  0  0  0  0  0  0  0  0
    2.0129    1.9509    2.0692 H   0  0  0  0  0  0  0  0  0  0  0  0
    4.1122    3.0499    1.4261 H   0  0  0  0  0  0  0  0  0  0  0  0
    3.5125    2.9265   -1.3004 H   0  0  0  0  0  0  0  0  0  0  0  0
   -0.6563    2.2452    1.7339 H   0  0  0  0  0  0  0  0  0  0  0  0
   -0.0256    0.9352    0.6849 H   0  0  0  0  0  0  0  0  0  0  0  0
    3.1254    0.4760    0.5038 H   0  0  0  0  0  0  0  0  0  0  0  0
    4.7024    1.0979   -0.0208 H   0  0  0  0  0  0  0  0  0  0  0  0
   -3.2943    2.1841   -1.9793 H   0  0  0  0  0  0  0  0  0  0  0  0
   -4.3092    2.5237   -0.5749 H   0  0  0  0  0  0  0  0  0  0  0  0
   -2.2572    0.8039    1.8396 H   0  0  0  0  0  0  0  0  0  0  0  0
   -2.2589   -0.3933    0.5410 H   0  0  0  0  0  0  0  0  0  0  0  0
    2.3017    3.9645    3.1672 H   0  0  0  0  0  0  0  0  0  0  0  0
    4.0529    4.7863   -0.0288 H   0  0  0  0  0  0  0  0  0  0  0  0
   -5.2840    0.7397   -1.9708 H   0  0  0  0  0  0  0  0  0  0  0  0
   -3.8074   -0.2409   -1.8154 H   0  0  0  0  0  0  0  0  0  0  0  0
   -4.2942   -0.5881    1.9071 H   0  0  0  0  0  0  0  0  0  0  0  0
   -4.6986    1.1168    1.6455 H   0  0  0  0  0  0  0  0  0  0  0  0
    2.5309    0.1787   -1.8660 H   0  0  0  0  0  0  0  0  0  0  0  0
   -5.6930   -1.6471   -2.0517 H   0  0  0  0  0  0  0  0  0  0  0  0
    2.9449   -3.2455   -1.4880 H   0  0  0  0  0  0  0  0  0  0  0  0
    6.0710   -1.0672    0.5489 H   0  0  0  0  0  0  0  0  0  0  0  0
   -7.6884   -3.0752   -2.0442 H   0  0  0  0  0  0  0  0  0  0  0  0
   -8.5296   -1.7360    1.9393 H   0  0  0  0  0  0  0  0  0  0  0  0
    2.7999   -4.7963    0.4033 H   0  0  0  0  0  0  0  0  0  0  0  0
    5.9168   -2.6202    2.4368 H   0  0  0  0  0  0  0  0  0  0  0  0
   -9.1520   -3.1500   -0.0269 H   0  0  0  0  0  0  0  0  0  0  0  0
    4.9372   -5.5978    2.5518 H   0  0  0  0  0  0  0  0  0  0  0  0
    4.5108   -4.2565    3.6405 H   0  0  0  0  0  0  0  0  0  0  0  0
    3.2362   -5.1438    2.8108 H   0  0  0  0  0  0  0  0  0  0  0  0
  1  6  2  0  0  0  0
  1  7  2  0  0  0  0
  1  9  1  0  0  0  0
  1 24  1  0  0  0  0
  2 12  1  0  0  0  0
  2 15  1  0  0  0  0
  3 13  1  0  0  0  0
  3 47  1  0  0  0  0
  4 14  1  0  0  0  0
  4 48  1  0  0  0  0
  5 18  2  0  0  0  0
  8 18  1  0  0  0  0
  8 19  1  0  0  0  0
  8 20  1  0  0  0  0
  9 17  1  0  0  0  0
  9 53  1  0  0  0  0
 10 21  1  0  0  0  0
 10 22  1  0  0  0  0
 10 23  1  0  0  0  0
 11 23  1  0  0  0  0
 11 29  2  0  0  0  0
 12 13  1  0  0  0  0
 12 16  1  0  0  0  0
 12 35  1  0  0  0  0
 13 14  1  0  0  0  0
 13 36  1  0  0  0  0
 14 15  1  0  0  0  0
 14 37  1  0  0  0  0
 15 17  1  0  0  0  0
 15 38  1  0  0  0  0
 16 18  1  0  0  0  0
 16 39  1  0  0  0  0
 16 40  1  0  0  0  0
 17 41  1  0  0  0  0
 17 42  1  0  0  0  0
 19 21  1  0  0  0  0
 19 43  1  0  0  0  0
 19 44  1  0  0  0  0
 20 22  1  0  0  0  0
 20 45  1  0  0  0  0
 20 46  1  0  0  0  0
 21 49  1  0  0  0  0
 21 50  1  0  0  0  0
 22 51  1  0  0  0  0
 22 52  1  0  0  0  0
 23 25  2  0  0  0  0
 24 26  2  0  0  0  0
 24 27  1  0  0  0  0
 25 28  1  0  0  0  0
 25 54  1  0  0  0  0
 26 30  1  0  0  0  0
 26 55  1  0  0  0  0
 27 31  2  0  0  0  0
 27 56  1  0  0  0  0
 28 33  2  0  0  0  0
 28 57  1  0  0  0  0
 29 33  1  0  0  0  0
 29 58  1  0  0  0  0
 30 32  2  0  0  0  0
 30 59  1  0  0  0  0
 31 32  1  0  0  0  0
 31 60  1  0  0  0  0
 32 34  1  0  0  0  0
 33 61  1  0  0  0  0
 34 62  1  0  0  0  0
 34 63  1  0  0  0  0
 34 64  1  0  0  0  0
M  END
> <PUBCHEM_COMPOUND_CID>
25390364

> <PUBCHEM_CONFORMER_RMSD>
1.2

> <PUBCHEM_CONFORMER_DIVERSEORDER>
1
164
163
38
157
57
180
122
33
59
142
82
159
78
128
210
169
220
25
193
141
137
66
96
152
29
108
72
218
170
144
26
153
49
221
156
47
133
12
55
126
191
148
77
127
86
68
223
206
195
107
224
90
91
24
75
100
214
219
125
2
222
146
123
132
119
178
63
84
165
138
188
8
149
89
130
9
87
3
54
103
10
211
205
48
114
40
99
94
20
145
215
109
199
113
189
69
11
136
120
111
179
58
185
106
92
204
129
150
203
155
202
181
80
134
182
98
14
197
118
112
151
212
207
36
147
209
198
50
39
97
13
140
208
16
139
61
166
177
121
62
105
175
46
53
192
28
23
196
158
171
160
172
83
42
56
115
200
190
51
64
117
161
187
41
102
116
43
213
131
70
194
44
173
216
34
124
4
30
154
186
32
201
35
174
45
183
67
19
93
17
167
184
217
176
5
162
71
85
168
79
27
88
110
21
73
104
74
7
101
18
95
76
37
135
31
22
60
6
81
65
52
143
15

> <PUBCHEM_MMFF94_PARTIAL_CHARGES>
45
1 1.45
10 -0.84
11 -0.62
12 0.28
13 0.28
14 0.28
15 0.28
16 0.06
17 0.36
18 0.57
19 0.3
2 -0.56
20 0.3
21 0.37
22 0.37
23 0.41
24 -0.01
25 -0.15
26 -0.15
27 -0.15
28 -0.15
29 0.16
3 -0.68
30 -0.15
31 -0.15
32 -0.14
33 -0.15
34 0.14
4 -0.68
47 0.4
48 0.4
5 -0.57
53 0.42
54 0.15
55 0.15
56 0.15
57 0.15
58 0.15
59 0.15
6 -0.65
60 0.15
61 0.15
7 -0.65
8 -0.66
9 -0.91

> <PUBCHEM_EFFECTIVE_ROTOR_COUNT>
10.2

> <PUBCHEM_PHARMACOPHORE_FEATURES>
15
1 10 cation
1 11 acceptor
1 2 acceptor
1 3 acceptor
1 3 donor
1 4 acceptor
1 4 donor
1 5 acceptor
1 6 acceptor
1 7 acceptor
1 9 donor
5 2 12 13 14 15 rings
6 11 23 25 28 29 33 rings
6 24 26 27 30 31 32 rings
6 8 10 19 20 21 22 rings

> <PUBCHEM_HEAVY_ATOM_COUNT>
34

> <PUBCHEM_ATOM_DEF_STEREO_COUNT>
4

> <PUBCHEM_ATOM_UDEF_STEREO_COUNT>
0

> <PUBCHEM_BOND_DEF_STEREO_COUNT>
0

> <PUBCHEM_BOND_UDEF_STEREO_COUNT>
0

> <PUBCHEM_ISOTOPIC_ATOM_COUNT>
0

> <PUBCHEM_COMPONENT_COUNT>
1

> <PUBCHEM_CACTVS_TAUTO_COUNT>
1

> <PUBCHEM_CONFORMER_ID>
01836D1C00000001

> <PUBCHEM_MMFF94_ENERGY>
90.0836

> <PUBCHEM_FEATURE_SELFOVERLAP>
76.156

> <PUBCHEM_SHAPE_FINGERPRINT>
10622 236 17898851245353381722
10908659 184 18131066017975338615
11227150 75 17460859710540137082
11534866 41 18055062431212706433
11801155 225 18126846234135271631
11966995 16 18261668255970573823
12107183 9 17915762898415163569
12147406 95 18114728378691670208
12975358 362 9799411195976546655
13008946 335 17769082781740401240
13533116 47 17987805240818143593
13553639 21 18335710382186575067
13782708 43 18334573543149593725
14150023 79 18267583697057606488
14347332 77 18337108978187265453
15019793 15 18194960975338879751
15328684 2 16414380969167261171
15475509 35 18341610455563143985
17134984 74 18261117391701175046
17324776 126 17681262266341096346
19301679 30 18342457045568548809
19315092 285 18273497879323310977
19841028 212 18200305671940092327
20775438 99 18190167078607956451
21585483 132 18129368467023185551
21703447 108 18272650160385878200
23569914 152 17760048897963515589
23569943 247 18408887309515980323
24893989 43 18058170716019820286
24983565 74 17986667289508103511
25222932 49 18411422774617857894
2748736 6 9367340414944478535
397830 11 10591761035234773693
439807 62 18260269612422619007
50009960 94 18116972447665021098
57527295 17 18263658285727111544
59025328 239 16879926132444832342
613672 6 17843673362283026820
6201460 15 17755574945694789602
6677587 24 16589164899116028526
6697151 62 17987779853356653853
86090 222 18334580191046909171
9831232 110 18261392299831067917

> <PUBCHEM_SHAPE_MULTIPOLES>
648.41
21.05
6.5
2.16
41.78
0.02
-0.24
24.87
-1.95
-9.5
3.71
-3.03
0.93
-1.25

> <PUBCHEM_SHAPE_SELFOVERLAP>
1361.263

> <PUBCHEM_SHAPE_VOLUME>
366.5

> <PUBCHEM_COORDINATE_TYPE>
2
5
10

$$$$
