75536971
  -OEChem-12032416303D

 42 45  0     1  0  0  0  0  0999 V2000
   -2.8238    2.4082    0.2734 O   0  0  0  0  0  0  0  0  0  0  0  0
    4.1245    2.1381    0.0367 O   0  0  0  0  0  0  0  0  0  0  0  0
   -0.6818    1.4880    0.2437 N   0  0  0  0  0  0  0  0  0  0  0  0
    2.0092    1.2537   -0.4161 N   0  0  0  0  0  0  0  0  0  0  0  0
   -2.4299    0.0558    0.0795 N   0  0  0  0  0  0  0  0  0  0  0  0
    5.0898   -2.0323   -1.0249 N   0  0  0  0  0  0  0  0  0  0  0  0
   -0.0776    0.1744    0.2872 C   0  0  2  0  0  0  0  0  0  0  0  0
    1.1167    0.1043   -0.6591 C   0  0  0  0  0  0  0  0  0  0  0  0
   -1.2285   -0.7586   -0.0655 C   0  0  0  0  0  0  0  0  0  0  0  0
    0.1531    2.6705    0.3766 C   0  0  0  0  0  0  0  0  0  0  0  0
    1.3636    2.5666   -0.5493 C   0  0  0  0  0  0  0  0  0  0  0  0
   -2.0855    1.4337    0.2125 C   0  0  0  0  0  0  0  0  0  0  0  0
   -3.7407   -0.4986    0.0078 C   0  0  0  0  0  0  0  0  0  0  0  0
    3.3724    1.1785   -0.1263 C   0  0  0  0  0  0  0  0  0  0  0  0
   -4.8557    0.3374    0.0680 C   0  0  0  0  0  0  0  0  0  0  0  0
   -3.9089   -1.8771   -0.1223 C   0  0  0  0  0  0  0  0  0  0  0  0
    3.9767   -0.1526    0.0108 C   0  0  0  0  0  0  0  0  0  0  0  0
   -6.1389   -0.2051   -0.0020 C   0  0  0  0  0  0  0  0  0  0  0  0
   -5.1919   -2.4197   -0.1923 C   0  0  0  0  0  0  0  0  0  0  0  0
    4.0240   -0.7943    1.2434 C   0  0  0  0  0  0  0  0  0  0  0  0
    4.5186   -0.8083   -1.0829 C   0  0  0  0  0  0  0  0  0  0  0  0
   -6.3069   -1.5837   -0.1321 C   0  0  0  0  0  0  0  0  0  0  0  0
    4.6038   -2.0542    1.3433 C   0  0  0  0  0  0  0  0  0  0  0  0
    5.1176   -2.6249    0.1899 C   0  0  0  0  0  0  0  0  0  0  0  0
    0.2463    0.0110    1.3232 H   0  0  0  0  0  0  0  0  0  0  0  0
    1.6314   -0.8515   -0.5421 H   0  0  0  0  0  0  0  0  0  0  0  0
    0.7960    0.1772   -1.7058 H   0  0  0  0  0  0  0  0  0  0  0  0
   -1.1739   -1.1149   -1.1003 H   0  0  0  0  0  0  0  0  0  0  0  0
   -1.2445   -1.6105    0.6218 H   0  0  0  0  0  0  0  0  0  0  0  0
   -0.4355    3.5682    0.1644 H   0  0  0  0  0  0  0  0  0  0  0  0
    0.4767    2.7143    1.4228 H   0  0  0  0  0  0  0  0  0  0  0  0
    1.0508    2.6619   -1.5960 H   0  0  0  0  0  0  0  0  0  0  0  0
    2.0694    3.3759   -0.3383 H   0  0  0  0  0  0  0  0  0  0  0  0
   -4.7982    1.4123    0.1695 H   0  0  0  0  0  0  0  0  0  0  0  0
   -3.0706   -2.5641   -0.1794 H   0  0  0  0  0  0  0  0  0  0  0  0
   -7.0079    0.4448    0.0450 H   0  0  0  0  0  0  0  0  0  0  0  0
   -5.3235   -3.4929   -0.2952 H   0  0  0  0  0  0  0  0  0  0  0  0
    3.6116   -0.3216    2.1307 H   0  0  0  0  0  0  0  0  0  0  0  0
    4.5107   -0.3579   -2.0709 H   0  0  0  0  0  0  0  0  0  0  0  0
   -7.3059   -2.0062   -0.1869 H   0  0  0  0  0  0  0  0  0  0  0  0
    4.6516   -2.5732    2.2937 H   0  0  0  0  0  0  0  0  0  0  0  0
    5.5800   -3.6062    0.2143 H   0  0  0  0  0  0  0  0  0  0  0  0
  1 12  2  0  0  0  0
  2 14  2  0  0  0  0
  3  7  1  0  0  0  0
  3 10  1  0  0  0  0
  3 12  1  0  0  0  0
  4  8  1  0  0  0  0
  4 11  1  0  0  0  0
  4 14  1  0  0  0  0
  5  9  1  0  0  0  0
  5 12  1  0  0  0  0
  5 13  1  0  0  0  0
  6 21  1  0  0  0  0
  6 24  2  0  0  0  0
  7  8  1  0  0  0  0
  7  9  1  0  0  0  0
  7 25  1  0  0  0  0
  8 26  1  0  0  0  0
  8 27  1  0  0  0  0
  9 28  1  0  0  0  0
  9 29  1  0  0  0  0
 10 11  1  0  0  0  0
 10 30  1  0  0  0  0
 10 31  1  0  0  0  0
 11 32  1  0  0  0  0
 11 33  1  0  0  0  0
 13 15  2  0  0  0  0
 13 16  1  0  0  0  0
 14 17  1  0  0  0  0
 15 18  1  0  0  0  0
 15 34  1  0  0  0  0
 16 19  2  0  0  0  0
 16 35  1  0  0  0  0
 17 20  1  0  0  0  0
 17 21  2  0  0  0  0
 18 22  2  0  0  0  0
 18 36  1  0  0  0  0
 19 22  1  0  0  0  0
 19 37  1  0  0  0  0
 20 23  2  0  0  0  0
 20 38  1  0  0  0  0
 21 39  1  0  0  0  0
 22 40  1  0  0  0  0
 23 24  1  0  0  0  0
 23 41  1  0  0  0  0
 24 42  1  0  0  0  0
M  END
> <PUBCHEM_COMPOUND_CID>
75536971

> <PUBCHEM_CONFORMER_RMSD>
0.8

> <PUBCHEM_CONFORMER_DIVERSEORDER>
1
18
11
9
15
8
6
3
10
12
17
14
16
7
4
13
2
5

> <PUBCHEM_MMFF94_PARTIAL_CHARGES>
33
1 -0.57
10 0.3
11 0.3
12 0.69
13 0.12
14 0.54
15 -0.15
16 -0.15
17 0.09
18 -0.15
19 -0.15
2 -0.57
20 -0.15
21 0.16
22 -0.15
23 -0.15
24 0.16
3 -0.66
34 0.15
35 0.15
36 0.15
37 0.15
38 0.15
39 0.15
4 -0.66
40 0.15
41 0.15
42 0.15
5 -0.48
6 -0.62
7 0.3
8 0.3
9 0.3

> <PUBCHEM_EFFECTIVE_ROTOR_COUNT>
4.2

> <PUBCHEM_PHARMACOPHORE_FEATURES>
7
1 1 acceptor
1 2 acceptor
1 6 acceptor
5 3 5 7 9 12 rings
6 13 15 16 18 19 22 rings
6 3 4 7 8 10 11 rings
6 6 17 20 21 23 24 rings

> <PUBCHEM_HEAVY_ATOM_COUNT>
24

> <PUBCHEM_ATOM_DEF_STEREO_COUNT>
1

> <PUBCHEM_ATOM_UDEF_STEREO_COUNT>
0

> <PUBCHEM_BOND_DEF_STEREO_COUNT>
0

> <PUBCHEM_BOND_UDEF_STEREO_COUNT>
0

> <PUBCHEM_ISOTOPIC_ATOM_COUNT>
0

> <PUBCHEM_COMPONENT_COUNT>
1

> <PUBCHEM_CACTVS_TAUTO_COUNT>
1

> <PUBCHEM_CONFORMER_ID>
04809A4B00000001

> <PUBCHEM_MMFF94_ENERGY>
78.2782

> <PUBCHEM_FEATURE_SELFOVERLAP>
35.618

> <PUBCHEM_SHAPE_FINGERPRINT>
10 15 11312049963791287023
10622 236 17316182641867831290
11719270 70 17917712401176619647
1200032 147 12894777208590902322
12107183 9 18268155253903780881
12166972 35 18040439892856976613
12403259 226 18410288107944947941
12422481 6 17489872618018453655
12839892 36 17988923362243814455
13073987 5 18341333387729112393
13167823 11 18410292514469727270
13533116 47 18410574015432558680
13782708 43 17968376849165452243
13862211 1 18413105070157716935
13955234 65 17981889953980999353
1420 369 18411981351629920058
14211702 104 18335987579369914723
14251740 57 18343582949875379138
14347332 77 18334571313745042837
14866123 147 18269280058857693993
15042514 8 18340769217752037521
15183329 4 18408040710994291887
15196674 1 18411983576554991093
15324115 91 15502646084217646882
15420108 30 17618791254145284257
15927050 60 17837772592735411822
17349148 13 18272939314494113911
17492 89 18412545384210505606
17844677 252 18409452479223233041
17857418 61 18408603651724879899
1813 80 17748542649742964500
18222031 100 18411703175293425370
1979834 28 17346888844350331358
19958102 18 18041548192457611327
20028762 73 18343300353522567998
20567600 234 13039183740976797699
20645477 70 18335983142625700622
21033648 29 14692581992060160977
21267235 1 18411426089683743870
21279426 13 18334850598525945997
21478907 32 18409166571713932173
21641784 216 14562800032995064015
21682296 61 18342746182687534191
23522609 53 18120972496536668365
23559900 14 18337947991522051025
25147074 1 18338536173791644933
3004659 81 18333733524486804646
335352 9 18411420584305953445
3680242 22 18411990173809354739
4073 2 18043535134116664259
44062 13 18261669260296295813
46194498 28 17168143502554707900
465052 167 18343305851422948726
5104073 3 18202283589054932169
559249 180 18264486196449324801
59682541 52 15068887647247933771
59755656 215 18338516318521585919
6034566 193 10950898954125466506
7970288 3 18265049142119211818
960060 61 17603591828793390158
9709674 26 18262806275383009714

> <PUBCHEM_SHAPE_MULTIPOLES>
462.25
14.96
3.08
0.89
8.22
0.49
-0.06
-11.47
0.23
-1.5
-0.1
-1.07
-0.27
-0.69

> <PUBCHEM_SHAPE_SELFOVERLAP>
1006.981

> <PUBCHEM_SHAPE_VOLUME>
248

> <PUBCHEM_COORDINATE_TYPE>
2
5
10

$$$$
