40777506
  -OEChem-12032416173D

 59 61  0     1  0  0  0  0  0999 V2000
    5.3333    0.0167    1.2681 O   0  0  0  0  0  0  0  0  0  0  0  0
   -2.6110    0.8946    1.6502 O   0  0  0  0  0  0  0  0  0  0  0  0
   -8.4911    0.2413   -0.4936 O   0  0  0  0  0  0  0  0  0  0  0  0
    1.2877   -3.2438   -0.3326 N   0  0  0  0  0  0  0  0  0  0  0  0
    5.6535    0.7960   -0.8978 N   0  0  0  0  0  0  0  0  0  0  0  0
   -1.2236    0.9222    1.7244 N   0  0  0  0  0  0  0  0  0  0  0  0
    2.7448   -0.9159    0.7465 C   0  0  1  0  0  0  0  0  0  0  0  0
    1.2169   -0.9062    0.5020 C   0  0  2  0  0  0  0  0  0  0  0  0
    3.2121   -2.3676    0.9444 C   0  0  0  0  0  0  0  0  0  0  0  0
    0.8135   -1.8878   -0.6112 C   0  0  0  0  0  0  0  0  0  0  0  0
    3.5573   -0.2268   -0.3563 C   0  0  0  0  0  0  0  0  0  0  0  0
    2.7401   -3.2906   -0.1783 C   0  0  0  0  0  0  0  0  0  0  0  0
    0.6652    0.4904    0.2127 C   0  0  0  0  0  0  0  0  0  0  0  0
    4.9308    0.1936    0.1216 C   0  0  0  0  0  0  0  0  0  0  0  0
   -0.8051    0.5693    0.5056 C   0  0  0  0  0  0  0  0  0  0  0  0
    6.9975    1.2971   -0.7225 C   0  0  0  0  0  0  0  0  0  0  0  0
   -1.8729    0.3095   -0.3708 C   0  0  0  0  0  0  0  0  0  0  0  0
    7.4914    1.8957   -2.0447 C   0  0  0  0  0  0  0  0  0  0  0  0
    6.9917    2.3761    0.3653 C   0  0  0  0  0  0  0  0  0  0  0  0
    7.9178    0.1443   -0.3053 C   0  0  0  0  0  0  0  0  0  0  0  0
   -2.9855    0.5285    0.3977 C   0  0  0  0  0  0  0  0  0  0  0  0
   -4.3992    0.4557    0.1684 C   0  0  0  0  0  0  0  0  0  0  0  0
   -4.8844    0.0883   -1.0867 C   0  0  0  0  0  0  0  0  0  0  0  0
   -5.2893    0.7518    1.2009 C   0  0  0  0  0  0  0  0  0  0  0  0
   -6.2594    0.0172   -1.3096 C   0  0  0  0  0  0  0  0  0  0  0  0
   -6.6644    0.6806    0.9781 C   0  0  0  0  0  0  0  0  0  0  0  0
   -7.1494    0.3134   -0.2771 C   0  0  0  0  0  0  0  0  0  0  0  0
   -8.9182   -0.1436   -1.7995 C   0  0  0  0  0  0  0  0  0  0  0  0
    2.9176   -0.3799    1.6900 H   0  0  0  0  0  0  0  0  0  0  0  0
    0.7572   -1.2695    1.4347 H   0  0  0  0  0  0  0  0  0  0  0  0
    2.8135   -2.7385    1.8984 H   0  0  0  0  0  0  0  0  0  0  0  0
    4.3031   -2.4246    1.0278 H   0  0  0  0  0  0  0  0  0  0  0  0
   -0.2756   -1.9419   -0.6973 H   0  0  0  0  0  0  0  0  0  0  0  0
    1.1930   -1.5524   -1.5844 H   0  0  0  0  0  0  0  0  0  0  0  0
    3.0671    0.6965   -0.6827 H   0  0  0  0  0  0  0  0  0  0  0  0
    3.6668   -0.8595   -1.2428 H   0  0  0  0  0  0  0  0  0  0  0  0
    3.2316   -3.0462   -1.1264 H   0  0  0  0  0  0  0  0  0  0  0  0
    3.0303   -4.3187    0.0662 H   0  0  0  0  0  0  0  0  0  0  0  0
    0.8347    0.7774   -0.8323 H   0  0  0  0  0  0  0  0  0  0  0  0
    1.1799    1.2354    0.8334 H   0  0  0  0  0  0  0  0  0  0  0  0
    1.0095   -3.8617   -1.0944 H   0  0  0  0  0  0  0  0  0  0  0  0
    5.2199    0.8915   -1.8121 H   0  0  0  0  0  0  0  0  0  0  0  0
   -1.8295    0.0107   -1.4080 H   0  0  0  0  0  0  0  0  0  0  0  0
    8.5100    2.2880   -1.9507 H   0  0  0  0  0  0  0  0  0  0  0  0
    6.8438    2.7172   -2.3728 H   0  0  0  0  0  0  0  0  0  0  0  0
    7.4926    1.1443   -2.8430 H   0  0  0  0  0  0  0  0  0  0  0  0
    6.2642    3.1638    0.1361 H   0  0  0  0  0  0  0  0  0  0  0  0
    7.9771    2.8502    0.4464 H   0  0  0  0  0  0  0  0  0  0  0  0
    6.7490    1.9855    1.3580 H   0  0  0  0  0  0  0  0  0  0  0  0
    8.9619    0.4762   -0.2644 H   0  0  0  0  0  0  0  0  0  0  0  0
    7.8618   -0.6840   -1.0216 H   0  0  0  0  0  0  0  0  0  0  0  0
    7.6776   -0.2611    0.6821 H   0  0  0  0  0  0  0  0  0  0  0  0
   -4.2148   -0.1482   -1.9098 H   0  0  0  0  0  0  0  0  0  0  0  0
   -4.9505    1.0415    2.1923 H   0  0  0  0  0  0  0  0  0  0  0  0
   -6.5680   -0.2748   -2.3076 H   0  0  0  0  0  0  0  0  0  0  0  0
   -7.3533    0.9119    1.7860 H   0  0  0  0  0  0  0  0  0  0  0  0
  -10.0131   -0.1493   -1.7928 H   0  0  0  0  0  0  0  0  0  0  0  0
   -8.5949   -1.1609   -2.0452 H   0  0  0  0  0  0  0  0  0  0  0  0
   -8.6070    0.5851   -2.5557 H   0  0  0  0  0  0  0  0  0  0  0  0
  1 14  2  0  0  0  0
  2  6  1  0  0  0  0
  2 21  1  0  0  0  0
  3 27  1  0  0  0  0
  3 28  1  0  0  0  0
  4 10  1  0  0  0  0
  4 12  1  0  0  0  0
  4 41  1  0  0  0  0
  5 14  1  0  0  0  0
  5 16  1  0  0  0  0
  5 42  1  0  0  0  0
  6 15  2  0  0  0  0
  7  8  1  0  0  0  0
  7  9  1  0  0  0  0
  7 11  1  0  0  0  0
  7 29  1  0  0  0  0
  8 10  1  0  0  0  0
  8 13  1  0  0  0  0
  8 30  1  0  0  0  0
  9 12  1  0  0  0  0
  9 31  1  0  0  0  0
  9 32  1  0  0  0  0
 10 33  1  0  0  0  0
 10 34  1  0  0  0  0
 11 14  1  0  0  0  0
 11 35  1  0  0  0  0
 11 36  1  0  0  0  0
 12 37  1  0  0  0  0
 12 38  1  0  0  0  0
 13 15  1  0  0  0  0
 13 39  1  0  0  0  0
 13 40  1  0  0  0  0
 15 17  1  0  0  0  0
 16 18  1  0  0  0  0
 16 19  1  0  0  0  0
 16 20  1  0  0  0  0
 17 21  2  0  0  0  0
 17 43  1  0  0  0  0
 18 44  1  0  0  0  0
 18 45  1  0  0  0  0
 18 46  1  0  0  0  0
 19 47  1  0  0  0  0
 19 48  1  0  0  0  0
 19 49  1  0  0  0  0
 20 50  1  0  0  0  0
 20 51  1  0  0  0  0
 20 52  1  0  0  0  0
 21 22  1  0  0  0  0
 22 23  2  0  0  0  0
 22 24  1  0  0  0  0
 23 25  1  0  0  0  0
 23 53  1  0  0  0  0
 24 26  2  0  0  0  0
 24 54  1  0  0  0  0
 25 27  2  0  0  0  0
 25 55  1  0  0  0  0
 26 27  1  0  0  0  0
 26 56  1  0  0  0  0
 28 57  1  0  0  0  0
 28 58  1  0  0  0  0
 28 59  1  0  0  0  0
M  END
> <PUBCHEM_COMPOUND_CID>
40777506

> <PUBCHEM_CONFORMER_RMSD>
1

> <PUBCHEM_CONFORMER_DIVERSEORDER>
1
15
112
61
100
48
133
63
151
92
96
171
52
3
128
95
106
74
59
111
102
169
120
127
174
66
35
110
155
134
149
162
119
17
28
83
101
146
125
34
40
89
72
140
167
31
12
160
24
82
161
164
152
153
54
108
38
154
136
64
98
129
144
86
58
39
115
30
175
84
137
85
104
37
55
60
157
68
79
73
75
18
99
21
42
103
126
147
105
26
145
121
67
9
32
22
159
113
62
172
46
43
165
19
148
87
88
143
123
94
11
114
91
90
44
57
47
168
2
135
109
170
65
56
117
77
50
76
69
173
93
81
158
118
130
51
4
80
36
8
97
166
53
139
70
6
27
78
116
25
141
20
29
107
71
138
5
131
13
122
45
124
49
142
132
7
156
14
163
176
33
150
41
23
10
16

> <PUBCHEM_MMFF94_PARTIAL_CHARGES>
29
1 -0.57
10 0.27
11 0.06
12 0.27
13 0.18
14 0.57
15 0.11
16 0.3
17 -0.15
2 -0.02
21 0.09
22 0.05
23 -0.15
24 -0.15
25 -0.15
26 -0.15
27 0.08
28 0.28
3 -0.36
4 -0.9
41 0.36
42 0.37
43 0.15
5 -0.73
53 0.15
54 0.15
55 0.15
56 0.15
6 -0.41

> <PUBCHEM_EFFECTIVE_ROTOR_COUNT>
9.2

> <PUBCHEM_PHARMACOPHORE_FEATURES>
10
1 1 acceptor
1 3 acceptor
1 4 cation
1 4 donor
1 5 donor
1 6 acceptor
4 16 18 19 20 hydrophobe
5 2 6 15 17 21 rings
6 22 23 24 25 26 27 rings
6 4 7 8 9 10 12 rings

> <PUBCHEM_HEAVY_ATOM_COUNT>
28

> <PUBCHEM_ATOM_DEF_STEREO_COUNT>
2

> <PUBCHEM_ATOM_UDEF_STEREO_COUNT>
0

> <PUBCHEM_BOND_DEF_STEREO_COUNT>
0

> <PUBCHEM_BOND_UDEF_STEREO_COUNT>
0

> <PUBCHEM_ISOTOPIC_ATOM_COUNT>
0

> <PUBCHEM_COMPONENT_COUNT>
1

> <PUBCHEM_CACTVS_TAUTO_COUNT>
2

> <PUBCHEM_CONFORMER_ID>
026E372200000001

> <PUBCHEM_MMFF94_ENERGY>
64.0424

> <PUBCHEM_FEATURE_SELFOVERLAP>
50.746

> <PUBCHEM_SHAPE_FINGERPRINT>
10 15 17385442128598197378
10299344 5 17703790306257775511
10533779 1 18120374513796218748
10595046 47 18270683056778818665
10835480 77 17894632548144191481
11135609 187 18410291385615956801
11315181 36 17967253097100752353
11409948 35 15575263287489266210
11443803 9 18271517672584350170
11823591 26 18408603691371115474
12144603 126 17989212517497548785
12236239 1 17989207002131448641
12373685 5 17168415047641214675
12838862 33 18336256934201993328
13150687 139 18341062856761907270
13533116 47 18200591389415712467
13540713 5 17842849819214576810
13617811 41 18413384350522736632
14117953 113 18260276257064346996
14118638 360 18337390440216147529
14251764 18 18060695083980732343
14429380 56 18335136527025579188
1454969 45 18413107264347740061
14767858 380 18201720656449911584
14840074 17 18413668006735405573
15131766 46 16083925060379250084
15352257 5 14405185075307526869
15419008 145 8646503924864723919
15461852 350 15864363462372906179
15537594 2 17775273951168804127
1577012 14 18060138692405423161
16991971 28 16845567656602180773
1754911 235 18343302569741042845
18335252 114 18335140899887537172
18365409 1 18199467842861032111
18681886 176 16773791510969267801
20105231 36 16702020911774632135
20157964 124 18040434370035513698
21049683 118 18189881184842407106
21049683 271 18342455972101050913
21150785 3 18272368681160925541
21267235 1 16630522960712785473
21344244 181 15626227927136503614
21360443 126 18408886269416443150
21403212 168 17966967232519395378
21781051 124 15410896262463926494
21781055 127 13624093015736318542
22224240 67 18334013908483747834
2297311 6 15698001821293839401
23522609 53 17630911342437109577
23559900 14 18341043112606992721
23729417 116 17331129295968077358
246663 6 14189577446691980093
328311 84 12967129419519326101
4073 2 18260834787348987203
4325135 7 18411698781352010197
4340502 62 17094961039824139770
437795 160 14707216560830666521
4403749 210 17605003691743740498
44880568 143 17970058955911140525
45377200 153 15913035587024243183
5486654 2 18273495680146872739
5758199 1 18343304772921589280
6058803 2 17697890167538137107
6081469 158 15140956224229055786
636775 8 17632013157111523599
6669772 16 17749108863887777691
9961470 85 17982448510520915648

> <PUBCHEM_SHAPE_MULTIPOLES>
543.68
26.47
2.29
1.45
14.33
2.21
-0.15
-13.5
-10.14
-5.14
-0.22
0.85
-0.41
-1.76

> <PUBCHEM_SHAPE_SELFOVERLAP>
1139.021

> <PUBCHEM_SHAPE_VOLUME>
307.9

> <PUBCHEM_COORDINATE_TYPE>
2
5
10

$$$$
