11912218
  -OEChem-12032416113D

 52 54  0     1  0  0  0  0  0999 V2000
    5.1665   -0.2405    0.5927 O   0  0  0  0  0  0  0  0  0  0  0  0
   -2.2006   -2.4358   -1.3179 O   0  0  0  0  0  0  0  0  0  0  0  0
    3.0643   -0.4997   -0.3744 N   0  0  0  0  0  0  0  0  0  0  0  0
   -2.6566   -1.7185    0.8452 N   0  0  0  0  0  0  0  0  0  0  0  0
    0.5860   -0.5281   -0.2232 C   0  0  2  0  0  0  0  0  0  0  0  0
    0.6375   -2.0758   -0.2938 C   0  0  1  0  0  0  0  0  0  0  0  0
    3.9608    1.7259    0.2165 C   0  0  0  0  0  0  0  0  0  0  0  0
    1.8243    0.0679   -0.9165 C   0  0  0  0  0  0  0  0  0  0  0  0
    5.1853    2.5932    0.2308 C   0  0  0  0  0  0  0  0  0  0  0  0
    4.3161    2.5423   -0.9913 C   0  0  0  0  0  0  0  0  0  0  0  0
    1.9734   -2.6226    0.2380 C   0  0  0  0  0  0  0  0  0  0  0  0
    3.1605   -1.9564   -0.4527 C   0  0  0  0  0  0  0  0  0  0  0  0
    4.1215    0.2408    0.1629 C   0  0  0  0  0  0  0  0  0  0  0  0
    0.4545    0.0267    1.2007 C   0  0  0  0  0  0  0  0  0  0  0  0
   -0.5393   -2.7487    0.4125 C   0  0  0  0  0  0  0  0  0  0  0  0
    0.3097    1.5337    1.1887 C   0  0  0  0  0  0  0  0  0  0  0  0
   -1.8736   -2.2986   -0.1423 C   0  0  0  0  0  0  0  0  0  0  0  0
   -3.9809   -1.1959    0.5974 C   0  0  0  0  0  0  0  0  0  0  0  0
   -3.9486    0.2526    0.2035 C   0  0  0  0  0  0  0  0  0  0  0  0
   -4.0249    1.2434    1.1824 C   0  0  0  0  0  0  0  0  0  0  0  0
   -3.8417    0.6076   -1.1412 C   0  0  0  0  0  0  0  0  0  0  0  0
   -3.9947    2.5891    0.8167 C   0  0  0  0  0  0  0  0  0  0  0  0
   -3.8113    1.9534   -1.5068 C   0  0  0  0  0  0  0  0  0  0  0  0
   -3.8878    2.9441   -0.5278 C   0  0  0  0  0  0  0  0  0  0  0  0
   -0.2906   -0.1909   -0.7931 H   0  0  0  0  0  0  0  0  0  0  0  0
    0.5800   -2.3457   -1.3590 H   0  0  0  0  0  0  0  0  0  0  0  0
    3.1906    2.0767    0.8887 H   0  0  0  0  0  0  0  0  0  0  0  0
    1.8332    1.1570   -0.9088 H   0  0  0  0  0  0  0  0  0  0  0  0
    1.8043   -0.2095   -1.9791 H   0  0  0  0  0  0  0  0  0  0  0  0
    5.1583    3.4970    0.8281 H   0  0  0  0  0  0  0  0  0  0  0  0
    6.1658    2.1382    0.1629 H   0  0  0  0  0  0  0  0  0  0  0  0
    4.7050    2.0342   -1.8653 H   0  0  0  0  0  0  0  0  0  0  0  0
    3.7006    3.4057   -1.2120 H   0  0  0  0  0  0  0  0  0  0  0  0
    2.0418   -2.4559    1.3200 H   0  0  0  0  0  0  0  0  0  0  0  0
    2.0256   -3.7063    0.0800 H   0  0  0  0  0  0  0  0  0  0  0  0
    4.0943   -2.3099   -0.0041 H   0  0  0  0  0  0  0  0  0  0  0  0
    3.1862   -2.2262   -1.5151 H   0  0  0  0  0  0  0  0  0  0  0  0
   -0.4243   -0.3830    1.7034 H   0  0  0  0  0  0  0  0  0  0  0  0
    1.3207   -0.2445    1.8141 H   0  0  0  0  0  0  0  0  0  0  0  0
   -0.4906   -3.8339    0.2531 H   0  0  0  0  0  0  0  0  0  0  0  0
   -0.4808   -2.6090    1.4973 H   0  0  0  0  0  0  0  0  0  0  0  0
    1.1779    2.0742    0.8261 H   0  0  0  0  0  0  0  0  0  0  0  0
    0.1229    1.8891    2.2083 H   0  0  0  0  0  0  0  0  0  0  0  0
   -0.5500    1.8356    0.5805 H   0  0  0  0  0  0  0  0  0  0  0  0
   -2.3031   -1.6469    1.7942 H   0  0  0  0  0  0  0  0  0  0  0  0
   -4.5663   -1.3325    1.5138 H   0  0  0  0  0  0  0  0  0  0  0  0
   -4.4680   -1.7926   -0.1831 H   0  0  0  0  0  0  0  0  0  0  0  0
   -4.1055    0.9795    2.2336 H   0  0  0  0  0  0  0  0  0  0  0  0
   -3.7836   -0.1530   -1.9148 H   0  0  0  0  0  0  0  0  0  0  0  0
   -4.0529    3.3605    1.5790 H   0  0  0  0  0  0  0  0  0  0  0  0
   -3.7282    2.2300   -2.5538 H   0  0  0  0  0  0  0  0  0  0  0  0
   -3.8636    3.9919   -0.8125 H   0  0  0  0  0  0  0  0  0  0  0  0
  1 13  2  0  0  0  0
  2 17  2  0  0  0  0
  3  8  1  0  0  0  0
  3 12  1  0  0  0  0
  3 13  1  0  0  0  0
  4 17  1  0  0  0  0
  4 18  1  0  0  0  0
  4 45  1  0  0  0  0
  5  6  1  0  0  0  0
  5  8  1  0  0  0  0
  5 14  1  0  0  0  0
  5 25  1  0  0  0  0
  6 11  1  0  0  0  0
  6 15  1  0  0  0  0
  6 26  1  0  0  0  0
  7  9  1  0  0  0  0
  7 10  1  0  0  0  0
  7 13  1  0  0  0  0
  7 27  1  0  0  0  0
  8 28  1  0  0  0  0
  8 29  1  0  0  0  0
  9 10  1  0  0  0  0
  9 30  1  0  0  0  0
  9 31  1  0  0  0  0
 10 32  1  0  0  0  0
 10 33  1  0  0  0  0
 11 12  1  0  0  0  0
 11 34  1  0  0  0  0
 11 35  1  0  0  0  0
 12 36  1  0  0  0  0
 12 37  1  0  0  0  0
 14 16  1  0  0  0  0
 14 38  1  0  0  0  0
 14 39  1  0  0  0  0
 15 17  1  0  0  0  0
 15 40  1  0  0  0  0
 15 41  1  0  0  0  0
 16 42  1  0  0  0  0
 16 43  1  0  0  0  0
 16 44  1  0  0  0  0
 18 19  1  0  0  0  0
 18 46  1  0  0  0  0
 18 47  1  0  0  0  0
 19 20  2  0  0  0  0
 19 21  1  0  0  0  0
 20 22  1  0  0  0  0
 20 48  1  0  0  0  0
 21 23  2  0  0  0  0
 21 49  1  0  0  0  0
 22 24  2  0  0  0  0
 22 50  1  0  0  0  0
 23 24  1  0  0  0  0
 23 51  1  0  0  0  0
 24 52  1  0  0  0  0
M  END
> <PUBCHEM_COMPOUND_CID>
11912218

> <PUBCHEM_CONFORMER_RMSD>
1.2

> <PUBCHEM_CONFORMER_DIVERSEORDER>
4
75
3
47
40
46
5
22
49
59
16
67
32
38
30
76
56
35
25
33
79
55
64
66
2
73
71
43
37
51
15
74
34
78
44
72
20
58
39
41
8
69
53
10
65
6
27
50
28
62
68
54
11
52
63
21
57
13
77
26
45
14
61
19
80
42
9
31
70
81
60
23
29
48
24
1
18
12
17
7
36

> <PUBCHEM_MMFF94_PARTIAL_CHARGES>
30
1 -0.57
10 -0.2
12 0.3
13 0.63
15 0.06
17 0.57
18 0.44
19 -0.14
2 -0.57
20 -0.15
21 -0.15
22 -0.15
23 -0.15
24 -0.15
27 0.1
3 -0.66
30 0.1
31 0.1
32 0.1
33 0.1
4 -0.73
45 0.37
48 0.15
49 0.15
50 0.15
51 0.15
52 0.15
7 -0.1
8 0.3
9 -0.2

> <PUBCHEM_EFFECTIVE_ROTOR_COUNT>
9.8

> <PUBCHEM_PHARMACOPHORE_FEATURES>
6
1 1 acceptor
1 16 hydrophobe
1 2 acceptor
1 4 donor
6 19 20 21 22 23 24 rings
6 3 5 6 8 11 12 rings

> <PUBCHEM_HEAVY_ATOM_COUNT>
24

> <PUBCHEM_ATOM_DEF_STEREO_COUNT>
2

> <PUBCHEM_ATOM_UDEF_STEREO_COUNT>
0

> <PUBCHEM_BOND_DEF_STEREO_COUNT>
0

> <PUBCHEM_BOND_UDEF_STEREO_COUNT>
0

> <PUBCHEM_ISOTOPIC_ATOM_COUNT>
0

> <PUBCHEM_COMPONENT_COUNT>
1

> <PUBCHEM_CACTVS_TAUTO_COUNT>
2

> <PUBCHEM_CONFORMER_ID>
00B5C41A00000004

> <PUBCHEM_MMFF94_ENERGY>
49.4989

> <PUBCHEM_FEATURE_SELFOVERLAP>
30.446

> <PUBCHEM_SHAPE_FINGERPRINT>
10670039 82 18191038995886968028
10883706 163 17688859157465767496
10928967 22 8501787337707691177
11370993 70 18336543833051836397
11595378 159 17750498732299651816
12107183 9 18262504906851514186
12422481 6 17968080985784036016
12596602 18 17023741371976910289
12969540 114 16773518888442250352
13583140 156 17458062633913950337
14251751 93 18334853965390045721
14251764 38 18408887330141236528
14251764 75 18128265484908762265
14466204 15 18339354279758020040
14713325 29 18118691147426464987
14790565 3 18337114587525544772
14848178 96 18411696556575021752
15021287 119 17385715929249708548
15463212 79 18260823843249713739
17959699 21 18411421730592482418
20715895 44 18266172834021980552
21095088 737 18339910581185943581
21279426 13 18269562646072665622
21315764 268 18333729134761339157
22956985 138 16023118961422062371
23559900 14 18200879466189712314
3117164 225 18187634761853463914
350125 39 18341053033875834099
469060 322 17973749127165457299
5104073 3 18260551095356489411
5283173 99 18412266146922325176
633830 44 18058173834376040141
79837 15 17968666037138809034

> <PUBCHEM_SHAPE_MULTIPOLES>
472.21
11.2
3.91
1.2
3.83
0
0.09
-8.68
0.22
-0.24
0.31
-0.82
-0.35
0.14

> <PUBCHEM_SHAPE_SELFOVERLAP>
974.495

> <PUBCHEM_SHAPE_VOLUME>
269.3

> <PUBCHEM_COORDINATE_TYPE>
2
5
10

$$$$
