75367101
  -OEChem-12032416393D

 50 51  0     1  0  0  0  0  0999 V2000
    0.3540    0.3790   -1.2131 O   0  0  0  0  0  0  0  0  0  0  0  0
   -0.5813   -1.8928    1.4079 O   0  0  0  0  0  0  0  0  0  0  0  0
    3.9189   -0.6725    1.2936 O   0  0  0  0  0  0  0  0  0  0  0  0
   -2.9570   -0.8764   -0.3806 N   0  0  0  0  0  0  0  0  0  0  0  0
    3.0363   -0.5948   -0.8538 N   0  0  0  0  0  0  0  0  0  0  0  0
    5.0065    0.5100   -0.3804 N   0  0  0  0  0  0  0  0  0  0  0  0
   -1.6401   -0.3156   -0.1255 C   0  0  1  0  0  0  0  0  0  0  0  0
   -3.9912    0.1469   -0.2399 C   0  0  0  0  0  0  0  0  0  0  0  0
   -0.5648   -1.3629    0.0966 C   0  0  1  0  0  0  0  0  0  0  0  0
   -5.2600   -0.2899   -0.9805 C   0  0  0  0  0  0  0  0  0  0  0  0
   -4.2765    0.3984    1.2447 C   0  0  0  0  0  0  0  0  0  0  0  0
    0.6952   -0.5511   -0.1718 C   0  0  1  0  0  0  0  0  0  0  0  0
   -1.0792    0.4434   -1.3169 C   0  0  0  0  0  0  0  0  0  0  0  0
   -6.3903    0.7205   -0.7917 C   0  0  0  0  0  0  0  0  0  0  0  0
   -5.4076    1.4085    1.4305 C   0  0  0  0  0  0  0  0  0  0  0  0
   -6.6696    0.9832    0.6855 C   0  0  0  0  0  0  0  0  0  0  0  0
    1.8752   -1.4008   -0.6089 C   0  0  0  0  0  0  0  0  0  0  0  0
    3.9832   -0.2865    0.1272 C   0  0  0  0  0  0  0  0  0  0  0  0
    6.1126    0.9707    0.4254 C   0  0  0  0  0  0  0  0  0  0  0  0
    7.2442   -0.0494    0.4133 C   0  0  0  0  0  0  0  0  0  0  0  0
    6.5914    2.3321   -0.0616 C   0  0  0  0  0  0  0  0  0  0  0  0
   -1.6399    0.3363    0.7559 H   0  0  0  0  0  0  0  0  0  0  0  0
   -3.6639    1.0870   -0.7034 H   0  0  0  0  0  0  0  0  0  0  0  0
   -0.6635   -2.1882   -0.6196 H   0  0  0  0  0  0  0  0  0  0  0  0
   -3.1415   -1.6459    0.2622 H   0  0  0  0  0  0  0  0  0  0  0  0
   -5.5928   -1.2705   -0.6151 H   0  0  0  0  0  0  0  0  0  0  0  0
   -5.0521   -0.4041   -2.0515 H   0  0  0  0  0  0  0  0  0  0  0  0
   -3.3972    0.7808    1.7728 H   0  0  0  0  0  0  0  0  0  0  0  0
   -4.5577   -0.5404    1.7406 H   0  0  0  0  0  0  0  0  0  0  0  0
    0.9744    0.0367    0.7126 H   0  0  0  0  0  0  0  0  0  0  0  0
   -1.3543   -0.0188   -2.2721 H   0  0  0  0  0  0  0  0  0  0  0  0
   -1.3916    1.4917   -1.3387 H   0  0  0  0  0  0  0  0  0  0  0  0
   -7.2998    0.3507   -1.2785 H   0  0  0  0  0  0  0  0  0  0  0  0
   -6.1239    1.6628   -1.2861 H   0  0  0  0  0  0  0  0  0  0  0  0
   -5.0825    2.3914    1.0676 H   0  0  0  0  0  0  0  0  0  0  0  0
   -5.6308    1.5198    2.4976 H   0  0  0  0  0  0  0  0  0  0  0  0
   -7.4354    1.7608    0.7834 H   0  0  0  0  0  0  0  0  0  0  0  0
   -7.0760    0.0745    1.1465 H   0  0  0  0  0  0  0  0  0  0  0  0
    2.1114   -2.1539    0.1504 H   0  0  0  0  0  0  0  0  0  0  0  0
    1.6530   -1.9135   -1.5512 H   0  0  0  0  0  0  0  0  0  0  0  0
   -0.4960   -1.1563    2.0367 H   0  0  0  0  0  0  0  0  0  0  0  0
    3.1694   -0.2164   -1.7867 H   0  0  0  0  0  0  0  0  0  0  0  0
    5.0110    0.7136   -1.3755 H   0  0  0  0  0  0  0  0  0  0  0  0
    5.7600    1.0789    1.4582 H   0  0  0  0  0  0  0  0  0  0  0  0
    7.6215   -0.2112   -0.6027 H   0  0  0  0  0  0  0  0  0  0  0  0
    6.9032   -1.0179    0.7951 H   0  0  0  0  0  0  0  0  0  0  0  0
    8.0790    0.2844    1.0384 H   0  0  0  0  0  0  0  0  0  0  0  0
    6.9505    2.2818   -1.0956 H   0  0  0  0  0  0  0  0  0  0  0  0
    5.7765    3.0637   -0.0313 H   0  0  0  0  0  0  0  0  0  0  0  0
    7.4071    2.7077    0.5648 H   0  0  0  0  0  0  0  0  0  0  0  0
  1 12  1  0  0  0  0
  1 13  1  0  0  0  0
  2  9  1  0  0  0  0
  2 41  1  0  0  0  0
  3 18  2  0  0  0  0
  4  7  1  0  0  0  0
  4  8  1  0  0  0  0
  4 25  1  0  0  0  0
  5 17  1  0  0  0  0
  5 18  1  0  0  0  0
  5 42  1  0  0  0  0
  6 18  1  0  0  0  0
  6 19  1  0  0  0  0
  6 43  1  0  0  0  0
  7  9  1  0  0  0  0
  7 13  1  0  0  0  0
  7 22  1  0  0  0  0
  8 10  1  0  0  0  0
  8 11  1  0  0  0  0
  8 23  1  0  0  0  0
  9 12  1  0  0  0  0
  9 24  1  0  0  0  0
 10 14  1  0  0  0  0
 10 26  1  0  0  0  0
 10 27  1  0  0  0  0
 11 15  1  0  0  0  0
 11 28  1  0  0  0  0
 11 29  1  0  0  0  0
 12 17  1  0  0  0  0
 12 30  1  0  0  0  0
 13 31  1  0  0  0  0
 13 32  1  0  0  0  0
 14 16  1  0  0  0  0
 14 33  1  0  0  0  0
 14 34  1  0  0  0  0
 15 16  1  0  0  0  0
 15 35  1  0  0  0  0
 15 36  1  0  0  0  0
 16 37  1  0  0  0  0
 16 38  1  0  0  0  0
 17 39  1  0  0  0  0
 17 40  1  0  0  0  0
 19 20  1  0  0  0  0
 19 21  1  0  0  0  0
 19 44  1  0  0  0  0
 20 45  1  0  0  0  0
 20 46  1  0  0  0  0
 20 47  1  0  0  0  0
 21 48  1  0  0  0  0
 21 49  1  0  0  0  0
 21 50  1  0  0  0  0
M  END
> <PUBCHEM_COMPOUND_CID>
75367101

> <PUBCHEM_CONFORMER_RMSD>
0.8

> <PUBCHEM_CONFORMER_DIVERSEORDER>
1
237
94
4
49
76
67
69
210
92
206
225
150
120
226
198
176
45
230
73
132
224
95
122
43
196
98
243
219
80
111
59
179
204
140
152
56
173
86
123
246
118
145
156
214
240
174
91
130
235
245
146
138
175
236
136
71
185
192
231
90
84
39
208
104
148
211
183
11
160
105
62
153
201
188
119
9
66
37
124
142
74
6
121
125
217
144
229
79
215
143
47
102
128
112
99
158
190
108
87
61
18
164
228
172
64
89
170
200
162
114
134
159
70
46
131
239
169
115
7
165
36
249
212
149
27
180
53
54
193
75
213
106
154
242
57
135
186
51
218
107
137
207
25
65
151
157
133
96
52
10
72
166
199
234
184
40
8
168
248
216
68
17
233
103
81
244
38
24
101
85
203
147
155
44
181
109
93
22
77
209
83
126
167
60
232
241
139
163
3
187
23
222
113
88
117
227
100
35
97
5
30
20
12
182
63
221
58
247
16
161
194
41
195
78
223
191
32
50
31
2
127
238
42
19
33
13
55
141
48
82
15
220
189
110
116
29
178
129
177
171
205
202
21
14
26
28
197
34

> <PUBCHEM_MMFF94_PARTIAL_CHARGES>
18
1 -0.56
12 0.28
13 0.28
17 0.3
18 0.69
19 0.3
2 -0.68
25 0.36
3 -0.57
4 -0.9
41 0.4
42 0.37
43 0.37
5 -0.73
6 -0.73
7 0.27
8 0.27
9 0.28

> <PUBCHEM_EFFECTIVE_ROTOR_COUNT>
9.2

> <PUBCHEM_PHARMACOPHORE_FEATURES>
11
1 1 acceptor
1 2 acceptor
1 2 donor
1 3 acceptor
1 4 cation
1 4 donor
1 5 donor
1 6 donor
3 19 20 21 hydrophobe
5 1 7 9 12 13 rings
6 8 10 11 14 15 16 rings

> <PUBCHEM_HEAVY_ATOM_COUNT>
21

> <PUBCHEM_ATOM_DEF_STEREO_COUNT>
3

> <PUBCHEM_ATOM_UDEF_STEREO_COUNT>
0

> <PUBCHEM_BOND_DEF_STEREO_COUNT>
0

> <PUBCHEM_BOND_UDEF_STEREO_COUNT>
0

> <PUBCHEM_ISOTOPIC_ATOM_COUNT>
0

> <PUBCHEM_COMPONENT_COUNT>
1

> <PUBCHEM_CACTVS_TAUTO_COUNT>
3

> <PUBCHEM_CONFORMER_ID>
047E02BD00000001

> <PUBCHEM_MMFF94_ENERGY>
21.0332

> <PUBCHEM_FEATURE_SELFOVERLAP>
55.87

> <PUBCHEM_SHAPE_FINGERPRINT>
10 15 17022627493620400708
10087517 78 18202284663361517945
106641 1 18041284348352870417
10670039 82 14692580887794863938
10906281 52 18337405914835225980
11315181 36 18342455963832089951
11524674 6 15791734113650971897
117890 112 18343585144323767782
12236239 1 18343019948688234095
12596602 18 18260833700088654715
12616971 3 16081374097958895534
12670543 26 12823302273129582563
13167372 99 18201722825888599984
13288520 33 11458426843312218319
13533116 47 18041273263122030938
13540713 5 17025738123716599830
13631057 29 18339636867627548015
13668630 136 11815894569928540349
13685833 64 11314307248383541540
13862211 1 8214145152942131820
14123256 10 15051733088290052961
14251752 14 15267342899133867204
14251764 18 18260550060522194757
14528608 73 16845287241638139511
15048467 5 18131069324846077749
15183329 4 14836412419314164826
15348495 7 16515976967900230296
15706992 2 18200891637715417081
15716309 27 12324242767150150313
15961568 22 17704078369335316017
17834072 8 14476958991102780960
17980427 23 18187928455742898774
20281389 69 18408885113901013172
20526848 3 18202288000054864376
20567600 247 10809340061701215056
21150785 3 15195563511270306109
21637258 2 12324242801636469907
22224240 67 18040716970119673587
23035841 295 11314310546876467133
23081809 10 17703783691797455247
23402539 116 17967808383629880903
2838139 119 17775283871799647737
2916195 48 18407760335223084933
4073 2 18343304790223596422
4340502 62 15719110249586540296
445580 37 17131839771799590097
465052 167 10809348827871326016
5104073 3 17169566296307633872
543368 44 18272934908554071825
559249 180 12179843910134245169
59682541 35 16805611403384299360
59682541 52 15841285774727384188
59755656 215 12895078409571603780
7495541 125 14707507901035668919

> <PUBCHEM_SHAPE_MULTIPOLES>
399.62
20.03
1.56
1.24
11.63
0.39
0.15
11.51
1.49
0.99
0.22
-0.86
-0.02
-1.01

> <PUBCHEM_SHAPE_SELFOVERLAP>
795.081

> <PUBCHEM_SHAPE_VOLUME>
237.2

> <PUBCHEM_COORDINATE_TYPE>
2
5
10

$$$$
