45783895
  -OEChem-12032416253D

 79 82  0     1  0  0  0  0  0999 V2000
   -1.5638    3.9877    0.0541 O   0  0  0  0  0  0  0  0  0  0  0  0
   -1.7941   -1.8239   -2.1163 O   0  0  0  0  0  0  0  0  0  0  0  0
    3.4841   -3.5450    1.5253 O   0  0  0  0  0  0  0  0  0  0  0  0
   -3.2400   -2.3510   -0.3889 N   0  0  0  0  0  0  0  0  0  0  0  0
    0.2105    2.5325    0.4200 N   0  0  0  0  0  0  0  0  0  0  0  0
    3.0203    1.8590    0.2459 N   0  0  0  0  0  0  0  0  0  0  0  0
   -0.9705   -2.6335   -0.0725 N   0  0  0  0  0  0  0  0  0  0  0  0
    4.9485    1.5827   -1.0894 N   0  0  0  0  0  0  0  0  0  0  0  0
   -4.6673   -0.1611    0.6613 C   0  0  1  0  0  0  0  0  0  0  0  0
   -4.8154   -0.5427   -0.8327 C   0  0  1  0  0  0  0  0  0  0  0  0
   -4.6133    1.3658    0.8220 C   0  0  0  0  0  0  0  0  0  0  0  0
   -3.4439    1.9930    0.0398 C   0  0  2  0  0  0  0  0  0  0  0  0
   -5.8077   -0.7319    1.5099 C   0  0  0  0  0  0  0  0  0  0  0  0
   -3.3621    1.4582   -1.3757 C   0  0  0  0  0  0  0  0  0  0  0  0
   -3.9926    0.3309   -1.7504 C   0  0  0  0  0  0  0  0  0  0  0  0
   -2.1158    1.7949    0.7788 C   0  0  0  0  0  0  0  0  0  0  0  0
   -4.4523   -2.0135   -1.0667 C   0  0  0  0  0  0  0  0  0  0  0  0
   -5.3674   -0.8797    2.9629 C   0  0  0  0  0  0  0  0  0  0  0  0
   -7.0435    0.1562    1.4069 C   0  0  0  0  0  0  0  0  0  0  0  0
   -2.5754    2.2741   -2.3633 C   0  0  0  0  0  0  0  0  0  0  0  0
   -1.1412    2.8767    0.3821 C   0  0  0  0  0  0  0  0  0  0  0  0
    0.7102    1.2122    0.8099 C   0  0  0  0  0  0  0  0  0  0  0  0
    1.2163    3.5221    0.0426 C   0  0  0  0  0  0  0  0  0  0  0  0
    2.1690    1.2418    1.2661 C   0  0  0  0  0  0  0  0  0  0  0  0
    2.4284    2.8773   -0.6262 C   0  0  0  0  0  0  0  0  0  0  0  0
   -1.9640   -2.2317   -0.9697 C   0  0  0  0  0  0  0  0  0  0  0  0
    4.3653    1.5169    0.1285 C   0  0  0  0  0  0  0  0  0  0  0  0
    5.0236    1.1269    1.2837 C   0  0  0  0  0  0  0  0  0  0  0  0
    0.4282   -2.6598   -0.2809 C   0  0  0  0  0  0  0  0  0  0  0  0
    6.3668    0.7823    1.1825 C   0  0  0  0  0  0  0  0  0  0  0  0
    6.2550    1.2402   -1.1488 C   0  0  0  0  0  0  0  0  0  0  0  0
    7.0017    0.8374   -0.0535 C   0  0  0  0  0  0  0  0  0  0  0  0
    1.2769   -3.0955    0.7367 C   0  0  0  0  0  0  0  0  0  0  0  0
    0.9591   -2.2493   -1.5039 C   0  0  0  0  0  0  0  0  0  0  0  0
    2.6564   -3.1209    0.5316 C   0  0  0  0  0  0  0  0  0  0  0  0
    2.3386   -2.2744   -1.7090 C   0  0  0  0  0  0  0  0  0  0  0  0
    3.1873   -2.7104   -0.6914 C   0  0  0  0  0  0  0  0  0  0  0  0
    4.8839   -3.5443    1.2487 C   0  0  0  0  0  0  0  0  0  0  0  0
   -3.7172   -0.5406    1.0547 H   0  0  0  0  0  0  0  0  0  0  0  0
   -5.8557   -0.4075   -1.1551 H   0  0  0  0  0  0  0  0  0  0  0  0
   -5.5235    1.8297    0.4202 H   0  0  0  0  0  0  0  0  0  0  0  0
   -4.5480    1.6599    1.8757 H   0  0  0  0  0  0  0  0  0  0  0  0
   -3.6926    3.0609   -0.0188 H   0  0  0  0  0  0  0  0  0  0  0  0
   -6.0749   -1.7341    1.1576 H   0  0  0  0  0  0  0  0  0  0  0  0
   -3.9395    0.0230   -2.7928 H   0  0  0  0  0  0  0  0  0  0  0  0
   -1.7331    0.7949    0.5580 H   0  0  0  0  0  0  0  0  0  0  0  0
   -2.2494    1.8763    1.8638 H   0  0  0  0  0  0  0  0  0  0  0  0
   -5.2326   -2.6714   -0.6707 H   0  0  0  0  0  0  0  0  0  0  0  0
   -4.3542   -2.2427   -2.1344 H   0  0  0  0  0  0  0  0  0  0  0  0
   -5.1073    0.0808    3.4185 H   0  0  0  0  0  0  0  0  0  0  0  0
   -4.4971   -1.5401    3.0430 H   0  0  0  0  0  0  0  0  0  0  0  0
   -6.1708   -1.3214    3.5627 H   0  0  0  0  0  0  0  0  0  0  0  0
   -6.9422    1.0999    1.9532 H   0  0  0  0  0  0  0  0  0  0  0  0
   -7.8968   -0.3612    1.8627 H   0  0  0  0  0  0  0  0  0  0  0  0
   -7.3275    0.3663    0.3714 H   0  0  0  0  0  0  0  0  0  0  0  0
   -1.5014    2.1882   -2.1782 H   0  0  0  0  0  0  0  0  0  0  0  0
   -2.8674    3.3279   -2.3159 H   0  0  0  0  0  0  0  0  0  0  0  0
   -2.7507    1.9412   -3.3926 H   0  0  0  0  0  0  0  0  0  0  0  0
   -3.3042   -2.7218    0.5543 H   0  0  0  0  0  0  0  0  0  0  0  0
    0.5976    0.5623   -0.0653 H   0  0  0  0  0  0  0  0  0  0  0  0
    0.0984    0.8040    1.6201 H   0  0  0  0  0  0  0  0  0  0  0  0
    1.5156    4.0375    0.9635 H   0  0  0  0  0  0  0  0  0  0  0  0
    0.7754    4.2719   -0.6228 H   0  0  0  0  0  0  0  0  0  0  0  0
    2.4745    0.2074    1.4658 H   0  0  0  0  0  0  0  0  0  0  0  0
    2.2527    1.8099    2.2008 H   0  0  0  0  0  0  0  0  0  0  0  0
    3.1597    3.6629   -0.8519 H   0  0  0  0  0  0  0  0  0  0  0  0
    2.1331    2.4093   -1.5731 H   0  0  0  0  0  0  0  0  0  0  0  0
   -1.2828   -2.9447    0.8438 H   0  0  0  0  0  0  0  0  0  0  0  0
    4.5521    1.0956    2.2598 H   0  0  0  0  0  0  0  0  0  0  0  0
    6.9193    0.4749    2.0653 H   0  0  0  0  0  0  0  0  0  0  0  0
    6.7032    1.2998   -2.1351 H   0  0  0  0  0  0  0  0  0  0  0  0
    8.0481    0.5739   -0.1558 H   0  0  0  0  0  0  0  0  0  0  0  0
    0.8701   -3.4160    1.6930 H   0  0  0  0  0  0  0  0  0  0  0  0
    0.3680   -1.8974   -2.3374 H   0  0  0  0  0  0  0  0  0  0  0  0
    2.7524   -1.9525   -2.6604 H   0  0  0  0  0  0  0  0  0  0  0  0
    4.2482   -2.7024   -0.9173 H   0  0  0  0  0  0  0  0  0  0  0  0
    5.1340   -4.2356    0.4368 H   0  0  0  0  0  0  0  0  0  0  0  0
    5.2561   -2.5315    1.0609 H   0  0  0  0  0  0  0  0  0  0  0  0
    5.3913   -3.9096    2.1476 H   0  0  0  0  0  0  0  0  0  0  0  0
  1 21  2  0  0  0  0
  2 26  2  0  0  0  0
  3 35  1  0  0  0  0
  3 38  1  0  0  0  0
  4 17  1  0  0  0  0
  4 26  1  0  0  0  0
  4 59  1  0  0  0  0
  5 21  1  0  0  0  0
  5 22  1  0  0  0  0
  5 23  1  0  0  0  0
  6 24  1  0  0  0  0
  6 25  1  0  0  0  0
  6 27  1  0  0  0  0
  7 26  1  0  0  0  0
  7 29  1  0  0  0  0
  7 68  1  0  0  0  0
  8 27  1  0  0  0  0
  8 31  2  0  0  0  0
  9 10  1  0  0  0  0
  9 11  1  0  0  0  0
  9 13  1  0  0  0  0
  9 39  1  0  0  0  0
 10 15  1  0  0  0  0
 10 17  1  0  0  0  0
 10 40  1  0  0  0  0
 11 12  1  0  0  0  0
 11 41  1  0  0  0  0
 11 42  1  0  0  0  0
 12 14  1  0  0  0  0
 12 16  1  0  0  0  0
 12 43  1  0  0  0  0
 13 18  1  0  0  0  0
 13 19  1  0  0  0  0
 13 44  1  0  0  0  0
 14 15  2  0  0  0  0
 14 20  1  0  0  0  0
 15 45  1  0  0  0  0
 16 21  1  0  0  0  0
 16 46  1  0  0  0  0
 16 47  1  0  0  0  0
 17 48  1  0  0  0  0
 17 49  1  0  0  0  0
 18 50  1  0  0  0  0
 18 51  1  0  0  0  0
 18 52  1  0  0  0  0
 19 53  1  0  0  0  0
 19 54  1  0  0  0  0
 19 55  1  0  0  0  0
 20 56  1  0  0  0  0
 20 57  1  0  0  0  0
 20 58  1  0  0  0  0
 22 24  1  0  0  0  0
 22 60  1  0  0  0  0
 22 61  1  0  0  0  0
 23 25  1  0  0  0  0
 23 62  1  0  0  0  0
 23 63  1  0  0  0  0
 24 64  1  0  0  0  0
 24 65  1  0  0  0  0
 25 66  1  0  0  0  0
 25 67  1  0  0  0  0
 27 28  2  0  0  0  0
 28 30  1  0  0  0  0
 28 69  1  0  0  0  0
 29 33  2  0  0  0  0
 29 34  1  0  0  0  0
 30 32  2  0  0  0  0
 30 70  1  0  0  0  0
 31 32  1  0  0  0  0
 31 71  1  0  0  0  0
 32 72  1  0  0  0  0
 33 35  1  0  0  0  0
 33 73  1  0  0  0  0
 34 36  2  0  0  0  0
 34 74  1  0  0  0  0
 35 37  2  0  0  0  0
 36 37  1  0  0  0  0
 36 75  1  0  0  0  0
 37 76  1  0  0  0  0
 38 77  1  0  0  0  0
 38 78  1  0  0  0  0
 38 79  1  0  0  0  0
M  END
> <PUBCHEM_COMPOUND_CID>
45783895

> <PUBCHEM_CONFORMER_RMSD>
1.2

> <PUBCHEM_CONFORMER_DIVERSEORDER>
21
150
209
116
39
184
215
205
239
77
33
96
187
200
172
212
186
126
177
17
207
66
149
139
65
219
57
81
72
48
201
143
153
56
32
183
168
152
190
192
18
218
69
135
170
129
53
162
233
130
159
47
174
213
228
45
140
194
6
236
237
175
86
144
31
122
90
134
154
138
106
73
156
132
178
78
100
131
238
176
141
202
235
110
93
185
27
222
107
24
8
198
227
136
137
61
193
23
165
199
46
40
217
76
111
204
158
75
71
220
146
79
88
14
55
157
92
63
163
169
142
206
161
41
58
182
7
70
211
124
51
105
36
234
203
20
19
82
12
173
188
118
120
171
160
98
85
102
195
208
28
164
214
145
191
148
108
223
210
60
167
49
109
230
44
231
3
216
43
50
52
89
91
197
10
166
1
133
189
22
151
123
37
103
34
226
221
112
59
5
87
181
99
147
26
80
16
9
64
125
68
25
42
225
101
84
229
128
35
119
38
15
4
121
54
30
74
114
224
11
115
179
29
180
127
113
196
13
97
2
232
117
155
62
67
83
95
104
94

> <PUBCHEM_MMFF94_PARTIAL_CHARGES>
44
1 -0.57
10 0.14
12 0.14
14 -0.28
15 -0.29
16 0.06
17 0.3
2 -0.57
20 0.14
21 0.57
22 0.3
23 0.3
24 0.37
25 0.37
26 0.69
27 0.41
28 -0.15
29 0.12
3 -0.36
30 -0.15
31 0.16
32 -0.15
33 -0.15
34 -0.15
35 0.08
36 -0.15
37 -0.15
38 0.28
4 -0.73
45 0.15
5 -0.66
59 0.37
6 -0.84
68 0.37
69 0.15
7 -0.55
70 0.15
71 0.15
72 0.15
73 0.15
74 0.15
75 0.15
76 0.15
8 -0.62

> <PUBCHEM_EFFECTIVE_ROTOR_COUNT>
13

> <PUBCHEM_PHARMACOPHORE_FEATURES>
12
1 1 acceptor
1 2 acceptor
1 3 acceptor
1 4 donor
1 6 cation
1 7 donor
1 8 acceptor
3 13 18 19 hydrophobe
6 29 33 34 35 36 37 rings
6 5 6 22 23 24 25 rings
6 8 27 28 30 31 32 rings
6 9 10 11 12 14 15 rings

> <PUBCHEM_HEAVY_ATOM_COUNT>
38

> <PUBCHEM_ATOM_DEF_STEREO_COUNT>
3

> <PUBCHEM_ATOM_UDEF_STEREO_COUNT>
0

> <PUBCHEM_BOND_DEF_STEREO_COUNT>
0

> <PUBCHEM_BOND_UDEF_STEREO_COUNT>
0

> <PUBCHEM_ISOTOPIC_ATOM_COUNT>
0

> <PUBCHEM_COMPONENT_COUNT>
1

> <PUBCHEM_CACTVS_TAUTO_COUNT>
3

> <PUBCHEM_CONFORMER_ID>
02BA9B5700000015

> <PUBCHEM_MMFF94_ENERGY>
117.4762

> <PUBCHEM_FEATURE_SELFOVERLAP>
60.946

> <PUBCHEM_SHAPE_FINGERPRINT>
11135926 11 18411410713690378748
11513181 2 17775000150697369438
11578080 2 17678436607455959351
11963148 33 18335137617852333658
12156800 1 17104574250395549359
12422481 6 18128233641725298026
13111901 25 18340202999745021506
14394314 77 18272934925433956345
14840074 17 18273217495362900915
15001296 14 18119236518463826584
15064986 96 17987536857328824187
15183329 4 18336258046392216628
15264996 151 18187639163872571290
15274700 242 18118939586543370288
15297060 5 17060347330922841586
15406563 185 17987799756614087000
15444296 8 16153697735435342461
15781502 13 16734419159662807251
15790856 291 18269278044608164766
16112460 7 18201166459655904619
17627616 140 18335975377282943178
19311894 1 18127405880862157191
20721686 56 18410012118115708387
20764821 26 18340473474666921583
338550 245 18409727366279124980
373842 8 18337097974560434530
392239 28 18341049704695801319
4093350 32 16629979740989685997
469060 322 18114742758674739567
5265222 85 18191033510940028292
59755656 215 18411133653797506612
9896288 288 17987254239490705401

> <PUBCHEM_SHAPE_MULTIPOLES>
739.51
15.5
5.15
1.97
3.87
1.33
-0.03
-1.08
-4.91
3.75
0.1
-1.87
0.51
-0.41

> <PUBCHEM_SHAPE_SELFOVERLAP>
1553.798

> <PUBCHEM_SHAPE_VOLUME>
412.6

> <PUBCHEM_COORDINATE_TYPE>
2
5
10

$$$$
