26742287
  -OEChem-12032416233D

 58 62  0     1  0  0  0  0  0999 V2000
   -1.3493   -3.7402    2.6836 O   0  0  0  0  0  0  0  0  0  0  0  0
    2.1961   -3.0352   -1.1461 O   0  0  0  0  0  0  0  0  0  0  0  0
    3.4461   -0.9478   -0.4588 O   0  0  0  0  0  0  0  0  0  0  0  0
   -2.7271    5.2165   -0.7681 O   0  0  0  0  0  0  0  0  0  0  0  0
    0.2056   -1.9831   -1.7189 N   0  0  0  0  0  0  0  0  0  0  0  0
   -1.6936   -2.3883    0.8021 N   0  0  0  0  0  0  0  0  0  0  0  0
   -1.8466   -3.3847   -1.5549 C   0  0  1  0  0  0  0  0  0  0  0  0
   -2.0089   -0.9527   -1.2378 C   0  0  2  0  0  0  0  0  0  0  0  0
   -2.7016   -2.1646   -1.8588 C   0  0  0  0  0  0  0  0  0  0  0  0
   -0.4370   -3.2252   -2.1479 C   0  0  0  0  0  0  0  0  0  0  0  0
   -1.8100   -3.5870   -0.0397 C   0  0  0  0  0  0  0  0  0  0  0  0
   -0.6152   -0.7754   -1.8762 C   0  0  0  0  0  0  0  0  0  0  0  0
   -1.8810   -1.0923    0.2817 C   0  0  0  0  0  0  0  0  0  0  0  0
   -1.9153   -0.0246    1.1212 C   0  0  0  0  0  0  0  0  0  0  0  0
   -1.5036   -2.6298    2.1744 C   0  0  0  0  0  0  0  0  0  0  0  0
    1.5259   -2.0067   -1.2702 C   0  0  0  0  0  0  0  0  0  0  0  0
   -1.7193   -0.2349    2.5429 C   0  0  0  0  0  0  0  0  0  0  0  0
   -1.5098   -1.4446    3.0615 C   0  0  0  0  0  0  0  0  0  0  0  0
   -2.1288    1.3520    0.6234 C   0  0  0  0  0  0  0  0  0  0  0  0
    2.1423   -0.6778   -0.9133 C   0  0  0  0  0  0  0  0  0  0  0  0
   -1.0375    2.1337    0.2440 C   0  0  0  0  0  0  0  0  0  0  0  0
   -3.4213    1.8689    0.5347 C   0  0  0  0  0  0  0  0  0  0  0  0
   -1.2386    3.4321   -0.2238 C   0  0  0  0  0  0  0  0  0  0  0  0
   -3.6225    3.1674    0.0669 C   0  0  0  0  0  0  0  0  0  0  0  0
   -2.5311    3.9491   -0.3124 C   0  0  0  0  0  0  0  0  0  0  0  0
    4.1972    0.1205   -0.0214 C   0  0  0  0  0  0  0  0  0  0  0  0
    3.6579    1.4068   -0.0406 C   0  0  0  0  0  0  0  0  0  0  0  0
    5.4973   -0.0838    0.4405 C   0  0  0  0  0  0  0  0  0  0  0  0
   -1.5666    5.9600   -1.1377 C   0  0  0  0  0  0  0  0  0  0  0  0
    4.4189    2.4889    0.4021 C   0  0  0  0  0  0  0  0  0  0  0  0
    6.2583    0.9982    0.8834 C   0  0  0  0  0  0  0  0  0  0  0  0
    5.7190    2.2845    0.8640 C   0  0  0  0  0  0  0  0  0  0  0  0
   -2.2987   -4.2739   -2.0115 H   0  0  0  0  0  0  0  0  0  0  0  0
   -2.6158   -0.0774   -1.4951 H   0  0  0  0  0  0  0  0  0  0  0  0
   -2.8072   -2.0320   -2.9425 H   0  0  0  0  0  0  0  0  0  0  0  0
   -3.7126   -2.2863   -1.4503 H   0  0  0  0  0  0  0  0  0  0  0  0
    0.1819   -4.0915   -1.8913 H   0  0  0  0  0  0  0  0  0  0  0  0
   -0.4961   -3.1878   -3.2427 H   0  0  0  0  0  0  0  0  0  0  0  0
   -2.7462   -4.0723    0.2696 H   0  0  0  0  0  0  0  0  0  0  0  0
   -1.0081   -4.2853    0.2320 H   0  0  0  0  0  0  0  0  0  0  0  0
   -0.7208   -0.6086   -2.9557 H   0  0  0  0  0  0  0  0  0  0  0  0
   -0.1138    0.1058   -1.4782 H   0  0  0  0  0  0  0  0  0  0  0  0
   -1.7330    0.6318    3.1975 H   0  0  0  0  0  0  0  0  0  0  0  0
   -1.3587   -1.5916    4.1242 H   0  0  0  0  0  0  0  0  0  0  0  0
    1.5405   -0.2437   -0.1070 H   0  0  0  0  0  0  0  0  0  0  0  0
    2.1604   -0.0538   -1.8138 H   0  0  0  0  0  0  0  0  0  0  0  0
   -0.0232    1.7499    0.3180 H   0  0  0  0  0  0  0  0  0  0  0  0
   -4.2820    1.2718    0.8262 H   0  0  0  0  0  0  0  0  0  0  0  0
   -0.3467    3.9844   -0.4989 H   0  0  0  0  0  0  0  0  0  0  0  0
   -4.6316    3.5648    0.0000 H   0  0  0  0  0  0  0  0  0  0  0  0
    2.6566    1.6339   -0.3905 H   0  0  0  0  0  0  0  0  0  0  0  0
    5.9224   -1.0835    0.4577 H   0  0  0  0  0  0  0  0  0  0  0  0
   -0.9066    6.1285   -0.2799 H   0  0  0  0  0  0  0  0  0  0  0  0
   -1.0425    5.4956   -1.9799 H   0  0  0  0  0  0  0  0  0  0  0  0
   -1.9075    6.9437   -1.4767 H   0  0  0  0  0  0  0  0  0  0  0  0
    4.0000    3.4909    0.3867 H   0  0  0  0  0  0  0  0  0  0  0  0
    7.2706    0.8392    1.2430 H   0  0  0  0  0  0  0  0  0  0  0  0
    6.3116    3.1270    1.2084 H   0  0  0  0  0  0  0  0  0  0  0  0
  1 15  2  0  0  0  0
  2 16  2  0  0  0  0
  3 20  1  0  0  0  0
  3 26  1  0  0  0  0
  4 25  1  0  0  0  0
  4 29  1  0  0  0  0
  5 10  1  0  0  0  0
  5 12  1  0  0  0  0
  5 16  1  0  0  0  0
  6 11  1  0  0  0  0
  6 13  1  0  0  0  0
  6 15  1  0  0  0  0
  7  9  1  0  0  0  0
  7 10  1  0  0  0  0
  7 11  1  0  0  0  0
  7 33  1  0  0  0  0
  8  9  1  0  0  0  0
  8 12  1  0  0  0  0
  8 13  1  0  0  0  0
  8 34  1  0  0  0  0
  9 35  1  0  0  0  0
  9 36  1  0  0  0  0
 10 37  1  0  0  0  0
 10 38  1  0  0  0  0
 11 39  1  0  0  0  0
 11 40  1  0  0  0  0
 12 41  1  0  0  0  0
 12 42  1  0  0  0  0
 13 14  2  0  0  0  0
 14 17  1  0  0  0  0
 14 19  1  0  0  0  0
 15 18  1  0  0  0  0
 16 20  1  0  0  0  0
 17 18  2  0  0  0  0
 17 43  1  0  0  0  0
 18 44  1  0  0  0  0
 19 21  2  0  0  0  0
 19 22  1  0  0  0  0
 20 45  1  0  0  0  0
 20 46  1  0  0  0  0
 21 23  1  0  0  0  0
 21 47  1  0  0  0  0
 22 24  2  0  0  0  0
 22 48  1  0  0  0  0
 23 25  2  0  0  0  0
 23 49  1  0  0  0  0
 24 25  1  0  0  0  0
 24 50  1  0  0  0  0
 26 27  2  0  0  0  0
 26 28  1  0  0  0  0
 27 30  1  0  0  0  0
 27 51  1  0  0  0  0
 28 31  2  0  0  0  0
 28 52  1  0  0  0  0
 29 53  1  0  0  0  0
 29 54  1  0  0  0  0
 29 55  1  0  0  0  0
 30 32  2  0  0  0  0
 30 56  1  0  0  0  0
 31 32  1  0  0  0  0
 31 57  1  0  0  0  0
 32 58  1  0  0  0  0
M  END
> <PUBCHEM_COMPOUND_CID>
26742287

> <PUBCHEM_CONFORMER_RMSD>
1

> <PUBCHEM_CONFORMER_DIVERSEORDER>
1
3
14
10
2
9
4
15
13
7
16
11
6
8
17
5
12

> <PUBCHEM_MMFF94_PARTIAL_CHARGES>
41
1 -0.57
10 0.3
11 0.3
12 0.3
13 -0.03
14 -0.03
15 0.62
16 0.57
17 -0.15
18 -0.14
19 0.03
2 -0.57
20 0.34
21 -0.15
22 -0.15
23 -0.15
24 -0.15
25 0.08
26 0.08
27 -0.15
28 -0.15
29 0.28
3 -0.36
30 -0.15
31 -0.15
32 -0.15
4 -0.36
43 0.15
44 0.15
47 0.15
48 0.15
49 0.15
5 -0.66
50 0.15
51 0.15
52 0.15
56 0.15
57 0.15
58 0.15
6 -0.47
8 0.14

> <PUBCHEM_EFFECTIVE_ROTOR_COUNT>
7

> <PUBCHEM_PHARMACOPHORE_FEATURES>
9
1 1 acceptor
1 2 acceptor
1 3 acceptor
1 4 acceptor
6 19 21 22 23 24 25 rings
6 26 27 28 30 31 32 rings
6 5 7 8 9 10 12 rings
6 6 13 14 15 17 18 rings
6 6 7 8 9 11 13 rings

> <PUBCHEM_HEAVY_ATOM_COUNT>
32

> <PUBCHEM_ATOM_DEF_STEREO_COUNT>
2

> <PUBCHEM_ATOM_UDEF_STEREO_COUNT>
0

> <PUBCHEM_BOND_DEF_STEREO_COUNT>
0

> <PUBCHEM_BOND_UDEF_STEREO_COUNT>
0

> <PUBCHEM_ISOTOPIC_ATOM_COUNT>
0

> <PUBCHEM_COMPONENT_COUNT>
1

> <PUBCHEM_CACTVS_TAUTO_COUNT>
3

> <PUBCHEM_CONFORMER_ID>
01980E0F00000001

> <PUBCHEM_MMFF94_ENERGY>
106.8228

> <PUBCHEM_FEATURE_SELFOVERLAP>
47.256

> <PUBCHEM_SHAPE_FINGERPRINT>
10483366 6 18128514133491718493
10653451 467 18410583903223306401
10670039 82 18056489576627639308
11582403 64 17902515887533198055
11725454 13 17757567256784830087
12156800 1 17340072941831264919
12788726 201 18264467611693351041
13383661 66 10298682984855562962
1361 2 18199744752604069445
14142880 1 17845385495050374795
14468879 13 18340492162064046464
14840074 17 17695926787852917186
14950920 106 17895188974353507512
15513586 35 17978524344873153448
16067690 210 18190161551153422688
16993438 75 18411973664103242752
17974551 9 17461458922685777058
18681886 176 16829519949229222303
21304303 64 18200027490791483615
21860390 5 16967724170972255021
238 59 17553208709599294751
3380486 77 17552927638428683807
376196 1 17978231556361058909
445580 44 18126564750598890866
469060 322 17983021347045388074
508706 21 18343021108186888500
5895379 119 14446844016305842133
6036956 94 18191865845331740596
6608658 132 17978516652707811812
9981440 41 18341889684493543762

> <PUBCHEM_SHAPE_MULTIPOLES>
625.11
8.99
7.07
2.35
22.95
9.21
1.31
4.26
2.26
-7.63
-2.67
-1.96
-2.48
1.3

> <PUBCHEM_SHAPE_SELFOVERLAP>
1369.963

> <PUBCHEM_SHAPE_VOLUME>
331.9

> <PUBCHEM_COORDINATE_TYPE>
2
5
10

$$$$
