11941658
  -OEChem-12032416383D

 64 68  0     1  0  0  0  0  0999 V2000
   -0.4336    0.9478    1.8186 O   0  0  0  0  0  0  0  0  0  0  0  0
   -1.0867    3.8993    1.0449 O   0  0  0  0  0  0  0  0  0  0  0  0
   -5.1982    0.9993    1.5184 O   0  0  0  0  0  0  0  0  0  0  0  0
    5.5695   -4.1818    1.3690 O   0  0  0  0  0  0  0  0  0  0  0  0
   -3.1826    0.9783    0.3687 N   0  0  0  0  0  0  0  0  0  0  0  0
    1.5386    3.0922   -0.3816 N   0  0  0  0  0  0  0  0  0  0  0  0
   -4.9159   -0.3539   -0.3470 N   0  0  0  0  0  0  0  0  0  0  0  0
    2.9203    1.2267   -0.4375 N   0  0  0  0  0  0  0  0  0  0  0  0
    2.9586    2.8644   -2.2048 N   0  0  0  0  0  0  0  0  0  0  0  0
   -1.3923    2.6322    0.4393 C   0  0  1  0  0  0  0  0  0  0  0  0
   -0.1875    1.7338    0.6404 C   0  0  1  0  0  0  0  0  0  0  0  0
   -2.4992    1.9391    1.2004 C   0  0  2  0  0  0  0  0  0  0  0  0
    0.9536    2.6940    0.8800 C   0  0  2  0  0  0  0  0  0  0  0  0
   -1.7416    1.2542    2.3239 C   0  0  0  0  0  0  0  0  0  0  0  0
    0.2622    3.8759    1.5345 C   0  0  0  0  0  0  0  0  0  0  0  0
   -6.2380   -0.9396   -0.3499 C   0  0  0  0  0  0  0  0  0  0  0  0
   -6.2869   -2.1944    0.5284 C   0  0  0  0  0  0  0  0  0  0  0  0
   -6.7030   -1.2429   -1.7783 C   0  0  0  0  0  0  0  0  0  0  0  0
   -4.4981    0.5794    0.5979 C   0  0  0  0  0  0  0  0  0  0  0  0
   -5.5407   -3.3740   -0.0952 C   0  0  0  0  0  0  0  0  0  0  0  0
   -5.9563   -2.4241   -2.3979 C   0  0  0  0  0  0  0  0  0  0  0  0
   -6.0284   -3.6636   -1.5113 C   0  0  0  0  0  0  0  0  0  0  0  0
    2.5149    2.3626   -1.0365 C   0  0  0  0  0  0  0  0  0  0  0  0
    3.8727    0.5409   -1.1030 C   0  0  0  0  0  0  0  0  0  0  0  0
    3.9098    2.1283   -2.8161 C   0  0  0  0  0  0  0  0  0  0  0  0
    4.4097    0.9471   -2.3075 C   0  0  0  0  0  0  0  0  0  0  0  0
    4.3092   -0.6778   -0.4647 C   0  0  0  0  0  0  0  0  0  0  0  0
    5.6469   -0.8328   -0.1010 C   0  0  0  0  0  0  0  0  0  0  0  0
    3.3950   -1.7007   -0.2127 C   0  0  0  0  0  0  0  0  0  0  0  0
    6.0705   -2.0106    0.5145 C   0  0  0  0  0  0  0  0  0  0  0  0
    3.8185   -2.8786    0.4028 C   0  0  0  0  0  0  0  0  0  0  0  0
    5.1562   -3.0335    0.7664 C   0  0  0  0  0  0  0  0  0  0  0  0
    4.5829   -5.1870    1.5970 C   0  0  0  0  0  0  0  0  0  0  0  0
   -1.6181    2.8185   -0.6157 H   0  0  0  0  0  0  0  0  0  0  0  0
   -0.0362    1.0354   -0.1890 H   0  0  0  0  0  0  0  0  0  0  0  0
   -3.2373    2.6372    1.6096 H   0  0  0  0  0  0  0  0  0  0  0  0
    1.7211    2.3072    1.5604 H   0  0  0  0  0  0  0  0  0  0  0  0
   -2.2146    0.3353    2.6834 H   0  0  0  0  0  0  0  0  0  0  0  0
   -1.6099    1.9300    3.1761 H   0  0  0  0  0  0  0  0  0  0  0  0
    0.2092    3.7447    2.6210 H   0  0  0  0  0  0  0  0  0  0  0  0
    0.7385    4.8396    1.3294 H   0  0  0  0  0  0  0  0  0  0  0  0
   -2.6654    0.5234   -0.3777 H   0  0  0  0  0  0  0  0  0  0  0  0
    1.1917    3.9204   -0.8522 H   0  0  0  0  0  0  0  0  0  0  0  0
   -6.9218   -0.1972    0.0804 H   0  0  0  0  0  0  0  0  0  0  0  0
   -5.8704   -1.9862    1.5212 H   0  0  0  0  0  0  0  0  0  0  0  0
   -7.3353   -2.4821    0.6792 H   0  0  0  0  0  0  0  0  0  0  0  0
   -6.5772   -0.3592   -2.4154 H   0  0  0  0  0  0  0  0  0  0  0  0
   -7.7759   -1.4737   -1.7625 H   0  0  0  0  0  0  0  0  0  0  0  0
   -4.4646   -3.1627   -0.1145 H   0  0  0  0  0  0  0  0  0  0  0  0
   -5.6769   -4.2645    0.5290 H   0  0  0  0  0  0  0  0  0  0  0  0
   -4.9073   -2.1574   -2.5715 H   0  0  0  0  0  0  0  0  0  0  0  0
   -6.3874   -2.6524   -3.3796 H   0  0  0  0  0  0  0  0  0  0  0  0
   -4.2334   -0.6857   -1.0212 H   0  0  0  0  0  0  0  0  0  0  0  0
   -7.0639   -4.0238   -1.4729 H   0  0  0  0  0  0  0  0  0  0  0  0
   -5.4277   -4.4675   -1.9514 H   0  0  0  0  0  0  0  0  0  0  0  0
    4.2701    2.5270   -3.7585 H   0  0  0  0  0  0  0  0  0  0  0  0
    5.1707    0.3873   -2.8371 H   0  0  0  0  0  0  0  0  0  0  0  0
    6.3749   -0.0456   -0.2834 H   0  0  0  0  0  0  0  0  0  0  0  0
    2.3488   -1.5983   -0.4921 H   0  0  0  0  0  0  0  0  0  0  0  0
    7.1135   -2.1250    0.7970 H   0  0  0  0  0  0  0  0  0  0  0  0
    3.0565   -3.6325    0.5686 H   0  0  0  0  0  0  0  0  0  0  0  0
    3.8055   -4.8389    2.2855 H   0  0  0  0  0  0  0  0  0  0  0  0
    4.1663   -5.5626    0.6562 H   0  0  0  0  0  0  0  0  0  0  0  0
    5.0861   -6.0295    2.0827 H   0  0  0  0  0  0  0  0  0  0  0  0
  1 11  1  0  0  0  0
  1 14  1  0  0  0  0
  2 10  1  0  0  0  0
  2 15  1  0  0  0  0
  3 19  2  0  0  0  0
  4 32  1  0  0  0  0
  4 33  1  0  0  0  0
  5 12  1  0  0  0  0
  5 19  1  0  0  0  0
  5 42  1  0  0  0  0
  6 13  1  0  0  0  0
  6 23  1  0  0  0  0
  6 43  1  0  0  0  0
  7 16  1  0  0  0  0
  7 19  1  0  0  0  0
  7 53  1  0  0  0  0
  8 23  1  0  0  0  0
  8 24  2  0  0  0  0
  9 23  2  0  0  0  0
  9 25  1  0  0  0  0
 10 11  1  0  0  0  0
 10 12  1  0  0  0  0
 10 34  1  0  0  0  0
 11 13  1  0  0  0  0
 11 35  1  0  0  0  0
 12 14  1  0  0  0  0
 12 36  1  0  0  0  0
 13 15  1  0  0  0  0
 13 37  1  0  0  0  0
 14 38  1  0  0  0  0
 14 39  1  0  0  0  0
 15 40  1  0  0  0  0
 15 41  1  0  0  0  0
 16 17  1  0  0  0  0
 16 18  1  0  0  0  0
 16 44  1  0  0  0  0
 17 20  1  0  0  0  0
 17 45  1  0  0  0  0
 17 46  1  0  0  0  0
 18 21  1  0  0  0  0
 18 47  1  0  0  0  0
 18 48  1  0  0  0  0
 20 22  1  0  0  0  0
 20 49  1  0  0  0  0
 20 50  1  0  0  0  0
 21 22  1  0  0  0  0
 21 51  1  0  0  0  0
 21 52  1  0  0  0  0
 22 54  1  0  0  0  0
 22 55  1  0  0  0  0
 24 26  1  0  0  0  0
 24 27  1  0  0  0  0
 25 26  2  0  0  0  0
 25 56  1  0  0  0  0
 26 57  1  0  0  0  0
 27 28  2  0  0  0  0
 27 29  1  0  0  0  0
 28 30  1  0  0  0  0
 28 58  1  0  0  0  0
 29 31  2  0  0  0  0
 29 59  1  0  0  0  0
 30 32  2  0  0  0  0
 30 60  1  0  0  0  0
 31 32  1  0  0  0  0
 31 61  1  0  0  0  0
 33 62  1  0  0  0  0
 33 63  1  0  0  0  0
 33 64  1  0  0  0  0
M  END
> <PUBCHEM_COMPOUND_CID>
11941658

> <PUBCHEM_CONFORMER_RMSD>
1

> <PUBCHEM_CONFORMER_DIVERSEORDER>
1
102
271
18
284
272
78
276
190
29
92
166
278
244
83
20
157
141
54
123
199
229
226
45
46
140
182
55
110
160
84
136
68
173
48
219
277
239
115
129
10
252
4
227
139
205
69
255
145
200
198
206
195
62
57
85
122
121
73
131
50
172
93
164
263
101
170
105
194
104
109
269
91
28
106
97
248
249
242
222
159
130
161
119
41
266
201
86
153
117
254
90
134
177
221
251
245
209
111
72
126
220
34
13
112
231
186
98
33
94
67
80
88
238
51
189
213
225
165
259
19
158
96
114
274
273
43
124
89
79
25
211
60
241
64
184
179
75
212
120
185
138
82
52
14
265
22
56
181
203
270
192
267
128
150
77
174
42
163
258
37
228
257
262
76
137
217
125
116
210
169
208
233
11
71
283
70
234
188
32
74
27
23
281
152
47
180
38
171
232
243
154
214
26
260
8
135
103
66
268
108
191
204
17
224
236
132
118
240
280
44
151
143
81
133
30
15
247
237
40
12
100
16
264
167
218
256
149
65
36
285
127
87
35
178
53
215
175
176
223
156
162
147
113
31
7
275
235
144
197
21
95
63
216
183
282
146
148
107
250
49
193
58
59
155
61
253
207
261
202
279
99
168
5
142
24
3
196
187
246
230
6
39
9
2

> <PUBCHEM_MMFF94_PARTIAL_CHARGES>
36
1 -0.56
10 0.28
11 0.28
12 0.3
13 0.37
14 0.28
15 0.28
16 0.3
19 0.69
2 -0.56
23 0.72
24 0.31
25 0.16
26 -0.15
28 -0.15
29 -0.15
3 -0.57
30 -0.15
31 -0.15
32 0.08
33 0.28
4 -0.36
42 0.37
43 0.4
5 -0.73
53 0.37
56 0.15
57 0.15
58 0.15
59 0.15
6 -0.87
60 0.15
61 0.15
7 -0.73
8 -0.62
9 -0.62

> <PUBCHEM_EFFECTIVE_ROTOR_COUNT>
10.4

> <PUBCHEM_PHARMACOPHORE_FEATURES>
14
1 1 acceptor
1 2 acceptor
1 3 acceptor
1 4 acceptor
1 5 donor
1 6 donor
1 7 donor
1 8 acceptor
4 6 8 9 23 cation
5 1 10 11 12 14 rings
5 2 10 11 13 15 rings
6 16 17 18 20 21 22 rings
6 27 28 29 30 31 32 rings
6 8 9 23 24 25 26 rings

> <PUBCHEM_HEAVY_ATOM_COUNT>
33

> <PUBCHEM_ATOM_DEF_STEREO_COUNT>
4

> <PUBCHEM_ATOM_UDEF_STEREO_COUNT>
0

> <PUBCHEM_BOND_DEF_STEREO_COUNT>
0

> <PUBCHEM_BOND_UDEF_STEREO_COUNT>
0

> <PUBCHEM_ISOTOPIC_ATOM_COUNT>
0

> <PUBCHEM_COMPONENT_COUNT>
1

> <PUBCHEM_CACTVS_TAUTO_COUNT>
9

> <PUBCHEM_CONFORMER_ID>
00B6371A00000001

> <PUBCHEM_MMFF94_ENERGY>
89.4178

> <PUBCHEM_FEATURE_SELFOVERLAP>
71.806

> <PUBCHEM_SHAPE_FINGERPRINT>
10622 236 18263363594824313866
10908659 184 18059585728004052399
10917259 69 9439105578267466674
11069576 57 18260842483755691116
11103572 155 18189353402176644331
11135926 11 17534662358717713988
11227150 75 18262219037643471306
11227688 84 18190754209848973435
11497681 19 18194122916193442942
11607047 403 18198043959035387368
11828042 38 17822297911621440531
1200032 147 9583517663824113932
12422481 6 15553907588759514645
12977781 61 18124844967894505784
131258 38 18267291205141323462
15250474 111 18412553102176903367
15419009 47 17825941529735635621
17134984 74 18191876823372773396
17324776 126 18189890907763434074
19303781 99 18041847186263291178
19304671 126 15864069905537238909
19315092 285 18408888442695938084
19319366 153 18193563491679691356
20567600 247 18340769329447171145
20775438 99 18188768474099953330
208703 8 18273502256084571630
21585483 132 18199736102824908791
21599406 157 17749951201964605951
23569914 152 18049409627998107805
25025965 108 17463401721710998058
25222932 49 18130789026933675340
260245 28 18192707852295433539
2838139 119 13696695044609347837
3146122 67 18269294407753177119
3882209 13 18187634766180196794
397830 11 11023829513805161053
4017518 198 16752124208873917132
437795 139 17917709115336298899
439807 62 18409171043608044895
463206 1 18411992363778276896
50009960 94 18129360709388192098
5364581 5 9799416659527556343
57035037 87 12974185021075821798
59025328 239 17822298933944410324
6058803 2 18121808074467367972
6201460 15 18337392617227146242
6677587 24 16953940057441059628
6697151 62 17774990333299396145
7970288 3 18413105043992209475
96874 4 18341043047555144535

> <PUBCHEM_SHAPE_MULTIPOLES>
630.74
18.83
6.45
2.29
19.23
3.82
-1.04
24.23
-5.71
-4.57
2.21
-0.27
-0.67
-7.59

> <PUBCHEM_SHAPE_SELFOVERLAP>
1357.381

> <PUBCHEM_SHAPE_VOLUME>
344.6

> <PUBCHEM_COORDINATE_TYPE>
2
5
10

$$$$
