11885881
  -OEChem-12032416113D

 51 55  0     1  0  0  0  0  0999 V2000
    5.5170    0.9696    0.8908 S   0  0  0  0  0  0  0  0  0  0  0  0
   -1.6199   -5.2439   -0.7971 F   0  0  0  0  0  0  0  0  0  0  0  0
    1.1935    2.4768    1.3214 O   0  0  0  0  0  0  0  0  0  0  0  0
   -3.0440   -0.2080    2.5879 O   0  0  0  0  0  0  0  0  0  0  0  0
    3.1071   -1.2578   -1.1070 O   0  0  0  0  0  0  0  0  0  0  0  0
   -3.4042    0.7329    0.4761 N   0  0  0  0  0  0  0  0  0  0  0  0
   -0.6244    2.1444   -0.1084 N   0  0  0  0  0  0  0  0  0  0  0  0
    2.8435    0.8470   -0.1525 N   0  0  0  0  0  0  0  0  0  0  0  0
   -2.9312    3.1714    0.3234 C   0  0  1  0  0  0  0  0  0  0  0  0
   -2.5797    1.7320   -1.6427 C   0  0  2  0  0  0  0  0  0  0  0  0
   -3.0897    3.0998   -1.1915 C   0  0  0  0  0  0  0  0  0  0  0  0
   -3.7449    2.0545    1.0019 C   0  0  0  0  0  0  0  0  0  0  0  0
   -1.4389    3.0897    0.6684 C   0  0  0  0  0  0  0  0  0  0  0  0
   -3.4303    0.6230   -0.9915 C   0  0  0  0  0  0  0  0  0  0  0  0
   -1.1215    1.5432   -1.2693 C   0  0  0  0  0  0  0  0  0  0  0  0
   -0.3229    0.7735   -2.0276 C   0  0  0  0  0  0  0  0  0  0  0  0
    0.7061    1.9561    0.3171 C   0  0  0  0  0  0  0  0  0  0  0  0
   -3.0678   -0.2938    1.3614 C   0  0  0  0  0  0  0  0  0  0  0  0
    1.5552    1.0694   -0.5403 C   0  0  0  0  0  0  0  0  0  0  0  0
    1.0417    0.5329   -1.6523 C   0  0  0  0  0  0  0  0  0  0  0  0
   -2.6879   -1.5922    0.7953 C   0  0  0  0  0  0  0  0  0  0  0  0
   -1.3533   -1.8541    0.4965 C   0  0  0  0  0  0  0  0  0  0  0  0
   -3.6638   -2.5572    0.5593 C   0  0  0  0  0  0  0  0  0  0  0  0
    3.5464   -0.3097   -0.4606 C   0  0  0  0  0  0  0  0  0  0  0  0
   -0.9922   -3.0891   -0.0420 C   0  0  0  0  0  0  0  0  0  0  0  0
   -3.3027   -3.7923    0.0209 C   0  0  0  0  0  0  0  0  0  0  0  0
   -1.9668   -4.0584   -0.2796 C   0  0  0  0  0  0  0  0  0  0  0  0
    4.9484   -0.3616    0.0294 C   0  0  0  0  0  0  0  0  0  0  0  0
    5.8239   -1.3637   -0.1396 C   0  0  0  0  0  0  0  0  0  0  0  0
    7.0662   -1.0377    0.4773 C   0  0  0  0  0  0  0  0  0  0  0  0
    7.0372    0.2033    1.0747 C   0  0  0  0  0  0  0  0  0  0  0  0
   -3.3174    4.1310    0.6885 H   0  0  0  0  0  0  0  0  0  0  0  0
   -2.6965    1.6648   -2.7321 H   0  0  0  0  0  0  0  0  0  0  0  0
   -2.5258    3.9057   -1.6778 H   0  0  0  0  0  0  0  0  0  0  0  0
   -4.1419    3.2286   -1.4729 H   0  0  0  0  0  0  0  0  0  0  0  0
   -3.6025    2.0885    2.0872 H   0  0  0  0  0  0  0  0  0  0  0  0
   -4.8147    2.2050    0.8124 H   0  0  0  0  0  0  0  0  0  0  0  0
   -1.3026    2.8742    1.7357 H   0  0  0  0  0  0  0  0  0  0  0  0
   -0.9856    4.0762    0.4999 H   0  0  0  0  0  0  0  0  0  0  0  0
   -3.0973   -0.3604   -1.3319 H   0  0  0  0  0  0  0  0  0  0  0  0
   -4.4789    0.7256   -1.2974 H   0  0  0  0  0  0  0  0  0  0  0  0
   -0.6888    0.2882   -2.9264 H   0  0  0  0  0  0  0  0  0  0  0  0
    1.6050   -0.0687   -2.3550 H   0  0  0  0  0  0  0  0  0  0  0  0
    3.2313    1.4764    0.5456 H   0  0  0  0  0  0  0  0  0  0  0  0
   -0.5853   -1.1104    0.6877 H   0  0  0  0  0  0  0  0  0  0  0  0
   -4.7074   -2.3594    0.7895 H   0  0  0  0  0  0  0  0  0  0  0  0
    0.0482   -3.2964   -0.2747 H   0  0  0  0  0  0  0  0  0  0  0  0
   -4.0614   -4.5468   -0.1648 H   0  0  0  0  0  0  0  0  0  0  0  0
    5.6284   -2.2894   -0.6650 H   0  0  0  0  0  0  0  0  0  0  0  0
    7.9369   -1.6805    0.4827 H   0  0  0  0  0  0  0  0  0  0  0  0
    7.8361    0.6965    1.6103 H   0  0  0  0  0  0  0  0  0  0  0  0
  1 28  1  0  0  0  0
  1 31  1  0  0  0  0
  2 27  1  0  0  0  0
  3 17  2  0  0  0  0
  4 18  2  0  0  0  0
  5 24  2  0  0  0  0
  6 12  1  0  0  0  0
  6 14  1  0  0  0  0
  6 18  1  0  0  0  0
  7 13  1  0  0  0  0
  7 15  1  0  0  0  0
  7 17  1  0  0  0  0
  8 19  1  0  0  0  0
  8 24  1  0  0  0  0
  8 44  1  0  0  0  0
  9 11  1  0  0  0  0
  9 12  1  0  0  0  0
  9 13  1  0  0  0  0
  9 32  1  0  0  0  0
 10 11  1  0  0  0  0
 10 14  1  0  0  0  0
 10 15  1  0  0  0  0
 10 33  1  0  0  0  0
 11 34  1  0  0  0  0
 11 35  1  0  0  0  0
 12 36  1  0  0  0  0
 12 37  1  0  0  0  0
 13 38  1  0  0  0  0
 13 39  1  0  0  0  0
 14 40  1  0  0  0  0
 14 41  1  0  0  0  0
 15 16  2  0  0  0  0
 16 20  1  0  0  0  0
 16 42  1  0  0  0  0
 17 19  1  0  0  0  0
 18 21  1  0  0  0  0
 19 20  2  0  0  0  0
 20 43  1  0  0  0  0
 21 22  2  0  0  0  0
 21 23  1  0  0  0  0
 22 25  1  0  0  0  0
 22 45  1  0  0  0  0
 23 26  2  0  0  0  0
 23 46  1  0  0  0  0
 24 28  1  0  0  0  0
 25 27  2  0  0  0  0
 25 47  1  0  0  0  0
 26 27  1  0  0  0  0
 26 48  1  0  0  0  0
 28 29  2  0  0  0  0
 29 30  1  0  0  0  0
 29 49  1  0  0  0  0
 30 31  2  0  0  0  0
 30 50  1  0  0  0  0
 31 51  1  0  0  0  0
M  END
> <PUBCHEM_COMPOUND_CID>
11885881

> <PUBCHEM_CONFORMER_RMSD>
0.8

> <PUBCHEM_CONFORMER_DIVERSEORDER>
1
3
14
18
21
16
17
9
10
12
19
7
20
8
22
5
13
11
6
2
4
15

> <PUBCHEM_MMFF94_PARTIAL_CHARGES>
39
1 -0.08
10 0.14
12 0.3
13 0.3
14 0.3
15 -0.03
16 -0.15
17 0.62
18 0.54
19 0.12
2 -0.19
20 -0.15
21 0.09
22 -0.15
23 -0.15
24 0.71
25 -0.15
26 -0.15
27 0.19
28 -0.05
29 -0.15
3 -0.57
30 -0.15
31 -0.11
4 -0.57
42 0.15
43 0.15
44 0.37
45 0.15
46 0.15
47 0.15
48 0.15
49 0.15
5 -0.57
50 0.15
51 0.15
6 -0.66
7 -0.47
8 -0.54

> <PUBCHEM_EFFECTIVE_ROTOR_COUNT>
6

> <PUBCHEM_PHARMACOPHORE_FEATURES>
9
1 3 acceptor
1 4 acceptor
1 5 acceptor
1 8 donor
5 1 28 29 30 31 rings
6 21 22 23 25 26 27 rings
6 6 9 10 11 12 14 rings
6 7 15 16 17 19 20 rings
6 7 9 10 11 13 15 rings

> <PUBCHEM_HEAVY_ATOM_COUNT>
31

> <PUBCHEM_ATOM_DEF_STEREO_COUNT>
2

> <PUBCHEM_ATOM_UDEF_STEREO_COUNT>
0

> <PUBCHEM_BOND_DEF_STEREO_COUNT>
0

> <PUBCHEM_BOND_UDEF_STEREO_COUNT>
0

> <PUBCHEM_ISOTOPIC_ATOM_COUNT>
0

> <PUBCHEM_COMPONENT_COUNT>
1

> <PUBCHEM_CACTVS_TAUTO_COUNT>
2

> <PUBCHEM_CONFORMER_ID>
00B55D3900000001

> <PUBCHEM_MMFF94_ENERGY>
84.7311

> <PUBCHEM_FEATURE_SELFOVERLAP>
47.254

> <PUBCHEM_SHAPE_FINGERPRINT>
10483366 6 18337655496118448639
11014199 57 17976825607702664178
11112241 14 17986951860363838564
11135609 149 17405402878250429879
11513181 2 18126843802761295279
11524674 6 18336823070229260141
11552529 35 18410288146936360672
12422481 6 17755339745095821289
12633257 1 18057348217134331049
13004483 165 18192999442246238119
14114206 34 16153973729474652341
14659021 117 18269257084296457349
14674994 50 18261940938679282815
14844126 61 18408041835811565211
14950920 106 17917157199006168184
15183329 4 9079112264018466200
16728300 4 17895471402312363435
19611394 137 18271803558671367264
20775530 9 17835255810377229071
23559900 14 18336817705852888013
23569943 247 14619685389521232940
3383291 50 18410854365518708523
3459 110 18341327916019950504
397830 11 18269542988566261552
4073 2 18412257308554655282
4409770 3 18335133177061169437
469060 322 16732984210968224598
484985 159 18334283284395550823
5080951 261 17896014625844386052
5104073 3 18338498808799276272
5364581 5 18267574875300431848
9981440 41 18192716644351100217

> <PUBCHEM_SHAPE_MULTIPOLES>
601.99
12.35
5.05
1.58
30.64
5.23
-0.01
2.26
-3.72
-7.67
0.42
-0.91
-0.54
0.74

> <PUBCHEM_SHAPE_SELFOVERLAP>
1322.031

> <PUBCHEM_SHAPE_VOLUME>
327

> <PUBCHEM_COORDINATE_TYPE>
2
5
10

$$$$
