75536457
  -OEChem-12032416413D

 62 64  0     1  0  0  0  0  0999 V2000
    6.7725   -1.5715   -1.1671 S   0  0  0  0  0  0  0  0  0  0  0  0
    3.3541   -0.3262    0.8865 O   0  0  0  0  0  0  0  0  0  0  0  0
    1.4912   -3.3978    0.8636 O   0  0  0  0  0  0  0  0  0  0  0  0
    8.1067   -1.5404   -0.6007 O   0  0  0  0  0  0  0  0  0  0  0  0
    6.2898   -0.4783   -1.9889 O   0  0  0  0  0  0  0  0  0  0  0  0
   -6.5847   -0.7795   -1.9480 O   0  0  0  0  0  0  0  0  0  0  0  0
    1.4364    6.1865    0.3828 O   0  0  0  0  0  0  0  0  0  0  0  0
   -7.4971   -1.2974    0.1009 O   0  0  0  0  0  0  0  0  0  0  0  0
    0.6200    5.7989   -1.7029 O   0  0  0  0  0  0  0  0  0  0  0  0
   -0.2542   -0.7846    0.8468 N   0  0  1  0  0  0  0  0  0  0  0  0
    5.6276   -1.8684    0.0626 N   0  0  0  0  0  0  0  0  0  0  0  0
    1.1157   -1.0205    1.2728 C   0  0  1  0  0  0  0  0  0  0  0  0
    1.8310   -2.0850    0.4616 C   0  0  1  0  0  0  0  0  0  0  0  0
    3.2864   -1.7569    0.7657 C   0  0  1  0  0  0  0  0  0  0  0  0
    2.0189    0.1821    1.0536 C   0  0  0  0  0  0  0  0  0  0  0  0
    4.2459   -2.2269   -0.3129 C   0  0  0  0  0  0  0  0  0  0  0  0
   -1.0694   -1.9901    1.0234 C   0  0  0  0  0  0  0  0  0  0  0  0
   -0.8444    0.3347    1.5866 C   0  0  0  0  0  0  0  0  0  0  0  0
   -2.4943   -1.7718    0.5889 C   0  0  0  0  0  0  0  0  0  0  0  0
   -0.4127    1.6650    1.0292 C   0  0  0  0  0  0  0  0  0  0  0  0
   -3.5364   -1.9590    1.4971 C   0  0  0  0  0  0  0  0  0  0  0  0
   -2.7725   -1.3827   -0.7214 C   0  0  0  0  0  0  0  0  0  0  0  0
   -0.6782    1.9816   -0.3031 C   0  0  0  0  0  0  0  0  0  0  0  0
    0.2525    2.5807    1.8446 C   0  0  0  0  0  0  0  0  0  0  0  0
    6.6188   -3.0626   -2.1236 C   0  0  0  0  0  0  0  0  0  0  0  0
   -4.8566   -1.7569    1.0951 C   0  0  0  0  0  0  0  0  0  0  0  0
   -4.0928   -1.1807   -1.1235 C   0  0  0  0  0  0  0  0  0  0  0  0
   -0.2784    3.2139   -0.8200 C   0  0  0  0  0  0  0  0  0  0  0  0
    0.6523    3.8129    1.3276 C   0  0  0  0  0  0  0  0  0  0  0  0
   -5.1349   -1.3676   -0.2152 C   0  0  0  0  0  0  0  0  0  0  0  0
    0.3867    4.1297   -0.0046 C   0  0  0  0  0  0  0  0  0  0  0  0
   -6.5112   -1.1560   -0.6347 C   0  0  0  0  0  0  0  0  0  0  0  0
    0.8030    5.4150   -0.5428 C   0  0  0  0  0  0  0  0  0  0  0  0
   -7.8920   -0.5403   -2.4801 C   0  0  0  0  0  0  0  0  0  0  0  0
    1.1421   -1.3026    2.3362 H   0  0  0  0  0  0  0  0  0  0  0  0
    1.6182   -1.9758   -0.6093 H   0  0  0  0  0  0  0  0  0  0  0  0
    3.5878   -2.1813    1.7325 H   0  0  0  0  0  0  0  0  0  0  0  0
    1.8138    0.7283    0.1298 H   0  0  0  0  0  0  0  0  0  0  0  0
    2.0587    0.8476    1.9152 H   0  0  0  0  0  0  0  0  0  0  0  0
    3.9908   -1.7408   -1.2611 H   0  0  0  0  0  0  0  0  0  0  0  0
    4.1788   -3.3124   -0.4378 H   0  0  0  0  0  0  0  0  0  0  0  0
   -1.0352   -2.3390    2.0641 H   0  0  0  0  0  0  0  0  0  0  0  0
   -0.7110   -2.8106    0.3938 H   0  0  0  0  0  0  0  0  0  0  0  0
   -0.6152    0.2597    2.6590 H   0  0  0  0  0  0  0  0  0  0  0  0
   -1.9380    0.3744    1.5398 H   0  0  0  0  0  0  0  0  0  0  0  0
    1.6742   -3.4829    1.8146 H   0  0  0  0  0  0  0  0  0  0  0  0
    5.9698   -2.3758    0.8894 H   0  0  0  0  0  0  0  0  0  0  0  0
   -3.3349   -2.2611    2.5214 H   0  0  0  0  0  0  0  0  0  0  0  0
   -1.9714   -1.2407   -1.4420 H   0  0  0  0  0  0  0  0  0  0  0  0
   -1.1992    1.2828   -0.9510 H   0  0  0  0  0  0  0  0  0  0  0  0
    0.4559    2.3537    2.8880 H   0  0  0  0  0  0  0  0  0  0  0  0
    7.3698   -3.0277   -2.9164 H   0  0  0  0  0  0  0  0  0  0  0  0
    6.8105   -3.9207   -1.4767 H   0  0  0  0  0  0  0  0  0  0  0  0
    5.6248   -3.1161   -2.5696 H   0  0  0  0  0  0  0  0  0  0  0  0
   -5.6536   -1.9077    1.8185 H   0  0  0  0  0  0  0  0  0  0  0  0
   -4.2616   -0.8795   -2.1535 H   0  0  0  0  0  0  0  0  0  0  0  0
   -0.4955    3.4420   -1.8603 H   0  0  0  0  0  0  0  0  0  0  0  0
    1.1652    4.4968    1.9980 H   0  0  0  0  0  0  0  0  0  0  0  0
    1.7128    7.0508    0.0100 H   0  0  0  0  0  0  0  0  0  0  0  0
   -8.4938   -1.4522   -2.4254 H   0  0  0  0  0  0  0  0  0  0  0  0
   -7.7851   -0.2507   -3.5288 H   0  0  0  0  0  0  0  0  0  0  0  0
   -8.3767    0.2760   -1.9364 H   0  0  0  0  0  0  0  0  0  0  0  0
  1  4  2  0  0  0  0
  1  5  2  0  0  0  0
  1 11  1  0  0  0  0
  1 25  1  0  0  0  0
  2 14  1  0  0  0  0
  2 15  1  0  0  0  0
  3 13  1  0  0  0  0
  3 46  1  0  0  0  0
  6 32  1  0  0  0  0
  6 34  1  0  0  0  0
  7 33  1  0  0  0  0
  7 59  1  0  0  0  0
  8 32  2  0  0  0  0
  9 33  2  0  0  0  0
 10 12  1  0  0  0  0
 10 17  1  0  0  0  0
 10 18  1  0  0  0  0
 11 16  1  0  0  0  0
 11 47  1  0  0  0  0
 12 13  1  0  0  0  0
 12 15  1  0  0  0  0
 12 35  1  0  0  0  0
 13 14  1  0  0  0  0
 13 36  1  0  0  0  0
 14 16  1  0  0  0  0
 14 37  1  0  0  0  0
 15 38  1  0  0  0  0
 15 39  1  0  0  0  0
 16 40  1  0  0  0  0
 16 41  1  0  0  0  0
 17 19  1  0  0  0  0
 17 42  1  0  0  0  0
 17 43  1  0  0  0  0
 18 20  1  0  0  0  0
 18 44  1  0  0  0  0
 18 45  1  0  0  0  0
 19 21  2  0  0  0  0
 19 22  1  0  0  0  0
 20 23  2  0  0  0  0
 20 24  1  0  0  0  0
 21 26  1  0  0  0  0
 21 48  1  0  0  0  0
 22 27  2  0  0  0  0
 22 49  1  0  0  0  0
 23 28  1  0  0  0  0
 23 50  1  0  0  0  0
 24 29  2  0  0  0  0
 24 51  1  0  0  0  0
 25 52  1  0  0  0  0
 25 53  1  0  0  0  0
 25 54  1  0  0  0  0
 26 30  2  0  0  0  0
 26 55  1  0  0  0  0
 27 30  1  0  0  0  0
 27 56  1  0  0  0  0
 28 31  2  0  0  0  0
 28 57  1  0  0  0  0
 29 31  1  0  0  0  0
 29 58  1  0  0  0  0
 30 32  1  0  0  0  0
 31 33  1  0  0  0  0
 34 60  1  0  0  0  0
 34 61  1  0  0  0  0
 34 62  1  0  0  0  0
M  END
> <PUBCHEM_COMPOUND_CID>
75536457

> <PUBCHEM_CONFORMER_RMSD>
1.2

> <PUBCHEM_CONFORMER_DIVERSEORDER>
1
24
15
2
10
14
20
12
17
6
19
5
11
9
16
13
22
4
7
18
21
23
8
3

> <PUBCHEM_MMFF94_PARTIAL_CHARGES>
45
1 1.33
10 -0.81
11 -0.91
12 0.27
13 0.28
14 0.28
15 0.28
16 0.36
17 0.41
18 0.41
19 -0.14
2 -0.56
20 -0.14
21 -0.15
22 -0.15
23 -0.15
24 -0.15
25 0.11
26 -0.15
27 -0.15
28 -0.15
29 -0.15
3 -0.68
30 0.09
31 0.09
32 0.63
33 0.63
34 0.28
4 -0.65
46 0.4
47 0.42
48 0.15
49 0.15
5 -0.65
50 0.15
51 0.15
55 0.15
56 0.15
57 0.15
58 0.15
59 0.5
6 -0.43
7 -0.65
8 -0.57
9 -0.57

> <PUBCHEM_EFFECTIVE_ROTOR_COUNT>
12

> <PUBCHEM_PHARMACOPHORE_FEATURES>
14
1 10 cation
1 11 donor
1 2 acceptor
1 3 acceptor
1 3 donor
1 4 acceptor
1 5 acceptor
1 7 acceptor
1 8 acceptor
1 9 acceptor
3 7 9 33 anion
5 2 12 13 14 15 rings
6 19 21 22 26 27 30 rings
6 20 23 24 28 29 31 rings

> <PUBCHEM_HEAVY_ATOM_COUNT>
34

> <PUBCHEM_ATOM_DEF_STEREO_COUNT>
3

> <PUBCHEM_ATOM_UDEF_STEREO_COUNT>
0

> <PUBCHEM_BOND_DEF_STEREO_COUNT>
0

> <PUBCHEM_BOND_UDEF_STEREO_COUNT>
0

> <PUBCHEM_ISOTOPIC_ATOM_COUNT>
0

> <PUBCHEM_COMPONENT_COUNT>
1

> <PUBCHEM_CACTVS_TAUTO_COUNT>
1

> <PUBCHEM_CONFORMER_ID>
0480984900000001

> <PUBCHEM_MMFF94_ENERGY>
100.8777

> <PUBCHEM_FEATURE_SELFOVERLAP>
71.126

> <PUBCHEM_SHAPE_FINGERPRINT>
102385 1 17691127032977824026
10985338 8 14491284502506149563
11297750 10 18200295629841395488
11331351 85 17917996070348361601
11386260 185 18266721624285742685
11411753 29 18115873065951887203
11477941 20 18338812126405225364
11720765 8 18339929341087167116
12293681 160 17894916217548965546
12788726 201 18261671459488597122
13540713 5 17828202095909920266
13617811 41 18411420601301615162
13690498 29 18128263290306820934
13726171 33 15142067774529351223
13757389 114 17981618065281804153
13911987 19 18260554411071988499
14020679 6 11603114915200444774
14068700 675 17989489619427009561
14118638 360 18337963273670558534
14294032 229 18050580538598378752
14347332 77 18198065785922456954
14508225 48 18411423903693103088
14556957 393 18262256434112888116
15198563 99 18338240340997499988
15439362 3 18122341556343541009
16087824 20 18193563255926644449
16664035 7 18411131408827349480
16728300 4 12678637265248437606
16988056 13 18263909064572512117
16994733 274 15068337904498367295
18365409 1 16824142267816805235
21120745 212 18267314144572375776
21365058 113 18409168827019714085
21583282 1 18058168513439302284
21641784 216 18337689516137311118
21792961 116 18041284287570253146
23559900 14 18262790891575339035
23576562 1 18267013029026862359
24771750 20 17831874812052752518
283562 15 18264213517502950530
4017518 198 17621600940779308400
4066623 53 18411982455985336468
4353968 344 18267308626278320918
437815 12 18343299262869191751
4394409 98 17468778724307240604
4561138 5 17458338633978152040
5081480 168 18337093658102205285
5104073 3 9150019691764106510
5219985 9 18343581819760968843
57591035 28 18187359913658292429
57724786 102 18264765631970886281
6058803 2 17538280636456798450

> <PUBCHEM_SHAPE_MULTIPOLES>
646.64
17.11
6.88
1.94
1.56
17.14
0.68
-22.52
13.93
-5.61
1.2
0.7
-0.15
1.46

> <PUBCHEM_SHAPE_SELFOVERLAP>
1356.604

> <PUBCHEM_SHAPE_VOLUME>
366.2

> <PUBCHEM_COORDINATE_TYPE>
2
5
10

$$$$
