11884110
  -OEChem-12032416363D

 57 60  0     1  0  0  0  0  0999 V2000
    7.9261   -2.0684   -2.1870 Cl  0  0  0  0  0  0  0  0  0  0  0  0
    4.4171    2.2932    0.6072 S   0  0  0  0  0  0  0  0  0  0  0  0
    0.2613    0.1763    1.5062 O   0  0  0  0  0  0  0  0  0  0  0  0
    2.2221   -2.0295    0.6393 O   0  0  0  0  0  0  0  0  0  0  0  0
   -1.3574   -1.8854    0.5992 O   0  0  0  0  0  0  0  0  0  0  0  0
    4.8362    2.3842    1.9929 O   0  0  0  0  0  0  0  0  0  0  0  0
    4.4466    3.4680   -0.2427 O   0  0  0  0  0  0  0  0  0  0  0  0
   -2.0947   -0.3747   -0.9513 O   0  0  0  0  0  0  0  0  0  0  0  0
    2.8689    1.6009    0.5290 N   0  0  0  0  0  0  0  0  0  0  0  0
   -3.5453   -1.3375    0.6137 N   0  0  0  0  0  0  0  0  0  0  0  0
    2.0339   -0.6753    0.1782 C   0  0  1  0  0  0  0  0  0  0  0  0
    0.5439   -0.3994    0.2200 C   0  0  1  0  0  0  0  0  0  0  0  0
    2.6123    0.2937    1.1792 C   0  0  2  0  0  0  0  0  0  0  0  0
   -0.0499   -1.7808    0.0828 C   0  0  1  0  0  0  0  0  0  0  0  0
    1.4945    0.4367    2.1938 C   0  0  0  0  0  0  0  0  0  0  0  0
    0.9361   -2.6289    0.8539 C   0  0  0  0  0  0  0  0  0  0  0  0
    5.4085    1.0609   -0.1823 C   0  0  0  0  0  0  0  0  0  0  0  0
   -2.3308   -1.1187   -0.0072 C   0  0  0  0  0  0  0  0  0  0  0  0
    5.6022    1.1246   -1.5512 C   0  0  0  0  0  0  0  0  0  0  0  0
    5.9726    0.0550    0.5832 C   0  0  0  0  0  0  0  0  0  0  0  0
   -4.7966   -0.7558    0.3077 C   0  0  0  0  0  0  0  0  0  0  0  0
    6.3845    0.1522   -2.1742 C   0  0  0  0  0  0  0  0  0  0  0  0
    6.7550   -0.9173   -0.0398 C   0  0  0  0  0  0  0  0  0  0  0  0
    6.9609   -0.8688   -1.4184 C   0  0  0  0  0  0  0  0  0  0  0  0
   -5.9098   -1.1078    1.0543 C   0  0  0  0  0  0  0  0  0  0  0  0
   -4.8862    0.1548   -0.7330 C   0  0  0  0  0  0  0  0  0  0  0  0
   -7.2506    0.3842   -0.2921 C   0  0  0  0  0  0  0  0  0  0  0  0
   -8.5711    0.9978   -0.6152 C   0  0  0  0  0  0  0  0  0  0  0  0
   -7.1449   -0.5341    0.7524 C   0  0  0  0  0  0  0  0  0  0  0  0
   -6.1212    0.7287   -1.0349 C   0  0  0  0  0  0  0  0  0  0  0  0
   -8.5712    2.5269   -0.4288 C   0  0  0  0  0  0  0  0  0  0  0  0
   -9.0529    0.6445   -2.0349 C   0  0  0  0  0  0  0  0  0  0  0  0
    2.4614   -0.6049   -0.8271 H   0  0  0  0  0  0  0  0  0  0  0  0
    0.2265    0.3166   -0.5426 H   0  0  0  0  0  0  0  0  0  0  0  0
    3.5021   -0.0823    1.6861 H   0  0  0  0  0  0  0  0  0  0  0  0
   -0.0337   -2.0956   -0.9694 H   0  0  0  0  0  0  0  0  0  0  0  0
    1.4455    1.4250    2.6613 H   0  0  0  0  0  0  0  0  0  0  0  0
    1.5857   -0.3145    2.9860 H   0  0  0  0  0  0  0  0  0  0  0  0
    0.9522   -3.6666    0.5074 H   0  0  0  0  0  0  0  0  0  0  0  0
    0.7248   -2.6398    1.9291 H   0  0  0  0  0  0  0  0  0  0  0  0
    2.1799    1.9377   -0.1540 H   0  0  0  0  0  0  0  0  0  0  0  0
   -3.5411   -1.9981    1.3871 H   0  0  0  0  0  0  0  0  0  0  0  0
    5.1556    1.9059   -2.1582 H   0  0  0  0  0  0  0  0  0  0  0  0
    5.8331    0.0021    1.6583 H   0  0  0  0  0  0  0  0  0  0  0  0
    6.5348    0.2013   -3.2496 H   0  0  0  0  0  0  0  0  0  0  0  0
    7.1992   -1.7061    0.5619 H   0  0  0  0  0  0  0  0  0  0  0  0
   -9.3257    0.6001    0.0772 H   0  0  0  0  0  0  0  0  0  0  0  0
   -5.8384   -1.8219    1.8700 H   0  0  0  0  0  0  0  0  0  0  0  0
   -4.0582    0.4701   -1.3510 H   0  0  0  0  0  0  0  0  0  0  0  0
   -8.0146   -0.8137    1.3411 H   0  0  0  0  0  0  0  0  0  0  0  0
   -6.1818    1.4418   -1.8526 H   0  0  0  0  0  0  0  0  0  0  0  0
   -7.9001    3.0259   -1.1361 H   0  0  0  0  0  0  0  0  0  0  0  0
   -9.5774    2.9320   -0.5815 H   0  0  0  0  0  0  0  0  0  0  0  0
   -8.2508    2.7953    0.5841 H   0  0  0  0  0  0  0  0  0  0  0  0
   -9.0792   -0.4415   -2.1778 H   0  0  0  0  0  0  0  0  0  0  0  0
  -10.0641    1.0304   -2.2040 H   0  0  0  0  0  0  0  0  0  0  0  0
   -8.4011    1.0686   -2.8063 H   0  0  0  0  0  0  0  0  0  0  0  0
  1 24  1  0  0  0  0
  2  6  2  0  0  0  0
  2  7  2  0  0  0  0
  2  9  1  0  0  0  0
  2 17  1  0  0  0  0
  3 12  1  0  0  0  0
  3 15  1  0  0  0  0
  4 11  1  0  0  0  0
  4 16  1  0  0  0  0
  5 14  1  0  0  0  0
  5 18  1  0  0  0  0
  8 18  2  0  0  0  0
  9 13  1  0  0  0  0
  9 41  1  0  0  0  0
 10 18  1  0  0  0  0
 10 21  1  0  0  0  0
 10 42  1  0  0  0  0
 11 12  1  0  0  0  0
 11 13  1  0  0  0  0
 11 33  1  0  0  0  0
 12 14  1  0  0  0  0
 12 34  1  0  0  0  0
 13 15  1  0  0  0  0
 13 35  1  0  0  0  0
 14 16  1  0  0  0  0
 14 36  1  0  0  0  0
 15 37  1  0  0  0  0
 15 38  1  0  0  0  0
 16 39  1  0  0  0  0
 16 40  1  0  0  0  0
 17 19  2  0  0  0  0
 17 20  1  0  0  0  0
 19 22  1  0  0  0  0
 19 43  1  0  0  0  0
 20 23  2  0  0  0  0
 20 44  1  0  0  0  0
 21 25  2  0  0  0  0
 21 26  1  0  0  0  0
 22 24  2  0  0  0  0
 22 45  1  0  0  0  0
 23 24  1  0  0  0  0
 23 46  1  0  0  0  0
 25 29  1  0  0  0  0
 25 48  1  0  0  0  0
 26 30  2  0  0  0  0
 26 49  1  0  0  0  0
 27 28  1  0  0  0  0
 27 29  2  0  0  0  0
 27 30  1  0  0  0  0
 28 31  1  0  0  0  0
 28 32  1  0  0  0  0
 28 47  1  0  0  0  0
 29 50  1  0  0  0  0
 30 51  1  0  0  0  0
 31 52  1  0  0  0  0
 31 53  1  0  0  0  0
 31 54  1  0  0  0  0
 32 55  1  0  0  0  0
 32 56  1  0  0  0  0
 32 57  1  0  0  0  0
M  END
> <PUBCHEM_COMPOUND_CID>
11884110

> <PUBCHEM_CONFORMER_RMSD>
1

> <PUBCHEM_CONFORMER_DIVERSEORDER>
1
31
72
11
42
69
25
60
101
78
84
26
61
68
47
85
97
53
70
94
45
18
23
3
67
48
52
92
29
96
64
88
13
58
86
33
24
10
90
34
5
14
65
6
62
71
28
95
66
89
2
79
22
38
4
82
37
20
83
91
99
16
77
54
55
30
98
21
44
49
76
41
87
36
102
51
56
35
93
74
57
32
15
8
80
7
103
43
19
27
46
73
39
9
40
104
100
17
81
59
50
75
63
12

> <PUBCHEM_MMFF94_PARTIAL_CHARGES>
40
1 -0.18
10 -0.55
11 0.28
12 0.28
13 0.36
14 0.28
15 0.28
16 0.28
17 -0.01
18 0.78
19 -0.15
2 1.45
20 -0.15
21 0.12
22 -0.15
23 -0.15
24 0.18
25 -0.15
26 -0.15
27 -0.14
28 0.14
29 -0.15
3 -0.56
30 -0.15
4 -0.56
41 0.42
42 0.37
43 0.15
44 0.15
45 0.15
46 0.15
48 0.15
49 0.15
5 -0.43
50 0.15
51 0.15
6 -0.65
7 -0.65
8 -0.57
9 -0.91

> <PUBCHEM_EFFECTIVE_ROTOR_COUNT>
9.2

> <PUBCHEM_PHARMACOPHORE_FEATURES>
12
1 10 donor
1 3 acceptor
1 4 acceptor
1 6 acceptor
1 7 acceptor
1 8 acceptor
1 9 donor
3 28 31 32 hydrophobe
5 3 11 12 13 15 rings
5 4 11 12 14 16 rings
6 17 19 20 22 23 24 rings
6 21 25 26 27 29 30 rings

> <PUBCHEM_HEAVY_ATOM_COUNT>
32

> <PUBCHEM_ATOM_DEF_STEREO_COUNT>
4

> <PUBCHEM_ATOM_UDEF_STEREO_COUNT>
0

> <PUBCHEM_BOND_DEF_STEREO_COUNT>
0

> <PUBCHEM_BOND_UDEF_STEREO_COUNT>
0

> <PUBCHEM_ISOTOPIC_ATOM_COUNT>
0

> <PUBCHEM_COMPONENT_COUNT>
1

> <PUBCHEM_CACTVS_TAUTO_COUNT>
2

> <PUBCHEM_CONFORMER_ID>
00B5564E00000001

> <PUBCHEM_MMFF94_ENERGY>
77.3148

> <PUBCHEM_FEATURE_SELFOVERLAP>
61.628

> <PUBCHEM_SHAPE_FINGERPRINT>
10 15 16298103173485668149
10258939 38 10375605771538494990
10554248 39 17703795863761191204
106641 1 8214136344391670758
10670039 82 18272093756125730417
11135609 127 17202752830742954624
11146346 171 18040729047478663283
11374522 175 18127979603053253422
11386260 185 17989207088010566072
11409948 41 17345754075457608606
11828042 291 18198325283034771399
11991303 11 17988641969019520271
12013929 112 18337961090639645687
12522641 24 16226037861264954850
12539765 74 16443348654344899818
13782708 43 17985273112351966602
13835254 42 10954000573680776942
14068700 675 14549024281733141067
14251757 52 17240488043800753868
14537116 161 18411704279580023428
14931854 50 18060698378051980433
15119646 104 15913340078202905110
15183329 4 15985114045185027809
15198563 99 17987530233746274112
15392192 104 15140684683105623665
15461852 350 18408600397384823207
18335252 114 18272927241325590801
190975 80 8718825388285403085
2026 5 12391522970914233909
21033648 29 18115020943870037880
21133410 58 18060421314039098334
21279426 13 18271249421326445730
22149856 69 7853586750179086103
22224240 67 12901549052400859530
23576562 1 18198894989751677869
4066623 53 16487254382851134184
4073 2 17676210161357104747
474113 269 17845379852296921894
504579 68 17418087720629534655
5104073 3 11530747190343355231
54076057 255 16733272326523447300
5718773 13 10519984877318441993
5758199 1 15140963963063869115
57676310 78 17702945803755086614
59682541 35 8790882957017894158
59682541 52 17131836473343516220
6004065 56 9943802291980668583
6438161 24 13110960920936894717
9689198 14 17676492773623857029
9962374 69 9727333725013653153

> <PUBCHEM_SHAPE_MULTIPOLES>
619.09
28.83
2.57
1.81
36.96
1.02
0.36
8.02
15.89
-2.61
-0.34
-1.99
0.11
3.23

> <PUBCHEM_SHAPE_SELFOVERLAP>
1307.609

> <PUBCHEM_SHAPE_VOLUME>
349.8

> <PUBCHEM_COORDINATE_TYPE>
2
5
10

$$$$
