75536283
  -OEChem-12032416303D

 56 58  0     1  0  0  0  0  0999 V2000
    2.9289   -0.2732    0.5775 O   0  0  0  0  0  0  0  0  0  0  0  0
    5.5706    0.4031    1.6967 O   0  0  0  0  0  0  0  0  0  0  0  0
   -0.8502   -2.0310   -1.2986 O   0  0  0  0  0  0  0  0  0  0  0  0
    0.3412    1.8200   -1.3756 O   0  0  0  0  0  0  0  0  0  0  0  0
   -1.9672   -2.0440    1.9058 O   0  0  0  0  0  0  0  0  0  0  0  0
   -3.5885    0.7533    1.6908 O   0  0  0  0  0  0  0  0  0  0  0  0
    1.0210    1.7994    0.8355 N   0  0  0  0  0  0  0  0  0  0  0  0
    0.3838   -1.7453   -1.8697 N   0  0  0  0  0  0  0  0  0  0  0  0
   -1.1908    1.3649    0.3439 N   0  0  0  0  0  0  0  0  0  0  0  0
    3.2200   -0.4571   -0.8100 C   0  0  1  0  0  0  0  0  0  0  0  0
    3.3080    0.9999    1.1166 C   0  0  1  0  0  0  0  0  0  0  0  0
    4.7966    1.2857    0.8800 C   0  0  2  0  0  0  0  0  0  0  0  0
    4.7166   -0.2971   -1.0726 C   0  0  0  0  0  0  0  0  0  0  0  0
    5.2086    1.0579   -0.5719 C   0  0  0  0  0  0  0  0  0  0  0  0
    2.7478   -1.8536   -1.1962 C   0  0  0  0  0  0  0  0  0  0  0  0
    2.3975    2.1106    0.5970 C   0  0  0  0  0  0  0  0  0  0  0  0
    1.2795   -2.0409   -0.9233 C   0  0  0  0  0  0  0  0  0  0  0  0
    0.6750   -2.5129    0.2547 C   0  0  0  0  0  0  0  0  0  0  0  0
    0.0649    1.6722   -0.1874 C   0  0  0  0  0  0  0  0  0  0  0  0
   -0.6638   -2.4872   -0.0336 C   0  0  0  0  0  0  0  0  0  0  0  0
   -1.8727   -2.8393    0.7209 C   0  0  0  0  0  0  0  0  0  0  0  0
   -2.4027    1.1590   -0.3556 C   0  0  0  0  0  0  0  0  0  0  0  0
   -3.5780    0.8561    0.3315 C   0  0  0  0  0  0  0  0  0  0  0  0
   -2.4141    1.2594   -1.7468 C   0  0  0  0  0  0  0  0  0  0  0  0
   -4.7651    0.6538   -0.3725 C   0  0  0  0  0  0  0  0  0  0  0  0
   -3.6012    1.0570   -2.4509 C   0  0  0  0  0  0  0  0  0  0  0  0
   -3.1296   -2.3688    2.6500 C   0  0  0  0  0  0  0  0  0  0  0  0
   -4.7767    0.7542   -1.7638 C   0  0  0  0  0  0  0  0  0  0  0  0
   -3.8592    1.9438    2.4276 C   0  0  0  0  0  0  0  0  0  0  0  0
    2.6600    0.2781   -1.3988 H   0  0  0  0  0  0  0  0  0  0  0  0
    3.1448    0.9053    2.1980 H   0  0  0  0  0  0  0  0  0  0  0  0
    5.0424    2.3070    1.1915 H   0  0  0  0  0  0  0  0  0  0  0  0
    4.9325   -0.4000   -2.1420 H   0  0  0  0  0  0  0  0  0  0  0  0
    5.2722   -1.0867   -0.5508 H   0  0  0  0  0  0  0  0  0  0  0  0
    6.2993    1.1000   -0.6740 H   0  0  0  0  0  0  0  0  0  0  0  0
    4.7923    1.8503   -1.2046 H   0  0  0  0  0  0  0  0  0  0  0  0
    3.2964   -2.6090   -0.6183 H   0  0  0  0  0  0  0  0  0  0  0  0
    2.9549   -2.0474   -2.2559 H   0  0  0  0  0  0  0  0  0  0  0  0
    2.5538    2.3002   -0.4686 H   0  0  0  0  0  0  0  0  0  0  0  0
    2.6117    3.0455    1.1266 H   0  0  0  0  0  0  0  0  0  0  0  0
    6.5074    0.6308    1.5694 H   0  0  0  0  0  0  0  0  0  0  0  0
    0.7100    1.7095    1.7979 H   0  0  0  0  0  0  0  0  0  0  0  0
    1.1414   -2.8254    1.1773 H   0  0  0  0  0  0  0  0  0  0  0  0
   -2.7678   -2.6776    0.1083 H   0  0  0  0  0  0  0  0  0  0  0  0
   -1.8336   -3.8991    0.9988 H   0  0  0  0  0  0  0  0  0  0  0  0
   -1.2485    1.2697    1.3546 H   0  0  0  0  0  0  0  0  0  0  0  0
   -1.5498    1.4877   -2.3531 H   0  0  0  0  0  0  0  0  0  0  0  0
   -5.6843    0.4161    0.1560 H   0  0  0  0  0  0  0  0  0  0  0  0
   -3.6115    1.1342   -3.5343 H   0  0  0  0  0  0  0  0  0  0  0  0
   -3.1624   -1.7284    3.5356 H   0  0  0  0  0  0  0  0  0  0  0  0
   -3.0969   -3.4126    2.9772 H   0  0  0  0  0  0  0  0  0  0  0  0
   -4.0318   -2.1892    2.0572 H   0  0  0  0  0  0  0  0  0  0  0  0
   -5.7009    0.5960   -2.3119 H   0  0  0  0  0  0  0  0  0  0  0  0
   -4.8703    2.3038    2.2124 H   0  0  0  0  0  0  0  0  0  0  0  0
   -3.1264    2.7226    2.1941 H   0  0  0  0  0  0  0  0  0  0  0  0
   -3.7915    1.7089    3.4933 H   0  0  0  0  0  0  0  0  0  0  0  0
  1 10  1  0  0  0  0
  1 11  1  0  0  0  0
  2 12  1  0  0  0  0
  2 41  1  0  0  0  0
  3  8  1  0  0  0  0
  3 20  1  0  0  0  0
  4 19  2  0  0  0  0
  5 21  1  0  0  0  0
  5 27  1  0  0  0  0
  6 23  1  0  0  0  0
  6 29  1  0  0  0  0
  7 16  1  0  0  0  0
  7 19  1  0  0  0  0
  7 42  1  0  0  0  0
  8 17  2  0  0  0  0
  9 19  1  0  0  0  0
  9 22  1  0  0  0  0
  9 46  1  0  0  0  0
 10 13  1  0  0  0  0
 10 15  1  0  0  0  0
 10 30  1  0  0  0  0
 11 12  1  0  0  0  0
 11 16  1  0  0  0  0
 11 31  1  0  0  0  0
 12 14  1  0  0  0  0
 12 32  1  0  0  0  0
 13 14  1  0  0  0  0
 13 33  1  0  0  0  0
 13 34  1  0  0  0  0
 14 35  1  0  0  0  0
 14 36  1  0  0  0  0
 15 17  1  0  0  0  0
 15 37  1  0  0  0  0
 15 38  1  0  0  0  0
 16 39  1  0  0  0  0
 16 40  1  0  0  0  0
 17 18  1  0  0  0  0
 18 20  2  0  0  0  0
 18 43  1  0  0  0  0
 20 21  1  0  0  0  0
 21 44  1  0  0  0  0
 21 45  1  0  0  0  0
 22 23  1  0  0  0  0
 22 24  2  0  0  0  0
 23 25  2  0  0  0  0
 24 26  1  0  0  0  0
 24 47  1  0  0  0  0
 25 28  1  0  0  0  0
 25 48  1  0  0  0  0
 26 28  2  0  0  0  0
 26 49  1  0  0  0  0
 27 50  1  0  0  0  0
 27 51  1  0  0  0  0
 27 52  1  0  0  0  0
 28 53  1  0  0  0  0
 29 54  1  0  0  0  0
 29 55  1  0  0  0  0
 29 56  1  0  0  0  0
M  END
> <PUBCHEM_COMPOUND_CID>
75536283

> <PUBCHEM_CONFORMER_RMSD>
1

> <PUBCHEM_CONFORMER_DIVERSEORDER>
1
23
42
127
151
47
31
85
152
114
132
154
125
74
129
19
130
60
144
134
7
123
21
65
112
77
113
32
138
67
87
107
51
140
11
50
105
54
80
38
48
116
146
72
94
104
56
62
55
102
59
115
14
120
106
79
97
143
88
99
70
6
73
122
83
17
103
128
25
142
149
58
71
131
108
29
75
64
91
66
136
49
41
76
9
110
24
148
150
57
35
109
8
81
145
139
33
86
69
52
22
37
133
44
68
3
39
53
96
119
101
100
84
95
15
111
89
137
34
36
40
93
124
30
26
43
18
153
16
141
98
12
147
28
121
45
126
61
117
27
92
5
118
90
20
135
10
4
82
63
78
2
46
13

> <PUBCHEM_MMFF94_PARTIAL_CHARGES>
35
1 -0.56
10 0.28
11 0.28
12 0.28
15 0.18
16 0.3
17 0.11
18 -0.15
19 0.69
2 -0.68
20 -0.04
21 0.46
22 0.12
23 0.08
24 -0.15
25 -0.15
26 -0.15
27 0.28
28 -0.15
29 0.28
3 -0.02
4 -0.57
41 0.4
42 0.37
43 0.15
46 0.37
47 0.15
48 0.15
49 0.15
5 -0.56
53 0.15
6 -0.36
7 -0.73
8 -0.41
9 -0.55

> <PUBCHEM_EFFECTIVE_ROTOR_COUNT>
11.2

> <PUBCHEM_PHARMACOPHORE_FEATURES>
12
1 1 acceptor
1 2 acceptor
1 2 donor
1 4 acceptor
1 5 acceptor
1 6 acceptor
1 7 donor
1 8 acceptor
1 9 donor
5 3 8 17 18 20 rings
6 1 10 11 12 13 14 rings
6 22 23 24 25 26 28 rings

> <PUBCHEM_HEAVY_ATOM_COUNT>
29

> <PUBCHEM_ATOM_DEF_STEREO_COUNT>
3

> <PUBCHEM_ATOM_UDEF_STEREO_COUNT>
0

> <PUBCHEM_BOND_DEF_STEREO_COUNT>
0

> <PUBCHEM_BOND_UDEF_STEREO_COUNT>
0

> <PUBCHEM_ISOTOPIC_ATOM_COUNT>
0

> <PUBCHEM_COMPONENT_COUNT>
1

> <PUBCHEM_CACTVS_TAUTO_COUNT>
3

> <PUBCHEM_CONFORMER_ID>
0480979B00000001

> <PUBCHEM_MMFF94_ENERGY>
68.6088

> <PUBCHEM_FEATURE_SELFOVERLAP>
60.951

> <PUBCHEM_SHAPE_FINGERPRINT>
10675989 125 17104790450354437485
11112241 14 17846206804260551464
12035758 1 18187378635952530001
12422481 6 18121525658950102075
12467345 10 14418140595200547581
12596602 18 15554439725952545216
12633257 1 18041579008541835913
13402501 40 18409731776714698247
13583140 156 17167579397313358652
13726171 33 18044401510873261092
14251764 3 18186793648100055949
144659 39 17676499366377915036
14787075 74 18201431463211352476
15721738 202 17203319044818721455
17492 54 18342165640183565359
21033648 29 17822573781300558917
22182313 1 18340785796251875742
23559900 14 16590280671004676327
3052486 1 18114754836128264390
35225 105 17749383797702772299
469060 322 17676488389069403423
508706 21 18186241753566735623
56638632 10 17273422891902204832
59755656 215 18337941347434335437
6287921 2 17273693148624888919

> <PUBCHEM_SHAPE_MULTIPOLES>
546.65
10.51
3.21
2.3
5.7
2.2
-0.46
-4.79
-1.01
-1.04
-0.7
-2.38
0.06
1.98

> <PUBCHEM_SHAPE_SELFOVERLAP>
1141.407

> <PUBCHEM_SHAPE_VOLUME>
310

> <PUBCHEM_COORDINATE_TYPE>
2
5
10

$$$$
