11913359
  -OEChem-12032416383D

 57 61  0     1  0  0  0  0  0999 V2000
    4.5558   -0.2214    3.7113 F   0  0  0  0  0  0  0  0  0  0  0  0
   -0.8299    3.2162   -1.5984 O   0  0  0  0  0  0  0  0  0  0  0  0
    0.5420    2.4064    1.0847 O   0  0  0  0  0  0  0  0  0  0  0  0
   -4.5345    1.9286    0.2717 O   0  0  0  0  0  0  0  0  0  0  0  0
    1.4059    1.1753   -2.2421 N   0  0  0  0  0  0  0  0  0  0  0  0
   -2.4559    1.6036    1.2544 N   0  0  0  0  0  0  0  0  0  0  0  0
   -4.2197    0.2462    1.8383 N   0  0  0  0  0  0  0  0  0  0  0  0
    3.0575    0.0120   -1.0482 N   0  0  0  0  0  0  0  0  0  0  0  0
    2.3071   -0.7673   -3.2014 N   0  0  0  0  0  0  0  0  0  0  0  0
    0.3067    1.7088   -0.1501 C   0  0  1  0  0  0  0  0  0  0  0  0
   -1.0510    2.1476   -0.6629 C   0  0  1  0  0  0  0  0  0  0  0  0
    1.2727    2.1810   -1.2109 C   0  0  2  0  0  0  0  0  0  0  0  0
   -1.7597    2.6648    0.5681 C   0  0  2  0  0  0  0  0  0  0  0  0
    0.5819    3.4133   -1.7655 C   0  0  0  0  0  0  0  0  0  0  0  0
   -0.6106    3.2000    1.4038 C   0  0  0  0  0  0  0  0  0  0  0  0
    2.2828    0.1081   -2.1615 C   0  0  0  0  0  0  0  0  0  0  0  0
   -3.8041    1.3162    1.0498 C   0  0  0  0  0  0  0  0  0  0  0  0
   -5.5721   -0.2593    1.8217 C   0  0  0  0  0  0  0  0  0  0  0  0
    3.9009   -1.0400   -1.0029 C   0  0  0  0  0  0  0  0  0  0  0  0
    3.1735   -1.7955   -3.0899 C   0  0  0  0  0  0  0  0  0  0  0  0
    4.0029   -1.9847   -2.0036 C   0  0  0  0  0  0  0  0  0  0  0  0
   -5.7552   -1.3403    0.7959 C   0  0  0  0  0  0  0  0  0  0  0  0
    4.7129   -1.1236    0.1875 C   0  0  0  0  0  0  0  0  0  0  0  0
   -6.1401   -1.0037   -0.4965 C   0  0  0  0  0  0  0  0  0  0  0  0
   -5.5384   -2.6671    1.1489 C   0  0  0  0  0  0  0  0  0  0  0  0
    4.2335   -0.6221    1.3996 C   0  0  0  0  0  0  0  0  0  0  0  0
    5.9810   -1.7064    0.1317 C   0  0  0  0  0  0  0  0  0  0  0  0
   -6.3103   -2.0078   -1.4495 C   0  0  0  0  0  0  0  0  0  0  0  0
   -5.7086   -3.6713    0.1959 C   0  0  0  0  0  0  0  0  0  0  0  0
    5.0180   -0.7031    2.5501 C   0  0  0  0  0  0  0  0  0  0  0  0
    6.7654   -1.7873    1.2822 C   0  0  0  0  0  0  0  0  0  0  0  0
   -6.0945   -3.3417   -1.1034 C   0  0  0  0  0  0  0  0  0  0  0  0
    6.2839   -1.2856    2.4914 C   0  0  0  0  0  0  0  0  0  0  0  0
    0.3507    0.6374    0.0698 H   0  0  0  0  0  0  0  0  0  0  0  0
   -1.5862    1.3531   -1.1928 H   0  0  0  0  0  0  0  0  0  0  0  0
    2.2553    2.4663   -0.8179 H   0  0  0  0  0  0  0  0  0  0  0  0
   -2.4747    3.4630    0.3412 H   0  0  0  0  0  0  0  0  0  0  0  0
    0.7978    3.6076   -2.8206 H   0  0  0  0  0  0  0  0  0  0  0  0
    0.8538    4.3053   -1.1905 H   0  0  0  0  0  0  0  0  0  0  0  0
   -0.7915    3.1600    2.4822 H   0  0  0  0  0  0  0  0  0  0  0  0
   -0.3772    4.2352    1.1314 H   0  0  0  0  0  0  0  0  0  0  0  0
    0.7966    1.2079   -3.0516 H   0  0  0  0  0  0  0  0  0  0  0  0
   -1.9243    0.9947    1.8696 H   0  0  0  0  0  0  0  0  0  0  0  0
   -3.5395   -0.2134    2.4359 H   0  0  0  0  0  0  0  0  0  0  0  0
   -5.7930   -0.6396    2.8256 H   0  0  0  0  0  0  0  0  0  0  0  0
   -6.2694    0.5664    1.6359 H   0  0  0  0  0  0  0  0  0  0  0  0
    3.1783   -2.4895   -3.9236 H   0  0  0  0  0  0  0  0  0  0  0  0
    4.6578   -2.8458   -1.9687 H   0  0  0  0  0  0  0  0  0  0  0  0
   -6.3152    0.0306   -0.7786 H   0  0  0  0  0  0  0  0  0  0  0  0
   -5.2358   -2.9351    2.1574 H   0  0  0  0  0  0  0  0  0  0  0  0
    3.2476   -0.1708    1.4827 H   0  0  0  0  0  0  0  0  0  0  0  0
    6.4056   -2.0869   -0.7935 H   0  0  0  0  0  0  0  0  0  0  0  0
   -6.6117   -1.7513   -2.4610 H   0  0  0  0  0  0  0  0  0  0  0  0
   -5.5402   -4.7099    0.4653 H   0  0  0  0  0  0  0  0  0  0  0  0
    7.7536   -2.2355    1.2360 H   0  0  0  0  0  0  0  0  0  0  0  0
   -6.2270   -4.1236   -1.8454 H   0  0  0  0  0  0  0  0  0  0  0  0
    6.8951   -1.3471    3.3869 H   0  0  0  0  0  0  0  0  0  0  0  0
  1 30  1  0  0  0  0
  2 11  1  0  0  0  0
  2 14  1  0  0  0  0
  3 10  1  0  0  0  0
  3 15  1  0  0  0  0
  4 17  2  0  0  0  0
  5 12  1  0  0  0  0
  5 16  1  0  0  0  0
  5 42  1  0  0  0  0
  6 13  1  0  0  0  0
  6 17  1  0  0  0  0
  6 43  1  0  0  0  0
  7 17  1  0  0  0  0
  7 18  1  0  0  0  0
  7 44  1  0  0  0  0
  8 16  1  0  0  0  0
  8 19  2  0  0  0  0
  9 16  2  0  0  0  0
  9 20  1  0  0  0  0
 10 11  1  0  0  0  0
 10 12  1  0  0  0  0
 10 34  1  0  0  0  0
 11 13  1  0  0  0  0
 11 35  1  0  0  0  0
 12 14  1  0  0  0  0
 12 36  1  0  0  0  0
 13 15  1  0  0  0  0
 13 37  1  0  0  0  0
 14 38  1  0  0  0  0
 14 39  1  0  0  0  0
 15 40  1  0  0  0  0
 15 41  1  0  0  0  0
 18 22  1  0  0  0  0
 18 45  1  0  0  0  0
 18 46  1  0  0  0  0
 19 21  1  0  0  0  0
 19 23  1  0  0  0  0
 20 21  2  0  0  0  0
 20 47  1  0  0  0  0
 21 48  1  0  0  0  0
 22 24  2  0  0  0  0
 22 25  1  0  0  0  0
 23 26  2  0  0  0  0
 23 27  1  0  0  0  0
 24 28  1  0  0  0  0
 24 49  1  0  0  0  0
 25 29  2  0  0  0  0
 25 50  1  0  0  0  0
 26 30  1  0  0  0  0
 26 51  1  0  0  0  0
 27 31  2  0  0  0  0
 27 52  1  0  0  0  0
 28 32  2  0  0  0  0
 28 53  1  0  0  0  0
 29 32  1  0  0  0  0
 29 54  1  0  0  0  0
 30 33  2  0  0  0  0
 31 33  1  0  0  0  0
 31 55  1  0  0  0  0
 32 56  1  0  0  0  0
 33 57  1  0  0  0  0
M  END
> <PUBCHEM_COMPOUND_CID>
11913359

> <PUBCHEM_CONFORMER_RMSD>
1.2

> <PUBCHEM_CONFORMER_DIVERSEORDER>
1
26
223
375
116
296
56
115
346
336
251
367
352
225
90
282
141
123
221
77
155
310
9
313
227
303
285
364
69
132
329
317
134
30
260
143
263
339
91
51
37
294
88
57
297
185
289
152
244
372
171
136
213
253
158
237
111
113
127
82
325
283
267
144
350
212
172
261
309
307
114
64
315
264
87
314
65
138
122
343
98
316
356
175
186
173
262
359
58
50
191
250
70
139
85
295
326
323
218
83
129
245
242
195
29
344
324
215
119
76
34
311
16
256
274
103
334
280
130
161
332
19
170
95
284
79
169
209
305
146
52
97
184
14
271
217
335
153
371
68
207
210
13
288
128
279
348
216
363
322
20
160
205
174
99
21
196
259
54
187
239
362
258
243
74
203
106
257
224
374
150
320
121
190
330
255
298
272
81
299
345
167
361
206
353
287
157
229
368
238
73
302
354
358
181
369
112
240
273
370
211
337
246
292
49
75
163
61
109
340
234
366
200
318
180
226
105
38
338
15
231
84
182
355
281
235
148
11
230
194
208
269
89
312
48
179
104
178
45
220
145
321
133
293
342
165
290
300
126
268
247
147
248
301
120
17
107
308
8
232
72
92
162
319
110
46
233
93
101
365
270
254
102
241
202
18
306
100
277
80
94
159
78
360
349
42
96
252
4
24
222
228
125
22
47
197
12
278
149
124
275
286
27
151
60
188
23
304
357
118
266
117
347
32
351
176
177
135
137
31
154
291
39
142
276
86
28
373
198
44
63
214
71
66
341
219
59
41
166
201
327
35
331
7
168
53
33
189
328
10
67
249
62
131
265
55
183
156
2
40
5
204
236
193
199
164
43
108
140
25
36
333
192
3
6

> <PUBCHEM_MMFF94_PARTIAL_CHARGES>
46
1 -0.19
10 0.28
11 0.28
12 0.37
13 0.3
14 0.28
15 0.28
16 0.72
17 0.69
18 0.44
19 0.31
2 -0.56
20 0.16
21 -0.15
22 -0.14
24 -0.15
25 -0.15
26 -0.15
27 -0.15
28 -0.15
29 -0.15
3 -0.56
30 0.19
31 -0.15
32 -0.15
33 -0.15
4 -0.57
42 0.4
43 0.37
44 0.37
47 0.15
48 0.15
49 0.15
5 -0.87
50 0.15
51 0.15
52 0.15
53 0.15
54 0.15
55 0.15
56 0.15
57 0.15
6 -0.73
7 -0.73
8 -0.62
9 -0.62

> <PUBCHEM_EFFECTIVE_ROTOR_COUNT>
9.2

> <PUBCHEM_PHARMACOPHORE_FEATURES>
13
1 2 acceptor
1 3 acceptor
1 4 acceptor
1 5 donor
1 6 donor
1 7 donor
1 8 acceptor
4 5 8 9 16 cation
5 2 10 11 12 14 rings
5 3 10 11 13 15 rings
6 22 24 25 28 29 32 rings
6 23 26 27 30 31 33 rings
6 8 9 16 19 20 21 rings

> <PUBCHEM_HEAVY_ATOM_COUNT>
33

> <PUBCHEM_ATOM_DEF_STEREO_COUNT>
4

> <PUBCHEM_ATOM_UDEF_STEREO_COUNT>
0

> <PUBCHEM_BOND_DEF_STEREO_COUNT>
0

> <PUBCHEM_BOND_UDEF_STEREO_COUNT>
0

> <PUBCHEM_ISOTOPIC_ATOM_COUNT>
0

> <PUBCHEM_COMPONENT_COUNT>
1

> <PUBCHEM_CACTVS_TAUTO_COUNT>
9

> <PUBCHEM_CONFORMER_ID>
00B5C88F00000001

> <PUBCHEM_MMFF94_ENERGY>
89.0048

> <PUBCHEM_FEATURE_SELFOVERLAP>
66.73

> <PUBCHEM_SHAPE_FINGERPRINT>
10622 236 18186807993343610825
11135609 149 17095526240008335829
11135609 201 10807932700298208005
11211813 140 18187638098879632723
11478447 58 17761773270676974963
11720765 8 15936404563846973036
12559416 39 18410291445504406143
13627167 48 11891599214414278607
13782708 43 17986681355372529350
14340393 91 15430024444952166335
14950920 106 16628852664151287387
15163728 17 10519987058455277957
15419009 47 16589411004989024949
15530120 55 15865207977677712331
15684389 69 18339364175658036212
15721738 15 12973875971602384608
16989378 47 18113901614851701787
19303781 99 18261675973704894723
19315092 285 17894635812710350056
20156587 161 17896297212622827899
20156587 76 18266999787467952325
21223535 225 11602824643956592494
21458453 9 17346303908438079459
21585480 29 17203321239193672919
25222932 49 18260267448033499176
2838139 119 10809627090297194197
312425 54 17416982646697435291
38570 142 9690260898031808132
397830 11 16773798082538151787
42767 28 13479124710065073391
437795 139 18113610214480012791
4408954 87 16773789355128535527
444735 79 17775277279319961398
4756261 7 17342354613300691290
50009960 94 18197202849456523479
50742298 180 18269556216270104111
636783 38 17700116983485785806
6636735 143 17774723039924324409
9831354 38 17386845187314413299

> <PUBCHEM_SHAPE_MULTIPOLES>
629.34
18.76
4.43
3.23
9.5
1.53
0.16
-22.48
-8.45
5.11
0.99
-4.92
-0.68
-1.58

> <PUBCHEM_SHAPE_SELFOVERLAP>
1376.634

> <PUBCHEM_SHAPE_VOLUME>
341.1

> <PUBCHEM_COORDINATE_TYPE>
2
5
10

$$$$
