75367708
  -OEChem-12032416383D

 42 44  0     1  0  0  0  0  0999 V2000
    0.5482   -3.1139    0.6663 O   0  0  0  0  0  0  0  0  0  0  0  0
   -5.4347    1.1100    0.6178 O   0  0  0  0  0  0  0  0  0  0  0  0
    1.6025   -0.0290    0.0022 O   0  0  0  0  0  0  0  0  0  0  0  0
   -0.7892    1.3559   -1.1435 O   0  0  0  0  0  0  0  0  0  0  0  0
   -1.0145   -0.8954   -0.6603 N   0  0  0  0  0  0  0  0  0  0  0  0
   -2.8192    0.6441   -0.3263 N   0  0  0  0  0  0  0  0  0  0  0  0
    3.9025   -0.3528    0.0934 N   0  0  0  0  0  0  0  0  0  0  0  0
    4.2556    2.4231    0.2822 N   0  0  0  0  0  0  0  0  0  0  0  0
    0.1493   -1.2697   -1.4755 C   0  0  0  0  0  0  0  0  0  0  0  0
    1.4798   -1.2537   -0.7201 C   0  0  2  0  0  0  0  0  0  0  0  0
   -1.4825   -1.8740    0.3322 C   0  0  0  0  0  0  0  0  0  0  0  0
   -1.4961    0.4258   -0.7356 C   0  0  0  0  0  0  0  0  0  0  0  0
    1.7196   -2.4427    0.2170 C   0  0  0  0  0  0  0  0  0  0  0  0
   -3.1841    1.9379    0.2469 C   0  0  0  0  0  0  0  0  0  0  0  0
   -3.9607   -0.1011   -0.8711 C   0  0  0  0  0  0  0  0  0  0  0  0
   -0.3947   -2.2766    1.3201 C   0  0  0  0  0  0  0  0  0  0  0  0
   -4.3275    1.7697    1.2383 C   0  0  0  0  0  0  0  0  0  0  0  0
   -5.0707   -0.1980    0.1648 C   0  0  0  0  0  0  0  0  0  0  0  0
    2.8594    0.5006    0.0958 C   0  0  0  0  0  0  0  0  0  0  0  0
    3.0328    1.8642    0.1886 C   0  0  0  0  0  0  0  0  0  0  0  0
    5.1253    0.2061    0.1871 C   0  0  0  0  0  0  0  0  0  0  0  0
    5.2988    1.5696    0.2798 C   0  0  0  0  0  0  0  0  0  0  0  0
   -0.0420   -2.2529   -1.9208 H   0  0  0  0  0  0  0  0  0  0  0  0
    0.2154   -0.5548   -2.3049 H   0  0  0  0  0  0  0  0  0  0  0  0
    2.2594   -1.2888   -1.4956 H   0  0  0  0  0  0  0  0  0  0  0  0
   -1.8419   -2.7457   -0.2260 H   0  0  0  0  0  0  0  0  0  0  0  0
   -2.3163   -1.4563    0.9014 H   0  0  0  0  0  0  0  0  0  0  0  0
    2.2962   -3.2004   -0.3257 H   0  0  0  0  0  0  0  0  0  0  0  0
    2.3084   -2.1687    1.0992 H   0  0  0  0  0  0  0  0  0  0  0  0
   -3.4872    2.5827   -0.5864 H   0  0  0  0  0  0  0  0  0  0  0  0
   -2.3121    2.3913    0.7300 H   0  0  0  0  0  0  0  0  0  0  0  0
   -3.6471   -1.0887   -1.2201 H   0  0  0  0  0  0  0  0  0  0  0  0
   -4.3062    0.4606   -1.7475 H   0  0  0  0  0  0  0  0  0  0  0  0
    0.0822   -1.4142    1.7997 H   0  0  0  0  0  0  0  0  0  0  0  0
   -0.8515   -2.8802    2.1116 H   0  0  0  0  0  0  0  0  0  0  0  0
   -4.0121    1.1929    2.1159 H   0  0  0  0  0  0  0  0  0  0  0  0
   -4.6705    2.7488    1.5865 H   0  0  0  0  0  0  0  0  0  0  0  0
   -5.9589   -0.6601   -0.2768 H   0  0  0  0  0  0  0  0  0  0  0  0
   -4.7677   -0.8057    1.0253 H   0  0  0  0  0  0  0  0  0  0  0  0
    2.1968    2.5535    0.1905 H   0  0  0  0  0  0  0  0  0  0  0  0
    5.9638   -0.4792    0.1852 H   0  0  0  0  0  0  0  0  0  0  0  0
    6.2817    2.0179    0.3550 H   0  0  0  0  0  0  0  0  0  0  0  0
  1 13  1  0  0  0  0
  1 16  1  0  0  0  0
  2 17  1  0  0  0  0
  2 18  1  0  0  0  0
  3 10  1  0  0  0  0
  3 19  1  0  0  0  0
  4 12  2  0  0  0  0
  5  9  1  0  0  0  0
  5 11  1  0  0  0  0
  5 12  1  0  0  0  0
  6 12  1  0  0  0  0
  6 14  1  0  0  0  0
  6 15  1  0  0  0  0
  7 19  2  0  0  0  0
  7 21  1  0  0  0  0
  8 20  2  0  0  0  0
  8 22  1  0  0  0  0
  9 10  1  0  0  0  0
  9 23  1  0  0  0  0
  9 24  1  0  0  0  0
 10 13  1  0  0  0  0
 10 25  1  0  0  0  0
 11 16  1  0  0  0  0
 11 26  1  0  0  0  0
 11 27  1  0  0  0  0
 13 28  1  0  0  0  0
 13 29  1  0  0  0  0
 14 17  1  0  0  0  0
 14 30  1  0  0  0  0
 14 31  1  0  0  0  0
 15 18  1  0  0  0  0
 15 32  1  0  0  0  0
 15 33  1  0  0  0  0
 16 34  1  0  0  0  0
 16 35  1  0  0  0  0
 17 36  1  0  0  0  0
 17 37  1  0  0  0  0
 18 38  1  0  0  0  0
 18 39  1  0  0  0  0
 19 20  1  0  0  0  0
 20 40  1  0  0  0  0
 21 22  2  0  0  0  0
 21 41  1  0  0  0  0
 22 42  1  0  0  0  0
M  END
> <PUBCHEM_COMPOUND_CID>
75367708

> <PUBCHEM_CONFORMER_RMSD>
0.8

> <PUBCHEM_CONFORMER_DIVERSEORDER>
1
129
171
86
184
157
150
23
163
179
48
167
70
3
148
4
79
194
75
180
61
72
186
187
97
164
120
30
182
159
178
191
141
151
93
122
51
193
134
170
67
73
96
39
115
118
189
158
168
112
177
38
109
45
144
130
161
87
31
44
83
153
91
192
143
116
173
105
85
94
89
52
106
2
110
25
95
7
149
113
43
131
12
64
88
99
82
119
81
21
19
142
18
34
156
22
37
69
152
123
169
185
5
104
11
121
166
40
146
60
132
46
101
41
56
133
32
47
66
154
174
165
92
78
100
6
16
175
20
57
140
190
76
84
27
138
15
127
50
145
155
117
9
14
176
147
172
26
10
71
114
53
111
59
54
62
181
102
103
13
137
29
24
58
90
108
28
36
63
136
65
68
125
162
98
124
128
107
8
135
188
77
55
17
42
139
183
126
74
33
49
160
35
80

> <PUBCHEM_MMFF94_PARTIAL_CHARGES>
25
1 -0.56
10 0.28
11 0.3
12 0.69
13 0.28
14 0.3
15 0.3
16 0.28
17 0.28
18 0.28
19 0.39
2 -0.56
20 0.16
21 0.16
22 0.16
3 -0.36
4 -0.57
40 0.15
41 0.15
42 0.15
5 -0.66
6 -0.66
7 -0.62
8 -0.62
9 0.3

> <PUBCHEM_EFFECTIVE_ROTOR_COUNT>
6.6

> <PUBCHEM_PHARMACOPHORE_FEATURES>
7
1 1 acceptor
1 2 acceptor
1 4 acceptor
1 8 acceptor
6 2 6 14 15 17 18 rings
6 7 8 19 20 21 22 rings
7 1 5 9 10 11 13 16 rings

> <PUBCHEM_HEAVY_ATOM_COUNT>
22

> <PUBCHEM_ATOM_DEF_STEREO_COUNT>
1

> <PUBCHEM_ATOM_UDEF_STEREO_COUNT>
0

> <PUBCHEM_BOND_DEF_STEREO_COUNT>
0

> <PUBCHEM_BOND_UDEF_STEREO_COUNT>
0

> <PUBCHEM_ISOTOPIC_ATOM_COUNT>
0

> <PUBCHEM_COMPONENT_COUNT>
1

> <PUBCHEM_CACTVS_TAUTO_COUNT>
1

> <PUBCHEM_CONFORMER_ID>
047E051C00000001

> <PUBCHEM_MMFF94_ENERGY>
74.5007

> <PUBCHEM_FEATURE_SELFOVERLAP>
35.524

> <PUBCHEM_SHAPE_FINGERPRINT>
10493431 412 18409449223485074333
10692045 39 18200011964606060706
122479 349 18340486763638282326
12390115 104 18266754634876721940
12403259 415 18113897104888075693
12633257 1 18188196650880864850
12644460 14 18262233309850898810
12788726 201 17907559677893014250
13004483 165 9295021128359132372
13140716 1 18189621720539404885
13583140 156 15647598047464789421
14178342 30 18041576788355019075
14341114 328 18343582911062210297
14787075 74 18343017822383990881
14849402 71 18336552608255746954
15295992 7 18341045332915037552
17834072 32 18338799030554151616
18785283 64 18261108514051610762
204376 136 18261110789782468575
20567600 254 18334569144633681557
21033648 29 17823114822499910924
21452121 103 18263079925135028659
21524375 3 18413384354278814870
21731228 192 18334575767515553778
22079108 93 18408322211271184479
22182937 141 18338237184169669434
22224240 67 18334576863143482753
23845131 108 18260547814497671987
2637199 183 18343866610773905792
2838139 119 18059851783551589576
392239 28 18339093682717055595
427121 178 18040723532486901458
4340502 62 18334583430006137987
4463277 69 10953460717222394562
474 4 18411418397254781529
5104073 3 18334293167020282394
58807428 26 18113332016315676090
59755656 520 18409727383042555358
633830 44 18342737390493450943
6442390 28 18335707156085055026
960060 61 10447921793763346080

> <PUBCHEM_SHAPE_MULTIPOLES>
409.35
11.01
2.88
1.07
0.11
1.01
0.06
-8.16
-2.08
0.92
-0.82
-0.6
0.23
-0.26

> <PUBCHEM_SHAPE_SELFOVERLAP>
851.996

> <PUBCHEM_SHAPE_VOLUME>
226.3

> <PUBCHEM_COORDINATE_TYPE>
2
5
10

$$$$
