45360622
  -OEChem-12032416173D

 57 59  0     1  0  0  0  0  0999 V2000
    0.1453   -5.0326   -0.4475 O   0  0  0  0  0  0  0  0  0  0  0  0
    4.3793    1.5568    0.0724 O   0  0  0  0  0  0  0  0  0  0  0  0
   -4.6484    1.4827    1.5849 O   0  0  0  0  0  0  0  0  0  0  0  0
    6.0531    4.0458    0.2485 O   0  0  0  0  0  0  0  0  0  0  0  0
   -1.3442   -1.7017   -0.3484 N   0  0  1  0  0  0  0  0  0  0  0  0
   -1.4641   -4.1988    0.9261 N   0  0  0  0  0  0  0  0  0  0  0  0
    2.0541   -0.4767   -0.0541 N   0  0  0  0  0  0  0  0  0  0  0  0
   -4.5410    2.3292   -0.5740 N   0  0  0  0  0  0  0  0  0  0  0  0
   -0.6291   -2.8221   -0.9727 C   0  0  1  0  0  0  0  0  0  0  0  0
    0.7781   -0.8735   -0.6274 C   0  0  1  0  0  0  0  0  0  0  0  0
   -2.5660   -2.0839    0.3507 C   0  0  1  0  0  0  0  0  0  0  0  0
    0.7938   -2.2897   -1.2038 C   0  0  0  0  0  0  0  0  0  0  0  0
   -0.3564   -0.9158    0.3871 C   0  0  0  0  0  0  0  0  0  0  0  0
   -2.2718   -3.1127    1.4311 C   0  0  0  0  0  0  0  0  0  0  0  0
   -0.5972   -4.0972   -0.1350 C   0  0  0  0  0  0  0  0  0  0  0  0
   -3.3206   -0.8845    0.9256 C   0  0  0  0  0  0  0  0  0  0  0  0
   -3.5796    0.1675   -0.1442 C   0  0  0  0  0  0  0  0  0  0  0  0
    2.9898   -0.0661   -1.0934 C   0  0  0  0  0  0  0  0  0  0  0  0
   -4.3103    1.3778    0.4089 C   0  0  0  0  0  0  0  0  0  0  0  0
    4.3230    0.3356   -0.5207 C   0  0  0  0  0  0  0  0  0  0  0  0
    5.5485   -0.2867   -0.4630 C   0  0  0  0  0  0  0  0  0  0  0  0
   -5.2217    3.5723   -0.2990 C   0  0  0  0  0  0  0  0  0  0  0  0
    5.6547    1.7161    0.5138 C   0  0  0  0  0  0  0  0  0  0  0  0
    6.4133    0.6099    0.2089 C   0  0  0  0  0  0  0  0  0  0  0  0
   -4.2291    4.6377    0.1493 C   0  0  0  0  0  0  0  0  0  0  0  0
   -6.0059    4.0284   -1.5226 C   0  0  0  0  0  0  0  0  0  0  0  0
    5.9526    2.9822    1.1983 C   0  0  0  0  0  0  0  0  0  0  0  0
   -1.1058   -3.0750   -1.9270 H   0  0  0  0  0  0  0  0  0  0  0  0
    0.4837   -0.1661   -1.4176 H   0  0  0  0  0  0  0  0  0  0  0  0
   -3.2266   -2.5537   -0.3924 H   0  0  0  0  0  0  0  0  0  0  0  0
    1.0414   -2.2632   -2.2712 H   0  0  0  0  0  0  0  0  0  0  0  0
    1.5485   -2.9087   -0.7032 H   0  0  0  0  0  0  0  0  0  0  0  0
   -0.6985    0.0945    0.6311 H   0  0  0  0  0  0  0  0  0  0  0  0
   -0.0391   -1.4107    1.3132 H   0  0  0  0  0  0  0  0  0  0  0  0
   -3.1995   -3.5501    1.8158 H   0  0  0  0  0  0  0  0  0  0  0  0
   -1.7341   -2.6790    2.2815 H   0  0  0  0  0  0  0  0  0  0  0  0
   -2.7651   -0.4392    1.7611 H   0  0  0  0  0  0  0  0  0  0  0  0
   -4.2769   -1.2236    1.3449 H   0  0  0  0  0  0  0  0  0  0  0  0
   -1.4484   -5.0605    1.4629 H   0  0  0  0  0  0  0  0  0  0  0  0
    1.9056    0.3066    0.5827 H   0  0  0  0  0  0  0  0  0  0  0  0
   -4.1919   -0.2600   -0.9477 H   0  0  0  0  0  0  0  0  0  0  0  0
   -2.6500    0.5332   -0.5926 H   0  0  0  0  0  0  0  0  0  0  0  0
    2.5911    0.7848   -1.6599 H   0  0  0  0  0  0  0  0  0  0  0  0
    3.1589   -0.8844   -1.8036 H   0  0  0  0  0  0  0  0  0  0  0  0
   -4.1702    2.1778   -1.5080 H   0  0  0  0  0  0  0  0  0  0  0  0
    5.7904   -1.2641   -0.8552 H   0  0  0  0  0  0  0  0  0  0  0  0
   -5.9318    3.3999    0.5190 H   0  0  0  0  0  0  0  0  0  0  0  0
    7.4588    0.4651    0.4407 H   0  0  0  0  0  0  0  0  0  0  0  0
   -3.6914    4.3191    1.0490 H   0  0  0  0  0  0  0  0  0  0  0  0
   -4.7409    5.5783    0.3780 H   0  0  0  0  0  0  0  0  0  0  0  0
   -3.4818    4.8353   -0.6273 H   0  0  0  0  0  0  0  0  0  0  0  0
   -6.7303    3.2647   -1.8262 H   0  0  0  0  0  0  0  0  0  0  0  0
   -5.3428    4.2111   -2.3756 H   0  0  0  0  0  0  0  0  0  0  0  0
   -6.5553    4.9523   -1.3139 H   0  0  0  0  0  0  0  0  0  0  0  0
    5.1610    3.2315    1.9122 H   0  0  0  0  0  0  0  0  0  0  0  0
    6.9009    2.9187    1.7414 H   0  0  0  0  0  0  0  0  0  0  0  0
    6.2484    4.8557    0.7502 H   0  0  0  0  0  0  0  0  0  0  0  0
  1 15  2  0  0  0  0
  2 20  1  0  0  0  0
  2 23  1  0  0  0  0
  3 19  2  0  0  0  0
  4 27  1  0  0  0  0
  4 57  1  0  0  0  0
  5  9  1  0  0  0  0
  5 11  1  0  0  0  0
  5 13  1  0  0  0  0
  6 14  1  0  0  0  0
  6 15  1  0  0  0  0
  6 39  1  0  0  0  0
  7 10  1  0  0  0  0
  7 18  1  0  0  0  0
  7 40  1  0  0  0  0
  8 19  1  0  0  0  0
  8 22  1  0  0  0  0
  8 45  1  0  0  0  0
  9 12  1  0  0  0  0
  9 15  1  0  0  0  0
  9 28  1  0  0  0  0
 10 12  1  0  0  0  0
 10 13  1  0  0  0  0
 10 29  1  0  0  0  0
 11 14  1  0  0  0  0
 11 16  1  0  0  0  0
 11 30  1  0  0  0  0
 12 31  1  0  0  0  0
 12 32  1  0  0  0  0
 13 33  1  0  0  0  0
 13 34  1  0  0  0  0
 14 35  1  0  0  0  0
 14 36  1  0  0  0  0
 16 17  1  0  0  0  0
 16 37  1  0  0  0  0
 16 38  1  0  0  0  0
 17 19  1  0  0  0  0
 17 41  1  0  0  0  0
 17 42  1  0  0  0  0
 18 20  1  0  0  0  0
 18 43  1  0  0  0  0
 18 44  1  0  0  0  0
 20 21  2  0  0  0  0
 21 24  1  0  0  0  0
 21 46  1  0  0  0  0
 22 25  1  0  0  0  0
 22 26  1  0  0  0  0
 22 47  1  0  0  0  0
 23 24  2  0  0  0  0
 23 27  1  0  0  0  0
 24 48  1  0  0  0  0
 25 49  1  0  0  0  0
 25 50  1  0  0  0  0
 25 51  1  0  0  0  0
 26 52  1  0  0  0  0
 26 53  1  0  0  0  0
 26 54  1  0  0  0  0
 27 55  1  0  0  0  0
 27 56  1  0  0  0  0
M  END
> <PUBCHEM_COMPOUND_CID>
45360622

> <PUBCHEM_CONFORMER_RMSD>
1

> <PUBCHEM_CONFORMER_DIVERSEORDER>
1
19
29
40
67
54
62
10
75
6
52
71
16
61
18
35
39
26
45
12
22
38
72
36
51
69
58
30
33
44
73
14
70
43
37
31
24
32
49
56
28
76
63
66
3
41
74
20
64
21
15
46
60
53
57
55
27
48
5
13
68
17
7
47
42
9
4
59
23
34
8
11
50
65
2
25

> <PUBCHEM_MMFF94_PARTIAL_CHARGES>
29
1 -0.57
10 0.27
11 0.27
13 0.27
14 0.3
15 0.57
17 0.06
18 0.45
19 0.57
2 -0.28
20 -0.04
21 -0.15
22 0.3
23 -0.04
24 -0.15
27 0.46
3 -0.57
39 0.37
4 -0.68
40 0.36
45 0.37
46 0.15
48 0.15
5 -0.81
57 0.4
6 -0.73
7 -0.9
8 -0.73
9 0.33

> <PUBCHEM_EFFECTIVE_ROTOR_COUNT>
10.2

> <PUBCHEM_PHARMACOPHORE_FEATURES>
14
1 1 acceptor
1 2 acceptor
1 3 acceptor
1 4 acceptor
1 4 donor
1 5 cation
1 6 donor
1 7 cation
1 7 donor
1 8 donor
3 22 25 26 hydrophobe
5 2 20 21 23 24 rings
5 5 9 10 12 13 rings
6 5 6 9 11 14 15 rings

> <PUBCHEM_HEAVY_ATOM_COUNT>
27

> <PUBCHEM_ATOM_DEF_STEREO_COUNT>
3

> <PUBCHEM_ATOM_UDEF_STEREO_COUNT>
0

> <PUBCHEM_BOND_DEF_STEREO_COUNT>
0

> <PUBCHEM_BOND_UDEF_STEREO_COUNT>
0

> <PUBCHEM_ISOTOPIC_ATOM_COUNT>
0

> <PUBCHEM_COMPONENT_COUNT>
1

> <PUBCHEM_CACTVS_TAUTO_COUNT>
6

> <PUBCHEM_CONFORMER_ID>
02B425EE00000001

> <PUBCHEM_MMFF94_ENERGY>
36.1862

> <PUBCHEM_FEATURE_SELFOVERLAP>
71.236

> <PUBCHEM_SHAPE_FINGERPRINT>
10675989 125 18051695438772229289
10904742 38 18410286999869694569
12107183 9 18262789680431504434
12422481 6 17676775270745145916
12769317 202 18198901410010490113
14223995 32 18337107852706101604
14251764 30 9150876296197674289
14251764 75 17982738472505496513
14790565 3 18411699859615661074
14950920 106 15647633244912242685
15326921 28 18340756122454365584
16120349 189 18408321064657666725
16992779 147 17765455153340379937
1768 210 18340195303248458381
17844677 252 18195536024488447554
17980427 26 18120080690123302999
19246450 95 18337657626216349866
21401589 2 18340497711605060755
21859007 373 18336547106392176100
23522609 53 17459204014059282308
23559900 14 17916886676903398462
23569914 2 17342053257264227600
2838139 119 18412822456391953524
3418910 222 17471018450624568332
376196 1 18341336578547337591
437795 96 18056186106422318744
5104073 3 18262789805175213242
5219985 13 18411702075671086613
550186 72 17474950308378916044
59521099 67 17184456622138074741
6371380 46 18266748991685925510
7918774 8 8718536229391043521
9981440 41 18335428941573915939

> <PUBCHEM_SHAPE_MULTIPOLES>
512.25
15.93
7.18
1.19
14.05
0.44
-0.06
-27.41
-0.95
-6.61
-0.07
-0.63
0.02
3.34

> <PUBCHEM_SHAPE_SELFOVERLAP>
1058.293

> <PUBCHEM_SHAPE_VOLUME>
294.4

> <PUBCHEM_COORDINATE_TYPE>
2
5
10

$$$$
