25339530
  -OEChem-12032416233D

 85 88  0     1  0  0  0  0  0999 V2000
    0.6704    4.3287    1.4948 O   0  0  0  0  0  0  0  0  0  0  0  0
   -2.1293   -0.9051   -0.6446 O   0  0  0  0  0  0  0  0  0  0  0  0
   -8.6730   -2.4703    0.4604 O   0  0  0  0  0  0  0  0  0  0  0  0
    3.0072   -0.8345    0.2204 N   0  0  0  0  0  0  0  0  0  0  0  0
   -3.3375    1.0758   -0.5764 N   0  0  0  0  0  0  0  0  0  0  0  0
   -6.6422   -0.5090    0.0994 N   0  0  0  0  0  0  0  0  0  0  0  0
    1.5180    1.2236    0.2199 C   0  0  1  0  0  0  0  0  0  0  0  0
    1.5427    2.4988   -0.6884 C   0  0  2  0  0  0  0  0  0  0  0  0
    2.1284    2.0084   -2.0718 C   0  0  0  0  0  0  0  0  0  0  0  0
    2.8359    0.5430   -0.2200 C   0  0  2  0  0  0  0  0  0  0  0  0
    2.8176    0.6531   -1.7525 C   0  0  0  0  0  0  0  0  0  0  0  0
    1.4410    1.5270    1.7346 C   0  0  0  0  0  0  0  0  0  0  0  0
    2.3618    3.6629   -0.0762 C   0  0  0  0  0  0  0  0  0  0  0  0
    2.0429    3.9495    1.3917 C   0  0  2  0  0  0  0  0  0  0  0  0
    0.2889    0.3271   -0.0871 C   0  0  0  0  0  0  0  0  0  0  0  0
    2.3025    2.6871    2.2147 C   0  0  0  0  0  0  0  0  0  0  0  0
    0.9921    1.8179   -3.0985 C   0  0  0  0  0  0  0  0  0  0  0  0
    3.1460    2.9572   -2.7365 C   0  0  0  0  0  0  0  0  0  0  0  0
   -0.9676    1.1676   -0.1795 C   0  0  0  0  0  0  0  0  0  0  0  0
    2.8923    5.1132    1.9078 C   0  0  0  0  0  0  0  0  0  0  0  0
    4.4047   -1.2371    0.1391 C   0  0  0  0  0  0  0  0  0  0  0  0
    4.5893   -2.6848    0.5901 C   0  0  0  0  0  0  0  0  0  0  0  0
   -2.1826    0.3121   -0.4905 C   0  0  0  0  0  0  0  0  0  0  0  0
    3.7903   -3.6385   -0.3085 C   0  0  0  0  0  0  0  0  0  0  0  0
    6.0765   -3.0632    0.6024 C   0  0  0  0  0  0  0  0  0  0  0  0
    4.0011   -5.0974    0.0898 C   0  0  0  0  0  0  0  0  0  0  0  0
    6.2835   -4.5232    0.9990 C   0  0  0  0  0  0  0  0  0  0  0  0
    5.4809   -5.4674    0.1094 C   0  0  0  0  0  0  0  0  0  0  0  0
   -4.6269    0.4940   -0.8644 C   0  0  0  0  0  0  0  0  0  0  0  0
   -5.3450    0.0863    0.4137 C   0  0  0  0  0  0  0  0  0  0  0  0
   -7.5207   -0.4976    1.2774 C   0  0  0  0  0  0  0  0  0  0  0  0
   -6.4798   -1.8834   -0.3944 C   0  0  0  0  0  0  0  0  0  0  0  0
   -8.8629   -1.1347    0.9290 C   0  0  0  0  0  0  0  0  0  0  0  0
   -7.8467   -2.4869   -0.7041 C   0  0  0  0  0  0  0  0  0  0  0  0
    0.5634    2.9502   -0.8398 H   0  0  0  0  0  0  0  0  0  0  0  0
    3.6690    1.1474    0.1636 H   0  0  0  0  0  0  0  0  0  0  0  0
    3.8358    0.6048   -2.1562 H   0  0  0  0  0  0  0  0  0  0  0  0
    2.2695   -0.1823   -2.2058 H   0  0  0  0  0  0  0  0  0  0  0  0
    1.7123    0.6347    2.3122 H   0  0  0  0  0  0  0  0  0  0  0  0
    0.4144    1.7544    2.0397 H   0  0  0  0  0  0  0  0  0  0  0  0
    3.4351    3.4520   -0.1457 H   0  0  0  0  0  0  0  0  0  0  0  0
    2.1729    4.5654   -0.6723 H   0  0  0  0  0  0  0  0  0  0  0  0
    0.4128   -0.2398   -1.0150 H   0  0  0  0  0  0  0  0  0  0  0  0
    0.1722   -0.4373    0.6935 H   0  0  0  0  0  0  0  0  0  0  0  0
    2.0645    2.8737    3.2696 H   0  0  0  0  0  0  0  0  0  0  0  0
    3.3625    2.4090    2.1712 H   0  0  0  0  0  0  0  0  0  0  0  0
    0.4604    2.7602   -3.2726 H   0  0  0  0  0  0  0  0  0  0  0  0
    0.2580    1.0733   -2.7862 H   0  0  0  0  0  0  0  0  0  0  0  0
    1.3887    1.4774   -4.0624 H   0  0  0  0  0  0  0  0  0  0  0  0
    2.7163    3.9513   -2.8997 H   0  0  0  0  0  0  0  0  0  0  0  0
    3.4572    2.5721   -3.7153 H   0  0  0  0  0  0  0  0  0  0  0  0
    4.0608    3.0660   -2.1459 H   0  0  0  0  0  0  0  0  0  0  0  0
    2.6913   -0.9359    1.1836 H   0  0  0  0  0  0  0  0  0  0  0  0
   -0.9504    1.8741   -1.0109 H   0  0  0  0  0  0  0  0  0  0  0  0
   -1.1803    1.7204    0.7396 H   0  0  0  0  0  0  0  0  0  0  0  0
    3.9624    4.8867    1.8593 H   0  0  0  0  0  0  0  0  0  0  0  0
    2.6344    5.3498    2.9464 H   0  0  0  0  0  0  0  0  0  0  0  0
    2.7049    6.0235    1.3270 H   0  0  0  0  0  0  0  0  0  0  0  0
    4.7780   -1.1320   -0.8866 H   0  0  0  0  0  0  0  0  0  0  0  0
    5.0163   -0.5876    0.7784 H   0  0  0  0  0  0  0  0  0  0  0  0
    0.5329    5.1173    0.9427 H   0  0  0  0  0  0  0  0  0  0  0  0
    4.2110   -2.7831    1.6177 H   0  0  0  0  0  0  0  0  0  0  0  0
    2.7179   -3.4184   -0.2547 H   0  0  0  0  0  0  0  0  0  0  0  0
    4.0903   -3.5050   -1.3559 H   0  0  0  0  0  0  0  0  0  0  0  0
    6.5133   -2.8944   -0.3902 H   0  0  0  0  0  0  0  0  0  0  0  0
    6.6213   -2.4189    1.3027 H   0  0  0  0  0  0  0  0  0  0  0  0
    3.4677   -5.7510   -0.6096 H   0  0  0  0  0  0  0  0  0  0  0  0
    3.5681   -5.2708    1.0827 H   0  0  0  0  0  0  0  0  0  0  0  0
    5.9832   -4.6631    2.0448 H   0  0  0  0  0  0  0  0  0  0  0  0
    7.3484   -4.7743    0.9365 H   0  0  0  0  0  0  0  0  0  0  0  0
    5.5990   -6.4977    0.4635 H   0  0  0  0  0  0  0  0  0  0  0  0
    5.8791   -5.4327   -0.9122 H   0  0  0  0  0  0  0  0  0  0  0  0
   -3.2883    2.0791   -0.4248 H   0  0  0  0  0  0  0  0  0  0  0  0
   -4.4675   -0.3516   -1.5399 H   0  0  0  0  0  0  0  0  0  0  0  0
   -5.2051    1.2509   -1.4063 H   0  0  0  0  0  0  0  0  0  0  0  0
   -5.4844    0.9955    1.0143 H   0  0  0  0  0  0  0  0  0  0  0  0
   -4.7255   -0.5872    1.0207 H   0  0  0  0  0  0  0  0  0  0  0  0
   -7.6961    0.5306    1.6141 H   0  0  0  0  0  0  0  0  0  0  0  0
   -7.0552   -1.0521    2.1028 H   0  0  0  0  0  0  0  0  0  0  0  0
   -5.9743   -2.5018    0.3590 H   0  0  0  0  0  0  0  0  0  0  0  0
   -5.8857   -1.9167   -1.3124 H   0  0  0  0  0  0  0  0  0  0  0  0
   -9.4957   -1.1820    1.8211 H   0  0  0  0  0  0  0  0  0  0  0  0
   -9.4019   -0.5539    0.1705 H   0  0  0  0  0  0  0  0  0  0  0  0
   -8.3506   -1.9521   -1.5186 H   0  0  0  0  0  0  0  0  0  0  0  0
   -7.7319   -3.5304   -1.0145 H   0  0  0  0  0  0  0  0  0  0  0  0
  1 14  1  0  0  0  0
  1 61  1  0  0  0  0
  2 23  2  0  0  0  0
  3 33  1  0  0  0  0
  3 34  1  0  0  0  0
  4 10  1  0  0  0  0
  4 21  1  0  0  0  0
  4 53  1  0  0  0  0
  5 23  1  0  0  0  0
  5 29  1  0  0  0  0
  5 73  1  0  0  0  0
  6 30  1  0  0  0  0
  6 31  1  0  0  0  0
  6 32  1  0  0  0  0
  7  8  1  0  0  0  0
  7 10  1  0  0  0  0
  7 12  1  0  0  0  0
  7 15  1  0  0  0  0
  8  9  1  0  0  0  0
  8 13  1  0  0  0  0
  8 35  1  0  0  0  0
  9 11  1  0  0  0  0
  9 17  1  0  0  0  0
  9 18  1  0  0  0  0
 10 11  1  0  0  0  0
 10 36  1  0  0  0  0
 11 37  1  0  0  0  0
 11 38  1  0  0  0  0
 12 16  1  0  0  0  0
 12 39  1  0  0  0  0
 12 40  1  0  0  0  0
 13 14  1  0  0  0  0
 13 41  1  0  0  0  0
 13 42  1  0  0  0  0
 14 16  1  0  0  0  0
 14 20  1  0  0  0  0
 15 19  1  0  0  0  0
 15 43  1  0  0  0  0
 15 44  1  0  0  0  0
 16 45  1  0  0  0  0
 16 46  1  0  0  0  0
 17 47  1  0  0  0  0
 17 48  1  0  0  0  0
 17 49  1  0  0  0  0
 18 50  1  0  0  0  0
 18 51  1  0  0  0  0
 18 52  1  0  0  0  0
 19 23  1  0  0  0  0
 19 54  1  0  0  0  0
 19 55  1  0  0  0  0
 20 56  1  0  0  0  0
 20 57  1  0  0  0  0
 20 58  1  0  0  0  0
 21 22  1  0  0  0  0
 21 59  1  0  0  0  0
 21 60  1  0  0  0  0
 22 24  1  0  0  0  0
 22 25  1  0  0  0  0
 22 62  1  0  0  0  0
 24 26  1  0  0  0  0
 24 63  1  0  0  0  0
 24 64  1  0  0  0  0
 25 27  1  0  0  0  0
 25 65  1  0  0  0  0
 25 66  1  0  0  0  0
 26 28  1  0  0  0  0
 26 67  1  0  0  0  0
 26 68  1  0  0  0  0
 27 28  1  0  0  0  0
 27 69  1  0  0  0  0
 27 70  1  0  0  0  0
 28 71  1  0  0  0  0
 28 72  1  0  0  0  0
 29 30  1  0  0  0  0
 29 74  1  0  0  0  0
 29 75  1  0  0  0  0
 30 76  1  0  0  0  0
 30 77  1  0  0  0  0
 31 33  1  0  0  0  0
 31 78  1  0  0  0  0
 31 79  1  0  0  0  0
 32 34  1  0  0  0  0
 32 80  1  0  0  0  0
 32 81  1  0  0  0  0
 33 82  1  0  0  0  0
 33 83  1  0  0  0  0
 34 84  1  0  0  0  0
 34 85  1  0  0  0  0
M  END
> <PUBCHEM_COMPOUND_CID>
25339530

> <PUBCHEM_CONFORMER_RMSD>
1.2

> <PUBCHEM_CONFORMER_DIVERSEORDER>
1
35
63
86
49
37
76
54
14
48
27
68
79
72
4
26
3
17
56
85
81
74
25
89
6
73
9
71
67
21
51
47
46
24
11
34
42
83
84
12
41
64
31
50
16
39
45
58
40
32
23
57
78
5
62
33
70
30
59
38
75
15
19
88
13
61
20
69
18
7
52
87
29
36
43
77
82
53
60
80
10
44
2
55
22
8
28
65
66

> <PUBCHEM_MMFF94_PARTIAL_CHARGES>
20
1 -0.68
10 0.27
14 0.28
19 0.06
2 -0.57
21 0.27
23 0.57
29 0.3
3 -0.56
30 0.27
31 0.27
32 0.27
33 0.28
34 0.28
4 -0.9
5 -0.73
53 0.36
6 -0.81
61 0.4
73 0.37

> <PUBCHEM_EFFECTIVE_ROTOR_COUNT>
13.8

> <PUBCHEM_PHARMACOPHORE_FEATURES>
13
1 1 acceptor
1 1 donor
1 2 acceptor
1 3 acceptor
1 4 cation
1 4 donor
1 5 donor
1 6 cation
3 9 17 18 hydrophobe
5 7 8 9 10 11 rings
6 22 24 25 26 27 28 rings
6 3 6 31 32 33 34 rings
6 7 8 12 13 14 16 rings

> <PUBCHEM_HEAVY_ATOM_COUNT>
34

> <PUBCHEM_ATOM_DEF_STEREO_COUNT>
4

> <PUBCHEM_ATOM_UDEF_STEREO_COUNT>
0

> <PUBCHEM_BOND_DEF_STEREO_COUNT>
0

> <PUBCHEM_BOND_UDEF_STEREO_COUNT>
0

> <PUBCHEM_ISOTOPIC_ATOM_COUNT>
0

> <PUBCHEM_COMPONENT_COUNT>
1

> <PUBCHEM_CACTVS_TAUTO_COUNT>
2

> <PUBCHEM_CONFORMER_ID>
0182A68A00000001

> <PUBCHEM_MMFF94_ENERGY>
85.0742

> <PUBCHEM_FEATURE_SELFOVERLAP>
66.09

> <PUBCHEM_SHAPE_FINGERPRINT>
10319688 140 18261398879182823836
11497681 19 18194122907535066758
11607047 191 10852291625153442028
117089 54 18264776458687569363
12342043 65 18259982652756749701
12522641 126 18261114110072413391
12522641 24 18271529783980044283
13383661 66 18119809110608797610
13383668 362 18266730462490050962
13533116 47 18336548313272457729
13782708 43 18187082828607057911
13955234 65 18270394018011687664
14068700 675 18192998115375721734
14400156 147 18043522816187525810
14400156 188 18341896307507271862
15448158 6 18115018589680126007
15475509 35 18413103970002322578
16758388 162 18343308042605271817
19301679 30 18056201267666993726
21130935 74 18339082713909249203
21716022 299 18188789249220332436
23523766 6 18334578993373350252
23523787 8 17829079798256432252
23559900 14 17967818275535122947
255183 451 18113903727785856879
32027 91 18339910555326754631
46194498 28 17603586330992359972
497634 4 17761772867998321926
9831232 110 18261111855668243799
9962374 69 18340473556862605055

> <PUBCHEM_SHAPE_MULTIPOLES>
667.15
20.31
7.69
2.05
60.61
3.23
-0.94
32.23
4.79
-17.68
2.8
-1.67
-2.93
-0.73

> <PUBCHEM_SHAPE_SELFOVERLAP>
1362.026

> <PUBCHEM_SHAPE_VOLUME>
384.2

> <PUBCHEM_COORDINATE_TYPE>
2
5
10

$$$$
