7051289
  -OEChem-12032416223D

 55 58  0     1  0  0  0  0  0999 V2000
    7.2731   -1.3106   -1.8472 Cl  0  0  0  0  0  0  0  0  0  0  0  0
    2.3945    0.9671    1.3397 S   0  0  0  0  0  0  0  0  0  0  0  0
   -0.4456    2.1178    1.9361 O   0  0  0  0  0  0  0  0  0  0  0  0
   -3.2064   -2.4270    1.2753 O   0  0  0  0  0  0  0  0  0  0  0  0
   -0.8405   -3.5596    0.7668 O   0  0  0  0  0  0  0  0  0  0  0  0
    2.9224    1.6712    2.4931 O   0  0  0  0  0  0  0  0  0  0  0  0
    1.4480   -0.1181    1.5161 O   0  0  0  0  0  0  0  0  0  0  0  0
   -3.8140   -0.8560   -0.3254 N   0  0  0  0  0  0  0  0  0  0  0  0
   -1.9394    1.6824    0.1842 N   0  0  0  0  0  0  0  0  0  0  0  0
    1.7814    2.0815    0.2228 N   0  0  0  0  0  0  0  0  0  0  0  0
   -4.4582    1.3992    0.5345 C   0  0  1  0  0  0  0  0  0  0  0  0
   -3.5083    1.1797   -1.7235 C   0  0  2  0  0  0  0  0  0  0  0  0
   -4.5731    1.9010   -0.8997 C   0  0  0  0  0  0  0  0  0  0  0  0
   -4.6852   -0.1215    0.5939 C   0  0  0  0  0  0  0  0  0  0  0  0
   -3.0873    1.7994    1.0922 C   0  0  0  0  0  0  0  0  0  0  0  0
   -3.7775   -0.3377   -1.7010 C   0  0  0  0  0  0  0  0  0  0  0  0
   -2.1169    1.4636   -1.1886 C   0  0  0  0  0  0  0  0  0  0  0  0
   -1.0611    1.4755   -2.0227 C   0  0  0  0  0  0  0  0  0  0  0  0
   -0.6637    1.9044    0.7442 C   0  0  0  0  0  0  0  0  0  0  0  0
   -3.1633   -2.0085    0.1155 C   0  0  0  0  0  0  0  0  0  0  0  0
    0.4629    1.8825   -0.2223 C   0  0  0  0  0  0  0  0  0  0  0  0
    0.2719    1.6899   -1.5278 C   0  0  0  0  0  0  0  0  0  0  0  0
   -2.3583   -2.7645   -0.9112 C   0  0  0  0  0  0  0  0  0  0  0  0
   -1.7259   -3.9779   -0.2645 C   0  0  0  0  0  0  0  0  0  0  0  0
    3.7737    0.3233    0.4388 C   0  0  0  0  0  0  0  0  0  0  0  0
   -0.2085   -4.6680    1.3921 C   0  0  0  0  0  0  0  0  0  0  0  0
    3.5921   -0.7817   -0.3740 C   0  0  0  0  0  0  0  0  0  0  0  0
    5.0073    0.9371    0.5642 C   0  0  0  0  0  0  0  0  0  0  0  0
    4.6798   -1.2895   -1.0844 C   0  0  0  0  0  0  0  0  0  0  0  0
    6.0949    0.4292   -0.1464 C   0  0  0  0  0  0  0  0  0  0  0  0
    5.9312   -0.6840   -0.9707 C   0  0  0  0  0  0  0  0  0  0  0  0
   -5.2312    1.8728    1.1523 H   0  0  0  0  0  0  0  0  0  0  0  0
   -3.5843    1.5294   -2.7613 H   0  0  0  0  0  0  0  0  0  0  0  0
   -5.5732    1.6936   -1.2993 H   0  0  0  0  0  0  0  0  0  0  0  0
   -4.4288    2.9879   -0.9421 H   0  0  0  0  0  0  0  0  0  0  0  0
   -4.5583   -0.4826    1.6201 H   0  0  0  0  0  0  0  0  0  0  0  0
   -5.7164   -0.3535    0.2998 H   0  0  0  0  0  0  0  0  0  0  0  0
   -2.8658    1.2394    2.0096 H   0  0  0  0  0  0  0  0  0  0  0  0
   -3.1236    2.8572    1.3867 H   0  0  0  0  0  0  0  0  0  0  0  0
   -4.7585   -0.5513   -2.1435 H   0  0  0  0  0  0  0  0  0  0  0  0
   -3.0374   -0.8584   -2.3126 H   0  0  0  0  0  0  0  0  0  0  0  0
   -1.1757    1.2978   -3.0869 H   0  0  0  0  0  0  0  0  0  0  0  0
    1.0848    1.6733   -2.2458 H   0  0  0  0  0  0  0  0  0  0  0  0
   -3.0096   -3.0756   -1.7337 H   0  0  0  0  0  0  0  0  0  0  0  0
   -1.5695   -2.1033   -1.2864 H   0  0  0  0  0  0  0  0  0  0  0  0
    2.4288    2.3229   -0.5410 H   0  0  0  0  0  0  0  0  0  0  0  0
   -2.4921   -4.6436    0.1517 H   0  0  0  0  0  0  0  0  0  0  0  0
   -1.1609   -4.5351   -1.0211 H   0  0  0  0  0  0  0  0  0  0  0  0
    2.6242   -1.2616   -0.4815 H   0  0  0  0  0  0  0  0  0  0  0  0
    5.1528    1.8088    1.1946 H   0  0  0  0  0  0  0  0  0  0  0  0
    0.4578   -4.2889    2.1716 H   0  0  0  0  0  0  0  0  0  0  0  0
   -0.9527   -5.3219    1.8567 H   0  0  0  0  0  0  0  0  0  0  0  0
    0.3875   -5.2298    0.6665 H   0  0  0  0  0  0  0  0  0  0  0  0
    4.5370   -2.1565   -1.7244 H   0  0  0  0  0  0  0  0  0  0  0  0
    7.0639    0.9122   -0.0495 H   0  0  0  0  0  0  0  0  0  0  0  0
  1 31  1  0  0  0  0
  2  6  2  0  0  0  0
  2  7  2  0  0  0  0
  2 10  1  0  0  0  0
  2 25  1  0  0  0  0
  3 19  2  0  0  0  0
  4 20  2  0  0  0  0
  5 24  1  0  0  0  0
  5 26  1  0  0  0  0
  8 14  1  0  0  0  0
  8 16  1  0  0  0  0
  8 20  1  0  0  0  0
  9 15  1  0  0  0  0
  9 17  1  0  0  0  0
  9 19  1  0  0  0  0
 10 21  1  0  0  0  0
 10 46  1  0  0  0  0
 11 13  1  0  0  0  0
 11 14  1  0  0  0  0
 11 15  1  0  0  0  0
 11 32  1  0  0  0  0
 12 13  1  0  0  0  0
 12 16  1  0  0  0  0
 12 17  1  0  0  0  0
 12 33  1  0  0  0  0
 13 34  1  0  0  0  0
 13 35  1  0  0  0  0
 14 36  1  0  0  0  0
 14 37  1  0  0  0  0
 15 38  1  0  0  0  0
 15 39  1  0  0  0  0
 16 40  1  0  0  0  0
 16 41  1  0  0  0  0
 17 18  2  0  0  0  0
 18 22  1  0  0  0  0
 18 42  1  0  0  0  0
 19 21  1  0  0  0  0
 20 23  1  0  0  0  0
 21 22  2  0  0  0  0
 22 43  1  0  0  0  0
 23 24  1  0  0  0  0
 23 44  1  0  0  0  0
 23 45  1  0  0  0  0
 24 47  1  0  0  0  0
 24 48  1  0  0  0  0
 25 27  2  0  0  0  0
 25 28  1  0  0  0  0
 26 51  1  0  0  0  0
 26 52  1  0  0  0  0
 26 53  1  0  0  0  0
 27 29  1  0  0  0  0
 27 49  1  0  0  0  0
 28 30  2  0  0  0  0
 28 50  1  0  0  0  0
 29 31  2  0  0  0  0
 29 54  1  0  0  0  0
 30 31  1  0  0  0  0
 30 55  1  0  0  0  0
M  END
> <PUBCHEM_COMPOUND_CID>
7051289

> <PUBCHEM_CONFORMER_RMSD>
1

> <PUBCHEM_CONFORMER_DIVERSEORDER>
1
27
17
24
4
12
38
6
16
45
28
43
40
19
35
20
32
31
46
34
21
23
44
5
9
30
18
36
7
42
3
33
10
22
14
25
26
8
39
2
15
37
13
11
41
29

> <PUBCHEM_MMFF94_PARTIAL_CHARGES>
36
1 -0.18
10 -0.75
12 0.14
14 0.3
15 0.3
16 0.3
17 -0.03
18 -0.15
19 0.62
2 1.45
20 0.57
21 0.21
22 -0.15
23 0.06
24 0.28
25 -0.01
26 0.28
27 -0.15
28 -0.15
29 -0.15
3 -0.57
30 -0.15
31 0.18
4 -0.57
42 0.15
43 0.15
46 0.42
49 0.15
5 -0.56
50 0.15
54 0.15
55 0.15
6 -0.65
7 -0.65
8 -0.66
9 -0.47

> <PUBCHEM_EFFECTIVE_ROTOR_COUNT>
8

> <PUBCHEM_PHARMACOPHORE_FEATURES>
10
1 10 donor
1 3 acceptor
1 4 acceptor
1 5 acceptor
1 6 acceptor
1 7 acceptor
6 25 27 28 29 30 31 rings
6 8 11 12 13 14 16 rings
6 9 11 12 13 15 17 rings
6 9 17 18 19 21 22 rings

> <PUBCHEM_HEAVY_ATOM_COUNT>
31

> <PUBCHEM_ATOM_DEF_STEREO_COUNT>
2

> <PUBCHEM_ATOM_UDEF_STEREO_COUNT>
0

> <PUBCHEM_BOND_DEF_STEREO_COUNT>
0

> <PUBCHEM_BOND_UDEF_STEREO_COUNT>
0

> <PUBCHEM_ISOTOPIC_ATOM_COUNT>
0

> <PUBCHEM_COMPONENT_COUNT>
1

> <PUBCHEM_CACTVS_TAUTO_COUNT>
1

> <PUBCHEM_CONFORMER_ID>
006B981900000001

> <PUBCHEM_MMFF94_ENERGY>
70.5411

> <PUBCHEM_FEATURE_SELFOVERLAP>
52.341

> <PUBCHEM_SHAPE_FINGERPRINT>
10305334 12 17052753867592774522
11014199 57 17685499045161180106
11045977 3 18131067130297533972
11135609 12 18264214788533175377
12166972 35 13182439093468581577
12596602 18 13758058706797803350
12788726 201 17630324134329097496
13402501 40 18342741823163847102
14020679 6 17916601851102870345
14251740 79 18342179951210157274
14251757 5 18261398905143141778
14279260 333 17773321124303244590
14840074 17 17822014168436564445
14931854 50 18339911650258721879
14950920 106 16486416636669025227
15361156 5 18131633396187475156
15537594 2 17748824098717665144
17627616 140 18262794043269567979
19958102 18 18335419041827344110
20764821 26 18192967380025905514
20775530 9 17758670440414965459
23466295 7 18117568533502069067
23559900 14 18272644679944077432
3383291 50 18338514257238392795
4073 2 18272086124253422040
4435113 14 18200891659617768742
469060 322 17386016086780041335
508706 21 18337946908563038719
5265222 85 18334017206997902789

> <PUBCHEM_SHAPE_MULTIPOLES>
599.4
13.18
4.21
1.93
20.77
6.35
-0.05
0.85
4.61
-3.35
-1.27
0.39
-0.46
1.74

> <PUBCHEM_SHAPE_SELFOVERLAP>
1266.462

> <PUBCHEM_SHAPE_VOLUME>
335.9

> <PUBCHEM_COORDINATE_TYPE>
2
5
10

$$$$
