51137946
  -OEChem-12032416403D

 59 62  0     1  0  0  0  0  0999 V2000
   -1.3358    1.9931   -0.9725 O   0  0  0  0  0  0  0  0  0  0  0  0
    0.6628   -0.2930   -0.4585 N   0  0  0  0  0  0  0  0  0  0  0  0
   -5.3608    0.2625    0.5228 N   0  0  0  0  0  0  0  0  0  0  0  0
    5.0176    2.2551   -0.2439 N   0  0  0  0  0  0  0  0  0  0  0  0
   -1.7308    0.9017    1.0454 N   0  0  0  0  0  0  0  0  0  0  0  0
    1.6178   -1.1920    0.2033 C   0  0  2  0  0  0  0  0  0  0  0  0
    0.5010    1.0028    0.1851 C   0  0  1  0  0  0  0  0  0  0  0  0
    3.0751   -0.7198    0.2274 C   0  0  0  0  0  0  0  0  0  0  0  0
    1.4464   -2.5411   -0.5178 C   0  0  0  0  0  0  0  0  0  0  0  0
    1.3656    2.0716   -0.4805 C   0  0  0  0  0  0  0  0  0  0  0  0
    3.5092    0.6148   -0.0187 C   0  0  0  0  0  0  0  0  0  0  0  0
    2.8324    1.8460   -0.3251 C   0  0  0  0  0  0  0  0  0  0  0  0
    0.1837   -3.2936   -0.0870 C   0  0  0  0  0  0  0  0  0  0  0  0
   -5.8079    1.2372   -0.4720 C   0  0  0  0  0  0  0  0  0  0  0  0
   -6.1566   -0.9369    0.2635 C   0  0  0  0  0  0  0  0  0  0  0  0
   -7.3184    1.0532   -0.4751 C   0  0  0  0  0  0  0  0  0  0  0  0
   -7.5477   -0.3743    0.0117 C   0  0  0  0  0  0  0  0  0  0  0  0
    4.8737    0.9192    0.0477 C   0  0  0  0  0  0  0  0  0  0  0  0
   -3.9300    0.0070    0.4464 C   0  0  0  0  0  0  0  0  0  0  0  0
   -0.9435    1.3553    0.0010 C   0  0  0  0  0  0  0  0  0  0  0  0
    3.7977    2.8230   -0.4637 C   0  0  0  0  0  0  0  0  0  0  0  0
    4.0827   -1.6472    0.5961 C   0  0  0  0  0  0  0  0  0  0  0  0
   -3.1557    1.1311    1.1188 C   0  0  0  0  0  0  0  0  0  0  0  0
    0.1275   -4.6409   -0.8110 C   0  0  0  0  0  0  0  0  0  0  0  0
   -1.0963   -2.5041   -0.3646 C   0  0  0  0  0  0  0  0  0  0  0  0
    5.8562   -0.0196    0.3669 C   0  0  0  0  0  0  0  0  0  0  0  0
    5.4340   -1.3111    0.6541 C   0  0  0  0  0  0  0  0  0  0  0  0
    1.3203   -1.3184    1.2534 H   0  0  0  0  0  0  0  0  0  0  0  0
    0.7219    0.9580    1.2601 H   0  0  0  0  0  0  0  0  0  0  0  0
    1.4538   -2.3976   -1.6085 H   0  0  0  0  0  0  0  0  0  0  0  0
    2.2861   -3.2160   -0.3289 H   0  0  0  0  0  0  0  0  0  0  0  0
    1.1112    3.0523   -0.0550 H   0  0  0  0  0  0  0  0  0  0  0  0
    1.1459    2.1431   -1.5551 H   0  0  0  0  0  0  0  0  0  0  0  0
    0.8870   -0.1880   -1.4473 H   0  0  0  0  0  0  0  0  0  0  0  0
    0.2362   -3.4979    0.9900 H   0  0  0  0  0  0  0  0  0  0  0  0
   -5.5390    2.2645   -0.2082 H   0  0  0  0  0  0  0  0  0  0  0  0
   -5.4090    1.0167   -1.4705 H   0  0  0  0  0  0  0  0  0  0  0  0
   -5.8044   -1.4710   -0.6285 H   0  0  0  0  0  0  0  0  0  0  0  0
   -6.1502   -1.6296    1.1109 H   0  0  0  0  0  0  0  0  0  0  0  0
   -7.7989    1.7604    0.2112 H   0  0  0  0  0  0  0  0  0  0  0  0
   -7.7402    1.2139   -1.4724 H   0  0  0  0  0  0  0  0  0  0  0  0
   -8.0951   -0.9712   -0.7249 H   0  0  0  0  0  0  0  0  0  0  0  0
   -8.1355   -0.3603    0.9371 H   0  0  0  0  0  0  0  0  0  0  0  0
   -3.5934   -0.1444   -0.5877 H   0  0  0  0  0  0  0  0  0  0  0  0
   -3.6942   -0.9224    0.9823 H   0  0  0  0  0  0  0  0  0  0  0  0
    3.7162    3.8759   -0.6959 H   0  0  0  0  0  0  0  0  0  0  0  0
    3.8213   -2.6631    0.8829 H   0  0  0  0  0  0  0  0  0  0  0  0
   -3.4159    1.2018    2.1808 H   0  0  0  0  0  0  0  0  0  0  0  0
   -3.3688    2.0988    0.6522 H   0  0  0  0  0  0  0  0  0  0  0  0
    5.8998    2.7474   -0.2730 H   0  0  0  0  0  0  0  0  0  0  0  0
   -1.3042    0.3674    1.7967 H   0  0  0  0  0  0  0  0  0  0  0  0
    1.0209   -5.2377   -0.5984 H   0  0  0  0  0  0  0  0  0  0  0  0
   -0.7421   -5.2220   -0.4856 H   0  0  0  0  0  0  0  0  0  0  0  0
    0.0580   -4.5073   -1.8960 H   0  0  0  0  0  0  0  0  0  0  0  0
   -1.9735   -3.1538   -0.2595 H   0  0  0  0  0  0  0  0  0  0  0  0
   -1.2362   -1.7059    0.3657 H   0  0  0  0  0  0  0  0  0  0  0  0
   -1.1196   -2.0960   -1.3801 H   0  0  0  0  0  0  0  0  0  0  0  0
    6.9059    0.2500    0.4132 H   0  0  0  0  0  0  0  0  0  0  0  0
    6.1640   -2.0647    0.9376 H   0  0  0  0  0  0  0  0  0  0  0  0
  1 20  2  0  0  0  0
  2  6  1  0  0  0  0
  2  7  1  0  0  0  0
  2 34  1  0  0  0  0
  3 14  1  0  0  0  0
  3 15  1  0  0  0  0
  3 19  1  0  0  0  0
  4 18  1  0  0  0  0
  4 21  1  0  0  0  0
  4 50  1  0  0  0  0
  5 20  1  0  0  0  0
  5 23  1  0  0  0  0
  5 51  1  0  0  0  0
  6  8  1  0  0  0  0
  6  9  1  0  0  0  0
  6 28  1  0  0  0  0
  7 10  1  0  0  0  0
  7 20  1  0  0  0  0
  7 29  1  0  0  0  0
  8 11  2  0  0  0  0
  8 22  1  0  0  0  0
  9 13  1  0  0  0  0
  9 30  1  0  0  0  0
  9 31  1  0  0  0  0
 10 12  1  0  0  0  0
 10 32  1  0  0  0  0
 10 33  1  0  0  0  0
 11 12  1  0  0  0  0
 11 18  1  0  0  0  0
 12 21  2  0  0  0  0
 13 24  1  0  0  0  0
 13 25  1  0  0  0  0
 13 35  1  0  0  0  0
 14 16  1  0  0  0  0
 14 36  1  0  0  0  0
 14 37  1  0  0  0  0
 15 17  1  0  0  0  0
 15 38  1  0  0  0  0
 15 39  1  0  0  0  0
 16 17  1  0  0  0  0
 16 40  1  0  0  0  0
 16 41  1  0  0  0  0
 17 42  1  0  0  0  0
 17 43  1  0  0  0  0
 18 26  2  0  0  0  0
 19 23  1  0  0  0  0
 19 44  1  0  0  0  0
 19 45  1  0  0  0  0
 21 46  1  0  0  0  0
 22 27  2  0  0  0  0
 22 47  1  0  0  0  0
 23 48  1  0  0  0  0
 23 49  1  0  0  0  0
 24 52  1  0  0  0  0
 24 53  1  0  0  0  0
 24 54  1  0  0  0  0
 25 55  1  0  0  0  0
 25 56  1  0  0  0  0
 25 57  1  0  0  0  0
 26 27  1  0  0  0  0
 26 58  1  0  0  0  0
 27 59  1  0  0  0  0
M  END
> <PUBCHEM_COMPOUND_CID>
51137946

> <PUBCHEM_CONFORMER_RMSD>
1

> <PUBCHEM_CONFORMER_DIVERSEORDER>
1
38
65
71
43
12
69
68
67
80
25
18
11
32
14
29
27
35
47
81
16
56
13
55
73
3
51
60
10
46
4
2
30
36
79
37
39
8
57
66
40
58
61
50
33
22
19
17
21
44
6
76
54
48
63
34
42
70
24
49
74
26
45
9
20
41
15
77
64
59
5
23
75
31
53
78
52
28
72
7
62

> <PUBCHEM_MMFF94_PARTIAL_CHARGES>
27
1 -0.57
10 0.18
12 -0.18
14 0.27
15 0.27
18 -0.15
19 0.27
2 -0.9
20 0.57
21 -0.3
22 -0.15
23 0.3
26 -0.15
27 -0.15
3 -0.81
34 0.36
4 0.03
46 0.15
47 0.15
5 -0.73
50 0.27
51 0.37
58 0.15
59 0.15
6 0.41
7 0.33
8 -0.14

> <PUBCHEM_EFFECTIVE_ROTOR_COUNT>
8.8

> <PUBCHEM_PHARMACOPHORE_FEATURES>
12
1 1 acceptor
1 2 cation
1 2 donor
1 3 cation
1 4 cation
1 4 donor
1 5 donor
3 13 24 25 hydrophobe
5 3 14 15 16 17 rings
5 4 11 12 18 21 rings
6 8 11 18 22 26 27 rings
7 2 6 7 8 10 11 12 rings

> <PUBCHEM_HEAVY_ATOM_COUNT>
27

> <PUBCHEM_ATOM_DEF_STEREO_COUNT>
2

> <PUBCHEM_ATOM_UDEF_STEREO_COUNT>
0

> <PUBCHEM_BOND_DEF_STEREO_COUNT>
0

> <PUBCHEM_BOND_UDEF_STEREO_COUNT>
0

> <PUBCHEM_ISOTOPIC_ATOM_COUNT>
0

> <PUBCHEM_COMPONENT_COUNT>
1

> <PUBCHEM_CACTVS_TAUTO_COUNT>
2

> <PUBCHEM_CONFORMER_ID>
030C4D9A00000001

> <PUBCHEM_MMFF94_ENERGY>
50.931

> <PUBCHEM_FEATURE_SELFOVERLAP>
61.027

> <PUBCHEM_SHAPE_FINGERPRINT>
10411042 1 18048313350439208466
10835480 77 18264202522987812317
1100329 8 18340766043807752354
11227688 84 17404296300620931543
11421498 54 17560241310476980043
11578080 2 17487039318830687330
11719270 70 18412822473920202947
12236239 1 18201721751909496417
12838862 33 18340187653119828344
13140716 1 18338512054304460416
13402501 40 18261111859756748443
13533116 47 18412263943113862489
13540713 5 18046337807290211468
1361 2 18410014333822603755
13692114 37 17988068010684960998
13836976 161 18409172112458737756
13947920 75 16558739136274349053
14117953 113 18410856525332857774
14790565 3 18339361975890670591
15119646 104 18342181029832290329
15131766 46 15576709338437158580
15183329 4 17968089799326342841
15419008 42 17901085453281372253
15483637 11 18122063375696774203
15510794 2 18040157336914655131
15927050 60 17836647796335165860
16728300 4 17390201769261092530
17138139 8 17702364325834768631
18681886 176 18410570699865921864
19319366 153 18201994409218329855
19377110 9 17988657259376854777
20028762 73 18201157663547330822
21197605 99 18338240465741721307
21267235 1 18337673023673708934
21304304 249 18336828602780607590
21583282 1 17604728784199001460
21623969 137 18408886222540437991
22224240 67 18273489070218493706
22956985 138 17977384932688097090
23569917 315 18272097079929933238
3004659 81 18113898256103237297
335352 9 18410860967299628502
338550 245 18335705004316443742
350125 39 18410009940429963676
4073 2 17749677397582850985
4340502 62 18343021111812040029
5283173 99 17895468117000225493
5486654 2 18342462564226438188
59755656 215 18113618954416713049

> <PUBCHEM_SHAPE_MULTIPOLES>
529.85
16.51
3.84
0.85
27.27
4.04
0.05
-5
1.13
-2.61
-1.17
0.18
-0.01
-0.53

> <PUBCHEM_SHAPE_SELFOVERLAP>
1124.219

> <PUBCHEM_SHAPE_VOLUME>
297.8

> <PUBCHEM_COORDINATE_TYPE>
2
5
10

$$$$
