75536839
  -OEChem-12032416393D

 48 50  0     1  0  0  0  0  0999 V2000
   -0.3719    0.9759   -0.1668 O   0  0  0  0  0  0  0  0  0  0  0  0
    0.7972   -2.3687    0.4272 O   0  0  0  0  0  0  0  0  0  0  0  0
   -7.6676    1.0564   -0.4187 O   0  0  0  0  0  0  0  0  0  0  0  0
   -3.7300   -1.9116   -0.0066 O   0  0  0  0  0  0  0  0  0  0  0  0
    3.0560   -0.2043    0.1294 N   0  0  0  0  0  0  0  0  0  0  0  0
   -2.9277    0.0725    0.8204 N   0  0  0  0  0  0  0  0  0  0  0  0
   -5.0664   -0.0236   -0.1821 N   0  0  0  0  0  0  0  0  0  0  0  0
    8.0520    0.3242    0.3694 N   0  0  0  0  0  0  0  0  0  0  0  0
    1.6751   -0.2184   -0.3250 C   0  0  1  0  0  0  0  0  0  0  0  0
    0.7361   -0.9667    0.6031 C   0  0  1  0  0  0  0  0  0  0  0  0
   -0.6111   -0.3991    0.1771 C   0  0  1  0  0  0  0  0  0  0  0  0
    1.0434    1.1638   -0.3415 C   0  0  0  0  0  0  0  0  0  0  0  0
   -1.6676   -0.4798    1.2646 C   0  0  0  0  0  0  0  0  0  0  0  0
    3.9555    0.2194   -0.9369 C   0  0  0  0  0  0  0  0  0  0  0  0
   -3.8977   -0.7048    0.1983 C   0  0  0  0  0  0  0  0  0  0  0  0
   -6.1388   -0.7642   -0.8507 C   0  0  0  0  0  0  0  0  0  0  0  0
   -5.2844    1.4285   -0.1144 C   0  0  0  0  0  0  0  0  0  0  0  0
    5.3894    0.2561   -0.4792 C   0  0  0  0  0  0  0  0  0  0  0  0
   -7.5008   -0.3584   -0.3098 C   0  0  0  0  0  0  0  0  0  0  0  0
   -6.6955    1.7430    0.3708 C   0  0  0  0  0  0  0  0  0  0  0  0
    5.8405    1.3000    0.3208 C   0  0  0  0  0  0  0  0  0  0  0  0
    6.2680   -0.7539   -0.8555 C   0  0  0  0  0  0  0  0  0  0  0  0
    7.1689    1.2879    0.7149 C   0  0  0  0  0  0  0  0  0  0  0  0
    7.5773   -0.6742   -0.4087 C   0  0  0  0  0  0  0  0  0  0  0  0
    1.6077   -0.6801   -1.3204 H   0  0  0  0  0  0  0  0  0  0  0  0
    0.9497   -0.7325    1.6534 H   0  0  0  0  0  0  0  0  0  0  0  0
   -0.9765   -0.9030   -0.7273 H   0  0  0  0  0  0  0  0  0  0  0  0
    1.3904    1.7906    0.4881 H   0  0  0  0  0  0  0  0  0  0  0  0
    1.2245    1.7002   -1.2779 H   0  0  0  0  0  0  0  0  0  0  0  0
   -1.3678    0.1132    2.1358 H   0  0  0  0  0  0  0  0  0  0  0  0
   -1.8163   -1.5159    1.5866 H   0  0  0  0  0  0  0  0  0  0  0  0
    3.3178   -1.1443    0.4280 H   0  0  0  0  0  0  0  0  0  0  0  0
   -3.0556    1.0625    0.9722 H   0  0  0  0  0  0  0  0  0  0  0  0
    3.6900    1.2218   -1.2963 H   0  0  0  0  0  0  0  0  0  0  0  0
    3.8674   -0.4518   -1.8012 H   0  0  0  0  0  0  0  0  0  0  0  0
    0.6081   -2.5685   -0.5053 H   0  0  0  0  0  0  0  0  0  0  0  0
   -5.9977   -1.8443   -0.7479 H   0  0  0  0  0  0  0  0  0  0  0  0
   -6.0668   -0.5139   -1.9158 H   0  0  0  0  0  0  0  0  0  0  0  0
   -5.1518    1.8000   -1.1376 H   0  0  0  0  0  0  0  0  0  0  0  0
   -4.5698    1.9474    0.5218 H   0  0  0  0  0  0  0  0  0  0  0  0
   -8.2946   -0.8368   -0.8917 H   0  0  0  0  0  0  0  0  0  0  0  0
   -7.6233   -0.6602    0.7372 H   0  0  0  0  0  0  0  0  0  0  0  0
   -6.8900    2.8167    0.2845 H   0  0  0  0  0  0  0  0  0  0  0  0
   -6.8234    1.4647    1.4238 H   0  0  0  0  0  0  0  0  0  0  0  0
    5.1822    2.1040    0.6320 H   0  0  0  0  0  0  0  0  0  0  0  0
    5.9511   -1.5844   -1.4769 H   0  0  0  0  0  0  0  0  0  0  0  0
    7.5702    2.0794    1.3392 H   0  0  0  0  0  0  0  0  0  0  0  0
    8.3019   -1.4371   -0.6737 H   0  0  0  0  0  0  0  0  0  0  0  0
  1 11  1  0  0  0  0
  1 12  1  0  0  0  0
  2 10  1  0  0  0  0
  2 36  1  0  0  0  0
  3 19  1  0  0  0  0
  3 20  1  0  0  0  0
  4 15  2  0  0  0  0
  5  9  1  0  0  0  0
  5 14  1  0  0  0  0
  5 32  1  0  0  0  0
  6 13  1  0  0  0  0
  6 15  1  0  0  0  0
  6 33  1  0  0  0  0
  7 15  1  0  0  0  0
  7 16  1  0  0  0  0
  7 17  1  0  0  0  0
  8 23  2  0  0  0  0
  8 24  1  0  0  0  0
  9 10  1  0  0  0  0
  9 12  1  0  0  0  0
  9 25  1  0  0  0  0
 10 11  1  0  0  0  0
 10 26  1  0  0  0  0
 11 13  1  0  0  0  0
 11 27  1  0  0  0  0
 12 28  1  0  0  0  0
 12 29  1  0  0  0  0
 13 30  1  0  0  0  0
 13 31  1  0  0  0  0
 14 18  1  0  0  0  0
 14 34  1  0  0  0  0
 14 35  1  0  0  0  0
 16 19  1  0  0  0  0
 16 37  1  0  0  0  0
 16 38  1  0  0  0  0
 17 20  1  0  0  0  0
 17 39  1  0  0  0  0
 17 40  1  0  0  0  0
 18 21  2  0  0  0  0
 18 22  1  0  0  0  0
 19 41  1  0  0  0  0
 19 42  1  0  0  0  0
 20 43  1  0  0  0  0
 20 44  1  0  0  0  0
 21 23  1  0  0  0  0
 21 45  1  0  0  0  0
 22 24  2  0  0  0  0
 22 46  1  0  0  0  0
 23 47  1  0  0  0  0
 24 48  1  0  0  0  0
M  END
> <PUBCHEM_COMPOUND_CID>
75536839

> <PUBCHEM_CONFORMER_RMSD>
1

> <PUBCHEM_CONFORMER_DIVERSEORDER>
1
71
5
18
13
61
70
52
30
65
40
4
59
77
11
75
20
32
42
14
81
29
74
76
9
56
63
33
79
7
26
66
36
31
35
16
62
34
19
69
43
41
58
23
53
24
49
60
6
64
28
73
78
10
25
55
44
48
72
27
15
68
2
22
67
80
8
50
51
12
17
38
37
45
47
54
57
39
3
21
46

> <PUBCHEM_MMFF94_PARTIAL_CHARGES>
31
1 -0.56
10 0.28
11 0.28
12 0.28
13 0.3
14 0.41
15 0.69
16 0.3
17 0.3
18 -0.14
19 0.28
2 -0.68
20 0.28
21 -0.15
22 -0.15
23 0.16
24 0.16
3 -0.56
32 0.36
33 0.37
36 0.4
4 -0.57
45 0.15
46 0.15
47 0.15
48 0.15
5 -0.9
6 -0.73
7 -0.66
8 -0.62
9 0.27

> <PUBCHEM_EFFECTIVE_ROTOR_COUNT>
9.2

> <PUBCHEM_PHARMACOPHORE_FEATURES>
12
1 1 acceptor
1 2 acceptor
1 2 donor
1 3 acceptor
1 4 acceptor
1 5 cation
1 5 donor
1 6 donor
1 8 acceptor
5 1 9 10 11 12 rings
6 3 7 16 17 19 20 rings
6 8 18 21 22 23 24 rings

> <PUBCHEM_HEAVY_ATOM_COUNT>
24

> <PUBCHEM_ATOM_DEF_STEREO_COUNT>
3

> <PUBCHEM_ATOM_UDEF_STEREO_COUNT>
0

> <PUBCHEM_BOND_DEF_STEREO_COUNT>
0

> <PUBCHEM_BOND_UDEF_STEREO_COUNT>
0

> <PUBCHEM_ISOTOPIC_ATOM_COUNT>
0

> <PUBCHEM_COMPONENT_COUNT>
1

> <PUBCHEM_CACTVS_TAUTO_COUNT>
2

> <PUBCHEM_CONFORMER_ID>
048099C700000001

> <PUBCHEM_MMFF94_ENERGY>
50.497

> <PUBCHEM_FEATURE_SELFOVERLAP>
60.898

> <PUBCHEM_SHAPE_FINGERPRINT>
10050765 1 18050568443526886844
10066227 49 17274268240741214622
106641 1 10015575104180688758
11135609 99 10807348846929439045
11315181 36 17346601889649004091
11524674 6 14273741763406106545
11719270 70 17775566416877388558
12082328 90 18131068226009664151
125118 31 18335986445704250588
13533116 47 17676760977990621210
13885169 127 18272090478785880957
13914758 101 18408323267938842472
13968360 50 17274826822602100158
14123256 10 18410855460133436559
14251764 18 17385721400567895811
14251764 46 18410012139015174429
14344974 52 18343014515955622293
15183329 4 16950280711060704812
15419008 47 18341887493944802192
15716309 27 11097857397634262601
15849732 13 18060137652100451020
18681886 176 18059567027536135763
20157964 124 17917716795154496654
20281389 69 15502374547367848012
20554085 129 18201988937867832098
21150785 3 17203889660729284405
21315763 28 18342457053767560293
220451 1 14707208851115911112
22224240 67 18259702302560466322
23559900 14 17846491591010137545
246663 6 10087640411758372880
3009799 131 18272934929163881569
335352 9 18187368748700379180
4073 2 18187088411758691826
4339292 15 16916774254869080903
4340502 62 15140678077440485088
5385378 56 17458340797813942786
5758199 1 18259985959512438843
59682541 35 9151165459144311053
5969126 39 15051736357155759633
59755656 215 18334017164391036390
59755656 520 15864071009707687427

> <PUBCHEM_SHAPE_MULTIPOLES>
450.51
25.75
1.58
0.89
3.34
0.11
-0.04
-6.04
2.86
-0.92
-0.15
0.18
0.05
0.45

> <PUBCHEM_SHAPE_SELFOVERLAP>
933.313

> <PUBCHEM_SHAPE_VOLUME>
255.6

> <PUBCHEM_COORDINATE_TYPE>
2
5
10

$$$$
