38030163
  -OEChem-12032416363D

 51 52  0     1  0  0  0  0  0999 V2000
    5.5206   -1.2301    1.2367 O   0  0  0  0  0  0  0  0  0  0  0  0
   -1.1350    2.3477   -1.1245 O   0  0  0  0  0  0  0  0  0  0  0  0
   -1.7100    1.7307    1.0410 N   0  0  0  0  0  0  0  0  0  0  0  0
   -4.4197    0.4709   -0.6854 N   0  0  0  0  0  0  0  0  0  0  0  0
    1.9732   -1.0354   -0.0090 C   0  0  2  0  0  0  0  0  0  0  0  0
    1.3045   -0.0898   -1.0184 C   0  0  0  0  0  0  0  0  0  0  0  0
    3.4990   -0.7734    0.0486 C   0  0  1  0  0  0  0  0  0  0  0  0
    1.5323    1.3926   -0.6672 C   0  0  2  0  0  0  0  0  0  0  0  0
    1.6592   -2.4897   -0.3740 C   0  0  0  0  0  0  0  0  0  0  0  0
    2.9829    1.6757   -0.3331 C   0  0  0  0  0  0  0  0  0  0  0  0
    3.8502    0.6939   -0.0289 C   0  0  0  0  0  0  0  0  0  0  0  0
    0.6096    1.8383    0.4726 C   0  0  0  0  0  0  0  0  0  0  0  0
    4.1171   -1.3804    1.3133 C   0  0  0  0  0  0  0  0  0  0  0  0
    0.2784   -2.8816    0.1423 C   0  0  0  0  0  0  0  0  0  0  0  0
    1.7496   -2.6908   -1.8833 C   0  0  0  0  0  0  0  0  0  0  0  0
    3.4258    3.1108   -0.4013 C   0  0  0  0  0  0  0  0  0  0  0  0
   -0.8209    2.0076    0.0129 C   0  0  0  0  0  0  0  0  0  0  0  0
   -3.1444    1.8131    0.8874 C   0  0  0  0  0  0  0  0  0  0  0  0
   -3.7428    0.4963    0.4846 C   0  0  0  0  0  0  0  0  0  0  0  0
   -3.5783   -0.6047    1.3096 C   0  0  0  0  0  0  0  0  0  0  0  0
   -4.1452   -1.8094    0.9081 C   0  0  0  0  0  0  0  0  0  0  0  0
   -4.9568   -0.7173   -1.0427 C   0  0  0  0  0  0  0  0  0  0  0  0
   -4.8492   -1.8750   -0.2892 C   0  0  0  0  0  0  0  0  0  0  0  0
    1.5656   -0.8350    0.9906 H   0  0  0  0  0  0  0  0  0  0  0  0
    0.2307   -0.2894   -1.1023 H   0  0  0  0  0  0  0  0  0  0  0  0
    1.7310   -0.2264   -2.0205 H   0  0  0  0  0  0  0  0  0  0  0  0
    3.9900   -1.2344   -0.8186 H   0  0  0  0  0  0  0  0  0  0  0  0
    1.2907    1.9673   -1.5721 H   0  0  0  0  0  0  0  0  0  0  0  0
    2.3774   -3.1668    0.0997 H   0  0  0  0  0  0  0  0  0  0  0  0
    4.8892    0.9623    0.1498 H   0  0  0  0  0  0  0  0  0  0  0  0
    0.9070    2.8207    0.8591 H   0  0  0  0  0  0  0  0  0  0  0  0
    0.6656    1.1453    1.3189 H   0  0  0  0  0  0  0  0  0  0  0  0
    3.9011   -2.4474    1.4071 H   0  0  0  0  0  0  0  0  0  0  0  0
    3.7578   -0.8729    2.2158 H   0  0  0  0  0  0  0  0  0  0  0  0
   -0.5195   -2.2814   -0.3061 H   0  0  0  0  0  0  0  0  0  0  0  0
    0.2190   -2.7654    1.2298 H   0  0  0  0  0  0  0  0  0  0  0  0
    0.0680   -3.9320   -0.0876 H   0  0  0  0  0  0  0  0  0  0  0  0
    0.9126   -2.2416   -2.4282 H   0  0  0  0  0  0  0  0  0  0  0  0
    1.7075   -3.7641   -2.1061 H   0  0  0  0  0  0  0  0  0  0  0  0
    2.6918   -2.3255   -2.3026 H   0  0  0  0  0  0  0  0  0  0  0  0
    3.1928    3.5340   -1.3839 H   0  0  0  0  0  0  0  0  0  0  0  0
    4.5052    3.2160   -0.2480 H   0  0  0  0  0  0  0  0  0  0  0  0
    2.9272    3.7122    0.3641 H   0  0  0  0  0  0  0  0  0  0  0  0
    5.8957   -1.6108    2.0490 H   0  0  0  0  0  0  0  0  0  0  0  0
   -1.3533    1.4546    1.9512 H   0  0  0  0  0  0  0  0  0  0  0  0
   -3.3818    2.5834    0.1450 H   0  0  0  0  0  0  0  0  0  0  0  0
   -3.5654    2.1323    1.8470 H   0  0  0  0  0  0  0  0  0  0  0  0
   -3.0311   -0.5449    2.2443 H   0  0  0  0  0  0  0  0  0  0  0  0
   -4.0388   -2.6951    1.5271 H   0  0  0  0  0  0  0  0  0  0  0  0
   -5.4955   -0.7157   -1.9845 H   0  0  0  0  0  0  0  0  0  0  0  0
   -5.2994   -2.8033   -0.6220 H   0  0  0  0  0  0  0  0  0  0  0  0
  1 13  1  0  0  0  0
  1 44  1  0  0  0  0
  2 17  2  0  0  0  0
  3 17  1  0  0  0  0
  3 18  1  0  0  0  0
  3 45  1  0  0  0  0
  4 19  1  0  0  0  0
  4 22  2  0  0  0  0
  5  6  1  0  0  0  0
  5  7  1  0  0  0  0
  5  9  1  0  0  0  0
  5 24  1  0  0  0  0
  6  8  1  0  0  0  0
  6 25  1  0  0  0  0
  6 26  1  0  0  0  0
  7 11  1  0  0  0  0
  7 13  1  0  0  0  0
  7 27  1  0  0  0  0
  8 10  1  0  0  0  0
  8 12  1  0  0  0  0
  8 28  1  0  0  0  0
  9 14  1  0  0  0  0
  9 15  1  0  0  0  0
  9 29  1  0  0  0  0
 10 11  2  0  0  0  0
 10 16  1  0  0  0  0
 11 30  1  0  0  0  0
 12 17  1  0  0  0  0
 12 31  1  0  0  0  0
 12 32  1  0  0  0  0
 13 33  1  0  0  0  0
 13 34  1  0  0  0  0
 14 35  1  0  0  0  0
 14 36  1  0  0  0  0
 14 37  1  0  0  0  0
 15 38  1  0  0  0  0
 15 39  1  0  0  0  0
 15 40  1  0  0  0  0
 16 41  1  0  0  0  0
 16 42  1  0  0  0  0
 16 43  1  0  0  0  0
 18 19  1  0  0  0  0
 18 46  1  0  0  0  0
 18 47  1  0  0  0  0
 19 20  2  0  0  0  0
 20 21  1  0  0  0  0
 20 48  1  0  0  0  0
 21 23  2  0  0  0  0
 21 49  1  0  0  0  0
 22 23  1  0  0  0  0
 22 50  1  0  0  0  0
 23 51  1  0  0  0  0
M  END
> <PUBCHEM_COMPOUND_CID>
38030163

> <PUBCHEM_CONFORMER_RMSD>
1

> <PUBCHEM_CONFORMER_DIVERSEORDER>
1
110
93
84
106
46
115
2
26
90
68
105
9
121
128
133
13
36
25
47
35
79
97
59
95
4
98
45
27
102
20
52
119
100
91
55
74
34
44
42
109
126
14
15
88
123
114
131
76
51
8
3
92
87
5
60
99
75
54
107
64
104
72
32
6
69
38
62
50
61
12
67
41
28
49
39
43
113
130
21
81
80
31
19
101
85
18
116
127
89
33
103
65
57
108
132
30
16
73
10
117
125
7
56
48
120
129
118
53
24
22
83
94
82
77
112
124
29
70
86
23
17
63
71
96
11
122
40
37
78
58
111
66

> <PUBCHEM_MMFF94_PARTIAL_CHARGES>
25
1 -0.68
10 -0.28
11 -0.29
12 0.06
13 0.28
16 0.14
17 0.57
18 0.44
19 0.17
2 -0.57
20 -0.15
21 -0.15
22 0.16
23 -0.15
3 -0.73
30 0.15
4 -0.62
44 0.4
45 0.37
48 0.15
49 0.15
50 0.15
51 0.15
7 0.14
8 0.14

> <PUBCHEM_EFFECTIVE_ROTOR_COUNT>
7.8

> <PUBCHEM_PHARMACOPHORE_FEATURES>
8
1 1 acceptor
1 1 donor
1 2 acceptor
1 3 donor
1 4 acceptor
3 9 14 15 hydrophobe
6 4 19 20 21 22 23 rings
6 5 6 7 8 10 11 rings

> <PUBCHEM_HEAVY_ATOM_COUNT>
23

> <PUBCHEM_ATOM_DEF_STEREO_COUNT>
3

> <PUBCHEM_ATOM_UDEF_STEREO_COUNT>
0

> <PUBCHEM_BOND_DEF_STEREO_COUNT>
0

> <PUBCHEM_BOND_UDEF_STEREO_COUNT>
0

> <PUBCHEM_ISOTOPIC_ATOM_COUNT>
0

> <PUBCHEM_COMPONENT_COUNT>
1

> <PUBCHEM_CACTVS_TAUTO_COUNT>
2

> <PUBCHEM_CONFORMER_ID>
02444B5300000001

> <PUBCHEM_MMFF94_ENERGY>
47.7609

> <PUBCHEM_FEATURE_SELFOVERLAP>
40.596

> <PUBCHEM_SHAPE_FINGERPRINT>
10447042 23 18339636853971713957
10616163 171 18342184345204014645
10759866 29 17897457309300697612
11118852 30 18202848763827636767
11488393 25 17201098988897714598
12422481 6 17773019870685851702
12553582 1 18119549660107569417
12596599 1 17843984545532542995
12633257 1 18336272223588845497
12838863 1 18338779187668867187
12839892 36 18342167835260350554
13083527 12 18335696131251847300
13224815 77 18341341036907272907
13402501 40 18118977034010055843
13911882 115 17988083284031588798
14178342 30 18126571107055835808
14787075 74 17701830005484911409
14790565 3 17323805942551441876
14955137 171 18201719497531447544
17349148 13 18409173215975072219
20028762 73 18272646853218693406
21315764 371 16916776431462723231
21673915 165 18342177773534760703
23559900 14 18270404867093509932
339767 52 18343010078547413255
3797600 57 17704079503317113912
392239 28 17775559832349022026
439807 62 18191299580633886831
445580 102 18193850455683069771
46194498 28 17387689651521385237
463206 1 18127125510546746271
474229 33 18268996547507133628
5104073 3 18413394249984198953
5312544 6 18264773340656778980
6287921 2 17773332157335561031
9709674 26 18339369539480975021

> <PUBCHEM_SHAPE_MULTIPOLES>
451.63
10.69
3.62
1.3
6.37
0.11
-0.07
2.75
1.74
-1.65
-0.52
-0.05
0.45
-0.66

> <PUBCHEM_SHAPE_SELFOVERLAP>
924.795

> <PUBCHEM_SHAPE_VOLUME>
259.2

> <PUBCHEM_COORDINATE_TYPE>
2
5
10

$$$$
