75536786
  -OEChem-12032416323D

 41 42  0     1  0  0  0  0  0999 V2000
   -1.0608   -1.0418    0.3311 O   0  0  0  0  0  0  0  0  0  0  0  0
   -2.4665    2.2497    0.0221 O   0  0  0  0  0  0  0  0  0  0  0  0
    2.1510    1.9909   -0.3717 O   0  0  0  0  0  0  0  0  0  0  0  0
   -4.5649   -0.0662    0.3527 N   0  0  0  0  0  0  0  0  0  0  0  0
    1.4093    0.2717    0.9985 N   0  0  0  0  0  0  0  0  0  0  0  0
    6.0101   -1.1821   -0.4974 N   0  0  0  0  0  0  0  0  0  0  0  0
   -3.1869   -0.0792   -0.1104 C   0  0  1  0  0  0  0  0  0  0  0  0
   -2.3068    0.9545    0.5676 C   0  0  1  0  0  0  0  0  0  0  0  0
   -0.9211    0.3881    0.2889 C   0  0  1  0  0  0  0  0  0  0  0  0
   -2.4585   -1.3676    0.2355 C   0  0  0  0  0  0  0  0  0  0  0  0
    0.1230    0.8318    1.2980 C   0  0  0  0  0  0  0  0  0  0  0  0
   -5.4282   -0.8227   -0.5463 C   0  0  0  0  0  0  0  0  0  0  0  0
   -6.6915   -1.2438    0.1977 C   0  0  0  0  0  0  0  0  0  0  0  0
   -5.7697    0.0111   -1.7780 C   0  0  0  0  0  0  0  0  0  0  0  0
    2.3342    0.9064    0.1749 C   0  0  0  0  0  0  0  0  0  0  0  0
    3.6107    0.1829   -0.0577 C   0  0  0  0  0  0  0  0  0  0  0  0
    4.3311    0.3966   -1.2277 C   0  0  0  0  0  0  0  0  0  0  0  0
    4.0888   -0.7124    0.8928 C   0  0  0  0  0  0  0  0  0  0  0  0
    5.5140   -0.3044   -1.3981 C   0  0  0  0  0  0  0  0  0  0  0  0
    5.2827   -1.3637    0.6276 C   0  0  0  0  0  0  0  0  0  0  0  0
   -3.1261    0.1005   -1.1908 H   0  0  0  0  0  0  0  0  0  0  0  0
   -2.5069    0.9976    1.6455 H   0  0  0  0  0  0  0  0  0  0  0  0
   -0.5892    0.6541   -0.7234 H   0  0  0  0  0  0  0  0  0  0  0  0
   -2.7630   -1.7698    1.2087 H   0  0  0  0  0  0  0  0  0  0  0  0
   -2.5953   -2.1487   -0.5183 H   0  0  0  0  0  0  0  0  0  0  0  0
   -4.9001    0.8936    0.4303 H   0  0  0  0  0  0  0  0  0  0  0  0
   -0.1383    0.4801    2.3021 H   0  0  0  0  0  0  0  0  0  0  0  0
    0.1983    1.9242    1.3212 H   0  0  0  0  0  0  0  0  0  0  0  0
   -4.9381   -1.7480   -0.8734 H   0  0  0  0  0  0  0  0  0  0  0  0
   -2.2899    2.2035   -0.9328 H   0  0  0  0  0  0  0  0  0  0  0  0
    1.5982   -0.6554    1.3640 H   0  0  0  0  0  0  0  0  0  0  0  0
   -7.3457   -1.8348   -0.4524 H   0  0  0  0  0  0  0  0  0  0  0  0
   -6.4460   -1.8598    1.0700 H   0  0  0  0  0  0  0  0  0  0  0  0
   -7.2616   -0.3752    0.5464 H   0  0  0  0  0  0  0  0  0  0  0  0
   -6.4677   -0.5341   -2.4236 H   0  0  0  0  0  0  0  0  0  0  0  0
   -4.8909    0.2435   -2.3864 H   0  0  0  0  0  0  0  0  0  0  0  0
   -6.2507    0.9569   -1.5031 H   0  0  0  0  0  0  0  0  0  0  0  0
    3.9911    1.0826   -1.9960 H   0  0  0  0  0  0  0  0  0  0  0  0
    3.5892   -0.9013    1.8359 H   0  0  0  0  0  0  0  0  0  0  0  0
    6.1125   -0.1745   -2.2938 H   0  0  0  0  0  0  0  0  0  0  0  0
    5.7024   -2.0667    1.3396 H   0  0  0  0  0  0  0  0  0  0  0  0
  1  9  1  0  0  0  0
  1 10  1  0  0  0  0
  2  8  1  0  0  0  0
  2 30  1  0  0  0  0
  3 15  2  0  0  0  0
  4  7  1  0  0  0  0
  4 12  1  0  0  0  0
  4 26  1  0  0  0  0
  5 11  1  0  0  0  0
  5 15  1  0  0  0  0
  5 31  1  0  0  0  0
  6 19  2  0  0  0  0
  6 20  1  0  0  0  0
  7  8  1  0  0  0  0
  7 10  1  0  0  0  0
  7 21  1  0  0  0  0
  8  9  1  0  0  0  0
  8 22  1  0  0  0  0
  9 11  1  0  0  0  0
  9 23  1  0  0  0  0
 10 24  1  0  0  0  0
 10 25  1  0  0  0  0
 11 27  1  0  0  0  0
 11 28  1  0  0  0  0
 12 13  1  0  0  0  0
 12 14  1  0  0  0  0
 12 29  1  0  0  0  0
 13 32  1  0  0  0  0
 13 33  1  0  0  0  0
 13 34  1  0  0  0  0
 14 35  1  0  0  0  0
 14 36  1  0  0  0  0
 14 37  1  0  0  0  0
 15 16  1  0  0  0  0
 16 17  2  0  0  0  0
 16 18  1  0  0  0  0
 17 19  1  0  0  0  0
 17 38  1  0  0  0  0
 18 20  2  0  0  0  0
 18 39  1  0  0  0  0
 19 40  1  0  0  0  0
 20 41  1  0  0  0  0
M  END
> <PUBCHEM_COMPOUND_CID>
75536786

> <PUBCHEM_CONFORMER_RMSD>
0.8

> <PUBCHEM_CONFORMER_DIVERSEORDER>
1
39
18
35
48
27
47
32
29
44
37
22
33
12
40
28
21
42
24
30
13
19
50
53
9
52
16
20
43
45
14
54
5
49
3
41
10
8
31
2
23
38
36
7
46
51
11
34
15
26
55
25
17
4
6

> <PUBCHEM_MMFF94_PARTIAL_CHARGES>
25
1 -0.56
10 0.28
11 0.3
12 0.27
15 0.54
16 0.09
17 -0.15
18 -0.15
19 0.16
2 -0.68
20 0.16
26 0.36
3 -0.57
30 0.4
31 0.37
38 0.15
39 0.15
4 -0.9
40 0.15
41 0.15
5 -0.73
6 -0.62
7 0.27
8 0.28
9 0.28

> <PUBCHEM_EFFECTIVE_ROTOR_COUNT>
7

> <PUBCHEM_PHARMACOPHORE_FEATURES>
11
1 1 acceptor
1 2 acceptor
1 2 donor
1 3 acceptor
1 4 cation
1 4 donor
1 5 donor
1 6 acceptor
3 12 13 14 hydrophobe
5 1 7 8 9 10 rings
6 6 16 17 18 19 20 rings

> <PUBCHEM_HEAVY_ATOM_COUNT>
20

> <PUBCHEM_ATOM_DEF_STEREO_COUNT>
3

> <PUBCHEM_ATOM_UDEF_STEREO_COUNT>
0

> <PUBCHEM_BOND_DEF_STEREO_COUNT>
0

> <PUBCHEM_BOND_UDEF_STEREO_COUNT>
0

> <PUBCHEM_ISOTOPIC_ATOM_COUNT>
0

> <PUBCHEM_COMPONENT_COUNT>
1

> <PUBCHEM_CACTVS_TAUTO_COUNT>
2

> <PUBCHEM_CONFORMER_ID>
0480999200000001

> <PUBCHEM_MMFF94_ENERGY>
38.8598

> <PUBCHEM_FEATURE_SELFOVERLAP>
55.821

> <PUBCHEM_SHAPE_FINGERPRINT>
10 15 11239994568338887759
10354089 29 11743838067408222602
10378564 45 17458616800991359116
106641 1 14907889501472771714
10670039 82 11747204711804361350
117890 112 10737275853713870355
12166972 35 17895197740097188485
12516196 113 17346597478606925408
12555020 224 18341889719159172471
12670543 26 18041273301406944965
12730499 353 14923946726008066616
12954195 1 18341048506943815873
13533116 47 16630526250140880154
13668630 136 18342741814378629798
13685833 64 17846781823008634179
13862211 1 18202559605745237911
14251751 18 16199859678776231167
14251752 14 17894622630721826815
14341114 328 10447925070891925540
14347332 77 18411415077445625661
14528608 73 15936406753958611395
14848160 23 15913608354391706406
15048467 5 11746933192186718455
15183329 4 18259982643855637069
15348495 7 14476952424240612879
15475509 35 16414922916936424390
17834072 8 18334012804392335527
18222031 100 18202004330840261264
18335252 98 18044382849149981075
19784866 240 18060427914532535840
20281389 69 11386359348968627831
20374829 77 18202844366118456015
21150785 3 16660365913429250835
21267235 1 18412550907121690979
21637258 2 16917060071276641117
221357 26 17313100852171011212
2215653 11 18408882949221678295
23035841 295 18411419532028442203
23198884 109 16081084866640064911
23402539 116 18272087176219845837
23522609 53 18054823716889034465
23559900 14 18339357594855509577
26918003 58 13973964311538028655
2767999 5 11963387461988106359
29717793 49 18408324367682260492
3004659 81 18333732416738579066
312425 54 14979964674637938335
3472631 163 12613048205591007674
351380 3 18272651242537554174
4340502 62 12823300108381890628
465052 167 18201162138707645535
5374978 207 11527953356818605282
542803 24 14129053716680924493
559249 180 18339077069282634642
59682541 52 17967242083686292926
59755656 215 18130787824258293495
960060 61 18040159517929872502

> <PUBCHEM_SHAPE_MULTIPOLES>
379.04
16.62
1.55
1.22
4.71
0.41
0.34
-7.35
5.32
0.06
-0.12
-0.25
0.03
-0.24

> <PUBCHEM_SHAPE_SELFOVERLAP>
779.662

> <PUBCHEM_SHAPE_VOLUME>
217.9

> <PUBCHEM_COORDINATE_TYPE>
2
5
10

$$$$
