56774925
  -OEChem-12032416343D

 52 54  0     1  0  0  0  0  0999 V2000
    6.2298   -1.8053    0.0284 S   0  0  0  0  0  0  0  0  0  0  0  0
   -2.5419    1.9776    1.7014 O   0  0  0  0  0  0  0  0  0  0  0  0
   -2.1821    0.6370   -2.2718 O   0  0  0  0  0  0  0  0  0  0  0  0
   -4.7875   -2.2101   -0.0038 O   0  0  0  0  0  0  0  0  0  0  0  0
   -5.8218    2.0802    0.1937 O   0  0  0  0  0  0  0  0  0  0  0  0
    4.7189    1.7605    0.1783 O   0  0  0  0  0  0  0  0  0  0  0  0
   -4.0850    0.5749   -0.1725 N   0  0  0  0  0  0  0  0  0  0  0  0
    3.7168   -0.3244   -0.2434 N   0  0  0  0  0  0  0  0  0  0  0  0
   -2.6721    0.2481    0.0569 C   0  0  1  0  0  0  0  0  0  0  0  0
   -1.7791    0.9792   -0.9500 C   0  0  1  0  0  0  0  0  0  0  0  0
   -2.2825    0.5951    1.4888 C   0  0  0  0  0  0  0  0  0  0  0  0
   -4.7796   -0.1472   -1.2299 C   0  0  0  0  0  0  0  0  0  0  0  0
   -4.6999    1.6495    0.4668 C   0  0  0  0  0  0  0  0  0  0  0  0
   -0.3239    0.6337   -0.7623 C   0  0  0  0  0  0  0  0  0  0  0  0
   -3.9242    2.2484    1.6346 C   0  0  0  0  0  0  0  0  0  0  0  0
   -5.6264   -1.2761   -0.6711 C   0  0  0  0  0  0  0  0  0  0  0  0
    0.0972   -0.6924   -0.8628 C   0  0  0  0  0  0  0  0  0  0  0  0
    0.6019    1.6405   -0.4885 C   0  0  0  0  0  0  0  0  0  0  0  0
    1.4439   -1.0115   -0.6899 C   0  0  0  0  0  0  0  0  0  0  0  0
    1.9486    1.3215   -0.3154 C   0  0  0  0  0  0  0  0  0  0  0  0
    2.3697   -0.0046   -0.4162 C   0  0  0  0  0  0  0  0  0  0  0  0
   -5.5366   -3.2890    0.5384 C   0  0  0  0  0  0  0  0  0  0  0  0
   -4.5912   -4.2457    1.2331 C   0  0  0  0  0  0  0  0  0  0  0  0
    4.7806    0.5441    0.0346 C   0  0  0  0  0  0  0  0  0  0  0  0
    6.1085   -0.1051    0.1926 C   0  0  0  0  0  0  0  0  0  0  0  0
    7.3272    0.4760    0.4659 C   0  0  0  0  0  0  0  0  0  0  0  0
    8.3744   -0.4871    0.5412 C   0  0  0  0  0  0  0  0  0  0  0  0
    7.9162   -1.7677    0.3228 C   0  0  0  0  0  0  0  0  0  0  0  0
   -2.5800   -0.8374   -0.0653 H   0  0  0  0  0  0  0  0  0  0  0  0
   -1.9251    2.0627   -0.8653 H   0  0  0  0  0  0  0  0  0  0  0  0
   -2.8621    0.0030    2.2092 H   0  0  0  0  0  0  0  0  0  0  0  0
   -1.2278    0.4029    1.7036 H   0  0  0  0  0  0  0  0  0  0  0  0
   -4.0680   -0.5782   -1.9354 H   0  0  0  0  0  0  0  0  0  0  0  0
   -5.4213    0.5516   -1.7776 H   0  0  0  0  0  0  0  0  0  0  0  0
   -4.0424    3.3362    1.5915 H   0  0  0  0  0  0  0  0  0  0  0  0
   -4.3970    1.9003    2.5606 H   0  0  0  0  0  0  0  0  0  0  0  0
   -6.1543   -1.7772   -1.4906 H   0  0  0  0  0  0  0  0  0  0  0  0
   -6.3672   -0.8821    0.0348 H   0  0  0  0  0  0  0  0  0  0  0  0
   -1.8992   -0.2714   -2.4690 H   0  0  0  0  0  0  0  0  0  0  0  0
   -0.6032   -1.4939   -1.0797 H   0  0  0  0  0  0  0  0  0  0  0  0
    0.2872    2.6775   -0.4063 H   0  0  0  0  0  0  0  0  0  0  0  0
    1.7584   -2.0489   -0.7720 H   0  0  0  0  0  0  0  0  0  0  0  0
    2.6027    2.1559   -0.1060 H   0  0  0  0  0  0  0  0  0  0  0  0
   -6.2688   -2.9069    1.2584 H   0  0  0  0  0  0  0  0  0  0  0  0
   -6.0670   -3.8128   -0.2647 H   0  0  0  0  0  0  0  0  0  0  0  0
    3.9427   -1.3131   -0.3284 H   0  0  0  0  0  0  0  0  0  0  0  0
   -5.1360   -5.0902    1.6642 H   0  0  0  0  0  0  0  0  0  0  0  0
   -4.0430   -3.7340    2.0312 H   0  0  0  0  0  0  0  0  0  0  0  0
   -3.8444   -4.6286    0.5297 H   0  0  0  0  0  0  0  0  0  0  0  0
    7.4694    1.5401    0.6063 H   0  0  0  0  0  0  0  0  0  0  0  0
    9.4110   -0.2527    0.7452 H   0  0  0  0  0  0  0  0  0  0  0  0
    8.4911   -2.6830    0.3221 H   0  0  0  0  0  0  0  0  0  0  0  0
  1 25  1  0  0  0  0
  1 28  1  0  0  0  0
  2 11  1  0  0  0  0
  2 15  1  0  0  0  0
  3 10  1  0  0  0  0
  3 39  1  0  0  0  0
  4 16  1  0  0  0  0
  4 22  1  0  0  0  0
  5 13  2  0  0  0  0
  6 24  2  0  0  0  0
  7  9  1  0  0  0  0
  7 12  1  0  0  0  0
  7 13  1  0  0  0  0
  8 21  1  0  0  0  0
  8 24  1  0  0  0  0
  8 46  1  0  0  0  0
  9 10  1  0  0  0  0
  9 11  1  0  0  0  0
  9 29  1  0  0  0  0
 10 14  1  0  0  0  0
 10 30  1  0  0  0  0
 11 31  1  0  0  0  0
 11 32  1  0  0  0  0
 12 16  1  0  0  0  0
 12 33  1  0  0  0  0
 12 34  1  0  0  0  0
 13 15  1  0  0  0  0
 14 17  2  0  0  0  0
 14 18  1  0  0  0  0
 15 35  1  0  0  0  0
 15 36  1  0  0  0  0
 16 37  1  0  0  0  0
 16 38  1  0  0  0  0
 17 19  1  0  0  0  0
 17 40  1  0  0  0  0
 18 20  2  0  0  0  0
 18 41  1  0  0  0  0
 19 21  2  0  0  0  0
 19 42  1  0  0  0  0
 20 21  1  0  0  0  0
 20 43  1  0  0  0  0
 22 23  1  0  0  0  0
 22 44  1  0  0  0  0
 22 45  1  0  0  0  0
 23 47  1  0  0  0  0
 23 48  1  0  0  0  0
 23 49  1  0  0  0  0
 24 25  1  0  0  0  0
 25 26  2  0  0  0  0
 26 27  1  0  0  0  0
 26 50  1  0  0  0  0
 27 28  2  0  0  0  0
 27 51  1  0  0  0  0
 28 52  1  0  0  0  0
M  END
> <PUBCHEM_COMPOUND_CID>
56774925

> <PUBCHEM_CONFORMER_RMSD>
1

> <PUBCHEM_CONFORMER_DIVERSEORDER>
1
34
12
37
62
63
43
58
50
61
48
44
20
56
52
64
65
29
57
45
49
27
42
36
55
23
59
60
16
32
19
22
6
25
26
47
54
14
53
28
38
31
41
33
40
2
21
66
35
51
4
10
7
46
15
18
9
13
8
39
11
30
3
5
24
17

> <PUBCHEM_MMFF94_PARTIAL_CHARGES>
36
1 -0.08
10 0.42
11 0.28
12 0.3
13 0.57
14 -0.14
15 0.34
16 0.28
17 -0.15
18 -0.15
19 -0.15
2 -0.56
20 -0.15
21 0.12
22 0.28
24 0.71
25 -0.05
26 -0.15
27 -0.15
28 -0.11
3 -0.68
39 0.4
4 -0.56
40 0.15
41 0.15
42 0.15
43 0.15
46 0.37
5 -0.57
50 0.15
51 0.15
52 0.15
6 -0.57
7 -0.66
8 -0.55
9 0.3

> <PUBCHEM_EFFECTIVE_ROTOR_COUNT>
10

> <PUBCHEM_PHARMACOPHORE_FEATURES>
10
1 2 acceptor
1 3 acceptor
1 3 donor
1 4 acceptor
1 5 acceptor
1 6 acceptor
1 8 donor
5 1 25 26 27 28 rings
6 14 17 18 19 20 21 rings
6 2 7 9 11 13 15 rings

> <PUBCHEM_HEAVY_ATOM_COUNT>
28

> <PUBCHEM_ATOM_DEF_STEREO_COUNT>
2

> <PUBCHEM_ATOM_UDEF_STEREO_COUNT>
0

> <PUBCHEM_BOND_DEF_STEREO_COUNT>
0

> <PUBCHEM_BOND_UDEF_STEREO_COUNT>
0

> <PUBCHEM_ISOTOPIC_ATOM_COUNT>
0

> <PUBCHEM_COMPONENT_COUNT>
1

> <PUBCHEM_CACTVS_TAUTO_COUNT>
4

> <PUBCHEM_CONFORMER_ID>
0362510D00000001

> <PUBCHEM_MMFF94_ENERGY>
72.3853

> <PUBCHEM_FEATURE_SELFOVERLAP>
50.749

> <PUBCHEM_SHAPE_FINGERPRINT>
10 15 17203322317456985336
11315181 36 18410292523265617645
11524674 6 17167869642760650458
11646440 116 15841551886389506730
12166972 35 18410854399683443360
12236239 1 18131628963870577660
12596602 18 18413668020042326608
12988421 55 14979962462560670853
13631057 29 18337668724253878699
13782708 43 17894907426204194150
14211702 104 18411990173651528006
14251764 18 18273209799472544420
14844126 61 18272934960199681051
14849402 71 18059288881545052760
15183329 4 8214142936949958176
17780758 139 18342737408216541237
18927931 339 16081375137440882909
19611394 137 18200877395266156091
21130935 74 18411698777911981514
21267235 1 18340767032684023470
21424621 283 12103574090881213846
21781051 124 18271538567705851110
23081809 10 18334866026054007996
23522609 53 18117306734082284812
23559900 14 18266732662220018777
23569943 247 17899406495016361786
3663271 9 18272650113514861730
4015057 19 16878514560656011965
4073 2 18341619187379375662
5104073 3 18202006503555623818
58260988 114 18114191878017691979
59755656 520 18341887476943462590
6441014 3 17757558830028711531
9953998 17 18343305860081032835

> <PUBCHEM_SHAPE_MULTIPOLES>
540.77
21.56
3.1
1.31
35.43
3.35
-0.03
9.65
-4.44
-6.46
-1.41
-1.71
-0.31
-0.06

> <PUBCHEM_SHAPE_SELFOVERLAP>
1125.777

> <PUBCHEM_SHAPE_VOLUME>
307.4

> <PUBCHEM_COORDINATE_TYPE>
2
5
10

$$$$
