56775859
  -OEChem-12032416213D

 48 51  0     1  0  0  0  0  0999 V2000
   -7.8973   -2.6275    0.9605 Cl  0  0  0  0  0  0  0  0  0  0  0  0
    0.8083    4.6478    0.0555 O   0  0  0  0  0  0  0  0  0  0  0  0
    6.9771   -2.4584    0.5014 O   0  0  0  0  0  0  0  0  0  0  0  0
    6.0515   -3.2743   -1.4076 O   0  0  0  0  0  0  0  0  0  0  0  0
    1.3007    1.8333    0.2451 N   0  0  1  0  0  0  0  0  0  0  0  0
   -2.1750    0.9729    0.2460 N   0  0  0  0  0  0  0  0  0  0  0  0
   -1.0520    0.9705   -1.6699 N   0  0  0  0  0  0  0  0  0  0  0  0
   -0.0814    2.3756    0.2079 C   0  0  1  0  0  0  0  0  0  0  0  0
    2.2289    2.8401    0.7903 C   0  0  0  0  0  0  0  0  0  0  0  0
   -0.1011    3.7230   -0.5402 C   0  0  0  0  0  0  0  0  0  0  0  0
    1.3928    0.6093    1.0493 C   0  0  0  0  0  0  0  0  0  0  0  0
    2.1395    4.1402    0.0028 C   0  0  0  0  0  0  0  0  0  0  0  0
   -1.0876    1.4360   -0.4411 C   0  0  0  0  0  0  0  0  0  0  0  0
    2.5895   -0.2219    0.6700 C   0  0  0  0  0  0  0  0  0  0  0  0
   -2.8777    0.1603   -0.5986 C   0  0  0  0  0  0  0  0  0  0  0  0
   -2.1652    0.1745   -1.7745 C   0  0  0  0  0  0  0  0  0  0  0  0
    2.5666   -0.9845   -0.4978 C   0  0  0  0  0  0  0  0  0  0  0  0
    3.7208   -0.2295    1.4860 C   0  0  0  0  0  0  0  0  0  0  0  0
   -4.0918   -0.5139   -0.2214 C   0  0  0  0  0  0  0  0  0  0  0  0
    3.6750   -1.7547   -0.8494 C   0  0  0  0  0  0  0  0  0  0  0  0
    4.8292   -0.9998    1.1343 C   0  0  0  0  0  0  0  0  0  0  0  0
    4.8064   -1.7623   -0.0335 C   0  0  0  0  0  0  0  0  0  0  0  0
   -5.0640   -0.7897   -1.1829 C   0  0  0  0  0  0  0  0  0  0  0  0
   -4.2964   -0.8922    1.1056 C   0  0  0  0  0  0  0  0  0  0  0  0
   -6.2408   -1.4433   -0.8176 C   0  0  0  0  0  0  0  0  0  0  0  0
   -5.4732   -1.5457    1.4710 C   0  0  0  0  0  0  0  0  0  0  0  0
    5.9626   -2.5645   -0.4003 C   0  0  0  0  0  0  0  0  0  0  0  0
   -6.4454   -1.8212    0.5094 C   0  0  0  0  0  0  0  0  0  0  0  0
   -0.3959    2.5690    1.2443 H   0  0  0  0  0  0  0  0  0  0  0  0
    3.2644    2.4884    0.7373 H   0  0  0  0  0  0  0  0  0  0  0  0
    1.9920    3.0451    1.8428 H   0  0  0  0  0  0  0  0  0  0  0  0
    0.1445    3.6070   -1.6042 H   0  0  0  0  0  0  0  0  0  0  0  0
   -1.1009    4.1694   -0.4891 H   0  0  0  0  0  0  0  0  0  0  0  0
    0.5221   -0.0412    0.8983 H   0  0  0  0  0  0  0  0  0  0  0  0
    1.3891    0.8278    2.1261 H   0  0  0  0  0  0  0  0  0  0  0  0
    2.4457    4.0064   -1.0419 H   0  0  0  0  0  0  0  0  0  0  0  0
    2.7998    4.8917    0.4475 H   0  0  0  0  0  0  0  0  0  0  0  0
   -2.4136    1.2036    1.2016 H   0  0  0  0  0  0  0  0  0  0  0  0
   -2.3868   -0.3471   -2.6950 H   0  0  0  0  0  0  0  0  0  0  0  0
    1.6908   -0.9867   -1.1416 H   0  0  0  0  0  0  0  0  0  0  0  0
    3.7513    0.3601    2.3985 H   0  0  0  0  0  0  0  0  0  0  0  0
    3.6374   -2.3418   -1.7633 H   0  0  0  0  0  0  0  0  0  0  0  0
    5.6888   -0.9764    1.7981 H   0  0  0  0  0  0  0  0  0  0  0  0
   -4.9317   -0.5006   -2.2227 H   0  0  0  0  0  0  0  0  0  0  0  0
   -3.5534   -0.7021    1.8761 H   0  0  0  0  0  0  0  0  0  0  0  0
   -6.9903   -1.6505   -1.5771 H   0  0  0  0  0  0  0  0  0  0  0  0
   -5.6183   -1.8368    2.5083 H   0  0  0  0  0  0  0  0  0  0  0  0
    7.7518   -3.0028    0.2448 H   0  0  0  0  0  0  0  0  0  0  0  0
  1 28  1  0  0  0  0
  2 10  1  0  0  0  0
  2 12  1  0  0  0  0
  3 27  1  0  0  0  0
  3 48  1  0  0  0  0
  4 27  2  0  0  0  0
  5  8  1  0  0  0  0
  5  9  1  0  0  0  0
  5 11  1  0  0  0  0
  6 13  1  0  0  0  0
  6 15  1  0  0  0  0
  6 38  1  0  0  0  0
  7 13  2  0  0  0  0
  7 16  1  0  0  0  0
  8 10  1  0  0  0  0
  8 13  1  0  0  0  0
  8 29  1  0  0  0  0
  9 12  1  0  0  0  0
  9 30  1  0  0  0  0
  9 31  1  0  0  0  0
 10 32  1  0  0  0  0
 10 33  1  0  0  0  0
 11 14  1  0  0  0  0
 11 34  1  0  0  0  0
 11 35  1  0  0  0  0
 12 36  1  0  0  0  0
 12 37  1  0  0  0  0
 14 17  2  0  0  0  0
 14 18  1  0  0  0  0
 15 16  2  0  0  0  0
 15 19  1  0  0  0  0
 16 39  1  0  0  0  0
 17 20  1  0  0  0  0
 17 40  1  0  0  0  0
 18 21  2  0  0  0  0
 18 41  1  0  0  0  0
 19 23  2  0  0  0  0
 19 24  1  0  0  0  0
 20 22  2  0  0  0  0
 20 42  1  0  0  0  0
 21 22  1  0  0  0  0
 21 43  1  0  0  0  0
 22 27  1  0  0  0  0
 23 25  1  0  0  0  0
 23 44  1  0  0  0  0
 24 26  2  0  0  0  0
 24 45  1  0  0  0  0
 25 28  2  0  0  0  0
 25 46  1  0  0  0  0
 26 28  1  0  0  0  0
 26 47  1  0  0  0  0
M  END
> <PUBCHEM_COMPOUND_CID>
56775859

> <PUBCHEM_CONFORMER_RMSD>
0.8

> <PUBCHEM_CONFORMER_DIVERSEORDER>
2
45
70
67
17
4
32
75
66
50
3
78
37
77
46
73
1
28
29
61
49
18
33
11
59
63
74
6
8
21
16
81
15
44
48
30
47
76
51
62
54
69
39
23
25
34
71
80
72
65
79
26
5
53
56
55
43
27
60
10
24
13
40
9
68
41
14
31
38
36
22
58
64
35
57
52
20
42
12
7
19

> <PUBCHEM_MMFF94_PARTIAL_CHARGES>
39
1 -0.18
10 0.28
11 0.41
12 0.28
13 0.01
14 -0.14
15 -0.2
16 0.08
17 -0.15
18 -0.15
19 0.05
2 -0.56
20 -0.15
21 -0.15
22 0.09
23 -0.15
24 -0.15
25 -0.15
26 -0.15
27 0.63
28 0.18
3 -0.65
38 0.27
39 0.15
4 -0.57
40 0.15
41 0.15
42 0.15
43 0.15
44 0.15
45 0.15
46 0.15
47 0.15
48 0.5
5 -0.81
6 0.03
7 -0.57
8 0.45
9 0.27

> <PUBCHEM_EFFECTIVE_ROTOR_COUNT>
6.2

> <PUBCHEM_PHARMACOPHORE_FEATURES>
11
1 2 acceptor
1 3 acceptor
1 4 acceptor
1 5 cation
1 6 donor
3 3 4 27 anion
3 6 7 13 cation
5 6 7 13 15 16 rings
6 14 17 18 20 21 22 rings
6 19 23 24 25 26 28 rings
6 2 5 8 9 10 12 rings

> <PUBCHEM_HEAVY_ATOM_COUNT>
28

> <PUBCHEM_ATOM_DEF_STEREO_COUNT>
1

> <PUBCHEM_ATOM_UDEF_STEREO_COUNT>
0

> <PUBCHEM_BOND_DEF_STEREO_COUNT>
0

> <PUBCHEM_BOND_UDEF_STEREO_COUNT>
0

> <PUBCHEM_ISOTOPIC_ATOM_COUNT>
0

> <PUBCHEM_COMPONENT_COUNT>
1

> <PUBCHEM_CACTVS_TAUTO_COUNT>
2

> <PUBCHEM_CONFORMER_ID>
036254B300000002

> <PUBCHEM_MMFF94_ENERGY>
66.214

> <PUBCHEM_FEATURE_SELFOVERLAP>
55.88

> <PUBCHEM_SHAPE_FINGERPRINT>
10319688 140 18337676433413960220
10319926 262 14476966730755278669
10411042 1 18410293584280782336
10951579 204 16300039422321772847
11059845 2 17415862214505585209
11135926 11 18051397758773309964
11227688 84 18195793086006651647
117089 54 18340215089429671518
11954058 11 18410295856386898071
12107183 9 18270410387018172401
12166972 35 17894917304460274438
12342043 65 18187644756442243045
12623949 98 18189619530665012791
13009979 54 18131637759494550313
13103583 49 15554149424955022326
131258 43 17532109326591953581
13533116 47 18265898145868791409
13540713 4 18263904631781569621
1361 4 17905046208035746403
1361 87 17749401398742742635
13673619 4 18040999544586672551
13690498 29 18187079534139931821
13782708 43 18113890603057130047
13785724 45 18411704283516768309
13955234 65 18196930200178540521
14123256 34 18408042905443349531
14251764 30 18411139108522387238
14347424 109 18271811267821256329
15324884 4 17911199933660052456
15510800 12 18261395580996918691
16120349 189 9871454427041780746
16990366 60 18260541238776206594
17492 89 18411701032616772481
1813 80 18273221880440328612
1979834 28 18197203957230889280
20165401 70 18269556216823719159
20505436 4 17412754173843077589
21033650 10 16081637890914081453
21049683 271 18336551607560522420
21130935 74 18121507006529835355
21344244 78 18059854021567467121
21365058 113 18335145297111089628
21682296 61 18411698799207424207
21716022 299 18261690241486415700
2260408 40 18059851805100357696
22899556 105 18338818736538995622
23559900 14 17676768790419743525
239999 70 17751067218640211825
255183 451 18410295834611628029
3421961 26 18339076094198795585
345986 75 17917721231355151465
393628 179 11314319385830512222
4330586 98 16950864577637506194
437815 12 18407759231543175027
44317340 157 9510921270950522849
46194498 28 17749381628691748508
5309563 4 18411134697437844055
56633871 153 18131063840352878023
6371380 46 18187079521814289481
6695519 79 17115246209102470969
6697151 62 18194936670250106205
6823239 73 17095798936367122913
7918774 8 18410296886831246406
7970288 3 18411698755656767350
86090 222 17677044758926913755
8863177 126 18042406996943706891
9962374 69 18270671103948605135

> <PUBCHEM_SHAPE_MULTIPOLES>
545.55
17.74
4.75
1.41
14.81
5.15
0.13
-25.59
-2.48
-6.23
0.27
0.5
-0.42
2.29

> <PUBCHEM_SHAPE_SELFOVERLAP>
1179.337

> <PUBCHEM_SHAPE_VOLUME>
299.5

> <PUBCHEM_COORDINATE_TYPE>
2
5
10

$$$$
