7113963
  -OEChem-12032416223D

 66 70  0     1  0  0  0  0  0999 V2000
   -2.7918   -1.3528    1.6526 S   0  0  0  0  0  0  0  0  0  0  0  0
   -5.5127    3.2860   -1.7950 F   0  0  0  0  0  0  0  0  0  0  0  0
   -3.7197    3.6017   -0.6163 F   0  0  0  0  0  0  0  0  0  0  0  0
   -3.6530    2.3163   -2.3691 F   0  0  0  0  0  0  0  0  0  0  0  0
   -0.2029   -3.0762    1.9365 O   0  0  0  0  0  0  0  0  0  0  0  0
    3.7894    4.7673    2.2732 O   0  0  0  0  0  0  0  0  0  0  0  0
   -3.3562   -2.0083    2.8173 O   0  0  0  0  0  0  0  0  0  0  0  0
   -1.6350   -0.4882    1.7896 O   0  0  0  0  0  0  0  0  0  0  0  0
    3.5094   -0.7112   -0.4750 N   0  0  2  0  0  0  0  0  0  0  0  0
    1.2008   -2.8420    0.0754 N   0  0  0  0  0  0  0  0  0  0  0  0
    4.0299    3.3862    0.4205 N   0  0  0  0  0  0  0  0  0  0  0  0
   -2.5081   -2.4955    0.4366 N   0  0  0  0  0  0  0  0  0  0  0  0
    3.7449   -3.1164    0.1920 C   0  0  1  0  0  0  0  0  0  0  0  0
    2.6814   -2.5563   -1.9423 C   0  0  2  0  0  0  0  0  0  0  0  0
    3.6160   -3.5526   -1.2615 C   0  0  0  0  0  0  0  0  0  0  0  0
    4.3196   -1.6859    0.2659 C   0  0  0  0  0  0  0  0  0  0  0  0
    3.2928   -1.1387   -1.8653 C   0  0  0  0  0  0  0  0  0  0  0  0
    4.1125    0.6183   -0.4242 C   0  0  0  0  0  0  0  0  0  0  0  0
    2.3727   -3.2357    0.8688 C   0  0  0  0  0  0  0  0  0  0  0  0
    1.3078   -2.5781   -1.2969 C   0  0  0  0  0  0  0  0  0  0  0  0
    4.3740    1.0227    1.0323 C   0  0  0  0  0  0  0  0  0  0  0  0
    3.1937    1.6396   -1.1074 C   0  0  0  0  0  0  0  0  0  0  0  0
    4.9162    2.4487    1.1133 C   0  0  0  0  0  0  0  0  0  0  0  0
    3.7598    3.0542   -0.9840 C   0  0  0  0  0  0  0  0  0  0  0  0
    0.2083   -2.3268   -2.0307 C   0  0  0  0  0  0  0  0  0  0  0  0
   -0.0435   -2.8386    0.7399 C   0  0  0  0  0  0  0  0  0  0  0  0
   -1.2163   -2.5329   -0.1176 C   0  0  0  0  0  0  0  0  0  0  0  0
   -1.0960   -2.3019   -1.4255 C   0  0  0  0  0  0  0  0  0  0  0  0
    3.5481    4.5101    1.0910 C   0  0  0  0  0  0  0  0  0  0  0  0
    2.6783    5.4502    0.2954 C   0  0  0  0  0  0  0  0  0  0  0  0
   -4.0809   -0.3961    0.9101 C   0  0  0  0  0  0  0  0  0  0  0  0
   -3.7458    0.6998    0.1346 C   0  0  0  0  0  0  0  0  0  0  0  0
   -5.3990   -0.7609    1.1198 C   0  0  0  0  0  0  0  0  0  0  0  0
   -4.7621    1.4554   -0.4502 C   0  0  0  0  0  0  0  0  0  0  0  0
   -6.4152   -0.0053    0.5348 C   0  0  0  0  0  0  0  0  0  0  0  0
   -6.0967    1.1027   -0.2501 C   0  0  0  0  0  0  0  0  0  0  0  0
   -4.4206    2.6409   -1.2882 C   0  0  0  0  0  0  0  0  0  0  0  0
    4.4449   -3.7820    0.7129 H   0  0  0  0  0  0  0  0  0  0  0  0
    2.5962   -2.8388   -3.0001 H   0  0  0  0  0  0  0  0  0  0  0  0
    4.5978   -3.5538   -1.7504 H   0  0  0  0  0  0  0  0  0  0  0  0
    3.2206   -4.5737   -1.3294 H   0  0  0  0  0  0  0  0  0  0  0  0
    4.3558   -1.4494    1.3337 H   0  0  0  0  0  0  0  0  0  0  0  0
    5.3517   -1.6970   -0.1098 H   0  0  0  0  0  0  0  0  0  0  0  0
    2.5925   -0.4784   -2.3858 H   0  0  0  0  0  0  0  0  0  0  0  0
    4.2367   -1.1234   -2.4270 H   0  0  0  0  0  0  0  0  0  0  0  0
    5.0767    0.6121   -0.9535 H   0  0  0  0  0  0  0  0  0  0  0  0
    2.2064   -4.2882    1.1368 H   0  0  0  0  0  0  0  0  0  0  0  0
    2.3564   -2.6795    1.8145 H   0  0  0  0  0  0  0  0  0  0  0  0
    3.4488    0.9536    1.6196 H   0  0  0  0  0  0  0  0  0  0  0  0
    5.1282    0.3909    1.5118 H   0  0  0  0  0  0  0  0  0  0  0  0
    3.0829    1.4488   -2.1790 H   0  0  0  0  0  0  0  0  0  0  0  0
    2.1929    1.6101   -0.6566 H   0  0  0  0  0  0  0  0  0  0  0  0
    5.9000    2.5141    0.6333 H   0  0  0  0  0  0  0  0  0  0  0  0
    5.0448    2.7361    2.1617 H   0  0  0  0  0  0  0  0  0  0  0  0
    3.0674    3.7608   -1.4448 H   0  0  0  0  0  0  0  0  0  0  0  0
    4.7112    3.1342   -1.5236 H   0  0  0  0  0  0  0  0  0  0  0  0
    0.2703   -2.1129   -3.0926 H   0  0  0  0  0  0  0  0  0  0  0  0
   -1.9440   -2.0805   -2.0648 H   0  0  0  0  0  0  0  0  0  0  0  0
   -3.2499   -2.5569   -0.2752 H   0  0  0  0  0  0  0  0  0  0  0  0
    2.3882    6.2976    0.9243 H   0  0  0  0  0  0  0  0  0  0  0  0
    1.7681    4.9388   -0.0286 H   0  0  0  0  0  0  0  0  0  0  0  0
    3.2285    5.8389   -0.5656 H   0  0  0  0  0  0  0  0  0  0  0  0
   -2.7092    0.9779   -0.0334 H   0  0  0  0  0  0  0  0  0  0  0  0
   -5.6667   -1.6240    1.7212 H   0  0  0  0  0  0  0  0  0  0  0  0
   -7.4545   -0.2809    0.6892 H   0  0  0  0  0  0  0  0  0  0  0  0
   -6.9021    1.6787   -0.6975 H   0  0  0  0  0  0  0  0  0  0  0  0
  1  7  2  0  0  0  0
  1  8  2  0  0  0  0
  1 12  1  0  0  0  0
  1 31  1  0  0  0  0
  2 37  1  0  0  0  0
  3 37  1  0  0  0  0
  4 37  1  0  0  0  0
  5 26  2  0  0  0  0
  6 29  2  0  0  0  0
  9 16  1  0  0  0  0
  9 17  1  0  0  0  0
  9 18  1  0  0  0  0
 10 19  1  0  0  0  0
 10 20  1  0  0  0  0
 10 26  1  0  0  0  0
 11 23  1  0  0  0  0
 11 24  1  0  0  0  0
 11 29  1  0  0  0  0
 12 27  1  0  0  0  0
 12 59  1  0  0  0  0
 13 15  1  0  0  0  0
 13 16  1  0  0  0  0
 13 19  1  0  0  0  0
 13 38  1  0  0  0  0
 14 15  1  0  0  0  0
 14 17  1  0  0  0  0
 14 20  1  0  0  0  0
 14 39  1  0  0  0  0
 15 40  1  0  0  0  0
 15 41  1  0  0  0  0
 16 42  1  0  0  0  0
 16 43  1  0  0  0  0
 17 44  1  0  0  0  0
 17 45  1  0  0  0  0
 18 21  1  0  0  0  0
 18 22  1  0  0  0  0
 18 46  1  0  0  0  0
 19 47  1  0  0  0  0
 19 48  1  0  0  0  0
 20 25  2  0  0  0  0
 21 23  1  0  0  0  0
 21 49  1  0  0  0  0
 21 50  1  0  0  0  0
 22 24  1  0  0  0  0
 22 51  1  0  0  0  0
 22 52  1  0  0  0  0
 23 53  1  0  0  0  0
 23 54  1  0  0  0  0
 24 55  1  0  0  0  0
 24 56  1  0  0  0  0
 25 28  1  0  0  0  0
 25 57  1  0  0  0  0
 26 27  1  0  0  0  0
 27 28  2  0  0  0  0
 28 58  1  0  0  0  0
 29 30  1  0  0  0  0
 30 60  1  0  0  0  0
 30 61  1  0  0  0  0
 30 62  1  0  0  0  0
 31 32  1  0  0  0  0
 31 33  2  0  0  0  0
 32 34  2  0  0  0  0
 32 63  1  0  0  0  0
 33 35  1  0  0  0  0
 33 64  1  0  0  0  0
 34 36  1  0  0  0  0
 34 37  1  0  0  0  0
 35 36  2  0  0  0  0
 35 65  1  0  0  0  0
 36 66  1  0  0  0  0
M  END
> <PUBCHEM_COMPOUND_CID>
7113963

> <PUBCHEM_CONFORMER_RMSD>
1

> <PUBCHEM_CONFORMER_DIVERSEORDER>
1
37
51
14
68
56
39
67
38
86
84
59
80
36
81
44
75
60
79
65
70
64
46
29
43
55
30
82
63
76
47
45
53
72
11
58
85
3
69
18
16
50
25
28
71
49
34
48
57
2
9
83
66
77
52
13
35
61
62
74
26
17
8
22
78
54
73
5
27
6
32
15
40
12
21
20
4
42
10
41
33
7
23
24
31
19

> <PUBCHEM_MMFF94_PARTIAL_CHARGES>
40
1 1.45
10 -0.47
11 -0.66
12 -0.75
14 0.14
16 0.27
17 0.27
18 0.27
19 0.3
2 -0.34
20 -0.03
23 0.3
24 0.3
25 -0.15
26 0.62
27 0.21
28 -0.15
29 0.57
3 -0.34
30 0.06
31 -0.01
32 -0.15
33 -0.15
34 -0.14
35 -0.15
36 -0.15
37 1.16
4 -0.34
5 -0.57
57 0.15
58 0.15
59 0.42
6 -0.57
63 0.15
64 0.15
65 0.15
66 0.15
7 -0.65
8 -0.65
9 -0.81

> <PUBCHEM_EFFECTIVE_ROTOR_COUNT>
8.2

> <PUBCHEM_PHARMACOPHORE_FEATURES>
11
1 12 donor
1 5 acceptor
1 6 acceptor
1 7 acceptor
1 8 acceptor
1 9 cation
6 10 13 14 15 19 20 rings
6 10 20 25 26 27 28 rings
6 11 18 21 22 23 24 rings
6 31 32 33 34 35 36 rings
6 9 13 14 15 16 17 rings

> <PUBCHEM_HEAVY_ATOM_COUNT>
37

> <PUBCHEM_ATOM_DEF_STEREO_COUNT>
2

> <PUBCHEM_ATOM_UDEF_STEREO_COUNT>
0

> <PUBCHEM_BOND_DEF_STEREO_COUNT>
0

> <PUBCHEM_BOND_UDEF_STEREO_COUNT>
0

> <PUBCHEM_ISOTOPIC_ATOM_COUNT>
0

> <PUBCHEM_COMPONENT_COUNT>
1

> <PUBCHEM_CACTVS_TAUTO_COUNT>
1

> <PUBCHEM_CONFORMER_ID>
006C8CEB00000001

> <PUBCHEM_MMFF94_ENERGY>
76.936

> <PUBCHEM_FEATURE_SELFOVERLAP>
57.395

> <PUBCHEM_SHAPE_FINGERPRINT>
10439779 11 17757544158007639377
10556698 54 17974550426456337293
10838868 217 18270381907090383352
10842077 115 18188475947882525341
11331351 85 16672729608125490099
11479125 193 18199453510781939937
13583140 156 18262818279865088387
13617811 41 17187551184091764707
14068700 686 18052545661871423623
14251764 38 18337963281315396321
14739800 52 18040990705591963899
15320291 9 18340205168108290025
15629462 23 17188984419116209390
16988056 13 18271258144784546222
19246450 95 18196063730193927248
19304152 47 17829898981400059424
20764821 26 17906192654211032024
21133410 127 18115590486325057124
21315764 268 18335987476253464407
21388113 180 18338797917640943208
21475661 188 18408046221131754270
21792938 324 18196346197434326570
21792965 301 17403989567220725429
22889206 1 18260541209217876554
325973 47 18339925896375572368
3298306 158 18340491169858185160
376196 1 18196940083494289898
437795 96 18336825406882003281
508180 173 18045800995775089450
550186 83 16009036025307929612
57676310 151 17115769035266626013
6086070 43 18120655738524777711
6176135 31 18265614471152251497
9982175 69 18116973646277609621

> <PUBCHEM_SHAPE_MULTIPOLES>
700.07
13.9
7.15
2.12
14.94
7.54
-0.06
10.98
-0.54
-8.55
-0.4
0.68
-0.19
4.99

> <PUBCHEM_SHAPE_SELFOVERLAP>
1502.09

> <PUBCHEM_SHAPE_VOLUME>
389.3

> <PUBCHEM_COORDINATE_TYPE>
2
5
10

$$$$
