75536825
  -OEChem-12032416313D

 45 47  0     1  0  0  0  0  0999 V2000
    8.3320   -1.7091   -0.6399 F   0  0  0  0  0  0  0  0  0  0  0  0
    0.0907   -0.8360    0.1234 O   0  0  0  0  0  0  0  0  0  0  0  0
   -1.2329    2.5037    0.1145 O   0  0  0  0  0  0  0  0  0  0  0  0
    3.3915    2.1736   -0.1086 O   0  0  0  0  0  0  0  0  0  0  0  0
   -3.3904    0.2188    0.1021 N   0  0  0  0  0  0  0  0  0  0  0  0
    2.5544    0.3360    1.0339 N   0  0  0  0  0  0  0  0  0  0  0  0
   -8.3672   -0.4911    0.2544 N   0  0  0  0  0  0  0  0  0  0  0  0
   -1.9935    0.2213   -0.3007 C   0  0  1  0  0  0  0  0  0  0  0  0
   -1.1240    1.1538    0.5223 C   0  0  1  0  0  0  0  0  0  0  0  0
    0.2611    0.5862    0.2429 C   0  0  1  0  0  0  0  0  0  0  0  0
   -1.3076   -1.1146   -0.0662 C   0  0  0  0  0  0  0  0  0  0  0  0
    1.2675    0.8925    1.3376 C   0  0  0  0  0  0  0  0  0  0  0  0
   -4.2276   -0.4148   -0.9096 C   0  0  0  0  0  0  0  0  0  0  0  0
   -5.6766   -0.4415   -0.5018 C   0  0  0  0  0  0  0  0  0  0  0  0
    3.5280    1.0324    0.3242 C   0  0  0  0  0  0  0  0  0  0  0  0
   -6.1190   -1.3595    0.4442 C   0  0  0  0  0  0  0  0  0  0  0  0
   -6.5780    0.4518   -1.0701 C   0  0  0  0  0  0  0  0  0  0  0  0
    4.7988    0.3065    0.0688 C   0  0  0  0  0  0  0  0  0  0  0  0
   -7.4619   -1.3436    0.7848 C   0  0  0  0  0  0  0  0  0  0  0  0
   -7.9004    0.3868   -0.6616 C   0  0  0  0  0  0  0  0  0  0  0  0
    5.5768    0.6325   -1.0422 C   0  0  0  0  0  0  0  0  0  0  0  0
    5.2145   -0.7003    0.9401 C   0  0  0  0  0  0  0  0  0  0  0  0
    6.7701   -0.0485   -1.2821 C   0  0  0  0  0  0  0  0  0  0  0  0
    6.4079   -1.3813    0.7003 C   0  0  0  0  0  0  0  0  0  0  0  0
    7.1857   -1.0555   -0.4107 C   0  0  0  0  0  0  0  0  0  0  0  0
   -1.9031    0.5161   -1.3559 H   0  0  0  0  0  0  0  0  0  0  0  0
   -1.3716    1.0856    1.5890 H   0  0  0  0  0  0  0  0  0  0  0  0
    0.6433    0.9513   -0.7196 H   0  0  0  0  0  0  0  0  0  0  0  0
   -1.6637   -1.6119    0.8434 H   0  0  0  0  0  0  0  0  0  0  0  0
   -1.4284   -1.8050   -0.9064 H   0  0  0  0  0  0  0  0  0  0  0  0
    0.9543    0.4414    2.2856 H   0  0  0  0  0  0  0  0  0  0  0  0
    1.3638    1.9739    1.4825 H   0  0  0  0  0  0  0  0  0  0  0  0
   -3.7013    1.1820    0.2316 H   0  0  0  0  0  0  0  0  0  0  0  0
   -3.9081   -1.4494   -1.0887 H   0  0  0  0  0  0  0  0  0  0  0  0
   -4.1302    0.1088   -1.8697 H   0  0  0  0  0  0  0  0  0  0  0  0
   -1.0133    2.5561   -0.8311 H   0  0  0  0  0  0  0  0  0  0  0  0
    2.7061   -0.6304    1.3018 H   0  0  0  0  0  0  0  0  0  0  0  0
   -5.4429   -2.0706    0.9068 H   0  0  0  0  0  0  0  0  0  0  0  0
   -6.2685    1.1828   -1.8092 H   0  0  0  0  0  0  0  0  0  0  0  0
   -7.8573   -2.0395    1.5175 H   0  0  0  0  0  0  0  0  0  0  0  0
   -8.6429    1.0619   -1.0742 H   0  0  0  0  0  0  0  0  0  0  0  0
    5.2680    1.4108   -1.7351 H   0  0  0  0  0  0  0  0  0  0  0  0
    4.6550   -0.9638    1.8326 H   0  0  0  0  0  0  0  0  0  0  0  0
    7.3758    0.2041   -2.1473 H   0  0  0  0  0  0  0  0  0  0  0  0
    6.7357   -2.1607    1.3819 H   0  0  0  0  0  0  0  0  0  0  0  0
  1 25  1  0  0  0  0
  2 10  1  0  0  0  0
  2 11  1  0  0  0  0
  3  9  1  0  0  0  0
  3 36  1  0  0  0  0
  4 15  2  0  0  0  0
  5  8  1  0  0  0  0
  5 13  1  0  0  0  0
  5 33  1  0  0  0  0
  6 12  1  0  0  0  0
  6 15  1  0  0  0  0
  6 37  1  0  0  0  0
  7 19  2  0  0  0  0
  7 20  1  0  0  0  0
  8  9  1  0  0  0  0
  8 11  1  0  0  0  0
  8 26  1  0  0  0  0
  9 10  1  0  0  0  0
  9 27  1  0  0  0  0
 10 12  1  0  0  0  0
 10 28  1  0  0  0  0
 11 29  1  0  0  0  0
 11 30  1  0  0  0  0
 12 31  1  0  0  0  0
 12 32  1  0  0  0  0
 13 14  1  0  0  0  0
 13 34  1  0  0  0  0
 13 35  1  0  0  0  0
 14 16  2  0  0  0  0
 14 17  1  0  0  0  0
 15 18  1  0  0  0  0
 16 19  1  0  0  0  0
 16 38  1  0  0  0  0
 17 20  2  0  0  0  0
 17 39  1  0  0  0  0
 18 21  2  0  0  0  0
 18 22  1  0  0  0  0
 19 40  1  0  0  0  0
 20 41  1  0  0  0  0
 21 23  1  0  0  0  0
 21 42  1  0  0  0  0
 22 24  2  0  0  0  0
 22 43  1  0  0  0  0
 23 25  2  0  0  0  0
 23 44  1  0  0  0  0
 24 25  1  0  0  0  0
 24 45  1  0  0  0  0
M  END
> <PUBCHEM_COMPOUND_CID>
75536825

> <PUBCHEM_CONFORMER_RMSD>
0.8

> <PUBCHEM_CONFORMER_DIVERSEORDER>
1
195
187
273
136
9
140
46
33
232
249
57
239
199
260
40
158
10
21
79
30
264
28
101
277
138
192
226
88
110
109
248
247
48
45
161
233
74
229
275
96
202
32
227
29
147
171
235
16
257
170
251
127
13
42
81
103
166
185
254
62
94
261
72
266
262
145
215
113
160
99
34
107
6
197
90
58
271
200
183
153
114
119
87
38
228
122
184
131
66
26
194
118
182
111
210
193
255
267
163
173
217
36
3
244
265
180
258
236
146
106
196
201
44
207
245
137
189
97
142
190
263
102
246
70
204
71
7
133
149
177
172
164
112
116
117
256
230
211
93
105
39
175
276
25
121
91
213
80
134
181
51
252
214
83
47
274
132
162
63
18
59
250
12
208
61
76
225
98
209
37
154
123
223
41
67
95
178
69
24
155
253
243
148
205
43
174
89
220
238
100
56
139
49
241
206
84
20
85
54
212
128
35
272
237
152
82
144
68
22
130
156
268
129
203
126
150
27
169
234
64
240
165
188
5
143
259
86
14
31
198
222
176
55
120
92
269
52
108
11
242
60
4
224
270
151
53
19
135
168
218
159
65
219
2
221
124
125
78
141
77
15
191
23
216
179
104
115
50
17
75
231
157
73
186
8
167

> <PUBCHEM_MMFF94_PARTIAL_CHARGES>
36
1 -0.19
10 0.28
11 0.28
12 0.3
13 0.41
14 -0.14
15 0.54
16 -0.15
17 -0.15
18 0.09
19 0.16
2 -0.56
20 0.16
21 -0.15
22 -0.15
23 -0.15
24 -0.15
25 0.19
3 -0.68
33 0.36
36 0.4
37 0.37
38 0.15
39 0.15
4 -0.57
40 0.15
41 0.15
42 0.15
43 0.15
44 0.15
45 0.15
5 -0.9
6 -0.73
7 -0.62
8 0.27
9 0.28

> <PUBCHEM_EFFECTIVE_ROTOR_COUNT>
8

> <PUBCHEM_PHARMACOPHORE_FEATURES>
11
1 2 acceptor
1 3 acceptor
1 3 donor
1 4 acceptor
1 5 cation
1 5 donor
1 6 donor
1 7 acceptor
5 2 8 9 10 11 rings
6 18 21 22 23 24 25 rings
6 7 14 16 17 19 20 rings

> <PUBCHEM_HEAVY_ATOM_COUNT>
25

> <PUBCHEM_ATOM_DEF_STEREO_COUNT>
3

> <PUBCHEM_ATOM_UDEF_STEREO_COUNT>
0

> <PUBCHEM_BOND_DEF_STEREO_COUNT>
0

> <PUBCHEM_BOND_UDEF_STEREO_COUNT>
0

> <PUBCHEM_ISOTOPIC_ATOM_COUNT>
0

> <PUBCHEM_COMPONENT_COUNT>
1

> <PUBCHEM_CACTVS_TAUTO_COUNT>
2

> <PUBCHEM_CONFORMER_ID>
048099B900000001

> <PUBCHEM_MMFF94_ENERGY>
57.7347

> <PUBCHEM_FEATURE_SELFOVERLAP>
55.822

> <PUBCHEM_SHAPE_FINGERPRINT>
10 15 10519984867915825292
10162869 55 9583226224581078401
10299344 5 18113336405914423819
106641 1 9151166571989376341
11135609 127 16733558234285949508
11315181 36 11674875586202736239
11524674 6 17346878979380307767
11638347 137 12823303390385686396
12166972 35 18040999565555808869
125118 31 10880001267255326131
12592606 108 18131064970108390855
13533116 47 16009012961296678672
13673619 4 18060698385824750576
13685833 64 17918273156253396464
13885169 127 17346320358605967441
14216079 64 17846218834864698614
14251752 14 18412259532662094373
14251764 18 11815893461905813465
14251764 46 17060338522377064006
14294032 229 18193278481935437209
14347424 109 16056873663461669650
14428016 86 12107786294668842952
14856354 85 17749391495080614863
14933364 13 17894345592805028957
15131766 46 13468682725455929618
15183329 4 18412825776380509137
15188451 53 17060621079996581338
15849732 13 17530684324899048303
16090146 7 16588320349119946481
17093844 174 12895356599789466903
1754911 235 15647050469663940367
20157964 124 8070036575185201488
21033648 29 13479426028238753188
21150785 3 16660363679566046614
21267235 1 18411419509609217193
21344244 246 18116151078889915762
21365058 27 15719109159155581683
21781051 124 18335988652600003394
21792961 116 18410569553631587589
220451 1 16588013624694848481
221357 26 17603301545160775444
22224240 67 12535346796323131237
23035841 295 18343863338341233035
23081809 10 14346339187714847553
23559900 14 18268704077598872136
246663 6 18343303664772729339
24771293 8 11386362621749953903
249057 25 14836131008973182019
28498 318 18131068221007873311
3004659 81 18409445895539443840
328311 84 18410857681117026659
34797466 226 16225765216155642894
4107672 100 17894905201590639405
444769 64 17917710223686066711
5470011 282 18113622292107345494
5758199 1 13406790009153246729
59682541 35 10519979370363091574
59755656 215 18342737399215507495
6438161 24 18335132078140638826

> <PUBCHEM_SHAPE_MULTIPOLES>
474.66
27.07
1.62
1.08
10.17
0.37
0.03
-11.02
5.4
-0.91
-0.17
-0.55
0.02
0.63

> <PUBCHEM_SHAPE_SELFOVERLAP>
1008.911

> <PUBCHEM_SHAPE_VOLUME>
264.9

> <PUBCHEM_COORDINATE_TYPE>
2
5
10

$$$$
