45784284
  -OEChem-12032416243D

 41 44  0     1  0  0  0  0  0999 V2000
   -5.9089    0.1000    0.5164 O   0  0  0  0  0  0  0  0  0  0  0  0
    3.4970   -0.3942   -0.1797 N   0  0  1  0  0  0  0  0  0  0  0  0
   -1.2116   -1.2289    0.1337 N   0  0  0  0  0  0  0  0  0  0  0  0
   -0.5521    0.7597   -0.6081 N   0  0  0  0  0  0  0  0  0  0  0  0
    4.4776    0.5973    0.2775 C   0  0  0  0  0  0  0  0  0  0  0  0
    4.9193    0.2619    1.7173 C   0  0  0  0  0  0  0  0  0  0  0  0
    5.8909    0.1731   -0.1733 C   0  0  0  0  0  0  0  0  0  0  0  0
    2.2261   -0.2359    0.5327 C   0  0  0  0  0  0  0  0  0  0  0  0
    1.2397   -1.0046   -0.3569 C   0  0  2  0  0  0  0  0  0  0  0  0
    6.3671    0.5233    1.2519 C   0  0  0  0  0  0  0  0  0  0  0  0
    3.1652   -0.1835   -1.5899 C   0  0  0  0  0  0  0  0  0  0  0  0
    1.8771   -0.9790   -1.7572 C   0  0  0  0  0  0  0  0  0  0  0  0
   -0.1666   -0.4555   -0.2894 C   0  0  0  0  0  0  0  0  0  0  0  0
   -2.3469   -0.4614    0.0850 C   0  0  0  0  0  0  0  0  0  0  0  0
   -1.9090    0.7751   -0.3811 C   0  0  0  0  0  0  0  0  0  0  0  0
   -3.6788   -0.7343    0.3991 C   0  0  0  0  0  0  0  0  0  0  0  0
   -2.8415    1.8126   -0.5500 C   0  0  0  0  0  0  0  0  0  0  0  0
   -4.5931    0.3098    0.2250 C   0  0  0  0  0  0  0  0  0  0  0  0
   -4.1841    1.5614   -0.2410 C   0  0  0  0  0  0  0  0  0  0  0  0
   -6.2676   -1.1967    0.9881 C   0  0  0  0  0  0  0  0  0  0  0  0
    4.2363    1.6542    0.1105 H   0  0  0  0  0  0  0  0  0  0  0  0
    4.7620   -0.7738    2.0442 H   0  0  0  0  0  0  0  0  0  0  0  0
    4.5505    0.9359    2.4956 H   0  0  0  0  0  0  0  0  0  0  0  0
    6.0196   -0.8890   -0.4174 H   0  0  0  0  0  0  0  0  0  0  0  0
    6.3323    0.7731   -0.9739 H   0  0  0  0  0  0  0  0  0  0  0  0
    1.2204   -2.0530   -0.0254 H   0  0  0  0  0  0  0  0  0  0  0  0
    1.9414    0.8212    0.6224 H   0  0  0  0  0  0  0  0  0  0  0  0
    2.2599   -0.6654    1.5399 H   0  0  0  0  0  0  0  0  0  0  0  0
    6.6866    1.5654    1.3671 H   0  0  0  0  0  0  0  0  0  0  0  0
    7.1303   -0.1344    1.6749 H   0  0  0  0  0  0  0  0  0  0  0  0
    3.9496   -0.5468   -2.2614 H   0  0  0  0  0  0  0  0  0  0  0  0
    2.9776    0.8749   -1.8133 H   0  0  0  0  0  0  0  0  0  0  0  0
    2.1061   -2.0050   -2.0717 H   0  0  0  0  0  0  0  0  0  0  0  0
    1.2308   -0.5342   -2.5213 H   0  0  0  0  0  0  0  0  0  0  0  0
   -1.1606   -2.1945    0.4303 H   0  0  0  0  0  0  0  0  0  0  0  0
   -3.9303   -1.7246    0.7554 H   0  0  0  0  0  0  0  0  0  0  0  0
   -2.5335    2.7885   -0.9115 H   0  0  0  0  0  0  0  0  0  0  0  0
   -4.9137    2.3577   -0.3682 H   0  0  0  0  0  0  0  0  0  0  0  0
   -6.0793   -1.9674    0.2328 H   0  0  0  0  0  0  0  0  0  0  0  0
   -5.7865   -1.4255    1.9452 H   0  0  0  0  0  0  0  0  0  0  0  0
   -7.3475   -1.1868    1.1696 H   0  0  0  0  0  0  0  0  0  0  0  0
  1 18  1  0  0  0  0
  1 20  1  0  0  0  0
  2  5  1  0  0  0  0
  2  8  1  0  0  0  0
  2 11  1  0  0  0  0
  3 13  1  0  0  0  0
  3 14  1  0  0  0  0
  3 35  1  0  0  0  0
  4 13  2  0  0  0  0
  4 15  1  0  0  0  0
  5  6  1  0  0  0  0
  5  7  1  0  0  0  0
  5 21  1  0  0  0  0
  6 10  1  0  0  0  0
  6 22  1  0  0  0  0
  6 23  1  0  0  0  0
  7 10  1  0  0  0  0
  7 24  1  0  0  0  0
  7 25  1  0  0  0  0
  8  9  1  0  0  0  0
  8 27  1  0  0  0  0
  8 28  1  0  0  0  0
  9 12  1  0  0  0  0
  9 13  1  0  0  0  0
  9 26  1  0  0  0  0
 10 29  1  0  0  0  0
 10 30  1  0  0  0  0
 11 12  1  0  0  0  0
 11 31  1  0  0  0  0
 11 32  1  0  0  0  0
 12 33  1  0  0  0  0
 12 34  1  0  0  0  0
 14 15  2  0  0  0  0
 14 16  1  0  0  0  0
 15 17  1  0  0  0  0
 16 18  2  0  0  0  0
 16 36  1  0  0  0  0
 17 19  2  0  0  0  0
 17 37  1  0  0  0  0
 18 19  1  0  0  0  0
 19 38  1  0  0  0  0
 20 39  1  0  0  0  0
 20 40  1  0  0  0  0
 20 41  1  0  0  0  0
M  END
> <PUBCHEM_COMPOUND_CID>
45784284

> <PUBCHEM_CONFORMER_RMSD>
0.6

> <PUBCHEM_CONFORMER_DIVERSEORDER>
1
23
20
14
19
24
31
17
22
30
16
27
28
32
21
2
18
10
26
9
15
13
12
29
4
7
5
8
3
11
25
6

> <PUBCHEM_MMFF94_PARTIAL_CHARGES>
20
1 -0.36
11 0.27
13 0.01
14 -0.15
15 0.23
16 -0.15
17 -0.15
18 0.08
19 -0.15
2 -0.75
20 0.28
3 0.03
35 0.27
36 0.15
37 0.15
38 0.15
4 -0.57
5 0.21
8 0.27
9 0.18

> <PUBCHEM_EFFECTIVE_ROTOR_COUNT>
4.8

> <PUBCHEM_PHARMACOPHORE_FEATURES>
8
1 1 acceptor
1 2 cation
1 3 donor
3 3 4 13 cation
4 5 6 7 10 rings
5 2 8 9 11 12 rings
5 3 4 13 14 15 rings
6 14 15 16 17 18 19 rings

> <PUBCHEM_HEAVY_ATOM_COUNT>
20

> <PUBCHEM_ATOM_DEF_STEREO_COUNT>
1

> <PUBCHEM_ATOM_UDEF_STEREO_COUNT>
0

> <PUBCHEM_BOND_DEF_STEREO_COUNT>
0

> <PUBCHEM_BOND_UDEF_STEREO_COUNT>
0

> <PUBCHEM_ISOTOPIC_ATOM_COUNT>
0

> <PUBCHEM_COMPONENT_COUNT>
1

> <PUBCHEM_CACTVS_TAUTO_COUNT>
2

> <PUBCHEM_CONFORMER_ID>
02BA9CDC00000001

> <PUBCHEM_MMFF94_ENERGY>
54.291

> <PUBCHEM_FEATURE_SELFOVERLAP>
40.704

> <PUBCHEM_SHAPE_FINGERPRINT>
10 15 18411977005671604176
106641 1 18261674873586137840
10912923 1 16950859049829200373
11315181 36 17022906765584823929
11646440 116 17917714617026147600
11796584 16 8862939485630022004
12107183 9 16884393370214761344
12166972 35 16443067222328008780
12236239 1 16877942737035814748
12403259 118 17821731598428160773
12403259 415 18200880569346935190
12403260 363 16515689939878699957
12507560 40 18336542708060821574
12555020 224 13262399973034849425
12596602 18 17385720292598637528
12616971 3 16370737997921666141
12670543 26 9223239537419636545
12730499 353 17632584842321705302
12916748 109 18411422791307018632
13073987 5 18340772533571785171
13288520 33 8574711316895717433
13533116 47 16008749121840559500
13668630 136 14201116812440265905
13685833 64 13118002188805680200
13760787 5 15698000686863160949
13911852 28 14707749716368797072
13914758 101 15285347402434253871
13955234 65 17346039961835230142
13964095 4 10735882776317327947
14211702 104 16805334292321254611
14251752 14 11743849044780089760
14251764 18 17167861976824138488
14341114 176 18409729552332998224
14366163 111 13973959913823982986
14528608 73 14907891691737040936
15048467 5 16343988000814351715
15183329 4 10880001271913659954
15188451 53 17240759609813100323
15788980 27 15285357314511975495
17349148 13 16660650647842813143
17834072 8 8790886272431751641
17857418 61 16008749117060140003
17980427 23 18339355400538477188
1813 80 15213582231303254846
18222031 100 14779266385140607222
18785283 64 18127973211861938993
19377110 9 17895203168830270969
19489759 90 17675924287874374537
19784866 240 15213019340656111474
200 152 14995998848173048455
20028762 73 16442781336826171442
20645477 56 18131064935268247095
20645477 70 16916797223583948774
20681677 155 12823289100401628100
20871999 31 10807939284124415462
21033648 29 17917134031620491168
21065198 48 17385719150015653584
21150785 3 15195276526636810949
21315764 119 11095895886154926488
22079108 93 17846777433594307606
22224240 67 17989208162073785935
23402539 116 18334006220286689815
23402655 69 15267057051943661828
23557571 272 18339371776985032236
23559900 14 18192727647609212470
23622692 88 16081372960003448066
26918003 58 14851609877385965769
2916195 48 18202278095759936096
29717793 49 8358258159596705282
300161 21 13686294656204173918
345986 75 15864609706076330748
3545911 37 18131635582288398406
3633792 109 15502642798926419371
4325135 7 17418086655271787351
4340502 62 18273498970382296790
465052 167 14634870834442203938
474 4 16630238204001083882
5104073 3 18265902354546358243
542803 24 14836404722395147173
543368 44 15051723214128571873
59682541 35 18341051925579028355
59682541 52 13973421179477042348
59755656 520 16702018690500937070
621550 34 17845942831233023287
67856867 119 17241055416979776420

> <PUBCHEM_SHAPE_MULTIPOLES>
390.78
15.54
1.3
1.28
2.26
0.1
-0.02
3.07
5.81
-0.49
-0.25
0.57
-0.04
1.89

> <PUBCHEM_SHAPE_SELFOVERLAP>
848.931

> <PUBCHEM_SHAPE_VOLUME>
216.1

> <PUBCHEM_COORDINATE_TYPE>
2
5
10

$$$$
