28961797
  -OEChem-12032416293D

 54 56  0     1  0  0  0  0  0999 V2000
   -6.3186    2.3330    1.3714 Cl  0  0  0  0  0  0  0  0  0  0  0  0
   -7.3689   -0.0690   -0.0122 F   0  0  0  0  0  0  0  0  0  0  0  0
    0.6415   -1.9356    0.8663 O   0  0  0  0  0  0  0  0  0  0  0  0
    2.7784   -2.6199   -1.1168 O   0  0  0  0  0  0  0  0  0  0  0  0
    3.7439    3.4362    1.0714 O   0  0  0  0  0  0  0  0  0  0  0  0
    0.4756   -4.5997    1.7495 O   0  0  0  0  0  0  0  0  0  0  0  0
   -1.3596    1.7807   -0.5476 O   0  0  0  0  0  0  0  0  0  0  0  0
    3.2046    0.1832   -0.6895 N   0  0  1  0  0  0  0  0  0  0  0  0
   -1.0863   -0.5028   -0.8563 N   0  0  0  0  0  0  0  0  0  0  0  0
    2.5727   -0.6601    0.3099 C   0  0  1  0  0  0  0  0  0  0  0  0
    3.2061    1.6209   -0.3973 C   0  0  2  0  0  0  0  0  0  0  0  0
    1.0387   -0.6538    0.3309 C   0  0  1  0  0  0  0  0  0  0  0  0
    2.9080   -2.1407    0.2153 C   0  0  1  0  0  0  0  0  0  0  0  0
    4.5868   -0.2004   -0.9704 C   0  0  0  0  0  0  0  0  0  0  0  0
    1.8182   -2.7328    1.1011 C   0  0  2  0  0  0  0  0  0  0  0  0
    4.1580    2.1337   -1.4759 C   0  0  0  0  0  0  0  0  0  0  0  0
    5.1880    1.0230   -1.6524 C   0  0  0  0  0  0  0  0  0  0  0  0
    0.3373   -0.4882   -1.0127 C   0  0  0  0  0  0  0  0  0  0  0  0
    3.6781    2.0227    1.0038 C   0  0  0  0  0  0  0  0  0  0  0  0
    1.4922   -4.1934    0.8477 C   0  0  0  0  0  0  0  0  0  0  0  0
   -1.8339    0.6509   -0.6327 C   0  0  0  0  0  0  0  0  0  0  0  0
    4.1774    3.8824    2.3511 C   0  0  0  0  0  0  0  0  0  0  0  0
   -3.2982    0.4640   -0.4658 C   0  0  0  0  0  0  0  0  0  0  0  0
   -4.0368    1.3775    0.2863 C   0  0  0  0  0  0  0  0  0  0  0  0
   -3.9343   -0.6252   -1.0612 C   0  0  0  0  0  0  0  0  0  0  0  0
   -5.4118    1.2018    0.4429 C   0  0  0  0  0  0  0  0  0  0  0  0
   -5.3092   -0.8010   -0.9043 C   0  0  0  0  0  0  0  0  0  0  0  0
   -6.0480    0.1126   -0.1525 C   0  0  0  0  0  0  0  0  0  0  0  0
    2.9135   -0.3804    1.3157 H   0  0  0  0  0  0  0  0  0  0  0  0
    2.2149    2.0574   -0.5698 H   0  0  0  0  0  0  0  0  0  0  0  0
    0.6824    0.1199    1.0223 H   0  0  0  0  0  0  0  0  0  0  0  0
    3.9103   -2.3895    0.5798 H   0  0  0  0  0  0  0  0  0  0  0  0
    4.6621   -1.0666   -1.6341 H   0  0  0  0  0  0  0  0  0  0  0  0
    5.1536   -0.4133   -0.0552 H   0  0  0  0  0  0  0  0  0  0  0  0
    2.0694   -2.5877    2.1598 H   0  0  0  0  0  0  0  0  0  0  0  0
    4.6326    3.0924   -1.2465 H   0  0  0  0  0  0  0  0  0  0  0  0
    3.6106    2.2621   -2.4193 H   0  0  0  0  0  0  0  0  0  0  0  0
    5.3789    0.8435   -2.7159 H   0  0  0  0  0  0  0  0  0  0  0  0
    6.1379    1.2964   -1.1798 H   0  0  0  0  0  0  0  0  0  0  0  0
    0.5758   -1.3165   -1.6871 H   0  0  0  0  0  0  0  0  0  0  0  0
    0.6261    0.4475   -1.5006 H   0  0  0  0  0  0  0  0  0  0  0  0
    4.6644    1.6017    1.2320 H   0  0  0  0  0  0  0  0  0  0  0  0
    2.9651    1.6796    1.7614 H   0  0  0  0  0  0  0  0  0  0  0  0
    2.3730   -4.8247    0.9989 H   0  0  0  0  0  0  0  0  0  0  0  0
    1.1017   -4.3454   -0.1635 H   0  0  0  0  0  0  0  0  0  0  0  0
    3.1065   -3.5350   -1.1335 H   0  0  0  0  0  0  0  0  0  0  0  0
   -1.5328   -1.4135   -0.8455 H   0  0  0  0  0  0  0  0  0  0  0  0
    0.2896   -5.5367    1.5683 H   0  0  0  0  0  0  0  0  0  0  0  0
    4.2075    4.9753    2.3416 H   0  0  0  0  0  0  0  0  0  0  0  0
    5.1823    3.5071    2.5675 H   0  0  0  0  0  0  0  0  0  0  0  0
    3.4776    3.5588    3.1276 H   0  0  0  0  0  0  0  0  0  0  0  0
   -3.5448    2.2260    0.7565 H   0  0  0  0  0  0  0  0  0  0  0  0
   -3.4022   -1.3420   -1.6794 H   0  0  0  0  0  0  0  0  0  0  0  0
   -5.8064   -1.6450   -1.3733 H   0  0  0  0  0  0  0  0  0  0  0  0
  1 26  1  0  0  0  0
  2 28  1  0  0  0  0
  3 12  1  0  0  0  0
  3 15  1  0  0  0  0
  4 13  1  0  0  0  0
  4 46  1  0  0  0  0
  5 19  1  0  0  0  0
  5 22  1  0  0  0  0
  6 20  1  0  0  0  0
  6 48  1  0  0  0  0
  7 21  2  0  0  0  0
  8 10  1  0  0  0  0
  8 11  1  0  0  0  0
  8 14  1  0  0  0  0
  9 18  1  0  0  0  0
  9 21  1  0  0  0  0
  9 47  1  0  0  0  0
 10 12  1  0  0  0  0
 10 13  1  0  0  0  0
 10 29  1  0  0  0  0
 11 16  1  0  0  0  0
 11 19  1  0  0  0  0
 11 30  1  0  0  0  0
 12 18  1  0  0  0  0
 12 31  1  0  0  0  0
 13 15  1  0  0  0  0
 13 32  1  0  0  0  0
 14 17  1  0  0  0  0
 14 33  1  0  0  0  0
 14 34  1  0  0  0  0
 15 20  1  0  0  0  0
 15 35  1  0  0  0  0
 16 17  1  0  0  0  0
 16 36  1  0  0  0  0
 16 37  1  0  0  0  0
 17 38  1  0  0  0  0
 17 39  1  0  0  0  0
 18 40  1  0  0  0  0
 18 41  1  0  0  0  0
 19 42  1  0  0  0  0
 19 43  1  0  0  0  0
 20 44  1  0  0  0  0
 20 45  1  0  0  0  0
 21 23  1  0  0  0  0
 22 49  1  0  0  0  0
 22 50  1  0  0  0  0
 22 51  1  0  0  0  0
 23 24  2  0  0  0  0
 23 25  1  0  0  0  0
 24 26  1  0  0  0  0
 24 52  1  0  0  0  0
 25 27  2  0  0  0  0
 25 53  1  0  0  0  0
 26 28  2  0  0  0  0
 27 28  1  0  0  0  0
 27 54  1  0  0  0  0
M  END
> <PUBCHEM_COMPOUND_CID>
28961797

> <PUBCHEM_CONFORMER_RMSD>
1

> <PUBCHEM_CONFORMER_DIVERSEORDER>
1
46
66
61
9
67
22
68
62
47
31
49
26
28
42
53
41
60
64
50
3
16
34
65
23
44
69
19
25
40
58
18
48
63
54
2
8
15
39
30
36
24
14
56
33
45
51
55
17
52
59
21
29
43
7
32
11
27
5
57
13
37
20
38
12
10
35
4
6

> <PUBCHEM_MMFF94_PARTIAL_CHARGES>
32
1 -0.18
10 0.27
11 0.27
12 0.28
13 0.28
14 0.27
15 0.28
18 0.3
19 0.28
2 -0.19
20 0.28
21 0.54
22 0.28
23 0.09
24 -0.15
25 -0.15
26 0.18
27 -0.15
28 0.19
3 -0.56
4 -0.68
46 0.4
47 0.37
48 0.4
5 -0.56
52 0.15
53 0.15
54 0.15
6 -0.68
7 -0.57
8 -0.81
9 -0.73

> <PUBCHEM_EFFECTIVE_ROTOR_COUNT>
10

> <PUBCHEM_PHARMACOPHORE_FEATURES>
12
1 3 acceptor
1 4 acceptor
1 4 donor
1 5 acceptor
1 6 acceptor
1 6 donor
1 7 acceptor
1 8 cation
1 9 donor
5 3 10 12 13 15 rings
5 8 11 14 16 17 rings
6 23 24 25 26 27 28 rings

> <PUBCHEM_HEAVY_ATOM_COUNT>
28

> <PUBCHEM_ATOM_DEF_STEREO_COUNT>
5

> <PUBCHEM_ATOM_UDEF_STEREO_COUNT>
0

> <PUBCHEM_BOND_DEF_STEREO_COUNT>
0

> <PUBCHEM_BOND_UDEF_STEREO_COUNT>
0

> <PUBCHEM_ISOTOPIC_ATOM_COUNT>
0

> <PUBCHEM_COMPONENT_COUNT>
1

> <PUBCHEM_CACTVS_TAUTO_COUNT>
2

> <PUBCHEM_CONFORMER_ID>
01B9EC0500000001

> <PUBCHEM_MMFF94_ENERGY>
69.1703

> <PUBCHEM_FEATURE_SELFOVERLAP>
60.902

> <PUBCHEM_SHAPE_FINGERPRINT>
10074138 170 17612005467809973002
10090160 65 18113617893459369623
10165383 225 18114471132411641948
12107183 9 17545320775070353761
12730499 353 18259994764063721554
12788726 201 17702673133909400833
13533116 47 18336264540488477519
13692114 37 18266169707449832474
13878862 14 18118946028509387933
13955234 65 18337102380558797794
14528608 73 18342738541908767453
146900 427 18411419501409497241
14849402 71 18410005547090130224
14955137 171 18192979440868929858
15142526 21 18268140032001275705
15250474 111 18340754967551943503
17844677 252 18116717314218225725
17980427 26 18128232650025468628
20511986 3 18341037589368720861
21033648 29 18191310575027004072
21049683 118 18117541028615557826
21065198 48 18340207393686124605
23559900 14 18040718030612618095
23845131 108 18261670484114230771
239999 70 18339927000124126102
3178227 256 18042129765294529338
34797466 226 17131842005625916725
474 4 18187087286255330988
504579 68 18272362067259268245
5104073 3 18411139104944371065
57091435 61 18200024174385913824
633830 44 18272643597458863900
6442390 28 18262238931899895794
653340 110 18118128206242722707
9658208 31 18265338494160141742
9777508 108 18118409681277202122

> <PUBCHEM_SHAPE_MULTIPOLES>
531.51
15.03
4.57
1.61
24.58
2.6
0.39
-10.14
-0.63
-6.25
3.7
-1.61
-0.53
-0.42

> <PUBCHEM_SHAPE_SELFOVERLAP>
1105.157

> <PUBCHEM_SHAPE_VOLUME>
305

> <PUBCHEM_COORDINATE_TYPE>
2
5
10

$$$$
