45783903
  -OEChem-12032416273D

 66 68  0     1  0  0  0  0  0999 V2000
    3.9071    2.1248   -1.1935 O   0  0  0  0  0  0  0  0  0  0  0  0
   -7.7511    0.7178   -0.4676 O   0  0  0  0  0  0  0  0  0  0  0  0
   -1.3262    0.0121    0.3655 N   0  0  0  0  0  0  0  0  0  0  0  0
   -4.1054    0.7512    0.0683 N   0  0  0  0  0  0  0  0  0  0  0  0
    3.7599    1.5794    0.9711 N   0  0  0  0  0  0  0  0  0  0  0  0
    3.4485    2.9206    0.8463 N   0  0  0  0  0  0  0  0  0  0  0  0
    0.8432   -1.7110   -0.5913 C   0  0  1  0  0  0  0  0  0  0  0  0
    0.6242   -1.3914    0.9059 C   0  0  2  0  0  0  0  0  0  0  0  0
    2.0696   -0.9595   -1.1280 C   0  0  0  0  0  0  0  0  0  0  0  0
    3.3641   -1.2624   -0.3434 C   0  0  2  0  0  0  0  0  0  0  0  0
    0.9711   -3.2221   -0.8278 C   0  0  0  0  0  0  0  0  0  0  0  0
   -0.0638   -0.0362    1.1004 C   0  0  0  0  0  0  0  0  0  0  0  0
    1.9074   -1.4138    1.6966 C   0  0  0  0  0  0  0  0  0  0  0  0
    3.1396   -1.3694    1.1574 C   0  0  0  0  0  0  0  0  0  0  0  0
    4.4188   -0.2128   -0.7154 C   0  0  0  0  0  0  0  0  0  0  0  0
   -1.7219    1.4007    0.0995 C   0  0  0  0  0  0  0  0  0  0  0  0
   -2.3847   -0.6908    1.1007 C   0  0  0  0  0  0  0  0  0  0  0  0
    1.6077   -3.4957   -2.1866 C   0  0  0  0  0  0  0  0  0  0  0  0
   -0.3945   -3.8941   -0.7250 C   0  0  0  0  0  0  0  0  0  0  0  0
   -3.0471    1.4527   -0.6684 C   0  0  0  0  0  0  0  0  0  0  0  0
   -3.7104   -0.6377    0.3334 C   0  0  0  0  0  0  0  0  0  0  0  0
    4.3556   -1.4856    2.0351 C   0  0  0  0  0  0  0  0  0  0  0  0
    4.0205    1.1564   -0.2438 C   0  0  0  0  0  0  0  0  0  0  0  0
   -5.3687    0.8005   -0.6650 C   0  0  0  0  0  0  0  0  0  0  0  0
   -6.5466    0.6470    0.2840 C   0  0  0  0  0  0  0  0  0  0  0  0
    3.5474    3.1950   -0.4334 C   0  0  0  0  0  0  0  0  0  0  0  0
    3.3295    4.4649   -1.1376 C   0  0  0  0  0  0  0  0  0  0  0  0
   -8.8937    0.5596    0.3623 C   0  0  0  0  0  0  0  0  0  0  0  0
   -0.0126   -1.3705   -1.1877 H   0  0  0  0  0  0  0  0  0  0  0  0
   -0.0079   -2.1631    1.3561 H   0  0  0  0  0  0  0  0  0  0  0  0
    2.2279   -1.1112   -2.2013 H   0  0  0  0  0  0  0  0  0  0  0  0
    1.8304    0.1096   -1.0614 H   0  0  0  0  0  0  0  0  0  0  0  0
    3.7553   -2.2349   -0.6654 H   0  0  0  0  0  0  0  0  0  0  0  0
    1.6196   -3.6774   -0.0689 H   0  0  0  0  0  0  0  0  0  0  0  0
    0.6101    0.7517    0.7375 H   0  0  0  0  0  0  0  0  0  0  0  0
   -0.2164    0.1786    2.1674 H   0  0  0  0  0  0  0  0  0  0  0  0
    1.7995   -1.4907    2.7764 H   0  0  0  0  0  0  0  0  0  0  0  0
    4.5612   -0.2003   -1.8034 H   0  0  0  0  0  0  0  0  0  0  0  0
    5.3947   -0.4633   -0.2837 H   0  0  0  0  0  0  0  0  0  0  0  0
   -0.9561    1.8958   -0.5101 H   0  0  0  0  0  0  0  0  0  0  0  0
   -1.8128    1.9674    1.0362 H   0  0  0  0  0  0  0  0  0  0  0  0
   -2.5245   -0.2561    2.0999 H   0  0  0  0  0  0  0  0  0  0  0  0
   -2.1297   -1.7465    1.2394 H   0  0  0  0  0  0  0  0  0  0  0  0
    2.6722   -3.2564   -2.2302 H   0  0  0  0  0  0  0  0  0  0  0  0
    1.5418   -4.5657   -2.4195 H   0  0  0  0  0  0  0  0  0  0  0  0
    1.0867   -2.9666   -2.9924 H   0  0  0  0  0  0  0  0  0  0  0  0
   -0.3109   -4.9669   -0.9322 H   0  0  0  0  0  0  0  0  0  0  0  0
   -0.8320   -3.7986    0.2720 H   0  0  0  0  0  0  0  0  0  0  0  0
   -1.1025   -3.4736   -1.4475 H   0  0  0  0  0  0  0  0  0  0  0  0
   -2.9137    1.0186   -1.6687 H   0  0  0  0  0  0  0  0  0  0  0  0
   -3.3211    2.5063   -0.8023 H   0  0  0  0  0  0  0  0  0  0  0  0
   -4.4664   -1.1459    0.9419 H   0  0  0  0  0  0  0  0  0  0  0  0
   -3.6121   -1.2040   -0.6030 H   0  0  0  0  0  0  0  0  0  0  0  0
    4.9309   -0.5567    2.0581 H   0  0  0  0  0  0  0  0  0  0  0  0
    4.0918   -1.7283    3.0704 H   0  0  0  0  0  0  0  0  0  0  0  0
    5.0056   -2.2888    1.6722 H   0  0  0  0  0  0  0  0  0  0  0  0
   -5.4875    1.7738   -1.1610 H   0  0  0  0  0  0  0  0  0  0  0  0
   -5.4141    0.0591   -1.4737 H   0  0  0  0  0  0  0  0  0  0  0  0
   -6.5131   -0.3168    0.8034 H   0  0  0  0  0  0  0  0  0  0  0  0
   -6.5381    1.4488    1.0327 H   0  0  0  0  0  0  0  0  0  0  0  0
    3.0509    5.2555   -0.4345 H   0  0  0  0  0  0  0  0  0  0  0  0
    2.5258    4.3638   -1.8729 H   0  0  0  0  0  0  0  0  0  0  0  0
    4.2393    4.7771   -1.6588 H   0  0  0  0  0  0  0  0  0  0  0  0
   -8.8836   -0.4215    0.8469 H   0  0  0  0  0  0  0  0  0  0  0  0
   -8.9339    1.3524    1.1156 H   0  0  0  0  0  0  0  0  0  0  0  0
   -9.7866    0.6291   -0.2648 H   0  0  0  0  0  0  0  0  0  0  0  0
  1 23  1  0  0  0  0
  1 26  1  0  0  0  0
  2 25  1  0  0  0  0
  2 28  1  0  0  0  0
  3 12  1  0  0  0  0
  3 16  1  0  0  0  0
  3 17  1  0  0  0  0
  4 20  1  0  0  0  0
  4 21  1  0  0  0  0
  4 24  1  0  0  0  0
  5  6  1  0  0  0  0
  5 23  2  0  0  0  0
  6 26  2  0  0  0  0
  7  8  1  0  0  0  0
  7  9  1  0  0  0  0
  7 11  1  0  0  0  0
  7 29  1  0  0  0  0
  8 12  1  0  0  0  0
  8 13  1  0  0  0  0
  8 30  1  0  0  0  0
  9 10  1  0  0  0  0
  9 31  1  0  0  0  0
  9 32  1  0  0  0  0
 10 14  1  0  0  0  0
 10 15  1  0  0  0  0
 10 33  1  0  0  0  0
 11 18  1  0  0  0  0
 11 19  1  0  0  0  0
 11 34  1  0  0  0  0
 12 35  1  0  0  0  0
 12 36  1  0  0  0  0
 13 14  2  0  0  0  0
 13 37  1  0  0  0  0
 14 22  1  0  0  0  0
 15 23  1  0  0  0  0
 15 38  1  0  0  0  0
 15 39  1  0  0  0  0
 16 20  1  0  0  0  0
 16 40  1  0  0  0  0
 16 41  1  0  0  0  0
 17 21  1  0  0  0  0
 17 42  1  0  0  0  0
 17 43  1  0  0  0  0
 18 44  1  0  0  0  0
 18 45  1  0  0  0  0
 18 46  1  0  0  0  0
 19 47  1  0  0  0  0
 19 48  1  0  0  0  0
 19 49  1  0  0  0  0
 20 50  1  0  0  0  0
 20 51  1  0  0  0  0
 21 52  1  0  0  0  0
 21 53  1  0  0  0  0
 22 54  1  0  0  0  0
 22 55  1  0  0  0  0
 22 56  1  0  0  0  0
 24 25  1  0  0  0  0
 24 57  1  0  0  0  0
 24 58  1  0  0  0  0
 25 59  1  0  0  0  0
 25 60  1  0  0  0  0
 26 27  1  0  0  0  0
 27 61  1  0  0  0  0
 27 62  1  0  0  0  0
 27 63  1  0  0  0  0
 28 64  1  0  0  0  0
 28 65  1  0  0  0  0
 28 66  1  0  0  0  0
M  END
> <PUBCHEM_COMPOUND_CID>
45783903

> <PUBCHEM_CONFORMER_RMSD>
1

> <PUBCHEM_CONFORMER_DIVERSEORDER>
4
152
134
126
90
84
24
66
34
93
108
110
73
162
25
120
46
65
153
20
14
36
139
42
88
71
51
37
151
140
47
136
124
22
76
160
142
99
57
135
148
129
29
74
54
83
138
101
23
15
77
119
58
38
2
147
115
131
118
28
105
67
61
43
59
159
41
144
146
8
75
92
68
154
60
100
52
86
82
33
55
106
9
95
111
45
17
13
32
143
128
49
7
113
157
80
117
30
158
102
19
79
70
130
137
39
50
40
145
44
125
1
97
123
56
3
116
69
12
121
5
104
155
149
78
81
150
26
141
21
114
107
98
132
11
161
94
16
35
53
10
91
31
27
122
96
87
6
112
85
127
103
72
156
63
109
62
89
48
64
133
18

> <PUBCHEM_MMFF94_PARTIAL_CHARGES>
24
1 -0.28
10 0.14
12 0.27
13 -0.29
14 -0.28
15 0.18
16 0.27
17 0.27
2 -0.56
20 0.27
21 0.27
22 0.14
23 0.3
24 0.27
25 0.28
26 0.3
27 0.18
28 0.28
3 -0.81
37 0.15
4 -0.81
5 -0.34
6 -0.34
8 0.14

> <PUBCHEM_EFFECTIVE_ROTOR_COUNT>
10

> <PUBCHEM_PHARMACOPHORE_FEATURES>
7
1 2 acceptor
1 3 cation
1 4 cation
3 11 18 19 hydrophobe
5 1 5 6 23 26 rings
6 3 4 16 17 20 21 rings
6 7 8 9 10 13 14 rings

> <PUBCHEM_HEAVY_ATOM_COUNT>
28

> <PUBCHEM_ATOM_DEF_STEREO_COUNT>
3

> <PUBCHEM_ATOM_UDEF_STEREO_COUNT>
0

> <PUBCHEM_BOND_DEF_STEREO_COUNT>
0

> <PUBCHEM_BOND_UDEF_STEREO_COUNT>
0

> <PUBCHEM_ISOTOPIC_ATOM_COUNT>
0

> <PUBCHEM_COMPONENT_COUNT>
1

> <PUBCHEM_CACTVS_TAUTO_COUNT>
1

> <PUBCHEM_CONFORMER_ID>
02BA9B5F00000004

> <PUBCHEM_MMFF94_ENERGY>
50.7977

> <PUBCHEM_FEATURE_SELFOVERLAP>
35.523

> <PUBCHEM_SHAPE_FINGERPRINT>
10673678 19 18411705421883470921
10871710 139 17257101892140362668
11135609 127 18341317930284634861
13150687 139 18343028804820998198
13533116 47 17458622251357917467
13583140 156 17749937934478338394
1361 2 18411981386253526157
14117953 113 18413111654178980452
14955137 171 18188763952153739122
15849732 13 18341039728447433562
16728300 4 17536005802891682458
17980427 23 17914583229986152442
18681886 176 18339636742561306546
19319366 153 17988634165100723351
19427546 62 18411983576708179887
20715895 44 18341895220716437508
21344244 78 17971170566318845074
21475661 188 18115027536587113512
21716022 299 15337452068378858246
22149856 69 17988651749376860539
23227448 37 18195811988605353742
23522609 53 17488766510144149105
23559900 14 18271530792918265198
249057 3 18412546496697024462
255183 451 17699298667624585343
3060560 45 18343306934002503614
345986 75 7925369401938211044
34797466 226 18412831257618531087
394071 54 18337403668979163385
4340502 62 18059846217543395615
46194498 28 18338517439639561725
58260988 393 17829333832207799682
8509985 295 7925909288017336243

> <PUBCHEM_SHAPE_MULTIPOLES>
544.56
15.05
4.42
1.55
43.18
1.28
-0.11
9.09
-0.61
-6.88
2.35
-1.72
-0.87
-0.55

> <PUBCHEM_SHAPE_SELFOVERLAP>
1108.606

> <PUBCHEM_SHAPE_VOLUME>
316.6

> <PUBCHEM_COORDINATE_TYPE>
2
5
10

$$$$
