26763461
  -OEChem-12032416123D

 59 63  0     1  0  0  0  0  0999 V2000
   -0.5238   -3.2018    1.1242 O   0  0  0  0  0  0  0  0  0  0  0  0
   -0.4576   -2.7953   -1.9722 O   0  0  0  0  0  0  0  0  0  0  0  0
   -4.2142   -0.9671    1.0273 O   0  0  0  0  0  0  0  0  0  0  0  0
    2.3284   -1.8289    0.2735 N   0  0  0  0  0  0  0  0  0  0  0  0
   -2.8729   -1.2035   -0.8410 N   0  0  0  0  0  0  0  0  0  0  0  0
    1.9752   -1.0142    1.2809 N   0  0  0  0  0  0  0  0  0  0  0  0
    3.0433   -0.2895    1.5951 N   0  0  0  0  0  0  0  0  0  0  0  0
   -4.3053    0.5887   -0.7281 N   0  0  0  0  0  0  0  0  0  0  0  0
    0.1084   -2.0642   -0.8690 C   0  0  1  0  0  0  0  0  0  0  0  0
   -0.8986   -2.1142    0.2635 C   0  0  1  0  0  0  0  0  0  0  0  0
    1.3259   -2.7951   -0.3304 C   0  0  2  0  0  0  0  0  0  0  0  0
   -2.2119   -2.4158   -0.4217 C   0  0  2  0  0  0  0  0  0  0  0  0
    0.6960   -3.7852    0.6451 C   0  0  0  0  0  0  0  0  0  0  0  0
   -1.7729   -3.2440   -1.6153 C   0  0  0  0  0  0  0  0  0  0  0  0
    5.5359    1.1974   -0.0379 C   0  0  0  0  0  0  0  0  0  0  0  0
    4.8448    2.4081    0.6041 C   0  0  0  0  0  0  0  0  0  0  0  0
    7.0060    1.5089   -0.3486 C   0  0  0  0  0  0  0  0  0  0  0  0
    5.4236   -0.0294    0.8653 C   0  0  0  0  0  0  0  0  0  0  0  0
    3.6289   -1.6492   -0.0847 C   0  0  0  0  0  0  0  0  0  0  0  0
    4.9894    3.6614   -0.2562 C   0  0  0  0  0  0  0  0  0  0  0  0
    7.1472    2.7639   -1.2071 C   0  0  0  0  0  0  0  0  0  0  0  0
    4.0648   -0.6663    0.7680 C   0  0  0  0  0  0  0  0  0  0  0  0
    6.4515    3.9628   -0.5702 C   0  0  0  0  0  0  0  0  0  0  0  0
   -3.8451   -0.5551   -0.0699 C   0  0  0  0  0  0  0  0  0  0  0  0
   -5.2817    1.5113   -0.2855 C   0  0  0  0  0  0  0  0  0  0  0  0
   -5.6194    2.6052   -1.0824 C   0  0  0  0  0  0  0  0  0  0  0  0
   -5.9068    1.3273    0.9477 C   0  0  0  0  0  0  0  0  0  0  0  0
   -6.5823    3.5154   -0.6459 C   0  0  0  0  0  0  0  0  0  0  0  0
   -6.8696    2.2373    1.3842 C   0  0  0  0  0  0  0  0  0  0  0  0
   -7.2074    3.3313    0.5874 C   0  0  0  0  0  0  0  0  0  0  0  0
    0.3085   -1.0470   -1.2208 H   0  0  0  0  0  0  0  0  0  0  0  0
   -0.9103   -1.2034    0.8704 H   0  0  0  0  0  0  0  0  0  0  0  0
    1.8894   -3.3245   -1.1074 H   0  0  0  0  0  0  0  0  0  0  0  0
   -2.8982   -2.9887    0.2112 H   0  0  0  0  0  0  0  0  0  0  0  0
    0.4335   -4.7191    0.1365 H   0  0  0  0  0  0  0  0  0  0  0  0
    1.3409   -4.0233    1.4961 H   0  0  0  0  0  0  0  0  0  0  0  0
   -1.6933   -4.3036   -1.3489 H   0  0  0  0  0  0  0  0  0  0  0  0
   -2.4344   -3.1559   -2.4826 H   0  0  0  0  0  0  0  0  0  0  0  0
    5.0375    0.9887   -0.9956 H   0  0  0  0  0  0  0  0  0  0  0  0
   -2.5727   -0.7638   -1.7059 H   0  0  0  0  0  0  0  0  0  0  0  0
    5.2736    2.6031    1.5955 H   0  0  0  0  0  0  0  0  0  0  0  0
    3.7777    2.2092    0.7527 H   0  0  0  0  0  0  0  0  0  0  0  0
    7.4669    0.6628   -0.8724 H   0  0  0  0  0  0  0  0  0  0  0  0
    7.5634    1.6461    0.5870 H   0  0  0  0  0  0  0  0  0  0  0  0
    5.6372    0.2260    1.9102 H   0  0  0  0  0  0  0  0  0  0  0  0
    6.1657   -0.7831    0.5716 H   0  0  0  0  0  0  0  0  0  0  0  0
    4.5400    4.5168    0.2607 H   0  0  0  0  0  0  0  0  0  0  0  0
    4.4348    3.5268   -1.1931 H   0  0  0  0  0  0  0  0  0  0  0  0
    6.7181    2.5773   -2.1993 H   0  0  0  0  0  0  0  0  0  0  0  0
    8.2089    2.9905   -1.3561 H   0  0  0  0  0  0  0  0  0  0  0  0
    4.1079   -2.2072   -0.8766 H   0  0  0  0  0  0  0  0  0  0  0  0
    6.5142    4.8258   -1.2425 H   0  0  0  0  0  0  0  0  0  0  0  0
    6.9738    4.2389    0.3541 H   0  0  0  0  0  0  0  0  0  0  0  0
   -3.8945    0.7888   -1.6366 H   0  0  0  0  0  0  0  0  0  0  0  0
   -5.1399    2.7602   -2.0455 H   0  0  0  0  0  0  0  0  0  0  0  0
   -5.6994    0.5068    1.6199 H   0  0  0  0  0  0  0  0  0  0  0  0
   -6.8453    4.3671   -1.2662 H   0  0  0  0  0  0  0  0  0  0  0  0
   -7.3571    2.0954    2.3444 H   0  0  0  0  0  0  0  0  0  0  0  0
   -7.9570    4.0398    0.9273 H   0  0  0  0  0  0  0  0  0  0  0  0
  1 10  1  0  0  0  0
  1 13  1  0  0  0  0
  2  9  1  0  0  0  0
  2 14  1  0  0  0  0
  3 24  2  0  0  0  0
  4  6  1  0  0  0  0
  4 11  1  0  0  0  0
  4 19  1  0  0  0  0
  5 12  1  0  0  0  0
  5 24  1  0  0  0  0
  5 40  1  0  0  0  0
  6  7  2  0  0  0  0
  7 22  1  0  0  0  0
  8 24  1  0  0  0  0
  8 25  1  0  0  0  0
  8 54  1  0  0  0  0
  9 10  1  0  0  0  0
  9 11  1  0  0  0  0
  9 31  1  0  0  0  0
 10 12  1  0  0  0  0
 10 32  1  0  0  0  0
 11 13  1  0  0  0  0
 11 33  1  0  0  0  0
 12 14  1  0  0  0  0
 12 34  1  0  0  0  0
 13 35  1  0  0  0  0
 13 36  1  0  0  0  0
 14 37  1  0  0  0  0
 14 38  1  0  0  0  0
 15 16  1  0  0  0  0
 15 17  1  0  0  0  0
 15 18  1  0  0  0  0
 15 39  1  0  0  0  0
 16 20  1  0  0  0  0
 16 41  1  0  0  0  0
 16 42  1  0  0  0  0
 17 21  1  0  0  0  0
 17 43  1  0  0  0  0
 17 44  1  0  0  0  0
 18 22  1  0  0  0  0
 18 45  1  0  0  0  0
 18 46  1  0  0  0  0
 19 22  2  0  0  0  0
 19 51  1  0  0  0  0
 20 23  1  0  0  0  0
 20 47  1  0  0  0  0
 20 48  1  0  0  0  0
 21 23  1  0  0  0  0
 21 49  1  0  0  0  0
 21 50  1  0  0  0  0
 23 52  1  0  0  0  0
 23 53  1  0  0  0  0
 25 26  2  0  0  0  0
 25 27  1  0  0  0  0
 26 28  1  0  0  0  0
 26 55  1  0  0  0  0
 27 29  2  0  0  0  0
 27 56  1  0  0  0  0
 28 30  2  0  0  0  0
 28 57  1  0  0  0  0
 29 30  1  0  0  0  0
 29 58  1  0  0  0  0
 30 59  1  0  0  0  0
M  END
> <PUBCHEM_COMPOUND_CID>
26763461

> <PUBCHEM_CONFORMER_RMSD>
1.2

> <PUBCHEM_CONFORMER_DIVERSEORDER>
1
47
72
56
13
27
79
8
73
82
68
63
33
42
65
4
57
90
92
94
18
80
30
31
22
26
84
66
64
98
52
35
12
102
11
19
50
60
61
76
39
10
74
15
9
43
75
46
99
41
20
53
93
97
7
28
81
85
83
32
55
87
5
89
25
88
67
6
24
59
77
3
21
100
78
48
69
58
37
23
44
36
51
96
2
95
62
49
34
14
45
70
103
91
17
71
40
101
29
16
86
38
54

> <PUBCHEM_MMFF94_PARTIAL_CHARGES>
32
1 -0.56
10 0.28
11 0.26
12 0.3
13 0.28
14 0.28
18 0.18
19 -0.3
2 -0.56
22 0.05
24 0.69
25 0.12
26 -0.15
27 -0.15
28 -0.15
29 -0.15
3 -0.57
30 -0.15
4 0.31
40 0.37
5 -0.73
51 0.15
54 0.37
55 0.15
56 0.15
57 0.15
58 0.15
59 0.15
6 -0.42
7 -0.23
8 -0.55
9 0.28

> <PUBCHEM_EFFECTIVE_ROTOR_COUNT>
9.4

> <PUBCHEM_PHARMACOPHORE_FEATURES>
10
1 1 acceptor
1 2 acceptor
1 3 acceptor
1 5 donor
1 8 donor
5 1 9 10 11 13 rings
5 2 9 10 12 14 rings
5 4 6 7 19 22 rings
6 15 16 17 20 21 23 rings
6 25 26 27 28 29 30 rings

> <PUBCHEM_HEAVY_ATOM_COUNT>
30

> <PUBCHEM_ATOM_DEF_STEREO_COUNT>
4

> <PUBCHEM_ATOM_UDEF_STEREO_COUNT>
0

> <PUBCHEM_BOND_DEF_STEREO_COUNT>
0

> <PUBCHEM_BOND_UDEF_STEREO_COUNT>
0

> <PUBCHEM_ISOTOPIC_ATOM_COUNT>
0

> <PUBCHEM_COMPONENT_COUNT>
1

> <PUBCHEM_CACTVS_TAUTO_COUNT>
3

> <PUBCHEM_CONFORMER_ID>
019860C500000001

> <PUBCHEM_MMFF94_ENERGY>
60.7339

> <PUBCHEM_FEATURE_SELFOVERLAP>
51.503

> <PUBCHEM_SHAPE_FINGERPRINT>
100830 2 17680436846941500524
10533779 1 18341034264252533720
10556698 54 17559091367317515993
10693767 8 9655279420287976597
10864689 126 18272650160665414008
10917259 69 18410013274216739684
10920273 25 18059311889304809057
11088757 655 8935008040629854188
11273773 38 18412260631778629080
11374522 155 18410014296229246853
11505856 67 18267294525146294439
1200032 147 18260551126054055160
12013929 29 18265055902888372532
12975358 362 18265912258974233305
131258 38 8500643751030396385
13885169 86 18410293601408066377
13911852 28 8502360140853723951
13944108 23 18269556035912184176
14202776 33 18057881536362020487
14251764 75 18411699880773888969
14617042 71 18270687438463995809
14664723 55 18272098162282160481
14790565 3 18409163342035350876
15198563 99 17628336475711576791
15338160 23 18116156739049747283
15519825 34 16298682671890254369
155225 6 18411420583731401385
15803439 3 16343980316701245878
15950262 2 18260551112673274633
16067689 134 18262248836480493156
16992727 255 18340490066859211784
19302320 297 18334293128882469584
19309040 13 18272930544455843510
19438510 23 18186521033603778648
20058555 10 18410009927545483969
20691028 202 18410288133767044504
21223535 225 18127123298680877852
21585481 104 13901911094546510555
21585482 111 18334576789544347021
21792965 106 17472418129597640696
23569914 152 17772773593455768500
241686 156 18336263564972771949
249057 25 18193809704885860466
2748736 6 18340193133666993921
2838139 119 18338507531039538759
393628 194 18340485565654604605
406291 66 9223230741169190092
4169191 19 18409445852680006973
4258327 124 18343012273818910381
437795 139 10375880675119998488
484985 159 11132194574587120634
50009960 94 9150897122805270652
5104073 3 17387114572701873330
5718773 13 9511461113083346168
57724786 102 18338227163726767758
5874358 3 12606856774385351708
6036956 94 18340493262130575737
6058803 2 18195217053783916854
6201320 77 12174195839272676453
636775 72 18051407668106951888

> <PUBCHEM_SHAPE_MULTIPOLES>
574.87
21.71
6.12
1.35
4.16
0.99
0.09
36.12
-0.46
-0.14
1.24
0.48
-0.37
-2.18

> <PUBCHEM_SHAPE_SELFOVERLAP>
1228.697

> <PUBCHEM_SHAPE_VOLUME>
315.2

> <PUBCHEM_COORDINATE_TYPE>
2
5
10

$$$$
