26744586
  -OEChem-12032416293D

 50 53  0     1  0  0  0  0  0999 V2000
    1.5586   -2.1722   -2.3239 Cl  0  0  0  0  0  0  0  0  0  0  0  0
    5.3919    0.9925   -1.3985 F   0  0  0  0  0  0  0  0  0  0  0  0
   -5.6085   -1.3545   -1.6745 O   0  0  0  0  0  0  0  0  0  0  0  0
   -1.2537   -1.1277    2.3149 O   0  0  0  0  0  0  0  0  0  0  0  0
   -0.4902    1.6930   -1.6387 O   0  0  0  0  0  0  0  0  0  0  0  0
   -2.8544    0.5021   -0.3556 N   0  0  1  0  0  0  0  0  0  0  0  0
   -0.6571   -1.6685    0.2249 N   0  0  0  0  0  0  0  0  0  0  0  0
    0.0276   -1.6859    2.4077 N   0  0  0  0  0  0  0  0  0  0  0  0
   -2.9400   -0.5978    0.6265 C   0  0  1  0  0  0  0  0  0  0  0  0
   -3.8543   -1.6459   -0.0347 C   0  0  0  0  0  0  0  0  0  0  0  0
   -4.2685   -1.0259   -1.3634 C   0  0  2  0  0  0  0  0  0  0  0  0
   -4.0933    0.4627   -1.1302 C   0  0  0  0  0  0  0  0  0  0  0  0
   -2.6329    1.8047    0.2586 C   0  0  0  0  0  0  0  0  0  0  0  0
   -1.5818   -1.1557    0.9967 C   0  0  0  0  0  0  0  0  0  0  0  0
   -1.1889    2.0100    0.6325 C   0  0  0  0  0  0  0  0  0  0  0  0
   -0.1859    1.9445   -0.3346 C   0  0  0  0  0  0  0  0  0  0  0  0
    0.3107   -1.9793    1.1351 C   0  0  0  0  0  0  0  0  0  0  0  0
   -0.8591    2.2677    1.9630 C   0  0  0  0  0  0  0  0  0  0  0  0
    1.5835   -2.5955    0.7441 C   0  0  0  0  0  0  0  0  0  0  0  0
    1.1469    2.1365    0.0289 C   0  0  0  0  0  0  0  0  0  0  0  0
    0.4738    2.4597    2.3266 C   0  0  0  0  0  0  0  0  0  0  0  0
    1.4769    2.3941    1.3595 C   0  0  0  0  0  0  0  0  0  0  0  0
    2.5993   -1.6335    0.1362 C   0  0  0  0  0  0  0  0  0  0  0  0
    2.6484   -1.3916   -1.2366 C   0  0  0  0  0  0  0  0  0  0  0  0
    3.4938   -0.9884    0.9904 C   0  0  0  0  0  0  0  0  0  0  0  0
   -0.7575    2.8204   -2.4704 C   0  0  0  0  0  0  0  0  0  0  0  0
    3.5917   -0.5046   -1.7552 C   0  0  0  0  0  0  0  0  0  0  0  0
    4.4371   -0.1015    0.4718 C   0  0  0  0  0  0  0  0  0  0  0  0
    4.4860    0.1404   -0.9011 C   0  0  0  0  0  0  0  0  0  0  0  0
   -3.4439   -0.2612    1.5435 H   0  0  0  0  0  0  0  0  0  0  0  0
   -3.3633   -2.6113   -0.2026 H   0  0  0  0  0  0  0  0  0  0  0  0
   -4.7314   -1.8357    0.5969 H   0  0  0  0  0  0  0  0  0  0  0  0
   -3.6152   -1.3723   -2.1736 H   0  0  0  0  0  0  0  0  0  0  0  0
   -4.0072    1.0059   -2.0772 H   0  0  0  0  0  0  0  0  0  0  0  0
   -4.9484    0.8753   -0.5785 H   0  0  0  0  0  0  0  0  0  0  0  0
   -3.2945    1.9566    1.1220 H   0  0  0  0  0  0  0  0  0  0  0  0
   -2.8969    2.6060   -0.4438 H   0  0  0  0  0  0  0  0  0  0  0  0
   -5.6650   -2.3234   -1.7351 H   0  0  0  0  0  0  0  0  0  0  0  0
   -1.6286    2.3197    2.7286 H   0  0  0  0  0  0  0  0  0  0  0  0
    1.3987   -3.4370    0.0663 H   0  0  0  0  0  0  0  0  0  0  0  0
    2.0479   -3.0709    1.6200 H   0  0  0  0  0  0  0  0  0  0  0  0
    1.9318    2.0929   -0.7205 H   0  0  0  0  0  0  0  0  0  0  0  0
    0.7310    2.6593    3.3627 H   0  0  0  0  0  0  0  0  0  0  0  0
    2.5146    2.5446    1.6424 H   0  0  0  0  0  0  0  0  0  0  0  0
    3.4659   -1.1643    2.0625 H   0  0  0  0  0  0  0  0  0  0  0  0
   -1.2090    2.4609   -3.3990 H   0  0  0  0  0  0  0  0  0  0  0  0
    0.1794    3.3319   -2.7122 H   0  0  0  0  0  0  0  0  0  0  0  0
   -1.4484    3.5223   -1.9938 H   0  0  0  0  0  0  0  0  0  0  0  0
    3.6427   -0.3043   -2.8223 H   0  0  0  0  0  0  0  0  0  0  0  0
    5.1325    0.4024    1.1367 H   0  0  0  0  0  0  0  0  0  0  0  0
  1 24  1  0  0  0  0
  2 29  1  0  0  0  0
  3 11  1  0  0  0  0
  3 38  1  0  0  0  0
  4  8  1  0  0  0  0
  4 14  1  0  0  0  0
  5 16  1  0  0  0  0
  5 26  1  0  0  0  0
  6  9  1  0  0  0  0
  6 12  1  0  0  0  0
  6 13  1  0  0  0  0
  7 14  2  0  0  0  0
  7 17  1  0  0  0  0
  8 17  2  0  0  0  0
  9 10  1  0  0  0  0
  9 14  1  0  0  0  0
  9 30  1  0  0  0  0
 10 11  1  0  0  0  0
 10 31  1  0  0  0  0
 10 32  1  0  0  0  0
 11 12  1  0  0  0  0
 11 33  1  0  0  0  0
 12 34  1  0  0  0  0
 12 35  1  0  0  0  0
 13 15  1  0  0  0  0
 13 36  1  0  0  0  0
 13 37  1  0  0  0  0
 15 16  1  0  0  0  0
 15 18  2  0  0  0  0
 16 20  2  0  0  0  0
 17 19  1  0  0  0  0
 18 21  1  0  0  0  0
 18 39  1  0  0  0  0
 19 23  1  0  0  0  0
 19 40  1  0  0  0  0
 19 41  1  0  0  0  0
 20 22  1  0  0  0  0
 20 42  1  0  0  0  0
 21 22  2  0  0  0  0
 21 43  1  0  0  0  0
 22 44  1  0  0  0  0
 23 24  2  0  0  0  0
 23 25  1  0  0  0  0
 24 27  1  0  0  0  0
 25 28  2  0  0  0  0
 25 45  1  0  0  0  0
 26 46  1  0  0  0  0
 26 47  1  0  0  0  0
 26 48  1  0  0  0  0
 27 29  2  0  0  0  0
 27 49  1  0  0  0  0
 28 29  1  0  0  0  0
 28 50  1  0  0  0  0
M  END
> <PUBCHEM_COMPOUND_CID>
26744586

> <PUBCHEM_CONFORMER_RMSD>
1.4

> <PUBCHEM_CONFORMER_DIVERSEORDER>
1
34
49
52
60
74
39
90
19
88
36
42
38
64
92
62
26
82
16
2
67
53
37
86
61
75
43
58
76
70
47
8
81
24
78
79
18
89
56
66
59
91
28
54
31
48
23
73
68
87
4
83
69
32
40
15
46
55
25
17
80
44
11
72
21
27
41
57
6
12
71
65
13
45
7
14
9
50
5
35
63
30
20
51
29
77
84
22
33
10
85
3

> <PUBCHEM_MMFF94_PARTIAL_CHARGES>
36
1 -0.18
11 0.28
12 0.27
13 0.41
14 0.3
15 -0.14
16 0.08
17 0.34
18 -0.15
19 0.32
2 -0.19
20 -0.15
21 -0.15
22 -0.15
23 -0.14
24 0.18
25 -0.15
26 0.28
27 -0.15
28 -0.15
29 0.19
3 -0.68
38 0.4
39 0.15
4 -0.02
42 0.15
43 0.15
44 0.15
45 0.15
49 0.15
5 -0.36
50 0.15
6 -0.81
7 -0.57
8 -0.41
9 0.45

> <PUBCHEM_EFFECTIVE_ROTOR_COUNT>
7

> <PUBCHEM_PHARMACOPHORE_FEATURES>
9
1 3 acceptor
1 3 donor
1 5 acceptor
1 6 cation
3 7 8 17 cation
5 4 7 8 14 17 rings
5 6 9 10 11 12 rings
6 15 16 18 20 21 22 rings
6 23 24 25 27 28 29 rings

> <PUBCHEM_HEAVY_ATOM_COUNT>
29

> <PUBCHEM_ATOM_DEF_STEREO_COUNT>
2

> <PUBCHEM_ATOM_UDEF_STEREO_COUNT>
0

> <PUBCHEM_BOND_DEF_STEREO_COUNT>
0

> <PUBCHEM_BOND_UDEF_STEREO_COUNT>
0

> <PUBCHEM_ISOTOPIC_ATOM_COUNT>
0

> <PUBCHEM_COMPONENT_COUNT>
1

> <PUBCHEM_CACTVS_TAUTO_COUNT>
1

> <PUBCHEM_CONFORMER_ID>
0198170A00000001

> <PUBCHEM_MMFF94_ENERGY>
72.4502

> <PUBCHEM_FEATURE_SELFOVERLAP>
45.672

> <PUBCHEM_SHAPE_FINGERPRINT>
11370993 70 17530962449859095310
12156800 1 16810898868997782700
12166972 35 17748828497044075598
12467345 10 16987710375818704510
12596599 1 17913779314464772184
12788726 201 17843124705833164385
13224815 77 18263096426446950186
13617811 41 17533197701671030285
13761468 95 15812589280940549806
14251757 17 18334002900519381005
14787075 74 18342178890558853068
14790565 3 17621319035878496425
14931854 50 18409167709953690598
17357779 13 18341342157719774602
17492 54 17967817162779968764
17974551 9 8718239352640491471
19930381 70 17917709102060843796
20691752 17 17894901911218409489
20715895 44 16951955155653308629
20905425 154 18265870563208995313
2132832 1 17390478845352573755
23557571 272 17986098613666293986
23559900 14 18268701874149195961
238 59 18055352701997407024
35225 105 17688890639110810838
463206 1 17985821768996462511
469060 322 17389706056286797778
57527585 103 17681029264222219994

> <PUBCHEM_SHAPE_MULTIPOLES>
558.85
8.24
3.45
2.43
0.02
1.34
-0.21
-3.41
-4.28
-0.3
0.35
0.08
0.28
-0.03

> <PUBCHEM_SHAPE_SELFOVERLAP>
1200.184

> <PUBCHEM_SHAPE_VOLUME>
311.9

> <PUBCHEM_COORDINATE_TYPE>
2
5
10

$$$$
