45783541
  -OEChem-12032416263D

 52 55  0     1  0  0  0  0  0999 V2000
   -1.1668   -2.9763    1.1176 O   0  0  0  0  0  0  0  0  0  0  0  0
    5.2675    0.8554   -0.0820 O   0  0  0  0  0  0  0  0  0  0  0  0
    7.8939    0.9794   -1.0416 O   0  0  0  0  0  0  0  0  0  0  0  0
   -3.7442   -0.8027   -0.3446 N   0  0  1  0  0  0  0  0  0  0  0  0
   -0.7876   -1.1554   -0.1304 N   0  0  0  0  0  0  0  0  0  0  0  0
    0.1975   -2.6895    1.2515 N   0  0  0  0  0  0  0  0  0  0  0  0
    3.9649   -0.8317    0.8350 N   0  0  0  0  0  0  0  0  0  0  0  0
   -3.1515   -2.1154   -0.0198 C   0  0  1  0  0  0  0  0  0  0  0  0
   -3.4511   -2.9945   -1.2482 C   0  0  0  0  0  0  0  0  0  0  0  0
   -4.2665   -2.1101   -2.1808 C   0  0  0  0  0  0  0  0  0  0  0  0
   -4.8582   -1.0660   -1.2556 C   0  0  0  0  0  0  0  0  0  0  0  0
   -4.1643   -0.0548    0.8334 C   0  0  0  0  0  0  0  0  0  0  0  0
   -1.6715   -2.0259    0.2879 C   0  0  0  0  0  0  0  0  0  0  0  0
   -4.2954    1.4172    0.5459 C   0  0  0  0  0  0  0  0  0  0  0  0
   -3.1999    2.2626    0.7215 C   0  0  0  0  0  0  0  0  0  0  0  0
   -5.5125    1.9356    0.1039 C   0  0  0  0  0  0  0  0  0  0  0  0
    0.3438   -1.6033    0.4870 C   0  0  0  0  0  0  0  0  0  0  0  0
   -3.3216    3.6265    0.4552 C   0  0  0  0  0  0  0  0  0  0  0  0
   -5.6343    3.2993   -0.1625 C   0  0  0  0  0  0  0  0  0  0  0  0
    1.6059   -0.9431    0.3178 C   0  0  0  0  0  0  0  0  0  0  0  0
   -4.5388    4.1448    0.0132 C   0  0  0  0  0  0  0  0  0  0  0  0
    1.7217    0.1849   -0.4871 C   0  0  0  0  0  0  0  0  0  0  0  0
    2.7472   -1.4074    0.9514 C   0  0  0  0  0  0  0  0  0  0  0  0
    2.9578    0.8050   -0.6318 C   0  0  0  0  0  0  0  0  0  0  0  0
    4.0387    0.2625    0.0443 C   0  0  0  0  0  0  0  0  0  0  0  0
    6.3427    0.2582    0.6331 C   0  0  0  0  0  0  0  0  0  0  0  0
    7.6152    1.0339    0.3522 C   0  0  0  0  0  0  0  0  0  0  0  0
    9.0677    1.7108   -1.3668 C   0  0  0  0  0  0  0  0  0  0  0  0
   -3.6621   -2.5607    0.8459 H   0  0  0  0  0  0  0  0  0  0  0  0
   -2.5545   -3.3699   -1.7531 H   0  0  0  0  0  0  0  0  0  0  0  0
   -4.0528   -3.8596   -0.9438 H   0  0  0  0  0  0  0  0  0  0  0  0
   -5.0320   -2.6744   -2.7215 H   0  0  0  0  0  0  0  0  0  0  0  0
   -3.6058   -1.6379   -2.9186 H   0  0  0  0  0  0  0  0  0  0  0  0
   -5.7318   -1.4776   -0.7343 H   0  0  0  0  0  0  0  0  0  0  0  0
   -5.1627   -0.1806   -1.8210 H   0  0  0  0  0  0  0  0  0  0  0  0
   -3.4201   -0.1623    1.6348 H   0  0  0  0  0  0  0  0  0  0  0  0
   -5.0966   -0.4473    1.2623 H   0  0  0  0  0  0  0  0  0  0  0  0
   -2.2450    1.8712    1.0624 H   0  0  0  0  0  0  0  0  0  0  0  0
   -6.3761    1.2900   -0.0316 H   0  0  0  0  0  0  0  0  0  0  0  0
   -2.4684    4.2847    0.5912 H   0  0  0  0  0  0  0  0  0  0  0  0
   -6.5824    3.7032   -0.5054 H   0  0  0  0  0  0  0  0  0  0  0  0
   -4.6337    5.2067   -0.1941 H   0  0  0  0  0  0  0  0  0  0  0  0
    0.8667    0.6025   -1.0126 H   0  0  0  0  0  0  0  0  0  0  0  0
    2.7420   -2.2810    1.5966 H   0  0  0  0  0  0  0  0  0  0  0  0
    3.0651    1.6856   -1.2557 H   0  0  0  0  0  0  0  0  0  0  0  0
    6.4742   -0.7772    0.2948 H   0  0  0  0  0  0  0  0  0  0  0  0
    6.1387    0.2763    1.7102 H   0  0  0  0  0  0  0  0  0  0  0  0
    7.4827    2.0814    0.6470 H   0  0  0  0  0  0  0  0  0  0  0  0
    8.4496    0.6011    0.9151 H   0  0  0  0  0  0  0  0  0  0  0  0
    8.9452    2.7675   -1.1101 H   0  0  0  0  0  0  0  0  0  0  0  0
    9.9359    1.2944   -0.8467 H   0  0  0  0  0  0  0  0  0  0  0  0
    9.2354    1.6312   -2.4442 H   0  0  0  0  0  0  0  0  0  0  0  0
  1  6  1  0  0  0  0
  1 13  1  0  0  0  0
  2 25  1  0  0  0  0
  2 26  1  0  0  0  0
  3 27  1  0  0  0  0
  3 28  1  0  0  0  0
  4  8  1  0  0  0  0
  4 11  1  0  0  0  0
  4 12  1  0  0  0  0
  5 13  2  0  0  0  0
  5 17  1  0  0  0  0
  6 17  2  0  0  0  0
  7 23  1  0  0  0  0
  7 25  2  0  0  0  0
  8  9  1  0  0  0  0
  8 13  1  0  0  0  0
  8 29  1  0  0  0  0
  9 10  1  0  0  0  0
  9 30  1  0  0  0  0
  9 31  1  0  0  0  0
 10 11  1  0  0  0  0
 10 32  1  0  0  0  0
 10 33  1  0  0  0  0
 11 34  1  0  0  0  0
 11 35  1  0  0  0  0
 12 14  1  0  0  0  0
 12 36  1  0  0  0  0
 12 37  1  0  0  0  0
 14 15  2  0  0  0  0
 14 16  1  0  0  0  0
 15 18  1  0  0  0  0
 15 38  1  0  0  0  0
 16 19  2  0  0  0  0
 16 39  1  0  0  0  0
 17 20  1  0  0  0  0
 18 21  2  0  0  0  0
 18 40  1  0  0  0  0
 19 21  1  0  0  0  0
 19 41  1  0  0  0  0
 20 22  1  0  0  0  0
 20 23  2  0  0  0  0
 21 42  1  0  0  0  0
 22 24  2  0  0  0  0
 22 43  1  0  0  0  0
 23 44  1  0  0  0  0
 24 25  1  0  0  0  0
 24 45  1  0  0  0  0
 26 27  1  0  0  0  0
 26 46  1  0  0  0  0
 26 47  1  0  0  0  0
 27 48  1  0  0  0  0
 27 49  1  0  0  0  0
 28 50  1  0  0  0  0
 28 51  1  0  0  0  0
 28 52  1  0  0  0  0
M  END
> <PUBCHEM_COMPOUND_CID>
45783541

> <PUBCHEM_CONFORMER_RMSD>
1

> <PUBCHEM_CONFORMER_DIVERSEORDER>
1
16
76
83
68
80
99
6
26
25
30
63
19
88
48
60
21
45
7
4
35
59
44
100
38
37
42
94
87
50
28
43
90
8
24
66
62
2
64
52
13
85
34
93
3
41
82
31
86
47
56
14
5
92
18
51
54
23
78
81
46
33
27
69
57
55
58
77
97
72
17
61
22
73
11
53
65
89
29
75
91
36
79
49
84
98
9
71
40
10
20
12
74
70
67
96
95
15
39
32

> <PUBCHEM_MMFF94_PARTIAL_CHARGES>
34
1 -0.02
11 0.27
12 0.41
13 0.3
14 -0.14
15 -0.15
16 -0.15
17 0.46
18 -0.15
19 -0.15
2 -0.36
20 0.05
21 -0.15
22 -0.15
23 0.16
24 -0.15
25 0.39
26 0.28
27 0.28
28 0.28
3 -0.56
38 0.15
39 0.15
4 -0.81
40 0.15
41 0.15
42 0.15
43 0.15
44 0.15
45 0.15
5 -0.57
6 -0.41
7 -0.62
8 0.45

> <PUBCHEM_EFFECTIVE_ROTOR_COUNT>
9

> <PUBCHEM_PHARMACOPHORE_FEATURES>
7
1 3 acceptor
1 4 cation
3 5 6 17 cation
5 1 5 6 13 17 rings
5 4 8 9 10 11 rings
6 14 15 16 18 19 21 rings
6 7 20 22 23 24 25 rings

> <PUBCHEM_HEAVY_ATOM_COUNT>
28

> <PUBCHEM_ATOM_DEF_STEREO_COUNT>
1

> <PUBCHEM_ATOM_UDEF_STEREO_COUNT>
0

> <PUBCHEM_BOND_DEF_STEREO_COUNT>
0

> <PUBCHEM_BOND_UDEF_STEREO_COUNT>
0

> <PUBCHEM_ISOTOPIC_ATOM_COUNT>
0

> <PUBCHEM_COMPONENT_COUNT>
1

> <PUBCHEM_CACTVS_TAUTO_COUNT>
1

> <PUBCHEM_CONFORMER_ID>
02BA99F500000001

> <PUBCHEM_MMFF94_ENERGY>
63.2775

> <PUBCHEM_FEATURE_SELFOVERLAP>
35.523

> <PUBCHEM_SHAPE_FINGERPRINT>
10087517 78 18410852178979265812
10411042 1 17979354489263846451
10454371 7 18272655658101966752
10670039 82 18411414037905180689
10871710 139 18412536592981994055
10906281 52 17894639175764376802
10951579 204 18268167400541039596
11408170 253 18339095860319559704
12107183 9 18048586024194525818
12788726 201 18270660019302684919
12895837 130 18410013213205859217
13383668 90 17774727570819435974
14251764 75 17910963444281641769
14294032 229 18201999903277462619
15064981 113 17988348296055821806
15183329 4 18040989692332816942
15198563 99 18129362952495329727
15289351 153 18193553605562735392
15448158 71 18263936440630909097
155225 5 18268712718767785800
1577012 14 18407758136721978128
15876981 60 18340203115497908421
16120349 189 18189892024870895693
16992828 155 18188199893571495029
18603816 31 11963676685745118705
20511986 3 18042395842628906377
21033650 10 18270697418928066022
21236236 1 18412259549372296140
21424621 283 18333454231712189778
21756936 100 18335707156628296243
23522609 53 17603883230025123740
2838139 119 18411138078157095008
3711267 37 17386579085022758420
397830 11 11386657360165469014
4169191 19 17822010965161043244
44249763 50 17774139288958575674
44555599 121 18041285469730439548
445580 204 18410853265405148292
445580 37 18411986884128033068
44802255 64 17704074040503660798
4516262 110 18187638060424964839
508706 21 18199169836929219209
5171179 24 17844232141649344761
531348 171 18131069324868047678
563151 97 18410009936193486354
59567204 34 18412546522282374344
6086070 43 17775563140117470034
6201320 215 18272647914428809680
6299153 45 18263075514567886154
6327066 14 18267298743136079165
6328613 192 18041845133869920076
636775 72 18339076120834061832
7288768 16 17822298933970394387
7808743 9 18341044121697219825

> <PUBCHEM_SHAPE_MULTIPOLES>
538.69
20.19
4.43
1.26
48.65
2.32
-0.41
16.83
-6.11
-9.26
-0.05
-0.07
-0.69
-2.95

> <PUBCHEM_SHAPE_SELFOVERLAP>
1152.846

> <PUBCHEM_SHAPE_VOLUME>
299.9

> <PUBCHEM_COORDINATE_TYPE>
2
5
10

$$$$
