7134432
  -OEChem-12032416113D

 58 60  0     1  0  0  0  0  0999 V2000
   -3.1121   -1.6284    0.3434 S   0  0  0  0  0  0  0  0  0  0  0  0
   -5.8103   -0.4347    0.4643 S   0  0  0  0  0  0  0  0  0  0  0  0
   -2.6065    2.1683    2.2630 O   0  0  0  0  0  0  0  0  0  0  0  0
   -1.9251    3.3708   -1.1238 O   0  0  0  0  0  0  0  0  0  0  0  0
    2.3162    2.4140    1.8824 O   0  0  0  0  0  0  0  0  0  0  0  0
   -3.6819   -2.5737    1.2837 O   0  0  0  0  0  0  0  0  0  0  0  0
   -2.2254   -2.0625   -0.7183 O   0  0  0  0  0  0  0  0  0  0  0  0
    3.8130    3.2020   -1.7255 O   0  0  0  0  0  0  0  0  0  0  0  0
    2.1545   -4.8625    0.7505 O   0  0  0  0  0  0  0  0  0  0  0  0
   -2.3607   -0.3545    1.2006 N   0  0  0  0  0  0  0  0  0  0  0  0
    2.3981    1.3945   -0.2124 N   0  0  0  0  0  0  0  0  0  0  0  0
    5.5990    2.8843   -0.3162 N   0  0  0  0  0  0  0  0  0  0  0  0
   -2.5548    2.0847    0.8371 C   0  0  2  0  0  0  0  0  0  0  0  0
   -1.8350    0.7903    0.4158 C   0  0  1  0  0  0  0  0  0  0  0  0
   -1.8322    3.3263    0.2986 C   0  0  1  0  0  0  0  0  0  0  0  0
   -0.3567    3.3710    0.7327 C   0  0  0  0  0  0  0  0  0  0  0  0
    0.3083    2.0236    0.7271 C   0  0  0  0  0  0  0  0  0  0  0  0
   -0.3410    0.8593    0.5782 C   0  0  0  0  0  0  0  0  0  0  0  0
    1.7656    1.9720    0.8746 C   0  0  0  0  0  0  0  0  0  0  0  0
    3.8321    1.2351   -0.2984 C   0  0  1  0  0  0  0  0  0  0  0  0
    4.2309    0.0396   -1.1711 C   0  0  0  0  0  0  0  0  0  0  0  0
   -4.5088   -0.9262   -0.5340 C   0  0  0  0  0  0  0  0  0  0  0  0
    3.6778   -1.2678   -0.6586 C   0  0  0  0  0  0  0  0  0  0  0  0
    4.3922    2.5254   -0.8790 C   0  0  0  0  0  0  0  0  0  0  0  0
   -4.7636   -0.6933   -1.8677 C   0  0  0  0  0  0  0  0  0  0  0  0
    2.4291   -1.7138   -1.0919 C   0  0  0  0  0  0  0  0  0  0  0  0
    4.4145   -2.0299    0.2481 C   0  0  0  0  0  0  0  0  0  0  0  0
   -6.0442   -0.1033   -2.0725 C   0  0  0  0  0  0  0  0  0  0  0  0
   -6.7194    0.0921   -0.8877 C   0  0  0  0  0  0  0  0  0  0  0  0
    1.9172   -2.9218   -0.6186 C   0  0  0  0  0  0  0  0  0  0  0  0
    3.9027   -3.2380    0.7215 C   0  0  0  0  0  0  0  0  0  0  0  0
    2.6540   -3.6839    0.2881 C   0  0  0  0  0  0  0  0  0  0  0  0
    0.8722   -5.2590    0.2663 C   0  0  0  0  0  0  0  0  0  0  0  0
   -3.5866    2.0553    0.4684 H   0  0  0  0  0  0  0  0  0  0  0  0
   -2.0144    0.6238   -0.6536 H   0  0  0  0  0  0  0  0  0  0  0  0
   -2.3274    4.2291    0.6764 H   0  0  0  0  0  0  0  0  0  0  0  0
   -0.2984    3.7688    1.7537 H   0  0  0  0  0  0  0  0  0  0  0  0
    0.2014    4.0531    0.0799 H   0  0  0  0  0  0  0  0  0  0  0  0
    0.2029   -0.0823    0.5640 H   0  0  0  0  0  0  0  0  0  0  0  0
   -2.7207   -0.1191    2.1344 H   0  0  0  0  0  0  0  0  0  0  0  0
   -3.0920    2.9794    2.4909 H   0  0  0  0  0  0  0  0  0  0  0  0
   -1.4954    4.1907   -1.4213 H   0  0  0  0  0  0  0  0  0  0  0  0
    4.2154    1.0986    0.7208 H   0  0  0  0  0  0  0  0  0  0  0  0
    1.8476    1.1445   -1.0294 H   0  0  0  0  0  0  0  0  0  0  0  0
    5.3250   -0.0274   -1.2377 H   0  0  0  0  0  0  0  0  0  0  0  0
    3.8908    0.1924   -2.2048 H   0  0  0  0  0  0  0  0  0  0  0  0
   -4.0671   -0.9321   -2.6608 H   0  0  0  0  0  0  0  0  0  0  0  0
    1.8463   -1.1328   -1.8017 H   0  0  0  0  0  0  0  0  0  0  0  0
    5.3874   -1.6915    0.5944 H   0  0  0  0  0  0  0  0  0  0  0  0
   -6.4494    0.1647   -3.0396 H   0  0  0  0  0  0  0  0  0  0  0  0
   -7.7029    0.5192   -0.7516 H   0  0  0  0  0  0  0  0  0  0  0  0
    6.0745    3.7334   -0.6030 H   0  0  0  0  0  0  0  0  0  0  0  0
    6.0643    2.3178    0.3857 H   0  0  0  0  0  0  0  0  0  0  0  0
    0.9416   -3.2083   -0.9961 H   0  0  0  0  0  0  0  0  0  0  0  0
    4.4807   -3.8270    1.4282 H   0  0  0  0  0  0  0  0  0  0  0  0
    0.6308   -6.2174    0.7376 H   0  0  0  0  0  0  0  0  0  0  0  0
    0.8857   -5.4290   -0.8157 H   0  0  0  0  0  0  0  0  0  0  0  0
    0.0923   -4.5502    0.5651 H   0  0  0  0  0  0  0  0  0  0  0  0
  1  6  2  0  0  0  0
  1  7  2  0  0  0  0
  1 10  1  0  0  0  0
  1 22  1  0  0  0  0
  2 22  1  0  0  0  0
  2 29  1  0  0  0  0
  3 13  1  0  0  0  0
  3 41  1  0  0  0  0
  4 15  1  0  0  0  0
  4 42  1  0  0  0  0
  5 19  2  0  0  0  0
  8 24  2  0  0  0  0
  9 32  1  0  0  0  0
  9 33  1  0  0  0  0
 10 14  1  0  0  0  0
 10 40  1  0  0  0  0
 11 19  1  0  0  0  0
 11 20  1  0  0  0  0
 11 44  1  0  0  0  0
 12 24  1  0  0  0  0
 12 52  1  0  0  0  0
 12 53  1  0  0  0  0
 13 14  1  0  0  0  0
 13 15  1  0  0  0  0
 13 34  1  0  0  0  0
 14 18  1  0  0  0  0
 14 35  1  0  0  0  0
 15 16  1  0  0  0  0
 15 36  1  0  0  0  0
 16 17  1  0  0  0  0
 16 37  1  0  0  0  0
 16 38  1  0  0  0  0
 17 18  2  0  0  0  0
 17 19  1  0  0  0  0
 18 39  1  0  0  0  0
 20 21  1  0  0  0  0
 20 24  1  0  0  0  0
 20 43  1  0  0  0  0
 21 23  1  0  0  0  0
 21 45  1  0  0  0  0
 21 46  1  0  0  0  0
 22 25  2  0  0  0  0
 23 26  2  0  0  0  0
 23 27  1  0  0  0  0
 25 28  1  0  0  0  0
 25 47  1  0  0  0  0
 26 30  1  0  0  0  0
 26 48  1  0  0  0  0
 27 31  2  0  0  0  0
 27 49  1  0  0  0  0
 28 29  2  0  0  0  0
 28 50  1  0  0  0  0
 29 51  1  0  0  0  0
 30 32  2  0  0  0  0
 30 54  1  0  0  0  0
 31 32  1  0  0  0  0
 31 55  1  0  0  0  0
 33 56  1  0  0  0  0
 33 57  1  0  0  0  0
 33 58  1  0  0  0  0
M  END
> <PUBCHEM_COMPOUND_CID>
7134432

> <PUBCHEM_CONFORMER_RMSD>
1.2

> <PUBCHEM_CONFORMER_DIVERSEORDER>
1
138
74
77
93
39
20
150
35
167
90
92
119
97
54
86
149
144
21
80
151
129
127
112
157
117
108
58
18
111
71
81
95
145
25
34
166
63
17
115
109
48
124
30
50
159
128
85
162
143
29
83
14
47
156
152
6
105
123
114
102
89
106
88
52
133
107
62
70
120
51
161
147
160
163
66
134
130
46
141
140
100
165
126
142
91
44
32
7
131
154
43
24
68
139
57
121
118
153
103
155
136
69
33
110
146
101
22
84
67
113
55
87
158
40
37
96
56
31
23
98
148
164
122
82
125
79
76
49
132
16
59
75
9
104
42
26
72
60
73
53
64
13
36
137
10
65
28
78
45
99
8
94
116
11
135
15
41
38
4
27
3
12
5
2
19
61

> <PUBCHEM_MMFF94_PARTIAL_CHARGES>
47
1 1.5
10 -0.91
11 -0.73
12 -0.8
13 0.28
14 0.49
15 0.28
16 0.14
17 -0.12
18 -0.29
19 0.62
2 -0.08
20 0.36
21 0.14
22 -0.02
23 -0.14
24 0.57
25 -0.15
26 -0.15
27 -0.15
28 -0.15
29 -0.11
3 -0.68
30 -0.15
31 -0.15
32 0.08
33 0.28
39 0.15
4 -0.68
40 0.42
41 0.4
42 0.4
44 0.37
47 0.15
48 0.15
49 0.15
5 -0.57
50 0.15
51 0.15
52 0.37
53 0.37
54 0.15
55 0.15
6 -0.65
7 -0.65
8 -0.57
9 -0.36

> <PUBCHEM_EFFECTIVE_ROTOR_COUNT>
10.8

> <PUBCHEM_PHARMACOPHORE_FEATURES>
15
1 10 donor
1 11 donor
1 12 donor
1 3 acceptor
1 3 donor
1 4 acceptor
1 4 donor
1 5 acceptor
1 6 acceptor
1 7 acceptor
1 8 acceptor
1 9 acceptor
5 2 22 25 28 29 rings
6 13 14 15 16 17 18 rings
6 23 26 27 30 31 32 rings

> <PUBCHEM_HEAVY_ATOM_COUNT>
33

> <PUBCHEM_ATOM_DEF_STEREO_COUNT>
4

> <PUBCHEM_ATOM_UDEF_STEREO_COUNT>
0

> <PUBCHEM_BOND_DEF_STEREO_COUNT>
0

> <PUBCHEM_BOND_UDEF_STEREO_COUNT>
0

> <PUBCHEM_ISOTOPIC_ATOM_COUNT>
0

> <PUBCHEM_COMPONENT_COUNT>
1

> <PUBCHEM_CACTVS_TAUTO_COUNT>
4

> <PUBCHEM_CONFORMER_ID>
006CDCE000000001

> <PUBCHEM_MMFF94_ENERGY>
73.5663

> <PUBCHEM_FEATURE_SELFOVERLAP>
76.151

> <PUBCHEM_SHAPE_FINGERPRINT>
10675989 125 18335417954466862287
11135926 11 18337677511065616513
12788726 201 17775294846052700313
14840074 17 17846787338358364591
15183329 4 17846498154290111533
15250474 111 18341052930089626699
16628084 112 18120657934049034033
19319366 153 18339918316185056798
21703447 108 17846203497310183993
23516275 137 16627192573608394214
23559900 14 18336262426815746969
3729539 64 18335976481564473895
3882209 13 17684907138664966842
45266715 3 17627197360279150409
463206 1 18271802483927547831
5309563 4 18268441298509357915
6371009 1 18410005512456240906

> <PUBCHEM_SHAPE_MULTIPOLES>
630.8
13.03
6.24
1.56
11.4
3.91
-0.15
1.43
-5.11
-6.97
1.19
1.11
-0.55
-1.59

> <PUBCHEM_SHAPE_SELFOVERLAP>
1305.176

> <PUBCHEM_SHAPE_VOLUME>
360.7

> <PUBCHEM_COORDINATE_TYPE>
2
5
10

$$$$
