75536856
  -OEChem-12032416303D

 44 46  0     1  0  0  0  0  0999 V2000
   -4.7477   -0.5213    0.3331 F   0  0  0  0  0  0  0  0  0  0  0  0
   -4.9239    0.5886   -1.5218 F   0  0  0  0  0  0  0  0  0  0  0  0
   -5.5668    1.4928    0.3482 F   0  0  0  0  0  0  0  0  0  0  0  0
    3.6516    2.2488   -1.3365 O   0  0  0  0  0  0  0  0  0  0  0  0
    0.5712    2.7497    0.5179 O   0  0  0  0  0  0  0  0  0  0  0  0
    4.2825   -1.7109   -0.3210 O   0  0  0  0  0  0  0  0  0  0  0  0
    3.2697    0.1943    0.5794 N   0  0  0  0  0  0  0  0  0  0  0  0
   -0.8349    1.1122   -0.3285 N   0  0  0  0  0  0  0  0  0  0  0  0
   -2.6183   -4.5712   -0.0743 N   0  0  0  0  0  0  0  0  0  0  0  0
    1.6227    1.9710   -0.0479 C   0  0  2  0  0  0  0  0  0  0  0  0
    2.0704    0.9341    0.9858 C   0  0  0  0  0  0  0  0  0  0  0  0
    4.5152    0.9532    0.6165 C   0  0  0  0  0  0  0  0  0  0  0  0
    2.7336    2.9254   -0.4888 C   0  0  0  0  0  0  0  0  0  0  0  0
    4.7888    1.6781   -0.6979 C   0  0  0  0  0  0  0  0  0  0  0  0
    3.2891   -1.1153    0.0924 C   0  0  0  0  0  0  0  0  0  0  0  0
    2.0228   -1.8548    0.0569 C   0  0  0  0  0  0  0  0  0  0  0  0
   -0.6996    2.2721    0.3527 C   0  0  0  0  0  0  0  0  0  0  0  0
    1.2112   -1.7947   -1.0761 C   0  0  0  0  0  0  0  0  0  0  0  0
    1.6310   -2.6193    1.1558 C   0  0  0  0  0  0  0  0  0  0  0  0
   -1.7606    2.9888    0.8823 C   0  0  0  0  0  0  0  0  0  0  0  0
    0.0080   -2.4992   -1.1099 C   0  0  0  0  0  0  0  0  0  0  0  0
    0.4278   -3.3239    1.1218 C   0  0  0  0  0  0  0  0  0  0  0  0
   -3.0430    2.4826    0.7011 C   0  0  0  0  0  0  0  0  0  0  0  0
   -3.2226    1.2921    0.0056 C   0  0  0  0  0  0  0  0  0  0  0  0
   -0.3838   -3.2639   -0.0111 C   0  0  0  0  0  0  0  0  0  0  0  0
   -2.0963    0.6513   -0.4848 C   0  0  0  0  0  0  0  0  0  0  0  0
   -4.5812    0.7248   -0.2050 C   0  0  0  0  0  0  0  0  0  0  0  0
   -1.6169   -3.9853   -0.0460 C   0  0  0  0  0  0  0  0  0  0  0  0
    1.3133    1.4502   -0.9645 H   0  0  0  0  0  0  0  0  0  0  0  0
    2.2846    1.4235    1.9449 H   0  0  0  0  0  0  0  0  0  0  0  0
    1.2485    0.2467    1.2027 H   0  0  0  0  0  0  0  0  0  0  0  0
    5.3516    0.2789    0.8346 H   0  0  0  0  0  0  0  0  0  0  0  0
    4.4648    1.6656    1.4479 H   0  0  0  0  0  0  0  0  0  0  0  0
    2.2885    3.7330   -1.0820 H   0  0  0  0  0  0  0  0  0  0  0  0
    3.2334    3.4144    0.3562 H   0  0  0  0  0  0  0  0  0  0  0  0
    5.5361    2.4641   -0.5414 H   0  0  0  0  0  0  0  0  0  0  0  0
    5.2204    0.9734   -1.4174 H   0  0  0  0  0  0  0  0  0  0  0  0
    1.5066   -1.2009   -1.9373 H   0  0  0  0  0  0  0  0  0  0  0  0
    2.2559   -2.6725    2.0436 H   0  0  0  0  0  0  0  0  0  0  0  0
   -1.6033    3.9160    1.4224 H   0  0  0  0  0  0  0  0  0  0  0  0
   -0.6142   -2.4418   -1.9999 H   0  0  0  0  0  0  0  0  0  0  0  0
    0.1358   -3.9152    1.9864 H   0  0  0  0  0  0  0  0  0  0  0  0
   -3.8890    3.0289    1.1084 H   0  0  0  0  0  0  0  0  0  0  0  0
   -2.1768   -0.2789   -1.0379 H   0  0  0  0  0  0  0  0  0  0  0  0
  1 27  1  0  0  0  0
  2 27  1  0  0  0  0
  3 27  1  0  0  0  0
  4 13  1  0  0  0  0
  4 14  1  0  0  0  0
  5 10  1  0  0  0  0
  5 17  1  0  0  0  0
  6 15  2  0  0  0  0
  7 11  1  0  0  0  0
  7 12  1  0  0  0  0
  7 15  1  0  0  0  0
  8 17  2  0  0  0  0
  8 26  1  0  0  0  0
  9 28  3  0  0  0  0
 10 11  1  0  0  0  0
 10 13  1  0  0  0  0
 10 29  1  0  0  0  0
 11 30  1  0  0  0  0
 11 31  1  0  0  0  0
 12 14  1  0  0  0  0
 12 32  1  0  0  0  0
 12 33  1  0  0  0  0
 13 34  1  0  0  0  0
 13 35  1  0  0  0  0
 14 36  1  0  0  0  0
 14 37  1  0  0  0  0
 15 16  1  0  0  0  0
 16 18  2  0  0  0  0
 16 19  1  0  0  0  0
 17 20  1  0  0  0  0
 18 21  1  0  0  0  0
 18 38  1  0  0  0  0
 19 22  2  0  0  0  0
 19 39  1  0  0  0  0
 20 23  2  0  0  0  0
 20 40  1  0  0  0  0
 21 25  2  0  0  0  0
 21 41  1  0  0  0  0
 22 25  1  0  0  0  0
 22 42  1  0  0  0  0
 23 24  1  0  0  0  0
 23 43  1  0  0  0  0
 24 26  2  0  0  0  0
 24 27  1  0  0  0  0
 25 28  1  0  0  0  0
 26 44  1  0  0  0  0
M  END
> <PUBCHEM_COMPOUND_CID>
75536856

> <PUBCHEM_CONFORMER_RMSD>
0.8

> <PUBCHEM_CONFORMER_DIVERSEORDER>
3
123
74
226
92
127
182
153
235
13
197
151
121
233
138
48
2
136
95
43
106
96
84
16
135
62
207
125
192
213
129
137
246
229
231
230
200
154
178
119
113
54
232
76
39
58
27
101
177
245
147
214
225
11
228
111
42
9
205
21
26
203
238
85
156
108
175
87
195
219
50
91
181
29
158
193
132
150
180
173
187
41
208
222
30
140
124
239
152
241
61
201
243
70
130
209
149
23
64
189
71
224
227
212
14
93
34
240
199
56
176
45
131
69
114
49
157
198
72
17
19
218
79
1
94
185
204
44
160
190
244
15
28
126
83
159
146
5
68
165
236
134
112
168
164
32
18
55
223
167
162
128
196
103
179
234
46
8
221
163
36
40
107
120
143
116
122
73
77
174
33
37
139
186
144
110
59
75
109
191
80
142
12
89
166
104
66
172
97
118
211
35
171
31
155
105
215
88
237
47
133
60
220
183
57
169
24
82
65
188
78
98
145
184
90
53
6
86
22
216
117
210
20
38
63
141
4
194
81
52
51
161
99
7
115
102
67
242
170
100
25
217
10
206
202
148

> <PUBCHEM_MMFF94_PARTIAL_CHARGES>
35
1 -0.34
10 0.28
11 0.3
12 0.3
13 0.28
14 0.28
15 0.54
16 0.09
17 0.39
18 -0.15
19 -0.15
2 -0.34
20 -0.15
21 -0.15
22 -0.15
23 -0.15
24 -0.14
25 0.07
26 0.16
27 1.16
28 0.48
3 -0.34
38 0.15
39 0.15
4 -0.56
40 0.15
41 0.15
42 0.15
43 0.15
44 0.15
5 -0.36
6 -0.57
7 -0.66
8 -0.62
9 -0.56

> <PUBCHEM_EFFECTIVE_ROTOR_COUNT>
6.4

> <PUBCHEM_PHARMACOPHORE_FEATURES>
6
1 4 acceptor
1 6 acceptor
1 9 acceptor
6 16 18 19 21 22 25 rings
6 8 17 20 23 24 26 rings
7 4 7 10 11 12 13 14 rings

> <PUBCHEM_HEAVY_ATOM_COUNT>
28

> <PUBCHEM_ATOM_DEF_STEREO_COUNT>
1

> <PUBCHEM_ATOM_UDEF_STEREO_COUNT>
0

> <PUBCHEM_BOND_DEF_STEREO_COUNT>
0

> <PUBCHEM_BOND_UDEF_STEREO_COUNT>
0

> <PUBCHEM_ISOTOPIC_ATOM_COUNT>
0

> <PUBCHEM_COMPONENT_COUNT>
1

> <PUBCHEM_CACTVS_TAUTO_COUNT>
1

> <PUBCHEM_CONFORMER_ID>
048099D800000003

> <PUBCHEM_MMFF94_ENERGY>
78.3045

> <PUBCHEM_FEATURE_SELFOVERLAP>
30.448

> <PUBCHEM_SHAPE_FINGERPRINT>
10090160 65 18408879612127099829
104564 63 17977670041459191500
1100329 8 18409725166871039794
11285246 1 16616505028597746542
11513181 2 18131634478049911255
12156800 1 17979885496774569298
12553582 1 17402052193066161920
12788726 201 17687758550667842692
13122387 1 17475513876722874587
13140716 1 18196075871401600208
1361 2 18409166580599025801
138480 1 17546165203562262050
14117953 113 17402882333204164631
14178342 30 17837480857018774568
14790565 3 18411987927367716873
15483637 11 18193838365460849211
15968369 153 17698431467094460871
16728300 4 17029071516945107194
17138139 8 17986370386511927661
17492 54 18117018623490845036
19591789 44 18267585702437490250
19930381 70 17977946783339887107
20028762 73 18128528276308067854
20764821 26 18409729586471632395
21133410 90 17058936756494063995
21197605 99 18267309914251200539
21304303 94 18267608861033058892
21421861 104 18124606271287383289
23559900 14 18122897638802485449
238 59 18264500498226184264
3014063 31 17762334012889397271
3052486 1 18262804111125674358
338550 245 18262240048364240844
392239 28 18410862019076518827
463206 1 18342734135288204105
5171179 24 17124230271337057408
653340 110 17765143265219736648
7097593 13 16970551015483545579

> <PUBCHEM_SHAPE_MULTIPOLES>
521.85
9.06
5.64
1.07
4.78
4.98
-0.08
-5.06
-1.07
1.43
0.46
-0.18
0.07
-0.92

> <PUBCHEM_SHAPE_SELFOVERLAP>
1121.659

> <PUBCHEM_SHAPE_VOLUME>
285.5

> <PUBCHEM_COORDINATE_TYPE>
2
5
10

$$$$
