45784407
  -OEChem-12032416413D

 66 67  0     1  0  0  0  0  0999 V2000
    0.8718    1.3134   -0.7879 O   0  0  0  0  0  0  0  0  0  0  0  0
    4.7631   -2.1952   -0.3693 O   0  0  0  0  0  0  0  0  0  0  0  0
   -5.5465    0.6967    1.6330 O   0  0  0  0  0  0  0  0  0  0  0  0
   -7.7647    1.4223    0.2912 O   0  0  0  0  0  0  0  0  0  0  0  0
   -4.4084    0.1942   -0.3312 N   0  0  0  0  0  0  0  0  0  0  0  0
    5.1180   -0.1571    0.6672 N   0  0  0  0  0  0  0  0  0  0  0  0
    4.9719    4.7055    0.3613 N   0  0  0  0  0  0  0  0  0  0  0  0
   -0.7420   -1.9852    0.2568 C   0  0  1  0  0  0  0  0  0  0  0  0
   -0.6201   -0.4457    0.0026 C   0  0  2  0  0  0  0  0  0  0  0  0
   -1.9413    0.1229   -0.6288 C   0  0  1  0  0  0  0  0  0  0  0  0
    0.6890   -0.1031   -0.7650 C   0  0  2  0  0  0  0  0  0  0  0  0
    0.5282   -2.4907    0.9808 C   0  0  0  0  0  0  0  0  0  0  0  0
    1.9468   -0.7001   -0.0919 C   0  0  1  0  0  0  0  0  0  0  0  0
   -1.9496   -2.2486    1.1858 C   0  0  0  0  0  0  0  0  0  0  0  0
   -3.1592   -0.2135    0.2769 C   0  0  2  0  0  0  0  0  0  0  0  0
    1.8088   -2.1917    0.2128 C   0  0  0  0  0  0  0  0  0  0  0  0
   -3.2572   -1.6954    0.6377 C   0  0  0  0  0  0  0  0  0  0  0  0
   -0.9217   -2.7913   -1.0545 C   0  0  0  0  0  0  0  0  0  0  0  0
    3.2083   -0.4633   -0.9314 C   0  0  2  0  0  0  0  0  0  0  0  0
   -1.9009    1.6399   -0.8791 C   0  0  0  0  0  0  0  0  0  0  0  0
    3.0421   -1.1273   -2.2993 C   0  0  0  0  0  0  0  0  0  0  0  0
    4.4314   -1.0172   -0.1964 C   0  0  0  0  0  0  0  0  0  0  0  0
   -5.4997    0.6164    0.4085 C   0  0  0  0  0  0  0  0  0  0  0  0
   -6.6682    0.9822   -0.4815 C   0  0  0  0  0  0  0  0  0  0  0  0
    4.8141    1.2532    0.9006 C   0  0  0  0  0  0  0  0  0  0  0  0
    6.2751   -0.6602    1.3998 C   0  0  0  0  0  0  0  0  0  0  0  0
    5.5608    2.1757   -0.0553 C   0  0  0  0  0  0  0  0  0  0  0  0
   -8.8807    1.7738   -0.5218 C   0  0  0  0  0  0  0  0  0  0  0  0
    5.2310    3.5894    0.1782 C   0  0  0  0  0  0  0  0  0  0  0  0
   -0.5319    0.0443    0.9857 H   0  0  0  0  0  0  0  0  0  0  0  0
   -2.0950   -0.3442   -1.6098 H   0  0  0  0  0  0  0  0  0  0  0  0
    0.5664   -0.4313   -1.7986 H   0  0  0  0  0  0  0  0  0  0  0  0
    0.5984   -2.0226    1.9721 H   0  0  0  0  0  0  0  0  0  0  0  0
    0.4598   -3.5718    1.1583 H   0  0  0  0  0  0  0  0  0  0  0  0
    2.0842   -0.1873    0.8708 H   0  0  0  0  0  0  0  0  0  0  0  0
   -1.7657   -1.7926    2.1680 H   0  0  0  0  0  0  0  0  0  0  0  0
   -2.0638   -3.3254    1.3648 H   0  0  0  0  0  0  0  0  0  0  0  0
   -3.0488    0.3498    1.2139 H   0  0  0  0  0  0  0  0  0  0  0  0
    2.6346   -2.5354    0.8455 H   0  0  0  0  0  0  0  0  0  0  0  0
    1.8233   -2.8188   -0.6801 H   0  0  0  0  0  0  0  0  0  0  0  0
   -3.5755   -2.2772   -0.2360 H   0  0  0  0  0  0  0  0  0  0  0  0
   -4.0452   -1.8438    1.3874 H   0  0  0  0  0  0  0  0  0  0  0  0
   -1.8445   -2.5407   -1.5839 H   0  0  0  0  0  0  0  0  0  0  0  0
   -0.9576   -3.8666   -0.8434 H   0  0  0  0  0  0  0  0  0  0  0  0
   -0.1045   -2.6268   -1.7622 H   0  0  0  0  0  0  0  0  0  0  0  0
    3.3480    0.6036   -1.1237 H   0  0  0  0  0  0  0  0  0  0  0  0
   -1.5865    2.1826    0.0183 H   0  0  0  0  0  0  0  0  0  0  0  0
   -2.8787    2.0317   -1.1774 H   0  0  0  0  0  0  0  0  0  0  0  0
   -1.2252    1.8862   -1.7029 H   0  0  0  0  0  0  0  0  0  0  0  0
   -4.5004    0.1040   -1.3392 H   0  0  0  0  0  0  0  0  0  0  0  0
    0.9349    1.6248    0.1311 H   0  0  0  0  0  0  0  0  0  0  0  0
    2.8746   -2.2058   -2.2699 H   0  0  0  0  0  0  0  0  0  0  0  0
    3.9728   -0.9969   -2.8676 H   0  0  0  0  0  0  0  0  0  0  0  0
    2.2623   -0.6629   -2.9074 H   0  0  0  0  0  0  0  0  0  0  0  0
   -6.9524    0.0967   -1.0620 H   0  0  0  0  0  0  0  0  0  0  0  0
   -6.3489    1.7786   -1.1639 H   0  0  0  0  0  0  0  0  0  0  0  0
    3.7363    1.4183    0.8113 H   0  0  0  0  0  0  0  0  0  0  0  0
    5.0639    1.4949    1.9418 H   0  0  0  0  0  0  0  0  0  0  0  0
    6.0879   -0.5532    2.4725 H   0  0  0  0  0  0  0  0  0  0  0  0
    6.4708   -1.7135    1.1843 H   0  0  0  0  0  0  0  0  0  0  0  0
    7.1574   -0.0770    1.1214 H   0  0  0  0  0  0  0  0  0  0  0  0
    5.3268    1.9142   -1.0937 H   0  0  0  0  0  0  0  0  0  0  0  0
    6.6421    2.0358    0.0586 H   0  0  0  0  0  0  0  0  0  0  0  0
   -9.6916    2.1042    0.1326 H   0  0  0  0  0  0  0  0  0  0  0  0
   -9.2235    0.9071   -1.0951 H   0  0  0  0  0  0  0  0  0  0  0  0
   -8.6181    2.5940   -1.1968 H   0  0  0  0  0  0  0  0  0  0  0  0
  1 11  1  0  0  0  0
  1 51  1  0  0  0  0
  2 22  2  0  0  0  0
  3 23  2  0  0  0  0
  4 24  1  0  0  0  0
  4 28  1  0  0  0  0
  5 15  1  0  0  0  0
  5 23  1  0  0  0  0
  5 50  1  0  0  0  0
  6 22  1  0  0  0  0
  6 25  1  0  0  0  0
  6 26  1  0  0  0  0
  7 29  3  0  0  0  0
  8  9  1  0  0  0  0
  8 12  1  0  0  0  0
  8 14  1  0  0  0  0
  8 18  1  0  0  0  0
  9 10  1  0  0  0  0
  9 11  1  0  0  0  0
  9 30  1  0  0  0  0
 10 15  1  0  0  0  0
 10 20  1  0  0  0  0
 10 31  1  0  0  0  0
 11 13  1  0  0  0  0
 11 32  1  0  0  0  0
 12 16  1  0  0  0  0
 12 33  1  0  0  0  0
 12 34  1  0  0  0  0
 13 16  1  0  0  0  0
 13 19  1  0  0  0  0
 13 35  1  0  0  0  0
 14 17  1  0  0  0  0
 14 36  1  0  0  0  0
 14 37  1  0  0  0  0
 15 17  1  0  0  0  0
 15 38  1  0  0  0  0
 16 39  1  0  0  0  0
 16 40  1  0  0  0  0
 17 41  1  0  0  0  0
 17 42  1  0  0  0  0
 18 43  1  0  0  0  0
 18 44  1  0  0  0  0
 18 45  1  0  0  0  0
 19 21  1  0  0  0  0
 19 22  1  0  0  0  0
 19 46  1  0  0  0  0
 20 47  1  0  0  0  0
 20 48  1  0  0  0  0
 20 49  1  0  0  0  0
 21 52  1  0  0  0  0
 21 53  1  0  0  0  0
 21 54  1  0  0  0  0
 23 24  1  0  0  0  0
 24 55  1  0  0  0  0
 24 56  1  0  0  0  0
 25 27  1  0  0  0  0
 25 57  1  0  0  0  0
 25 58  1  0  0  0  0
 26 59  1  0  0  0  0
 26 60  1  0  0  0  0
 26 61  1  0  0  0  0
 27 29  1  0  0  0  0
 27 62  1  0  0  0  0
 27 63  1  0  0  0  0
 28 64  1  0  0  0  0
 28 65  1  0  0  0  0
 28 66  1  0  0  0  0
M  END
> <PUBCHEM_COMPOUND_CID>
45784407

> <PUBCHEM_CONFORMER_RMSD>
1

> <PUBCHEM_CONFORMER_DIVERSEORDER>
1
34
66
26
97
52
75
32
63
4
79
46
23
95
49
38
62
33
53
70
40
92
15
55
77
36
89
45
56
20
74
29
67
60
47
93
51
39
85
31
64
94
2
58
71
3
21
69
44
12
13
91
42
88
65
8
7
16
87
72
50
28
30
84
61
90
37
25
96
68
9
27
73
59
11
80
86
10
81
22
19
83
54
76
14
82
24
78
35
17
18
98
48
41
5
57
43
6

> <PUBCHEM_MMFF94_PARTIAL_CHARGES>
20
1 -0.68
11 0.28
15 0.3
19 0.06
2 -0.57
22 0.57
23 0.57
24 0.34
25 0.3
26 0.3
27 0.2
28 0.28
29 0.36
3 -0.57
4 -0.56
5 -0.73
50 0.37
51 0.4
6 -0.66
7 -0.56

> <PUBCHEM_EFFECTIVE_ROTOR_COUNT>
10.6

> <PUBCHEM_PHARMACOPHORE_FEATURES>
10
1 1 acceptor
1 1 donor
1 2 acceptor
1 21 hydrophobe
1 3 acceptor
1 4 acceptor
1 5 donor
1 7 acceptor
6 8 9 10 14 15 17 rings
6 8 9 11 12 13 16 rings

> <PUBCHEM_HEAVY_ATOM_COUNT>
29

> <PUBCHEM_ATOM_DEF_STEREO_COUNT>
6

> <PUBCHEM_ATOM_UDEF_STEREO_COUNT>
1

> <PUBCHEM_BOND_DEF_STEREO_COUNT>
0

> <PUBCHEM_BOND_UDEF_STEREO_COUNT>
0

> <PUBCHEM_ISOTOPIC_ATOM_COUNT>
0

> <PUBCHEM_COMPONENT_COUNT>
1

> <PUBCHEM_CACTVS_TAUTO_COUNT>
2

> <PUBCHEM_CONFORMER_ID>
02BA9D5700000001

> <PUBCHEM_MMFF94_ENERGY>
80.9484

> <PUBCHEM_FEATURE_SELFOVERLAP>
50.768

> <PUBCHEM_SHAPE_FINGERPRINT>
10 15 17894914026872595937
10693767 8 9079118817352959809
11578080 2 18268996551680398602
12422481 6 17531242893864242212
12838862 33 18188195525784029909
12925494 130 18195523920511758096
13140716 1 18188215423745234255
13782708 43 10953731227226875561
14790565 3 18412265034034977144
15238133 3 17749400268596481470
15840311 113 18410293593044849045
16120349 18 18411131433885282333
20715895 44 18412545418454004784
21033648 29 18270107024397361562
21150785 3 16271918295374843707
21315764 268 18334288747910221940
21792934 111 17895189970527892421
21859007 373 17604132741164524173
22224240 67 18260266327089245899
23559900 14 18412269437368622406
24771293 8 18335138722080687941
27425 322 18342737433485867879
2838139 119 18335692824216583535
335352 9 18187653461713828575
3472631 163 18342738537513670638
34797466 226 17917715652503103543
3680242 22 18113622291727543504
4093350 32 17704072854775921951
4340502 62 16370730292555392395
5104073 3 18188213211926813274

> <PUBCHEM_SHAPE_MULTIPOLES>
558.39
18.66
3.69
1.28
25.89
2.96
0.24
16.91
-2.78
-5.03
-0.38
-0.56
-0.42
1.13

> <PUBCHEM_SHAPE_SELFOVERLAP>
1124.431

> <PUBCHEM_SHAPE_VOLUME>
321.8

> <PUBCHEM_COORDINATE_TYPE>
2
5
10

$$$$
