11887241
  -OEChem-12032416173D

 54 59  0     1  0  0  0  0  0999 V2000
    0.3652   -3.2360   -1.0282 O   0  0  0  0  0  0  0  0  0  0  0  0
    0.7795   -0.2330   -1.8657 O   0  0  0  0  0  0  0  0  0  0  0  0
   -3.8218   -2.1723   -0.5502 O   0  0  0  0  0  0  0  0  0  0  0  0
   -5.4351   -0.3291    0.5665 O   0  0  0  0  0  0  0  0  0  0  0  0
    3.8761    3.7146    0.3224 O   0  0  0  0  0  0  0  0  0  0  0  0
    5.9115    3.4787   -0.9461 O   0  0  0  0  0  0  0  0  0  0  0  0
    2.7753   -1.8638    0.7220 N   0  0  0  0  0  0  0  0  0  0  0  0
   -2.1649   -0.6001   -0.9921 N   0  0  0  0  0  0  0  0  0  0  0  0
    2.4123   -2.8564    1.5405 N   0  0  0  0  0  0  0  0  0  0  0  0
    3.9256   -1.5485    2.5252 N   0  0  0  0  0  0  0  0  0  0  0  0
    3.1210   -2.6590    2.6454 N   0  0  0  0  0  0  0  0  0  0  0  0
    0.9029   -0.9490   -0.6233 C   0  0  1  0  0  0  0  0  0  0  0  0
   -0.2000   -1.9891   -0.5942 C   0  0  1  0  0  0  0  0  0  0  0  0
    2.1900   -1.7518   -0.6166 C   0  0  2  0  0  0  0  0  0  0  0  0
   -1.2096   -1.4916   -1.6041 C   0  0  2  0  0  0  0  0  0  0  0  0
    1.7726   -3.0738   -1.2514 C   0  0  0  0  0  0  0  0  0  0  0  0
   -0.3340   -0.7574   -2.6024 C   0  0  0  0  0  0  0  0  0  0  0  0
    3.6945   -1.0720    1.3235 C   0  0  0  0  0  0  0  0  0  0  0  0
   -3.3981   -1.0202   -0.5142 C   0  0  0  0  0  0  0  0  0  0  0  0
    4.2972    0.0894    0.7212 C   0  0  0  0  0  0  0  0  0  0  0  0
   -4.1919    0.1258    0.0759 C   0  0  0  0  0  0  0  0  0  0  0  0
    3.6987    1.3436    0.8759 C   0  0  0  0  0  0  0  0  0  0  0  0
    5.4858   -0.0460   -0.0202 C   0  0  0  0  0  0  0  0  0  0  0  0
    4.3126    2.4263    0.2804 C   0  0  0  0  0  0  0  0  0  0  0  0
    6.0873    1.0668   -0.6130 C   0  0  0  0  0  0  0  0  0  0  0  0
    5.4749    2.2916   -0.4440 C   0  0  0  0  0  0  0  0  0  0  0  0
    4.8942    4.3759   -0.4562 C   0  0  0  0  0  0  0  0  0  0  0  0
   -6.4827    0.5608    0.5433 C   0  0  0  0  0  0  0  0  0  0  0  0
   -6.2284    1.9196    0.6678 C   0  0  0  0  0  0  0  0  0  0  0  0
   -7.7790    0.0867    0.3962 C   0  0  0  0  0  0  0  0  0  0  0  0
   -7.2916    2.8223    0.6450 C   0  0  0  0  0  0  0  0  0  0  0  0
   -8.8419    0.9895    0.3732 C   0  0  0  0  0  0  0  0  0  0  0  0
   -8.5983    2.3573    0.4977 C   0  0  0  0  0  0  0  0  0  0  0  0
    0.8179   -0.2153    0.1845 H   0  0  0  0  0  0  0  0  0  0  0  0
   -0.6079   -2.1478    0.4093 H   0  0  0  0  0  0  0  0  0  0  0  0
    2.9664   -1.2974   -1.2428 H   0  0  0  0  0  0  0  0  0  0  0  0
   -1.7548   -2.3054   -2.0944 H   0  0  0  0  0  0  0  0  0  0  0  0
    2.3081   -3.9500   -0.8742 H   0  0  0  0  0  0  0  0  0  0  0  0
    1.9183   -3.0365   -2.3370 H   0  0  0  0  0  0  0  0  0  0  0  0
    0.0677   -1.4466   -3.3534 H   0  0  0  0  0  0  0  0  0  0  0  0
   -0.8437    0.0599   -3.1216 H   0  0  0  0  0  0  0  0  0  0  0  0
   -1.8946    0.3709   -0.8611 H   0  0  0  0  0  0  0  0  0  0  0  0
   -4.3112    0.8603   -0.7319 H   0  0  0  0  0  0  0  0  0  0  0  0
   -3.6126    0.5628    0.8974 H   0  0  0  0  0  0  0  0  0  0  0  0
    2.7817    1.4703    1.4426 H   0  0  0  0  0  0  0  0  0  0  0  0
    5.9514   -1.0219   -0.1411 H   0  0  0  0  0  0  0  0  0  0  0  0
    7.0025    0.9650   -1.1850 H   0  0  0  0  0  0  0  0  0  0  0  0
    5.3714    5.1407    0.1674 H   0  0  0  0  0  0  0  0  0  0  0  0
    4.4175    4.8670   -1.3124 H   0  0  0  0  0  0  0  0  0  0  0  0
   -5.2291    2.3184    0.8120 H   0  0  0  0  0  0  0  0  0  0  0  0
   -7.9721   -0.9777    0.2991 H   0  0  0  0  0  0  0  0  0  0  0  0
   -7.1030    3.8869    0.7483 H   0  0  0  0  0  0  0  0  0  0  0  0
   -9.8595    0.6275    0.2589 H   0  0  0  0  0  0  0  0  0  0  0  0
   -9.4261    3.0600    0.4814 H   0  0  0  0  0  0  0  0  0  0  0  0
  1 13  1  0  0  0  0
  1 16  1  0  0  0  0
  2 12  1  0  0  0  0
  2 17  1  0  0  0  0
  3 19  2  0  0  0  0
  4 21  1  0  0  0  0
  4 28  1  0  0  0  0
  5 24  1  0  0  0  0
  5 27  1  0  0  0  0
  6 26  1  0  0  0  0
  6 27  1  0  0  0  0
  7  9  1  0  0  0  0
  7 14  1  0  0  0  0
  7 18  1  0  0  0  0
  8 15  1  0  0  0  0
  8 19  1  0  0  0  0
  8 42  1  0  0  0  0
  9 11  2  0  0  0  0
 10 11  1  0  0  0  0
 10 18  2  0  0  0  0
 12 13  1  0  0  0  0
 12 14  1  0  0  0  0
 12 34  1  0  0  0  0
 13 15  1  0  0  0  0
 13 35  1  0  0  0  0
 14 16  1  0  0  0  0
 14 36  1  0  0  0  0
 15 17  1  0  0  0  0
 15 37  1  0  0  0  0
 16 38  1  0  0  0  0
 16 39  1  0  0  0  0
 17 40  1  0  0  0  0
 17 41  1  0  0  0  0
 18 20  1  0  0  0  0
 19 21  1  0  0  0  0
 20 22  2  0  0  0  0
 20 23  1  0  0  0  0
 21 43  1  0  0  0  0
 21 44  1  0  0  0  0
 22 24  1  0  0  0  0
 22 45  1  0  0  0  0
 23 25  2  0  0  0  0
 23 46  1  0  0  0  0
 24 26  2  0  0  0  0
 25 26  1  0  0  0  0
 25 47  1  0  0  0  0
 27 48  1  0  0  0  0
 27 49  1  0  0  0  0
 28 29  2  0  0  0  0
 28 30  1  0  0  0  0
 29 31  1  0  0  0  0
 29 50  1  0  0  0  0
 30 32  2  0  0  0  0
 30 51  1  0  0  0  0
 31 33  2  0  0  0  0
 31 52  1  0  0  0  0
 32 33  1  0  0  0  0
 32 53  1  0  0  0  0
 33 54  1  0  0  0  0
M  END
> <PUBCHEM_COMPOUND_CID>
11887241

> <PUBCHEM_CONFORMER_RMSD>
1.2

> <PUBCHEM_CONFORMER_DIVERSEORDER>
1
186
371
26
260
126
84
178
390
125
435
61
321
244
259
360
322
96
377
495
484
179
253
30
9
167
369
7
295
352
205
206
37
304
209
399
56
23
443
33
489
119
155
230
121
197
367
130
57
330
312
193
159
192
19
365
329
175
185
293
49
487
311
203
69
92
16
135
168
229
12
327
471
11
44
483
301
325
13
249
53
189
142
103
5
169
255
38
147
223
144
6
382
285
64
21
298
143
188
215
420
388
46
139
120
79
394
89
165
65
2
43
239
99
31
160
45
300
166
338
217
97
413
17
324
100
62
387
73
231
78
60
124
3
210
141
116
85
288
331
82
403
58
25

> <PUBCHEM_MMFF94_PARTIAL_CHARGES>
41
1 -0.56
10 -0.34
12 0.28
13 0.28
14 0.26
15 0.3
16 0.28
17 0.28
18 0.13
19 0.57
2 -0.56
20 0.05
21 0.34
22 -0.15
23 -0.15
24 0.08
25 -0.15
26 0.08
27 0.56
28 0.08
29 -0.15
3 -0.57
30 -0.15
31 -0.15
32 -0.15
33 -0.15
4 -0.36
42 0.37
45 0.15
46 0.15
47 0.15
5 -0.36
50 0.15
51 0.15
52 0.15
53 0.15
54 0.15
6 -0.36
7 0.31
8 -0.73
9 -0.42

> <PUBCHEM_EFFECTIVE_ROTOR_COUNT>
8.8

> <PUBCHEM_PHARMACOPHORE_FEATURES>
14
1 1 acceptor
1 2 acceptor
1 3 acceptor
1 4 acceptor
1 5 acceptor
1 6 acceptor
1 8 donor
3 7 10 18 cation
5 1 12 13 14 16 rings
5 2 12 13 15 17 rings
5 5 6 24 26 27 rings
5 7 9 10 11 18 rings
6 20 22 23 24 25 26 rings
6 28 29 30 31 32 33 rings

> <PUBCHEM_HEAVY_ATOM_COUNT>
33

> <PUBCHEM_ATOM_DEF_STEREO_COUNT>
4

> <PUBCHEM_ATOM_UDEF_STEREO_COUNT>
0

> <PUBCHEM_BOND_DEF_STEREO_COUNT>
0

> <PUBCHEM_BOND_UDEF_STEREO_COUNT>
0

> <PUBCHEM_ISOTOPIC_ATOM_COUNT>
0

> <PUBCHEM_COMPONENT_COUNT>
1

> <PUBCHEM_CACTVS_TAUTO_COUNT>
2

> <PUBCHEM_CONFORMER_ID>
00B5628900000001

> <PUBCHEM_MMFF94_ENERGY>
88.7997

> <PUBCHEM_FEATURE_SELFOVERLAP>
71.906

> <PUBCHEM_SHAPE_FINGERPRINT>
10 15 18411984646793008811
10165383 225 17458069275146686358
10190108 129 17822009796766746004
10674148 151 18271530901352621108
10693767 8 10303818665681578301
10816530 90 18343026571058280364
11479125 193 17908147920724154984
11505856 67 17770206477558406759
11578821 258 18198062488000036217
11828532 37 14907887336571708975
12047536 79 17896033261602482589
12342043 65 16300059101023438130
12522641 24 18040713624250771978
13782708 43 12829500238341857131
13944108 23 18342461396185621168
14251764 75 18265050417687107732
14347424 109 18115021901437040707
14565420 104 18333449863229497570
14951699 99 18410016541989831253
15198563 99 17266372939320325391
15238133 3 18059281145986647018
15392192 104 16733848487431916035
15840311 113 18409171012778363781
19841028 212 9367078743819766724
20567600 234 18341609292438993615
20567600 247 8430316844302995397
20691028 202 18342172327622107669
21344244 78 15863793889616987623
21796203 349 17316167304835257154
22122407 14 18410300219836593201
3178227 256 18040425595812772330
3411729 13 18410295821705308725
4169191 19 18342177744446468325
4258327 124 18201439199570883431
5109719 28 18342469153470973289
6695519 79 17241869042810600698

> <PUBCHEM_SHAPE_MULTIPOLES>
619
22.93
4.57
1.76
52.45
2.93
-0.3
23.68
-5.89
-6.21
0.29
-1.92
-1.41
-3.29

> <PUBCHEM_SHAPE_SELFOVERLAP>
1372.38

> <PUBCHEM_SHAPE_VOLUME>
332.4

> <PUBCHEM_COORDINATE_TYPE>
2
5
10

$$$$
