7164880
  -OEChem-12032416233D

 68 71  0     1  0  0  0  0  0999 V2000
   -4.6187   -1.2918   -1.2380 S   0  0  0  0  0  0  0  0  0  0  0  0
    2.2042    0.9328    2.5892 S   0  0  0  0  0  0  0  0  0  0  0  0
   -5.4435   -2.3684   -0.7333 O   0  0  0  0  0  0  0  0  0  0  0  0
   -4.1429   -1.2941   -2.6046 O   0  0  0  0  0  0  0  0  0  0  0  0
   -0.6812   -2.5251    0.0921 O   0  0  0  0  0  0  0  0  0  0  0  0
   -0.6548    0.2474    3.8496 O   0  0  0  0  0  0  0  0  0  0  0  0
    3.6514   -3.6389    0.0045 O   0  0  0  0  0  0  0  0  0  0  0  0
    2.6948   -2.1011    1.4216 O   0  0  0  0  0  0  0  0  0  0  0  0
    6.2152    2.7721   -0.7936 O   0  0  0  0  0  0  0  0  0  0  0  0
   -3.2854   -1.0692   -0.1859 N   0  0  1  0  0  0  0  0  0  0  0  0
   -1.2887   -0.1829    1.6582 N   0  0  0  0  0  0  0  0  0  0  0  0
    1.0536   -1.1152   -0.5572 N   0  0  0  0  0  0  0  0  0  0  0  0
   -1.0065   -0.1606    0.2118 C   0  0  2  0  0  0  0  0  0  0  0  0
   -2.2720   -0.0709   -0.6394 C   0  0  0  0  0  0  0  0  0  0  0  0
   -3.6276   -0.8820    1.2512 C   0  0  0  0  0  0  0  0  0  0  0  0
   -2.3725   -1.0735    2.0895 C   0  0  0  0  0  0  0  0  0  0  0  0
   -0.2175   -1.4025   -0.0898 C   0  0  0  0  0  0  0  0  0  0  0  0
   -0.4840    0.4301    2.6431 C   0  0  0  0  0  0  0  0  0  0  0  0
   -5.4821    0.2235   -0.9652 C   0  0  0  0  0  0  0  0  0  0  0  0
    2.0194   -2.1345   -0.8983 C   0  0  1  0  0  0  0  0  0  0  0  0
    0.5840    1.3068    2.1808 C   0  0  0  0  0  0  0  0  0  0  0  0
    2.9374   -1.6741   -2.0404 C   0  0  0  0  0  0  0  0  0  0  0  0
   -6.4443    0.3067    0.0411 C   0  0  0  0  0  0  0  0  0  0  0  0
   -5.2009    1.3382   -1.7552 C   0  0  0  0  0  0  0  0  0  0  0  0
    2.8105   -2.6121    0.3123 C   0  0  0  0  0  0  0  0  0  0  0  0
    3.8124   -0.4865   -1.7079 C   0  0  0  0  0  0  0  0  0  0  0  0
    0.4933    2.4543    1.4239 C   0  0  0  0  0  0  0  0  0  0  0  0
   -7.1255    1.5046    0.2575 C   0  0  0  0  0  0  0  0  0  0  0  0
   -5.8820    2.5362   -1.5388 C   0  0  0  0  0  0  0  0  0  0  0  0
   -6.8443    2.6193   -0.5326 C   0  0  0  0  0  0  0  0  0  0  0  0
    1.7710    3.0339    1.1760 C   0  0  0  0  0  0  0  0  0  0  0  0
    3.3525    0.8084   -1.9475 C   0  0  0  0  0  0  0  0  0  0  0  0
    5.0800   -0.6864   -1.1611 C   0  0  0  0  0  0  0  0  0  0  0  0
    2.7895    2.3075    1.7528 C   0  0  0  0  0  0  0  0  0  0  0  0
    4.1599    1.9033   -1.6404 C   0  0  0  0  0  0  0  0  0  0  0  0
    5.8876    0.4086   -0.8541 C   0  0  0  0  0  0  0  0  0  0  0  0
    5.4276    1.7035   -1.0936 C   0  0  0  0  0  0  0  0  0  0  0  0
    4.4475   -4.1353    1.0852 C   0  0  0  0  0  0  0  0  0  0  0  0
    5.6823    4.0678   -1.0637 C   0  0  0  0  0  0  0  0  0  0  0  0
   -0.4078    0.7089   -0.0529 H   0  0  0  0  0  0  0  0  0  0  0  0
   -2.6877    0.9381   -0.5434 H   0  0  0  0  0  0  0  0  0  0  0  0
   -2.0140   -0.2453   -1.6893 H   0  0  0  0  0  0  0  0  0  0  0  0
   -4.3769   -1.6144    1.5670 H   0  0  0  0  0  0  0  0  0  0  0  0
   -4.0183    0.1267    1.4214 H   0  0  0  0  0  0  0  0  0  0  0  0
   -2.0145   -2.1064    2.0393 H   0  0  0  0  0  0  0  0  0  0  0  0
   -2.6174   -0.8838    3.1403 H   0  0  0  0  0  0  0  0  0  0  0  0
    1.3650   -0.1500   -0.5559 H   0  0  0  0  0  0  0  0  0  0  0  0
    1.4498   -3.0068   -1.2448 H   0  0  0  0  0  0  0  0  0  0  0  0
    3.5801   -2.5034   -2.3643 H   0  0  0  0  0  0  0  0  0  0  0  0
    2.3265   -1.4244   -2.9188 H   0  0  0  0  0  0  0  0  0  0  0  0
   -6.6790   -0.5474    0.6699 H   0  0  0  0  0  0  0  0  0  0  0  0
   -4.4536    1.2974   -2.5424 H   0  0  0  0  0  0  0  0  0  0  0  0
   -0.4416    2.8701    1.0693 H   0  0  0  0  0  0  0  0  0  0  0  0
   -7.8743    1.5698    1.0414 H   0  0  0  0  0  0  0  0  0  0  0  0
   -5.6624    3.4045   -2.1531 H   0  0  0  0  0  0  0  0  0  0  0  0
   -7.3743    3.5521   -0.3637 H   0  0  0  0  0  0  0  0  0  0  0  0
    1.9352    3.9384    0.6051 H   0  0  0  0  0  0  0  0  0  0  0  0
    2.3691    0.9785   -2.3779 H   0  0  0  0  0  0  0  0  0  0  0  0
    5.4560   -1.6885   -0.9751 H   0  0  0  0  0  0  0  0  0  0  0  0
    3.8489    2.5195    1.7258 H   0  0  0  0  0  0  0  0  0  0  0  0
    3.7407    2.8810   -1.8523 H   0  0  0  0  0  0  0  0  0  0  0  0
    6.8746    0.2467   -0.4295 H   0  0  0  0  0  0  0  0  0  0  0  0
    5.0962   -3.3437    1.4722 H   0  0  0  0  0  0  0  0  0  0  0  0
    3.8053   -4.5318    1.8774 H   0  0  0  0  0  0  0  0  0  0  0  0
    5.0735   -4.9455    0.7019 H   0  0  0  0  0  0  0  0  0  0  0  0
    5.5027    4.2139   -2.1341 H   0  0  0  0  0  0  0  0  0  0  0  0
    4.7898    4.2695   -0.4617 H   0  0  0  0  0  0  0  0  0  0  0  0
    6.4411    4.7981   -0.7643 H   0  0  0  0  0  0  0  0  0  0  0  0
  1  3  2  0  0  0  0
  1  4  2  0  0  0  0
  1 10  1  0  0  0  0
  1 19  1  0  0  0  0
  2 21  1  0  0  0  0
  2 34  1  0  0  0  0
  5 17  2  0  0  0  0
  6 18  2  0  0  0  0
  7 25  1  0  0  0  0
  7 38  1  0  0  0  0
  8 25  2  0  0  0  0
  9 37  1  0  0  0  0
  9 39  1  0  0  0  0
 10 14  1  0  0  0  0
 10 15  1  0  0  0  0
 11 13  1  0  0  0  0
 11 16  1  0  0  0  0
 11 18  1  0  0  0  0
 12 17  1  0  0  0  0
 12 20  1  0  0  0  0
 12 47  1  0  0  0  0
 13 14  1  0  0  0  0
 13 17  1  0  0  0  0
 13 40  1  0  0  0  0
 14 41  1  0  0  0  0
 14 42  1  0  0  0  0
 15 16  1  0  0  0  0
 15 43  1  0  0  0  0
 15 44  1  0  0  0  0
 16 45  1  0  0  0  0
 16 46  1  0  0  0  0
 18 21  1  0  0  0  0
 19 23  2  0  0  0  0
 19 24  1  0  0  0  0
 20 22  1  0  0  0  0
 20 25  1  0  0  0  0
 20 48  1  0  0  0  0
 21 27  2  0  0  0  0
 22 26  1  0  0  0  0
 22 49  1  0  0  0  0
 22 50  1  0  0  0  0
 23 28  1  0  0  0  0
 23 51  1  0  0  0  0
 24 29  2  0  0  0  0
 24 52  1  0  0  0  0
 26 32  2  0  0  0  0
 26 33  1  0  0  0  0
 27 31  1  0  0  0  0
 27 53  1  0  0  0  0
 28 30  2  0  0  0  0
 28 54  1  0  0  0  0
 29 30  1  0  0  0  0
 29 55  1  0  0  0  0
 30 56  1  0  0  0  0
 31 34  2  0  0  0  0
 31 57  1  0  0  0  0
 32 35  1  0  0  0  0
 32 58  1  0  0  0  0
 33 36  2  0  0  0  0
 33 59  1  0  0  0  0
 34 60  1  0  0  0  0
 35 37  2  0  0  0  0
 35 61  1  0  0  0  0
 36 37  1  0  0  0  0
 36 62  1  0  0  0  0
 38 63  1  0  0  0  0
 38 64  1  0  0  0  0
 38 65  1  0  0  0  0
 39 66  1  0  0  0  0
 39 67  1  0  0  0  0
 39 68  1  0  0  0  0
M  END
> <PUBCHEM_COMPOUND_CID>
7164880

> <PUBCHEM_CONFORMER_RMSD>
1.2

> <PUBCHEM_CONFORMER_DIVERSEORDER>
1
138
217
117
180
152
216
55
11
201
139
220
83
177
91
61
224
145
149
127
146
204
148
212
144
207
228
150
198
194
168
20
74
134
155
190
230
179
188
126
203
119
38
182
232
15
122
103
222
197
18
167
226
219
104
175
187
170
133
183
40
96
24
116
95
135
114
181
195
65
209
49
131
210
118
143
174
153
63
109
93
101
86
200
87
112
106
211
107
151
128
160
36
213
57
110
78
32
166
89
236
113
62
129
137
161
64
140
88
154
158
156
72
142
9
196
71
120
45
229
97
223
162
27
43
176
164
233
124
214
173
54
102
205
41
159
169
70
105
7
235
94
147
80
28
90
99
75
130
98
221
185
37
141
206
35
25
111
191
157
227
47
53
163
76
68
199
189
225
136
186
26
215
231
79
82
234
13
115
56
85
19
50
34
184
132
5
69
202
192
51
73
58
171
208
3
67
6
81
14
125
52
21
46
165
29
77
172
66
193
59
39
123
218
23
48
12
44
30
60
100
17
108
92
31
8
22
33
121
42
4
178
84
10
16
2

> <PUBCHEM_MMFF94_PARTIAL_CHARGES>
52
1 1.45
10 -0.85
11 -0.66
12 -0.73
13 0.36
14 0.36
15 0.36
16 0.3
17 0.57
18 0.71
19 -0.01
2 -0.08
20 0.36
21 -0.05
22 0.14
23 -0.15
24 -0.15
25 0.66
26 -0.14
27 -0.15
28 -0.15
29 -0.15
3 -0.65
30 -0.15
31 -0.15
32 -0.15
33 -0.15
34 -0.11
35 -0.15
36 -0.15
37 0.08
38 0.28
39 0.28
4 -0.65
47 0.37
5 -0.57
51 0.15
52 0.15
53 0.15
54 0.15
55 0.15
56 0.15
57 0.15
58 0.15
59 0.15
6 -0.57
60 0.15
61 0.15
62 0.15
7 -0.43
8 -0.57
9 -0.36

> <PUBCHEM_EFFECTIVE_ROTOR_COUNT>
13.2

> <PUBCHEM_PHARMACOPHORE_FEATURES>
11
1 12 donor
1 3 acceptor
1 4 acceptor
1 5 acceptor
1 6 acceptor
1 8 acceptor
1 9 acceptor
5 2 21 27 31 34 rings
6 10 11 13 14 15 16 rings
6 19 23 24 28 29 30 rings
6 26 32 33 35 36 37 rings

> <PUBCHEM_HEAVY_ATOM_COUNT>
39

> <PUBCHEM_ATOM_DEF_STEREO_COUNT>
2

> <PUBCHEM_ATOM_UDEF_STEREO_COUNT>
0

> <PUBCHEM_BOND_DEF_STEREO_COUNT>
0

> <PUBCHEM_BOND_UDEF_STEREO_COUNT>
0

> <PUBCHEM_ISOTOPIC_ATOM_COUNT>
0

> <PUBCHEM_COMPONENT_COUNT>
1

> <PUBCHEM_CACTVS_TAUTO_COUNT>
2

> <PUBCHEM_CONFORMER_ID>
006D53D000000001

> <PUBCHEM_MMFF94_ENERGY>
98.1703

> <PUBCHEM_FEATURE_SELFOVERLAP>
55.844

> <PUBCHEM_SHAPE_FINGERPRINT>
10673678 19 18409173198753193542
10721379 63 18271799121105143312
11093857 51 16343705452180214084
11135609 187 17915461812480524872
11578080 2 18187370951649726483
12156800 1 16883256514278414488
12166972 35 18193833748128484298
13636023 20 18271240629005917524
14190465 44 13769582589901553367
14556957 393 17202780219106043553
14747281 78 18259988175731862457
14931854 50 17845109505374668468
15082195 135 17203333264674423855
15183329 4 17846499206399012081
15297060 5 16009027341375167168
15351334 14 18335991956141543065
15406563 42 18189903187274685556
17492 54 17916037913844845660
20511986 3 18202001062248641974
20715895 44 18334862736066815844
21033648 29 17676778681703072086
2132832 1 18195530286291269090
21814621 53 17532103708880081987
22393880 68 17917141810322760815
23559900 14 16845568734269843479
23569914 2 17025957884835989821
4098825 35 18261114058716778371
4394409 98 16917069941185581701
513532 50 16773502356981357048
563151 248 14129063642050172497

> <PUBCHEM_SHAPE_MULTIPOLES>
754.27
16.73
4.21
2.81
16.39
0.2
1.71
-8.36
-10.08
-5.64
-0.07
-0.52
-0.62
-0.63

> <PUBCHEM_SHAPE_SELFOVERLAP>
1582.51

> <PUBCHEM_SHAPE_VOLUME>
426

> <PUBCHEM_COORDINATE_TYPE>
2
5
10

$$$$
