28960439
  -OEChem-12032416293D

 61 65  0     1  0  0  0  0  0999 V2000
    1.9228   -2.2766   -1.5670 O   0  0  0  0  0  0  0  0  0  0  0  0
    2.2267   -4.1638   -0.2542 O   0  0  0  0  0  0  0  0  0  0  0  0
    2.8855   -2.6579    2.1016 O   0  0  0  0  0  0  0  0  0  0  0  0
   -4.8528   -1.3439   -0.7923 O   0  0  0  0  0  0  0  0  0  0  0  0
    0.0203   -1.2487    0.3488 N   0  0  0  0  0  0  0  0  0  0  0  0
    3.1162    0.0696   -0.3190 N   0  0  0  0  0  0  0  0  0  0  0  0
   -2.5697   -0.0522    0.2085 N   0  0  0  0  0  0  0  0  0  0  0  0
    2.4040    3.1188    0.8132 N   0  0  0  0  0  0  0  0  0  0  0  0
    0.9922   -2.2975    0.6606 C   0  0  2  0  0  0  0  0  0  0  0  0
    2.2949   -1.6859    1.2264 C   0  0  2  0  0  0  0  0  0  0  0  0
    3.3320   -1.3064    0.1411 C   0  0  1  0  0  0  0  0  0  0  0  0
    3.2718   -2.2408   -1.0890 C   0  0  1  0  0  0  0  0  0  0  0  0
    1.2923   -3.1284   -0.6009 C   0  0  1  0  0  0  0  0  0  0  0  0
    3.4880   -3.7084   -0.7666 C   0  0  0  0  0  0  0  0  0  0  0  0
   -0.6549   -0.7926    1.5697 C   0  0  0  0  0  0  0  0  0  0  0  0
   -0.9715   -1.7367   -0.6176 C   0  0  0  0  0  0  0  0  0  0  0  0
   -1.6341    0.3440    1.2654 C   0  0  0  0  0  0  0  0  0  0  0  0
   -1.9601   -0.6313   -0.9953 C   0  0  0  0  0  0  0  0  0  0  0  0
    3.6229    1.0188    0.6570 C   0  0  0  0  0  0  0  0  0  0  0  0
   -3.7861    0.6252    0.0686 C   0  0  0  0  0  0  0  0  0  0  0  0
    3.4112    2.4429    0.2163 C   0  0  0  0  0  0  0  0  0  0  0  0
   -4.9112   -0.0312   -0.4303 C   0  0  0  0  0  0  0  0  0  0  0  0
   -3.8672    1.9691    0.4333 C   0  0  0  0  0  0  0  0  0  0  0  0
    4.2384    2.9822   -0.7558 C   0  0  0  0  0  0  0  0  0  0  0  0
   -6.1174    0.6563   -0.5645 C   0  0  0  0  0  0  0  0  0  0  0  0
   -5.0735    2.6566    0.2990 C   0  0  0  0  0  0  0  0  0  0  0  0
   -6.1986    2.0003   -0.1999 C   0  0  0  0  0  0  0  0  0  0  0  0
    4.0176    4.3003   -1.1396 C   0  0  0  0  0  0  0  0  0  0  0  0
    2.2196    4.3972    0.4143 C   0  0  0  0  0  0  0  0  0  0  0  0
    2.9910    5.0282   -0.5483 C   0  0  0  0  0  0  0  0  0  0  0  0
   -5.1503   -2.3072    0.2163 C   0  0  0  0  0  0  0  0  0  0  0  0
    0.5777   -2.9962    1.4024 H   0  0  0  0  0  0  0  0  0  0  0  0
    2.0744   -0.8479    1.8895 H   0  0  0  0  0  0  0  0  0  0  0  0
    4.3491   -1.3967    0.5465 H   0  0  0  0  0  0  0  0  0  0  0  0
    3.9483   -1.8987   -1.8797 H   0  0  0  0  0  0  0  0  0  0  0  0
    0.4360   -3.6515   -1.0335 H   0  0  0  0  0  0  0  0  0  0  0  0
    3.6893   -4.2828   -1.6773 H   0  0  0  0  0  0  0  0  0  0  0  0
    4.2884   -3.8950   -0.0455 H   0  0  0  0  0  0  0  0  0  0  0  0
    0.0588   -0.4190    2.3109 H   0  0  0  0  0  0  0  0  0  0  0  0
   -1.2023   -1.6211    2.0402 H   0  0  0  0  0  0  0  0  0  0  0  0
   -1.5221   -2.6018   -0.2243 H   0  0  0  0  0  0  0  0  0  0  0  0
   -0.5350   -2.0026   -1.5843 H   0  0  0  0  0  0  0  0  0  0  0  0
    2.1210    0.2251   -0.4794 H   0  0  0  0  0  0  0  0  0  0  0  0
   -2.1728    0.5838    2.1907 H   0  0  0  0  0  0  0  0  0  0  0  0
   -1.0739    1.2357    0.9555 H   0  0  0  0  0  0  0  0  0  0  0  0
   -1.4350    0.1657   -1.5393 H   0  0  0  0  0  0  0  0  0  0  0  0
   -2.6926   -1.0479   -1.6931 H   0  0  0  0  0  0  0  0  0  0  0  0
    3.6700   -2.2497    2.5060 H   0  0  0  0  0  0  0  0  0  0  0  0
    4.6985    0.8695    0.8182 H   0  0  0  0  0  0  0  0  0  0  0  0
    3.1452    0.9019    1.6354 H   0  0  0  0  0  0  0  0  0  0  0  0
   -3.0095    2.5183    0.8108 H   0  0  0  0  0  0  0  0  0  0  0  0
    5.0371    2.4064   -1.2108 H   0  0  0  0  0  0  0  0  0  0  0  0
   -6.9978    0.1518   -0.9533 H   0  0  0  0  0  0  0  0  0  0  0  0
   -5.1361    3.7041    0.5793 H   0  0  0  0  0  0  0  0  0  0  0  0
   -7.1375    2.5358   -0.3054 H   0  0  0  0  0  0  0  0  0  0  0  0
    4.6444    4.7594   -1.8981 H   0  0  0  0  0  0  0  0  0  0  0  0
    1.4063    4.9211    0.9055 H   0  0  0  0  0  0  0  0  0  0  0  0
    2.8007    6.0569   -0.8320 H   0  0  0  0  0  0  0  0  0  0  0  0
   -5.0459   -3.3037   -0.2212 H   0  0  0  0  0  0  0  0  0  0  0  0
   -6.1790   -2.1861    0.5703 H   0  0  0  0  0  0  0  0  0  0  0  0
   -4.4518   -2.2191    1.0544 H   0  0  0  0  0  0  0  0  0  0  0  0
  1 12  1  0  0  0  0
  1 13  1  0  0  0  0
  2 13  1  0  0  0  0
  2 14  1  0  0  0  0
  3 10  1  0  0  0  0
  3 48  1  0  0  0  0
  4 22  1  0  0  0  0
  4 31  1  0  0  0  0
  5  9  1  0  0  0  0
  5 15  1  0  0  0  0
  5 16  1  0  0  0  0
  6 11  1  0  0  0  0
  6 19  1  0  0  0  0
  6 43  1  0  0  0  0
  7 17  1  0  0  0  0
  7 18  1  0  0  0  0
  7 20  1  0  0  0  0
  8 21  1  0  0  0  0
  8 29  2  0  0  0  0
  9 10  1  0  0  0  0
  9 13  1  0  0  0  0
  9 32  1  0  0  0  0
 10 11  1  0  0  0  0
 10 33  1  0  0  0  0
 11 12  1  0  0  0  0
 11 34  1  0  0  0  0
 12 14  1  0  0  0  0
 12 35  1  0  0  0  0
 13 36  1  0  0  0  0
 14 37  1  0  0  0  0
 14 38  1  0  0  0  0
 15 17  1  0  0  0  0
 15 39  1  0  0  0  0
 15 40  1  0  0  0  0
 16 18  1  0  0  0  0
 16 41  1  0  0  0  0
 16 42  1  0  0  0  0
 17 44  1  0  0  0  0
 17 45  1  0  0  0  0
 18 46  1  0  0  0  0
 18 47  1  0  0  0  0
 19 21  1  0  0  0  0
 19 49  1  0  0  0  0
 19 50  1  0  0  0  0
 20 22  1  0  0  0  0
 20 23  2  0  0  0  0
 21 24  2  0  0  0  0
 22 25  2  0  0  0  0
 23 26  1  0  0  0  0
 23 51  1  0  0  0  0
 24 28  1  0  0  0  0
 24 52  1  0  0  0  0
 25 27  1  0  0  0  0
 25 53  1  0  0  0  0
 26 27  2  0  0  0  0
 26 54  1  0  0  0  0
 27 55  1  0  0  0  0
 28 30  2  0  0  0  0
 28 56  1  0  0  0  0
 29 30  1  0  0  0  0
 29 57  1  0  0  0  0
 30 58  1  0  0  0  0
 31 59  1  0  0  0  0
 31 60  1  0  0  0  0
 31 61  1  0  0  0  0
M  END
> <PUBCHEM_COMPOUND_CID>
28960439

> <PUBCHEM_CONFORMER_RMSD>
1

> <PUBCHEM_CONFORMER_DIVERSEORDER>
1
74
94
64
29
100
47
54
85
136
116
79
107
9
22
31
53
32
119
93
71
135
95
41
113
17
127
86
124
72
13
90
56
121
67
104
88
45
97
92
65
108
57
23
111
130
81
44
115
137
73
132
75
18
24
102
118
117
110
28
63
106
48
40
87
52
11
96
59
26
30
84
36
61
128
109
89
131
77
76
126
120
42
101
68
50
122
125
34
83
35
16
12
70
15
123
10
7
51
38
60
3
105
39
58
37
80
69
2
33
46
62
114
21
133
55
49
129
103
43
112
99
91
66
5
20
134
78
98
6
25
82
27
8
14
4
19

> <PUBCHEM_MMFF94_PARTIAL_CHARGES>
41
1 -0.56
10 0.28
11 0.27
12 0.28
13 0.56
14 0.28
15 0.27
16 0.27
17 0.37
18 0.37
19 0.41
2 -0.56
20 0.1
21 0.17
22 0.08
23 -0.15
24 -0.15
25 -0.15
26 -0.15
27 -0.15
28 -0.15
29 0.16
3 -0.68
30 -0.15
31 0.28
4 -0.36
43 0.36
48 0.4
5 -0.81
51 0.15
52 0.15
53 0.15
54 0.15
55 0.15
56 0.15
57 0.15
58 0.15
6 -0.9
7 -0.84
8 -0.62
9 0.27

> <PUBCHEM_EFFECTIVE_ROTOR_COUNT>
8.4

> <PUBCHEM_PHARMACOPHORE_FEATURES>
14
1 1 acceptor
1 2 acceptor
1 3 acceptor
1 3 donor
1 4 acceptor
1 5 cation
1 6 cation
1 6 donor
1 7 cation
1 8 acceptor
6 20 22 23 25 26 27 rings
6 5 7 15 16 17 18 rings
6 8 21 24 28 29 30 rings
8 1 2 9 10 11 12 13 14 rings

> <PUBCHEM_HEAVY_ATOM_COUNT>
31

> <PUBCHEM_ATOM_DEF_STEREO_COUNT>
5

> <PUBCHEM_ATOM_UDEF_STEREO_COUNT>
0

> <PUBCHEM_BOND_DEF_STEREO_COUNT>
0

> <PUBCHEM_BOND_UDEF_STEREO_COUNT>
0

> <PUBCHEM_ISOTOPIC_ATOM_COUNT>
0

> <PUBCHEM_COMPONENT_COUNT>
1

> <PUBCHEM_CACTVS_TAUTO_COUNT>
1

> <PUBCHEM_CONFORMER_ID>
01B9E6B700000001

> <PUBCHEM_MMFF94_ENERGY>
117.9735

> <PUBCHEM_FEATURE_SELFOVERLAP>
71.1

> <PUBCHEM_SHAPE_FINGERPRINT>
10483366 6 18339377292767603844
10675989 125 18412268354214756224
10937287 8 18194963178476942540
12788726 201 17540827087847707170
13590594 115 17906182754311018616
1361 2 18193554703960702173
13761468 95 16966088621899871236
13944108 23 18335143038286060652
14068700 686 18192719066875957807
14790565 3 18123468542691960359
14849402 71 18260264144950187768
15082195 135 18269818918360306621
15210252 30 18267309738056768920
15357212 105 18267043738143216081
15400415 2 18123189266908784829
15664445 248 18269844111931940686
16988056 13 18337956675861846212
17844677 252 18341899529038361315
17980427 23 18054474068312717498
18681886 176 18270394971595037098
21133410 127 18113616815476755917
21133410 32 11928015777844039185
21860390 5 18341051818109932660
23559900 14 18200307711210488451
245318 6 17896891060459732197
3004659 81 17844239619419579883
3103668 31 17328874192654056572
3298306 158 18270118062147105945
34797466 226 18342460323018407479
3493558 16 18411423899662340865
376196 1 18189896594435926088
4058900 60 18189059848939233872
474 4 18411698811596155186
484985 159 10299378842387816480
53794403 172 18408891745299084205
550186 72 17833550472696405631
6086070 43 17827333528698786223
7288768 16 17680139969894866064
9981440 41 18121781887412577817

> <PUBCHEM_SHAPE_MULTIPOLES>
594.56
12.7
6.59
1.26
19.25
4.49
-0.25
7.48
2.13
-10.46
1.14
-0.73
-0.51
-0.67

> <PUBCHEM_SHAPE_SELFOVERLAP>
1281.287

> <PUBCHEM_SHAPE_VOLUME>
322.9

> <PUBCHEM_COORDINATE_TYPE>
2
5
10

$$$$
