25390023
  -OEChem-12032416173D

 49 51  0     1  0  0  0  0  0999 V2000
   -9.0207   -1.3994   -0.9885 Cl  0  0  0  0  0  0  0  0  0  0  0  0
   -2.5066   -1.0975    1.0988 O   0  0  0  0  0  0  0  0  0  0  0  0
    5.1713    0.1885   -0.2787 N   0  0  0  0  0  0  0  0  0  0  0  0
   -1.4383    0.9412    0.8735 N   0  0  0  0  0  0  0  0  0  0  0  0
    5.0835    0.7795   -1.4826 N   0  0  0  0  0  0  0  0  0  0  0  0
   -3.6294    0.7554    0.1951 N   0  0  0  0  0  0  0  0  0  0  0  0
    4.7373   -3.5201   -0.0284 N   0  0  0  0  0  0  0  0  0  0  0  0
    1.6951    1.3050    0.0191 C   0  0  2  0  0  0  0  0  0  0  0  0
    0.8168    0.0758    0.3317 C   0  0  0  0  0  0  0  0  0  0  0  0
   -0.1700    0.5302    1.4142 C   0  0  1  0  0  0  0  0  0  0  0  0
    3.1236    0.9475   -0.3216 C   0  0  0  0  0  0  0  0  0  0  0  0
    1.5348    2.1388    1.2572 C   0  0  0  0  0  0  0  0  0  0  0  0
    0.5153    1.7149    2.0116 C   0  0  0  0  0  0  0  0  0  0  0  0
    4.0242    0.2611    0.4558 C   0  0  0  0  0  0  0  0  0  0  0  0
    3.8304    1.2412   -1.5030 C   0  0  0  0  0  0  0  0  0  0  0  0
    3.9004   -0.3216    1.8054 C   0  0  0  0  0  0  0  0  0  0  0  0
    6.4126   -0.4401    0.1095 C   0  0  0  0  0  0  0  0  0  0  0  0
    3.3447    1.9678   -2.6895 C   0  0  0  0  0  0  0  0  0  0  0  0
   -2.5392    0.0807    0.7517 C   0  0  0  0  0  0  0  0  0  0  0  0
    6.6470   -1.7930   -0.5679 C   0  0  0  0  0  0  0  0  0  0  0  0
   -4.9163    0.2410   -0.0876 C   0  0  0  0  0  0  0  0  0  0  0  0
    5.5795   -2.7581   -0.2655 C   0  0  0  0  0  0  0  0  0  0  0  0
   -5.8897    1.0670   -0.6495 C   0  0  0  0  0  0  0  0  0  0  0  0
   -5.2120   -1.0925    0.1955 C   0  0  0  0  0  0  0  0  0  0  0  0
   -7.1588    0.5599   -0.9282 C   0  0  0  0  0  0  0  0  0  0  0  0
   -6.4811   -1.5997   -0.0831 C   0  0  0  0  0  0  0  0  0  0  0  0
   -7.4545   -0.7736   -0.6450 C   0  0  0  0  0  0  0  0  0  0  0  0
    1.2525    1.8619   -0.8171 H   0  0  0  0  0  0  0  0  0  0  0  0
    0.3119   -0.2832   -0.5736 H   0  0  0  0  0  0  0  0  0  0  0  0
    1.4037   -0.7706    0.7069 H   0  0  0  0  0  0  0  0  0  0  0  0
   -0.3202   -0.2631    2.1539 H   0  0  0  0  0  0  0  0  0  0  0  0
    2.1448    2.9993    1.4936 H   0  0  0  0  0  0  0  0  0  0  0  0
    0.2105    2.1848    2.9360 H   0  0  0  0  0  0  0  0  0  0  0  0
   -1.5338    1.8880    0.5173 H   0  0  0  0  0  0  0  0  0  0  0  0
    3.9761   -1.4114    1.7762 H   0  0  0  0  0  0  0  0  0  0  0  0
    4.6818    0.0622    2.4699 H   0  0  0  0  0  0  0  0  0  0  0  0
    2.9495   -0.0794    2.2841 H   0  0  0  0  0  0  0  0  0  0  0  0
    7.2204    0.2529   -0.1555 H   0  0  0  0  0  0  0  0  0  0  0  0
    6.4363   -0.5484    1.1982 H   0  0  0  0  0  0  0  0  0  0  0  0
    2.4803    1.4566   -3.1258 H   0  0  0  0  0  0  0  0  0  0  0  0
    4.1139    2.0432   -3.4655 H   0  0  0  0  0  0  0  0  0  0  0  0
    3.0425    2.9849   -2.4198 H   0  0  0  0  0  0  0  0  0  0  0  0
    7.6109   -2.1961   -0.2374 H   0  0  0  0  0  0  0  0  0  0  0  0
    6.7133   -1.6590   -1.6542 H   0  0  0  0  0  0  0  0  0  0  0  0
   -3.4893    1.7353   -0.0377 H   0  0  0  0  0  0  0  0  0  0  0  0
   -5.6722    2.1079   -0.8750 H   0  0  0  0  0  0  0  0  0  0  0  0
   -4.5129   -1.7928    0.6298 H   0  0  0  0  0  0  0  0  0  0  0  0
   -7.9074    1.2152   -1.3660 H   0  0  0  0  0  0  0  0  0  0  0  0
   -6.6988   -2.6406    0.1424 H   0  0  0  0  0  0  0  0  0  0  0  0
  1 27  1  0  0  0  0
  2 19  2  0  0  0  0
  3  5  1  0  0  0  0
  3 14  1  0  0  0  0
  3 17  1  0  0  0  0
  4 10  1  0  0  0  0
  4 19  1  0  0  0  0
  4 34  1  0  0  0  0
  5 15  2  0  0  0  0
  6 19  1  0  0  0  0
  6 21  1  0  0  0  0
  6 45  1  0  0  0  0
  7 22  3  0  0  0  0
  8  9  1  0  0  0  0
  8 11  1  0  0  0  0
  8 12  1  0  0  0  0
  8 28  1  0  0  0  0
  9 10  1  0  0  0  0
  9 29  1  0  0  0  0
  9 30  1  0  0  0  0
 10 13  1  0  0  0  0
 10 31  1  0  0  0  0
 11 14  2  0  0  0  0
 11 15  1  0  0  0  0
 12 13  2  0  0  0  0
 12 32  1  0  0  0  0
 13 33  1  0  0  0  0
 14 16  1  0  0  0  0
 15 18  1  0  0  0  0
 16 35  1  0  0  0  0
 16 36  1  0  0  0  0
 16 37  1  0  0  0  0
 17 20  1  0  0  0  0
 17 38  1  0  0  0  0
 17 39  1  0  0  0  0
 18 40  1  0  0  0  0
 18 41  1  0  0  0  0
 18 42  1  0  0  0  0
 20 22  1  0  0  0  0
 20 43  1  0  0  0  0
 20 44  1  0  0  0  0
 21 23  2  0  0  0  0
 21 24  1  0  0  0  0
 23 25  1  0  0  0  0
 23 46  1  0  0  0  0
 24 26  2  0  0  0  0
 24 47  1  0  0  0  0
 25 27  2  0  0  0  0
 25 48  1  0  0  0  0
 26 27  1  0  0  0  0
 26 49  1  0  0  0  0
M  END
> <PUBCHEM_COMPOUND_CID>
25390023

> <PUBCHEM_CONFORMER_RMSD>
0.8

> <PUBCHEM_CONFORMER_DIVERSEORDER>
1
143
162
180
200
241
45
258
154
65
184
157
62
174
145
220
78
9
257
224
50
47
168
156
199
169
123
41
193
225
259
138
166
135
229
15
236
247
242
130
163
232
107
66
125
115
203
252
72
234
194
43
222
197
195
233
128
217
160
253
223
182
170
136
108
167
77
117
58
230
92
120
151
49
132
147
161
35
37
124
245
173
105
93
177
12
102
191
24
52
175
30
91
159
189
204
87
190
88
207
153
213
86
149
39
26
101
139
42
133
64
256
260
99
103
118
3
216
79
155
210
80
10
165
244
238
237
119
84
131
158
187
192
206
185
111
209
249
55
235
240
179
22
212
127
164
106
248
95
219
83
201
38
178
205
21
17
134
202
126
18
122
116
7
29
196
59
54
114
243
4
171
5
211
96
34
112
13
141
6
110
198
231
51
14
56
218
176
36
98
183
74
94
140
254
250
82
186
19
148
181
221
8
261
137
53
214
75
85
144
2
69
146
57
31
61
172
215
227
239
20
251
255
71
48
33
188
11
46
104
16
76
68
129
81
100
73
67
44
63
97
27
246
208
121
90
109
32
89
70
152
25
228
142
40
23
113
60
150
28
226

> <PUBCHEM_MMFF94_PARTIAL_CHARGES>
34
1 -0.18
10 0.44
11 -0.18
12 -0.29
13 -0.29
14 -0.33
15 0.11
16 0.18
17 0.26
18 0.18
19 0.69
2 -0.57
20 0.2
21 0.12
22 0.36
23 -0.15
24 -0.15
25 -0.15
26 -0.15
27 0.18
3 0.31
32 0.15
33 0.15
34 0.37
4 -0.73
45 0.37
46 0.15
47 0.15
48 0.15
49 0.15
5 -0.71
6 -0.55
7 -0.56
8 0.32

> <PUBCHEM_EFFECTIVE_ROTOR_COUNT>
7.6

> <PUBCHEM_PHARMACOPHORE_FEATURES>
8
1 2 acceptor
1 4 donor
1 5 acceptor
1 6 donor
1 7 acceptor
5 3 5 11 14 15 rings
5 8 9 10 12 13 rings
6 21 23 24 25 26 27 rings

> <PUBCHEM_HEAVY_ATOM_COUNT>
27

> <PUBCHEM_ATOM_DEF_STEREO_COUNT>
2

> <PUBCHEM_ATOM_UDEF_STEREO_COUNT>
0

> <PUBCHEM_BOND_DEF_STEREO_COUNT>
0

> <PUBCHEM_BOND_UDEF_STEREO_COUNT>
0

> <PUBCHEM_ISOTOPIC_ATOM_COUNT>
0

> <PUBCHEM_COMPONENT_COUNT>
1

> <PUBCHEM_CACTVS_TAUTO_COUNT>
3

> <PUBCHEM_CONFORMER_ID>
01836BC700000001

> <PUBCHEM_MMFF94_ENERGY>
47.6823

> <PUBCHEM_FEATURE_SELFOVERLAP>
40.648

> <PUBCHEM_SHAPE_FINGERPRINT>
10066227 49 18339923719117206383
106641 1 16415472745774714162
10670039 82 17968087604656258821
10693767 8 18115303350966201538
11135609 127 17823417283056147004
11386260 185 17603867835876112645
11719270 70 18131068212460871183
11796584 16 18040436620271524674
12623949 98 13901373424539485020
13177829 20 10879989164464298973
13668630 136 18411981347171396470
13685833 64 17131836495135091049
13782708 43 18130221683761160915
14251764 18 11023828397218814145
15119646 104 18200882776992117915
15183329 4 17603583010945852673
15188451 53 16917071048680248089
15475509 35 17703501100662354978
15510800 12 17131848567982231702
18335252 114 16950276321324651093
20105231 36 18337674231219792275
2026 5 18059856139060437311
20721686 146 15648481046699104884
21033648 29 13840554033221842828
21136928 87 10934483258862153660
21315764 119 18187085053062201719
21344244 78 14764631927612315946
21521239 73 18334013878250347362
21781051 124 18339929341751590795
21792934 111 13542469757259278611
22079108 93 12175612954967651052
221357 26 16877938334937436756
22956985 138 16340914737440479822
23522609 53 17985299406484722921
23559900 14 18270112547915383553
29717793 49 18186242827239747300
3004659 81 18260265244066241736
312425 54 12967127216359313949
3383291 50 16558752356316139983
3633792 109 18259992557136301040
4340502 62 12751234792646911540
439807 62 18341896294880501679
46194498 28 17676491657454476716
465052 167 17275102808947728536
5104073 3 12463026371787787386
54076057 255 12540703630412316254
5718773 13 18059858307918129054
58260988 393 12247412176067545386
59682541 35 15195278742586565786
59682541 52 18260268572397033053
60123966 16 16950578717862430148
6438161 24 18131345328366970595
9689198 14 8070020091168836272

> <PUBCHEM_SHAPE_MULTIPOLES>
526.74
23.75
2.43
1.68
37.27
1.71
-0.37
14.05
-9.35
-3.63
-0.2
-1.68
-1.04
-0.8

> <PUBCHEM_SHAPE_SELFOVERLAP>
1108.144

> <PUBCHEM_SHAPE_VOLUME>
295.7

> <PUBCHEM_COORDINATE_TYPE>
2
5
10

$$$$
