11865857
  -OEChem-12032416373D

 74 76  0     1  0  0  0  0  0999 V2000
    3.4422   -0.3002   -1.5659 O   0  0  0  0  0  0  0  0  0  0  0  0
    1.9238    1.1895    1.3257 O   0  0  0  0  0  0  0  0  0  0  0  0
   -2.7087   -2.3024    1.1545 O   0  0  0  0  0  0  0  0  0  0  0  0
    1.9568    3.4309   -1.9663 O   0  0  0  0  0  0  0  0  0  0  0  0
    2.2424   -1.2040    0.1954 N   0  0  0  0  0  0  0  0  0  0  0  0
   -0.6932   -2.2789    0.0019 N   0  0  0  0  0  0  0  0  0  0  0  0
    0.4333    1.8107   -0.3511 N   0  0  0  0  0  0  0  0  0  0  0  0
   -2.3438   -3.7551   -0.6175 N   0  0  0  0  0  0  0  0  0  0  0  0
   -3.6845    2.9826    1.7150 N   0  0  0  0  0  0  0  0  0  0  0  0
    2.1449    4.9240   -0.2311 N   0  0  0  0  0  0  0  0  0  0  0  0
    0.9923   -0.5025   -0.0783 C   0  0  1  0  0  0  0  0  0  0  0  0
   -0.0602   -1.2267    0.7612 C   0  0  2  0  0  0  0  0  0  0  0  0
    0.7465   -1.7933    1.9327 C   0  0  0  0  0  0  0  0  0  0  0  0
    2.0976   -2.1300    1.3153 C   0  0  0  0  0  0  0  0  0  0  0  0
    3.3528   -1.0941   -0.6278 C   0  0  0  0  0  0  0  0  0  0  0  0
    1.1861    0.9110    0.3841 C   0  0  0  0  0  0  0  0  0  0  0  0
    4.4971   -2.0213   -0.3036 C   0  0  0  0  0  0  0  0  0  0  0  0
    5.7820   -1.2704    0.0894 C   0  0  0  0  0  0  0  0  0  0  0  0
    0.4243    3.2321   -0.0908 C   0  0  2  0  0  0  0  0  0  0  0  0
    5.4638   -0.4038    1.3224 C   0  0  0  0  0  0  0  0  0  0  0  0
    6.9083   -2.2513    0.4570 C   0  0  0  0  0  0  0  0  0  0  0  0
    6.2570   -0.3495   -1.0475 C   0  0  0  0  0  0  0  0  0  0  0  0
   -1.9820   -2.7383    0.2626 C   0  0  0  0  0  0  0  0  0  0  0  0
   -0.8982    3.8901   -0.5043 C   0  0  0  0  0  0  0  0  0  0  0  0
   -2.0897    3.3157    0.2075 C   0  0  0  0  0  0  0  0  0  0  0  0
    1.5849    3.8365   -0.8678 C   0  0  0  0  0  0  0  0  0  0  0  0
   -3.6293   -4.4109   -0.5695 C   0  0  0  0  0  0  0  0  0  0  0  0
   -2.8864    2.2180   -0.2229 C   0  0  0  0  0  0  0  0  0  0  0  0
   -2.6051    3.7644    1.4016 C   0  0  0  0  0  0  0  0  0  0  0  0
   -3.8796    2.0298    0.7406 C   0  0  0  0  0  0  0  0  0  0  0  0
   -4.0622   -4.8417   -1.9655 C   0  0  0  0  0  0  0  0  0  0  0  0
   -3.5833   -5.5972    0.3847 C   0  0  0  0  0  0  0  0  0  0  0  0
   -2.8576    1.3637   -1.3431 C   0  0  0  0  0  0  0  0  0  0  0  0
   -4.8495    1.0261    0.6395 C   0  0  0  0  0  0  0  0  0  0  0  0
   -3.8214    0.3553   -1.4575 C   0  0  0  0  0  0  0  0  0  0  0  0
   -4.8012    0.1909   -0.4803 C   0  0  0  0  0  0  0  0  0  0  0  0
    0.7893   -0.5288   -1.1554 H   0  0  0  0  0  0  0  0  0  0  0  0
   -0.8425   -0.5509    1.1252 H   0  0  0  0  0  0  0  0  0  0  0  0
    0.8793   -1.0171    2.6963 H   0  0  0  0  0  0  0  0  0  0  0  0
    0.2844   -2.6609    2.4137 H   0  0  0  0  0  0  0  0  0  0  0  0
    2.1006   -3.1511    0.9182 H   0  0  0  0  0  0  0  0  0  0  0  0
    2.9135   -2.0129    2.0328 H   0  0  0  0  0  0  0  0  0  0  0  0
   -0.1504   -2.7538   -0.7133 H   0  0  0  0  0  0  0  0  0  0  0  0
    4.6807   -2.6114   -1.2120 H   0  0  0  0  0  0  0  0  0  0  0  0
    4.2561   -2.7595    0.4631 H   0  0  0  0  0  0  0  0  0  0  0  0
   -0.0630    1.4771   -1.1711 H   0  0  0  0  0  0  0  0  0  0  0  0
    0.5947    3.3782    0.9834 H   0  0  0  0  0  0  0  0  0  0  0  0
    5.1030   -1.0149    2.1568 H   0  0  0  0  0  0  0  0  0  0  0  0
    4.7125    0.3644    1.1128 H   0  0  0  0  0  0  0  0  0  0  0  0
    6.3631    0.1193    1.6692 H   0  0  0  0  0  0  0  0  0  0  0  0
    6.6069   -2.9088    1.2800 H   0  0  0  0  0  0  0  0  0  0  0  0
    7.1672   -2.8849   -0.3986 H   0  0  0  0  0  0  0  0  0  0  0  0
    7.8154   -1.7217    0.7688 H   0  0  0  0  0  0  0  0  0  0  0  0
    5.6257    0.5349   -1.1729 H   0  0  0  0  0  0  0  0  0  0  0  0
    6.3004   -0.8867   -2.0014 H   0  0  0  0  0  0  0  0  0  0  0  0
    7.2660    0.0278   -0.8412 H   0  0  0  0  0  0  0  0  0  0  0  0
   -1.0443    3.7923   -1.5884 H   0  0  0  0  0  0  0  0  0  0  0  0
   -0.8482    4.9695   -0.3092 H   0  0  0  0  0  0  0  0  0  0  0  0
   -1.6478   -4.0965   -1.2735 H   0  0  0  0  0  0  0  0  0  0  0  0
   -4.3645   -3.6920   -0.1881 H   0  0  0  0  0  0  0  0  0  0  0  0
   -2.3014    4.5685    2.0574 H   0  0  0  0  0  0  0  0  0  0  0  0
   -4.2558    3.0887    2.5419 H   0  0  0  0  0  0  0  0  0  0  0  0
   -3.3556   -5.5587   -2.3982 H   0  0  0  0  0  0  0  0  0  0  0  0
   -4.1103   -3.9791   -2.6393 H   0  0  0  0  0  0  0  0  0  0  0  0
   -5.0519   -5.3093   -1.9420 H   0  0  0  0  0  0  0  0  0  0  0  0
   -2.8455   -6.3394    0.0598 H   0  0  0  0  0  0  0  0  0  0  0  0
   -3.3046   -5.2778    1.3948 H   0  0  0  0  0  0  0  0  0  0  0  0
   -4.5594   -6.0897    0.4445 H   0  0  0  0  0  0  0  0  0  0  0  0
    2.9194    5.4294   -0.6484 H   0  0  0  0  0  0  0  0  0  0  0  0
    1.8121    5.2619    0.6663 H   0  0  0  0  0  0  0  0  0  0  0  0
   -2.1089    1.4803   -2.1210 H   0  0  0  0  0  0  0  0  0  0  0  0
   -5.6120    0.8967    1.4002 H   0  0  0  0  0  0  0  0  0  0  0  0
   -3.8042   -0.3070   -2.3191 H   0  0  0  0  0  0  0  0  0  0  0  0
   -5.5386   -0.6003   -0.5886 H   0  0  0  0  0  0  0  0  0  0  0  0
  1 15  2  0  0  0  0
  2 16  2  0  0  0  0
  3 23  2  0  0  0  0
  4 26  2  0  0  0  0
  5 11  1  0  0  0  0
  5 14  1  0  0  0  0
  5 15  1  0  0  0  0
  6 12  1  0  0  0  0
  6 23  1  0  0  0  0
  6 43  1  0  0  0  0
  7 16  1  0  0  0  0
  7 19  1  0  0  0  0
  7 46  1  0  0  0  0
  8 23  1  0  0  0  0
  8 27  1  0  0  0  0
  8 59  1  0  0  0  0
  9 29  1  0  0  0  0
  9 30  1  0  0  0  0
  9 62  1  0  0  0  0
 10 26  1  0  0  0  0
 10 69  1  0  0  0  0
 10 70  1  0  0  0  0
 11 12  1  0  0  0  0
 11 16  1  0  0  0  0
 11 37  1  0  0  0  0
 12 13  1  0  0  0  0
 12 38  1  0  0  0  0
 13 14  1  0  0  0  0
 13 39  1  0  0  0  0
 13 40  1  0  0  0  0
 14 41  1  0  0  0  0
 14 42  1  0  0  0  0
 15 17  1  0  0  0  0
 17 18  1  0  0  0  0
 17 44  1  0  0  0  0
 17 45  1  0  0  0  0
 18 20  1  0  0  0  0
 18 21  1  0  0  0  0
 18 22  1  0  0  0  0
 19 24  1  0  0  0  0
 19 26  1  0  0  0  0
 19 47  1  0  0  0  0
 20 48  1  0  0  0  0
 20 49  1  0  0  0  0
 20 50  1  0  0  0  0
 21 51  1  0  0  0  0
 21 52  1  0  0  0  0
 21 53  1  0  0  0  0
 22 54  1  0  0  0  0
 22 55  1  0  0  0  0
 22 56  1  0  0  0  0
 24 25  1  0  0  0  0
 24 57  1  0  0  0  0
 24 58  1  0  0  0  0
 25 28  1  0  0  0  0
 25 29  2  0  0  0  0
 27 31  1  0  0  0  0
 27 32  1  0  0  0  0
 27 60  1  0  0  0  0
 28 30  1  0  0  0  0
 28 33  2  0  0  0  0
 29 61  1  0  0  0  0
 30 34  2  0  0  0  0
 31 63  1  0  0  0  0
 31 64  1  0  0  0  0
 31 65  1  0  0  0  0
 32 66  1  0  0  0  0
 32 67  1  0  0  0  0
 32 68  1  0  0  0  0
 33 35  1  0  0  0  0
 33 71  1  0  0  0  0
 34 36  1  0  0  0  0
 34 72  1  0  0  0  0
 35 36  2  0  0  0  0
 35 73  1  0  0  0  0
 36 74  1  0  0  0  0
M  END
> <PUBCHEM_COMPOUND_CID>
11865857

> <PUBCHEM_CONFORMER_RMSD>
1.2

> <PUBCHEM_CONFORMER_DIVERSEORDER>
1
39
6
41
65
62
22
13
35
75
10
48
67
85
61
15
49
51
57
84
52
72
9
69
16
40
53
23
86
36
56
88
30
70
46
21
68
33
82
83
37
42
32
80
43
45
87
34
19
38
50
76
7
31
20
26
79
25
66
89
64
44
55
54
3
18
74
24
14
8
73
60
28
47
27
11
59
78
5
58
81
17
29
4
71
77
12
63
2

> <PUBCHEM_MMFF94_PARTIAL_CHARGES>
39
1 -0.57
10 -0.8
11 0.36
12 0.3
14 0.3
15 0.57
16 0.57
17 0.06
19 0.36
2 -0.57
23 0.69
24 0.18
25 -0.18
26 0.57
27 0.3
29 -0.3
3 -0.57
30 -0.15
33 -0.15
34 -0.15
35 -0.15
36 -0.15
4 -0.57
43 0.37
46 0.37
5 -0.66
59 0.37
6 -0.73
61 0.15
62 0.27
69 0.37
7 -0.73
70 0.37
71 0.15
72 0.15
73 0.15
74 0.15
8 -0.73
9 0.03

> <PUBCHEM_EFFECTIVE_ROTOR_COUNT>
14

> <PUBCHEM_PHARMACOPHORE_FEATURES>
15
1 1 acceptor
1 10 donor
1 2 acceptor
1 3 acceptor
1 4 acceptor
1 6 donor
1 7 donor
1 8 donor
1 9 cation
1 9 donor
3 27 31 32 hydrophobe
4 18 20 21 22 hydrophobe
5 5 11 12 13 14 rings
5 9 25 28 29 30 rings
6 28 30 33 34 35 36 rings

> <PUBCHEM_HEAVY_ATOM_COUNT>
36

> <PUBCHEM_ATOM_DEF_STEREO_COUNT>
3

> <PUBCHEM_ATOM_UDEF_STEREO_COUNT>
0

> <PUBCHEM_BOND_DEF_STEREO_COUNT>
0

> <PUBCHEM_BOND_UDEF_STEREO_COUNT>
0

> <PUBCHEM_ISOTOPIC_ATOM_COUNT>
0

> <PUBCHEM_COMPONENT_COUNT>
1

> <PUBCHEM_CACTVS_TAUTO_COUNT>
12

> <PUBCHEM_CONFORMER_ID>
00B50F0100000001

> <PUBCHEM_MMFF94_ENERGY>
75.7651

> <PUBCHEM_FEATURE_SELFOVERLAP>
76.265

> <PUBCHEM_SHAPE_FINGERPRINT>
10119406 146 17975144141281747618
10675989 125 17401778909035885116
1100329 8 18335423486479996901
11014199 57 18339639069969266035
11513181 2 17982182411299576455
12440605 4 18120114998015692704
13761468 95 17827068520141879343
13911987 19 18118386373000902871
14394314 77 18120097182259798273
14790565 3 18051413963858289402
15297060 5 17984422932154271273
15876981 60 18334861670461648879
17349148 13 17098075840444196160
19311894 1 18409726231838533798
19319366 153 17677056719962673723
20764821 26 18264779920308922829
20775438 99 17406790406211239343
3493558 16 18201151139945728264
3504750 166 18191569892779819906
392239 28 18119536436299514816
4461854 278 18197519341654260403
50677037 204 18338789023190453880
57527358 35 15187751618583771153
70251023 43 18121216738710831035

> <PUBCHEM_SHAPE_MULTIPOLES>
687.5
12.1
7.72
1.54
16.35
3.03
0.04
6.86
0.63
-9.37
1.3
-0.29
0.03
-2.55

> <PUBCHEM_SHAPE_SELFOVERLAP>
1439.901

> <PUBCHEM_SHAPE_VOLUME>
390.2

> <PUBCHEM_COORDINATE_TYPE>
2
5
10

$$$$
