75536719
  -OEChem-12032416313D

 50 52  0     1  0  0  0  0  0999 V2000
    4.3874   -1.7615    0.1109 S   0  0  0  0  0  0  0  0  0  0  0  0
   -4.7836    1.4509    1.7556 F   0  0  0  0  0  0  0  0  0  0  0  0
    0.0149   -1.4193    1.3881 O   0  0  0  0  0  0  0  0  0  0  0  0
   -0.7527   -1.4103   -2.1214 O   0  0  0  0  0  0  0  0  0  0  0  0
    4.4174   -2.3342   -1.2214 O   0  0  0  0  0  0  0  0  0  0  0  0
    5.1863   -2.3428    1.1728 O   0  0  0  0  0  0  0  0  0  0  0  0
   -3.0543   -0.3643   -0.2546 N   0  0  0  0  0  0  0  0  0  0  0  0
    2.7738   -1.6395    0.6357 N   0  0  0  0  0  0  0  0  0  0  0  0
   -1.9154   -1.2260    0.0175 C   0  0  1  0  0  0  0  0  0  0  0  0
   -0.6869   -0.8902   -0.8077 C   0  0  1  0  0  0  0  0  0  0  0  0
    0.4088   -1.5574    0.0127 C   0  0  1  0  0  0  0  0  0  0  0  0
   -1.3798   -1.0700    1.4313 C   0  0  0  0  0  0  0  0  0  0  0  0
    1.7777   -0.9340   -0.1942 C   0  0  0  0  0  0  0  0  0  0  0  0
   -4.2815   -0.9262    0.2970 C   0  0  0  0  0  0  0  0  0  0  0  0
   -5.4699   -0.0385    0.0391 C   0  0  0  0  0  0  0  0  0  0  0  0
    4.8561   -0.0618   -0.0161 C   0  0  0  0  0  0  0  0  0  0  0  0
   -5.6569    1.1190    0.7945 C   0  0  0  0  0  0  0  0  0  0  0  0
   -6.3854   -0.3763   -0.9576 C   0  0  0  0  0  0  0  0  0  0  0  0
    5.4132    0.5916    1.0831 C   0  0  0  0  0  0  0  0  0  0  0  0
    4.6660    0.6267   -1.2143 C   0  0  0  0  0  0  0  0  0  0  0  0
   -6.7595    1.9386    0.5534 C   0  0  0  0  0  0  0  0  0  0  0  0
   -7.4880    0.4433   -1.1986 C   0  0  0  0  0  0  0  0  0  0  0  0
    5.7805    1.9335    0.9841 C   0  0  0  0  0  0  0  0  0  0  0  0
    5.0332    1.9687   -1.3132 C   0  0  0  0  0  0  0  0  0  0  0  0
    5.5906    2.6222   -0.2140 C   0  0  0  0  0  0  0  0  0  0  0  0
   -7.6751    1.6007   -0.4432 C   0  0  0  0  0  0  0  0  0  0  0  0
    5.9833    4.0570   -0.3197 C   0  0  0  0  0  0  0  0  0  0  0  0
   -2.1783   -2.2755   -0.1768 H   0  0  0  0  0  0  0  0  0  0  0  0
   -0.5338    0.1948   -0.8642 H   0  0  0  0  0  0  0  0  0  0  0  0
    0.4615   -2.6321   -0.2064 H   0  0  0  0  0  0  0  0  0  0  0  0
   -1.4425   -0.0356    1.7889 H   0  0  0  0  0  0  0  0  0  0  0  0
   -1.8926   -1.7151    2.1511 H   0  0  0  0  0  0  0  0  0  0  0  0
    1.7679    0.1161    0.1185 H   0  0  0  0  0  0  0  0  0  0  0  0
    2.0489   -0.9904   -1.2527 H   0  0  0  0  0  0  0  0  0  0  0  0
   -3.1621   -0.2639   -1.2643 H   0  0  0  0  0  0  0  0  0  0  0  0
   -4.1937   -1.0675    1.3818 H   0  0  0  0  0  0  0  0  0  0  0  0
   -4.4713   -1.9205   -0.1279 H   0  0  0  0  0  0  0  0  0  0  0  0
    2.5860   -1.6495    1.6461 H   0  0  0  0  0  0  0  0  0  0  0  0
   -0.8893   -2.3710   -2.0634 H   0  0  0  0  0  0  0  0  0  0  0  0
   -6.2515   -1.2738   -1.5556 H   0  0  0  0  0  0  0  0  0  0  0  0
    5.5633    0.0771    2.0279 H   0  0  0  0  0  0  0  0  0  0  0  0
    4.2316    0.1383   -2.0819 H   0  0  0  0  0  0  0  0  0  0  0  0
   -6.9051    2.8396    1.1420 H   0  0  0  0  0  0  0  0  0  0  0  0
   -8.2007    0.1806   -1.9749 H   0  0  0  0  0  0  0  0  0  0  0  0
    6.2137    2.4318    1.8474 H   0  0  0  0  0  0  0  0  0  0  0  0
    4.8811    2.4942   -2.2522 H   0  0  0  0  0  0  0  0  0  0  0  0
   -8.5336    2.2389   -0.6309 H   0  0  0  0  0  0  0  0  0  0  0  0
    7.0216    4.1385   -0.6561 H   0  0  0  0  0  0  0  0  0  0  0  0
    5.3417    4.5911   -1.0289 H   0  0  0  0  0  0  0  0  0  0  0  0
    5.8859    4.5655    0.6455 H   0  0  0  0  0  0  0  0  0  0  0  0
  1  5  2  0  0  0  0
  1  6  2  0  0  0  0
  1  8  1  0  0  0  0
  1 16  1  0  0  0  0
  2 17  1  0  0  0  0
  3 11  1  0  0  0  0
  3 12  1  0  0  0  0
  4 10  1  0  0  0  0
  4 39  1  0  0  0  0
  7  9  1  0  0  0  0
  7 14  1  0  0  0  0
  7 35  1  0  0  0  0
  8 13  1  0  0  0  0
  8 38  1  0  0  0  0
  9 10  1  0  0  0  0
  9 12  1  0  0  0  0
  9 28  1  0  0  0  0
 10 11  1  0  0  0  0
 10 29  1  0  0  0  0
 11 13  1  0  0  0  0
 11 30  1  0  0  0  0
 12 31  1  0  0  0  0
 12 32  1  0  0  0  0
 13 33  1  0  0  0  0
 13 34  1  0  0  0  0
 14 15  1  0  0  0  0
 14 36  1  0  0  0  0
 14 37  1  0  0  0  0
 15 17  1  0  0  0  0
 15 18  2  0  0  0  0
 16 19  2  0  0  0  0
 16 20  1  0  0  0  0
 17 21  2  0  0  0  0
 18 22  1  0  0  0  0
 18 40  1  0  0  0  0
 19 23  1  0  0  0  0
 19 41  1  0  0  0  0
 20 24  2  0  0  0  0
 20 42  1  0  0  0  0
 21 26  1  0  0  0  0
 21 43  1  0  0  0  0
 22 26  2  0  0  0  0
 22 44  1  0  0  0  0
 23 25  2  0  0  0  0
 23 45  1  0  0  0  0
 24 25  1  0  0  0  0
 24 46  1  0  0  0  0
 25 27  1  0  0  0  0
 26 47  1  0  0  0  0
 27 48  1  0  0  0  0
 27 49  1  0  0  0  0
 27 50  1  0  0  0  0
M  END
> <PUBCHEM_COMPOUND_CID>
75536719

> <PUBCHEM_CONFORMER_RMSD>
1.4

> <PUBCHEM_CONFORMER_DIVERSEORDER>
1
42
6
66
24
13
67
87
49
92
59
74
89
50
35
27
47
9
31
16
90
32
5
44
63
62
82
12
21
71
73
22
60
56
88
36
52
38
26
14
28
10
54
77
7
75
25
46
65
33
79
76
45
51
93
94
78
48
2
37
39
34
57
19
61
58
3
83
11
55
30
18
70
85
29
86
81
43
23
69
40
8
15
80
91
68
72
20
17
4
41
64
84
53

> <PUBCHEM_MMFF94_PARTIAL_CHARGES>
38
1 1.45
10 0.28
11 0.28
12 0.28
13 0.36
14 0.41
15 -0.14
16 -0.01
17 0.19
18 -0.15
19 -0.15
2 -0.19
20 -0.15
21 -0.15
22 -0.15
23 -0.15
24 -0.15
25 -0.14
26 -0.15
27 0.14
3 -0.56
35 0.36
38 0.42
39 0.4
4 -0.68
40 0.15
41 0.15
42 0.15
43 0.15
44 0.15
45 0.15
46 0.15
47 0.15
5 -0.65
6 -0.65
7 -0.9
8 -0.91
9 0.27

> <PUBCHEM_EFFECTIVE_ROTOR_COUNT>
8

> <PUBCHEM_PHARMACOPHORE_FEATURES>
11
1 3 acceptor
1 4 acceptor
1 4 donor
1 5 acceptor
1 6 acceptor
1 7 cation
1 7 donor
1 8 donor
5 3 9 10 11 12 rings
6 15 17 18 21 22 26 rings
6 16 19 20 23 24 25 rings

> <PUBCHEM_HEAVY_ATOM_COUNT>
27

> <PUBCHEM_ATOM_DEF_STEREO_COUNT>
3

> <PUBCHEM_ATOM_UDEF_STEREO_COUNT>
0

> <PUBCHEM_BOND_DEF_STEREO_COUNT>
0

> <PUBCHEM_BOND_UDEF_STEREO_COUNT>
0

> <PUBCHEM_ISOTOPIC_ATOM_COUNT>
0

> <PUBCHEM_COMPONENT_COUNT>
1

> <PUBCHEM_CACTVS_TAUTO_COUNT>
1

> <PUBCHEM_CONFORMER_ID>
0480994F00000001

> <PUBCHEM_MMFF94_ENERGY>
48.0973

> <PUBCHEM_FEATURE_SELFOVERLAP>
55.84

> <PUBCHEM_SHAPE_FINGERPRINT>
10 15 16225769622834182895
10280341 67 17841706615924937016
10319926 262 14490484088601076649
10554248 39 18059849511503399775
10638233 991 18410294683897755649
10673678 19 18343587364832708302
10906281 52 17845950550086124779
11386260 185 18272097063524439468
11408170 132 14332859123897898577
117089 54 8501006667921642552
11991303 11 16343412999388466293
125118 31 18335138661750633269
12539765 74 18059300864487614071
13533116 47 17749949947560121834
13668630 136 12751227113566899221
13782708 43 9583522001556271627
13878862 14 18335130986796770428
14251757 52 18410570686933364857
14347332 77 10447658975850775715
14565420 104 18040428897799137018
15131766 46 18196925789732203164
15183329 4 17775568637053330705
15348495 7 15647349566854211549
15475509 35 10881398764246381044
155225 6 17971761218859850244
15840311 113 18334860481208634597
1979834 28 14996277003451373770
20058555 10 18411420626696937681
20157964 124 18411419501341295654
20281389 69 18261109639269173453
20771845 171 17704075049499501167
21130935 74 18040154011534698275
21150785 3 16486969618039950819
21298829 104 18337392750776957028
21344244 181 11887671792701622429
21521239 73 12175618469235992285
21585482 111 18334013917143216068
21641784 216 16415488112249795795
21792934 111 15936957558108718175
22122407 14 18410867567757378240
2303208 19 11383835939654891979
23081809 10 17274826818365115355
23522609 53 17488765393030210921
249057 25 17917153775584975699
27425 322 18411134757905594494
2748736 6 18408882966512473081
2838139 119 18411139100206512377
328310 630 18272657831550149521
33382 64 9079115552981927862
3472631 163 18201159948801618068
3711267 37 18200601277248489073
394071 54 18040154037219592484
397830 11 18041009483141320795
4169191 19 18408604794650683757
44555599 121 18342742862725164081
465052 167 8358268042485018096
5104073 3 17749389312556955194
513202 73 10159708971422795115
5372103 7 16342279472142348296
5718773 13 10375609078953476308
6328613 192 18412825789887987681
6898599 12 18200312267938726855

> <PUBCHEM_SHAPE_MULTIPOLES>
518.78
23.44
3.17
1.42
23.12
2.13
0.09
17.33
1.19
-6.36
-0.01
0.05
-0.13
-1.04

> <PUBCHEM_SHAPE_SELFOVERLAP>
1082.774

> <PUBCHEM_SHAPE_VOLUME>
297

> <PUBCHEM_COORDINATE_TYPE>
2
5
10

$$$$
