7049408
  -OEChem-12032416363D

 58 58  0     1  0  0  0  0  0999 V2000
    4.7417    0.3882    1.8147 S   0  0  0  0  0  0  0  0  0  0  0  0
    0.6499    1.0177    0.9021 O   0  0  0  0  0  0  0  0  0  0  0  0
    3.1515    2.4715   -0.2607 O   0  0  0  0  0  0  0  0  0  0  0  0
   -0.3760   -3.9443   -1.3144 O   0  0  0  0  0  0  0  0  0  0  0  0
   -3.0050    3.5140    1.3160 O   0  0  0  0  0  0  0  0  0  0  0  0
   -1.2440    3.9484   -0.0961 O   0  0  0  0  0  0  0  0  0  0  0  0
    2.5473    0.2986   -0.7813 N   0  0  0  0  0  0  0  0  0  0  0  0
    0.7535   -2.2416   -0.2106 N   0  0  0  0  0  0  0  0  0  0  0  0
   -0.9546    1.3060   -0.7598 N   0  0  0  0  0  0  0  0  0  0  0  0
   -0.7566   -3.5446    0.9393 N   0  0  0  0  0  0  0  0  0  0  0  0
    1.2588    0.6276   -1.3730 C   0  0  1  0  0  0  0  0  0  0  0  0
    1.5257   -1.7734   -1.3342 C   0  0  1  0  0  0  0  0  0  0  0  0
    0.8121   -0.6467   -2.0861 C   0  0  0  0  0  0  0  0  0  0  0  0
    2.8371   -1.1309   -0.8929 C   0  0  0  0  0  0  0  0  0  0  0  0
    0.3082    1.0070   -0.2776 C   0  0  0  0  0  0  0  0  0  0  0  0
    3.4299    1.2739   -0.3423 C   0  0  0  0  0  0  0  0  0  0  0  0
   -2.0590    1.6790    0.0943 C   0  0  2  0  0  0  0  0  0  0  0  0
   -3.4238    1.2429   -0.4814 C   0  0  0  0  0  0  0  0  0  0  0  0
    4.7969    0.7811    0.0604 C   0  0  0  0  0  0  0  0  0  0  0  0
   -0.1479   -3.3028   -0.2897 C   0  0  0  0  0  0  0  0  0  0  0  0
   -2.0435    3.1698    0.4139 C   0  0  0  0  0  0  0  0  0  0  0  0
   -3.7794    2.0465   -1.7358 C   0  0  0  0  0  0  0  0  0  0  0  0
   -3.5024   -0.2577   -0.7824 C   0  0  0  0  0  0  0  0  0  0  0  0
   -1.7334   -4.5896    1.1365 C   0  0  0  0  0  0  0  0  0  0  0  0
    6.4523   -0.1617    2.0320 C   0  0  0  0  0  0  0  0  0  0  0  0
   -3.0566    4.8994    1.6727 C   0  0  0  0  0  0  0  0  0  0  0  0
   -3.0954   -4.0409    0.8693 C   0  0  0  0  0  0  0  0  0  0  0  0
   -4.0872   -4.0375    1.7672 C   0  0  0  0  0  0  0  0  0  0  0  0
    1.3651    1.4756   -2.0589 H   0  0  0  0  0  0  0  0  0  0  0  0
    1.7125   -2.6282   -1.9934 H   0  0  0  0  0  0  0  0  0  0  0  0
    1.1939   -0.6202   -3.1151 H   0  0  0  0  0  0  0  0  0  0  0  0
   -0.2707   -0.7924   -2.1416 H   0  0  0  0  0  0  0  0  0  0  0  0
    3.5956   -1.2480   -1.6752 H   0  0  0  0  0  0  0  0  0  0  0  0
    3.2260   -1.5315    0.0467 H   0  0  0  0  0  0  0  0  0  0  0  0
    0.8218   -1.7364    0.6678 H   0  0  0  0  0  0  0  0  0  0  0  0
   -1.0911    1.3521   -1.7650 H   0  0  0  0  0  0  0  0  0  0  0  0
   -1.9032    1.1655    1.0525 H   0  0  0  0  0  0  0  0  0  0  0  0
   -4.1962    1.4600    0.2685 H   0  0  0  0  0  0  0  0  0  0  0  0
    5.1234   -0.0763   -0.5309 H   0  0  0  0  0  0  0  0  0  0  0  0
    5.5136    1.5909   -0.1133 H   0  0  0  0  0  0  0  0  0  0  0  0
   -4.7679    1.7521   -2.1065 H   0  0  0  0  0  0  0  0  0  0  0  0
   -3.8225    3.1212   -1.5339 H   0  0  0  0  0  0  0  0  0  0  0  0
   -3.0644    1.8792   -2.5475 H   0  0  0  0  0  0  0  0  0  0  0  0
   -4.5171   -0.5390   -1.0835 H   0  0  0  0  0  0  0  0  0  0  0  0
   -3.2431   -0.8411    0.1070 H   0  0  0  0  0  0  0  0  0  0  0  0
   -2.8223   -0.5466   -1.5900 H   0  0  0  0  0  0  0  0  0  0  0  0
   -0.5208   -2.9482    1.7266 H   0  0  0  0  0  0  0  0  0  0  0  0
   -1.6260   -4.9495    2.1647 H   0  0  0  0  0  0  0  0  0  0  0  0
   -1.5269   -5.4207    0.4544 H   0  0  0  0  0  0  0  0  0  0  0  0
    6.6555   -1.0298    1.3996 H   0  0  0  0  0  0  0  0  0  0  0  0
    7.1458    0.6459    1.7839 H   0  0  0  0  0  0  0  0  0  0  0  0
    6.6090   -0.4470    3.0756 H   0  0  0  0  0  0  0  0  0  0  0  0
   -3.8640    5.0337    2.3975 H   0  0  0  0  0  0  0  0  0  0  0  0
   -3.2718    5.5093    0.7901 H   0  0  0  0  0  0  0  0  0  0  0  0
   -2.1141    5.2067    2.1357 H   0  0  0  0  0  0  0  0  0  0  0  0
   -3.2941   -3.6396   -0.1215 H   0  0  0  0  0  0  0  0  0  0  0  0
   -5.0595   -3.6323    1.5094 H   0  0  0  0  0  0  0  0  0  0  0  0
   -3.9491   -4.4339    2.7670 H   0  0  0  0  0  0  0  0  0  0  0  0
  1 19  1  0  0  0  0
  1 25  1  0  0  0  0
  2 15  2  0  0  0  0
  3 16  2  0  0  0  0
  4 20  2  0  0  0  0
  5 21  1  0  0  0  0
  5 26  1  0  0  0  0
  6 21  2  0  0  0  0
  7 11  1  0  0  0  0
  7 14  1  0  0  0  0
  7 16  1  0  0  0  0
  8 12  1  0  0  0  0
  8 20  1  0  0  0  0
  8 35  1  0  0  0  0
  9 15  1  0  0  0  0
  9 17  1  0  0  0  0
  9 36  1  0  0  0  0
 10 20  1  0  0  0  0
 10 24  1  0  0  0  0
 10 47  1  0  0  0  0
 11 13  1  0  0  0  0
 11 15  1  0  0  0  0
 11 29  1  0  0  0  0
 12 13  1  0  0  0  0
 12 14  1  0  0  0  0
 12 30  1  0  0  0  0
 13 31  1  0  0  0  0
 13 32  1  0  0  0  0
 14 33  1  0  0  0  0
 14 34  1  0  0  0  0
 16 19  1  0  0  0  0
 17 18  1  0  0  0  0
 17 21  1  0  0  0  0
 17 37  1  0  0  0  0
 18 22  1  0  0  0  0
 18 23  1  0  0  0  0
 18 38  1  0  0  0  0
 19 39  1  0  0  0  0
 19 40  1  0  0  0  0
 22 41  1  0  0  0  0
 22 42  1  0  0  0  0
 22 43  1  0  0  0  0
 23 44  1  0  0  0  0
 23 45  1  0  0  0  0
 23 46  1  0  0  0  0
 24 27  1  0  0  0  0
 24 48  1  0  0  0  0
 24 49  1  0  0  0  0
 25 50  1  0  0  0  0
 25 51  1  0  0  0  0
 25 52  1  0  0  0  0
 26 53  1  0  0  0  0
 26 54  1  0  0  0  0
 26 55  1  0  0  0  0
 27 28  2  0  0  0  0
 27 56  1  0  0  0  0
 28 57  1  0  0  0  0
 28 58  1  0  0  0  0
M  END
> <PUBCHEM_COMPOUND_CID>
7049408

> <PUBCHEM_CONFORMER_RMSD>
1.2

> <PUBCHEM_CONFORMER_DIVERSEORDER>
1
11
2
12
8
6
5
3
7
4
9
10

> <PUBCHEM_MMFF94_PARTIAL_CHARGES>
30
1 -0.46
10 -0.73
11 0.36
12 0.3
14 0.3
15 0.57
16 0.57
17 0.36
19 0.29
2 -0.57
20 0.69
21 0.66
24 0.44
25 0.23
26 0.28
27 -0.29
28 -0.3
3 -0.57
35 0.37
36 0.37
4 -0.57
47 0.37
5 -0.43
56 0.15
57 0.15
58 0.15
6 -0.57
7 -0.66
8 -0.73
9 -0.73

> <PUBCHEM_EFFECTIVE_ROTOR_COUNT>
15

> <PUBCHEM_PHARMACOPHORE_FEATURES>
11
1 10 donor
1 2 acceptor
1 25 hydrophobe
1 28 hydrophobe
1 3 acceptor
1 4 acceptor
1 6 acceptor
1 8 donor
1 9 donor
3 18 22 23 hydrophobe
5 7 11 12 13 14 rings

> <PUBCHEM_HEAVY_ATOM_COUNT>
28

> <PUBCHEM_ATOM_DEF_STEREO_COUNT>
3

> <PUBCHEM_ATOM_UDEF_STEREO_COUNT>
0

> <PUBCHEM_BOND_DEF_STEREO_COUNT>
0

> <PUBCHEM_BOND_UDEF_STEREO_COUNT>
0

> <PUBCHEM_ISOTOPIC_ATOM_COUNT>
0

> <PUBCHEM_COMPONENT_COUNT>
1

> <PUBCHEM_CACTVS_TAUTO_COUNT>
6

> <PUBCHEM_CONFORMER_ID>
006B90C000000001

> <PUBCHEM_MMFF94_ENERGY>
52.36

> <PUBCHEM_FEATURE_SELFOVERLAP>
55.873

> <PUBCHEM_SHAPE_FINGERPRINT>
10006869 2 17981608487646385652
10074138 170 18193527117728028136
10688039 33 17681555067282962063
11456790 92 17826238673365329155
12788726 201 18045509870212203042
13004483 165 18122064475123493066
13140716 1 18123756618965066980
14178342 30 18268151967736912365
15042514 8 18335418036419601930
15475509 84 18046059621467288706
15775530 1 18271544021855322326
18603816 31 15213839576968775808
23558518 356 18270407079276143213
23559900 14 16625176889358250533
345986 75 17825930792496496730
352729 6 18340768264379736836
3886686 26 18115855314113925730
463206 1 17110738765490087611
5104073 3 17914332381603909512
58260988 114 17677590074151020090
653340 110 18339659870696386627
7097593 13 17402899921143006765
79837 15 18410854317904355256
9777508 108 18339658745203860730
9981440 41 18339917109045863353

> <PUBCHEM_SHAPE_MULTIPOLES>
530.81
9.23
7.06
1.9
11.47
2.29
-0.23
-1.29
-5.15
-11.7
-3.7
0.31
0.21
1.05

> <PUBCHEM_SHAPE_SELFOVERLAP>
1043.357

> <PUBCHEM_SHAPE_VOLUME>
320.8

> <PUBCHEM_COORDINATE_TYPE>
2
5
10

$$$$
