44716813
  -OEChem-12032416383D

 68 73  0     1  0  0  0  0  0999 V2000
   -0.3221    4.1479    1.0305 O   0  0  0  0  0  0  0  0  0  0  0  0
    0.6864    1.4201    2.1612 O   0  0  0  0  0  0  0  0  0  0  0  0
   -4.2253    2.3043    0.9121 O   0  0  0  0  0  0  0  0  0  0  0  0
    1.9620    3.1375   -0.7972 N   0  0  0  0  0  0  0  0  0  0  0  0
   -2.3146    1.1042    1.4160 N   0  0  0  0  0  0  0  0  0  0  0  0
   -4.1381   -0.0187    0.5859 N   0  0  0  0  0  0  0  0  0  0  0  0
    3.4186    1.3285   -0.8318 N   0  0  0  0  0  0  0  0  0  0  0  0
    2.9483    2.5937   -2.8282 N   0  0  0  0  0  0  0  0  0  0  0  0
    6.7793   -3.6044    1.2914 N   0  0  0  0  0  0  0  0  0  0  0  0
    0.6066    1.9661    0.8337 C   0  0  1  0  0  0  0  0  0  0  0  0
   -0.6702    2.7803    0.7582 C   0  0  1  0  0  0  0  0  0  0  0  0
    1.7049    2.9802    0.6176 C   0  0  2  0  0  0  0  0  0  0  0  0
   -1.5276    2.2243    1.8722 C   0  0  2  0  0  0  0  0  0  0  0  0
    1.1009    4.2512    1.1859 C   0  0  0  0  0  0  0  0  0  0  0  0
   -0.4915    1.7895    2.8934 C   0  0  0  0  0  0  0  0  0  0  0  0
    2.8143    2.3180   -1.5169 C   0  0  0  0  0  0  0  0  0  0  0  0
   -3.6324    1.2293    0.9603 C   0  0  0  0  0  0  0  0  0  0  0  0
   -5.4235   -0.3172    0.0766 C   0  0  0  0  0  0  0  0  0  0  0  0
    4.2390    0.5474   -1.5649 C   0  0  0  0  0  0  0  0  0  0  0  0
    3.7830    1.7737   -3.5000 C   0  0  0  0  0  0  0  0  0  0  0  0
    4.4618    0.7242   -2.9152 C   0  0  0  0  0  0  0  0  0  0  0  0
   -5.8000   -1.6277   -0.2597 C   0  0  0  0  0  0  0  0  0  0  0  0
    4.8885   -0.5145   -0.8345 C   0  0  0  0  0  0  0  0  0  0  0  0
   -6.3160    0.7432   -0.0832 C   0  0  0  0  0  0  0  0  0  0  0  0
   -7.1003   -1.8660   -0.7653 C   0  0  0  0  0  0  0  0  0  0  0  0
   -7.5946    0.5088   -0.5803 C   0  0  0  0  0  0  0  0  0  0  0  0
   -4.9147   -2.7069   -0.1055 C   0  0  0  0  0  0  0  0  0  0  0  0
   -7.9856   -0.7868   -0.9197 C   0  0  0  0  0  0  0  0  0  0  0  0
    6.2810   -0.5674   -0.7717 C   0  0  0  0  0  0  0  0  0  0  0  0
    4.1238   -1.4881   -0.1914 C   0  0  0  0  0  0  0  0  0  0  0  0
   -7.4767   -3.1765   -1.1017 C   0  0  0  0  0  0  0  0  0  0  0  0
   -5.3057   -4.0025   -0.4447 C   0  0  0  0  0  0  0  0  0  0  0  0
    6.9090   -1.5934   -0.0654 C   0  0  0  0  0  0  0  0  0  0  0  0
    4.7518   -2.5142    0.5146 C   0  0  0  0  0  0  0  0  0  0  0  0
    6.1443   -2.5669    0.5777 C   0  0  0  0  0  0  0  0  0  0  0  0
   -6.5842   -4.2369   -0.9420 C   0  0  0  0  0  0  0  0  0  0  0  0
    8.2256   -3.6680    1.3625 C   0  0  0  0  0  0  0  0  0  0  0  0
    5.9939   -4.6165    1.9696 C   0  0  0  0  0  0  0  0  0  0  0  0
    0.6133    1.1228    0.1357 H   0  0  0  0  0  0  0  0  0  0  0  0
   -1.1388    2.7516   -0.2308 H   0  0  0  0  0  0  0  0  0  0  0  0
    2.6305    2.7513    1.1583 H   0  0  0  0  0  0  0  0  0  0  0  0
   -2.2002    2.9735    2.3033 H   0  0  0  0  0  0  0  0  0  0  0  0
    1.3034    4.3336    2.2596 H   0  0  0  0  0  0  0  0  0  0  0  0
    1.4525    5.1669    0.7004 H   0  0  0  0  0  0  0  0  0  0  0  0
   -0.8102    0.9483    3.5166 H   0  0  0  0  0  0  0  0  0  0  0  0
   -0.2169    2.6214    3.5513 H   0  0  0  0  0  0  0  0  0  0  0  0
    1.4631    3.8500   -1.3180 H   0  0  0  0  0  0  0  0  0  0  0  0
   -1.8697    0.1929    1.3616 H   0  0  0  0  0  0  0  0  0  0  0  0
   -3.4928   -0.7907    0.7014 H   0  0  0  0  0  0  0  0  0  0  0  0
    3.8939    1.9902   -4.5572 H   0  0  0  0  0  0  0  0  0  0  0  0
    5.1187    0.0892   -3.4967 H   0  0  0  0  0  0  0  0  0  0  0  0
   -6.1102    1.7763    0.1488 H   0  0  0  0  0  0  0  0  0  0  0  0
   -8.2905    1.3335   -0.7053 H   0  0  0  0  0  0  0  0  0  0  0  0
   -3.9050   -2.5952    0.2759 H   0  0  0  0  0  0  0  0  0  0  0  0
   -8.9899   -0.9466   -1.3066 H   0  0  0  0  0  0  0  0  0  0  0  0
    6.8951    0.1849   -1.2614 H   0  0  0  0  0  0  0  0  0  0  0  0
    3.0372   -1.4646   -0.2320 H   0  0  0  0  0  0  0  0  0  0  0  0
   -8.4711   -3.3830   -1.4922 H   0  0  0  0  0  0  0  0  0  0  0  0
   -4.6119   -4.8290   -0.3209 H   0  0  0  0  0  0  0  0  0  0  0  0
    7.9943   -1.5896   -0.0450 H   0  0  0  0  0  0  0  0  0  0  0  0
    4.1132   -3.2476    0.9970 H   0  0  0  0  0  0  0  0  0  0  0  0
   -6.8879   -5.2457   -1.2060 H   0  0  0  0  0  0  0  0  0  0  0  0
    8.6667   -3.7769    0.3654 H   0  0  0  0  0  0  0  0  0  0  0  0
    8.6374   -2.7781    1.8514 H   0  0  0  0  0  0  0  0  0  0  0  0
    8.5647   -4.5299    1.9480 H   0  0  0  0  0  0  0  0  0  0  0  0
    5.3541   -4.1711    2.7395 H   0  0  0  0  0  0  0  0  0  0  0  0
    5.3776   -5.1803    1.2604 H   0  0  0  0  0  0  0  0  0  0  0  0
    6.6303   -5.3487    2.4791 H   0  0  0  0  0  0  0  0  0  0  0  0
  1 11  1  0  0  0  0
  1 14  1  0  0  0  0
  2 10  1  0  0  0  0
  2 15  1  0  0  0  0
  3 17  2  0  0  0  0
  4 12  1  0  0  0  0
  4 16  1  0  0  0  0
  4 47  1  0  0  0  0
  5 13  1  0  0  0  0
  5 17  1  0  0  0  0
  5 48  1  0  0  0  0
  6 17  1  0  0  0  0
  6 18  1  0  0  0  0
  6 49  1  0  0  0  0
  7 16  1  0  0  0  0
  7 19  2  0  0  0  0
  8 16  2  0  0  0  0
  8 20  1  0  0  0  0
  9 35  1  0  0  0  0
  9 37  1  0  0  0  0
  9 38  1  0  0  0  0
 10 11  1  0  0  0  0
 10 12  1  0  0  0  0
 10 39  1  0  0  0  0
 11 13  1  0  0  0  0
 11 40  1  0  0  0  0
 12 14  1  0  0  0  0
 12 41  1  0  0  0  0
 13 15  1  0  0  0  0
 13 42  1  0  0  0  0
 14 43  1  0  0  0  0
 14 44  1  0  0  0  0
 15 45  1  0  0  0  0
 15 46  1  0  0  0  0
 18 22  1  0  0  0  0
 18 24  2  0  0  0  0
 19 21  1  0  0  0  0
 19 23  1  0  0  0  0
 20 21  2  0  0  0  0
 20 50  1  0  0  0  0
 21 51  1  0  0  0  0
 22 25  1  0  0  0  0
 22 27  2  0  0  0  0
 23 29  2  0  0  0  0
 23 30  1  0  0  0  0
 24 26  1  0  0  0  0
 24 52  1  0  0  0  0
 25 28  1  0  0  0  0
 25 31  2  0  0  0  0
 26 28  2  0  0  0  0
 26 53  1  0  0  0  0
 27 32  1  0  0  0  0
 27 54  1  0  0  0  0
 28 55  1  0  0  0  0
 29 33  1  0  0  0  0
 29 56  1  0  0  0  0
 30 34  2  0  0  0  0
 30 57  1  0  0  0  0
 31 36  1  0  0  0  0
 31 58  1  0  0  0  0
 32 36  2  0  0  0  0
 32 59  1  0  0  0  0
 33 35  2  0  0  0  0
 33 60  1  0  0  0  0
 34 35  1  0  0  0  0
 34 61  1  0  0  0  0
 36 62  1  0  0  0  0
 37 63  1  0  0  0  0
 37 64  1  0  0  0  0
 37 65  1  0  0  0  0
 38 66  1  0  0  0  0
 38 67  1  0  0  0  0
 38 68  1  0  0  0  0
M  END
> <PUBCHEM_COMPOUND_CID>
44716813

> <PUBCHEM_CONFORMER_RMSD>
1.2

> <PUBCHEM_CONFORMER_DIVERSEORDER>
1
252
181
93
251
36
135
187
191
156
25
64
256
31
237
173
165
147
29
148
179
226
140
117
236
175
33
14
241
12
106
257
109
178
217
47
87
58
248
180
45
160
94
234
136
170
3
224
141
184
26
229
203
17
150
39
114
238
249
130
230
103
95
32
221
264
155
208
144
18
53
246
55
242
209
214
126
250
71
27
204
128
167
112
102
232
84
190
166
41
146
80
213
74
100
196
2
259
149
122
50
220
159
42
82
57
20
107
38
134
177
260
223
142
189
52
138
127
199
123
227
70
255
66
245
78
254
116
207
35
105
60
210
185
161
101
104
89
118
263
77
48
132
194
6
88
83
151
30
120
162
125
253
222
153
258
182
113
21
92
193
183
243
216
98
69
13
10
195
212
129
73
247
201
164
235
211
133
205
79
72
97
198
171
197
172
152
218
81
261
76
157
59
37
40
143
62
67
15
186
19
131
49
63
262
8
233
265
200
121
239
111
91
163
65
23
137
145
124
61
11
154
90
206
108
215
139
99
240
7
86
51
75
22
28
244
266
24
4
202
9
231
34
44
56
46
110
43
54
115
174
219
119
85
96
188
5
225
168
176
16
169
192
228
158
68

> <PUBCHEM_MMFF94_PARTIAL_CHARGES>
51
1 -0.56
10 0.28
11 0.28
12 0.37
13 0.3
14 0.28
15 0.28
16 0.72
17 0.69
18 0.12
19 0.31
2 -0.56
20 0.16
21 -0.15
24 -0.15
26 -0.15
27 -0.15
28 -0.15
29 -0.15
3 -0.57
30 -0.15
31 -0.15
32 -0.15
33 -0.15
34 -0.15
35 0.1
36 -0.15
37 0.37
38 0.37
4 -0.87
47 0.4
48 0.37
49 0.37
5 -0.73
50 0.15
51 0.15
52 0.15
53 0.15
54 0.15
55 0.15
56 0.15
57 0.15
58 0.15
59 0.15
6 -0.55
60 0.15
61 0.15
62 0.15
7 -0.62
8 -0.62
9 -0.84

> <PUBCHEM_EFFECTIVE_ROTOR_COUNT>
9.2

> <PUBCHEM_PHARMACOPHORE_FEATURES>
15
1 1 acceptor
1 2 acceptor
1 3 acceptor
1 4 donor
1 5 donor
1 6 donor
1 7 acceptor
1 9 cation
4 4 7 8 16 cation
5 1 10 11 12 14 rings
5 2 10 11 13 15 rings
6 18 22 24 25 26 28 rings
6 22 25 27 31 32 36 rings
6 23 29 30 33 34 35 rings
6 7 8 16 19 20 21 rings

> <PUBCHEM_HEAVY_ATOM_COUNT>
38

> <PUBCHEM_ATOM_DEF_STEREO_COUNT>
4

> <PUBCHEM_ATOM_UDEF_STEREO_COUNT>
0

> <PUBCHEM_BOND_DEF_STEREO_COUNT>
0

> <PUBCHEM_BOND_UDEF_STEREO_COUNT>
0

> <PUBCHEM_ISOTOPIC_ATOM_COUNT>
0

> <PUBCHEM_COMPONENT_COUNT>
1

> <PUBCHEM_CACTVS_TAUTO_COUNT>
9

> <PUBCHEM_CONFORMER_ID>
02AA530D00000001

> <PUBCHEM_MMFF94_ENERGY>
140.3111

> <PUBCHEM_FEATURE_SELFOVERLAP>
76.908

> <PUBCHEM_SHAPE_FINGERPRINT>
10100884 174 18336261233470214298
10622 236 18188779331945698872
11227150 75 18334851689495215770
11476731 50 18335986347568966486
11478447 58 18266453398482442770
11478447 62 17896029959284757322
11607047 403 18127398159439484936
12047536 79 12750973074403562547
12402354 99 18187357745142002687
12758862 65 17131830988686473890
13782708 43 17773887574696690277
14068700 675 18337390427436559136
14340393 91 17749660797444594413
14664723 55 8214142992874379386
14951699 99 8142095251776238945
15230672 131 18342179960817962975
15510800 12 17418107519811812101
15530120 55 17824551996393630239
17324776 126 18262234392352424130
19303781 99 18041569040033668130
19304671 126 15502382269751098028
20737093 269 14297041119195182747
20775438 99 18115027536539264730
25025965 108 17389937865249187682
260245 28 18337669711369064867
42767 23 18409733967005569014
437795 139 18202005417082164665
439807 62 18340773745200916463
4408954 87 17131538480382522502
4440575 13 18410291424382036238
4756088 132 17552907838983981463
4760202 70 18261967267846834094
50009960 94 18059562616298787109
58902169 19 18114185190078151135
6677587 24 16736654574113468060
6697151 62 17703780462631505513
9511036 111 18340202991002469666
96874 4 18410009905901621666
9831354 38 18187077403340969971

> <PUBCHEM_SHAPE_MULTIPOLES>
734.53
25.32
6.52
2.5
16.63
2.83
-1.07
35.16
-4.94
-3.45
2.32
-3.91
-1.72
-7.91

> <PUBCHEM_SHAPE_SELFOVERLAP>
1622.132

> <PUBCHEM_SHAPE_VOLUME>
393.2

> <PUBCHEM_COORDINATE_TYPE>
2
5
10

$$$$
