75537144
  -OEChem-12032416323D

 50 52  0     1  0  0  0  0  0999 V2000
   -6.1178   -1.0122   -0.3157 S   0  0  0  0  0  0  0  0  0  0  0  0
    4.9916    1.2756   -1.0184 O   0  0  0  0  0  0  0  0  0  0  0  0
    5.9779   -1.0335    0.9789 O   0  0  0  0  0  0  0  0  0  0  0  0
   -6.5380   -1.9190    0.7439 O   0  0  0  0  0  0  0  0  0  0  0  0
   -7.0264    0.0259   -0.7810 O   0  0  0  0  0  0  0  0  0  0  0  0
    2.6677    1.0560   -0.7535 N   0  0  0  0  0  0  0  0  0  0  0  0
    0.0900    1.5008    0.2801 N   0  0  2  0  0  0  0  0  0  0  0  0
    3.8935   -0.8118   -0.9835 N   0  0  0  0  0  0  0  0  0  0  0  0
    1.6930   -0.0131   -0.8136 C   0  0  2  0  0  0  0  0  0  0  0  0
    0.6651    0.1407    0.3070 C   0  0  0  0  0  0  0  0  0  0  0  0
    2.5408   -1.2813   -0.7376 C   0  0  0  0  0  0  0  0  0  0  0  0
    2.2117    2.4246   -0.6273 C   0  0  0  0  0  0  0  0  0  0  0  0
    1.1420    2.5212    0.4633 C   0  0  0  0  0  0  0  0  0  0  0  0
    3.9785    0.5943   -0.9336 C   0  0  0  0  0  0  0  0  0  0  0  0
   -0.9387    1.6391    1.3107 C   0  0  0  0  0  0  0  0  0  0  0  0
    5.0104   -1.7223   -1.1063 C   0  0  0  0  0  0  0  0  0  0  0  0
   -2.2299    0.9787    0.9062 C   0  0  0  0  0  0  0  0  0  0  0  0
    5.5198   -2.1666    0.2526 C   0  0  0  0  0  0  0  0  0  0  0  0
   -3.0687    1.5967   -0.0212 C   0  0  0  0  0  0  0  0  0  0  0  0
   -2.5871   -0.2513    1.4586 C   0  0  0  0  0  0  0  0  0  0  0  0
   -4.2648    0.9849   -0.3961 C   0  0  0  0  0  0  0  0  0  0  0  0
   -3.7833   -0.8632    1.0838 C   0  0  0  0  0  0  0  0  0  0  0  0
   -4.6221   -0.2451    0.1566 C   0  0  0  0  0  0  0  0  0  0  0  0
    6.4711   -1.4000    2.2602 C   0  0  0  0  0  0  0  0  0  0  0  0
   -5.6763   -2.0192   -1.7137 C   0  0  0  0  0  0  0  0  0  0  0  0
    1.2040    0.0538   -1.7945 H   0  0  0  0  0  0  0  0  0  0  0  0
   -0.1066   -0.6215    0.1549 H   0  0  0  0  0  0  0  0  0  0  0  0
    1.1332   -0.0527    1.2819 H   0  0  0  0  0  0  0  0  0  0  0  0
    2.5097   -1.7501    0.2510 H   0  0  0  0  0  0  0  0  0  0  0  0
    2.2533   -2.0128   -1.4987 H   0  0  0  0  0  0  0  0  0  0  0  0
    1.7994    2.7209   -1.5987 H   0  0  0  0  0  0  0  0  0  0  0  0
    3.0631    3.0763   -0.4071 H   0  0  0  0  0  0  0  0  0  0  0  0
    1.6140    2.4025    1.4479 H   0  0  0  0  0  0  0  0  0  0  0  0
    0.7063    3.5267    0.4259 H   0  0  0  0  0  0  0  0  0  0  0  0
   -1.1714    2.7005    1.4771 H   0  0  0  0  0  0  0  0  0  0  0  0
   -0.5929    1.2659    2.2844 H   0  0  0  0  0  0  0  0  0  0  0  0
    5.8106   -1.1924   -1.6353 H   0  0  0  0  0  0  0  0  0  0  0  0
    4.6993   -2.5791   -1.7122 H   0  0  0  0  0  0  0  0  0  0  0  0
    6.3484   -2.8710    0.1164 H   0  0  0  0  0  0  0  0  0  0  0  0
    4.7246   -2.6670    0.8173 H   0  0  0  0  0  0  0  0  0  0  0  0
   -2.8003    2.5541   -0.4601 H   0  0  0  0  0  0  0  0  0  0  0  0
   -1.9421   -0.7445    2.1809 H   0  0  0  0  0  0  0  0  0  0  0  0
   -4.8988    1.4808   -1.1257 H   0  0  0  0  0  0  0  0  0  0  0  0
   -4.0387   -1.8243    1.5212 H   0  0  0  0  0  0  0  0  0  0  0  0
    6.8096   -0.4942    2.7704 H   0  0  0  0  0  0  0  0  0  0  0  0
    7.3196   -2.0842    2.1636 H   0  0  0  0  0  0  0  0  0  0  0  0
    5.6795   -1.8620    2.8580 H   0  0  0  0  0  0  0  0  0  0  0  0
   -6.5775   -2.5275   -2.0633 H   0  0  0  0  0  0  0  0  0  0  0  0
   -5.2815   -1.3770   -2.5033 H   0  0  0  0  0  0  0  0  0  0  0  0
   -4.9316   -2.7538   -1.4017 H   0  0  0  0  0  0  0  0  0  0  0  0
  1  4  2  0  0  0  0
  1  5  2  0  0  0  0
  1 23  1  0  0  0  0
  1 25  1  0  0  0  0
  2 14  2  0  0  0  0
  3 18  1  0  0  0  0
  3 24  1  0  0  0  0
  6  9  1  0  0  0  0
  6 12  1  0  0  0  0
  6 14  1  0  0  0  0
  7 10  1  0  0  0  0
  7 13  1  0  0  0  0
  7 15  1  0  0  0  0
  8 11  1  0  0  0  0
  8 14  1  0  0  0  0
  8 16  1  0  0  0  0
  9 10  1  0  0  0  0
  9 11  1  0  0  0  0
  9 26  1  0  0  0  0
 10 27  1  0  0  0  0
 10 28  1  0  0  0  0
 11 29  1  0  0  0  0
 11 30  1  0  0  0  0
 12 13  1  0  0  0  0
 12 31  1  0  0  0  0
 12 32  1  0  0  0  0
 13 33  1  0  0  0  0
 13 34  1  0  0  0  0
 15 17  1  0  0  0  0
 15 35  1  0  0  0  0
 15 36  1  0  0  0  0
 16 18  1  0  0  0  0
 16 37  1  0  0  0  0
 16 38  1  0  0  0  0
 17 19  2  0  0  0  0
 17 20  1  0  0  0  0
 18 39  1  0  0  0  0
 18 40  1  0  0  0  0
 19 21  1  0  0  0  0
 19 41  1  0  0  0  0
 20 22  2  0  0  0  0
 20 42  1  0  0  0  0
 21 23  2  0  0  0  0
 21 43  1  0  0  0  0
 22 23  1  0  0  0  0
 22 44  1  0  0  0  0
 24 45  1  0  0  0  0
 24 46  1  0  0  0  0
 24 47  1  0  0  0  0
 25 48  1  0  0  0  0
 25 49  1  0  0  0  0
 25 50  1  0  0  0  0
M  END
> <PUBCHEM_COMPOUND_CID>
75537144

> <PUBCHEM_CONFORMER_RMSD>
0.8

> <PUBCHEM_CONFORMER_DIVERSEORDER>
1
117
106
102
28
13
97
140
135
66
46
84
39
47
67
63
69
111
104
51
115
101
138
79
129
123
132
108
85
68
41
131
126
35
62
12
56
103
64
74
81
37
54
112
75
116
146
25
71
141
94
109
99
139
107
14
77
33
58
130
93
57
24
136
43
100
127
114
48
72
119
120
89
145
113
38
16
40
96
34
22
110
80
36
92
10
128
98
20
125
88
59
29
49
105
118
87
76
30
42
134
90
27
32
11
17
82
55
124
95
137
23
86
45
9
65
50
143
78
15
7
73
60
31
21
26
133
3
121
144
53
142
6
91
8
70
122
61
4
52
19
5
44
18
83
2

> <PUBCHEM_MMFF94_PARTIAL_CHARGES>
29
1 1.2
10 0.27
11 0.3
12 0.3
13 0.27
14 0.69
15 0.41
16 0.3
17 -0.14
18 0.28
19 -0.15
2 -0.57
20 -0.15
21 -0.15
22 -0.15
23 -0.01
24 0.28
25 0.11
3 -0.56
4 -0.65
41 0.15
42 0.15
43 0.15
44 0.15
5 -0.65
6 -0.66
7 -0.81
8 -0.66
9 0.3

> <PUBCHEM_EFFECTIVE_ROTOR_COUNT>
7.2

> <PUBCHEM_PHARMACOPHORE_FEATURES>
8
1 2 acceptor
1 3 acceptor
1 4 acceptor
1 5 acceptor
1 7 cation
5 6 8 9 11 14 rings
6 17 19 20 21 22 23 rings
6 6 7 9 10 12 13 rings

> <PUBCHEM_HEAVY_ATOM_COUNT>
25

> <PUBCHEM_ATOM_DEF_STEREO_COUNT>
1

> <PUBCHEM_ATOM_UDEF_STEREO_COUNT>
0

> <PUBCHEM_BOND_DEF_STEREO_COUNT>
0

> <PUBCHEM_BOND_UDEF_STEREO_COUNT>
0

> <PUBCHEM_ISOTOPIC_ATOM_COUNT>
0

> <PUBCHEM_COMPONENT_COUNT>
1

> <PUBCHEM_CACTVS_TAUTO_COUNT>
1

> <PUBCHEM_CONFORMER_ID>
04809AF800000001

> <PUBCHEM_MMFF94_ENERGY>
51.0285

> <PUBCHEM_FEATURE_SELFOVERLAP>
40.71

> <PUBCHEM_SHAPE_FINGERPRINT>
10 15 10592043570872830975
10378564 45 13479135675385228282
10447042 23 18411987974527279188
10670039 82 14851878111221129271
10753850 27 18412546509549849155
12166972 35 18261119573001236276
12390115 104 8502364547094777761
12596602 18 15985106275531530827
13782708 43 18186522120320512427
13885169 86 9367046879135565998
13914758 101 17531241712990834789
14251751 18 17918269874872307287
14251752 14 18187081720557944261
14347332 77 18411419497288915001
14951699 99 10591773099281099011
15183329 4 16443067162456948362
15188451 53 18338510846996748090
17134984 74 18187935022848250234
17349148 13 18338813225447308888
17857418 61 18201723976717964407
18222031 100 18343030956451842100
190975 80 16988551433579086427
19377110 9 15626218030946245080
19958102 18 17458341948891473267
200 152 18130797767418696337
20028762 73 18202005400155945038
20567600 234 17846204580316428544
21033650 10 16588301649492073381
21315763 87 17703789198046021546
21315764 119 16370724824909017563
22393880 68 18187923950448662021
23198884 109 17022624174359591711
23522609 53 17911838861711787641
23559900 14 18115309003005648601
2838139 119 13479406223791051943
3004659 81 18408611352685319390
4058900 60 10809611585650105685
439807 62 18339644555507945919
463206 1 18129665330656187815
5104073 3 17489594419827515680
5718773 13 18410009914227929106
59682541 35 17846489353770227570
59682541 52 15936682692675180666
59755656 520 15430614857174495993
633830 44 11747515980704752538
6438161 24 18131061659147346471

> <PUBCHEM_SHAPE_MULTIPOLES>
479.92
18.08
2.52
1.52
5.13
0.43
-0.44
-13.13
-0.19
-0.94
0.18
-1.1
-0.49
-1.52

> <PUBCHEM_SHAPE_SELFOVERLAP>
986.662

> <PUBCHEM_SHAPE_VOLUME>
279.4

> <PUBCHEM_COORDINATE_TYPE>
2
5
10

$$$$
