11941977
  -OEChem-12032416153D

 57 60  0     1  0  0  0  0  0999 V2000
    2.1119   -0.8454   -1.3770 O   0  0  0  0  0  0  0  0  0  0  0  0
    6.4202   -1.8396    0.8386 O   0  0  0  0  0  0  0  0  0  0  0  0
    0.5474    2.6151   -0.7132 N   0  0  2  0  0  0  0  0  0  0  0  0
    3.8502   -0.9038    0.1609 N   0  0  0  0  0  0  0  0  0  0  0  0
   -2.2613    0.1334   -1.2682 N   0  0  0  0  0  0  0  0  0  0  0  0
   -2.0724   -1.1616   -0.9971 N   0  0  0  0  0  0  0  0  0  0  0  0
   -3.2677   -1.6762   -0.7298 N   0  0  0  0  0  0  0  0  0  0  0  0
    1.3911    1.0190    1.1610 C   0  0  2  0  0  0  0  0  0  0  0  0
    2.3864    1.0748   -0.0139 C   0  0  2  0  0  0  0  0  0  0  0  0
   -0.5139    1.6318   -0.3683 C   0  0  2  0  0  0  0  0  0  0  0  0
    0.0122    0.5782    0.6309 C   0  0  0  0  0  0  0  0  0  0  0  0
    1.2416    2.4586    1.6850 C   0  0  0  0  0  0  0  0  0  0  0  0
    1.7776    1.9113   -1.1532 C   0  0  0  0  0  0  0  0  0  0  0  0
    0.8698    3.3865    0.5134 C   0  0  0  0  0  0  0  0  0  0  0  0
   -1.1307    0.9812   -1.6084 C   0  0  0  0  0  0  0  0  0  0  0  0
    2.7625   -0.3103   -0.4758 C   0  0  0  0  0  0  0  0  0  0  0  0
    4.5643   -0.3522    1.3172 C   0  0  0  0  0  0  0  0  0  0  0  0
    4.2850   -2.2448   -0.2297 C   0  0  0  0  0  0  0  0  0  0  0  0
   -3.5624    0.4958   -1.1872 C   0  0  0  0  0  0  0  0  0  0  0  0
    6.0691   -0.4819    1.1186 C   0  0  0  0  0  0  0  0  0  0  0  0
    5.8000   -2.2919   -0.3679 C   0  0  0  0  0  0  0  0  0  0  0  0
   -4.1911   -0.6741   -0.8420 C   0  0  0  0  0  0  0  0  0  0  0  0
   -5.6190   -0.9226   -0.6059 C   0  0  0  0  0  0  0  0  0  0  0  0
   -6.0419   -0.7137    0.8641 C   0  0  0  0  0  0  0  0  0  0  0  0
   -7.5217   -1.0205    1.0937 C   0  0  0  0  0  0  0  0  0  0  0  0
   -7.9070   -0.8467    2.5541 C   0  0  0  0  0  0  0  0  0  0  0  0
    1.7273    0.3463    1.9568 H   0  0  0  0  0  0  0  0  0  0  0  0
    3.2858    1.6236    0.2781 H   0  0  0  0  0  0  0  0  0  0  0  0
   -1.3265    2.1855    0.1254 H   0  0  0  0  0  0  0  0  0  0  0  0
   -0.6903    0.4883    1.4691 H   0  0  0  0  0  0  0  0  0  0  0  0
    0.1052   -0.4168    0.1872 H   0  0  0  0  0  0  0  0  0  0  0  0
    0.4650    2.4975    2.4583 H   0  0  0  0  0  0  0  0  0  0  0  0
    2.1775    2.7964    2.1454 H   0  0  0  0  0  0  0  0  0  0  0  0
    1.5779    1.3418   -2.0662 H   0  0  0  0  0  0  0  0  0  0  0  0
    2.5097    2.6668   -1.4710 H   0  0  0  0  0  0  0  0  0  0  0  0
    0.0164    4.0165    0.7933 H   0  0  0  0  0  0  0  0  0  0  0  0
    1.6923    4.0834    0.3077 H   0  0  0  0  0  0  0  0  0  0  0  0
   -1.5020    1.7444   -2.3030 H   0  0  0  0  0  0  0  0  0  0  0  0
   -0.4184    0.3559   -2.1577 H   0  0  0  0  0  0  0  0  0  0  0  0
    4.3092    0.6763    1.5616 H   0  0  0  0  0  0  0  0  0  0  0  0
    4.2567   -0.9655    2.1737 H   0  0  0  0  0  0  0  0  0  0  0  0
    3.9559   -2.9228    0.5667 H   0  0  0  0  0  0  0  0  0  0  0  0
    3.8064   -2.5588   -1.1621 H   0  0  0  0  0  0  0  0  0  0  0  0
   -3.9175    1.5001   -1.3700 H   0  0  0  0  0  0  0  0  0  0  0  0
    6.4205    0.1591    0.3013 H   0  0  0  0  0  0  0  0  0  0  0  0
    6.5953   -0.1819    2.0302 H   0  0  0  0  0  0  0  0  0  0  0  0
    6.1295   -3.3193   -0.5512 H   0  0  0  0  0  0  0  0  0  0  0  0
    6.1449   -1.6738   -1.2053 H   0  0  0  0  0  0  0  0  0  0  0  0
   -5.8599   -1.9503   -0.9054 H   0  0  0  0  0  0  0  0  0  0  0  0
   -6.2191   -0.2663   -1.2487 H   0  0  0  0  0  0  0  0  0  0  0  0
   -5.4303   -1.3565    1.5105 H   0  0  0  0  0  0  0  0  0  0  0  0
   -5.8301    0.3214    1.1611 H   0  0  0  0  0  0  0  0  0  0  0  0
   -8.1379   -0.3581    0.4749 H   0  0  0  0  0  0  0  0  0  0  0  0
   -7.7399   -2.0494    0.7848 H   0  0  0  0  0  0  0  0  0  0  0  0
   -8.9692   -1.0697    2.6948 H   0  0  0  0  0  0  0  0  0  0  0  0
   -7.3305   -1.5213    3.1951 H   0  0  0  0  0  0  0  0  0  0  0  0
   -7.7283    0.1806    2.8872 H   0  0  0  0  0  0  0  0  0  0  0  0
  1 16  2  0  0  0  0
  2 20  1  0  0  0  0
  2 21  1  0  0  0  0
  3 10  1  0  0  0  0
  3 13  1  0  0  0  0
  3 14  1  0  0  0  0
  4 16  1  0  0  0  0
  4 17  1  0  0  0  0
  4 18  1  0  0  0  0
  5  6  1  0  0  0  0
  5 15  1  0  0  0  0
  5 19  1  0  0  0  0
  6  7  2  0  0  0  0
  7 22  1  0  0  0  0
  8  9  1  0  0  0  0
  8 11  1  0  0  0  0
  8 12  1  0  0  0  0
  8 27  1  0  0  0  0
  9 13  1  0  0  0  0
  9 16  1  0  0  0  0
  9 28  1  0  0  0  0
 10 11  1  0  0  0  0
 10 15  1  0  0  0  0
 10 29  1  0  0  0  0
 11 30  1  0  0  0  0
 11 31  1  0  0  0  0
 12 14  1  0  0  0  0
 12 32  1  0  0  0  0
 12 33  1  0  0  0  0
 13 34  1  0  0  0  0
 13 35  1  0  0  0  0
 14 36  1  0  0  0  0
 14 37  1  0  0  0  0
 15 38  1  0  0  0  0
 15 39  1  0  0  0  0
 17 20  1  0  0  0  0
 17 40  1  0  0  0  0
 17 41  1  0  0  0  0
 18 21  1  0  0  0  0
 18 42  1  0  0  0  0
 18 43  1  0  0  0  0
 19 22  2  0  0  0  0
 19 44  1  0  0  0  0
 20 45  1  0  0  0  0
 20 46  1  0  0  0  0
 21 47  1  0  0  0  0
 21 48  1  0  0  0  0
 22 23  1  0  0  0  0
 23 24  1  0  0  0  0
 23 49  1  0  0  0  0
 23 50  1  0  0  0  0
 24 25  1  0  0  0  0
 24 51  1  0  0  0  0
 24 52  1  0  0  0  0
 25 26  1  0  0  0  0
 25 53  1  0  0  0  0
 25 54  1  0  0  0  0
 26 55  1  0  0  0  0
 26 56  1  0  0  0  0
 26 57  1  0  0  0  0
M  END
> <PUBCHEM_COMPOUND_CID>
11941977

> <PUBCHEM_CONFORMER_RMSD>
1

> <PUBCHEM_CONFORMER_DIVERSEORDER>
2
45
52
53
26
16
61
56
41
25
60
58
19
59
38
29
17
28
51
24
55
40
50
49
13
62
5
36
63
32
47
14
31
64
6
21
12
57
15
9
35
3
4
10
8
1
54
33
18
42
44
20
23
22
27
48
34
30
7
46
43
11
39
37

> <PUBCHEM_MMFF94_PARTIAL_CHARGES>
21
1 -0.57
10 0.27
13 0.27
14 0.27
15 0.26
16 0.57
17 0.3
18 0.3
19 -0.3
2 -0.56
20 0.28
21 0.28
22 0.05
23 0.18
3 -0.81
4 -0.66
44 0.15
5 0.31
6 -0.42
7 -0.23
9 0.06

> <PUBCHEM_EFFECTIVE_ROTOR_COUNT>
9.4

> <PUBCHEM_PHARMACOPHORE_FEATURES>
7
1 1 acceptor
1 2 acceptor
1 26 hydrophobe
1 3 cation
5 5 6 7 19 22 rings
6 2 4 17 18 20 21 rings
8 3 8 9 10 11 12 13 14 rings

> <PUBCHEM_HEAVY_ATOM_COUNT>
26

> <PUBCHEM_ATOM_DEF_STEREO_COUNT>
3

> <PUBCHEM_ATOM_UDEF_STEREO_COUNT>
0

> <PUBCHEM_BOND_DEF_STEREO_COUNT>
0

> <PUBCHEM_BOND_UDEF_STEREO_COUNT>
0

> <PUBCHEM_ISOTOPIC_ATOM_COUNT>
0

> <PUBCHEM_COMPONENT_COUNT>
1

> <PUBCHEM_CACTVS_TAUTO_COUNT>
1

> <PUBCHEM_CONFORMER_ID>
00B6385900000002

> <PUBCHEM_MMFF94_ENERGY>
49.0743

> <PUBCHEM_FEATURE_SELFOVERLAP>
35.522

> <PUBCHEM_SHAPE_FINGERPRINT>
10693767 8 13696128675693050648
11135609 12 18187925135400778073
11265709 11 18341890771320437404
11545043 162 17967524671755515189
11578080 2 14852759993156966774
11646440 116 18411982446794099666
11961588 58 10809348840482064188
12035758 1 18338783607115472266
12107183 9 18131355220024962307
12633257 1 18059292162450926727
13103583 49 17203315741197183590
13150687 139 11097854056366199088
13544653 18 18058995221465749124
13673619 4 17967533476269601725
13685833 64 18334293171446890327
13782708 43 17967248724243854811
13955234 65 18191303981936115652
14123256 34 18187366510616644951
14251764 18 17632293506321388415
14251764 30 17530965800318707987
14347424 109 18343305903152486281
14528608 73 11314023582984312871
14767858 380 12179845022367315899
14790565 3 17476620449768255888
15142383 8 18343299241473593545
15238133 3 16773524368799629153
15475509 84 17632579340168341601
15927050 60 17552623065935739988
15961568 22 11095889284758810435
16120349 189 10303513014687555210
17492 54 11314311663536140413
17980427 23 14836110079218071345
17980427 26 17198236139623248756
20465049 17 17458344156488807267
20511986 3 12391514157635703373
20721686 146 13614522960964618738
21033648 29 14836410228828349797
21267235 1 18409449159619701830
21344244 181 17022910063761031651
21365058 113 17386012779860731941
21403212 168 10735880543720460396
21421861 104 18060139885457382512
21521239 73 13840260365011814032
22765269 38 11672065233775336635
23559900 14 18264190552238712349
249057 25 17346033489830561437
2838139 119 8430320160012700310
3004659 81 18113894936594398238
3178227 256 18335427876348212251
3421961 26 18270669978487597788
3737641 26 18128250082865732214
439807 62 17022899030570510667
46194498 28 17530962518536407124
5283384 27 11815894544327593819
54039377 194 18187368705640553270
58260988 587 17606695870088179268
6327066 14 9294990376509584442
8509985 295 17131843092373662817
8863177 126 17895198869721150875
999808 66 18113621179653124667

> <PUBCHEM_SHAPE_MULTIPOLES>
498.42
17.46
2.81
1.74
22.05
1.57
-0.53
-16.08
-9.94
-3.2
-0.15
1.97
0.12
0.78

> <PUBCHEM_SHAPE_SELFOVERLAP>
1039.535

> <PUBCHEM_SHAPE_VOLUME>
280

> <PUBCHEM_COORDINATE_TYPE>
2
5
10

$$$$
