71693198
  -OEChem-12032416303D

 62 64  0     1  0  0  0  0  0999 V2000
    4.2030   -0.3856   -1.8300 O   0  0  0  0  0  0  0  0  0  0  0  0
   -7.1155   -1.2963   -0.3706 O   0  0  0  0  0  0  0  0  0  0  0  0
    4.6421   -5.0384   -0.2449 O   0  0  0  0  0  0  0  0  0  0  0  0
    4.3058   -3.9867    1.7514 O   0  0  0  0  0  0  0  0  0  0  0  0
    3.8527    0.8143    0.1321 N   0  0  0  0  0  0  0  0  0  0  0  0
   -2.8133    0.1939    1.4316 N   0  0  0  0  0  0  0  0  0  0  0  0
   -1.6319   -0.7524   -0.1957 N   0  0  0  0  0  0  0  0  0  0  0  0
    1.2342    1.9404   -0.8263 C   0  0  1  0  0  0  0  0  0  0  0  0
    2.3741    2.7346   -0.1411 C   0  0  1  0  0  0  0  0  0  0  0  0
   -0.1198    2.2880   -0.1890 C   0  0  0  0  0  0  0  0  0  0  0  0
   -0.1495    1.9806    1.3200 C   0  0  2  0  0  0  0  0  0  0  0  0
    1.1816    2.2072   -2.3338 C   0  0  0  0  0  0  0  0  0  0  0  0
    1.0850    2.5044    2.0258 C   0  0  0  0  0  0  0  0  0  0  0  0
    2.1986    2.8488    1.3551 C   0  0  0  0  0  0  0  0  0  0  0  0
    3.7423    2.1155   -0.4489 C   0  0  0  0  0  0  0  0  0  0  0  0
   -0.3321    0.4803    1.5746 C   0  0  0  0  0  0  0  0  0  0  0  0
    0.5178    1.0401   -3.0580 C   0  0  0  0  0  0  0  0  0  0  0  0
    0.4425    3.5109   -2.6180 C   0  0  0  0  0  0  0  0  0  0  0  0
    0.9944    2.6664    3.5176 C   0  0  0  0  0  0  0  0  0  0  0  0
   -1.5725   -0.0423    0.9084 C   0  0  0  0  0  0  0  0  0  0  0  0
   -3.7346   -0.4033    0.6102 C   0  0  0  0  0  0  0  0  0  0  0  0
    4.0763   -0.3433   -0.6105 C   0  0  0  0  0  0  0  0  0  0  0  0
   -2.9725   -0.9872   -0.3978 C   0  0  0  0  0  0  0  0  0  0  0  0
   -5.1268   -0.4807    0.6609 C   0  0  0  0  0  0  0  0  0  0  0  0
   -3.6210   -1.6943   -1.4244 C   0  0  0  0  0  0  0  0  0  0  0  0
    4.1466   -1.5613    0.2445 C   0  0  0  0  0  0  0  0  0  0  0  0
   -5.7558   -1.1882   -0.3689 C   0  0  0  0  0  0  0  0  0  0  0  0
   -5.0182   -1.7850   -1.3939 C   0  0  0  0  0  0  0  0  0  0  0  0
    4.3569   -2.7569   -0.3191 C   0  0  0  0  0  0  0  0  0  0  0  0
    4.4244   -3.9564    0.5383 C   0  0  0  0  0  0  0  0  0  0  0  0
   -7.8151   -0.6671    0.7004 C   0  0  0  0  0  0  0  0  0  0  0  0
    1.4082    0.8684   -0.6739 H   0  0  0  0  0  0  0  0  0  0  0  0
    2.3880    3.7620   -0.5261 H   0  0  0  0  0  0  0  0  0  0  0  0
   -0.9515    1.8112   -0.7143 H   0  0  0  0  0  0  0  0  0  0  0  0
   -0.3036    3.3686   -0.2646 H   0  0  0  0  0  0  0  0  0  0  0  0
   -1.0211    2.5126    1.7281 H   0  0  0  0  0  0  0  0  0  0  0  0
    2.1938    2.2958   -2.7415 H   0  0  0  0  0  0  0  0  0  0  0  0
    3.0384    3.2638    1.9091 H   0  0  0  0  0  0  0  0  0  0  0  0
    4.5404    2.7246   -0.0072 H   0  0  0  0  0  0  0  0  0  0  0  0
    3.9405    2.0737   -1.5233 H   0  0  0  0  0  0  0  0  0  0  0  0
   -0.4070    0.2771    2.6502 H   0  0  0  0  0  0  0  0  0  0  0  0
    0.5326   -0.0914    1.2160 H   0  0  0  0  0  0  0  0  0  0  0  0
    0.5136    1.2140   -4.1397 H   0  0  0  0  0  0  0  0  0  0  0  0
   -0.5204    0.8923   -2.7452 H   0  0  0  0  0  0  0  0  0  0  0  0
    1.0623    0.1069   -2.8778 H   0  0  0  0  0  0  0  0  0  0  0  0
    0.8318    4.3526   -2.0376 H   0  0  0  0  0  0  0  0  0  0  0  0
    0.5752    3.7762   -3.6742 H   0  0  0  0  0  0  0  0  0  0  0  0
   -0.6391    3.4355   -2.4647 H   0  0  0  0  0  0  0  0  0  0  0  0
    0.1430    3.3028    3.7798 H   0  0  0  0  0  0  0  0  0  0  0  0
    1.8933    3.1309    3.9370 H   0  0  0  0  0  0  0  0  0  0  0  0
    0.8681    1.6958    4.0064 H   0  0  0  0  0  0  0  0  0  0  0  0
    3.8102    0.7458    1.1450 H   0  0  0  0  0  0  0  0  0  0  0  0
   -3.0177    0.7162    2.2733 H   0  0  0  0  0  0  0  0  0  0  0  0
   -5.6390    0.0035    1.4819 H   0  0  0  0  0  0  0  0  0  0  0  0
   -3.0567   -2.1611   -2.2253 H   0  0  0  0  0  0  0  0  0  0  0  0
    4.0220   -1.4440    1.3159 H   0  0  0  0  0  0  0  0  0  0  0  0
   -5.5298   -2.3299   -2.1838 H   0  0  0  0  0  0  0  0  0  0  0  0
    4.4816   -2.8841   -1.3889 H   0  0  0  0  0  0  0  0  0  0  0  0
   -8.8826   -0.8525    0.5416 H   0  0  0  0  0  0  0  0  0  0  0  0
   -7.6763    0.4194    0.6901 H   0  0  0  0  0  0  0  0  0  0  0  0
   -7.5559   -1.1107    1.6677 H   0  0  0  0  0  0  0  0  0  0  0  0
    4.6954   -5.8663    0.2787 H   0  0  0  0  0  0  0  0  0  0  0  0
  1 22  2  0  0  0  0
  2 27  1  0  0  0  0
  2 31  1  0  0  0  0
  3 30  1  0  0  0  0
  3 62  1  0  0  0  0
  4 30  2  0  0  0  0
  5 15  1  0  0  0  0
  5 22  1  0  0  0  0
  5 52  1  0  0  0  0
  6 20  1  0  0  0  0
  6 21  1  0  0  0  0
  6 53  1  0  0  0  0
  7 20  2  0  0  0  0
  7 23  1  0  0  0  0
  8  9  1  0  0  0  0
  8 10  1  0  0  0  0
  8 12  1  0  0  0  0
  8 32  1  0  0  0  0
  9 14  1  0  0  0  0
  9 15  1  0  0  0  0
  9 33  1  0  0  0  0
 10 11  1  0  0  0  0
 10 34  1  0  0  0  0
 10 35  1  0  0  0  0
 11 13  1  0  0  0  0
 11 16  1  0  0  0  0
 11 36  1  0  0  0  0
 12 17  1  0  0  0  0
 12 18  1  0  0  0  0
 12 37  1  0  0  0  0
 13 14  2  0  0  0  0
 13 19  1  0  0  0  0
 14 38  1  0  0  0  0
 15 39  1  0  0  0  0
 15 40  1  0  0  0  0
 16 20  1  0  0  0  0
 16 41  1  0  0  0  0
 16 42  1  0  0  0  0
 17 43  1  0  0  0  0
 17 44  1  0  0  0  0
 17 45  1  0  0  0  0
 18 46  1  0  0  0  0
 18 47  1  0  0  0  0
 18 48  1  0  0  0  0
 19 49  1  0  0  0  0
 19 50  1  0  0  0  0
 19 51  1  0  0  0  0
 21 23  2  0  0  0  0
 21 24  1  0  0  0  0
 22 26  1  0  0  0  0
 23 25  1  0  0  0  0
 24 27  2  0  0  0  0
 24 54  1  0  0  0  0
 25 28  2  0  0  0  0
 25 55  1  0  0  0  0
 26 29  2  0  0  0  0
 26 56  1  0  0  0  0
 27 28  1  0  0  0  0
 28 57  1  0  0  0  0
 29 30  1  0  0  0  0
 29 58  1  0  0  0  0
 31 59  1  0  0  0  0
 31 60  1  0  0  0  0
 31 61  1  0  0  0  0
M  END
> <PUBCHEM_COMPOUND_CID>
71693198

> <PUBCHEM_CONFORMER_RMSD>
1

> <PUBCHEM_CONFORMER_DIVERSEORDER>
1
74
30
50
60
17
53
79
78
33
28
34
73
66
68
67
11
5
25
63
39
6
21
72
42
56
24
76
40
49
48
10
61
77
26
64
51
9
70
71
55
16
38
41
47
35
13
8
18
54
43
2
32
65
3
27
31
37
58
62
15
46
4
7
57
36
44
75
69
45
14
23
52
22
29
59
12
19
20

> <PUBCHEM_MMFF94_PARTIAL_CHARGES>
35
1 -0.57
11 0.14
13 -0.28
14 -0.29
15 0.3
16 0.18
19 0.14
2 -0.36
20 0.01
21 -0.15
22 0.62
23 0.23
24 -0.15
25 -0.15
26 -0.14
27 0.08
28 -0.15
29 -0.14
3 -0.65
30 0.71
31 0.28
38 0.15
4 -0.57
5 -0.73
52 0.37
53 0.27
54 0.15
55 0.15
56 0.15
57 0.15
58 0.15
6 0.03
62 0.5
7 -0.57
9 0.14

> <PUBCHEM_EFFECTIVE_ROTOR_COUNT>
9.8

> <PUBCHEM_PHARMACOPHORE_FEATURES>
12
1 1 acceptor
1 2 acceptor
1 3 acceptor
1 4 acceptor
1 5 donor
1 6 donor
3 12 17 18 hydrophobe
3 3 4 30 anion
3 6 7 20 cation
5 6 7 20 21 23 rings
6 21 23 24 25 27 28 rings
6 8 9 10 11 13 14 rings

> <PUBCHEM_HEAVY_ATOM_COUNT>
31

> <PUBCHEM_ATOM_DEF_STEREO_COUNT>
3

> <PUBCHEM_ATOM_UDEF_STEREO_COUNT>
0

> <PUBCHEM_BOND_DEF_STEREO_COUNT>
1

> <PUBCHEM_BOND_UDEF_STEREO_COUNT>
0

> <PUBCHEM_ISOTOPIC_ATOM_COUNT>
0

> <PUBCHEM_COMPONENT_COUNT>
1

> <PUBCHEM_CACTVS_TAUTO_COUNT>
6

> <PUBCHEM_CONFORMER_ID>
0445F38E00000001

> <PUBCHEM_MMFF94_ENERGY>
67.9902

> <PUBCHEM_FEATURE_SELFOVERLAP>
61.058

> <PUBCHEM_SHAPE_FINGERPRINT>
10622 236 18193278486282561170
11069576 57 18409456873581523238
11135609 149 18263340577899246927
11796584 16 17273707652956060245
12617007 42 17168144593613875556
131258 38 18058436772517079470
13165053 137 14367723181025215619
13533116 47 18342459287424620419
14068700 675 18129955494425214252
15183329 4 17488756687463933889
17349148 13 15984556606117869377
18681886 176 15266230335027437800
19315092 285 18341052926559491970
20775530 9 18118412752616584082
21285901 2 17749380482183010236
25222932 49 16911713347941489615
3004659 81 16987733453316724361
345986 75 18131071489752240418
376196 1 16377768553916143557
4073 2 17840865497553788465
4093350 32 17968942044796127429
484985 159 17473263176732261350
57527573 199 15681652452713753788
70251023 43 18115306657858650634
8509985 295 17703515492522471421

> <PUBCHEM_SHAPE_MULTIPOLES>
599.55
13.76
5.1
2.61
24.26
4.66
-0.17
14.84
-0.02
-10.59
0.68
-1.14
-2.57
-1.43

> <PUBCHEM_SHAPE_SELFOVERLAP>
1263.616

> <PUBCHEM_SHAPE_VOLUME>
335.8

> <PUBCHEM_COORDINATE_TYPE>
2
5
10

$$$$
