25390420
  -OEChem-12032416173D

 51 52  0     1  0  0  0  0  0999 V2000
    1.8392    0.2203   -1.0484 O   0  0  0  0  0  0  0  0  0  0  0  0
    4.3371   -1.1968    1.1086 O   0  0  0  0  0  0  0  0  0  0  0  0
    4.4255    1.3543    0.0828 O   0  0  0  0  0  0  0  0  0  0  0  0
   -0.7027   -1.3393   -1.6006 O   0  0  0  0  0  0  0  0  0  0  0  0
   -0.1419    2.6028   -1.3515 O   0  0  0  0  0  0  0  0  0  0  0  0
    0.7701   -2.1958   -0.0110 N   0  0  0  0  0  0  0  0  0  0  0  0
   -1.4593    2.4756    0.5557 N   0  0  0  0  0  0  0  0  0  0  0  0
    2.7024   -0.8630   -0.6601 C   0  0  1  0  0  0  0  0  0  0  0  0
    3.1238   -0.5607    0.7681 C   0  0  2  0  0  0  0  0  0  0  0  0
    3.2256    0.9503    0.7413 C   0  0  2  0  0  0  0  0  0  0  0  0
    2.0468    1.3321   -0.1475 C   0  0  2  0  0  0  0  0  0  0  0  0
   -1.5769   -1.8767    0.5217 C   0  0  0  0  0  0  0  0  0  0  0  0
   -1.7805   -3.3378    0.9386 C   0  0  0  0  0  0  0  0  0  0  0  0
   -2.9008   -1.4184   -0.0918 C   0  0  0  0  0  0  0  0  0  0  0  0
    1.9639   -2.1818   -0.8036 C   0  0  0  0  0  0  0  0  0  0  0  0
   -3.2440   -3.6534    0.6485 C   0  0  0  0  0  0  0  0  0  0  0  0
   -3.6112   -2.7070   -0.4802 C   0  0  0  0  0  0  0  0  0  0  0  0
    0.7570    1.5467    0.6326 C   0  0  0  0  0  0  0  0  0  0  0  0
   -0.4664   -1.7718   -0.4787 C   0  0  0  0  0  0  0  0  0  0  0  0
   -0.3037    2.2621   -0.1827 C   0  0  0  0  0  0  0  0  0  0  0  0
   -2.6118    3.1342    0.0111 C   0  0  0  0  0  0  0  0  0  0  0  0
   -2.5047    4.6404    0.2109 C   0  0  0  0  0  0  0  0  0  0  0  0
   -3.8875    2.5837    0.6363 C   0  0  0  0  0  0  0  0  0  0  0  0
    3.5685   -0.8671   -1.3336 H   0  0  0  0  0  0  0  0  0  0  0  0
    2.3595   -0.8566    1.4949 H   0  0  0  0  0  0  0  0  0  0  0  0
    3.2214    1.4045    1.7362 H   0  0  0  0  0  0  0  0  0  0  0  0
    2.2840    2.2092   -0.7604 H   0  0  0  0  0  0  0  0  0  0  0  0
   -1.3181   -1.2493    1.3823 H   0  0  0  0  0  0  0  0  0  0  0  0
   -1.5574   -3.4855    2.0008 H   0  0  0  0  0  0  0  0  0  0  0  0
   -1.1426   -4.0284    0.3742 H   0  0  0  0  0  0  0  0  0  0  0  0
   -2.8311   -0.7161   -0.9271 H   0  0  0  0  0  0  0  0  0  0  0  0
   -3.4908   -0.9187    0.6877 H   0  0  0  0  0  0  0  0  0  0  0  0
    2.5907   -3.0197   -0.4829 H   0  0  0  0  0  0  0  0  0  0  0  0
    1.6832   -2.3381   -1.8510 H   0  0  0  0  0  0  0  0  0  0  0  0
   -3.8545   -3.4379    1.5336 H   0  0  0  0  0  0  0  0  0  0  0  0
   -3.3972   -4.7027    0.3804 H   0  0  0  0  0  0  0  0  0  0  0  0
   -3.2251   -3.0827   -1.4349 H   0  0  0  0  0  0  0  0  0  0  0  0
   -4.6926   -2.5731   -0.5740 H   0  0  0  0  0  0  0  0  0  0  0  0
    0.3364    0.5985    0.9811 H   0  0  0  0  0  0  0  0  0  0  0  0
    0.9569    2.1744    1.5099 H   0  0  0  0  0  0  0  0  0  0  0  0
    0.8417   -2.5326    0.9448 H   0  0  0  0  0  0  0  0  0  0  0  0
    4.6087   -0.8602    1.9794 H   0  0  0  0  0  0  0  0  0  0  0  0
    4.4323    2.3265    0.0617 H   0  0  0  0  0  0  0  0  0  0  0  0
   -1.4752    2.2066    1.5356 H   0  0  0  0  0  0  0  0  0  0  0  0
   -2.6458    2.9341   -1.0668 H   0  0  0  0  0  0  0  0  0  0  0  0
   -2.4492    4.8968    1.2748 H   0  0  0  0  0  0  0  0  0  0  0  0
   -1.6041    5.0376   -0.2700 H   0  0  0  0  0  0  0  0  0  0  0  0
   -3.3703    5.1549   -0.2190 H   0  0  0  0  0  0  0  0  0  0  0  0
   -3.9022    2.7443    1.7201 H   0  0  0  0  0  0  0  0  0  0  0  0
   -3.9721    1.5064    0.4615 H   0  0  0  0  0  0  0  0  0  0  0  0
   -4.7728    3.0653    0.2082 H   0  0  0  0  0  0  0  0  0  0  0  0
  1  8  1  0  0  0  0
  1 11  1  0  0  0  0
  2  9  1  0  0  0  0
  2 42  1  0  0  0  0
  3 10  1  0  0  0  0
  3 43  1  0  0  0  0
  4 19  2  0  0  0  0
  5 20  2  0  0  0  0
  6 15  1  0  0  0  0
  6 19  1  0  0  0  0
  6 41  1  0  0  0  0
  7 20  1  0  0  0  0
  7 21  1  0  0  0  0
  7 44  1  0  0  0  0
  8  9  1  0  0  0  0
  8 15  1  0  0  0  0
  8 24  1  0  0  0  0
  9 10  1  0  0  0  0
  9 25  1  0  0  0  0
 10 11  1  0  0  0  0
 10 26  1  0  0  0  0
 11 18  1  0  0  0  0
 11 27  1  0  0  0  0
 12 13  1  0  0  0  0
 12 14  1  0  0  0  0
 12 19  1  0  0  0  0
 12 28  1  0  0  0  0
 13 16  1  0  0  0  0
 13 29  1  0  0  0  0
 13 30  1  0  0  0  0
 14 17  1  0  0  0  0
 14 31  1  0  0  0  0
 14 32  1  0  0  0  0
 15 33  1  0  0  0  0
 15 34  1  0  0  0  0
 16 17  1  0  0  0  0
 16 35  1  0  0  0  0
 16 36  1  0  0  0  0
 17 37  1  0  0  0  0
 17 38  1  0  0  0  0
 18 20  1  0  0  0  0
 18 39  1  0  0  0  0
 18 40  1  0  0  0  0
 21 22  1  0  0  0  0
 21 23  1  0  0  0  0
 21 45  1  0  0  0  0
 22 46  1  0  0  0  0
 22 47  1  0  0  0  0
 22 48  1  0  0  0  0
 23 49  1  0  0  0  0
 23 50  1  0  0  0  0
 23 51  1  0  0  0  0
M  END
> <PUBCHEM_COMPOUND_CID>
25390420

> <PUBCHEM_CONFORMER_RMSD>
1

> <PUBCHEM_CONFORMER_DIVERSEORDER>
4
131
107
92
140
49
174
123
5
110
100
106
171
96
66
11
119
115
75
86
40
56
28
85
78
54
127
37
84
113
76
132
135
59
170
70
22
128
88
13
62
159
45
9
82
146
101
160
102
65
79
44
116
169
112
31
43
69
172
129
93
30
167
94
14
155
21
126
47
152
34
105
23
81
134
148
57
122
124
83
72
163
80
71
90
161
114
130
53
139
16
103
64
141
6
109
145
87
24
41
156
36
33
29
153
154
104
117
25
138
8
91
97
164
77
18
61
12
149
1
38
73
10
48
95
98
147
52
157
99
55
165
27
144
111
142
151
150
137
32
120
173
19
136
108
35
63
26
15
17
20
67
166
162
42
39
51
125
46
133
68
143
121
158
50
7
60
118
89
168
58
74
2
3

> <PUBCHEM_MMFF94_PARTIAL_CHARGES>
21
1 -0.56
10 0.28
11 0.28
12 0.06
15 0.3
18 0.06
19 0.57
2 -0.68
20 0.57
21 0.3
3 -0.68
4 -0.57
41 0.37
42 0.4
43 0.4
44 0.37
5 -0.57
6 -0.73
7 -0.73
8 0.28
9 0.28

> <PUBCHEM_EFFECTIVE_ROTOR_COUNT>
10

> <PUBCHEM_PHARMACOPHORE_FEATURES>
12
1 1 acceptor
1 2 acceptor
1 2 donor
1 3 acceptor
1 3 donor
1 4 acceptor
1 5 acceptor
1 6 donor
1 7 donor
3 21 22 23 hydrophobe
5 1 8 9 10 11 rings
5 12 13 14 16 17 rings

> <PUBCHEM_HEAVY_ATOM_COUNT>
23

> <PUBCHEM_ATOM_DEF_STEREO_COUNT>
4

> <PUBCHEM_ATOM_UDEF_STEREO_COUNT>
0

> <PUBCHEM_BOND_DEF_STEREO_COUNT>
0

> <PUBCHEM_BOND_UDEF_STEREO_COUNT>
0

> <PUBCHEM_ISOTOPIC_ATOM_COUNT>
0

> <PUBCHEM_COMPONENT_COUNT>
1

> <PUBCHEM_CACTVS_TAUTO_COUNT>
4

> <PUBCHEM_CONFORMER_ID>
01836D5400000004

> <PUBCHEM_MMFF94_ENERGY>
41.807

> <PUBCHEM_FEATURE_SELFOVERLAP>
60.91

> <PUBCHEM_SHAPE_FINGERPRINT>
10064457 181 18195248806397072996
104564 63 18340487867334172524
10688039 33 18188207736291636791
108634 29 18270683060894509487
1100329 8 17762334717264241698
11370993 70 18124029023066170969
12553582 1 18121237616640834291
12788726 201 18336264638549753395
13134695 92 17978497960234231055
13140716 1 18338232790381312707
13583140 156 17541371775601029991
138480 1 16465019711069542537
14363568 33 17327473917419878521
14866123 147 18120080685543440386
14955137 171 17399516118521942552
17093844 170 18410847759605487825
17138139 8 17697273471039622717
19591789 44 17617664258799747223
19930381 70 17041760366698010731
20567600 347 17683255668268401409
21041028 32 18122062275878392389
21197605 99 18343023260134263005
23558518 356 18334297561193506896
23559900 14 17616524503587455435
3052486 1 18335154071692046621
31174 14 17470160822516491055
4340502 62 18056472846938990113
5283268 108 18266191702050597875
5939293 188 17691408933070913526
6438718 38 18060132124767437895
81228 2 18335707134736305707

> <PUBCHEM_SHAPE_MULTIPOLES>
434.02
6.95
5.86
1.07
2.88
3.47
-0.14
-0.86
1.52
-7.99
0.55
0.22
-0.25
0.03

> <PUBCHEM_SHAPE_SELFOVERLAP>
882.482

> <PUBCHEM_SHAPE_VOLUME>
253.8

> <PUBCHEM_COORDINATE_TYPE>
2
5
10

$$$$
