26742500
  -OEChem-12032416183D

 60 63  0     1  0  0  0  0  0999 V2000
   -7.9696    2.2983   -0.4345 S   0  0  0  0  0  0  0  0  0  0  0  0
    2.4294   -0.6098   -1.4708 O   0  0  0  0  0  0  0  0  0  0  0  0
    8.5994    0.4925    0.2857 O   0  0  0  0  0  0  0  0  0  0  0  0
   -1.9323   -1.8858   -1.0485 N   0  0  2  0  0  0  0  0  0  0  0  0
   -5.2202    0.7889    0.1483 N   0  0  0  0  0  0  0  0  0  0  0  0
    0.8223    0.5564   -0.2837 N   0  0  0  0  0  0  0  0  0  0  0  0
    3.0469    0.8646    0.2484 N   0  0  0  0  0  0  0  0  0  0  0  0
   -2.5783   -1.6898    1.4637 C   0  0  2  0  0  0  0  0  0  0  0  0
   -3.6840   -1.0955    0.5617 C   0  0  2  0  0  0  0  0  0  0  0  0
   -0.8297   -1.2379   -0.2879 C   0  0  2  0  0  0  0  0  0  0  0  0
   -1.2460   -0.9736    1.1761 C   0  0  0  0  0  0  0  0  0  0  0  0
   -3.1857   -1.1071   -0.9010 C   0  0  0  0  0  0  0  0  0  0  0  0
   -2.4040   -3.1626    1.0462 C   0  0  0  0  0  0  0  0  0  0  0  0
   -2.1549   -3.2336   -0.4708 C   0  0  0  0  0  0  0  0  0  0  0  0
   -4.1288    0.2997    0.9941 C   0  0  0  0  0  0  0  0  0  0  0  0
   -0.3170    0.0320   -0.9712 C   0  0  0  0  0  0  0  0  0  0  0  0
   -6.4930    0.1830    0.5681 C   0  0  0  0  0  0  0  0  0  0  0  0
   -5.2757    2.2580    0.1972 C   0  0  0  0  0  0  0  0  0  0  0  0
   -7.6438    0.5159   -0.3786 C   0  0  0  0  0  0  0  0  0  0  0  0
   -6.2784    2.8420   -0.7952 C   0  0  0  0  0  0  0  0  0  0  0  0
    2.1475    0.1936   -0.5849 C   0  0  0  0  0  0  0  0  0  0  0  0
    4.4581    0.7697    0.2575 C   0  0  0  0  0  0  0  0  0  0  0  0
    5.2012    1.5197    1.1692 C   0  0  0  0  0  0  0  0  0  0  0  0
    5.1067   -0.0735   -0.6446 C   0  0  0  0  0  0  0  0  0  0  0  0
    6.5928    1.4267    1.1785 C   0  0  0  0  0  0  0  0  0  0  0  0
    6.4984   -0.1666   -0.6353 C   0  0  0  0  0  0  0  0  0  0  0  0
    7.2414    0.5834    0.2762 C   0  0  0  0  0  0  0  0  0  0  0  0
    9.1975   -0.3887   -0.6639 C   0  0  0  0  0  0  0  0  0  0  0  0
   -2.8416   -1.6179    2.5242 H   0  0  0  0  0  0  0  0  0  0  0  0
   -4.5361   -1.7830    0.6348 H   0  0  0  0  0  0  0  0  0  0  0  0
    0.0159   -1.9415   -0.2736 H   0  0  0  0  0  0  0  0  0  0  0  0
   -1.3368    0.0951    1.3952 H   0  0  0  0  0  0  0  0  0  0  0  0
   -0.4707   -1.3641    1.8478 H   0  0  0  0  0  0  0  0  0  0  0  0
   -3.9587   -1.5525   -1.5415 H   0  0  0  0  0  0  0  0  0  0  0  0
   -3.0429   -0.0969   -1.2998 H   0  0  0  0  0  0  0  0  0  0  0  0
   -3.2981   -3.7421    1.3045 H   0  0  0  0  0  0  0  0  0  0  0  0
   -1.5609   -3.6080    1.5882 H   0  0  0  0  0  0  0  0  0  0  0  0
   -1.2902   -3.8765   -0.6772 H   0  0  0  0  0  0  0  0  0  0  0  0
   -3.0040   -3.7161   -0.9714 H   0  0  0  0  0  0  0  0  0  0  0  0
   -3.2693    0.9749    0.9052 H   0  0  0  0  0  0  0  0  0  0  0  0
   -4.4110    0.3073    2.0551 H   0  0  0  0  0  0  0  0  0  0  0  0
   -1.0707    0.8258   -0.9788 H   0  0  0  0  0  0  0  0  0  0  0  0
   -0.0419   -0.1797   -2.0109 H   0  0  0  0  0  0  0  0  0  0  0  0
   -6.4168   -0.9091    0.5747 H   0  0  0  0  0  0  0  0  0  0  0  0
   -6.7513    0.4806    1.5940 H   0  0  0  0  0  0  0  0  0  0  0  0
   -5.4914    2.6116    1.2147 H   0  0  0  0  0  0  0  0  0  0  0  0
   -4.2937    2.6659   -0.0758 H   0  0  0  0  0  0  0  0  0  0  0  0
    0.6658    1.2249    0.4643 H   0  0  0  0  0  0  0  0  0  0  0  0
   -7.4301    0.1609   -1.3929 H   0  0  0  0  0  0  0  0  0  0  0  0
   -8.5566    0.0133   -0.0428 H   0  0  0  0  0  0  0  0  0  0  0  0
   -6.2532    3.9354   -0.7465 H   0  0  0  0  0  0  0  0  0  0  0  0
   -6.0241    2.5553   -1.8217 H   0  0  0  0  0  0  0  0  0  0  0  0
    2.6462    1.4992    0.9345 H   0  0  0  0  0  0  0  0  0  0  0  0
    4.7081    2.1805    1.8775 H   0  0  0  0  0  0  0  0  0  0  0  0
    4.6002   -0.6840   -1.3786 H   0  0  0  0  0  0  0  0  0  0  0  0
    7.1664    2.0133    1.8909 H   0  0  0  0  0  0  0  0  0  0  0  0
    6.9388   -0.8404   -1.3625 H   0  0  0  0  0  0  0  0  0  0  0  0
   10.2810   -0.3366   -0.5154 H   0  0  0  0  0  0  0  0  0  0  0  0
    9.0002   -0.0665   -1.6919 H   0  0  0  0  0  0  0  0  0  0  0  0
    8.9008   -1.4286   -0.4904 H   0  0  0  0  0  0  0  0  0  0  0  0
  1 19  1  0  0  0  0
  1 20  1  0  0  0  0
  2 21  2  0  0  0  0
  3 27  1  0  0  0  0
  3 28  1  0  0  0  0
  4 10  1  0  0  0  0
  4 12  1  0  0  0  0
  4 14  1  0  0  0  0
  5 15  1  0  0  0  0
  5 17  1  0  0  0  0
  5 18  1  0  0  0  0
  6 16  1  0  0  0  0
  6 21  1  0  0  0  0
  6 48  1  0  0  0  0
  7 21  1  0  0  0  0
  7 22  1  0  0  0  0
  7 53  1  0  0  0  0
  8  9  1  0  0  0  0
  8 11  1  0  0  0  0
  8 13  1  0  0  0  0
  8 29  1  0  0  0  0
  9 12  1  0  0  0  0
  9 15  1  0  0  0  0
  9 30  1  0  0  0  0
 10 11  1  0  0  0  0
 10 16  1  0  0  0  0
 10 31  1  0  0  0  0
 11 32  1  0  0  0  0
 11 33  1  0  0  0  0
 12 34  1  0  0  0  0
 12 35  1  0  0  0  0
 13 14  1  0  0  0  0
 13 36  1  0  0  0  0
 13 37  1  0  0  0  0
 14 38  1  0  0  0  0
 14 39  1  0  0  0  0
 15 40  1  0  0  0  0
 15 41  1  0  0  0  0
 16 42  1  0  0  0  0
 16 43  1  0  0  0  0
 17 19  1  0  0  0  0
 17 44  1  0  0  0  0
 17 45  1  0  0  0  0
 18 20  1  0  0  0  0
 18 46  1  0  0  0  0
 18 47  1  0  0  0  0
 19 49  1  0  0  0  0
 19 50  1  0  0  0  0
 20 51  1  0  0  0  0
 20 52  1  0  0  0  0
 22 23  2  0  0  0  0
 22 24  1  0  0  0  0
 23 25  1  0  0  0  0
 23 54  1  0  0  0  0
 24 26  2  0  0  0  0
 24 55  1  0  0  0  0
 25 27  2  0  0  0  0
 25 56  1  0  0  0  0
 26 27  1  0  0  0  0
 26 57  1  0  0  0  0
 28 58  1  0  0  0  0
 28 59  1  0  0  0  0
 28 60  1  0  0  0  0
M  END
> <PUBCHEM_COMPOUND_CID>
26742500

> <PUBCHEM_CONFORMER_RMSD>
1

> <PUBCHEM_CONFORMER_DIVERSEORDER>
1
69
18
35
27
20
64
48
68
60
23
76
84
55
51
13
32
36
17
39
34
8
78
83
86
29
65
30
81
59
5
82
12
16
43
53
47
67
25
54
15
38
19
80
21
24
3
26
87
75
33
74
45
85
50
63
73
28
7
61
22
57
10
52
56
72
70
37
66
77
40
41
46
58
62
44
49
31
14
2
79
71
11
6
42
4
9

> <PUBCHEM_MMFF94_PARTIAL_CHARGES>
30
1 -0.46
10 0.27
12 0.27
14 0.27
15 0.27
16 0.3
17 0.27
18 0.27
19 0.23
2 -0.57
20 0.23
21 0.69
22 0.12
23 -0.15
24 -0.15
25 -0.15
26 -0.15
27 0.08
28 0.28
3 -0.36
4 -0.81
48 0.37
5 -0.81
53 0.37
54 0.15
55 0.15
56 0.15
57 0.15
6 -0.73
7 -0.55

> <PUBCHEM_EFFECTIVE_ROTOR_COUNT>
10.4

> <PUBCHEM_PHARMACOPHORE_FEATURES>
9
1 2 acceptor
1 3 acceptor
1 4 cation
1 5 cation
1 6 donor
1 7 donor
6 1 5 17 18 19 20 rings
6 22 23 24 25 26 27 rings
8 4 8 9 10 11 12 13 14 rings

> <PUBCHEM_HEAVY_ATOM_COUNT>
28

> <PUBCHEM_ATOM_DEF_STEREO_COUNT>
3

> <PUBCHEM_ATOM_UDEF_STEREO_COUNT>
0

> <PUBCHEM_BOND_DEF_STEREO_COUNT>
0

> <PUBCHEM_BOND_UDEF_STEREO_COUNT>
0

> <PUBCHEM_ISOTOPIC_ATOM_COUNT>
0

> <PUBCHEM_COMPONENT_COUNT>
1

> <PUBCHEM_CACTVS_TAUTO_COUNT>
3

> <PUBCHEM_CONFORMER_ID>
01980EE400000001

> <PUBCHEM_MMFF94_ENERGY>
78.4404

> <PUBCHEM_FEATURE_SELFOVERLAP>
45.72

> <PUBCHEM_SHAPE_FINGERPRINT>
10076449 9 8934993789643594349
100830 39 18412826876267228993
10299344 5 15647053785262225968
10554248 39 15769507499455732284
10674148 151 18040714775903088624
11135609 201 18198634246861920569
11297750 10 16698344282309774639
13150687 139 18201719514684995671
13631057 29 10664102246741578365
13673619 4 11314311650440430455
13914758 101 18272646870012959495
13941219 33 15791727503353495993
14251764 18 17821726143761334387
14767858 380 14549017671957449517
14856354 85 16370731456312038539
15142383 8 18343301471157530656
15183329 4 17918275337542947154
15461852 350 17988643042560091295
17093844 174 18271242819987922994
18335252 98 10881399829572609624
20105231 36 13334736813214708288
20501277 279 18411987950002908481
20554085 129 18130774647203762115
20567600 254 18409163286944503197
21033648 29 18058432348980098712
21150785 3 12679461989210606756
21267235 1 9151167658668719607
21403212 168 17531242843078917095
21756936 100 18335136501909513047
21859007 373 18337674113741185197
220451 1 17167854297422763010
23522609 53 16661512695282114102
249057 3 18408042922512513932
2838139 119 18411697704059316245
3633792 109 17417821586521852239
4073 2 18337111289217625410
4325135 7 9079116657131200066
4403749 210 17702093876197400974
4938544 92 18338517546507451966
5028188 123 18262527000584940070
5385378 56 17749666294686702690
58260988 114 16082226258647445859
59682541 35 10881406447948070036
59755656 520 18334288782576051895
6009941 240 18409733980064576554
6058803 2 16736386263058512311
6086070 43 16845280679397772386
636775 8 8790884112195564544
6371380 46 18408884061881874384
7226269 152 18342458132020863585
9981440 41 18114191805229841779
999808 66 12179842797020440313

> <PUBCHEM_SHAPE_MULTIPOLES>
548.41
26.54
2.78
1.22
31.4
1.11
-0.11
-17.46
0.69
-5.81
-0.14
0.2
0.23
1.97

> <PUBCHEM_SHAPE_SELFOVERLAP>
1134.188

> <PUBCHEM_SHAPE_VOLUME>
316.2

> <PUBCHEM_COORDINATE_TYPE>
2
5
10

$$$$
