51137334
  -OEChem-12032416243D

 46 49  0     1  0  0  0  0  0999 V2000
    2.7422   -0.4400    0.2304 O   0  0  0  0  0  0  0  0  0  0  0  0
   -3.9762   -1.8941   -1.5107 O   0  0  0  0  0  0  0  0  0  0  0  0
   -7.4356    0.7344    0.4484 O   0  0  0  0  0  0  0  0  0  0  0  0
   -1.2881   -0.7323   -0.1274 N   0  0  1  0  0  0  0  0  0  0  0  0
    3.1111   -2.6390    0.4110 N   0  0  0  0  0  0  0  0  0  0  0  0
    4.3329   -2.0127    0.2497 N   0  0  0  0  0  0  0  0  0  0  0  0
    7.2002    1.2242   -0.2971 N   0  0  0  0  0  0  0  0  0  0  0  0
    0.7093   -1.7724    0.5268 C   0  0  1  0  0  0  0  0  0  0  0  0
    0.1183   -0.9978    1.7176 C   0  0  0  0  0  0  0  0  0  0  0  0
   -0.0335   -1.2253   -0.6996 C   0  0  0  0  0  0  0  0  0  0  0  0
   -0.8967   -0.0432    1.1022 C   0  0  0  0  0  0  0  0  0  0  0  0
   -2.0124    0.1368   -1.0431 C   0  0  0  0  0  0  0  0  0  0  0  0
    2.2120   -1.6829    0.3938 C   0  0  0  0  0  0  0  0  0  0  0  0
   -3.4588    0.2829   -0.6516 C   0  0  0  0  0  0  0  0  0  0  0  0
   -4.3727   -0.7405   -0.9038 C   0  0  0  0  0  0  0  0  0  0  0  0
   -3.8815    1.4579   -0.0297 C   0  0  0  0  0  0  0  0  0  0  0  0
    4.0692   -0.7309    0.1482 C   0  0  0  0  0  0  0  0  0  0  0  0
   -5.7092   -0.5886   -0.5343 C   0  0  0  0  0  0  0  0  0  0  0  0
   -5.2181    1.6097    0.3395 C   0  0  0  0  0  0  0  0  0  0  0  0
   -6.1320    0.5864    0.0872 C   0  0  0  0  0  0  0  0  0  0  0  0
    4.9470    0.3888   -0.0318 C   0  0  0  0  0  0  0  0  0  0  0  0
    4.4490    1.6844   -0.1153 C   0  0  0  0  0  0  0  0  0  0  0  0
    6.3182    0.2137   -0.1277 C   0  0  0  0  0  0  0  0  0  0  0  0
    5.3250    2.7501   -0.2895 C   0  0  0  0  0  0  0  0  0  0  0  0
   -7.7989    1.9610    1.0806 C   0  0  0  0  0  0  0  0  0  0  0  0
    6.6792    2.4693   -0.3737 C   0  0  0  0  0  0  0  0  0  0  0  0
    0.4532   -2.8334    0.6540 H   0  0  0  0  0  0  0  0  0  0  0  0
    0.8695   -0.4583    2.3041 H   0  0  0  0  0  0  0  0  0  0  0  0
   -0.3877   -1.7003    2.3916 H   0  0  0  0  0  0  0  0  0  0  0  0
    0.5287   -0.4172   -1.1861 H   0  0  0  0  0  0  0  0  0  0  0  0
   -0.2089   -2.0132   -1.4403 H   0  0  0  0  0  0  0  0  0  0  0  0
   -1.7399    0.1223    1.7799 H   0  0  0  0  0  0  0  0  0  0  0  0
   -0.4158    0.9219    0.8968 H   0  0  0  0  0  0  0  0  0  0  0  0
   -1.9929   -0.2858   -2.0576 H   0  0  0  0  0  0  0  0  0  0  0  0
   -1.5318    1.1199   -1.1417 H   0  0  0  0  0  0  0  0  0  0  0  0
   -3.1795    2.2622    0.1743 H   0  0  0  0  0  0  0  0  0  0  0  0
   -6.4277   -1.3815   -0.7273 H   0  0  0  0  0  0  0  0  0  0  0  0
   -5.4781    2.5473    0.8187 H   0  0  0  0  0  0  0  0  0  0  0  0
   -4.7433   -2.4849   -1.6019 H   0  0  0  0  0  0  0  0  0  0  0  0
    3.3857    1.8995   -0.0486 H   0  0  0  0  0  0  0  0  0  0  0  0
    6.7754   -0.7700   -0.0707 H   0  0  0  0  0  0  0  0  0  0  0  0
    4.9597    3.7684   -0.3572 H   0  0  0  0  0  0  0  0  0  0  0  0
   -7.2838    2.0879    2.0388 H   0  0  0  0  0  0  0  0  0  0  0  0
   -7.6513    2.8169    0.4132 H   0  0  0  0  0  0  0  0  0  0  0  0
   -8.8706    1.9070    1.2987 H   0  0  0  0  0  0  0  0  0  0  0  0
    7.4039    3.2653   -0.5096 H   0  0  0  0  0  0  0  0  0  0  0  0
  1 13  1  0  0  0  0
  1 17  1  0  0  0  0
  2 15  1  0  0  0  0
  2 39  1  0  0  0  0
  3 20  1  0  0  0  0
  3 25  1  0  0  0  0
  4 10  1  0  0  0  0
  4 11  1  0  0  0  0
  4 12  1  0  0  0  0
  5  6  1  0  0  0  0
  5 13  2  0  0  0  0
  6 17  2  0  0  0  0
  7 23  1  0  0  0  0
  7 26  2  0  0  0  0
  8  9  1  0  0  0  0
  8 10  1  0  0  0  0
  8 13  1  0  0  0  0
  8 27  1  0  0  0  0
  9 11  1  0  0  0  0
  9 28  1  0  0  0  0
  9 29  1  0  0  0  0
 10 30  1  0  0  0  0
 10 31  1  0  0  0  0
 11 32  1  0  0  0  0
 11 33  1  0  0  0  0
 12 14  1  0  0  0  0
 12 34  1  0  0  0  0
 12 35  1  0  0  0  0
 14 15  2  0  0  0  0
 14 16  1  0  0  0  0
 15 18  1  0  0  0  0
 16 19  2  0  0  0  0
 16 36  1  0  0  0  0
 17 21  1  0  0  0  0
 18 20  2  0  0  0  0
 18 37  1  0  0  0  0
 19 20  1  0  0  0  0
 19 38  1  0  0  0  0
 21 22  1  0  0  0  0
 21 23  2  0  0  0  0
 22 24  2  0  0  0  0
 22 40  1  0  0  0  0
 23 41  1  0  0  0  0
 24 26  1  0  0  0  0
 24 42  1  0  0  0  0
 25 43  1  0  0  0  0
 25 44  1  0  0  0  0
 25 45  1  0  0  0  0
 26 46  1  0  0  0  0
M  END
> <PUBCHEM_COMPOUND_CID>
51137334

> <PUBCHEM_CONFORMER_RMSD>
0.8

> <PUBCHEM_CONFORMER_DIVERSEORDER>
1
64
123
290
150
99
169
221
216
58
295
278
6
210
299
283
67
205
261
88
4
275
62
21
199
130
217
180
252
270
288
36
195
127
282
262
244
230
208
240
161
2
281
273
284
207
87
218
185
163
45
285
98
254
253
75
116
51
184
140
181
248
265
292
219
122
193
179
300
213
57
304
50
280
26
10
92
191
178
267
277
43
296
83
302
61
30
173
104
251
246
303
257
28
203
301
279
94
214
227
39
225
202
95
174
268
9
65
293
239
276
15
189
190
86
131
228
141
286
274
54
142
197
40
250
307
154
129
138
231
249
187
167
158
226
194
52
155
115
256
192
107
47
209
108
121
287
223
49
212
182
215
42
89
17
48
106
113
111
198
103
132
269
72
166
143
159
306
79
294
162
196
27
5
206
56
25
100
124
164
243
35
168
101
16
266
272
200
135
24
97
271
12
165
186
176
37
235
171
139
69
112
90
8
289
183
34
76
245
232
134
188
77
105
125
114
63
234
109
84
33
211
23
255
147
13
85
153
298
152
96
46
18
204
137
117
118
82
151
291
237
41
119
68
110
146
247
55
144
170
233
20
81
175
66
160
220
242
145
38
297
224
93
305
78
259
60
31
177
148
149
32
102
241
120
73
71
258
22
70
157
238
133
263
11
91
229
80
156
222
14
128
19
172
260
201
74
29
7
236
44
136
53
264
126
59
3

> <PUBCHEM_MMFF94_PARTIAL_CHARGES>
33
1 -0.28
10 0.27
11 0.27
12 0.41
13 0.3
14 -0.14
15 0.08
16 -0.15
17 0.43
18 -0.15
19 -0.15
2 -0.53
20 0.08
21 0.05
22 -0.15
23 0.16
24 -0.15
25 0.28
26 0.16
3 -0.36
36 0.15
37 0.15
38 0.15
39 0.45
4 -0.81
40 0.15
41 0.15
42 0.15
46 0.15
5 -0.34
6 -0.34
7 -0.62
8 0.18

> <PUBCHEM_EFFECTIVE_ROTOR_COUNT>
6

> <PUBCHEM_PHARMACOPHORE_FEATURES>
8
1 2 donor
1 3 acceptor
1 4 cation
1 7 acceptor
5 1 5 6 13 17 rings
5 4 8 9 10 11 rings
6 14 15 16 18 19 20 rings
6 7 21 22 23 24 26 rings

> <PUBCHEM_HEAVY_ATOM_COUNT>
26

> <PUBCHEM_ATOM_DEF_STEREO_COUNT>
1

> <PUBCHEM_ATOM_UDEF_STEREO_COUNT>
0

> <PUBCHEM_BOND_DEF_STEREO_COUNT>
0

> <PUBCHEM_BOND_UDEF_STEREO_COUNT>
0

> <PUBCHEM_ISOTOPIC_ATOM_COUNT>
0

> <PUBCHEM_COMPONENT_COUNT>
1

> <PUBCHEM_CACTVS_TAUTO_COUNT>
3

> <PUBCHEM_CONFORMER_ID>
030C4B3600000001

> <PUBCHEM_MMFF94_ENERGY>
66.2534

> <PUBCHEM_FEATURE_SELFOVERLAP>
40.597

> <PUBCHEM_SHAPE_FINGERPRINT>
10 15 17458065966866489945
10074138 170 15792302629607708882
10411042 1 17831859054836881498
10554248 39 17843952664332989199
10595046 47 18411976962294818839
106641 1 13118006617470694606
10673678 19 18343587352026674166
10906281 52 17703801271757883003
11273773 42 18339924917207048564
11408170 253 17773886307392273209
11646440 116 17095242523074429748
12035758 1 16443067218227992341
12236239 1 18343299253962733231
12633257 1 15719671078348454118
12730499 353 18113621153725182306
12760667 363 10735888278365742678
12788726 201 17417817201249200952
12821665 9 18338514278427756095
12895836 83 17845929736210183358
13533116 47 17095512943227268426
13668630 136 12103837956797991685
13685833 64 10447930572782006784
13690498 29 17559383872292463167
13955234 65 17822845356515621218
14251757 52 18341334397141482833
14394314 77 18411423904131868537
14461889 52 17313114072032804331
14528608 73 18412259562774273334
14681490 219 18411698777374352832
14849402 71 18336831986998961749
14856354 85 17489587888041925647
14933364 13 18411420600583547453
15183329 4 17203614786869661112
15188451 53 11386365949937521388
15276724 80 18337669707664181261
15419008 145 18043235874398357776
15475509 8 14476969977819249707
15685185 35 18190749837246042884
1577012 14 18341607118330973775
15840311 113 18336832992242160541
16994733 274 18410289207635547641
17844677 252 18266743480593459623
18393751 57 17385443254148680306
20157964 124 18408605838490851146
21033648 144 18041270032615560447
21033648 29 18189330355302823736
21298829 104 18338236080870281972
21304303 64 18260267477291584157
21307412 95 13398633887058045565
21315764 119 17132123441926407276
21521721 280 18334017168596190467
21585482 111 18261673653927274181
21641784 216 16701747059615746881
22061861 79 12103842354311538393
2215653 11 12751235913084457149
22224240 67 17530685411936944979
23081809 10 18059562573655420095
23522609 53 17988373589740459913
23559900 14 8934411014632902775
23576562 1 16414612991748204161
2747138 104 17241059725391207777
2838139 119 18260258668845961764
3004659 81 17916865717030483358
34797466 226 18272656709999247903
397830 11 18040730190055339355
4073 2 18187650231713896611
4325135 7 18412261731453072503
4340502 62 17095241410662010802
437815 12 11600010955004093362
445580 126 18410003343729488600
5080951 261 15936692687844885075
5104073 3 16516798148910292625
5265222 85 17703221957288357815
5312510 48 18339923813833223280
53794403 172 18043253651009682804
5385378 56 18187358823521769866
543368 44 18409164429015342405
5758199 1 18260550030220157187
5911458 16 18201447956334623281
59682541 35 17603875516021091401
59682541 52 17631749196910966062
6328613 192 18343865494541604809

> <PUBCHEM_SHAPE_MULTIPOLES>
497.54
21.55
2.6
1.06
5.96
0.41
-0.1
15.37
-0.01
-2.95
-0.1
1.03
-0.23
-2.15

> <PUBCHEM_SHAPE_SELFOVERLAP>
1083.724

> <PUBCHEM_SHAPE_VOLUME>
272.4

> <PUBCHEM_COORDINATE_TYPE>
2
5
10

$$$$
