26762309
  -OEChem-12032416353D

 61 64  0     1  0  0  0  0  0999 V2000
    1.9638   -4.9684    0.0666 O   0  0  0  0  0  0  0  0  0  0  0  0
    4.9023    0.1670   -1.8151 O   0  0  0  0  0  0  0  0  0  0  0  0
   -3.6213    1.0339    1.3485 O   0  0  0  0  0  0  0  0  0  0  0  0
    0.4321   -1.7917   -0.1959 N   0  0  2  0  0  0  0  0  0  0  0  0
   -0.1363   -4.3062    0.7160 N   0  0  0  0  0  0  0  0  0  0  0  0
    3.1058   -0.0817   -0.3811 N   0  0  0  0  0  0  0  0  0  0  0  0
    4.9440    1.0906    0.3426 N   0  0  0  0  0  0  0  0  0  0  0  0
   -5.4542   -0.3760    1.1443 N   0  0  0  0  0  0  0  0  0  0  0  0
    1.1147   -2.9138   -0.8461 C   0  0  1  0  0  0  0  0  0  0  0  0
   -0.9978   -2.0787   -0.0687 C   0  0  1  0  0  0  0  0  0  0  0  0
    2.2785   -0.8489   -1.2788 C   0  0  1  0  0  0  0  0  0  0  0  0
    2.5072   -2.3537   -1.0930 C   0  0  0  0  0  0  0  0  0  0  0  0
    0.7869   -0.6286   -1.0085 C   0  0  0  0  0  0  0  0  0  0  0  0
   -1.1285   -3.2584    0.9050 C   0  0  0  0  0  0  0  0  0  0  0  0
    1.0574   -4.1368    0.0400 C   0  0  0  0  0  0  0  0  0  0  0  0
   -1.8039   -0.8890    0.4573 C   0  0  0  0  0  0  0  0  0  0  0  0
   -3.2843   -1.2288    0.5557 C   0  0  0  0  0  0  0  0  0  0  0  0
    4.3831    0.3795   -0.7219 C   0  0  0  0  0  0  0  0  0  0  0  0
   -4.1071   -0.0561    1.0582 C   0  0  0  0  0  0  0  0  0  0  0  0
   -6.4443    0.5720    1.5978 C   0  0  0  0  0  0  0  0  0  0  0  0
    6.2127    1.7135    0.3978 C   0  0  0  0  0  0  0  0  0  0  0  0
   -7.0159    1.3731    0.4639 C   0  0  0  0  0  0  0  0  0  0  0  0
    6.6104    2.3845    1.5542 C   0  0  0  0  0  0  0  0  0  0  0  0
    7.0660    1.6571   -0.7040 C   0  0  0  0  0  0  0  0  0  0  0  0
   -6.4169    2.5755    0.0883 C   0  0  0  0  0  0  0  0  0  0  0  0
   -8.1456    0.9151   -0.2139 C   0  0  0  0  0  0  0  0  0  0  0  0
    7.8614    2.9992    1.6087 C   0  0  0  0  0  0  0  0  0  0  0  0
    8.3170    2.2716   -0.6497 C   0  0  0  0  0  0  0  0  0  0  0  0
    8.7147    2.9427    0.5067 C   0  0  0  0  0  0  0  0  0  0  0  0
   -6.9478    3.3201   -0.9651 C   0  0  0  0  0  0  0  0  0  0  0  0
   -8.6765    1.6595   -1.2672 C   0  0  0  0  0  0  0  0  0  0  0  0
   -8.0776    2.8620   -1.6429 C   0  0  0  0  0  0  0  0  0  0  0  0
    0.6462   -3.1704   -1.8071 H   0  0  0  0  0  0  0  0  0  0  0  0
   -1.4035   -2.3721   -1.0473 H   0  0  0  0  0  0  0  0  0  0  0  0
    2.5172   -0.5549   -2.3076 H   0  0  0  0  0  0  0  0  0  0  0  0
    2.9505   -2.7960   -1.9924 H   0  0  0  0  0  0  0  0  0  0  0  0
    3.1865   -2.5630   -0.2570 H   0  0  0  0  0  0  0  0  0  0  0  0
    0.2348   -0.6317   -1.9573 H   0  0  0  0  0  0  0  0  0  0  0  0
    0.5939    0.3172   -0.4919 H   0  0  0  0  0  0  0  0  0  0  0  0
   -2.1030   -3.7473    0.8074 H   0  0  0  0  0  0  0  0  0  0  0  0
   -1.0178   -2.9284    1.9450 H   0  0  0  0  0  0  0  0  0  0  0  0
   -1.4248   -0.5693    1.4369 H   0  0  0  0  0  0  0  0  0  0  0  0
   -1.6936   -0.0286   -0.2142 H   0  0  0  0  0  0  0  0  0  0  0  0
   -0.2456   -5.1535    1.2649 H   0  0  0  0  0  0  0  0  0  0  0  0
    2.7766    0.0693    0.5677 H   0  0  0  0  0  0  0  0  0  0  0  0
   -3.4563   -2.0541    1.2550 H   0  0  0  0  0  0  0  0  0  0  0  0
   -3.6727   -1.5255   -0.4258 H   0  0  0  0  0  0  0  0  0  0  0  0
    4.3780    1.1758    1.1831 H   0  0  0  0  0  0  0  0  0  0  0  0
   -5.7688   -1.3006    0.8641 H   0  0  0  0  0  0  0  0  0  0  0  0
   -6.0008    1.2362    2.3491 H   0  0  0  0  0  0  0  0  0  0  0  0
   -7.2343    0.0052    2.1036 H   0  0  0  0  0  0  0  0  0  0  0  0
    5.9550    2.4360    2.4199 H   0  0  0  0  0  0  0  0  0  0  0  0
    6.8298    1.1577   -1.6329 H   0  0  0  0  0  0  0  0  0  0  0  0
   -5.5389    2.9470    0.6092 H   0  0  0  0  0  0  0  0  0  0  0  0
   -8.6202   -0.0210    0.0680 H   0  0  0  0  0  0  0  0  0  0  0  0
    8.1711    3.5217    2.5091 H   0  0  0  0  0  0  0  0  0  0  0  0
    8.9825    2.2285   -1.5070 H   0  0  0  0  0  0  0  0  0  0  0  0
    9.6887    3.4213    0.5491 H   0  0  0  0  0  0  0  0  0  0  0  0
   -6.4820    4.2567   -1.2571 H   0  0  0  0  0  0  0  0  0  0  0  0
   -9.5560    1.3028   -1.7953 H   0  0  0  0  0  0  0  0  0  0  0  0
   -8.4910    3.4416   -2.4630 H   0  0  0  0  0  0  0  0  0  0  0  0
  1 15  2  0  0  0  0
  2 18  2  0  0  0  0
  3 19  2  0  0  0  0
  4  9  1  0  0  0  0
  4 10  1  0  0  0  0
  4 13  1  0  0  0  0
  5 14  1  0  0  0  0
  5 15  1  0  0  0  0
  5 44  1  0  0  0  0
  6 11  1  0  0  0  0
  6 18  1  0  0  0  0
  6 45  1  0  0  0  0
  7 18  1  0  0  0  0
  7 21  1  0  0  0  0
  7 48  1  0  0  0  0
  8 19  1  0  0  0  0
  8 20  1  0  0  0  0
  8 49  1  0  0  0  0
  9 12  1  0  0  0  0
  9 15  1  0  0  0  0
  9 33  1  0  0  0  0
 10 14  1  0  0  0  0
 10 16  1  0  0  0  0
 10 34  1  0  0  0  0
 11 12  1  0  0  0  0
 11 13  1  0  0  0  0
 11 35  1  0  0  0  0
 12 36  1  0  0  0  0
 12 37  1  0  0  0  0
 13 38  1  0  0  0  0
 13 39  1  0  0  0  0
 14 40  1  0  0  0  0
 14 41  1  0  0  0  0
 16 17  1  0  0  0  0
 16 42  1  0  0  0  0
 16 43  1  0  0  0  0
 17 19  1  0  0  0  0
 17 46  1  0  0  0  0
 17 47  1  0  0  0  0
 20 22  1  0  0  0  0
 20 50  1  0  0  0  0
 20 51  1  0  0  0  0
 21 23  2  0  0  0  0
 21 24  1  0  0  0  0
 22 25  2  0  0  0  0
 22 26  1  0  0  0  0
 23 27  1  0  0  0  0
 23 52  1  0  0  0  0
 24 28  2  0  0  0  0
 24 53  1  0  0  0  0
 25 30  1  0  0  0  0
 25 54  1  0  0  0  0
 26 31  2  0  0  0  0
 26 55  1  0  0  0  0
 27 29  2  0  0  0  0
 27 56  1  0  0  0  0
 28 29  1  0  0  0  0
 28 57  1  0  0  0  0
 29 58  1  0  0  0  0
 30 32  2  0  0  0  0
 30 59  1  0  0  0  0
 31 32  1  0  0  0  0
 31 60  1  0  0  0  0
 32 61  1  0  0  0  0
M  END
> <PUBCHEM_COMPOUND_CID>
26762309

> <PUBCHEM_CONFORMER_RMSD>
1.2

> <PUBCHEM_CONFORMER_DIVERSEORDER>
1
35
15
135
38
130
110
75
150
65
145
45
88
118
72
100
50
69
92
140
66
18
124
111
151
129
48
56
84
74
47
17
53
60
139
112
34
86
64
31
147
148
136
102
51
42
33
57
137
52
141
98
152
149
63
77
128
97
9
99
91
76
83
8
95
134
40
61
126
115
71
121
125
123
154
104
106
46
59
20
89
114
143
87
144
120
67
142
49
94
116
113
132
108
103
41
138
28
127
43
105
133
107
5
11
26
81
117
19
78
68
25
155
39
73
119
14
122
2
85
153
29
30
27
21
62
54
36
96
10
4
101
79
6
7
3
131
23
24
109
37
70
32
22
58
80
146
55
82
12
44
13
93
16
90

> <PUBCHEM_MMFF94_PARTIAL_CHARGES>
44
1 -0.57
10 0.27
11 0.3
13 0.27
14 0.3
15 0.57
17 0.06
18 0.69
19 0.57
2 -0.57
20 0.44
21 0.12
22 -0.14
23 -0.15
24 -0.15
25 -0.15
26 -0.15
27 -0.15
28 -0.15
29 -0.15
3 -0.57
30 -0.15
31 -0.15
32 -0.15
4 -0.81
44 0.37
45 0.37
48 0.37
49 0.37
5 -0.73
52 0.15
53 0.15
54 0.15
55 0.15
56 0.15
57 0.15
58 0.15
59 0.15
6 -0.73
60 0.15
61 0.15
7 -0.55
8 -0.73
9 0.33

> <PUBCHEM_EFFECTIVE_ROTOR_COUNT>
11.2

> <PUBCHEM_PHARMACOPHORE_FEATURES>
12
1 1 acceptor
1 2 acceptor
1 3 acceptor
1 4 cation
1 5 donor
1 6 donor
1 7 donor
1 8 donor
5 4 9 11 12 13 rings
6 21 23 24 27 28 29 rings
6 22 25 26 30 31 32 rings
6 4 5 9 10 14 15 rings

> <PUBCHEM_HEAVY_ATOM_COUNT>
32

> <PUBCHEM_ATOM_DEF_STEREO_COUNT>
3

> <PUBCHEM_ATOM_UDEF_STEREO_COUNT>
0

> <PUBCHEM_BOND_DEF_STEREO_COUNT>
0

> <PUBCHEM_BOND_UDEF_STEREO_COUNT>
0

> <PUBCHEM_ISOTOPIC_ATOM_COUNT>
0

> <PUBCHEM_COMPONENT_COUNT>
1

> <PUBCHEM_CACTVS_TAUTO_COUNT>
18

> <PUBCHEM_CONFORMER_ID>
01985C4500000001

> <PUBCHEM_MMFF94_ENERGY>
76.6451

> <PUBCHEM_FEATURE_SELFOVERLAP>
61.04

> <PUBCHEM_SHAPE_FINGERPRINT>
10280341 67 18270952549092575672
10740516 88 7925643232206178160
11135609 127 18193551178398836623
11135609 201 18335693936681581085
11297010 23 17846508011229364262
11374522 184 18410849989221288933
11476731 99 17754726132004446069
11621639 208 10950321637480521756
12013929 29 17840315415613556321
12047536 79 17532641356743344873
12522641 68 18201439215728315590
12758862 56 8935006932248762615
12838862 33 18201431502467821632
13673619 4 10807934847454873507
14415360 78 18268980041705598749
15289351 153 18200879479153235568
15350500 185 18412823598906378409
15350500 55 18407759239685047840
16120349 189 18410856585641728238
19053607 189 18041859357872949655
195137 95 18334290972249918760
20501277 180 18195807363570440221
20554085 129 18272079505181435194
20737093 207 12102751597231476548
21033648 29 18187650206159967910
21365058 113 11312049955180916347
21585482 310 8790882990860992785
23516275 100 18335979779361769517
23522609 53 17242745440600410988
23528521 120 18260537894331195285
255183 451 8683065417580950335
3918712 181 18342457036614572088
393628 179 18413103978851571145
3991529 202 14274004477823443977
4112364 45 18115015325821161346
4403749 210 18338239383209379419
44880168 125 11025806439658826753
5283384 27 18411138039333837469
5372103 7 18342455945740156129
54039377 194 8935004771848609504
57307002 19 18260265244446653917
6327066 14 18412826914773877718
636775 8 9511471030732915416
6695519 79 18121534360675637787
9896288 288 17972884932665496602
999808 66 8574712391054734273

> <PUBCHEM_SHAPE_MULTIPOLES>
616.03
29.69
5.65
1.5
4.26
5.63
0.01
-48.4
-0.54
-2.97
0.24
0.27
-0.61
4.46

> <PUBCHEM_SHAPE_SELFOVERLAP>
1308.628

> <PUBCHEM_SHAPE_VOLUME>
340.3

> <PUBCHEM_COORDINATE_TYPE>
2
5
10

$$$$
