40780211
  -OEChem-12032416163D

 68 72  0     1  0  0  0  0  0999 V2000
   -4.7330    1.9434   -0.4185 O   0  0  0  0  0  0  0  0  0  0  0  0
   -0.5763    3.7449   -0.0249 N   0  0  2  0  0  0  0  0  0  0  0  0
    3.2439    0.7872   -0.4786 N   0  0  0  0  0  0  0  0  0  0  0  0
   -2.7903    0.8516   -1.0293 N   0  0  0  0  0  0  0  0  0  0  0  0
    5.6344   -0.7549   -0.2213 N   0  0  0  0  0  0  0  0  0  0  0  0
   -4.6396   -0.3992   -0.5367 N   0  0  0  0  0  0  0  0  0  0  0  0
   -8.2060   -5.0358    0.3321 N   0  0  0  0  0  0  0  0  0  0  0  0
    0.9938    1.9690    1.0462 C   0  0  2  0  0  0  0  0  0  0  0  0
    1.6814    2.6624   -0.1520 C   0  0  2  0  0  0  0  0  0  0  0  0
   -1.2824    2.4397    0.0832 C   0  0  2  0  0  0  0  0  0  0  0  0
   -0.3266    1.3309    0.5769 C   0  0  0  0  0  0  0  0  0  0  0  0
    0.6574    3.5970   -0.8343 C   0  0  0  0  0  0  0  0  0  0  0  0
    0.6324    3.0749    2.0561 C   0  0  0  0  0  0  0  0  0  0  0  0
   -0.1843    4.1665    1.3420 C   0  0  0  0  0  0  0  0  0  0  0  0
    2.2958    1.6791   -1.1455 C   0  0  0  0  0  0  0  0  0  0  0  0
   -1.9848    2.0466   -1.2186 C   0  0  0  0  0  0  0  0  0  0  0  0
    4.5417    1.4512   -0.3064 C   0  0  0  0  0  0  0  0  0  0  0  0
    3.4147   -0.4512   -1.2484 C   0  0  0  0  0  0  0  0  0  0  0  0
    5.5267    0.5486    0.4409 C   0  0  0  0  0  0  0  0  0  0  0  0
    4.3610   -1.4170   -0.5318 C   0  0  0  0  0  0  0  0  0  0  0  0
   -4.1268    0.8971   -0.6365 C   0  0  0  0  0  0  0  0  0  0  0  0
    6.7550   -1.5604    0.0100 C   0  0  0  0  0  0  0  0  0  0  0  0
    7.4203   -1.4947    1.2343 C   0  0  0  0  0  0  0  0  0  0  0  0
    7.2062   -2.4297   -0.9833 C   0  0  0  0  0  0  0  0  0  0  0  0
   -5.9486   -0.7891   -0.1689 C   0  0  0  0  0  0  0  0  0  0  0  0
    8.5368   -2.2984    1.4653 C   0  0  0  0  0  0  0  0  0  0  0  0
    8.3227   -3.2333   -0.7522 C   0  0  0  0  0  0  0  0  0  0  0  0
    8.9878   -3.1678    0.4723 C   0  0  0  0  0  0  0  0  0  0  0  0
   -6.2866   -2.1416   -0.1206 C   0  0  0  0  0  0  0  0  0  0  0  0
   -6.9016    0.1797    0.1463 C   0  0  0  0  0  0  0  0  0  0  0  0
   -7.5775   -2.5254    0.2427 C   0  0  0  0  0  0  0  0  0  0  0  0
   -8.1925   -0.2042    0.5099 C   0  0  0  0  0  0  0  0  0  0  0  0
   -8.5305   -1.5566    0.5579 C   0  0  0  0  0  0  0  0  0  0  0  0
   -7.9243   -3.9107    0.2920 C   0  0  0  0  0  0  0  0  0  0  0  0
    1.6350    1.2249    1.5289 H   0  0  0  0  0  0  0  0  0  0  0  0
    2.4806    3.3025    0.2455 H   0  0  0  0  0  0  0  0  0  0  0  0
   -2.0755    2.5581    0.8363 H   0  0  0  0  0  0  0  0  0  0  0  0
   -0.1297    0.5796   -0.1949 H   0  0  0  0  0  0  0  0  0  0  0  0
   -0.7933    0.8001    1.4166 H   0  0  0  0  0  0  0  0  0  0  0  0
    1.1111    4.5869   -0.9761 H   0  0  0  0  0  0  0  0  0  0  0  0
    0.4087    3.2596   -1.8467 H   0  0  0  0  0  0  0  0  0  0  0  0
    1.5416    3.5113    2.4862 H   0  0  0  0  0  0  0  0  0  0  0  0
    0.0520    2.6509    2.8844 H   0  0  0  0  0  0  0  0  0  0  0  0
   -1.0787    4.4078    1.9298 H   0  0  0  0  0  0  0  0  0  0  0  0
    0.3927    5.0986    1.2916 H   0  0  0  0  0  0  0  0  0  0  0  0
    2.7708    2.2194   -1.9756 H   0  0  0  0  0  0  0  0  0  0  0  0
    1.4869    1.0958   -1.6029 H   0  0  0  0  0  0  0  0  0  0  0  0
   -1.2731    1.8170   -2.0178 H   0  0  0  0  0  0  0  0  0  0  0  0
   -2.6344    2.8585   -1.5650 H   0  0  0  0  0  0  0  0  0  0  0  0
    4.4396    2.3744    0.2736 H   0  0  0  0  0  0  0  0  0  0  0  0
    4.9696    1.7253   -1.2804 H   0  0  0  0  0  0  0  0  0  0  0  0
    3.8009   -0.2326   -2.2531 H   0  0  0  0  0  0  0  0  0  0  0  0
    2.4484   -0.9556   -1.3709 H   0  0  0  0  0  0  0  0  0  0  0  0
   -2.3543   -0.0515   -1.1866 H   0  0  0  0  0  0  0  0  0  0  0  0
    6.5002    1.0541    0.4633 H   0  0  0  0  0  0  0  0  0  0  0  0
    5.1884    0.4150    1.4766 H   0  0  0  0  0  0  0  0  0  0  0  0
    3.9030   -1.7715    0.4007 H   0  0  0  0  0  0  0  0  0  0  0  0
    4.5036   -2.2933   -1.1745 H   0  0  0  0  0  0  0  0  0  0  0  0
   -4.0011   -1.1608   -0.7521 H   0  0  0  0  0  0  0  0  0  0  0  0
    7.0888   -0.8404    2.0354 H   0  0  0  0  0  0  0  0  0  0  0  0
    6.7104   -2.4852   -1.9489 H   0  0  0  0  0  0  0  0  0  0  0  0
    9.0532   -2.2499    2.4196 H   0  0  0  0  0  0  0  0  0  0  0  0
    8.6762   -3.9080   -1.5266 H   0  0  0  0  0  0  0  0  0  0  0  0
    9.8570   -3.7937    0.6522 H   0  0  0  0  0  0  0  0  0  0  0  0
   -5.5416   -2.8958   -0.3667 H   0  0  0  0  0  0  0  0  0  0  0  0
   -6.7166    1.2443    0.1319 H   0  0  0  0  0  0  0  0  0  0  0  0
   -8.9353    0.5493    0.7556 H   0  0  0  0  0  0  0  0  0  0  0  0
   -9.5409   -1.8400    0.8428 H   0  0  0  0  0  0  0  0  0  0  0  0
  1 21  2  0  0  0  0
  2 10  1  0  0  0  0
  2 12  1  0  0  0  0
  2 14  1  0  0  0  0
  3 15  1  0  0  0  0
  3 17  1  0  0  0  0
  3 18  1  0  0  0  0
  4 16  1  0  0  0  0
  4 21  1  0  0  0  0
  4 54  1  0  0  0  0
  5 19  1  0  0  0  0
  5 20  1  0  0  0  0
  5 22  1  0  0  0  0
  6 21  1  0  0  0  0
  6 25  1  0  0  0  0
  6 59  1  0  0  0  0
  7 34  3  0  0  0  0
  8  9  1  0  0  0  0
  8 11  1  0  0  0  0
  8 13  1  0  0  0  0
  8 35  1  0  0  0  0
  9 12  1  0  0  0  0
  9 15  1  0  0  0  0
  9 36  1  0  0  0  0
 10 11  1  0  0  0  0
 10 16  1  0  0  0  0
 10 37  1  0  0  0  0
 11 38  1  0  0  0  0
 11 39  1  0  0  0  0
 12 40  1  0  0  0  0
 12 41  1  0  0  0  0
 13 14  1  0  0  0  0
 13 42  1  0  0  0  0
 13 43  1  0  0  0  0
 14 44  1  0  0  0  0
 14 45  1  0  0  0  0
 15 46  1  0  0  0  0
 15 47  1  0  0  0  0
 16 48  1  0  0  0  0
 16 49  1  0  0  0  0
 17 19  1  0  0  0  0
 17 50  1  0  0  0  0
 17 51  1  0  0  0  0
 18 20  1  0  0  0  0
 18 52  1  0  0  0  0
 18 53  1  0  0  0  0
 19 55  1  0  0  0  0
 19 56  1  0  0  0  0
 20 57  1  0  0  0  0
 20 58  1  0  0  0  0
 22 23  2  0  0  0  0
 22 24  1  0  0  0  0
 23 26  1  0  0  0  0
 23 60  1  0  0  0  0
 24 27  2  0  0  0  0
 24 61  1  0  0  0  0
 25 29  1  0  0  0  0
 25 30  2  0  0  0  0
 26 28  2  0  0  0  0
 26 62  1  0  0  0  0
 27 28  1  0  0  0  0
 27 63  1  0  0  0  0
 28 64  1  0  0  0  0
 29 31  2  0  0  0  0
 29 65  1  0  0  0  0
 30 32  1  0  0  0  0
 30 66  1  0  0  0  0
 31 33  1  0  0  0  0
 31 34  1  0  0  0  0
 32 33  2  0  0  0  0
 32 67  1  0  0  0  0
 33 68  1  0  0  0  0
M  END
> <PUBCHEM_COMPOUND_CID>
40780211

> <PUBCHEM_CONFORMER_RMSD>
1

> <PUBCHEM_CONFORMER_DIVERSEORDER>
1
357
9
262
241
338
148
125
288
248
339
180
96
194
25
373
242
277
231
327
237
209
95
271
226
92
164
352
72
173
334
89
381
55
121
115
332
382
140
250
326
366
296
218
191
103
316
244
333
186
341
217
71
372
249
324
317
265
197
113
351
343
308
166
134
222
130
279
267
300
350
258
346
369
112
192
322
206
124
200
329
305
259
119
361
108
239
90
178
367
187
371
153
195
171
378
135
128
298
132
126
342
273
196
83
347
229
62
276
156
219
303
293
99
313
268
133
190
157
154
61
162
285
252
145
335
263
246
236
56
163
297
306
184
208
98
340
228
104
117
74
127
81
354
23
278
11
78
152
315
120
214
84
159
188
299
32
169
110
146
251
47
82
319
224
150
69
247
318
172
243
75
50
59
261
189
4
101
307
387
111
320
376
272
221
67
151
139
155
365
28
235
266
283
185
295
257
207
168
311
174
65
256
198
280
212
79
310
304
344
284
141
100
58
370
68
175
245
46
118
138
49
379
114
177
167
269
181
8
131
109
328
165
37
179
374
270
93
353
144
182
86
260
314
105
94
77
7
356
42
359
225
116
291
18
290
377
160
123
142
321
107
193
20
73
66
375
60
147
384
386
35
292
158
336
6
122
102
301
211
233
385
363
30
36
137
176
388
21
234
199
210
227
45
312
368
85
255
203
48
97
53
52
330
331
281
360
87
230
349
88
348
294
43
12
213
149
274
27
358
34
19
143
223
40
309
10
254
16
39
204
364
13
22
76
325
80
205
289
57
170
3
201
362
253
2
232
91
302
106
282
54
24
323
63
380
337
64
14
26
136
33
41
161
70
264
355
129
216
31
286
15
287
238
38
51
240
183
275
202
5
220
383
17
345
29
215
44

> <PUBCHEM_MMFF94_PARTIAL_CHARGES>
41
1 -0.57
10 0.27
12 0.27
14 0.27
15 0.27
16 0.3
17 0.27
18 0.27
19 0.37
2 -0.81
20 0.37
21 0.69
22 0.1
23 -0.15
24 -0.15
25 0.12
26 -0.15
27 -0.15
28 -0.15
29 -0.15
3 -0.81
30 -0.15
31 0.07
32 -0.15
33 -0.15
34 0.48
4 -0.73
5 -0.84
54 0.37
59 0.37
6 -0.55
60 0.15
61 0.15
62 0.15
63 0.15
64 0.15
65 0.15
66 0.15
67 0.15
68 0.15
7 -0.56

> <PUBCHEM_EFFECTIVE_ROTOR_COUNT>
10.4

> <PUBCHEM_PHARMACOPHORE_FEATURES>
11
1 1 acceptor
1 2 cation
1 3 cation
1 4 donor
1 5 cation
1 6 donor
1 7 acceptor
6 22 23 24 26 27 28 rings
6 25 29 30 31 32 33 rings
6 3 5 17 18 19 20 rings
8 2 8 9 10 11 12 13 14 rings

> <PUBCHEM_HEAVY_ATOM_COUNT>
34

> <PUBCHEM_ATOM_DEF_STEREO_COUNT>
3

> <PUBCHEM_ATOM_UDEF_STEREO_COUNT>
0

> <PUBCHEM_BOND_DEF_STEREO_COUNT>
0

> <PUBCHEM_BOND_UDEF_STEREO_COUNT>
0

> <PUBCHEM_ISOTOPIC_ATOM_COUNT>
0

> <PUBCHEM_COMPONENT_COUNT>
1

> <PUBCHEM_CACTVS_TAUTO_COUNT>
3

> <PUBCHEM_CONFORMER_ID>
026E41B300000001

> <PUBCHEM_MMFF94_ENERGY>
100.2338

> <PUBCHEM_FEATURE_SELFOVERLAP>
55.878

> <PUBCHEM_SHAPE_FINGERPRINT>
10100884 174 18335138666484113546
10190206 1 12396294829566062399
10280341 67 7997675464757258830
10533779 1 9727632769779288910
11409948 8 18271513253558452810
11672396 167 18340763849924119711
117089 54 18410015446509855103
12013929 27 18186522085929022406
12013929 94 18341331077976015486
12522641 68 10881692303518220952
13248334 5 18049162460166603117
13782708 43 18334856164956776189
13974486 7 18335411392158936938
14068700 675 18335423426883523228
14359421 15 17894907408719039987
14904525 67 9005327350204186430
15152005 304 18339374023164315911
15152005 77 18201433667047144783
15347591 1 18409729564744458805
15510800 12 18342461400575183606
15773216 30 18191030204232162676
15803439 3 14345799340021559440
16067689 68 18059023778566020675
16990366 60 18411981394442274291
19246450 95 17489592208879583285
19303781 99 18338504296749505622
19841028 212 18408323293908956912
2026 5 18260265218102045243
20721686 146 9943808893392778434
21033648 29 12679463101117214956
21130935 74 18268713999495428921
212700 22 18339634552028200366
21792965 78 17604432877863839194
21987483 16 18333724716452964402
22899556 10 17046271095876927488
23523787 8 14923944569787161720
23569943 247 18408889564436964627
25025965 108 18058160817312660359
25242607 90 18412538816841597842
2747138 104 18059572430931898646
3383291 50 18410571752333700482
3918712 181 8862951571235599814
406291 66 18334857195421846930
4169191 19 9871476400870011155
437795 150 18114456774146015461
439807 62 18334859420256961629
44426701 291 18188788239681732091
4461854 278 17632854210113079262
44802255 64 11603123634063579688
54039377 194 18408888412704883238
5718773 13 18409448064281585492
57303763 176 18342735171742016373
57527295 17 16661763255396379388
6327066 14 8430308039646717256
636775 72 10159699093246219359
636775 8 18340211783206317022

> <PUBCHEM_SHAPE_MULTIPOLES>
663.95
31.41
5.89
1.25
6.95
0.96
0.26
53.04
4.75
3.32
1.11
-1.31
-0.55
0.77

> <PUBCHEM_SHAPE_SELFOVERLAP>
1418.24

> <PUBCHEM_SHAPE_VOLUME>
361.1

> <PUBCHEM_COORDINATE_TYPE>
2
5
10

$$$$
