51137035
  -OEChem-12032416293D

 45 48  0     1  0  0  0  0  0999 V2000
   -1.7098    1.0606   -0.2243 N   0  0  1  0  0  0  0  0  0  0  0  0
    2.7070    0.1336    1.3870 N   0  0  0  0  0  0  0  0  0  0  0  0
    2.4023    0.2727   -0.8148 N   0  0  0  0  0  0  0  0  0  0  0  0
    4.5911   -0.5492   -1.4686 N   0  0  0  0  0  0  0  0  0  0  0  0
   -3.7101   -0.3629   -0.3182 C   0  0  0  0  0  0  0  0  0  0  0  0
   -2.7321    0.5102   -1.1020 C   0  0  0  0  0  0  0  0  0  0  0  0
    0.4674    0.9902    0.6446 C   0  0  2  0  0  0  0  0  0  0  0  0
   -0.6358    0.1037    0.0511 C   0  0  0  0  0  0  0  0  0  0  0  0
   -1.0394    2.2217   -0.8094 C   0  0  0  0  0  0  0  0  0  0  0  0
   -4.4283    0.4608    0.7594 C   0  0  0  0  0  0  0  0  0  0  0  0
   -4.7212   -1.0265   -1.2629 C   0  0  0  0  0  0  0  0  0  0  0  0
    0.1816    2.3947    0.0847 C   0  0  0  0  0  0  0  0  0  0  0  0
   -5.4510   -0.3784    1.5220 C   0  0  0  0  0  0  0  0  0  0  0  0
   -5.7435   -1.8631   -0.4969 C   0  0  0  0  0  0  0  0  0  0  0  0
   -6.4489   -1.0434    0.5791 C   0  0  0  0  0  0  0  0  0  0  0  0
    1.8574    0.4665    0.3664 C   0  0  0  0  0  0  0  0  0  0  0  0
    3.8758   -0.3035    0.8255 C   0  0  0  0  0  0  0  0  0  0  0  0
    3.6594   -0.2064   -0.5444 C   0  0  0  0  0  0  0  0  0  0  0  0
    5.0781   -0.7649    1.3501 C   0  0  0  0  0  0  0  0  0  0  0  0
    6.0447   -1.1206    0.4132 C   0  0  0  0  0  0  0  0  0  0  0  0
    5.7554   -0.9960   -0.9415 C   0  0  0  0  0  0  0  0  0  0  0  0
   -3.1555   -1.1701    0.1794 H   0  0  0  0  0  0  0  0  0  0  0  0
   -2.2884   -0.0506   -1.9351 H   0  0  0  0  0  0  0  0  0  0  0  0
   -3.3027    1.3308   -1.5587 H   0  0  0  0  0  0  0  0  0  0  0  0
    0.3243    1.0371    1.7340 H   0  0  0  0  0  0  0  0  0  0  0  0
   -0.2919   -0.3965   -0.8638 H   0  0  0  0  0  0  0  0  0  0  0  0
   -0.9414   -0.6665    0.7672 H   0  0  0  0  0  0  0  0  0  0  0  0
   -1.6728    3.1143   -0.7996 H   0  0  0  0  0  0  0  0  0  0  0  0
   -0.7209    2.0272   -1.8417 H   0  0  0  0  0  0  0  0  0  0  0  0
   -3.7116    0.8684    1.4816 H   0  0  0  0  0  0  0  0  0  0  0  0
   -4.9386    1.3168    0.2991 H   0  0  0  0  0  0  0  0  0  0  0  0
   -5.2475   -0.2596   -1.8455 H   0  0  0  0  0  0  0  0  0  0  0  0
   -4.1972   -1.6675   -1.9818 H   0  0  0  0  0  0  0  0  0  0  0  0
   -0.0515    3.0760    0.9127 H   0  0  0  0  0  0  0  0  0  0  0  0
    1.0239    2.8220   -0.4696 H   0  0  0  0  0  0  0  0  0  0  0  0
   -5.9870    0.2550    2.2378 H   0  0  0  0  0  0  0  0  0  0  0  0
   -4.9298   -1.1482    2.1043 H   0  0  0  0  0  0  0  0  0  0  0  0
   -5.2394   -2.7193   -0.0320 H   0  0  0  0  0  0  0  0  0  0  0  0
   -6.4840   -2.2695   -1.1951 H   0  0  0  0  0  0  0  0  0  0  0  0
   -7.1238   -1.6893    1.1518 H   0  0  0  0  0  0  0  0  0  0  0  0
   -7.0696   -0.2742    0.1033 H   0  0  0  0  0  0  0  0  0  0  0  0
    2.5089    0.1979    2.3768 H   0  0  0  0  0  0  0  0  0  0  0  0
    5.2540   -0.8433    2.4158 H   0  0  0  0  0  0  0  0  0  0  0  0
    7.0121   -1.4906    0.7368 H   0  0  0  0  0  0  0  0  0  0  0  0
    6.5043   -1.2714   -1.6795 H   0  0  0  0  0  0  0  0  0  0  0  0
  1  6  1  0  0  0  0
  1  8  1  0  0  0  0
  1  9  1  0  0  0  0
  2 16  1  0  0  0  0
  2 17  1  0  0  0  0
  2 42  1  0  0  0  0
  3 16  2  0  0  0  0
  3 18  1  0  0  0  0
  4 18  1  0  0  0  0
  4 21  2  0  0  0  0
  5  6  1  0  0  0  0
  5 10  1  0  0  0  0
  5 11  1  0  0  0  0
  5 22  1  0  0  0  0
  6 23  1  0  0  0  0
  6 24  1  0  0  0  0
  7  8  1  0  0  0  0
  7 12  1  0  0  0  0
  7 16  1  0  0  0  0
  7 25  1  0  0  0  0
  8 26  1  0  0  0  0
  8 27  1  0  0  0  0
  9 12  1  0  0  0  0
  9 28  1  0  0  0  0
  9 29  1  0  0  0  0
 10 13  1  0  0  0  0
 10 30  1  0  0  0  0
 10 31  1  0  0  0  0
 11 14  1  0  0  0  0
 11 32  1  0  0  0  0
 11 33  1  0  0  0  0
 12 34  1  0  0  0  0
 12 35  1  0  0  0  0
 13 15  1  0  0  0  0
 13 36  1  0  0  0  0
 13 37  1  0  0  0  0
 14 15  1  0  0  0  0
 14 38  1  0  0  0  0
 14 39  1  0  0  0  0
 15 40  1  0  0  0  0
 15 41  1  0  0  0  0
 17 18  2  0  0  0  0
 17 19  1  0  0  0  0
 19 20  2  0  0  0  0
 19 43  1  0  0  0  0
 20 21  1  0  0  0  0
 20 44  1  0  0  0  0
 21 45  1  0  0  0  0
M  END
> <PUBCHEM_COMPOUND_CID>
51137035

> <PUBCHEM_CONFORMER_RMSD>
0.8

> <PUBCHEM_CONFORMER_DIVERSEORDER>
1
19
37
31
12
33
6
7
28
14
26
13
36
9
38
39
17
30
27
21
8
25
2
16
23
3
10
4
18
22
34
32
35
15
29
20
11
5
24
40

> <PUBCHEM_MMFF94_PARTIAL_CHARGES>
18
1 -0.81
16 0.01
17 -0.15
18 0.48
19 -0.15
2 0.03
20 -0.15
21 0.16
3 -0.57
4 -0.57
42 0.27
43 0.15
44 0.15
45 0.15
6 0.27
7 0.18
8 0.27
9 0.27

> <PUBCHEM_EFFECTIVE_ROTOR_COUNT>
5.2

> <PUBCHEM_PHARMACOPHORE_FEATURES>
8
1 1 cation
1 2 donor
1 4 acceptor
3 2 3 16 cation
5 1 7 8 9 12 rings
5 2 3 16 17 18 rings
6 4 17 18 19 20 21 rings
6 5 10 11 13 14 15 rings

> <PUBCHEM_HEAVY_ATOM_COUNT>
21

> <PUBCHEM_ATOM_DEF_STEREO_COUNT>
1

> <PUBCHEM_ATOM_UDEF_STEREO_COUNT>
0

> <PUBCHEM_BOND_DEF_STEREO_COUNT>
0

> <PUBCHEM_BOND_UDEF_STEREO_COUNT>
0

> <PUBCHEM_ISOTOPIC_ATOM_COUNT>
0

> <PUBCHEM_COMPONENT_COUNT>
1

> <PUBCHEM_CACTVS_TAUTO_COUNT>
3

> <PUBCHEM_CONFORMER_ID>
030C4A0B00000001

> <PUBCHEM_MMFF94_ENERGY>
29.7887

> <PUBCHEM_FEATURE_SELFOVERLAP>
40.726

> <PUBCHEM_SHAPE_FINGERPRINT>
10 15 13830129529350852775
10319926 262 16486989413992526605
10692045 39 12031524154701721460
10693767 8 16517079615956914178
11089746 13 8934992655867037062
117890 112 10375871874536687106
12166972 35 17240488004924450380
12236239 1 17531247215076030092
12516196 113 18341612641727663552
12596602 18 15482669100096802031
12760667 363 18333449837733694971
12892183 10 16200158672792529853
13288520 33 18334857217191803197
13540713 4 18192124136370386253
13668630 136 17748829609197921411
13685833 64 18409730694651971611
13690498 29 15357986732945229355
13740256 8 18408322211434747249
13862211 1 18407757045204569131
14123256 34 18409172120948633771
14251752 14 17821721703187273549
14251757 5 16661219168690883691
14251764 18 14405178482948990441
14251764 30 18411983554916500883
14341114 176 15913330191246146842
14528608 73 13479131302285575083
14576447 43 17748822991222504176
14739800 52 16413502561907419817
15003188 100 13262689161461652246
15142383 8 16128378134072711546
15183329 4 14996275903602018147
15188451 53 17489016180708483071
15238133 3 11167932581251048954
15348495 7 16487247815872588971
15475509 84 14045470986317140370
15537594 2 18335699438334863587
17780758 139 17704070703419332043
17844677 252 18411135835694140673
1813 80 18411142445849146181
18222031 100 18408881862863971121
19141452 34 17489863873275193151
193927 3 18411702097109064493
19784866 140 17821726130823782393
19784866 240 18410856594743378549
200 152 17458345208666051792
20028762 73 18130503141126109999
20281389 69 12607403286675672739
20871999 31 16225759714772113133
21150785 3 17749115491681106590
21521239 73 15719389521424415362
21637258 2 18335134302147434981
221357 26 15140675882274697702
22950370 63 18410296917122649965
23016692 55 18334013895698962317
23198884 109 13262392259452660731
23402539 116 17894630309938982453
23522609 53 18193588659666663221
23559900 14 16443632410323497981
2748736 6 9871751295207984907
2838139 119 11025793210605387503
2916195 48 10953465132343305799
29717793 49 17240480269815060550
3004659 81 17385720300982382370
312425 54 17203613683490561007
314173 85 18272647939744776165
33382 64 18131071485700450450
3472631 163 9439107772314499874
34797466 226 14996289128075633711
351380 3 18334856125769144987
3737641 26 18058455304805212574
465052 167 18409454721238359743
5104073 3 17702109265112422939
5207 217 11530487748659304729
5385378 56 10591779687291439237
543368 44 10881393245698890199
559249 180 18342457041895339279
59682541 52 13335006171977627720
7970288 3 18408880737319328155
8863177 126 17897455106315174379

> <PUBCHEM_SHAPE_MULTIPOLES>
412.25
16.8
1.72
1.35
2.13
0.8
-0.06
-11.43
-1.18
0.94
0.25
-0.1
-0.19
-0.1

> <PUBCHEM_SHAPE_SELFOVERLAP>
883.404

> <PUBCHEM_SHAPE_VOLUME>
225.1

> <PUBCHEM_COORDINATE_TYPE>
2
5
10

$$$$
