45784399
  -OEChem-12032416313D

 79 82  0     1  0  0  0  0  0999 V2000
   -0.5514   -1.5359    1.7909 O   0  0  0  0  0  0  0  0  0  0  0  0
   -4.9636   -2.3896   -1.0024 O   0  0  0  0  0  0  0  0  0  0  0  0
    4.7018    2.5766    0.1700 O   0  0  0  0  0  0  0  0  0  0  0  0
  -10.0477    2.7769    0.5872 O   0  0  0  0  0  0  0  0  0  0  0  0
    4.1393    0.3507   -0.1533 N   0  0  0  0  0  0  0  0  0  0  0  0
   -5.0862   -1.3784    1.0814 N   0  0  0  0  0  0  0  0  0  0  0  0
   -7.9670    0.8555    0.3035 N   0  0  0  0  0  0  0  0  0  0  0  0
   11.6121   -0.3730    0.8152 N   0  0  0  0  0  0  0  0  0  0  0  0
    0.1662   -0.2073   -1.7155 C   0  0  1  0  0  0  0  0  0  0  0  0
    0.3618   -0.4252   -0.1782 C   0  0  2  0  0  0  0  0  0  0  0  0
    1.8797   -0.6347    0.1680 C   0  0  1  0  0  0  0  0  0  0  0  0
   -0.6043   -1.5176    0.3637 C   0  0  2  0  0  0  0  0  0  0  0  0
   -1.3200    0.1079   -2.0070 C   0  0  0  0  0  0  0  0  0  0  0  0
    1.0026    1.0142   -2.1620 C   0  0  0  0  0  0  0  0  0  0  0  0
   -2.0785   -1.2514   -0.0204 C   0  0  1  0  0  0  0  0  0  0  0  0
    2.7213    0.5645   -0.3522 C   0  0  2  0  0  0  0  0  0  0  0  0
   -2.2659   -0.9785   -1.5128 C   0  0  0  0  0  0  0  0  0  0  0  0
    2.4814    0.8801   -1.8283 C   0  0  0  0  0  0  0  0  0  0  0  0
    0.5855   -1.4447   -2.5490 C   0  0  0  0  0  0  0  0  0  0  0  0
   -2.9955   -2.4033    0.4089 C   0  0  2  0  0  0  0  0  0  0  0  0
    2.1478   -0.8269    1.6703 C   0  0  0  0  0  0  0  0  0  0  0  0
   -2.5512   -3.7027   -0.2535 C   0  0  0  0  0  0  0  0  0  0  0  0
   -4.4441   -2.0706    0.0650 C   0  0  0  0  0  0  0  0  0  0  0  0
    5.0174    1.3921    0.0941 C   0  0  0  0  0  0  0  0  0  0  0  0
    6.4446    1.0099    0.2490 C   0  0  0  0  0  0  0  0  0  0  0  0
   -6.4630   -0.9517    0.9874 C   0  0  0  0  0  0  0  0  0  0  0  0
   -6.5681    0.4396    0.3802 C   0  0  0  0  0  0  0  0  0  0  0  0
    7.4497    1.9274   -0.0568 C   0  0  0  0  0  0  0  0  0  0  0  0
    6.7792   -0.2662    0.7018 C   0  0  0  0  0  0  0  0  0  0  0  0
    8.7895    1.5687    0.0902 C   0  0  0  0  0  0  0  0  0  0  0  0
    8.1191   -0.6248    0.8489 C   0  0  0  0  0  0  0  0  0  0  0  0
   -8.4642    1.2605    1.6256 C   0  0  0  0  0  0  0  0  0  0  0  0
   -8.1320    1.9568   -0.6555 C   0  0  0  0  0  0  0  0  0  0  0  0
    9.1243    0.2926    0.5432 C   0  0  0  0  0  0  0  0  0  0  0  0
   -9.9212    1.7012    1.5179 C   0  0  0  0  0  0  0  0  0  0  0  0
   -9.5966    2.3823   -0.7090 C   0  0  0  0  0  0  0  0  0  0  0  0
   10.4971   -0.0748    0.6934 C   0  0  0  0  0  0  0  0  0  0  0  0
    0.0738    0.5112    0.3262 H   0  0  0  0  0  0  0  0  0  0  0  0
    2.2325   -1.5498   -0.3243 H   0  0  0  0  0  0  0  0  0  0  0  0
   -0.2459   -2.4869    0.0123 H   0  0  0  0  0  0  0  0  0  0  0  0
   -1.4734    0.2549   -3.0839 H   0  0  0  0  0  0  0  0  0  0  0  0
   -1.5969    1.0563   -1.5269 H   0  0  0  0  0  0  0  0  0  0  0  0
    0.6190    1.9213   -1.6758 H   0  0  0  0  0  0  0  0  0  0  0  0
    0.8927    1.1759   -3.2420 H   0  0  0  0  0  0  0  0  0  0  0  0
   -2.4082   -0.3515    0.5202 H   0  0  0  0  0  0  0  0  0  0  0  0
    2.4347    1.4527    0.2279 H   0  0  0  0  0  0  0  0  0  0  0  0
   -3.2830   -0.6244   -1.7156 H   0  0  0  0  0  0  0  0  0  0  0  0
   -2.1222   -1.8661   -2.1319 H   0  0  0  0  0  0  0  0  0  0  0  0
    2.9416    0.1099   -2.4594 H   0  0  0  0  0  0  0  0  0  0  0  0
    2.9898    1.8156   -2.0957 H   0  0  0  0  0  0  0  0  0  0  0  0
    1.6481   -1.6815   -2.4523 H   0  0  0  0  0  0  0  0  0  0  0  0
    0.3928   -1.2743   -3.6147 H   0  0  0  0  0  0  0  0  0  0  0  0
    0.0399   -2.3477   -2.2612 H   0  0  0  0  0  0  0  0  0  0  0  0
   -2.9299   -2.5467    1.4952 H   0  0  0  0  0  0  0  0  0  0  0  0
    1.7816   -1.7977    2.0158 H   0  0  0  0  0  0  0  0  0  0  0  0
    3.2185   -0.8216    1.8986 H   0  0  0  0  0  0  0  0  0  0  0  0
    1.6790   -0.0342    2.2624 H   0  0  0  0  0  0  0  0  0  0  0  0
    4.4882   -0.5879   -0.3168 H   0  0  0  0  0  0  0  0  0  0  0  0
   -0.8196   -0.6591    2.1145 H   0  0  0  0  0  0  0  0  0  0  0  0
   -1.5756   -4.0472    0.0980 H   0  0  0  0  0  0  0  0  0  0  0  0
   -3.2588   -4.4981    0.0150 H   0  0  0  0  0  0  0  0  0  0  0  0
   -2.5465   -3.6777   -1.3452 H   0  0  0  0  0  0  0  0  0  0  0  0
   -4.5729   -1.1379    1.9244 H   0  0  0  0  0  0  0  0  0  0  0  0
   -6.8535   -0.9868    2.0083 H   0  0  0  0  0  0  0  0  0  0  0  0
   -7.0214   -1.6792    0.3868 H   0  0  0  0  0  0  0  0  0  0  0  0
   -6.1370    0.3922   -0.6291 H   0  0  0  0  0  0  0  0  0  0  0  0
   -5.9566    1.1611    0.9381 H   0  0  0  0  0  0  0  0  0  0  0  0
    7.2092    2.9249   -0.4151 H   0  0  0  0  0  0  0  0  0  0  0  0
    6.0281   -0.9994    0.9805 H   0  0  0  0  0  0  0  0  0  0  0  0
    9.5619    2.2945   -0.1531 H   0  0  0  0  0  0  0  0  0  0  0  0
    8.3646   -1.6210    1.2093 H   0  0  0  0  0  0  0  0  0  0  0  0
   -7.8640    2.0905    2.0210 H   0  0  0  0  0  0  0  0  0  0  0  0
   -8.4174    0.4368    2.3441 H   0  0  0  0  0  0  0  0  0  0  0  0
   -7.8205    1.6413   -1.6578 H   0  0  0  0  0  0  0  0  0  0  0  0
   -7.5122    2.8133   -0.3595 H   0  0  0  0  0  0  0  0  0  0  0  0
  -10.2751    2.0599    2.4898 H   0  0  0  0  0  0  0  0  0  0  0  0
  -10.5733    0.8737    1.2124 H   0  0  0  0  0  0  0  0  0  0  0  0
  -10.2378    1.5784   -1.0907 H   0  0  0  0  0  0  0  0  0  0  0  0
   -9.7107    3.2421   -1.3769 H   0  0  0  0  0  0  0  0  0  0  0  0
  1 12  1  0  0  0  0
  1 59  1  0  0  0  0
  2 23  2  0  0  0  0
  3 24  2  0  0  0  0
  4 35  1  0  0  0  0
  4 36  1  0  0  0  0
  5 16  1  0  0  0  0
  5 24  1  0  0  0  0
  5 58  1  0  0  0  0
  6 23  1  0  0  0  0
  6 26  1  0  0  0  0
  6 63  1  0  0  0  0
  7 27  1  0  0  0  0
  7 32  1  0  0  0  0
  7 33  1  0  0  0  0
  8 37  3  0  0  0  0
  9 10  1  0  0  0  0
  9 13  1  0  0  0  0
  9 14  1  0  0  0  0
  9 19  1  0  0  0  0
 10 11  1  0  0  0  0
 10 12  1  0  0  0  0
 10 38  1  0  0  0  0
 11 16  1  0  0  0  0
 11 21  1  0  0  0  0
 11 39  1  0  0  0  0
 12 15  1  0  0  0  0
 12 40  1  0  0  0  0
 13 17  1  0  0  0  0
 13 41  1  0  0  0  0
 13 42  1  0  0  0  0
 14 18  1  0  0  0  0
 14 43  1  0  0  0  0
 14 44  1  0  0  0  0
 15 17  1  0  0  0  0
 15 20  1  0  0  0  0
 15 45  1  0  0  0  0
 16 18  1  0  0  0  0
 16 46  1  0  0  0  0
 17 47  1  0  0  0  0
 17 48  1  0  0  0  0
 18 49  1  0  0  0  0
 18 50  1  0  0  0  0
 19 51  1  0  0  0  0
 19 52  1  0  0  0  0
 19 53  1  0  0  0  0
 20 22  1  0  0  0  0
 20 23  1  0  0  0  0
 20 54  1  0  0  0  0
 21 55  1  0  0  0  0
 21 56  1  0  0  0  0
 21 57  1  0  0  0  0
 22 60  1  0  0  0  0
 22 61  1  0  0  0  0
 22 62  1  0  0  0  0
 24 25  1  0  0  0  0
 25 28  2  0  0  0  0
 25 29  1  0  0  0  0
 26 27  1  0  0  0  0
 26 64  1  0  0  0  0
 26 65  1  0  0  0  0
 27 66  1  0  0  0  0
 27 67  1  0  0  0  0
 28 30  1  0  0  0  0
 28 68  1  0  0  0  0
 29 31  2  0  0  0  0
 29 69  1  0  0  0  0
 30 34  2  0  0  0  0
 30 70  1  0  0  0  0
 31 34  1  0  0  0  0
 31 71  1  0  0  0  0
 32 35  1  0  0  0  0
 32 72  1  0  0  0  0
 32 73  1  0  0  0  0
 33 36  1  0  0  0  0
 33 74  1  0  0  0  0
 33 75  1  0  0  0  0
 34 37  1  0  0  0  0
 35 76  1  0  0  0  0
 35 77  1  0  0  0  0
 36 78  1  0  0  0  0
 36 79  1  0  0  0  0
M  END
> <PUBCHEM_COMPOUND_CID>
45784399

> <PUBCHEM_CONFORMER_RMSD>
1.2

> <PUBCHEM_CONFORMER_DIVERSEORDER>
1
83
104
89
23
69
110
17
74
66
28
105
59
54
107
62
114
75
27
22
93
115
49
41
103
24
116
2
100
61
92
53
117
8
68
85
101
86
15
108
63
9
25
106
11
29
80
98
109
94
76
36
96
55
30
45
97
64
111
95
90
88
102
51
44
79
34
7
113
6
70
82
112
20
84
81
21
99
57
47
32
26
13
77
60
19
87
46
5
14
40
91
37
18
67
33
4
52
56
38
39
50
48
42
12
31
73
3
65
78
58
71
43
72
35
16
10

> <PUBCHEM_MMFF94_PARTIAL_CHARGES>
33
1 -0.68
12 0.28
16 0.3
2 -0.57
20 0.06
23 0.57
24 0.54
25 0.09
26 0.3
27 0.27
28 -0.15
29 -0.15
3 -0.57
30 -0.15
31 -0.15
32 0.27
33 0.27
34 0.07
35 0.28
36 0.28
37 0.48
4 -0.56
5 -0.73
58 0.37
59 0.4
6 -0.73
63 0.37
68 0.15
69 0.15
7 -0.81
70 0.15
71 0.15
8 -0.56

> <PUBCHEM_EFFECTIVE_ROTOR_COUNT>
11.8

> <PUBCHEM_PHARMACOPHORE_FEATURES>
14
1 1 acceptor
1 1 donor
1 2 acceptor
1 22 hydrophobe
1 3 acceptor
1 4 acceptor
1 5 donor
1 6 donor
1 7 cation
1 8 acceptor
6 25 28 29 30 31 34 rings
6 4 7 32 33 35 36 rings
6 9 10 11 14 16 18 rings
6 9 10 12 13 15 17 rings

> <PUBCHEM_HEAVY_ATOM_COUNT>
37

> <PUBCHEM_ATOM_DEF_STEREO_COUNT>
6

> <PUBCHEM_ATOM_UDEF_STEREO_COUNT>
1

> <PUBCHEM_BOND_DEF_STEREO_COUNT>
0

> <PUBCHEM_BOND_UDEF_STEREO_COUNT>
0

> <PUBCHEM_ISOTOPIC_ATOM_COUNT>
0

> <PUBCHEM_COMPONENT_COUNT>
1

> <PUBCHEM_CACTVS_TAUTO_COUNT>
4

> <PUBCHEM_CONFORMER_ID>
02BA9D4F00000001

> <PUBCHEM_MMFF94_ENERGY>
94.8731

> <PUBCHEM_FEATURE_SELFOVERLAP>
71.062

> <PUBCHEM_SHAPE_FINGERPRINT>
10076449 9 11963390743469721237
10162869 55 11959729378940275970
10190108 129 16588021303489854712
10533779 1 18264487288290111221
11181472 205 18342466950142622932
11478447 183 11527951137111798033
11607047 74 9510585897718214867
12013929 2 18201723951597169346
12013929 94 8574711308189952944
12539747 363 16588023532515183229
12838862 33 15482672382031596934
13383668 40 18339928104932930942
1361 4 8718286623457128905
14040221 310 13686304587166204995
14150023 24 17704355480994415742
14671636 106 8718826487960593745
15131766 46 17267495524356531024
15152005 290 18411698791060360867
15392192 29 16443350900960682002
15419008 145 17095526167859184901
15439362 3 18341054017519297335
16992752 21 9439409021637450971
18335252 98 12251895989254966800
19315958 150 18410859823884266427
20105231 36 15936405659179847066
20721686 146 18413672396666878597
21057603 130 11097859562988857205
21267235 1 16877655803936490422
21781055 127 17895489063380868926
21792938 703 11095872796758493837
21792965 68 18202287975023545745
21927370 108 14707202206189808974
22149856 69 18260828233671946076
23569917 315 11603358938838431224
23576562 1 15769478946285983753
23729398 52 8429728597040998783
3178227 256 16008750229657110002
3552219 110 15646774492239653006
395649 100 12607400014338088877
4516262 110 15841554085665969924
54039377 194 9079110060678807009
58260988 521 13551471471365788563
6201320 215 18343301427448819921
6204607 403 17899705849995219012
636775 8 8718824289364807593

> <PUBCHEM_SHAPE_MULTIPOLES>
718.04
37.18
2.81
1.77
9.97
0.69
0.8
-27.13
-17.38
-5.93
0.02
-1.14
0.14
-1.15

> <PUBCHEM_SHAPE_SELFOVERLAP>
1499

> <PUBCHEM_SHAPE_VOLUME>
400.5

> <PUBCHEM_COORDINATE_TYPE>
2
5
10

$$$$
