56775249
  -OEChem-12032416413D

 37 39  0     1  0  0  0  0  0999 V2000
   -1.6754    2.0286    0.7619 O   0  0  0  0  0  0  0  0  0  0  0  0
    1.2565    2.6753   -1.1472 O   0  0  0  0  0  0  0  0  0  0  0  0
   -5.1808   -1.1787    0.5974 O   0  0  0  0  0  0  0  0  0  0  0  0
   -2.9921   -0.5902    0.1488 N   0  0  0  0  0  0  0  0  0  0  0  0
    0.3848    0.6270   -0.4703 N   0  0  0  0  0  0  0  0  0  0  0  0
    4.8482   -1.2707    0.8507 N   0  0  0  0  0  0  0  0  0  0  0  0
   -0.6815   -0.0936    0.2141 C   0  0  1  0  0  0  0  0  0  0  0  0
   -1.3995    0.7300    1.2806 C   0  0  2  0  0  0  0  0  0  0  0  0
   -1.8229   -0.5028   -0.7209 C   0  0  0  0  0  0  0  0  0  0  0  0
   -2.7197   -0.0091    1.4590 C   0  0  0  0  0  0  0  0  0  0  0  0
    0.4579    2.0173   -0.4783 C   0  0  0  0  0  0  0  0  0  0  0  0
   -0.4789    2.7213    0.4877 C   0  0  0  0  0  0  0  0  0  0  0  0
    1.2926   -0.1617   -1.2915 C   0  0  0  0  0  0  0  0  0  0  0  0
   -4.2236   -1.1295   -0.1767 C   0  0  0  0  0  0  0  0  0  0  0  0
    2.5350   -0.5490   -0.5427 C   0  0  0  0  0  0  0  0  0  0  0  0
   -4.3427   -1.6824   -1.5742 C   0  0  0  0  0  0  0  0  0  0  0  0
    3.5322    0.3919   -0.3106 C   0  0  0  0  0  0  0  0  0  0  0  0
    2.6931   -1.8503   -0.0788 C   0  0  0  0  0  0  0  0  0  0  0  0
    4.6592   -0.0157    0.3847 C   0  0  0  0  0  0  0  0  0  0  0  0
    3.8576   -2.1576    0.6063 C   0  0  0  0  0  0  0  0  0  0  0  0
   -0.2558   -0.9880    0.6875 H   0  0  0  0  0  0  0  0  0  0  0  0
   -0.8458    0.8193    2.2216 H   0  0  0  0  0  0  0  0  0  0  0  0
   -2.0277    0.2519   -1.4889 H   0  0  0  0  0  0  0  0  0  0  0  0
   -1.6350   -1.4610   -1.2142 H   0  0  0  0  0  0  0  0  0  0  0  0
   -3.5507    0.6359    1.7608 H   0  0  0  0  0  0  0  0  0  0  0  0
   -2.6242   -0.8395    2.1668 H   0  0  0  0  0  0  0  0  0  0  0  0
    0.0627    2.9152    1.4207 H   0  0  0  0  0  0  0  0  0  0  0  0
   -0.7521    3.6872    0.0507 H   0  0  0  0  0  0  0  0  0  0  0  0
    1.5827    0.4215   -2.1747 H   0  0  0  0  0  0  0  0  0  0  0  0
    0.7682   -1.0450   -1.6745 H   0  0  0  0  0  0  0  0  0  0  0  0
   -3.7003   -2.5601   -1.6836 H   0  0  0  0  0  0  0  0  0  0  0  0
   -4.0679   -0.9229   -2.3108 H   0  0  0  0  0  0  0  0  0  0  0  0
   -5.3781   -1.9825   -1.7607 H   0  0  0  0  0  0  0  0  0  0  0  0
    3.4566    1.4128   -0.6645 H   0  0  0  0  0  0  0  0  0  0  0  0
    1.9353   -2.6092   -0.2401 H   0  0  0  0  0  0  0  0  0  0  0  0
    5.4672    0.6790    0.5891 H   0  0  0  0  0  0  0  0  0  0  0  0
    4.0290   -3.1583    0.9891 H   0  0  0  0  0  0  0  0  0  0  0  0
  1  8  1  0  0  0  0
  1 12  1  0  0  0  0
  2 11  2  0  0  0  0
  3 14  2  0  0  0  0
  4  9  1  0  0  0  0
  4 10  1  0  0  0  0
  4 14  1  0  0  0  0
  5  7  1  0  0  0  0
  5 11  1  0  0  0  0
  5 13  1  0  0  0  0
  6 19  2  0  0  0  0
  6 20  1  0  0  0  0
  7  8  1  0  0  0  0
  7  9  1  0  0  0  0
  7 21  1  0  0  0  0
  8 10  1  0  0  0  0
  8 22  1  0  0  0  0
  9 23  1  0  0  0  0
  9 24  1  0  0  0  0
 10 25  1  0  0  0  0
 10 26  1  0  0  0  0
 11 12  1  0  0  0  0
 12 27  1  0  0  0  0
 12 28  1  0  0  0  0
 13 15  1  0  0  0  0
 13 29  1  0  0  0  0
 13 30  1  0  0  0  0
 14 16  1  0  0  0  0
 15 17  2  0  0  0  0
 15 18  1  0  0  0  0
 16 31  1  0  0  0  0
 16 32  1  0  0  0  0
 16 33  1  0  0  0  0
 17 19  1  0  0  0  0
 17 34  1  0  0  0  0
 18 20  2  0  0  0  0
 18 35  1  0  0  0  0
 19 36  1  0  0  0  0
 20 37  1  0  0  0  0
M  END
> <PUBCHEM_COMPOUND_CID>
56775249

> <PUBCHEM_CONFORMER_RMSD>
0.6

> <PUBCHEM_CONFORMER_DIVERSEORDER>
1
39
29
37
15
35
27
17
8
25
32
30
21
16
33
40
12
38
28
18
20
24
23
9
10
6
26
22
19
5
7
2
11
41
4
3
14
13
31
34
36

> <PUBCHEM_MMFF94_PARTIAL_CHARGES>
24
1 -0.56
10 0.3
11 0.57
12 0.34
13 0.44
14 0.57
15 -0.14
16 0.06
17 -0.15
18 -0.15
19 0.16
2 -0.57
20 0.16
3 -0.57
34 0.15
35 0.15
36 0.15
37 0.15
4 -0.66
5 -0.66
6 -0.62
7 0.3
8 0.28
9 0.3

> <PUBCHEM_EFFECTIVE_ROTOR_COUNT>
4.2

> <PUBCHEM_PHARMACOPHORE_FEATURES>
7
1 1 acceptor
1 2 acceptor
1 3 acceptor
1 6 acceptor
5 4 7 8 9 10 rings
6 1 5 7 8 11 12 rings
6 6 15 17 18 19 20 rings

> <PUBCHEM_HEAVY_ATOM_COUNT>
20

> <PUBCHEM_ATOM_DEF_STEREO_COUNT>
2

> <PUBCHEM_ATOM_UDEF_STEREO_COUNT>
0

> <PUBCHEM_BOND_DEF_STEREO_COUNT>
0

> <PUBCHEM_BOND_UDEF_STEREO_COUNT>
0

> <PUBCHEM_ISOTOPIC_ATOM_COUNT>
0

> <PUBCHEM_COMPONENT_COUNT>
1

> <PUBCHEM_CACTVS_TAUTO_COUNT>
2

> <PUBCHEM_CONFORMER_ID>
0362525100000001

> <PUBCHEM_MMFF94_ENERGY>
53.6869

> <PUBCHEM_FEATURE_SELFOVERLAP>
35.724

> <PUBCHEM_SHAPE_FINGERPRINT>
10062212 137 18343589547060891603
10366900 7 18408611366298332242
10447042 23 18334287682705662974
10681291 71 9655576335397549674
11045515 52 18260542320954620141
11265709 11 18411421708679847989
11552529 35 17985827034557496682
11578080 2 18058994156029737977
11796584 16 17385719223030409771
12363563 72 18114190704847794626
12553582 1 18265355986923816798
13004483 165 18339067203542392887
13083527 12 18271239516709919636
13134695 92 18261113031834824197
13544653 18 18260832587671070718
13583140 156 17202183133052824610
14178342 30 17986407597897401049
14429115 67 18339645542479998750
14787075 74 17987519372079164448
17492 89 18267303119228212490
17834072 14 18333726905630880700
1813 80 18410586075584616663
18186145 218 9943519679338550498
18222031 100 18343868831240401758
200 152 18260828189445354382
204376 136 9871751299650060501
20626108 58 17916576687116238543
20645477 70 17895196670111923130
20671657 53 18187367644598605701
21069387 34 17604156955883819142
21250096 35 18410290324226661199
21296965 67 18408039597969949845
22079108 93 13470397890184994247
22112679 90 17915765191589627665
23388829 49 18341903995060511701
23402539 116 18410569557130158078
23419403 2 17985800770643252993
23557571 272 16844749563530932665
23559900 14 18115027549245181712
25147074 1 18267608903730153625
2748010 2 17114980715540889773
3009799 131 18335125489154118661
439807 62 18052528062061238351
5104073 3 18198614437992547482
5161694 15 15574718010044560478
5283173 99 18042954394314205837
6442390 28 15338832110243091606
7097593 13 17759524370445060842
7471813 234 18411976992132639349
90316 7 18270975522218481401
9882013 296 17989207032064487130

> <PUBCHEM_SHAPE_MULTIPOLES>
379.04
9.37
2.53
1.25
0.3
1.42
0.05
-7.15
-1.11
-0.22
0.18
0.61
-0.01
-1.37

> <PUBCHEM_SHAPE_SELFOVERLAP>
808.098

> <PUBCHEM_SHAPE_VOLUME>
208.1

> <PUBCHEM_COORDINATE_TYPE>
2
5
10

$$$$
