11882049
  -OEChem-12032416123D

 75 78  0     1  0  0  0  0  0999 V2000
   -0.3757    0.4455   -0.4662 O   0  0  0  0  0  0  0  0  0  0  0  0
   -3.3061   -1.0193    0.7335 O   0  0  0  0  0  0  0  0  0  0  0  0
    4.0282   -1.1600    1.4764 O   0  0  0  0  0  0  0  0  0  0  0  0
    0.4261    4.1603    2.1104 O   0  0  0  0  0  0  0  0  0  0  0  0
   -6.5345    0.6762   -1.5406 O   0  0  0  0  0  0  0  0  0  0  0  0
    8.4445    0.0173    0.3079 O   0  0  0  0  0  0  0  0  0  0  0  0
   -1.1132   -1.6061    1.1443 N   0  0  0  0  0  0  0  0  0  0  0  0
    1.9658   -1.2636    0.4361 N   0  0  0  0  0  0  0  0  0  0  0  0
   -0.9651    1.9774    1.1845 N   0  0  0  0  0  0  0  0  0  0  0  0
   -3.1209   -3.5097   -1.0397 N   0  0  0  0  0  0  0  0  0  0  0  0
    3.7863   -0.5688   -0.7826 N   0  0  0  0  0  0  0  0  0  0  0  0
    0.8363    4.7427   -0.0735 N   0  0  0  0  0  0  0  0  0  0  0  0
    1.2229   -1.7295    1.5795 C   0  0  1  0  0  0  0  0  0  0  0  0
   -0.7473   -0.3377    1.7584 C   0  0  1  0  0  0  0  0  0  0  0  0
    0.6205   -0.5807    2.3933 C   0  0  0  0  0  0  0  0  0  0  0  0
    0.0062   -2.5506    1.1658 C   0  0  0  0  0  0  0  0  0  0  0  0
   -0.6776    0.7155    0.6933 C   0  0  0  0  0  0  0  0  0  0  0  0
   -2.4181   -1.8726    0.7201 C   0  0  0  0  0  0  0  0  0  0  0  0
   -2.6773   -3.2180    0.2238 C   0  0  0  0  0  0  0  0  0  0  0  0
   -0.9441    3.1680    0.3659 C   0  0  1  0  0  0  0  0  0  0  0  0
    3.3427   -1.0074    0.4681 C   0  0  0  0  0  0  0  0  0  0  0  0
   -2.2919    3.8985    0.3706 C   0  0  0  0  0  0  0  0  0  0  0  0
   -2.5328   -4.4064    0.9051 C   0  0  0  0  0  0  0  0  0  0  0  0
    0.1500    4.0710    0.9164 C   0  0  0  0  0  0  0  0  0  0  0  0
   -3.2610   -4.8663   -1.1753 C   0  0  0  0  0  0  0  0  0  0  0  0
   -2.9023   -5.4492    0.0199 C   0  0  0  0  0  0  0  0  0  0  0  0
   -3.4232    3.0395   -0.1395 C   0  0  0  0  0  0  0  0  0  0  0  0
   -3.4019   -2.5470   -2.0821 C   0  0  0  0  0  0  0  0  0  0  0  0
    5.1012   -0.2089   -1.1602 C   0  0  0  0  0  0  0  0  0  0  0  0
   -4.1543    2.2506    0.7487 C   0  0  0  0  0  0  0  0  0  0  0  0
   -3.7378    3.0343   -1.4985 C   0  0  0  0  0  0  0  0  0  0  0  0
    6.1371   -0.2740   -0.2283 C   0  0  0  0  0  0  0  0  0  0  0  0
    5.3617    0.2106   -2.4647 C   0  0  0  0  0  0  0  0  0  0  0  0
   -5.2000    1.4565    0.2779 C   0  0  0  0  0  0  0  0  0  0  0  0
   -4.7834    2.2402   -1.9692 C   0  0  0  0  0  0  0  0  0  0  0  0
   -5.5145    1.4513   -1.0810 C   0  0  0  0  0  0  0  0  0  0  0  0
    7.4335    0.0806   -0.6010 C   0  0  0  0  0  0  0  0  0  0  0  0
    6.6581    0.5652   -2.8373 C   0  0  0  0  0  0  0  0  0  0  0  0
    7.6941    0.5003   -1.9054 C   0  0  0  0  0  0  0  0  0  0  0  0
   -7.2405   -0.1056   -0.5784 C   0  0  0  0  0  0  0  0  0  0  0  0
    8.1084   -0.4202    1.6238 C   0  0  0  0  0  0  0  0  0  0  0  0
    1.9015   -2.3286    2.1967 H   0  0  0  0  0  0  0  0  0  0  0  0
   -1.5024   -0.0691    2.5061 H   0  0  0  0  0  0  0  0  0  0  0  0
    1.2558    0.3109    2.4198 H   0  0  0  0  0  0  0  0  0  0  0  0
    0.4733   -0.9212    3.4262 H   0  0  0  0  0  0  0  0  0  0  0  0
   -0.2099   -3.2964    1.9375 H   0  0  0  0  0  0  0  0  0  0  0  0
    0.1113   -3.0502    0.1978 H   0  0  0  0  0  0  0  0  0  0  0  0
    1.4571   -1.0505   -0.4165 H   0  0  0  0  0  0  0  0  0  0  0  0
   -1.1596    2.0909    2.1755 H   0  0  0  0  0  0  0  0  0  0  0  0
   -0.6896    2.8810   -0.6619 H   0  0  0  0  0  0  0  0  0  0  0  0
   -2.5334    4.2437    1.3854 H   0  0  0  0  0  0  0  0  0  0  0  0
   -2.2254    4.8129   -0.2338 H   0  0  0  0  0  0  0  0  0  0  0  0
   -2.2142   -4.5212    1.9319 H   0  0  0  0  0  0  0  0  0  0  0  0
    3.0855   -0.4970   -1.5159 H   0  0  0  0  0  0  0  0  0  0  0  0
   -3.6038   -5.3069   -2.1019 H   0  0  0  0  0  0  0  0  0  0  0  0
   -2.9104   -6.5092    0.2313 H   0  0  0  0  0  0  0  0  0  0  0  0
   -3.5714   -3.0701   -3.0267 H   0  0  0  0  0  0  0  0  0  0  0  0
   -2.5427   -1.8789   -2.1829 H   0  0  0  0  0  0  0  0  0  0  0  0
   -4.2972   -1.9875   -1.7996 H   0  0  0  0  0  0  0  0  0  0  0  0
   -3.9202    2.2467    1.8100 H   0  0  0  0  0  0  0  0  0  0  0  0
   -3.1736    3.6428   -2.2001 H   0  0  0  0  0  0  0  0  0  0  0  0
    1.6023    5.3668    0.1568 H   0  0  0  0  0  0  0  0  0  0  0  0
    0.6005    4.6567   -1.0568 H   0  0  0  0  0  0  0  0  0  0  0  0
    5.9428   -0.5967    0.7779 H   0  0  0  0  0  0  0  0  0  0  0  0
    4.5635    0.2657   -3.2006 H   0  0  0  0  0  0  0  0  0  0  0  0
   -5.7267    0.8688    1.0220 H   0  0  0  0  0  0  0  0  0  0  0  0
   -5.0232    2.2393   -3.0289 H   0  0  0  0  0  0  0  0  0  0  0  0
    6.8612    0.8920   -3.8530 H   0  0  0  0  0  0  0  0  0  0  0  0
    8.7020    0.7779   -2.2016 H   0  0  0  0  0  0  0  0  0  0  0  0
   -6.5876   -0.8482   -0.1071 H   0  0  0  0  0  0  0  0  0  0  0  0
   -7.7505    0.5256    0.1573 H   0  0  0  0  0  0  0  0  0  0  0  0
   -8.0163   -0.6588   -1.1177 H   0  0  0  0  0  0  0  0  0  0  0  0
    7.4142    0.2704    2.1149 H   0  0  0  0  0  0  0  0  0  0  0  0
    7.7455   -1.4537    1.6263 H   0  0  0  0  0  0  0  0  0  0  0  0
    9.0327   -0.4090    2.2111 H   0  0  0  0  0  0  0  0  0  0  0  0
  1 17  2  0  0  0  0
  2 18  2  0  0  0  0
  3 21  2  0  0  0  0
  4 24  2  0  0  0  0
  5 36  1  0  0  0  0
  5 40  1  0  0  0  0
  6 37  1  0  0  0  0
  6 41  1  0  0  0  0
  7 14  1  0  0  0  0
  7 16  1  0  0  0  0
  7 18  1  0  0  0  0
  8 13  1  0  0  0  0
  8 21  1  0  0  0  0
  8 48  1  0  0  0  0
  9 17  1  0  0  0  0
  9 20  1  0  0  0  0
  9 49  1  0  0  0  0
 10 19  1  0  0  0  0
 10 25  1  0  0  0  0
 10 28  1  0  0  0  0
 11 21  1  0  0  0  0
 11 29  1  0  0  0  0
 11 54  1  0  0  0  0
 12 24  1  0  0  0  0
 12 62  1  0  0  0  0
 12 63  1  0  0  0  0
 13 15  1  0  0  0  0
 13 16  1  0  0  0  0
 13 42  1  0  0  0  0
 14 15  1  0  0  0  0
 14 17  1  0  0  0  0
 14 43  1  0  0  0  0
 15 44  1  0  0  0  0
 15 45  1  0  0  0  0
 16 46  1  0  0  0  0
 16 47  1  0  0  0  0
 18 19  1  0  0  0  0
 19 23  2  0  0  0  0
 20 22  1  0  0  0  0
 20 24  1  0  0  0  0
 20 50  1  0  0  0  0
 22 27  1  0  0  0  0
 22 51  1  0  0  0  0
 22 52  1  0  0  0  0
 23 26  1  0  0  0  0
 23 53  1  0  0  0  0
 25 26  2  0  0  0  0
 25 55  1  0  0  0  0
 26 56  1  0  0  0  0
 27 30  2  0  0  0  0
 27 31  1  0  0  0  0
 28 57  1  0  0  0  0
 28 58  1  0  0  0  0
 28 59  1  0  0  0  0
 29 32  2  0  0  0  0
 29 33  1  0  0  0  0
 30 34  1  0  0  0  0
 30 60  1  0  0  0  0
 31 35  2  0  0  0  0
 31 61  1  0  0  0  0
 32 37  1  0  0  0  0
 32 64  1  0  0  0  0
 33 38  2  0  0  0  0
 33 65  1  0  0  0  0
 34 36  2  0  0  0  0
 34 66  1  0  0  0  0
 35 36  1  0  0  0  0
 35 67  1  0  0  0  0
 37 39  2  0  0  0  0
 38 39  1  0  0  0  0
 38 68  1  0  0  0  0
 39 69  1  0  0  0  0
 40 70  1  0  0  0  0
 40 71  1  0  0  0  0
 40 72  1  0  0  0  0
 41 73  1  0  0  0  0
 41 74  1  0  0  0  0
 41 75  1  0  0  0  0
M  END
> <PUBCHEM_COMPOUND_CID>
11882049

> <PUBCHEM_CONFORMER_RMSD>
1.4

> <PUBCHEM_CONFORMER_DIVERSEORDER>
1
40
78
83
18
73
68
24
53
46
29
20
88
6
43
58
15
90
33
44
84
72
17
89
10
48
19
57
9
27
91
61
80
30
35
56
22
38
25
71
86
26
95
87
11
96
63
16
81
52
97
39
79
34
42
69
70
45
77
12
14
60
47
51
59
54
31
55
76
74
75
85
92
23
21
2
28
37
49
94
66
36
7
65
41
82
4
67
3
62
64
50
32
93
8
13
5

> <PUBCHEM_MMFF94_PARTIAL_CHARGES>
56
1 -0.57
10 0.05
11 -0.55
12 -0.8
13 0.3
14 0.36
16 0.3
17 0.57
18 0.71
19 -0.24
2 -0.57
20 0.36
21 0.69
22 0.14
23 -0.15
24 0.57
25 -0.3
26 -0.15
27 -0.14
28 0.26
29 0.12
3 -0.57
30 -0.15
31 -0.15
32 -0.15
33 -0.15
34 -0.15
35 -0.15
36 0.08
37 0.08
38 -0.15
39 -0.15
4 -0.57
40 0.28
41 0.28
48 0.37
49 0.37
5 -0.36
53 0.15
54 0.37
55 0.15
56 0.15
6 -0.36
60 0.15
61 0.15
62 0.37
63 0.37
64 0.15
65 0.15
66 0.15
67 0.15
68 0.15
69 0.15
7 -0.66
8 -0.73
9 -0.73

> <PUBCHEM_EFFECTIVE_ROTOR_COUNT>
15

> <PUBCHEM_PHARMACOPHORE_FEATURES>
15
1 1 acceptor
1 10 cation
1 11 donor
1 12 donor
1 2 acceptor
1 3 acceptor
1 4 acceptor
1 5 acceptor
1 6 acceptor
1 8 donor
1 9 donor
5 10 19 23 25 26 rings
5 7 13 14 15 16 rings
6 27 30 31 34 35 36 rings
6 29 32 33 37 38 39 rings

> <PUBCHEM_HEAVY_ATOM_COUNT>
41

> <PUBCHEM_ATOM_DEF_STEREO_COUNT>
3

> <PUBCHEM_ATOM_UDEF_STEREO_COUNT>
0

> <PUBCHEM_BOND_DEF_STEREO_COUNT>
0

> <PUBCHEM_BOND_UDEF_STEREO_COUNT>
0

> <PUBCHEM_ISOTOPIC_ATOM_COUNT>
0

> <PUBCHEM_COMPONENT_COUNT>
1

> <PUBCHEM_CACTVS_TAUTO_COUNT>
12

> <PUBCHEM_CONFORMER_ID>
00B54E4100000001

> <PUBCHEM_MMFF94_ENERGY>
125.052

> <PUBCHEM_FEATURE_SELFOVERLAP>
76.177

> <PUBCHEM_SHAPE_FINGERPRINT>
11200772 71 18333448742047899830
11513181 2 17766545134382107453
12788726 201 18335990791756967362
13690498 29 18266748059113675231
13692115 27 18126005112071400107
13911987 19 18264485092817244781
14556957 393 18116164444463682886
14767858 380 18334858273089639493
15328829 1 17749380426522405194
15444296 8 18198911503363380887
15538507 32 18410293614198548828
15876981 60 18263655107144851182
15975801 100 17822839893385318269
19319366 153 17749945549629506339
255183 451 17766845305194299767
437795 70 18059558236070949383
5171179 24 18125438858812776792
6700243 42 17913522201144276742

> <PUBCHEM_SHAPE_MULTIPOLES>
778.66
18.76
6.6
2.24
38.86
2.37
0.64
-2.19
10.34
-11.57
-0.51
2.02
-0.16
-0.78

> <PUBCHEM_SHAPE_SELFOVERLAP>
1664.441

> <PUBCHEM_SHAPE_VOLUME>
431.5

> <PUBCHEM_COORDINATE_TYPE>
2
5
10

$$$$
