26742270
  -OEChem-12032416183D

 54 56  0     1  0  0  0  0  0999 V2000
   -3.5329   -3.0833    1.2735 O   0  0  0  0  0  0  0  0  0  0  0  0
   -2.8753    2.7606    0.4535 O   0  0  0  0  0  0  0  0  0  0  0  0
   -0.5307   -2.7424   -1.9140 O   0  0  0  0  0  0  0  0  0  0  0  0
    4.9166   -1.8932    1.1924 O   0  0  0  0  0  0  0  0  0  0  0  0
   -3.3864    0.8091   -0.6754 N   0  0  0  0  0  0  0  0  0  0  0  0
   -1.3095   -1.5932   -0.0576 N   0  0  0  0  0  0  0  0  0  0  0  0
   -1.1433    1.5304   -0.4863 N   0  0  0  0  0  0  0  0  0  0  0  0
    4.7459    1.9093   -0.9094 N   0  0  0  0  0  0  0  0  0  0  0  0
   -2.7103   -1.6051   -0.4327 C   0  0  1  0  0  0  0  0  0  0  0  0
   -3.5680   -1.7162    0.8412 C   0  0  1  0  0  0  0  0  0  0  0  0
   -5.0430   -1.3329    0.6861 C   0  0  0  0  0  0  0  0  0  0  0  0
   -3.0279   -0.4342   -1.3712 C   0  0  0  0  0  0  0  0  0  0  0  0
   -5.2917    0.1734    0.7922 C   0  0  0  0  0  0  0  0  0  0  0  0
   -4.8165    0.9784   -0.4111 C   0  0  0  0  0  0  0  0  0  0  0  0
   -2.4818    1.7820   -0.1860 C   0  0  0  0  0  0  0  0  0  0  0  0
   -0.3315   -2.1720   -0.8447 C   0  0  0  0  0  0  0  0  0  0  0  0
    1.0518   -2.0982   -0.3081 C   0  0  0  0  0  0  0  0  0  0  0  0
   -0.0110    2.3100   -0.1391 C   0  0  0  0  0  0  0  0  0  0  0  0
    2.1401   -2.1114   -1.1804 C   0  0  0  0  0  0  0  0  0  0  0  0
    1.2622   -2.0162    1.0685 C   0  0  0  0  0  0  0  0  0  0  0  0
    1.2644    1.9008   -0.5285 C   0  0  0  0  0  0  0  0  0  0  0  0
   -0.1729    3.4870    0.5919 C   0  0  0  0  0  0  0  0  0  0  0  0
    3.4390   -2.0420   -0.6764 C   0  0  0  0  0  0  0  0  0  0  0  0
    2.5610   -1.9470    1.5725 C   0  0  0  0  0  0  0  0  0  0  0  0
    3.6494   -1.9598    0.7001 C   0  0  0  0  0  0  0  0  0  0  0  0
    2.3779    2.6683   -0.1871 C   0  0  0  0  0  0  0  0  0  0  0  0
    0.9406    4.2548    0.9331 C   0  0  0  0  0  0  0  0  0  0  0  0
    2.2160    3.8454    0.5439 C   0  0  0  0  0  0  0  0  0  0  0  0
    3.6846    2.2494   -0.5856 C   0  0  0  0  0  0  0  0  0  0  0  0
    5.9830   -1.9119    0.2446 C   0  0  0  0  0  0  0  0  0  0  0  0
   -2.8550   -2.5222   -1.0204 H   0  0  0  0  0  0  0  0  0  0  0  0
   -3.1229   -1.1252    1.6518 H   0  0  0  0  0  0  0  0  0  0  0  0
   -5.6237   -1.8175    1.4822 H   0  0  0  0  0  0  0  0  0  0  0  0
   -5.4489   -1.7312   -0.2519 H   0  0  0  0  0  0  0  0  0  0  0  0
   -2.2070   -0.2448   -2.0705 H   0  0  0  0  0  0  0  0  0  0  0  0
   -3.8779   -0.7124   -2.0073 H   0  0  0  0  0  0  0  0  0  0  0  0
   -6.3697    0.3397    0.9079 H   0  0  0  0  0  0  0  0  0  0  0  0
   -4.8185    0.5575    1.7045 H   0  0  0  0  0  0  0  0  0  0  0  0
   -5.3770    0.6989   -1.3108 H   0  0  0  0  0  0  0  0  0  0  0  0
   -5.0341    2.0373   -0.2319 H   0  0  0  0  0  0  0  0  0  0  0  0
   -1.0520   -1.0422    0.7548 H   0  0  0  0  0  0  0  0  0  0  0  0
   -3.9635   -3.1282    2.1443 H   0  0  0  0  0  0  0  0  0  0  0  0
   -0.9154    0.6854   -0.9971 H   0  0  0  0  0  0  0  0  0  0  0  0
    1.9947   -2.1693   -2.2560 H   0  0  0  0  0  0  0  0  0  0  0  0
    0.4443   -2.0330    1.7828 H   0  0  0  0  0  0  0  0  0  0  0  0
    1.3884    0.9863   -1.1040 H   0  0  0  0  0  0  0  0  0  0  0  0
   -1.1207    3.8763    0.9328 H   0  0  0  0  0  0  0  0  0  0  0  0
    4.2380   -2.0545   -1.4097 H   0  0  0  0  0  0  0  0  0  0  0  0
    2.7194   -1.8894    2.6459 H   0  0  0  0  0  0  0  0  0  0  0  0
    0.8160    5.1717    1.5022 H   0  0  0  0  0  0  0  0  0  0  0  0
    3.0742    4.4546    0.8178 H   0  0  0  0  0  0  0  0  0  0  0  0
    6.9188   -1.8511    0.8098 H   0  0  0  0  0  0  0  0  0  0  0  0
    5.9509   -1.0384   -0.4152 H   0  0  0  0  0  0  0  0  0  0  0  0
    6.0078   -2.8534   -0.3145 H   0  0  0  0  0  0  0  0  0  0  0  0
  1 10  1  0  0  0  0
  1 42  1  0  0  0  0
  2 15  2  0  0  0  0
  3 16  2  0  0  0  0
  4 25  1  0  0  0  0
  4 30  1  0  0  0  0
  5 12  1  0  0  0  0
  5 14  1  0  0  0  0
  5 15  1  0  0  0  0
  6  9  1  0  0  0  0
  6 16  1  0  0  0  0
  6 41  1  0  0  0  0
  7 15  1  0  0  0  0
  7 18  1  0  0  0  0
  7 43  1  0  0  0  0
  8 29  3  0  0  0  0
  9 10  1  0  0  0  0
  9 12  1  0  0  0  0
  9 31  1  0  0  0  0
 10 11  1  0  0  0  0
 10 32  1  0  0  0  0
 11 13  1  0  0  0  0
 11 33  1  0  0  0  0
 11 34  1  0  0  0  0
 12 35  1  0  0  0  0
 12 36  1  0  0  0  0
 13 14  1  0  0  0  0
 13 37  1  0  0  0  0
 13 38  1  0  0  0  0
 14 39  1  0  0  0  0
 14 40  1  0  0  0  0
 16 17  1  0  0  0  0
 17 19  2  0  0  0  0
 17 20  1  0  0  0  0
 18 21  1  0  0  0  0
 18 22  2  0  0  0  0
 19 23  1  0  0  0  0
 19 44  1  0  0  0  0
 20 24  2  0  0  0  0
 20 45  1  0  0  0  0
 21 26  2  0  0  0  0
 21 46  1  0  0  0  0
 22 27  1  0  0  0  0
 22 47  1  0  0  0  0
 23 25  2  0  0  0  0
 23 48  1  0  0  0  0
 24 25  1  0  0  0  0
 24 49  1  0  0  0  0
 26 28  1  0  0  0  0
 26 29  1  0  0  0  0
 27 28  2  0  0  0  0
 27 50  1  0  0  0  0
 28 51  1  0  0  0  0
 30 52  1  0  0  0  0
 30 53  1  0  0  0  0
 30 54  1  0  0  0  0
M  END
> <PUBCHEM_COMPOUND_CID>
26742270

> <PUBCHEM_CONFORMER_RMSD>
1

> <PUBCHEM_CONFORMER_DIVERSEORDER>
1
21
45
93
42
222
95
220
123
47
116
212
151
49
139
167
110
184
94
213
39
33
218
81
58
158
22
4
210
76
71
67
64
136
225
205
200
182
20
189
131
191
234
168
36
111
160
82
161
198
175
174
192
179
97
193
102
79
55
130
89
53
84
172
230
214
98
163
217
178
166
124
233
117
87
13
144
232
216
106
173
115
135
228
96
170
56
176
152
201
209
99
183
181
169
142
145
38
88
73
194
63
226
109
223
127
229
100
25
188
153
5
40
112
150
12
80
65
26
138
103
204
180
119
134
78
190
207
113
156
8
185
137
114
121
143
208
35
148
231
140
7
70
2
54
197
51
122
118
52
37
90
11
133
149
23
30
17
83
75
203
162
147
155
74
48
101
68
146
224
60
61
202
86
154
92
29
159
44
129
199
211
132
107
69
31
177
196
46
6
66
164
19
43
62
27
104
215
221
227
195
72
3
157
91
105
50
57
15
77
34
141
85
128
126
59
41
9
186
171
28
14
187
206
32
125
165
16
18
219
10
108
24
120

> <PUBCHEM_MMFF94_PARTIAL_CHARGES>
39
1 -0.68
10 0.28
12 0.3
14 0.3
15 0.69
16 0.54
17 0.09
18 0.12
19 -0.15
2 -0.57
20 -0.15
21 -0.15
22 -0.15
23 -0.15
24 -0.15
25 0.08
26 0.07
27 -0.15
28 -0.15
29 0.48
3 -0.57
30 0.28
4 -0.36
41 0.37
42 0.4
43 0.37
44 0.15
45 0.15
46 0.15
47 0.15
48 0.15
49 0.15
5 -0.66
50 0.15
51 0.15
6 -0.73
7 -0.55
8 -0.56
9 0.3

> <PUBCHEM_EFFECTIVE_ROTOR_COUNT>
8.4

> <PUBCHEM_PHARMACOPHORE_FEATURES>
11
1 1 acceptor
1 1 donor
1 2 acceptor
1 3 acceptor
1 4 acceptor
1 6 donor
1 7 donor
1 8 acceptor
6 17 19 20 23 24 25 rings
6 18 21 22 26 27 28 rings
7 5 9 10 11 12 13 14 rings

> <PUBCHEM_HEAVY_ATOM_COUNT>
30

> <PUBCHEM_ATOM_DEF_STEREO_COUNT>
2

> <PUBCHEM_ATOM_UDEF_STEREO_COUNT>
0

> <PUBCHEM_BOND_DEF_STEREO_COUNT>
0

> <PUBCHEM_BOND_UDEF_STEREO_COUNT>
0

> <PUBCHEM_ISOTOPIC_ATOM_COUNT>
0

> <PUBCHEM_COMPONENT_COUNT>
1

> <PUBCHEM_CACTVS_TAUTO_COUNT>
4

> <PUBCHEM_CONFORMER_ID>
01980DFE00000001

> <PUBCHEM_MMFF94_ENERGY>
86.6431

> <PUBCHEM_FEATURE_SELFOVERLAP>
55.825

> <PUBCHEM_SHAPE_FINGERPRINT>
10675989 125 16171988858556609453
1100329 8 18265333910839420664
12422481 6 18194371555601298872
12553582 1 18124883347879901117
12633257 1 18337119969198681771
12788726 201 18048307856109959074
13140716 1 18339080384828724832
14020679 6 17972900068245545169
140371 6 18125162632576005141
14363568 33 18267592496954446552
14955137 171 18340771455387703414
15927050 60 17980762959030887164
15968369 153 18272647961889389244
18336668 15 18115026299588917084
19591789 44 17979077416068749949
20721686 56 18335982055513983491
21033648 29 17630868444082632899
21796203 349 18195558967565797488
3298306 158 18265332991790298397
338550 245 18334575789354601740
392239 28 18335990770240088531
42626532 9 17834707931380211862
463206 1 18337957796648005992
57091435 65 18338510975333992400
59755656 215 18118122704721308255

> <PUBCHEM_SHAPE_MULTIPOLES>
573.98
10.41
5.54
1.28
0.87
4.42
0.02
-4.35
-1.6
-3.52
-0.9
-0.09
-0.72
-0.24

> <PUBCHEM_SHAPE_SELFOVERLAP>
1215.215

> <PUBCHEM_SHAPE_VOLUME>
314.8

> <PUBCHEM_COORDINATE_TYPE>
2
5
10

$$$$
