38027539
  -OEChem-12032416143D

 66 67  0     1  0  0  0  0  0999 V2000
    6.0741    0.6485   -0.9657 F   0  0  0  0  0  0  0  0  0  0  0  0
   -0.6486   -3.7735    1.6354 O   0  0  0  0  0  0  0  0  0  0  0  0
   -0.3689    3.0833   -1.4298 O   0  0  0  0  0  0  0  0  0  0  0  0
   -2.1737    2.4396   -0.1151 N   0  0  0  0  0  0  0  0  0  0  0  0
    0.6887   -1.9665    1.0463 N   0  0  0  0  0  0  0  0  0  0  0  0
   -0.2691    3.2959    0.8787 N   0  0  0  0  0  0  0  0  0  0  0  0
   -2.1459   -0.3748   -1.1744 C   0  0  1  0  0  0  0  0  0  0  0  0
   -3.3949    0.5266   -1.0083 C   0  0  1  0  0  0  0  0  0  0  0  0
   -2.4151   -1.7748   -0.6019 C   0  0  0  0  0  0  0  0  0  0  0  0
   -2.7904   -1.7312    0.8914 C   0  0  2  0  0  0  0  0  0  0  0  0
   -1.7169   -0.4878   -2.6407 C   0  0  0  0  0  0  0  0  0  0  0  0
   -3.8335   -0.6705    1.1791 C   0  0  0  0  0  0  0  0  0  0  0  0
   -4.0994    0.3230    0.3125 C   0  0  0  0  0  0  0  0  0  0  0  0
   -3.0339    2.0075   -1.1716 C   0  0  0  0  0  0  0  0  0  0  0  0
   -1.5487   -1.5316    1.7675 C   0  0  0  0  0  0  0  0  0  0  0  0
   -0.2345   -0.8343   -2.7362 C   0  0  0  0  0  0  0  0  0  0  0  0
   -2.5639   -1.5299   -3.3640 C   0  0  0  0  0  0  0  0  0  0  0  0
   -4.5974   -0.8038    2.4671 C   0  0  0  0  0  0  0  0  0  0  0  0
   -0.4823   -2.5660    1.4863 C   0  0  0  0  0  0  0  0  0  0  0  0
   -0.8867    2.9527   -0.3214 C   0  0  0  0  0  0  0  0  0  0  0  0
    1.8773   -2.7134    0.7042 C   0  0  0  0  0  0  0  0  0  0  0  0
    1.0636    3.8480    0.9428 C   0  0  0  0  0  0  0  0  0  0  0  0
    2.9959   -1.8164    0.2589 C   0  0  0  0  0  0  0  0  0  0  0  0
    2.0961    2.7311    1.0225 C   0  0  0  0  0  0  0  0  0  0  0  0
    1.1906    4.8025    2.1236 C   0  0  0  0  0  0  0  0  0  0  0  0
    3.1322   -1.4882   -1.0900 C   0  0  0  0  0  0  0  0  0  0  0  0
    3.8995   -1.3117    1.1942 C   0  0  0  0  0  0  0  0  0  0  0  0
    4.1717   -0.6551   -1.5036 C   0  0  0  0  0  0  0  0  0  0  0  0
    4.9392   -0.4788    0.7805 C   0  0  0  0  0  0  0  0  0  0  0  0
    5.0752   -0.1504   -0.5683 C   0  0  0  0  0  0  0  0  0  0  0  0
   -1.3159    0.0622   -0.6056 H   0  0  0  0  0  0  0  0  0  0  0  0
   -4.1290    0.2829   -1.7866 H   0  0  0  0  0  0  0  0  0  0  0  0
   -1.5754   -2.4533   -0.7785 H   0  0  0  0  0  0  0  0  0  0  0  0
   -3.2798   -2.2293   -1.1039 H   0  0  0  0  0  0  0  0  0  0  0  0
   -3.2231   -2.7129    1.1304 H   0  0  0  0  0  0  0  0  0  0  0  0
   -1.8495    0.4711   -3.1521 H   0  0  0  0  0  0  0  0  0  0  0  0
   -4.8921    1.0296    0.5504 H   0  0  0  0  0  0  0  0  0  0  0  0
   -3.9381    2.6255   -1.1120 H   0  0  0  0  0  0  0  0  0  0  0  0
   -2.5796    2.2133   -2.1445 H   0  0  0  0  0  0  0  0  0  0  0  0
   -1.8084   -1.6399    2.8282 H   0  0  0  0  0  0  0  0  0  0  0  0
   -1.1563   -0.5135    1.6590 H   0  0  0  0  0  0  0  0  0  0  0  0
   -0.0093   -1.8069   -2.2886 H   0  0  0  0  0  0  0  0  0  0  0  0
    0.3772   -0.0766   -2.2349 H   0  0  0  0  0  0  0  0  0  0  0  0
    0.0832   -0.8730   -3.7839 H   0  0  0  0  0  0  0  0  0  0  0  0
   -2.3170   -2.5583   -3.0802 H   0  0  0  0  0  0  0  0  0  0  0  0
   -2.3707   -1.4645   -4.4420 H   0  0  0  0  0  0  0  0  0  0  0  0
   -3.6377   -1.3669   -3.2329 H   0  0  0  0  0  0  0  0  0  0  0  0
   -5.0777   -1.7860    2.5240 H   0  0  0  0  0  0  0  0  0  0  0  0
   -5.3836   -0.0471    2.5606 H   0  0  0  0  0  0  0  0  0  0  0  0
   -3.9294   -0.6917    3.3263 H   0  0  0  0  0  0  0  0  0  0  0  0
   -2.5340    2.4388    0.8343 H   0  0  0  0  0  0  0  0  0  0  0  0
    0.7207   -0.9559    0.9447 H   0  0  0  0  0  0  0  0  0  0  0  0
    1.6156   -3.4318   -0.0821 H   0  0  0  0  0  0  0  0  0  0  0  0
    2.1743   -3.3060    1.5777 H   0  0  0  0  0  0  0  0  0  0  0  0
   -0.7480    3.0775    1.7473 H   0  0  0  0  0  0  0  0  0  0  0  0
    1.2426    4.4150    0.0212 H   0  0  0  0  0  0  0  0  0  0  0  0
    2.0228    2.0659    0.1550 H   0  0  0  0  0  0  0  0  0  0  0  0
    1.9492    2.1173    1.9184 H   0  0  0  0  0  0  0  0  0  0  0  0
    3.1125    3.1374    1.0500 H   0  0  0  0  0  0  0  0  0  0  0  0
    1.0147    4.2860    3.0739 H   0  0  0  0  0  0  0  0  0  0  0  0
    0.4566    5.6123    2.0483 H   0  0  0  0  0  0  0  0  0  0  0  0
    2.1885    5.2516    2.1589 H   0  0  0  0  0  0  0  0  0  0  0  0
    2.4411   -1.8815   -1.8295 H   0  0  0  0  0  0  0  0  0  0  0  0
    3.8026   -1.5586    2.2481 H   0  0  0  0  0  0  0  0  0  0  0  0
    4.2789   -0.4006   -2.5539 H   0  0  0  0  0  0  0  0  0  0  0  0
    5.6424   -0.0850    1.5084 H   0  0  0  0  0  0  0  0  0  0  0  0
  1 30  1  0  0  0  0
  2 19  2  0  0  0  0
  3 20  2  0  0  0  0
  4 14  1  0  0  0  0
  4 20  1  0  0  0  0
  4 51  1  0  0  0  0
  5 19  1  0  0  0  0
  5 21  1  0  0  0  0
  5 52  1  0  0  0  0
  6 20  1  0  0  0  0
  6 22  1  0  0  0  0
  6 55  1  0  0  0  0
  7  8  1  0  0  0  0
  7  9  1  0  0  0  0
  7 11  1  0  0  0  0
  7 31  1  0  0  0  0
  8 13  1  0  0  0  0
  8 14  1  0  0  0  0
  8 32  1  0  0  0  0
  9 10  1  0  0  0  0
  9 33  1  0  0  0  0
  9 34  1  0  0  0  0
 10 12  1  0  0  0  0
 10 15  1  0  0  0  0
 10 35  1  0  0  0  0
 11 16  1  0  0  0  0
 11 17  1  0  0  0  0
 11 36  1  0  0  0  0
 12 13  2  0  0  0  0
 12 18  1  0  0  0  0
 13 37  1  0  0  0  0
 14 38  1  0  0  0  0
 14 39  1  0  0  0  0
 15 19  1  0  0  0  0
 15 40  1  0  0  0  0
 15 41  1  0  0  0  0
 16 42  1  0  0  0  0
 16 43  1  0  0  0  0
 16 44  1  0  0  0  0
 17 45  1  0  0  0  0
 17 46  1  0  0  0  0
 17 47  1  0  0  0  0
 18 48  1  0  0  0  0
 18 49  1  0  0  0  0
 18 50  1  0  0  0  0
 21 23  1  0  0  0  0
 21 53  1  0  0  0  0
 21 54  1  0  0  0  0
 22 24  1  0  0  0  0
 22 25  1  0  0  0  0
 22 56  1  0  0  0  0
 23 26  2  0  0  0  0
 23 27  1  0  0  0  0
 24 57  1  0  0  0  0
 24 58  1  0  0  0  0
 24 59  1  0  0  0  0
 25 60  1  0  0  0  0
 25 61  1  0  0  0  0
 25 62  1  0  0  0  0
 26 28  1  0  0  0  0
 26 63  1  0  0  0  0
 27 29  2  0  0  0  0
 27 64  1  0  0  0  0
 28 30  2  0  0  0  0
 28 65  1  0  0  0  0
 29 30  1  0  0  0  0
 29 66  1  0  0  0  0
M  END
> <PUBCHEM_COMPOUND_CID>
38027539

> <PUBCHEM_CONFORMER_RMSD>
1

> <PUBCHEM_CONFORMER_DIVERSEORDER>
2
242
212
110
268
209
167
262
122
70
197
271
176
202
222
22
91
270
238
96
23
54
216
229
44
134
28
137
191
31
41
27
109
133
226
266
180
243
61
249
231
220
98
241
245
239
163
124
11
208
204
89
129
194
72
189
60
56
87
258
272
254
136
15
166
97
101
155
217
147
188
114
230
264
273
145
111
173
130
69
1
218
80
115
38
224
200
48
211
85
14
75
39
228
95
6
203
234
257
251
153
236
118
219
253
162
172
112
182
37
18
94
74
103
183
76
151
52
141
195
47
256
8
161
252
65
170
207
77
113
213
255
143
51
244
250
169
150
205
46
198
227
62
125
64
32
106
83
177
73
201
140
59
190
128
19
86
53
179
247
67
45
156
232
127
171
63
135
119
17
5
21
152
186
181
78
68
157
104
260
131
26
185
66
178
269
146
117
24
221
187
108
225
168
40
223
267
196
215
105
36
10
99
58
235
126
199
84
265
165
42
12
100
144
160
174
123
121
3
43
148
164
93
193
237
82
132
246
79
49
92
240
158
90
274
88
4
13
120
55
25
116
263
175
7
154
233
159
149
142
259
184
102
20
107
57
248
192
34
9
214
71
16
261
35
206
139
138
33
29
81
210
30
50

> <PUBCHEM_MMFF94_PARTIAL_CHARGES>
31
1 -0.19
10 0.14
12 -0.28
13 -0.29
14 0.3
15 0.06
18 0.14
19 0.57
2 -0.57
20 0.69
21 0.44
22 0.3
23 -0.14
26 -0.15
27 -0.15
28 -0.15
29 -0.15
3 -0.57
30 0.19
37 0.15
4 -0.73
5 -0.73
51 0.37
52 0.37
55 0.37
6 -0.73
63 0.15
64 0.15
65 0.15
66 0.15
8 0.14

> <PUBCHEM_EFFECTIVE_ROTOR_COUNT>
11.8

> <PUBCHEM_PHARMACOPHORE_FEATURES>
9
1 2 acceptor
1 3 acceptor
1 4 donor
1 5 donor
1 6 donor
3 11 16 17 hydrophobe
3 22 24 25 hydrophobe
6 23 26 27 28 29 30 rings
6 7 8 9 10 12 13 rings

> <PUBCHEM_HEAVY_ATOM_COUNT>
30

> <PUBCHEM_ATOM_DEF_STEREO_COUNT>
3

> <PUBCHEM_ATOM_UDEF_STEREO_COUNT>
0

> <PUBCHEM_BOND_DEF_STEREO_COUNT>
0

> <PUBCHEM_BOND_UDEF_STEREO_COUNT>
0

> <PUBCHEM_ISOTOPIC_ATOM_COUNT>
0

> <PUBCHEM_COMPONENT_COUNT>
1

> <PUBCHEM_CACTVS_TAUTO_COUNT>
6

> <PUBCHEM_CONFORMER_ID>
0244411300000002

> <PUBCHEM_MMFF94_ENERGY>
50.8601

> <PUBCHEM_FEATURE_SELFOVERLAP>
45.719

> <PUBCHEM_SHAPE_FINGERPRINT>
10006869 2 17908142075721394889
12156800 1 17402950635932149805
12539773 59 17617914960314501741
12788726 201 18339929195469105392
13383668 90 13971201226887782144
13402501 40 18335987566231233648
14279260 333 18194122920388365630
14840074 17 17917720101435353908
19319366 153 17974560304315763969
19930381 70 17833253595423639515
20764821 26 18263073482889787200
238918 7 17765135556297051888
35225 105 17977096864629645060
392239 28 18187940481329372011
469060 322 15936991668295961887

> <PUBCHEM_SHAPE_MULTIPOLES>
583.43
9.23
5.06
2.78
9.55
6.8
-1.33
-2.43
0.05
1.27
2.81
-2.17
-1.13
0.97

> <PUBCHEM_SHAPE_SELFOVERLAP>
1188.637

> <PUBCHEM_SHAPE_VOLUME>
340

> <PUBCHEM_COORDINATE_TYPE>
2
5
10

$$$$
