45784368
  -OEChem-12032416333D

 79 82  0     1  0  0  0  0  0999 V2000
   -0.1687    2.1029   -1.4814 O   0  0  0  0  0  0  0  0  0  0  0  0
   -5.2766    2.6397   -0.0005 O   0  0  0  0  0  0  0  0  0  0  0  0
    4.9224   -2.0386    0.5573 O   0  0  0  0  0  0  0  0  0  0  0  0
   -4.6478   -2.1002   -2.0261 O   0  0  0  0  0  0  0  0  0  0  0  0
    4.1029    0.0524    1.1436 N   0  0  0  0  0  0  0  0  0  0  0  0
   -4.5666    1.0840   -1.5675 N   0  0  0  0  0  0  0  0  0  0  0  0
   -0.1539    0.1267    1.7852 C   0  0  1  0  0  0  0  0  0  0  0  0
    0.3658    0.6566    0.4073 C   0  0  2  0  0  0  0  0  0  0  0  0
    1.8989    0.9915    0.4796 C   0  0  1  0  0  0  0  0  0  0  0  0
   -0.5424    1.7963   -0.1372 C   0  0  2  0  0  0  0  0  0  0  0  0
   -1.6347   -0.2994    1.6486 C   0  0  0  0  0  0  0  0  0  0  0  0
    0.6611   -1.1253    2.1839 C   0  0  0  0  0  0  0  0  0  0  0  0
   -2.0368    1.3998   -0.1735 C   0  0  1  0  0  0  0  0  0  0  0  0
    2.7004   -0.2532    0.9540 C   0  0  2  0  0  0  0  0  0  0  0  0
   -2.5337    0.8257    1.1531 C   0  0  0  0  0  0  0  0  0  0  0  0
    2.1600   -0.8681    2.2447 C   0  0  0  0  0  0  0  0  0  0  0  0
   -0.0427    1.1873    2.9096 C   0  0  0  0  0  0  0  0  0  0  0  0
   -2.9280    2.5771   -0.5882 C   0  0  2  0  0  0  0  0  0  0  0  0
    2.4834    1.4919   -0.8522 C   0  0  0  0  0  0  0  0  0  0  0  0
   -2.7589    3.7336    0.3910 C   0  0  0  0  0  0  0  0  0  0  0  0
   -4.3827    2.1249   -0.6689 C   0  0  0  0  0  0  0  0  0  0  0  0
    5.1039   -0.8808    0.9253 C   0  0  0  0  0  0  0  0  0  0  0  0
    6.4759   -0.2930    1.1931 C   0  0  0  0  0  0  0  0  0  0  0  0
   -5.8573    0.4848   -1.8154 C   0  0  0  0  0  0  0  0  0  0  0  0
    7.3795   -0.3140   -0.0113 C   0  0  0  0  0  0  0  0  0  0  0  0
   -6.1482   -0.6377   -0.8616 C   0  0  0  0  0  0  0  0  0  0  0  0
    8.2028   -1.4150   -0.2466 C   0  0  0  0  0  0  0  0  0  0  0  0
    7.3931    0.7679   -0.8916 C   0  0  0  0  0  0  0  0  0  0  0  0
   -5.5296   -1.8787   -1.0112 C   0  0  0  0  0  0  0  0  0  0  0  0
   -7.0488   -0.4287    0.1828 C   0  0  0  0  0  0  0  0  0  0  0  0
    9.0399   -1.4343   -1.3623 C   0  0  0  0  0  0  0  0  0  0  0  0
    8.2301    0.7487   -2.0072 C   0  0  0  0  0  0  0  0  0  0  0  0
    9.0535   -0.3524   -2.2426 C   0  0  0  0  0  0  0  0  0  0  0  0
   -5.8114   -2.9109   -0.1164 C   0  0  0  0  0  0  0  0  0  0  0  0
   -7.3307   -1.4609    1.0778 C   0  0  0  0  0  0  0  0  0  0  0  0
   -6.7120   -2.7020    0.9282 C   0  0  0  0  0  0  0  0  0  0  0  0
   -4.0623   -3.3984   -2.1035 C   0  0  0  0  0  0  0  0  0  0  0  0
    0.2816   -0.1703   -0.3162 H   0  0  0  0  0  0  0  0  0  0  0  0
    2.0509    1.8023    1.2033 H   0  0  0  0  0  0  0  0  0  0  0  0
   -0.3552    2.6876    0.4638 H   0  0  0  0  0  0  0  0  0  0  0  0
   -1.7141   -1.1425    0.9488 H   0  0  0  0  0  0  0  0  0  0  0  0
   -2.0154   -0.6652    2.6110 H   0  0  0  0  0  0  0  0  0  0  0  0
    0.4773   -1.9308    1.4602 H   0  0  0  0  0  0  0  0  0  0  0  0
    0.3235   -1.5048    3.1567 H   0  0  0  0  0  0  0  0  0  0  0  0
   -2.1268    0.6034   -0.9244 H   0  0  0  0  0  0  0  0  0  0  0  0
    2.6311   -1.0176    0.1676 H   0  0  0  0  0  0  0  0  0  0  0  0
   -3.5427    0.4114    1.0452 H   0  0  0  0  0  0  0  0  0  0  0  0
   -2.6021    1.5795    1.9402 H   0  0  0  0  0  0  0  0  0  0  0  0
    2.6730   -1.8173    2.4472 H   0  0  0  0  0  0  0  0  0  0  0  0
    2.3972   -0.2227    3.0993 H   0  0  0  0  0  0  0  0  0  0  0  0
    0.9899    1.4794    3.1170 H   0  0  0  0  0  0  0  0  0  0  0  0
   -0.4583    0.7994    3.8471 H   0  0  0  0  0  0  0  0  0  0  0  0
   -0.5825    2.1081    2.6720 H   0  0  0  0  0  0  0  0  0  0  0  0
   -2.6487    2.9272   -1.5903 H   0  0  0  0  0  0  0  0  0  0  0  0
    2.2307    0.8165   -1.6760 H   0  0  0  0  0  0  0  0  0  0  0  0
    3.5745    1.5747   -0.8149 H   0  0  0  0  0  0  0  0  0  0  0  0
    2.1233    2.4971   -1.0885 H   0  0  0  0  0  0  0  0  0  0  0  0
    4.3398    0.9695    1.5101 H   0  0  0  0  0  0  0  0  0  0  0  0
   -0.2775    1.2984   -2.0166 H   0  0  0  0  0  0  0  0  0  0  0  0
   -3.0404    3.4958    1.4193 H   0  0  0  0  0  0  0  0  0  0  0  0
   -3.4215    4.5562    0.0910 H   0  0  0  0  0  0  0  0  0  0  0  0
   -1.7527    4.1582    0.3853 H   0  0  0  0  0  0  0  0  0  0  0  0
   -3.7853    0.7488   -2.1216 H   0  0  0  0  0  0  0  0  0  0  0  0
    6.4073    0.7327    1.5756 H   0  0  0  0  0  0  0  0  0  0  0  0
    6.9249   -0.8741    2.0090 H   0  0  0  0  0  0  0  0  0  0  0  0
   -5.8649    0.1188   -2.8485 H   0  0  0  0  0  0  0  0  0  0  0  0
   -6.6288    1.2614   -1.7524 H   0  0  0  0  0  0  0  0  0  0  0  0
    8.2001   -2.2648    0.4309 H   0  0  0  0  0  0  0  0  0  0  0  0
    6.7542    1.6301   -0.7198 H   0  0  0  0  0  0  0  0  0  0  0  0
   -7.5377    0.5330    0.3136 H   0  0  0  0  0  0  0  0  0  0  0  0
    9.6807   -2.2918   -1.5459 H   0  0  0  0  0  0  0  0  0  0  0  0
    8.2402    1.5907   -2.6931 H   0  0  0  0  0  0  0  0  0  0  0  0
    9.7050   -0.3674   -3.1115 H   0  0  0  0  0  0  0  0  0  0  0  0
   -5.3698   -3.9000   -0.1692 H   0  0  0  0  0  0  0  0  0  0  0  0
   -8.0315   -1.2981    1.8914 H   0  0  0  0  0  0  0  0  0  0  0  0
   -6.9321   -3.5049    1.6259 H   0  0  0  0  0  0  0  0  0  0  0  0
   -3.3889   -3.3964   -2.9671 H   0  0  0  0  0  0  0  0  0  0  0  0
   -4.8157   -4.1712   -2.2906 H   0  0  0  0  0  0  0  0  0  0  0  0
   -3.4480   -3.6173   -1.2234 H   0  0  0  0  0  0  0  0  0  0  0  0
  1 10  1  0  0  0  0
  1 59  1  0  0  0  0
  2 21  2  0  0  0  0
  3 22  2  0  0  0  0
  4 29  1  0  0  0  0
  4 37  1  0  0  0  0
  5 14  1  0  0  0  0
  5 22  1  0  0  0  0
  5 58  1  0  0  0  0
  6 21  1  0  0  0  0
  6 24  1  0  0  0  0
  6 63  1  0  0  0  0
  7  8  1  0  0  0  0
  7 11  1  0  0  0  0
  7 12  1  0  0  0  0
  7 17  1  0  0  0  0
  8  9  1  0  0  0  0
  8 10  1  0  0  0  0
  8 38  1  0  0  0  0
  9 14  1  0  0  0  0
  9 19  1  0  0  0  0
  9 39  1  0  0  0  0
 10 13  1  0  0  0  0
 10 40  1  0  0  0  0
 11 15  1  0  0  0  0
 11 41  1  0  0  0  0
 11 42  1  0  0  0  0
 12 16  1  0  0  0  0
 12 43  1  0  0  0  0
 12 44  1  0  0  0  0
 13 15  1  0  0  0  0
 13 18  1  0  0  0  0
 13 45  1  0  0  0  0
 14 16  1  0  0  0  0
 14 46  1  0  0  0  0
 15 47  1  0  0  0  0
 15 48  1  0  0  0  0
 16 49  1  0  0  0  0
 16 50  1  0  0  0  0
 17 51  1  0  0  0  0
 17 52  1  0  0  0  0
 17 53  1  0  0  0  0
 18 20  1  0  0  0  0
 18 21  1  0  0  0  0
 18 54  1  0  0  0  0
 19 55  1  0  0  0  0
 19 56  1  0  0  0  0
 19 57  1  0  0  0  0
 20 60  1  0  0  0  0
 20 61  1  0  0  0  0
 20 62  1  0  0  0  0
 22 23  1  0  0  0  0
 23 25  1  0  0  0  0
 23 64  1  0  0  0  0
 23 65  1  0  0  0  0
 24 26  1  0  0  0  0
 24 66  1  0  0  0  0
 24 67  1  0  0  0  0
 25 27  2  0  0  0  0
 25 28  1  0  0  0  0
 26 29  1  0  0  0  0
 26 30  2  0  0  0  0
 27 31  1  0  0  0  0
 27 68  1  0  0  0  0
 28 32  2  0  0  0  0
 28 69  1  0  0  0  0
 29 34  2  0  0  0  0
 30 35  1  0  0  0  0
 30 70  1  0  0  0  0
 31 33  2  0  0  0  0
 31 71  1  0  0  0  0
 32 33  1  0  0  0  0
 32 72  1  0  0  0  0
 33 73  1  0  0  0  0
 34 36  1  0  0  0  0
 34 74  1  0  0  0  0
 35 36  2  0  0  0  0
 35 75  1  0  0  0  0
 36 76  1  0  0  0  0
 37 77  1  0  0  0  0
 37 78  1  0  0  0  0
 37 79  1  0  0  0  0
M  END
> <PUBCHEM_COMPOUND_CID>
45784368

> <PUBCHEM_CONFORMER_RMSD>
1.6

> <PUBCHEM_CONFORMER_DIVERSEORDER>
1
37
26
5
39
73
10
17
4
11
64
49
45
70
29
44
69
31
52
9
41
65
32
59
67
48
8
33
58
63
55
51
14
72
53
25
50
21
71
23
62
7
43
47
66
16
76
2
27
54
61
34
60
68
42
38
40
56
15
35
28
46
74
30
18
22
20
24
75
13
36
57
12
19
6
3

> <PUBCHEM_MMFF94_PARTIAL_CHARGES>
38
1 -0.68
10 0.28
14 0.3
18 0.06
2 -0.57
21 0.57
22 0.57
23 0.2
24 0.44
25 -0.14
26 -0.14
27 -0.15
28 -0.15
29 0.08
3 -0.57
30 -0.15
31 -0.15
32 -0.15
33 -0.15
34 -0.15
35 -0.15
36 -0.15
37 0.28
4 -0.36
5 -0.73
58 0.37
59 0.4
6 -0.73
63 0.37
68 0.15
69 0.15
70 0.15
71 0.15
72 0.15
73 0.15
74 0.15
75 0.15
76 0.15

> <PUBCHEM_EFFECTIVE_ROTOR_COUNT>
11.6

> <PUBCHEM_PHARMACOPHORE_FEATURES>
12
1 1 acceptor
1 1 donor
1 2 acceptor
1 20 hydrophobe
1 3 acceptor
1 4 acceptor
1 5 donor
1 6 donor
6 25 27 28 31 32 33 rings
6 26 29 30 34 35 36 rings
6 7 8 10 11 13 15 rings
6 7 8 9 12 14 16 rings

> <PUBCHEM_HEAVY_ATOM_COUNT>
37

> <PUBCHEM_ATOM_DEF_STEREO_COUNT>
6

> <PUBCHEM_ATOM_UDEF_STEREO_COUNT>
1

> <PUBCHEM_BOND_DEF_STEREO_COUNT>
0

> <PUBCHEM_BOND_UDEF_STEREO_COUNT>
0

> <PUBCHEM_ISOTOPIC_ATOM_COUNT>
0

> <PUBCHEM_COMPONENT_COUNT>
1

> <PUBCHEM_CACTVS_TAUTO_COUNT>
4

> <PUBCHEM_CONFORMER_ID>
02BA9D3000000001

> <PUBCHEM_MMFF94_ENERGY>
112.825

> <PUBCHEM_FEATURE_SELFOVERLAP>
60.912

> <PUBCHEM_SHAPE_FINGERPRINT>
10554248 39 16878217560021255922
11007060 377 16805326595391816640
11146346 142 17679598980890322388
11456790 92 11743831466054311390
11578821 258 13768221488668820342
11621639 254 18041572419671912356
11621639 307 11098944806783794647
117089 54 18045220694708187163
11828042 291 17387120972420266250
11973863 73 14764073311755785342
12422481 6 13686309010644546513
12655364 131 12679190413764548165
13690498 29 18411693279699493849
13782708 43 17702932751174841320
14279260 333 18041547071249971683
14856354 85 18343577443927740357
15461852 350 18261117357251551446
15669420 48 13840265897504554691
15684393 108 17530960272585476523
18603816 31 15554437531519669727
20982279 24 16629983061806969566
21781051 124 17632857517416627470
21796203 349 18263946465585115009
21867018 265 18340772623998499502
21927370 108 17632585932816430049
22149856 69 11095883753900703358
22288116 15 18187365432474267795
23576562 1 16879083021215880518
25269216 80 18259988188548081611
4169191 19 16081091459314760940
4567818 161 16733845197555689764
4616759 239 10952041273834311037
484989 97 17967819404847836937
49967989 163 18187931732645319514
504579 68 18040438806852709990
54039377 194 18261396685124831347
57366028 249 17387147539895222349
9980921 7 15575291994797523038
999808 66 16558747918981393182

> <PUBCHEM_SHAPE_MULTIPOLES>
728
26.88
3.24
2.34
43.75
0.2
0.3
-15.24
-14.27
-6.74
-0.96
0.95
-0.49
-0.53

> <PUBCHEM_SHAPE_SELFOVERLAP>
1534.316

> <PUBCHEM_SHAPE_VOLUME>
404.9

> <PUBCHEM_COORDINATE_TYPE>
2
5
10

$$$$
