51137752
  -OEChem-12032416223D

 40 42  0     1  0  0  0  0  0999 V2000
    3.3922    0.4819   -1.5900 O   0  0  0  0  0  0  0  0  0  0  0  0
   -1.1047   -0.2038    0.1473 O   0  0  0  0  0  0  0  0  0  0  0  0
    2.0328   -0.8322   -0.2541 N   0  0  0  0  0  0  0  0  0  0  0  0
   -2.2703   -2.0341    0.6914 N   0  0  0  0  0  0  0  0  0  0  0  0
   -3.1698   -1.0225    0.4106 N   0  0  0  0  0  0  0  0  0  0  0  0
    3.3695    0.9842    0.7021 C   0  0  0  0  0  0  0  0  0  0  0  0
    2.5154    2.1300    1.1601 C   0  0  0  0  0  0  0  0  0  0  0  0
    3.8377    2.3957    0.5025 C   0  0  0  0  0  0  0  0  0  0  0  0
    0.2907   -2.1493    0.6902 C   0  0  2  0  0  0  0  0  0  0  0  0
    2.9418    0.1866   -0.4867 C   0  0  0  0  0  0  0  0  0  0  0  0
    1.4508   -1.2044    1.0337 C   0  0  0  0  0  0  0  0  0  0  0  0
    0.7761   -2.7925   -0.6183 C   0  0  0  0  0  0  0  0  0  0  0  0
    1.5168   -1.6668   -1.3274 C   0  0  0  0  0  0  0  0  0  0  0  0
   -1.0780   -1.5113    0.5247 C   0  0  0  0  0  0  0  0  0  0  0  0
   -2.8725    1.3767   -0.2892 C   0  0  0  0  0  0  0  0  0  0  0  0
   -2.4452    0.0265    0.0983 C   0  0  0  0  0  0  0  0  0  0  0  0
   -4.4349    1.5157   -0.3128 C   0  0  0  0  0  0  0  0  0  0  0  0
   -2.3635    1.7675   -1.7207 C   0  0  0  0  0  0  0  0  0  0  0  0
   -2.3849    2.5524    0.6383 C   0  0  0  0  0  0  0  0  0  0  0  0
    3.8845    0.4149    1.4702 H   0  0  0  0  0  0  0  0  0  0  0  0
    1.6180    2.3643    0.6004 H   0  0  0  0  0  0  0  0  0  0  0  0
    2.4366    2.3052    2.2260 H   0  0  0  0  0  0  0  0  0  0  0  0
    4.6483    2.7507    1.1278 H   0  0  0  0  0  0  0  0  0  0  0  0
    3.8212    2.8304   -0.4893 H   0  0  0  0  0  0  0  0  0  0  0  0
    0.1862   -2.9085    1.4748 H   0  0  0  0  0  0  0  0  0  0  0  0
    2.2313   -1.7306    1.5952 H   0  0  0  0  0  0  0  0  0  0  0  0
    1.1458   -0.3208    1.6007 H   0  0  0  0  0  0  0  0  0  0  0  0
    1.4840   -3.5974   -0.3827 H   0  0  0  0  0  0  0  0  0  0  0  0
   -0.0230   -3.2156   -1.2348 H   0  0  0  0  0  0  0  0  0  0  0  0
    2.3310   -2.0242   -1.9650 H   0  0  0  0  0  0  0  0  0  0  0  0
    0.8399   -1.0541   -1.9330 H   0  0  0  0  0  0  0  0  0  0  0  0
   -4.8581    1.3230    0.6800 H   0  0  0  0  0  0  0  0  0  0  0  0
   -4.8780    0.7936   -1.0087 H   0  0  0  0  0  0  0  0  0  0  0  0
   -4.7470    2.5181   -0.6267 H   0  0  0  0  0  0  0  0  0  0  0  0
   -2.7109    1.0403   -2.4639 H   0  0  0  0  0  0  0  0  0  0  0  0
   -1.2680    1.7790   -1.7576 H   0  0  0  0  0  0  0  0  0  0  0  0
   -2.7241    2.7573   -2.0222 H   0  0  0  0  0  0  0  0  0  0  0  0
   -1.2898    2.5880    0.6701 H   0  0  0  0  0  0  0  0  0  0  0  0
   -2.7365    2.3983    1.6648 H   0  0  0  0  0  0  0  0  0  0  0  0
   -2.7494    3.5255    0.2915 H   0  0  0  0  0  0  0  0  0  0  0  0
  1 10  2  0  0  0  0
  2 14  1  0  0  0  0
  2 16  1  0  0  0  0
  3 10  1  0  0  0  0
  3 11  1  0  0  0  0
  3 13  1  0  0  0  0
  4  5  1  0  0  0  0
  4 14  2  0  0  0  0
  5 16  2  0  0  0  0
  6  7  1  0  0  0  0
  6  8  1  0  0  0  0
  6 10  1  0  0  0  0
  6 20  1  0  0  0  0
  7  8  1  0  0  0  0
  7 21  1  0  0  0  0
  7 22  1  0  0  0  0
  8 23  1  0  0  0  0
  8 24  1  0  0  0  0
  9 11  1  0  0  0  0
  9 12  1  0  0  0  0
  9 14  1  0  0  0  0
  9 25  1  0  0  0  0
 11 26  1  0  0  0  0
 11 27  1  0  0  0  0
 12 13  1  0  0  0  0
 12 28  1  0  0  0  0
 12 29  1  0  0  0  0
 13 30  1  0  0  0  0
 13 31  1  0  0  0  0
 15 16  1  0  0  0  0
 15 17  1  0  0  0  0
 15 18  1  0  0  0  0
 15 19  1  0  0  0  0
 17 32  1  0  0  0  0
 17 33  1  0  0  0  0
 17 34  1  0  0  0  0
 18 35  1  0  0  0  0
 18 36  1  0  0  0  0
 18 37  1  0  0  0  0
 19 38  1  0  0  0  0
 19 39  1  0  0  0  0
 19 40  1  0  0  0  0
M  END
> <PUBCHEM_COMPOUND_CID>
51137752

> <PUBCHEM_CONFORMER_RMSD>
0.8

> <PUBCHEM_CONFORMER_DIVERSEORDER>
1
19
16
23
21
18
10
22
13
20
25
27
11
3
28
34
5
7
35
40
30
38
17
14
8
2
33
37
9
24
12
15
29
31
26
36
4
39
6
32

> <PUBCHEM_MMFF94_PARTIAL_CHARGES>
20
1 -0.57
10 0.63
11 0.3
13 0.3
14 0.3
15 0.18
16 0.3
2 -0.28
20 0.1
21 0.1
22 0.1
23 0.1
24 0.1
3 -0.66
4 -0.34
5 -0.34
6 -0.1
7 -0.2
8 -0.2
9 0.18

> <PUBCHEM_EFFECTIVE_ROTOR_COUNT>
5.6

> <PUBCHEM_PHARMACOPHORE_FEATURES>
4
1 1 acceptor
4 15 17 18 19 hydrophobe
5 2 4 5 14 16 rings
5 3 9 11 12 13 rings

> <PUBCHEM_HEAVY_ATOM_COUNT>
19

> <PUBCHEM_ATOM_DEF_STEREO_COUNT>
1

> <PUBCHEM_ATOM_UDEF_STEREO_COUNT>
0

> <PUBCHEM_BOND_DEF_STEREO_COUNT>
0

> <PUBCHEM_BOND_UDEF_STEREO_COUNT>
0

> <PUBCHEM_ISOTOPIC_ATOM_COUNT>
0

> <PUBCHEM_COMPONENT_COUNT>
1

> <PUBCHEM_CACTVS_TAUTO_COUNT>
1

> <PUBCHEM_CONFORMER_ID>
030C4CD800000001

> <PUBCHEM_MMFF94_ENERGY>
36.7184

> <PUBCHEM_FEATURE_SELFOVERLAP>
20.297

> <PUBCHEM_SHAPE_FINGERPRINT>
10498660 4 18410291428107109353
10608611 8 18411421704353375122
10646746 165 18408885161546365712
10759866 29 18115024221057179008
10871710 139 16610544039260991092
11221954 11 18411699876510687360
11370993 70 18411410730733416136
11615756 56 18341329006572242016
11715629 250 18412826923184464210
11759241 127 18057319694061346023
12403259 327 14129640817404685381
12403260 363 18340472452707311066
12633257 1 18189884332225402080
13134695 92 17982443794414066318
13464514 151 18197508324535585634
14123250 116 18129951061618532393
14250199 8 18127405644970907789
14386348 128 18262528000104433780
14957384 54 18116691067515058000
17980427 23 17836042789892982426
1798214 55 18407759218273495429
18186145 218 18059870488323924962
18219364 16 18340780302751035432
18981168 100 18340492166411722419
20304884 271 18339644434372583547
20671657 1 18193835946782137019
21041028 32 16031273343385154067
21486144 27 18339925892401553085
21524375 3 18334856086961705418
22182937 141 18341058462377068337
22749437 52 18408035204271523820
23557571 272 18189634872114581775
23559900 14 18196084435550856163
238 59 18058995238007399197
2803657 2 17478059258931191184
3187 122 17823982440685307865
3524813 1 18126846229643969032
43658 37 18338226081869236701
474 4 18341322293485760289
5262128 65 17486503598099626942
526903 126 18411696591235453673
539174 4 16953059220125922586
7097593 13 17679841761594111282
7364860 26 18195243317497453370
7808743 9 18041294234945956668
7832392 63 17262717677501199081
8050 44 18336259055329775053
81228 2 17477208696620062514
84936 182 18267304235686659114

> <PUBCHEM_SHAPE_MULTIPOLES>
364.33
7.17
3.34
1.28
1.26
0.11
-0.42
-5.51
-0.44
-0.46
0.38
-0.37
-0.13
1.25

> <PUBCHEM_SHAPE_SELFOVERLAP>
758.498

> <PUBCHEM_SHAPE_VOLUME>
210.3

> <PUBCHEM_COORDINATE_TYPE>
2
5
10

$$$$
