11884020
  -OEChem-12032416373D

 55 59  0     1  0  0  0  0  0999 V2000
   -2.8442    1.4300    1.1683 O   0  0  0  0  0  0  0  0  0  0  0  0
   -3.7132    2.6793   -1.4940 O   0  0  0  0  0  0  0  0  0  0  0  0
   -0.4675    2.1453   -0.0750 O   0  0  0  0  0  0  0  0  0  0  0  0
   -7.2847    0.3214   -1.1246 O   0  0  0  0  0  0  0  0  0  0  0  0
    0.6144    0.3315   -0.9523 O   0  0  0  0  0  0  0  0  0  0  0  0
   -6.3114   -2.5044    0.8078 O   0  0  0  0  0  0  0  0  0  0  0  0
    6.6177   -0.6219    1.4143 O   0  0  0  0  0  0  0  0  0  0  0  0
   -5.5116    0.0410    0.3090 N   0  0  0  0  0  0  0  0  0  0  0  0
    1.6196    1.7029    0.6567 N   0  0  0  0  0  0  0  0  0  0  0  0
   -3.8921    1.3518   -0.9575 C   0  0  1  0  0  0  0  0  0  0  0  0
   -2.6293    1.0141   -0.1907 C   0  0  1  0  0  0  0  0  0  0  0  0
   -4.9683    1.3614    0.1030 C   0  0  2  0  0  0  0  0  0  0  0  0
   -1.5912    1.8671   -0.8794 C   0  0  1  0  0  0  0  0  0  0  0  0
   -4.2099    1.8443    1.3273 C   0  0  0  0  0  0  0  0  0  0  0  0
   -2.3752    3.1162   -1.2135 C   0  0  0  0  0  0  0  0  0  0  0  0
   -6.6660   -0.3986   -0.3389 C   0  0  0  0  0  0  0  0  0  0  0  0
    0.6102    1.2921   -0.1923 C   0  0  0  0  0  0  0  0  0  0  0  0
   -7.0760   -1.7803   -0.0509 C   0  0  0  0  0  0  0  0  0  0  0  0
   -8.1381   -2.5295   -0.5012 C   0  0  0  0  0  0  0  0  0  0  0  0
    2.8899    1.1132    0.8480 C   0  0  0  0  0  0  0  0  0  0  0  0
   -8.0183   -3.7951    0.1206 C   0  0  0  0  0  0  0  0  0  0  0  0
   -6.8916   -3.7292    0.9069 C   0  0  0  0  0  0  0  0  0  0  0  0
    3.7885    1.6720    1.7569 C   0  0  0  0  0  0  0  0  0  0  0  0
    3.2443   -0.0283    0.1291 C   0  0  0  0  0  0  0  0  0  0  0  0
    5.0416    1.0894    1.9467 C   0  0  0  0  0  0  0  0  0  0  0  0
    4.4973   -0.6110    0.3188 C   0  0  0  0  0  0  0  0  0  0  0  0
    5.3959   -0.0522    1.2275 C   0  0  0  0  0  0  0  0  0  0  0  0
    7.3291   -1.0029    0.2888 C   0  0  0  0  0  0  0  0  0  0  0  0
    7.4164   -0.1426   -0.8056 C   0  0  0  0  0  0  0  0  0  0  0  0
    7.9575   -2.2475    0.2493 C   0  0  0  0  0  0  0  0  0  0  0  0
    8.1321   -0.5268   -1.9396 C   0  0  0  0  0  0  0  0  0  0  0  0
    8.6734   -2.6317   -0.8846 C   0  0  0  0  0  0  0  0  0  0  0  0
    8.7606   -1.7713   -1.9790 C   0  0  0  0  0  0  0  0  0  0  0  0
   -4.0827    0.6770   -1.7979 H   0  0  0  0  0  0  0  0  0  0  0  0
   -2.3848   -0.0520   -0.1774 H   0  0  0  0  0  0  0  0  0  0  0  0
   -5.7869    2.0505   -0.1308 H   0  0  0  0  0  0  0  0  0  0  0  0
   -1.3064    1.3976   -1.8311 H   0  0  0  0  0  0  0  0  0  0  0  0
   -4.2102    2.9385    1.3812 H   0  0  0  0  0  0  0  0  0  0  0  0
   -4.6000    1.4534    2.2720 H   0  0  0  0  0  0  0  0  0  0  0  0
   -2.4023    3.8262   -0.3794 H   0  0  0  0  0  0  0  0  0  0  0  0
   -1.9704    3.6414   -2.0839 H   0  0  0  0  0  0  0  0  0  0  0  0
   -5.0061   -0.6050    0.9093 H   0  0  0  0  0  0  0  0  0  0  0  0
    1.4287    2.5318    1.2144 H   0  0  0  0  0  0  0  0  0  0  0  0
   -8.9052   -2.2080   -1.1912 H   0  0  0  0  0  0  0  0  0  0  0  0
   -8.6714   -4.6486    0.0098 H   0  0  0  0  0  0  0  0  0  0  0  0
   -6.3950   -4.4299    1.5620 H   0  0  0  0  0  0  0  0  0  0  0  0
    3.5247    2.5612    2.3236 H   0  0  0  0  0  0  0  0  0  0  0  0
    2.5994   -0.5194   -0.5863 H   0  0  0  0  0  0  0  0  0  0  0  0
    5.7375    1.5290    2.6560 H   0  0  0  0  0  0  0  0  0  0  0  0
    4.7384   -1.5134   -0.2371 H   0  0  0  0  0  0  0  0  0  0  0  0
    6.9552    0.8413   -0.7933 H   0  0  0  0  0  0  0  0  0  0  0  0
    7.8923   -2.9218    1.0987 H   0  0  0  0  0  0  0  0  0  0  0  0
    8.2044    0.1450   -2.7899 H   0  0  0  0  0  0  0  0  0  0  0  0
    9.1629   -3.6007   -0.9154 H   0  0  0  0  0  0  0  0  0  0  0  0
    9.3189   -2.0700   -2.8614 H   0  0  0  0  0  0  0  0  0  0  0  0
  1 11  1  0  0  0  0
  1 14  1  0  0  0  0
  2 10  1  0  0  0  0
  2 15  1  0  0  0  0
  3 13  1  0  0  0  0
  3 17  1  0  0  0  0
  4 16  2  0  0  0  0
  5 17  2  0  0  0  0
  6 18  1  0  0  0  0
  6 22  1  0  0  0  0
  7 27  1  0  0  0  0
  7 28  1  0  0  0  0
  8 12  1  0  0  0  0
  8 16  1  0  0  0  0
  8 42  1  0  0  0  0
  9 17  1  0  0  0  0
  9 20  1  0  0  0  0
  9 43  1  0  0  0  0
 10 11  1  0  0  0  0
 10 12  1  0  0  0  0
 10 34  1  0  0  0  0
 11 13  1  0  0  0  0
 11 35  1  0  0  0  0
 12 14  1  0  0  0  0
 12 36  1  0  0  0  0
 13 15  1  0  0  0  0
 13 37  1  0  0  0  0
 14 38  1  0  0  0  0
 14 39  1  0  0  0  0
 15 40  1  0  0  0  0
 15 41  1  0  0  0  0
 16 18  1  0  0  0  0
 18 19  2  0  0  0  0
 19 21  1  0  0  0  0
 19 44  1  0  0  0  0
 20 23  2  0  0  0  0
 20 24  1  0  0  0  0
 21 22  2  0  0  0  0
 21 45  1  0  0  0  0
 22 46  1  0  0  0  0
 23 25  1  0  0  0  0
 23 47  1  0  0  0  0
 24 26  2  0  0  0  0
 24 48  1  0  0  0  0
 25 27  2  0  0  0  0
 25 49  1  0  0  0  0
 26 27  1  0  0  0  0
 26 50  1  0  0  0  0
 28 29  2  0  0  0  0
 28 30  1  0  0  0  0
 29 31  1  0  0  0  0
 29 51  1  0  0  0  0
 30 32  2  0  0  0  0
 30 52  1  0  0  0  0
 31 33  2  0  0  0  0
 31 53  1  0  0  0  0
 32 33  1  0  0  0  0
 32 54  1  0  0  0  0
 33 55  1  0  0  0  0
M  END
> <PUBCHEM_COMPOUND_CID>
11884020

> <PUBCHEM_CONFORMER_RMSD>
1

> <PUBCHEM_CONFORMER_DIVERSEORDER>
1
73
42
77
72
8
109
39
10
92
102
63
62
40
30
50
86
56
94
27
89
74
66
95
68
57
48
43
17
108
19
107
61
105
35
59
100
97
76
54
65
33
70
64
106
101
84
103
104
25
75
32
79
91
82
53
58
52
46
11
51
24
37
29
36
80
55
3
71
67
34
88
44
93
81
45
13
4
83
85
7
47
14
90
20
49
26
99
38
69
15
5
9
2
96
16
28
60
78
87
18
41
23
31
12
21
6
98
22

> <PUBCHEM_MMFF94_PARTIAL_CHARGES>
47
1 -0.56
10 0.28
11 0.28
12 0.3
13 0.28
14 0.28
15 0.28
16 0.71
17 0.78
18 0.05
19 -0.15
2 -0.56
20 0.12
21 -0.15
22 -0.01
23 -0.15
24 -0.15
25 -0.15
26 -0.15
27 0.08
28 0.08
29 -0.15
3 -0.43
30 -0.15
31 -0.15
32 -0.15
33 -0.15
4 -0.57
42 0.37
43 0.37
44 0.15
45 0.15
46 0.15
47 0.15
48 0.15
49 0.15
5 -0.57
50 0.15
51 0.15
52 0.15
53 0.15
54 0.15
55 0.15
6 -0.28
7 -0.17
8 -0.73
9 -0.55

> <PUBCHEM_EFFECTIVE_ROTOR_COUNT>
10.2

> <PUBCHEM_PHARMACOPHORE_FEATURES>
13
1 1 acceptor
1 2 acceptor
1 4 acceptor
1 5 acceptor
1 6 acceptor
1 7 acceptor
1 8 donor
1 9 donor
5 1 10 11 12 14 rings
5 2 10 11 13 15 rings
5 6 18 19 21 22 rings
6 20 23 24 25 26 27 rings
6 28 29 30 31 32 33 rings

> <PUBCHEM_HEAVY_ATOM_COUNT>
33

> <PUBCHEM_ATOM_DEF_STEREO_COUNT>
4

> <PUBCHEM_ATOM_UDEF_STEREO_COUNT>
0

> <PUBCHEM_BOND_DEF_STEREO_COUNT>
0

> <PUBCHEM_BOND_UDEF_STEREO_COUNT>
0

> <PUBCHEM_ISOTOPIC_ATOM_COUNT>
0

> <PUBCHEM_COMPONENT_COUNT>
1

> <PUBCHEM_CACTVS_TAUTO_COUNT>
4

> <PUBCHEM_CONFORMER_ID>
00B555F400000001

> <PUBCHEM_MMFF94_ENERGY>
93.2607

> <PUBCHEM_FEATURE_SELFOVERLAP>
66.693

> <PUBCHEM_SHAPE_FINGERPRINT>
10258705 36 18343589516849629822
10280341 67 10735613366716966747
10533779 1 10879728546366587387
10625338 131 10664101155488160422
10740516 88 18130517336304123190
10952577 141 15576095587653096487
11315181 36 15647347298948553165
11421887 45 9150628846797031803
11456790 92 12895348911149602238
11497681 19 18334295408935311660
11607047 74 18120095233056841764
11621639 254 13840255963287943663
11672396 43 18202286917701662506
11761917 116 18334576858485206958
11761917 87 17060349487687177030
12539747 164 18409452458482152649
12717326 120 18339089309781854998
12838862 33 14273463604934724334
1361 4 18263077734612784314
13668630 136 18343298146209324208
13782708 43 18412535522496284297
14344974 204 18271240655283020119
14598715 104 8502371118056948838
15392192 29 17749685030167231081
15455200 90 17459727304754743623
15461852 350 18113338591831108319
15510800 12 18343587351631470703
16067689 68 18270977834145419811
16989713 51 18261107465984054301
16991971 28 18334013916783597229
16992779 147 16556481954334601040
16993089 31 18342736304072330006
16994733 274 9727636111231287573
1818759 1 18260553333635687523
195137 95 9511463308085999614
20105231 36 17775288245094187646
20609170 94 18118973723101746244
20982279 24 17489320633702432910
21424621 283 10951779603189379493
21585481 151 18342178851766705091
21756936 100 10447928374376410413
21774942 28 10087641498838448256
21781051 124 18272093803575774262
23389318 12 17748829648453409758
23569943 247 17979073787365243898
23576562 1 16081945869811903671
255183 451 18187645846715960748
2747138 104 18202559571169417096
2851757 41 18263647424404179651
3918712 181 10665227068817793710
393628 179 9511465494398888003
44802255 64 12612756818093587849
4516262 110 10447385185735933921
45377200 153 18409172125507923786
4625314 4 18408884036218130677
4760202 70 18042413589544296892
49967989 163 17241055408838514499
5028188 123 18409736132149588500
504579 68 16877947135377933148
54076057 127 18059570343837035792
5718773 13 18262511602689125809
57307002 29 15357697526531403609
5937810 71 12107775282426126423
6289498 60 10592044678326625262
636775 8 18411705366096096286
9896288 288 18059298643857516593
999808 66 18131910464305576543

> <PUBCHEM_SHAPE_MULTIPOLES>
628.08
32.76
3.87
1.61
14.78
2.53
0.03
36.13
5.81
-7.96
0.13
2.52
-0.4
3.78

> <PUBCHEM_SHAPE_SELFOVERLAP>
1378.979

> <PUBCHEM_SHAPE_VOLUME>
338.9

> <PUBCHEM_COORDINATE_TYPE>
2
5
10

$$$$
