51137022
  -OEChem-12032416223D

 49 52  0     1  0  0  0  0  0999 V2000
    2.1236   -1.5461    1.7796 O   0  0  0  0  0  0  0  0  0  0  0  0
   -7.2475    2.0424   -0.0081 O   0  0  0  0  0  0  0  0  0  0  0  0
    6.7578    1.8464   -1.4968 O   0  0  0  0  0  0  0  0  0  0  0  0
    0.7656   -1.7469   -0.0602 N   0  0  0  0  0  0  0  0  0  0  0  0
   -3.7827   -1.3917   -0.4323 N   0  0  0  0  0  0  0  0  0  0  0  0
   -2.1835   -0.0973    0.4086 N   0  0  0  0  0  0  0  0  0  0  0  0
    2.8092   -0.6239   -0.2510 N   0  0  0  0  0  0  0  0  0  0  0  0
   -1.4998   -2.4397   -0.2751 C   0  0  1  0  0  0  0  0  0  0  0  0
   -0.8437   -2.4040   -1.6632 C   0  0  0  0  0  0  0  0  0  0  0  0
   -0.2782   -2.4769    0.6512 C   0  0  0  0  0  0  0  0  0  0  0  0
    0.4031   -1.5507   -1.4620 C   0  0  0  0  0  0  0  0  0  0  0  0
   -2.4652   -1.2826   -0.0840 C   0  0  0  0  0  0  0  0  0  0  0  0
    1.9323   -1.3175    0.5839 C   0  0  0  0  0  0  0  0  0  0  0  0
   -4.3918   -0.1971   -0.1449 C   0  0  0  0  0  0  0  0  0  0  0  0
   -3.3729    0.5938    0.3785 C   0  0  0  0  0  0  0  0  0  0  0  0
   -5.7066    0.2459   -0.2935 C   0  0  0  0  0  0  0  0  0  0  0  0
   -3.6648    1.9075    0.7829 C   0  0  0  0  0  0  0  0  0  0  0  0
   -5.9792    1.5559    0.1140 C   0  0  0  0  0  0  0  0  0  0  0  0
    4.0653   -0.0607    0.0836 C   0  0  0  0  0  0  0  0  0  0  0  0
   -4.9779    2.3737    0.6429 C   0  0  0  0  0  0  0  0  0  0  0  0
    4.8018    0.6247   -0.8825 C   0  0  0  0  0  0  0  0  0  0  0  0
    4.5659   -0.1923    1.3789 C   0  0  0  0  0  0  0  0  0  0  0  0
    6.0390    1.1788   -0.5534 C   0  0  0  0  0  0  0  0  0  0  0  0
    5.8031    0.3614    1.7081 C   0  0  0  0  0  0  0  0  0  0  0  0
    6.5396    1.0472    0.7420 C   0  0  0  0  0  0  0  0  0  0  0  0
   -8.2274    1.1626   -0.5542 C   0  0  0  0  0  0  0  0  0  0  0  0
    8.0152    2.3868   -1.0928 C   0  0  0  0  0  0  0  0  0  0  0  0
   -2.0747   -3.3663   -0.1496 H   0  0  0  0  0  0  0  0  0  0  0  0
   -0.5414   -3.4211   -1.9440 H   0  0  0  0  0  0  0  0  0  0  0  0
   -1.4875   -2.0144   -2.4579 H   0  0  0  0  0  0  0  0  0  0  0  0
    0.0840   -3.5028    0.7845 H   0  0  0  0  0  0  0  0  0  0  0  0
   -0.4557   -2.0366    1.6375 H   0  0  0  0  0  0  0  0  0  0  0  0
    0.1949   -0.4860   -1.6117 H   0  0  0  0  0  0  0  0  0  0  0  0
    1.2193   -1.8562   -2.1231 H   0  0  0  0  0  0  0  0  0  0  0  0
   -4.2304   -2.2059   -0.8319 H   0  0  0  0  0  0  0  0  0  0  0  0
    2.5277   -0.4747   -1.2147 H   0  0  0  0  0  0  0  0  0  0  0  0
   -6.4351   -0.4372   -0.7102 H   0  0  0  0  0  0  0  0  0  0  0  0
   -2.8937    2.5506    1.1950 H   0  0  0  0  0  0  0  0  0  0  0  0
   -5.2142    3.3890    0.9528 H   0  0  0  0  0  0  0  0  0  0  0  0
    4.4181    0.7310   -1.8946 H   0  0  0  0  0  0  0  0  0  0  0  0
    4.0625   -0.7105    2.1821 H   0  0  0  0  0  0  0  0  0  0  0  0
    6.1938    0.2581    2.7164 H   0  0  0  0  0  0  0  0  0  0  0  0
    7.4925    1.4521    1.0653 H   0  0  0  0  0  0  0  0  0  0  0  0
   -7.9919    0.8880   -1.5881 H   0  0  0  0  0  0  0  0  0  0  0  0
   -8.3836    0.2862    0.0840 H   0  0  0  0  0  0  0  0  0  0  0  0
   -9.1751    1.7106   -0.5790 H   0  0  0  0  0  0  0  0  0  0  0  0
    7.8942    3.1517   -0.3183 H   0  0  0  0  0  0  0  0  0  0  0  0
    8.7140    1.5986   -0.7925 H   0  0  0  0  0  0  0  0  0  0  0  0
    8.4495    2.8830   -1.9669 H   0  0  0  0  0  0  0  0  0  0  0  0
  1 13  2  0  0  0  0
  2 18  1  0  0  0  0
  2 26  1  0  0  0  0
  3 23  1  0  0  0  0
  3 27  1  0  0  0  0
  4 10  1  0  0  0  0
  4 11  1  0  0  0  0
  4 13  1  0  0  0  0
  5 12  1  0  0  0  0
  5 14  1  0  0  0  0
  5 35  1  0  0  0  0
  6 12  2  0  0  0  0
  6 15  1  0  0  0  0
  7 13  1  0  0  0  0
  7 19  1  0  0  0  0
  7 36  1  0  0  0  0
  8  9  1  0  0  0  0
  8 10  1  0  0  0  0
  8 12  1  0  0  0  0
  8 28  1  0  0  0  0
  9 11  1  0  0  0  0
  9 29  1  0  0  0  0
  9 30  1  0  0  0  0
 10 31  1  0  0  0  0
 10 32  1  0  0  0  0
 11 33  1  0  0  0  0
 11 34  1  0  0  0  0
 14 15  2  0  0  0  0
 14 16  1  0  0  0  0
 15 17  1  0  0  0  0
 16 18  2  0  0  0  0
 16 37  1  0  0  0  0
 17 20  2  0  0  0  0
 17 38  1  0  0  0  0
 18 20  1  0  0  0  0
 19 21  2  0  0  0  0
 19 22  1  0  0  0  0
 20 39  1  0  0  0  0
 21 23  1  0  0  0  0
 21 40  1  0  0  0  0
 22 24  2  0  0  0  0
 22 41  1  0  0  0  0
 23 25  2  0  0  0  0
 24 25  1  0  0  0  0
 24 42  1  0  0  0  0
 25 43  1  0  0  0  0
 26 44  1  0  0  0  0
 26 45  1  0  0  0  0
 26 46  1  0  0  0  0
 27 47  1  0  0  0  0
 27 48  1  0  0  0  0
 27 49  1  0  0  0  0
M  END
> <PUBCHEM_COMPOUND_CID>
51137022

> <PUBCHEM_CONFORMER_RMSD>
1

> <PUBCHEM_CONFORMER_DIVERSEORDER>
1
149
121
111
83
40
106
150
146
94
41
7
90
145
44
148
84
133
93
151
37
98
21
154
112
142
15
129
77
51
39
126
107
120
97
78
124
132
58
152
53
141
25
105
18
8
14
104
68
50
72
48
158
13
123
35
110
137
65
88
127
144
33
60
157
101
64
147
96
82
116
43
76
16
81
122
28
70
153
31
71
26
69
92
100
5
140
86
155
17
114
125
11
79
87
143
139
54
19
9
119
102
67
156
138
109
75
103
63
113
6
4
62
135
74
118
10
61
89
80
108
46
130
42
117
99
115
57
73
136
134
29
55
32
52
66
45
3
12
59
27
131
20
85
49
91
34
56
128
36
38
47
30
24
2
23
22
95

> <PUBCHEM_MMFF94_PARTIAL_CHARGES>
35
1 -0.57
10 0.3
11 0.3
12 0.01
13 0.69
14 -0.15
15 0.23
16 -0.15
17 -0.15
18 0.08
19 0.12
2 -0.36
20 -0.15
21 -0.15
22 -0.15
23 0.08
24 -0.15
25 -0.15
26 0.28
27 0.28
3 -0.36
35 0.27
36 0.37
37 0.15
38 0.15
39 0.15
4 -0.66
40 0.15
41 0.15
42 0.15
43 0.15
5 0.03
6 -0.57
7 -0.55
8 0.18

> <PUBCHEM_EFFECTIVE_ROTOR_COUNT>
7

> <PUBCHEM_PHARMACOPHORE_FEATURES>
10
1 1 acceptor
1 2 acceptor
1 3 acceptor
1 5 donor
1 7 donor
3 5 6 12 cation
5 4 8 9 10 11 rings
5 5 6 12 14 15 rings
6 14 15 16 17 18 20 rings
6 19 21 22 23 24 25 rings

> <PUBCHEM_HEAVY_ATOM_COUNT>
27

> <PUBCHEM_ATOM_DEF_STEREO_COUNT>
1

> <PUBCHEM_ATOM_UDEF_STEREO_COUNT>
0

> <PUBCHEM_BOND_DEF_STEREO_COUNT>
0

> <PUBCHEM_BOND_UDEF_STEREO_COUNT>
0

> <PUBCHEM_ISOTOPIC_ATOM_COUNT>
0

> <PUBCHEM_COMPONENT_COUNT>
1

> <PUBCHEM_CACTVS_TAUTO_COUNT>
4

> <PUBCHEM_CONFORMER_ID>
030C49FE00000001

> <PUBCHEM_MMFF94_ENERGY>
84.2208

> <PUBCHEM_FEATURE_SELFOVERLAP>
50.854

> <PUBCHEM_SHAPE_FINGERPRINT>
10 15 17967537869863019729
10429389 143 17821720608424508549
105312 117 17846212284876321526
10670039 82 17703516493292082296
10753850 27 9799689294300956982
10939801 23 18113904887918377804
12596602 18 17603586339350250851
12760667 363 11025800899245485899
12838862 33 18339062840140872529
13165053 182 18048306753639416205
13673619 4 9007053570020582711
13685833 64 7997963587920888591
14257110 125 18341611486671383787
14294032 229 18201442540544510007
14341114 328 18113615694642050042
14428016 204 17894636958606256061
14739800 52 18269821078101317474
14840074 17 18186521003270514532
14931854 50 17560519512915951497
15183329 4 16200440156496390134
15198563 99 17771891995236368255
15238133 3 18411410744488100386
15575132 122 18338233765429085797
1577012 14 18334010618670752270
15840311 113 18113620049712449622
15961568 22 18339644443358754757
16992752 21 18130216165208403191
17134984 74 13973957701731229420
19427546 20 18341607166536216751
1979834 28 14924229270320955218
20526848 3 18335140903580857628
20691028 202 18116154561986754956
21298829 104 18339083692492132589
21344244 181 13110668467823446109
21521239 73 13830132793494226198
21585481 104 14404912366622512889
21756936 100 18337388343955810338
22122407 14 18042416879441882576
24771293 8 18411983521591140357
270888 7 18408324380076662166
2748736 6 18410568453402898709
2838139 119 18131057225865364658
306946 40 17060049403361283464
312425 54 15791735217125458656
3472631 163 18412546517654454662
3918712 181 18411978070481394400
4015057 19 14189296032304247922
4098825 35 14117530809326309347
44249763 50 17345737724985914946
44802255 64 17630900489645596342
45266715 3 13758065291478865294
5104073 3 16879340324754440160
54583773 228 18410849972610813725
5470011 282 13326564189960305408
57035037 87 17531515505173094981
5718773 13 9799695887423993964
5911458 16 18187935018912148260
59682541 52 16702307819758053110
6327066 14 18412265034309303671
7808743 9 18342171168081132219
7970288 3 9583517603241215788
86090 222 14346638160161243064
9981440 41 18411421709097482827

> <PUBCHEM_SHAPE_MULTIPOLES>
518.12
22.43
2.86
1.35
5.51
0.4
-0.03
-22.85
3.03
-1.23
0.44
2.16
0.15
-2.06

> <PUBCHEM_SHAPE_SELFOVERLAP>
1127.818

> <PUBCHEM_SHAPE_VOLUME>
282.6

> <PUBCHEM_COORDINATE_TYPE>
2
5
10

$$$$
