7142808
  -OEChem-12032416283D

 61 65  0     1  0  0  0  0  0999 V2000
   -8.2250   -1.1866   -1.3076 F   0  0  0  0  0  0  0  0  0  0  0  0
   -0.8464    2.2234   -1.7287 O   0  0  0  0  0  0  0  0  0  0  0  0
   -3.2277    0.6571    2.0991 O   0  0  0  0  0  0  0  0  0  0  0  0
    3.9355    1.2188   -0.6096 N   0  0  2  0  0  0  0  0  0  0  0  0
    0.9661    2.3336   -0.2587 N   0  0  0  0  0  0  0  0  0  0  0  0
   -2.3264    0.6562   -0.0236 N   0  0  0  0  0  0  0  0  0  0  0  0
    3.1328    3.5854   -0.8113 C   0  0  1  0  0  0  0  0  0  0  0  0
    2.9170    2.4188    1.3311 C   0  0  2  0  0  0  0  0  0  0  0  0
    3.2361    3.7699    0.6969 C   0  0  0  0  0  0  0  0  0  0  0  0
    4.1336    2.5088   -1.2819 C   0  0  0  0  0  0  0  0  0  0  0  0
    3.9453    1.3682    0.8534 C   0  0  0  0  0  0  0  0  0  0  0  0
    1.6815    3.2379   -1.1697 C   0  0  0  0  0  0  0  0  0  0  0  0
    1.5070    1.9795    0.9815 C   0  0  0  0  0  0  0  0  0  0  0  0
    4.9332    0.2435   -1.0424 C   0  0  0  0  0  0  0  0  0  0  0  0
    0.7909    1.2408    1.8454 C   0  0  0  0  0  0  0  0  0  0  0  0
   -0.3231    1.9241   -0.6545 C   0  0  0  0  0  0  0  0  0  0  0  0
    4.6259   -1.1298   -0.4475 C   0  0  0  0  0  0  0  0  0  0  0  0
   -1.0796    1.0831    0.3268 C   0  0  0  0  0  0  0  0  0  0  0  0
   -0.5278    0.7837    1.5075 C   0  0  0  0  0  0  0  0  0  0  0  0
    3.2388   -1.6171   -0.8739 C   0  0  0  0  0  0  0  0  0  0  0  0
    2.9361   -2.9879   -0.3247 C   0  0  0  0  0  0  0  0  0  0  0  0
   -3.3630    0.4583    0.8903 C   0  0  0  0  0  0  0  0  0  0  0  0
    3.2798   -4.1097   -1.0646 C   0  0  0  0  0  0  0  0  0  0  0  0
    2.3190   -3.1059    0.9120 C   0  0  0  0  0  0  0  0  0  0  0  0
   -4.6440    0.0249    0.3113 C   0  0  0  0  0  0  0  0  0  0  0  0
    3.0000   -5.3781   -0.5564 C   0  0  0  0  0  0  0  0  0  0  0  0
    2.0393   -4.3744    1.4201 C   0  0  0  0  0  0  0  0  0  0  0  0
    2.3799   -5.5106    0.6858 C   0  0  0  0  0  0  0  0  0  0  0  0
   -5.8262    0.3307    0.9681 C   0  0  0  0  0  0  0  0  0  0  0  0
   -4.6473   -0.6819   -0.8817 C   0  0  0  0  0  0  0  0  0  0  0  0
   -7.0408   -0.0802    0.4190 C   0  0  0  0  0  0  0  0  0  0  0  0
   -5.8619   -1.0927   -1.4310 C   0  0  0  0  0  0  0  0  0  0  0  0
   -7.0587   -0.7919   -0.7807 C   0  0  0  0  0  0  0  0  0  0  0  0
    3.3967    4.5241   -1.3144 H   0  0  0  0  0  0  0  0  0  0  0  0
    3.0112    2.5240    2.4201 H   0  0  0  0  0  0  0  0  0  0  0  0
    4.2453    4.0966    0.9758 H   0  0  0  0  0  0  0  0  0  0  0  0
    2.5393    4.5429    1.0445 H   0  0  0  0  0  0  0  0  0  0  0  0
    4.0233    2.3779   -2.3657 H   0  0  0  0  0  0  0  0  0  0  0  0
    5.1541    2.8759   -1.1063 H   0  0  0  0  0  0  0  0  0  0  0  0
    4.9448    1.6597    1.2040 H   0  0  0  0  0  0  0  0  0  0  0  0
    3.6876    0.4310    1.3568 H   0  0  0  0  0  0  0  0  0  0  0  0
    1.6223    2.8282   -2.1859 H   0  0  0  0  0  0  0  0  0  0  0  0
    1.0940    4.1662   -1.1850 H   0  0  0  0  0  0  0  0  0  0  0  0
    5.9461    0.5505   -0.7525 H   0  0  0  0  0  0  0  0  0  0  0  0
    4.9230    0.1597   -2.1365 H   0  0  0  0  0  0  0  0  0  0  0  0
    1.1930    0.9446    2.8086 H   0  0  0  0  0  0  0  0  0  0  0  0
    5.3789   -1.8321   -0.8308 H   0  0  0  0  0  0  0  0  0  0  0  0
    4.7492   -1.1584    0.6403 H   0  0  0  0  0  0  0  0  0  0  0  0
   -0.9901    0.1390    2.2456 H   0  0  0  0  0  0  0  0  0  0  0  0
    3.1667   -1.6391   -1.9693 H   0  0  0  0  0  0  0  0  0  0  0  0
    2.4524   -0.9291   -0.5405 H   0  0  0  0  0  0  0  0  0  0  0  0
   -2.5554    0.7287   -1.0115 H   0  0  0  0  0  0  0  0  0  0  0  0
    3.7649   -4.0170   -2.0321 H   0  0  0  0  0  0  0  0  0  0  0  0
    2.0517   -2.2270    1.4920 H   0  0  0  0  0  0  0  0  0  0  0  0
    3.2656   -6.2628   -1.1277 H   0  0  0  0  0  0  0  0  0  0  0  0
    1.5568   -4.4777    2.3876 H   0  0  0  0  0  0  0  0  0  0  0  0
    2.1622   -6.4982    1.0816 H   0  0  0  0  0  0  0  0  0  0  0  0
   -5.8302    0.8875    1.9010 H   0  0  0  0  0  0  0  0  0  0  0  0
   -3.7367   -0.9618   -1.4027 H   0  0  0  0  0  0  0  0  0  0  0  0
   -7.9729    0.1545    0.9245 H   0  0  0  0  0  0  0  0  0  0  0  0
   -5.8763   -1.6527   -2.3614 H   0  0  0  0  0  0  0  0  0  0  0  0
  1 33  1  0  0  0  0
  2 16  2  0  0  0  0
  3 22  2  0  0  0  0
  4 10  1  0  0  0  0
  4 11  1  0  0  0  0
  4 14  1  0  0  0  0
  5 12  1  0  0  0  0
  5 13  1  0  0  0  0
  5 16  1  0  0  0  0
  6 18  1  0  0  0  0
  6 22  1  0  0  0  0
  6 52  1  0  0  0  0
  7  9  1  0  0  0  0
  7 10  1  0  0  0  0
  7 12  1  0  0  0  0
  7 34  1  0  0  0  0
  8  9  1  0  0  0  0
  8 11  1  0  0  0  0
  8 13  1  0  0  0  0
  8 35  1  0  0  0  0
  9 36  1  0  0  0  0
  9 37  1  0  0  0  0
 10 38  1  0  0  0  0
 10 39  1  0  0  0  0
 11 40  1  0  0  0  0
 11 41  1  0  0  0  0
 12 42  1  0  0  0  0
 12 43  1  0  0  0  0
 13 15  2  0  0  0  0
 14 17  1  0  0  0  0
 14 44  1  0  0  0  0
 14 45  1  0  0  0  0
 15 19  1  0  0  0  0
 15 46  1  0  0  0  0
 16 18  1  0  0  0  0
 17 20  1  0  0  0  0
 17 47  1  0  0  0  0
 17 48  1  0  0  0  0
 18 19  2  0  0  0  0
 19 49  1  0  0  0  0
 20 21  1  0  0  0  0
 20 50  1  0  0  0  0
 20 51  1  0  0  0  0
 21 23  2  0  0  0  0
 21 24  1  0  0  0  0
 22 25  1  0  0  0  0
 23 26  1  0  0  0  0
 23 53  1  0  0  0  0
 24 27  2  0  0  0  0
 24 54  1  0  0  0  0
 25 29  2  0  0  0  0
 25 30  1  0  0  0  0
 26 28  2  0  0  0  0
 26 55  1  0  0  0  0
 27 28  1  0  0  0  0
 27 56  1  0  0  0  0
 28 57  1  0  0  0  0
 29 31  1  0  0  0  0
 29 58  1  0  0  0  0
 30 32  2  0  0  0  0
 30 59  1  0  0  0  0
 31 33  2  0  0  0  0
 31 60  1  0  0  0  0
 32 33  1  0  0  0  0
 32 61  1  0  0  0  0
M  END
> <PUBCHEM_COMPOUND_CID>
7142808

> <PUBCHEM_CONFORMER_RMSD>
1

> <PUBCHEM_CONFORMER_DIVERSEORDER>
1
14
11
13
4
19
7
2
3
16
17
18
9
12
15
8
10
6
5

> <PUBCHEM_MMFF94_PARTIAL_CHARGES>
42
1 -0.19
10 0.27
11 0.27
12 0.3
13 -0.03
14 0.27
15 -0.15
16 0.62
18 0.12
19 -0.15
2 -0.57
20 0.14
21 -0.14
22 0.54
23 -0.15
24 -0.15
25 0.09
26 -0.15
27 -0.15
28 -0.15
29 -0.15
3 -0.57
30 -0.15
31 -0.15
32 -0.15
33 0.19
4 -0.81
46 0.15
49 0.15
5 -0.47
52 0.37
53 0.15
54 0.15
55 0.15
56 0.15
57 0.15
58 0.15
59 0.15
6 -0.54
60 0.15
61 0.15
8 0.14

> <PUBCHEM_EFFECTIVE_ROTOR_COUNT>
8

> <PUBCHEM_PHARMACOPHORE_FEATURES>
9
1 2 acceptor
1 3 acceptor
1 4 cation
1 6 donor
6 21 23 24 26 27 28 rings
6 25 29 30 31 32 33 rings
6 4 7 8 9 10 11 rings
6 5 13 15 16 18 19 rings
6 5 7 8 9 12 13 rings

> <PUBCHEM_HEAVY_ATOM_COUNT>
33

> <PUBCHEM_ATOM_DEF_STEREO_COUNT>
2

> <PUBCHEM_ATOM_UDEF_STEREO_COUNT>
0

> <PUBCHEM_BOND_DEF_STEREO_COUNT>
0

> <PUBCHEM_BOND_UDEF_STEREO_COUNT>
0

> <PUBCHEM_ISOTOPIC_ATOM_COUNT>
0

> <PUBCHEM_COMPONENT_COUNT>
1

> <PUBCHEM_CACTVS_TAUTO_COUNT>
2

> <PUBCHEM_CONFORMER_ID>
006CFD9800000001

> <PUBCHEM_MMFF94_ENERGY>
89.7244

> <PUBCHEM_FEATURE_SELFOVERLAP>
47.222

> <PUBCHEM_SHAPE_FINGERPRINT>
10622 236 18127973001692968667
10675989 125 18270962465692046288
11014199 57 17617945734272726218
11135609 149 18191568788402447151
11181472 205 18410853236686270509
11227150 75 17027388194502492874
11763715 3 17760110435580322606
12147406 95 17823962468496791386
12202916 173 18040713667616715162
12539745 222 13540812741823544308
13150687 139 18043552684340058212
13533116 47 18273218625029334201
1361 2 18409451418461042112
14675020 138 18198891677751657112
14910700 183 18339348752540850618
15001296 14 17988075716145875495
15183329 4 18338799022212422957
15419008 42 17970041436586143557
15467298 65 18129651020163521919
15484559 13 17968370247283273458
19026451 147 18266178323470720266
19315092 285 18059292063455468186
19319366 153 18271802479711520014
20775438 99 18408598176027472875
20775530 9 17829909641588340466
21057603 40 18338783599101103215
21133410 171 17101125833675347634
21360442 67 18264205997036268123
23569914 152 17543036041710979733
25222932 49 18270964531840192086
255183 451 18055642715834235902
345986 75 17702945816428498081
3534868 343 18337402612032912045
397830 11 10087628352487342373
5309563 4 18266745667217097014
86090 222 18408327700614065274
9831232 110 18409442571340167559

> <PUBCHEM_SHAPE_MULTIPOLES>
645.17
15.23
6.76
1.65
38.99
9.42
0.24
5
-4.59
-13.91
-0.04
0.28
-0.29
-1.07

> <PUBCHEM_SHAPE_SELFOVERLAP>
1409.402

> <PUBCHEM_SHAPE_VOLUME>
348.1

> <PUBCHEM_COORDINATE_TYPE>
2
5
10

$$$$
