25391123
  -OEChem-12032416233D

 59 62  0     1  0  0  0  0  0999 V2000
   -4.7661   -0.8688   -1.1298 O   0  0  0  0  0  0  0  0  0  0  0  0
   -2.0877    1.1400    2.0608 O   0  0  0  0  0  0  0  0  0  0  0  0
    0.5359    0.7943   -1.0872 O   0  0  0  0  0  0  0  0  0  0  0  0
    4.9806    1.3116    0.9942 O   0  0  0  0  0  0  0  0  0  0  0  0
   -1.1016    2.2385    0.2867 N   0  0  0  0  0  0  0  0  0  0  0  0
    0.7555    4.4092   -0.1364 N   0  0  0  0  0  0  0  0  0  0  0  0
   -3.2367    1.1707    0.0708 N   0  0  0  0  0  0  0  0  0  0  0  0
    2.3114    1.0255    0.4006 N   0  0  0  0  0  0  0  0  0  0  0  0
    0.6680   -2.9885   -1.8443 N   0  0  0  0  0  0  0  0  0  0  0  0
    5.4935    0.5570   -1.1140 N   0  0  0  0  0  0  0  0  0  0  0  0
    0.2507    2.1629    0.8498 C   0  0  2  0  0  0  0  0  0  0  0  0
    0.9089    3.5320    1.0274 C   0  0  0  0  0  0  0  0  0  0  0  0
   -1.2896    3.2025   -0.8093 C   0  0  0  0  0  0  0  0  0  0  0  0
   -0.6600    4.5527   -0.4761 C   0  0  0  0  0  0  0  0  0  0  0  0
   -2.1365    1.4916    0.8750 C   0  0  0  0  0  0  0  0  0  0  0  0
    1.0288    1.2617   -0.0639 C   0  0  0  0  0  0  0  0  0  0  0  0
    3.2559    0.1728   -0.2844 C   0  0  2  0  0  0  0  0  0  0  0  0
   -3.1742    0.9563   -1.3799 C   0  0  0  0  0  0  0  0  0  0  0  0
   -4.4785    0.7004    0.6837 C   0  0  0  0  0  0  0  0  0  0  0  0
    3.1969   -1.2756    0.2141 C   0  0  0  0  0  0  0  0  0  0  0  0
   -3.5089   -0.4987   -1.7023 C   0  0  0  0  0  0  0  0  0  0  0  0
   -4.7389   -0.7473    0.2959 C   0  0  0  0  0  0  0  0  0  0  0  0
    2.0442   -2.0502   -0.3771 C   0  0  0  0  0  0  0  0  0  0  0  0
    1.0154   -2.7195    0.3430 C   0  0  0  0  0  0  0  0  0  0  0  0
    4.6407    0.7583   -0.0490 C   0  0  0  0  0  0  0  0  0  0  0  0
    1.8033   -2.2337   -1.7192 C   0  0  0  0  0  0  0  0  0  0  0  0
    0.1654   -3.2998   -0.6010 C   0  0  0  0  0  0  0  0  0  0  0  0
    0.7248   -2.8878    1.7114 C   0  0  0  0  0  0  0  0  0  0  0  0
   -0.9652   -4.0429   -0.2434 C   0  0  0  0  0  0  0  0  0  0  0  0
   -0.4027   -3.6286    2.0839 C   0  0  0  0  0  0  0  0  0  0  0  0
   -1.2333   -4.1964    1.1199 C   0  0  0  0  0  0  0  0  0  0  0  0
    0.2142    1.6618    1.8250 H   0  0  0  0  0  0  0  0  0  0  0  0
    0.4535    4.0329    1.8918 H   0  0  0  0  0  0  0  0  0  0  0  0
    1.9753    3.4528    1.2611 H   0  0  0  0  0  0  0  0  0  0  0  0
   -2.3552    3.3665   -0.9925 H   0  0  0  0  0  0  0  0  0  0  0  0
   -0.8327    2.8026   -1.7203 H   0  0  0  0  0  0  0  0  0  0  0  0
   -0.7543    5.2235   -1.3370 H   0  0  0  0  0  0  0  0  0  0  0  0
   -1.1935    5.0287    0.3559 H   0  0  0  0  0  0  0  0  0  0  0  0
    1.2466    3.9957   -0.9292 H   0  0  0  0  0  0  0  0  0  0  0  0
    3.0396    0.2291   -1.3583 H   0  0  0  0  0  0  0  0  0  0  0  0
   -2.1866    1.1528   -1.7913 H   0  0  0  0  0  0  0  0  0  0  0  0
   -3.9086    1.6278   -1.8376 H   0  0  0  0  0  0  0  0  0  0  0  0
   -5.2780    1.3425    0.2959 H   0  0  0  0  0  0  0  0  0  0  0  0
   -4.4518    0.8123    1.7716 H   0  0  0  0  0  0  0  0  0  0  0  0
    2.5902    1.4055    1.3005 H   0  0  0  0  0  0  0  0  0  0  0  0
    3.1506   -1.2948    1.3098 H   0  0  0  0  0  0  0  0  0  0  0  0
    4.1190   -1.8052   -0.0606 H   0  0  0  0  0  0  0  0  0  0  0  0
   -3.5788   -0.6364   -2.7859 H   0  0  0  0  0  0  0  0  0  0  0  0
   -2.7318   -1.1765   -1.3287 H   0  0  0  0  0  0  0  0  0  0  0  0
   -3.9732   -1.4186    0.7028 H   0  0  0  0  0  0  0  0  0  0  0  0
   -5.7110   -1.0720    0.6793 H   0  0  0  0  0  0  0  0  0  0  0  0
    2.3365   -1.8986   -2.5980 H   0  0  0  0  0  0  0  0  0  0  0  0
    0.2575   -3.2762   -2.7219 H   0  0  0  0  0  0  0  0  0  0  0  0
    1.3594   -2.4521    2.4776 H   0  0  0  0  0  0  0  0  0  0  0  0
   -1.6131   -4.4843   -0.9932 H   0  0  0  0  0  0  0  0  0  0  0  0
    5.2055    0.0770   -1.9607 H   0  0  0  0  0  0  0  0  0  0  0  0
    6.4526    0.8863   -1.0821 H   0  0  0  0  0  0  0  0  0  0  0  0
   -0.6322   -3.7611    3.1379 H   0  0  0  0  0  0  0  0  0  0  0  0
   -2.1044   -4.7672    1.4314 H   0  0  0  0  0  0  0  0  0  0  0  0
  1 21  1  0  0  0  0
  1 22  1  0  0  0  0
  2 15  2  0  0  0  0
  3 16  2  0  0  0  0
  4 25  2  0  0  0  0
  5 11  1  0  0  0  0
  5 13  1  0  0  0  0
  5 15  1  0  0  0  0
  6 12  1  0  0  0  0
  6 14  1  0  0  0  0
  6 39  1  0  0  0  0
  7 15  1  0  0  0  0
  7 18  1  0  0  0  0
  7 19  1  0  0  0  0
  8 16  1  0  0  0  0
  8 17  1  0  0  0  0
  8 45  1  0  0  0  0
  9 26  1  0  0  0  0
  9 27  1  0  0  0  0
  9 53  1  0  0  0  0
 10 25  1  0  0  0  0
 10 56  1  0  0  0  0
 10 57  1  0  0  0  0
 11 12  1  0  0  0  0
 11 16  1  0  0  0  0
 11 32  1  0  0  0  0
 12 33  1  0  0  0  0
 12 34  1  0  0  0  0
 13 14  1  0  0  0  0
 13 35  1  0  0  0  0
 13 36  1  0  0  0  0
 14 37  1  0  0  0  0
 14 38  1  0  0  0  0
 17 20  1  0  0  0  0
 17 25  1  0  0  0  0
 17 40  1  0  0  0  0
 18 21  1  0  0  0  0
 18 41  1  0  0  0  0
 18 42  1  0  0  0  0
 19 22  1  0  0  0  0
 19 43  1  0  0  0  0
 19 44  1  0  0  0  0
 20 23  1  0  0  0  0
 20 46  1  0  0  0  0
 20 47  1  0  0  0  0
 21 48  1  0  0  0  0
 21 49  1  0  0  0  0
 22 50  1  0  0  0  0
 22 51  1  0  0  0  0
 23 24  1  0  0  0  0
 23 26  2  0  0  0  0
 24 27  1  0  0  0  0
 24 28  2  0  0  0  0
 26 52  1  0  0  0  0
 27 29  2  0  0  0  0
 28 30  1  0  0  0  0
 28 54  1  0  0  0  0
 29 31  1  0  0  0  0
 29 55  1  0  0  0  0
 30 31  2  0  0  0  0
 30 58  1  0  0  0  0
 31 59  1  0  0  0  0
M  END
> <PUBCHEM_COMPOUND_CID>
25391123

> <PUBCHEM_CONFORMER_RMSD>
1.2

> <PUBCHEM_CONFORMER_DIVERSEORDER>
1
9
21
136
128
113
155
99
105
23
143
86
91
159
69
44
24
142
168
182
45
64
146
127
106
89
148
166
151
172
41
70
112
94
140
47
183
114
137
68
8
154
74
158
110
35
34
138
53
173
115
178
77
135
150
131
82
175
167
25
108
84
63
181
176
36
90
180
160
20
22
119
149
157
145
129
58
32
92
62
164
109
144
152
126
171
184
83
72
29
48
78
56
85
104
54
66
57
2
88
73
49
81
132
100
95
165
120
116
123
59
80
156
153
7
17
65
133
103
13
33
52
162
75
10
124
121
46
28
39
27
134
31
18
169
170
174
147
50
163
179
67
102
12
107
60
40
11
139
51
42
98
111
3
37
125
55
43
71
96
141
38
14
61
117
97
101
118
76
87
26
30
79
19
122
6
93
130
177
5
4
15
161
16

> <PUBCHEM_MMFF94_PARTIAL_CHARGES>
40
1 -0.56
10 -0.8
11 0.36
12 0.27
13 0.3
14 0.27
15 0.69
16 0.57
17 0.36
18 0.3
19 0.3
2 -0.57
20 0.18
21 0.28
22 0.28
23 -0.18
25 0.57
26 -0.3
27 -0.15
28 -0.15
29 -0.15
3 -0.57
30 -0.15
31 -0.15
39 0.36
4 -0.57
45 0.37
5 -0.66
52 0.15
53 0.27
54 0.15
55 0.15
56 0.37
57 0.37
58 0.15
59 0.15
6 -0.9
7 -0.66
8 -0.73
9 0.03

> <PUBCHEM_EFFECTIVE_ROTOR_COUNT>
10.4

> <PUBCHEM_PHARMACOPHORE_FEATURES>
14
1 1 acceptor
1 10 donor
1 2 acceptor
1 3 acceptor
1 4 acceptor
1 6 cation
1 6 donor
1 8 donor
1 9 cation
1 9 donor
5 9 23 24 26 27 rings
6 1 7 18 19 21 22 rings
6 24 27 28 29 30 31 rings
6 5 6 11 12 13 14 rings

> <PUBCHEM_HEAVY_ATOM_COUNT>
31

> <PUBCHEM_ATOM_DEF_STEREO_COUNT>
2

> <PUBCHEM_ATOM_UDEF_STEREO_COUNT>
0

> <PUBCHEM_BOND_DEF_STEREO_COUNT>
0

> <PUBCHEM_BOND_UDEF_STEREO_COUNT>
0

> <PUBCHEM_ISOTOPIC_ATOM_COUNT>
0

> <PUBCHEM_COMPONENT_COUNT>
1

> <PUBCHEM_CACTVS_TAUTO_COUNT>
4

> <PUBCHEM_CONFORMER_ID>
0183701300000001

> <PUBCHEM_MMFF94_ENERGY>
73.3765

> <PUBCHEM_FEATURE_SELFOVERLAP>
71.14

> <PUBCHEM_SHAPE_FINGERPRINT>
10032420 55 18339910533567406300
10119406 146 18267035977464522590
10675989 125 17613139790427614661
1100329 8 18266175230724319516
11578080 2 17462844281176314813
12156800 1 17473316304844632743
12553582 1 18341323427346661389
13122387 1 17618785752360287927
13402501 40 18336551624502806787
13911987 19 18187090563273426740
14787075 74 18413108351227595724
17492 54 18409160034710111975
20764821 26 17907018735409338455
21133410 90 16986323939291545387
21421861 104 17905050252949771393
22113638 7 18267584787187307133
23559900 14 17618775856739937352
392239 28 18265332815649348506
463206 1 18410577241316955803
5309563 4 18337673014920361001
57527358 35 13098516347090085057

> <PUBCHEM_SHAPE_MULTIPOLES>
584.6
7.68
6.55
1.65
0.51
0.33
-0.06
-1.9
1.36
-0.06
-1.13
-0.4
1.02
0.29

> <PUBCHEM_SHAPE_SELFOVERLAP>
1246.194

> <PUBCHEM_SHAPE_VOLUME>
319.9

> <PUBCHEM_COORDINATE_TYPE>
2
5
10

$$$$
