45783695
  -OEChem-12032416263D

 44 46  0     1  0  0  0  0  0999 V2000
   -1.1012   -0.0655    2.0449 O   0  0  0  0  0  0  0  0  0  0  0  0
    5.8416   -0.0399   -1.0077 O   0  0  0  0  0  0  0  0  0  0  0  0
   -3.4686   -0.2168   -0.5476 N   0  0  1  0  0  0  0  0  0  0  0  0
   -0.4192   -0.7232    0.0154 N   0  0  0  0  0  0  0  0  0  0  0  0
    0.2811    0.1574    2.0075 N   0  0  0  0  0  0  0  0  0  0  0  0
    4.2801    0.3329    0.6676 N   0  0  0  0  0  0  0  0  0  0  0  0
   -2.8932   -0.9174    0.6179 C   0  0  1  0  0  0  0  0  0  0  0  0
   -3.1267   -2.4120    0.3302 C   0  0  0  0  0  0  0  0  0  0  0  0
   -4.5326   -1.0781   -1.0638 C   0  0  0  0  0  0  0  0  0  0  0  0
   -3.8919   -2.4491   -0.9851 C   0  0  0  0  0  0  0  0  0  0  0  0
   -3.9512    1.1217   -0.2325 C   0  0  0  0  0  0  0  0  0  0  0  0
   -2.8239    2.1685   -0.2358 C   0  0  0  0  0  0  0  0  0  0  0  0
   -1.4316   -0.5851    0.8336 C   0  0  0  0  0  0  0  0  0  0  0  0
   -3.3179    3.5648    0.1517 C   0  0  0  0  0  0  0  0  0  0  0  0
   -2.1704    2.2195   -1.6194 C   0  0  0  0  0  0  0  0  0  0  0  0
    0.6098   -0.2547    0.7794 C   0  0  0  0  0  0  0  0  0  0  0  0
    1.9561   -0.2132    0.2862 C   0  0  0  0  0  0  0  0  0  0  0  0
    2.2622   -0.6521   -0.9973 C   0  0  0  0  0  0  0  0  0  0  0  0
    2.9918    0.2660    1.0719 C   0  0  0  0  0  0  0  0  0  0  0  0
    3.5761   -0.5991   -1.4492 C   0  0  0  0  0  0  0  0  0  0  0  0
    4.5394   -0.1025   -0.5858 C   0  0  0  0  0  0  0  0  0  0  0  0
    6.7900    0.4779   -0.0822 C   0  0  0  0  0  0  0  0  0  0  0  0
   -3.4484   -0.6716    1.5340 H   0  0  0  0  0  0  0  0  0  0  0  0
   -2.2063   -3.0020    0.2618 H   0  0  0  0  0  0  0  0  0  0  0  0
   -3.7449   -2.8474    1.1249 H   0  0  0  0  0  0  0  0  0  0  0  0
   -5.4293   -1.0404   -0.4322 H   0  0  0  0  0  0  0  0  0  0  0  0
   -4.8088   -0.8221   -2.0914 H   0  0  0  0  0  0  0  0  0  0  0  0
   -4.6274   -3.2584   -1.0133 H   0  0  0  0  0  0  0  0  0  0  0  0
   -3.1933   -2.5934   -1.8186 H   0  0  0  0  0  0  0  0  0  0  0  0
   -4.6843    1.4320   -0.9905 H   0  0  0  0  0  0  0  0  0  0  0  0
   -4.4888    1.1411    0.7245 H   0  0  0  0  0  0  0  0  0  0  0  0
   -2.0588    1.9063    0.4994 H   0  0  0  0  0  0  0  0  0  0  0  0
   -4.0757    3.9262   -0.5516 H   0  0  0  0  0  0  0  0  0  0  0  0
   -2.4919    4.2837    0.1614 H   0  0  0  0  0  0  0  0  0  0  0  0
   -3.7633    3.5513    1.1519 H   0  0  0  0  0  0  0  0  0  0  0  0
   -2.9004    2.4713   -2.3965 H   0  0  0  0  0  0  0  0  0  0  0  0
   -1.3819    2.9800   -1.6440 H   0  0  0  0  0  0  0  0  0  0  0  0
   -1.7039    1.2660   -1.8860 H   0  0  0  0  0  0  0  0  0  0  0  0
    1.4982   -1.0394   -1.6664 H   0  0  0  0  0  0  0  0  0  0  0  0
    2.8371    0.6275    2.0843 H   0  0  0  0  0  0  0  0  0  0  0  0
    3.8316   -0.9373   -2.4474 H   0  0  0  0  0  0  0  0  0  0  0  0
    6.5583    1.5160    0.1784 H   0  0  0  0  0  0  0  0  0  0  0  0
    6.8446   -0.1472    0.8155 H   0  0  0  0  0  0  0  0  0  0  0  0
    7.7725    0.4627   -0.5633 H   0  0  0  0  0  0  0  0  0  0  0  0
  1  5  1  0  0  0  0
  1 13  1  0  0  0  0
  2 21  1  0  0  0  0
  2 22  1  0  0  0  0
  3  7  1  0  0  0  0
  3  9  1  0  0  0  0
  3 11  1  0  0  0  0
  4 13  2  0  0  0  0
  4 16  1  0  0  0  0
  5 16  2  0  0  0  0
  6 19  1  0  0  0  0
  6 21  2  0  0  0  0
  7  8  1  0  0  0  0
  7 13  1  0  0  0  0
  7 23  1  0  0  0  0
  8 10  1  0  0  0  0
  8 24  1  0  0  0  0
  8 25  1  0  0  0  0
  9 10  1  0  0  0  0
  9 26  1  0  0  0  0
  9 27  1  0  0  0  0
 10 28  1  0  0  0  0
 10 29  1  0  0  0  0
 11 12  1  0  0  0  0
 11 30  1  0  0  0  0
 11 31  1  0  0  0  0
 12 14  1  0  0  0  0
 12 15  1  0  0  0  0
 12 32  1  0  0  0  0
 14 33  1  0  0  0  0
 14 34  1  0  0  0  0
 14 35  1  0  0  0  0
 15 36  1  0  0  0  0
 15 37  1  0  0  0  0
 15 38  1  0  0  0  0
 16 17  1  0  0  0  0
 17 18  1  0  0  0  0
 17 19  2  0  0  0  0
 18 20  2  0  0  0  0
 18 39  1  0  0  0  0
 19 40  1  0  0  0  0
 20 21  1  0  0  0  0
 20 41  1  0  0  0  0
 22 42  1  0  0  0  0
 22 43  1  0  0  0  0
 22 44  1  0  0  0  0
M  END
> <PUBCHEM_COMPOUND_CID>
45783695

> <PUBCHEM_CONFORMER_RMSD>
0.8

> <PUBCHEM_CONFORMER_DIVERSEORDER>
1
13
18
9
19
8
23
10
4
5
21
16
20
14
2
7
12
15
6
22
3
17
11

> <PUBCHEM_MMFF94_PARTIAL_CHARGES>
20
1 -0.02
11 0.27
13 0.3
16 0.46
17 0.05
18 -0.15
19 0.16
2 -0.36
20 -0.15
21 0.39
22 0.28
3 -0.81
39 0.15
4 -0.57
40 0.15
41 0.15
5 -0.41
6 -0.62
7 0.45
9 0.27

> <PUBCHEM_EFFECTIVE_ROTOR_COUNT>
6

> <PUBCHEM_PHARMACOPHORE_FEATURES>
6
1 3 cation
3 12 14 15 hydrophobe
3 4 5 16 cation
5 1 4 5 13 16 rings
5 3 7 8 9 10 rings
6 6 17 18 19 20 21 rings

> <PUBCHEM_HEAVY_ATOM_COUNT>
22

> <PUBCHEM_ATOM_DEF_STEREO_COUNT>
1

> <PUBCHEM_ATOM_UDEF_STEREO_COUNT>
0

> <PUBCHEM_BOND_DEF_STEREO_COUNT>
0

> <PUBCHEM_BOND_UDEF_STEREO_COUNT>
0

> <PUBCHEM_ISOTOPIC_ATOM_COUNT>
0

> <PUBCHEM_COMPONENT_COUNT>
1

> <PUBCHEM_CACTVS_TAUTO_COUNT>
1

> <PUBCHEM_CONFORMER_ID>
02BA9A8F00000001

> <PUBCHEM_MMFF94_ENERGY>
41.6702

> <PUBCHEM_FEATURE_SELFOVERLAP>
30.447

> <PUBCHEM_SHAPE_FINGERPRINT>
10087517 78 18113617885344864460
10165383 225 18129669582942791041
10291535 26 18333739013186198153
10937287 8 17689431590638133949
11089746 13 17748825255007963708
11101153 10 18191031307774643292
11315181 36 17458349680338579444
12236239 1 17240475905822300251
12507557 5 14851607691047087454
12670546 177 18271810163323466900
12788726 201 18334848416745986667
14251764 38 18334299811883834724
14251764 75 17685209470177252037
14713325 29 18336273379357275003
15183329 4 17458624485331748026
15348495 7 7925626688233863670
15463212 79 18188487969796095275
15961568 22 18118956134435871172
17093844 174 12324239512192596716
17818456 19 17903055756131586474
17980427 23 17749120997512624100
1813 80 14836136497466638664
19433438 38 18201721751561219990
19489759 90 18333449854892490946
200 152 16128659630708933186
20300324 65 18260829310716454005
20645477 56 18411704244983024793
20871999 31 18412825784996836979
21033650 10 18117297886332700532
21756936 100 17603595084146648025
22393880 68 18271250404831914446
22620623 9 18343297059719514349
2297311 6 18410575132551635231
23402539 116 17967813872967090262
235170 7 18202847655915738148
23557571 272 18343302560987285221
23559900 14 17561360712399198410
3268164 11 18335415772887200845
441001 317 18333452036651650132
484985 159 14045728353594803133
4921388 177 18271810099210180741
5104073 3 14346367874060049436
5283173 99 18342175540563567960
531348 171 18339082579889614854
621550 5 17916020347301829691
633830 44 17096371639763875978

> <PUBCHEM_SHAPE_MULTIPOLES>
421.09
12.39
2.52
1.5
18.47
1.7
0.24
0.25
-3.77
-5.59
-0.52
0.1
-0.01
0.18

> <PUBCHEM_SHAPE_SELFOVERLAP>
887.156

> <PUBCHEM_SHAPE_VOLUME>
240.1

> <PUBCHEM_COORDINATE_TYPE>
2
5
10

$$$$
