75536715
  -OEChem-12032416413D

 47 49  0     1  0  0  0  0  0999 V2000
    3.8354    1.8056    0.0451 S   0  0  0  0  0  0  0  0  0  0  0  0
   -0.5168    1.4262   -1.2898 O   0  0  0  0  0  0  0  0  0  0  0  0
   -1.2933    1.0307    2.1953 O   0  0  0  0  0  0  0  0  0  0  0  0
    3.8392    2.2406    1.4289 O   0  0  0  0  0  0  0  0  0  0  0  0
    4.6139    2.5223   -0.9468 O   0  0  0  0  0  0  0  0  0  0  0  0
   -3.5470    0.0918    0.2165 N   0  0  0  0  0  0  0  0  0  0  0  0
    2.2293    1.6753   -0.5003 N   0  0  0  0  0  0  0  0  0  0  0  0
   -6.6938   -0.7347   -1.1821 N   0  0  0  0  0  0  0  0  0  0  0  0
   -7.5563   -1.7082    0.6180 N   0  0  0  0  0  0  0  0  0  0  0  0
   -2.4418    1.0200    0.0410 C   0  0  1  0  0  0  0  0  0  0  0  0
   -1.2035    0.6499    0.8361 C   0  0  1  0  0  0  0  0  0  0  0  0
   -0.1325    1.4389    0.0951 C   0  0  1  0  0  0  0  0  0  0  0  0
   -1.8966    1.0294   -1.3777 C   0  0  0  0  0  0  0  0  0  0  0  0
    1.2592    0.8511    0.2470 C   0  0  0  0  0  0  0  0  0  0  0  0
   -4.7936    0.6590   -0.2836 C   0  0  0  0  0  0  0  0  0  0  0  0
   -5.9470   -0.2956   -0.1251 C   0  0  0  0  0  0  0  0  0  0  0  0
    4.3699    0.1212    0.0022 C   0  0  0  0  0  0  0  0  0  0  0  0
   -6.4983   -0.9099    0.9745 C   0  0  0  0  0  0  0  0  0  0  0  0
    4.9553   -0.3950   -1.1539 C   0  0  0  0  0  0  0  0  0  0  0  0
    4.2035   -0.6924    1.1229 C   0  0  0  0  0  0  0  0  0  0  0  0
   -7.6473   -1.5801   -0.6871 C   0  0  0  0  0  0  0  0  0  0  0  0
    5.3745   -1.7248   -1.1891 C   0  0  0  0  0  0  0  0  0  0  0  0
    4.6227   -2.0223    1.0876 C   0  0  0  0  0  0  0  0  0  0  0  0
    5.2084   -2.5386   -0.0684 C   0  0  0  0  0  0  0  0  0  0  0  0
    5.6566   -3.9605   -0.1062 C   0  0  0  0  0  0  0  0  0  0  0  0
   -2.7469    2.0333    0.3389 H   0  0  0  0  0  0  0  0  0  0  0  0
   -1.0081   -0.4285    0.7833 H   0  0  0  0  0  0  0  0  0  0  0  0
   -0.1224    2.4869    0.4225 H   0  0  0  0  0  0  0  0  0  0  0  0
   -1.9175    0.0352   -1.8389 H   0  0  0  0  0  0  0  0  0  0  0  0
   -2.4319    1.7243   -2.0319 H   0  0  0  0  0  0  0  0  0  0  0  0
    1.2914   -0.1613   -0.1708 H   0  0  0  0  0  0  0  0  0  0  0  0
    1.5250    0.8100    1.3075 H   0  0  0  0  0  0  0  0  0  0  0  0
   -3.6517   -0.1153    1.2101 H   0  0  0  0  0  0  0  0  0  0  0  0
   -4.6952    0.9213   -1.3440 H   0  0  0  0  0  0  0  0  0  0  0  0
   -5.0418    1.5789    0.2608 H   0  0  0  0  0  0  0  0  0  0  0  0
    2.0440    1.7807   -1.5056 H   0  0  0  0  0  0  0  0  0  0  0  0
   -1.4672    1.9864    2.2342 H   0  0  0  0  0  0  0  0  0  0  0  0
   -6.5672   -0.4829   -2.1534 H   0  0  0  0  0  0  0  0  0  0  0  0
   -6.1895   -0.8191    2.0060 H   0  0  0  0  0  0  0  0  0  0  0  0
    5.0877    0.2184   -2.0406 H   0  0  0  0  0  0  0  0  0  0  0  0
    3.7479   -0.3119    2.0327 H   0  0  0  0  0  0  0  0  0  0  0  0
   -8.3715   -2.0657   -1.3256 H   0  0  0  0  0  0  0  0  0  0  0  0
    5.8294   -2.1156   -2.0955 H   0  0  0  0  0  0  0  0  0  0  0  0
    4.4887   -2.6460    1.9675 H   0  0  0  0  0  0  0  0  0  0  0  0
    5.5820   -4.3716   -1.1187 H   0  0  0  0  0  0  0  0  0  0  0  0
    5.0344   -4.5883    0.5407 H   0  0  0  0  0  0  0  0  0  0  0  0
    6.6964   -4.0355    0.2272 H   0  0  0  0  0  0  0  0  0  0  0  0
  1  4  2  0  0  0  0
  1  5  2  0  0  0  0
  1  7  1  0  0  0  0
  1 17  1  0  0  0  0
  2 12  1  0  0  0  0
  2 13  1  0  0  0  0
  3 11  1  0  0  0  0
  3 37  1  0  0  0  0
  6 10  1  0  0  0  0
  6 15  1  0  0  0  0
  6 33  1  0  0  0  0
  7 14  1  0  0  0  0
  7 36  1  0  0  0  0
  8 16  1  0  0  0  0
  8 21  1  0  0  0  0
  8 38  1  0  0  0  0
  9 18  1  0  0  0  0
  9 21  2  0  0  0  0
 10 11  1  0  0  0  0
 10 13  1  0  0  0  0
 10 26  1  0  0  0  0
 11 12  1  0  0  0  0
 11 27  1  0  0  0  0
 12 14  1  0  0  0  0
 12 28  1  0  0  0  0
 13 29  1  0  0  0  0
 13 30  1  0  0  0  0
 14 31  1  0  0  0  0
 14 32  1  0  0  0  0
 15 16  1  0  0  0  0
 15 34  1  0  0  0  0
 15 35  1  0  0  0  0
 16 18  2  0  0  0  0
 17 19  2  0  0  0  0
 17 20  1  0  0  0  0
 18 39  1  0  0  0  0
 19 22  1  0  0  0  0
 19 40  1  0  0  0  0
 20 23  2  0  0  0  0
 20 41  1  0  0  0  0
 21 42  1  0  0  0  0
 22 24  2  0  0  0  0
 22 43  1  0  0  0  0
 23 24  1  0  0  0  0
 23 44  1  0  0  0  0
 24 25  1  0  0  0  0
 25 45  1  0  0  0  0
 25 46  1  0  0  0  0
 25 47  1  0  0  0  0
M  END
> <PUBCHEM_COMPOUND_CID>
75536715

> <PUBCHEM_CONFORMER_RMSD>
1.2

> <PUBCHEM_CONFORMER_DIVERSEORDER>
1
46
24
33
44
119
39
31
41
47
43
96
79
34
85
9
102
123
67
59
21
116
72
125
5
22
70
124
80
14
32
88
57
121
104
6
94
73
64
117
53
10
17
55
45
99
35
101
25
3
127
82
126
63
15
110
90
29
120
61
114
106
48
49
109
42
74
76
66
19
13
84
103
91
122
111
81
37
105
18
30
56
108
112
113
51
97
2
83
11
77
107
89
28
16
4
95
50
115
20
12
92
38
75
27
7
87
23
100
86
118
60
71
58
54
52
8
26
65
78
36
98
68
40
62
69
93

> <PUBCHEM_MMFF94_PARTIAL_CHARGES>
35
1 1.45
10 0.27
11 0.28
12 0.28
13 0.28
14 0.36
15 0.45
16 -0.33
17 -0.01
18 0.08
19 -0.15
2 -0.56
20 -0.15
21 0.04
22 -0.15
23 -0.15
24 -0.14
25 0.14
3 -0.68
33 0.36
36 0.42
37 0.4
38 0.27
39 0.15
4 -0.65
40 0.15
41 0.15
42 0.15
43 0.15
44 0.15
5 -0.65
6 -0.9
7 -0.91
8 0.03
9 -0.57

> <PUBCHEM_EFFECTIVE_ROTOR_COUNT>
8

> <PUBCHEM_PHARMACOPHORE_FEATURES>
13
1 2 acceptor
1 3 acceptor
1 3 donor
1 4 acceptor
1 5 acceptor
1 6 cation
1 6 donor
1 7 donor
1 8 donor
3 8 9 21 cation
5 2 10 11 12 13 rings
5 8 9 16 18 21 rings
6 17 19 20 22 23 24 rings

> <PUBCHEM_HEAVY_ATOM_COUNT>
25

> <PUBCHEM_ATOM_DEF_STEREO_COUNT>
3

> <PUBCHEM_ATOM_UDEF_STEREO_COUNT>
0

> <PUBCHEM_BOND_DEF_STEREO_COUNT>
0

> <PUBCHEM_BOND_UDEF_STEREO_COUNT>
0

> <PUBCHEM_ISOTOPIC_ATOM_COUNT>
0

> <PUBCHEM_COMPONENT_COUNT>
1

> <PUBCHEM_CACTVS_TAUTO_COUNT>
2

> <PUBCHEM_CONFORMER_ID>
0480994B00000001

> <PUBCHEM_MMFF94_ENERGY>
33.586

> <PUBCHEM_FEATURE_SELFOVERLAP>
65.99

> <PUBCHEM_SHAPE_FINGERPRINT>
10 15 13902188205773234987
10316853 100 18408323280919261450
11408170 132 17096348581012658047
11463208 1 18261686973201419723
117089 54 18054235319692455166
11719270 70 17703792509755659047
125118 31 9943538414102329795
13073987 5 18272931617834384505
13533116 47 18342739632735502016
1361 2 18260267473059543538
1361 4 18338516464714198855
13782708 43 18411978057838150277
13955234 65 18271518806255412112
14251740 57 18408881815782705400
14251764 75 10230879285495149994
14347332 77 18334853870890436581
14931854 50 12468935139387583262
15183329 4 14634866449190962935
15352257 5 18409167749099454239
15475509 35 18131344211506792466
20028762 73 18272369728880478942
20165401 70 18342452656001364991
20281389 69 10375880675699974215
20397935 70 18342737429591183320
20505436 4 17344905454967108212
20645477 70 18333731295900048252
21130935 74 18413109489852982219
21344244 181 18114184150860070875
21344244 78 18059845161324307112
21521239 73 18113896078923869091
21637258 2 18343577439484819557
21641784 216 14924216093635247269
21682296 61 18336267860413697347
21792934 111 15051463661292791305
220451 1 18059576953084503981
22122407 14 8718546159571690967
2215653 11 17603309245261351929
2303208 19 18260543420787903733
23081809 10 18343872130155495665
23522609 53 18123786142571149657
23559900 14 17023199222861599356
23569943 247 18189335658996929043
270888 7 8934128457340458678
2748736 6 9295283924602382407
2838139 119 9151181922192085651
328310 630 11530478909827599967
33382 64 18412826889009205905
33532 11 18412262870305617383
3472631 163 11530776894131056202
34797466 226 17603585274415132533
3886686 26 16336976195720044670
397830 11 10735867418247936069
46194498 28 17894911832888334188
465052 167 18343302535686798398
5104073 3 17632578223339402089
5718773 13 18263641775762075178
59682541 52 18186799175596254727
6898599 12 11459008488884168633
7970288 3 18196091032942577654
9831232 110 18334573495261804047

> <PUBCHEM_SHAPE_MULTIPOLES>
474.94
21.28
3.09
1.36
32.23
1.83
0.2
17.65
-1.94
-6.03
-0.07
-0.17
-0.2
0.13

> <PUBCHEM_SHAPE_SELFOVERLAP>
986.401

> <PUBCHEM_SHAPE_VOLUME>
272.4

> <PUBCHEM_COORDINATE_TYPE>
2
5
10

$$$$
