40777673
  -OEChem-12032416183D

 50 53  0     1  0  0  0  0  0999 V2000
    7.0778   -0.8251    0.3297 S   0  0  0  0  0  0  0  0  0  0  0  0
   -8.2643    0.1178    0.4974 F   0  0  0  0  0  0  0  0  0  0  0  0
   -7.5663    2.1736    0.3788 F   0  0  0  0  0  0  0  0  0  0  0  0
   -7.9467    1.0540   -1.4393 F   0  0  0  0  0  0  0  0  0  0  0  0
    5.1006    2.3648   -0.6840 O   0  0  0  0  0  0  0  0  0  0  0  0
    4.4861    0.5378    0.6065 N   0  0  0  0  0  0  0  0  0  0  0  0
   -2.0603   -0.9428   -0.1556 N   0  0  0  0  0  0  0  0  0  0  0  0
   -1.7755   -2.1454   -0.6838 N   0  0  0  0  0  0  0  0  0  0  0  0
    1.5441   -0.8809    0.4965 C   0  0  2  0  0  0  0  0  0  0  0  0
    2.1316    0.3927   -0.1469 C   0  0  0  0  0  0  0  0  0  0  0  0
    3.1019    0.9763    0.8856 C   0  0  1  0  0  0  0  0  0  0  0  0
    0.0976   -1.1230    0.1311 C   0  0  0  0  0  0  0  0  0  0  0  0
    1.7903   -0.6489    1.9590 C   0  0  0  0  0  0  0  0  0  0  0  0
    2.6434    0.3595    2.1650 C   0  0  0  0  0  0  0  0  0  0  0  0
   -0.9730   -0.2897    0.3458 C   0  0  0  0  0  0  0  0  0  0  0  0
   -0.4558   -2.2499   -0.5058 C   0  0  0  0  0  0  0  0  0  0  0  0
   -1.0471    1.0458    0.9726 C   0  0  0  0  0  0  0  0  0  0  0  0
    0.2438   -3.4617   -0.9679 C   0  0  0  0  0  0  0  0  0  0  0  0
   -3.3762   -0.4790   -0.1602 C   0  0  0  0  0  0  0  0  0  0  0  0
    5.3692    1.2850   -0.1641 C   0  0  0  0  0  0  0  0  0  0  0  0
   -4.3736   -1.2019    0.4945 C   0  0  0  0  0  0  0  0  0  0  0  0
   -3.6948    0.7060   -0.8233 C   0  0  0  0  0  0  0  0  0  0  0  0
    6.7159    0.6938   -0.3733 C   0  0  0  0  0  0  0  0  0  0  0  0
   -5.6895   -0.7394    0.4860 C   0  0  0  0  0  0  0  0  0  0  0  0
   -5.0107    1.1683   -0.8318 C   0  0  0  0  0  0  0  0  0  0  0  0
   -6.0081    0.4457   -0.1769 C   0  0  0  0  0  0  0  0  0  0  0  0
    7.7814    1.2018   -1.0835 C   0  0  0  0  0  0  0  0  0  0  0  0
   -7.4153    0.9393   -0.1862 C   0  0  0  0  0  0  0  0  0  0  0  0
    8.9097    0.3323   -1.0501 C   0  0  0  0  0  0  0  0  0  0  0  0
    8.6637   -0.8068   -0.3158 C   0  0  0  0  0  0  0  0  0  0  0  0
    2.1442   -1.7481    0.1916 H   0  0  0  0  0  0  0  0  0  0  0  0
    2.6153    0.1613   -1.1038 H   0  0  0  0  0  0  0  0  0  0  0  0
    1.3564    1.1355   -0.3688 H   0  0  0  0  0  0  0  0  0  0  0  0
    3.0569    2.0695    0.9038 H   0  0  0  0  0  0  0  0  0  0  0  0
    1.3606   -1.2480    2.7497 H   0  0  0  0  0  0  0  0  0  0  0  0
    2.9770    0.6803    3.1416 H   0  0  0  0  0  0  0  0  0  0  0  0
    4.7877   -0.3634    0.9673 H   0  0  0  0  0  0  0  0  0  0  0  0
   -0.1974    1.2420    1.6303 H   0  0  0  0  0  0  0  0  0  0  0  0
   -1.9424    1.1534    1.5938 H   0  0  0  0  0  0  0  0  0  0  0  0
   -1.0581    1.8304    0.2094 H   0  0  0  0  0  0  0  0  0  0  0  0
    0.7306   -3.9680   -0.1280 H   0  0  0  0  0  0  0  0  0  0  0  0
   -0.4420   -4.1761   -1.4356 H   0  0  0  0  0  0  0  0  0  0  0  0
    1.0110   -3.2046   -1.7055 H   0  0  0  0  0  0  0  0  0  0  0  0
   -4.1422   -2.1257    1.0193 H   0  0  0  0  0  0  0  0  0  0  0  0
   -2.9361    1.2766   -1.3532 H   0  0  0  0  0  0  0  0  0  0  0  0
   -6.4513   -1.3167    1.0025 H   0  0  0  0  0  0  0  0  0  0  0  0
   -5.2501    2.0908   -1.3541 H   0  0  0  0  0  0  0  0  0  0  0  0
    7.7602    2.1505   -1.6046 H   0  0  0  0  0  0  0  0  0  0  0  0
    9.8538    0.5322   -1.5398 H   0  0  0  0  0  0  0  0  0  0  0  0
    9.3394   -1.6292   -0.1274 H   0  0  0  0  0  0  0  0  0  0  0  0
  1 23  1  0  0  0  0
  1 30  1  0  0  0  0
  2 28  1  0  0  0  0
  3 28  1  0  0  0  0
  4 28  1  0  0  0  0
  5 20  2  0  0  0  0
  6 11  1  0  0  0  0
  6 20  1  0  0  0  0
  6 37  1  0  0  0  0
  7  8  1  0  0  0  0
  7 15  1  0  0  0  0
  7 19  1  0  0  0  0
  8 16  2  0  0  0  0
  9 10  1  0  0  0  0
  9 12  1  0  0  0  0
  9 13  1  0  0  0  0
  9 31  1  0  0  0  0
 10 11  1  0  0  0  0
 10 32  1  0  0  0  0
 10 33  1  0  0  0  0
 11 14  1  0  0  0  0
 11 34  1  0  0  0  0
 12 15  2  0  0  0  0
 12 16  1  0  0  0  0
 13 14  2  0  0  0  0
 13 35  1  0  0  0  0
 14 36  1  0  0  0  0
 15 17  1  0  0  0  0
 16 18  1  0  0  0  0
 17 38  1  0  0  0  0
 17 39  1  0  0  0  0
 17 40  1  0  0  0  0
 18 41  1  0  0  0  0
 18 42  1  0  0  0  0
 18 43  1  0  0  0  0
 19 21  2  0  0  0  0
 19 22  1  0  0  0  0
 20 23  1  0  0  0  0
 21 24  1  0  0  0  0
 21 44  1  0  0  0  0
 22 25  2  0  0  0  0
 22 45  1  0  0  0  0
 23 27  2  0  0  0  0
 24 26  2  0  0  0  0
 24 46  1  0  0  0  0
 25 26  1  0  0  0  0
 25 47  1  0  0  0  0
 26 28  1  0  0  0  0
 27 29  1  0  0  0  0
 27 48  1  0  0  0  0
 29 30  2  0  0  0  0
 29 49  1  0  0  0  0
 30 50  1  0  0  0  0
M  END
> <PUBCHEM_COMPOUND_CID>
40777673

> <PUBCHEM_CONFORMER_RMSD>
0.8

> <PUBCHEM_CONFORMER_DIVERSEORDER>
1
39
43
17
44
53
32
31
29
20
51
41
57
5
26
13
35
18
7
56
6
4
25
38
52
10
46
30
50
12
54
3
9
55
22
28
36
23
37
14
24
40
49
42
15
21
47
33
34
11
8
16
2
19
45
27
48

> <PUBCHEM_MMFF94_PARTIAL_CHARGES>
39
1 -0.08
11 0.44
12 -0.18
13 -0.29
14 -0.29
15 -0.33
16 0.11
17 0.18
18 0.18
19 -0.02
2 -0.34
20 0.71
21 -0.15
22 -0.15
23 -0.05
24 -0.15
25 -0.15
26 -0.14
27 -0.15
28 1.16
29 -0.15
3 -0.34
30 -0.11
35 0.15
36 0.15
37 0.37
4 -0.34
44 0.15
45 0.15
46 0.15
47 0.15
48 0.15
49 0.15
5 -0.57
50 0.15
6 -0.73
7 0.59
8 -0.71
9 0.32

> <PUBCHEM_EFFECTIVE_ROTOR_COUNT>
6.6

> <PUBCHEM_PHARMACOPHORE_FEATURES>
7
1 5 acceptor
1 6 donor
1 8 acceptor
5 1 23 27 29 30 rings
5 7 8 12 15 16 rings
5 9 10 11 13 14 rings
6 19 21 22 24 25 26 rings

> <PUBCHEM_HEAVY_ATOM_COUNT>
30

> <PUBCHEM_ATOM_DEF_STEREO_COUNT>
2

> <PUBCHEM_ATOM_UDEF_STEREO_COUNT>
0

> <PUBCHEM_BOND_DEF_STEREO_COUNT>
0

> <PUBCHEM_BOND_UDEF_STEREO_COUNT>
0

> <PUBCHEM_ISOTOPIC_ATOM_COUNT>
0

> <PUBCHEM_COMPONENT_COUNT>
1

> <PUBCHEM_CACTVS_TAUTO_COUNT>
2

> <PUBCHEM_CONFORMER_ID>
026E37C900000001

> <PUBCHEM_MMFF94_ENERGY>
66.7209

> <PUBCHEM_FEATURE_SELFOVERLAP>
35.523

> <PUBCHEM_SHAPE_FINGERPRINT>
10 15 17676204663677041625
10165383 225 18342739611476858751
10369192 42 18407755933029261429
10483366 6 18202284693404579504
106641 1 13479136800044252009
10669705 176 18342172306574591527
10670039 82 17989490688911400377
10674148 151 17275385391535430640
10883706 17 13110381525443687941
11135609 127 18199744912351360984
11135609 99 10519694605821558232
11408170 108 14764083229283646188
11991303 11 18340200903279300302
12236239 1 18114178670470614250
12516196 113 7925915889202799995
14117953 113 18413108359643964172
14150022 121 14056988400339818135
14251764 18 10737286835633970929
14849402 71 16298395711807926404
14933364 13 17967813860171716020
15183329 4 18202286905513034370
15188451 53 11527955556263723916
15301273 46 14418126292864467362
15392192 104 14996285829403770200
15461852 350 18340198683545527647
15706992 2 17603596209681319177
1577012 14 18040988566486896146
15840311 113 17822013154935553164
15849732 13 18113620101468140262
15961568 22 18114179709916543085
16992610 120 16371019499269956794
18335252 114 18409722972005783740
18393751 57 13695587776185901768
190975 80 10809346641632745340
19309040 13 16808727519097286710
19611394 137 17896332483573490539
20505436 4 17967807271602870058
21033648 29 18199736102264999113
21223535 225 16343436028850054905
21344244 246 15769786723452245502
21585482 111 18263081008069252741
21781055 127 17845938416075741242
21792961 116 18272656744490861547
22149856 69 12901816156622777878
22224240 67 14418134028374822424
23559900 14 17702659012373208712
23576562 1 18196080265411730557
24771293 8 18261110739498811213
249057 3 18341613750636262844
3004659 81 18343303704651047674
3009799 131 16487257686366447930
335352 9 18273213114527829388
3711267 37 17821738225378660644
4149490 64 13038605414607771239
474113 269 16486701260816503030
5104073 3 13119097263589990013
5758199 1 16153426151588848864
59682541 35 11674882212735900276
6004065 56 12823293520635229378
6086070 43 17418087771278209626
6126387 218 9295294937230631071
6438161 24 12319734778282773493
9663363 56 16917066656347631848
9689198 14 17822013129365675944
9953998 17 15213304140433375089
9962374 69 11242268372198322185

> <PUBCHEM_SHAPE_MULTIPOLES>
578.6
26.54
2.17
1.27
8.17
1.27
-0.44
-11.59
7.52
-0.49
0.67
0.72
-0.07
-0.14

> <PUBCHEM_SHAPE_SELFOVERLAP>
1251.061

> <PUBCHEM_SHAPE_VOLUME>
322

> <PUBCHEM_COORDINATE_TYPE>
2
5
10

$$$$
