40587853
  -OEChem-12032416283D

 57 61  0     1  0  0  0  0  0999 V2000
   -0.7190    0.4517    2.1864 O   0  0  0  0  0  0  0  0  0  0  0  0
   -2.0542    3.1675    1.4262 O   0  0  0  0  0  0  0  0  0  0  0  0
    6.1321   -3.3643    1.1475 O   0  0  0  0  0  0  0  0  0  0  0  0
   -3.5544   -0.1492    1.0639 N   0  0  0  0  0  0  0  0  0  0  0  0
    0.5113    2.8505   -0.2756 N   0  0  0  0  0  0  0  0  0  0  0  0
    2.2386    1.3072   -0.4506 N   0  0  0  0  0  0  0  0  0  0  0  0
    1.7429    2.8381   -2.2445 N   0  0  0  0  0  0  0  0  0  0  0  0
   -2.1522    1.8380    0.8891 C   0  0  1  0  0  0  0  0  0  0  0  0
   -0.7718    1.2159    0.9699 C   0  0  1  0  0  0  0  0  0  0  0  0
   -3.0007    0.9687    1.7888 C   0  0  2  0  0  0  0  0  0  0  0  0
    0.1627    2.3997    1.0539 C   0  0  2  0  0  0  0  0  0  0  0  0
   -1.9994    0.5065    2.8325 C   0  0  0  0  0  0  0  0  0  0  0  0
   -0.6852    3.4438    1.7569 C   0  0  0  0  0  0  0  0  0  0  0  0
   -4.8026    0.2238    0.4171 C   0  0  0  0  0  0  0  0  0  0  0  0
    1.5433    2.3089   -1.0223 C   0  0  0  0  0  0  0  0  0  0  0  0
   -5.4023   -0.9251   -0.3491 C   0  0  0  0  0  0  0  0  0  0  0  0
   -5.0689   -1.1197   -1.6895 C   0  0  0  0  0  0  0  0  0  0  0  0
   -6.2915   -1.7950    0.2817 C   0  0  0  0  0  0  0  0  0  0  0  0
    3.2341    0.8008   -1.2075 C   0  0  0  0  0  0  0  0  0  0  0  0
    2.7535    2.2846   -2.9465 C   0  0  0  0  0  0  0  0  0  0  0  0
   -5.6248   -2.1841   -2.3991 C   0  0  0  0  0  0  0  0  0  0  0  0
   -6.8474   -2.8596   -0.4278 C   0  0  0  0  0  0  0  0  0  0  0  0
    3.5403    1.2539   -2.4744 C   0  0  0  0  0  0  0  0  0  0  0  0
   -6.5141   -3.0541   -1.7683 C   0  0  0  0  0  0  0  0  0  0  0  0
    3.9816   -0.2730   -0.5983 C   0  0  0  0  0  0  0  0  0  0  0  0
    5.3539   -0.1365   -0.3881 C   0  0  0  0  0  0  0  0  0  0  0  0
    3.3319   -1.4484   -0.2212 C   0  0  0  0  0  0  0  0  0  0  0  0
    6.0763   -1.1751    0.1990 C   0  0  0  0  0  0  0  0  0  0  0  0
    4.0544   -2.4871    0.3657 C   0  0  0  0  0  0  0  0  0  0  0  0
    5.4265   -2.3505    0.5758 C   0  0  0  0  0  0  0  0  0  0  0  0
    5.4053   -4.5379    1.5086 C   0  0  0  0  0  0  0  0  0  0  0  0
   -2.5132    1.9395   -0.1390 H   0  0  0  0  0  0  0  0  0  0  0  0
   -0.5685    0.5258    0.1447 H   0  0  0  0  0  0  0  0  0  0  0  0
   -3.7900    1.5304    2.3039 H   0  0  0  0  0  0  0  0  0  0  0  0
    1.0633    2.2104    1.6494 H   0  0  0  0  0  0  0  0  0  0  0  0
   -1.9240    1.2341    3.6490 H   0  0  0  0  0  0  0  0  0  0  0  0
   -2.2263   -0.4668    3.2791 H   0  0  0  0  0  0  0  0  0  0  0  0
   -0.4459    4.4742    1.4760 H   0  0  0  0  0  0  0  0  0  0  0  0
   -0.5916    3.3550    2.8449 H   0  0  0  0  0  0  0  0  0  0  0  0
   -3.7414   -0.9180    1.7081 H   0  0  0  0  0  0  0  0  0  0  0  0
   -0.0497    3.5675   -0.7216 H   0  0  0  0  0  0  0  0  0  0  0  0
   -4.6545    1.0626   -0.2746 H   0  0  0  0  0  0  0  0  0  0  0  0
   -5.5357    0.5696    1.1585 H   0  0  0  0  0  0  0  0  0  0  0  0
   -4.3758   -0.4499   -2.1917 H   0  0  0  0  0  0  0  0  0  0  0  0
   -6.5580   -1.6554    1.3261 H   0  0  0  0  0  0  0  0  0  0  0  0
    2.9182    2.7060   -3.9324 H   0  0  0  0  0  0  0  0  0  0  0  0
    4.3386    0.8382   -3.0768 H   0  0  0  0  0  0  0  0  0  0  0  0
   -5.3649   -2.3359   -3.4427 H   0  0  0  0  0  0  0  0  0  0  0  0
   -7.5394   -3.5374    0.0635 H   0  0  0  0  0  0  0  0  0  0  0  0
   -6.9468   -3.8830   -2.3207 H   0  0  0  0  0  0  0  0  0  0  0  0
    5.8787    0.7734   -0.6697 H   0  0  0  0  0  0  0  0  0  0  0  0
    2.2632   -1.5735   -0.3804 H   0  0  0  0  0  0  0  0  0  0  0  0
    7.1448   -1.0628    0.3611 H   0  0  0  0  0  0  0  0  0  0  0  0
    3.4877   -3.3723    0.6335 H   0  0  0  0  0  0  0  0  0  0  0  0
    6.1217   -5.2389    1.9493 H   0  0  0  0  0  0  0  0  0  0  0  0
    4.9747   -5.0307    0.6304 H   0  0  0  0  0  0  0  0  0  0  0  0
    4.6530   -4.3252    2.2758 H   0  0  0  0  0  0  0  0  0  0  0  0
  1  9  1  0  0  0  0
  1 12  1  0  0  0  0
  2  8  1  0  0  0  0
  2 13  1  0  0  0  0
  3 30  1  0  0  0  0
  3 31  1  0  0  0  0
  4 10  1  0  0  0  0
  4 14  1  0  0  0  0
  4 40  1  0  0  0  0
  5 11  1  0  0  0  0
  5 15  1  0  0  0  0
  5 41  1  0  0  0  0
  6 15  1  0  0  0  0
  6 19  2  0  0  0  0
  7 15  2  0  0  0  0
  7 20  1  0  0  0  0
  8  9  1  0  0  0  0
  8 10  1  0  0  0  0
  8 32  1  0  0  0  0
  9 11  1  0  0  0  0
  9 33  1  0  0  0  0
 10 12  1  0  0  0  0
 10 34  1  0  0  0  0
 11 13  1  0  0  0  0
 11 35  1  0  0  0  0
 12 36  1  0  0  0  0
 12 37  1  0  0  0  0
 13 38  1  0  0  0  0
 13 39  1  0  0  0  0
 14 16  1  0  0  0  0
 14 42  1  0  0  0  0
 14 43  1  0  0  0  0
 16 17  2  0  0  0  0
 16 18  1  0  0  0  0
 17 21  1  0  0  0  0
 17 44  1  0  0  0  0
 18 22  2  0  0  0  0
 18 45  1  0  0  0  0
 19 23  1  0  0  0  0
 19 25  1  0  0  0  0
 20 23  2  0  0  0  0
 20 46  1  0  0  0  0
 21 24  2  0  0  0  0
 21 48  1  0  0  0  0
 22 24  1  0  0  0  0
 22 49  1  0  0  0  0
 23 47  1  0  0  0  0
 24 50  1  0  0  0  0
 25 26  2  0  0  0  0
 25 27  1  0  0  0  0
 26 28  1  0  0  0  0
 26 51  1  0  0  0  0
 27 29  2  0  0  0  0
 27 52  1  0  0  0  0
 28 30  2  0  0  0  0
 28 53  1  0  0  0  0
 29 30  1  0  0  0  0
 29 54  1  0  0  0  0
 31 55  1  0  0  0  0
 31 56  1  0  0  0  0
 31 57  1  0  0  0  0
M  END
> <PUBCHEM_COMPOUND_CID>
40587853

> <PUBCHEM_CONFORMER_RMSD>
1

> <PUBCHEM_CONFORMER_DIVERSEORDER>
1
30
33
21
86
101
17
45
65
102
53
78
73
36
14
58
37
77
8
91
51
18
66
94
76
22
69
26
79
93
34
54
20
70
68
100
89
84
24
92
7
46
40
90
75
56
23
62
11
99
57
98
39
87
74
25
35
52
49
27
61
15
50
67
41
5
16
10
82
85
60
64
81
63
59
72
29
83
96
6
44
43
42
38
80
32
48
88
13
97
47
19
28
9
4
55
71
95
3
31
12
2

> <PUBCHEM_MMFF94_PARTIAL_CHARGES>
43
1 -0.56
10 0.27
11 0.37
12 0.28
13 0.28
14 0.41
15 0.72
16 -0.14
17 -0.15
18 -0.15
19 0.31
2 -0.56
20 0.16
21 -0.15
22 -0.15
23 -0.15
24 -0.15
26 -0.15
27 -0.15
28 -0.15
29 -0.15
3 -0.36
30 0.08
31 0.28
4 -0.9
40 0.36
41 0.4
44 0.15
45 0.15
46 0.15
47 0.15
48 0.15
49 0.15
5 -0.87
50 0.15
51 0.15
52 0.15
53 0.15
54 0.15
6 -0.62
7 -0.62
8 0.28
9 0.28

> <PUBCHEM_EFFECTIVE_ROTOR_COUNT>
8.2

> <PUBCHEM_PHARMACOPHORE_FEATURES>
13
1 1 acceptor
1 2 acceptor
1 3 acceptor
1 4 cation
1 4 donor
1 5 donor
1 6 acceptor
4 5 6 7 15 cation
5 1 8 9 10 12 rings
5 2 8 9 11 13 rings
6 16 17 18 21 22 24 rings
6 25 26 27 28 29 30 rings
6 6 7 15 19 20 23 rings

> <PUBCHEM_HEAVY_ATOM_COUNT>
31

> <PUBCHEM_ATOM_DEF_STEREO_COUNT>
4

> <PUBCHEM_ATOM_UDEF_STEREO_COUNT>
0

> <PUBCHEM_BOND_DEF_STEREO_COUNT>
0

> <PUBCHEM_BOND_UDEF_STEREO_COUNT>
0

> <PUBCHEM_ISOTOPIC_ATOM_COUNT>
0

> <PUBCHEM_COMPONENT_COUNT>
1

> <PUBCHEM_CACTVS_TAUTO_COUNT>
3

> <PUBCHEM_CONFORMER_ID>
026B524D00000001

> <PUBCHEM_MMFF94_ENERGY>
101.6079

> <PUBCHEM_FEATURE_SELFOVERLAP>
66.679

> <PUBCHEM_SHAPE_FINGERPRINT>
10074138 170 15911673171884354427
10622 236 18336264548355777594
10908659 184 17916598664733639119
11069576 57 18335150799375340790
11135609 149 18263346114313214061
11135926 11 17534093949686714820
11227150 75 18337093614673172458
11443803 9 17272581788043115148
11497681 19 18339925901746433438
11607047 403 18127113381532495440
11720765 8 18336818801364908973
11796584 16 17632591448240024969
11828042 279 16878811344041040662
12144603 126 18270978906858633801
12166972 35 18335416885051868903
12977781 61 18125409034676528529
13828863 39 10519695705153370133
14068700 675 18341328911972010040
14340393 91 17896299373633832127
15119646 57 10918582593893125687
15163728 17 12179839490281010729
15320294 125 18131348609949248367
15419009 47 17971180440322752893
17324776 126 18335977558731873346
19304671 126 16226041249772891453
19315092 285 18201719557339490424
20156587 76 17970597785085068922
20775438 99 18046615978414335379
21223535 225 16878214269675361325
21458453 9 14691987228725126863
25019877 29 14652536386648673464
25025965 108 17462836576992358730
2838139 119 14346619675012617053
3729539 64 18335421322539478195
4015057 19 17895204332645134097
4017518 198 16968865459646985140
437795 139 18201715172156365673
437795 70 16226040068445764815
439807 62 18338800121998285935
46194498 28 15866352555890221517
463206 1 18341902934593914867
57527293 21 17901400991907229958
57527295 17 18268448973727205449
57634706 229 12390355341394941910
59025328 239 17967819336197659500
59682541 52 18041838532204304639
6058803 2 18194710119025818568
6636735 143 14333134070582860823
66674814 147 18333450936823862299
6677587 24 16956456869737763629
96874 4 18341325643587021159
9831354 38 18193537081958423955

> <PUBCHEM_SHAPE_MULTIPOLES>
600.43
17.87
5.01
2.68
11.64
1.89
-0.75
25.14
-4.25
-2.98
0.95
0.51
-1.16
-7.27

> <PUBCHEM_SHAPE_SELFOVERLAP>
1313.138

> <PUBCHEM_SHAPE_VOLUME>
324.6

> <PUBCHEM_COORDINATE_TYPE>
2
5
10

$$$$
