40777601
  -OEChem-12032416173D

 54 56  0     1  0  0  0  0  0999 V2000
   -5.0950   -0.9882   -1.3810 O   0  0  0  0  0  0  0  0  0  0  0  0
   -3.8516   -0.4787    0.5136 N   0  0  0  0  0  0  0  0  0  0  0  0
    2.6657    0.5667   -0.9049 N   0  0  0  0  0  0  0  0  0  0  0  0
    2.6075    1.8429   -0.4874 N   0  0  0  0  0  0  0  0  0  0  0  0
   -6.0640    0.1567    0.3892 N   0  0  0  0  0  0  0  0  0  0  0  0
   -0.7110    0.4255    0.5081 C   0  0  2  0  0  0  0  0  0  0  0  0
   -1.6763   -0.0622   -0.5921 C   0  0  0  0  0  0  0  0  0  0  0  0
   -2.6114   -1.0702    0.0874 C   0  0  1  0  0  0  0  0  0  0  0  0
    0.6814    0.7141   -0.0038 C   0  0  0  0  0  0  0  0  0  0  0  0
   -0.7911   -0.6802    1.5203 C   0  0  0  0  0  0  0  0  0  0  0  0
   -1.8300   -1.4898    1.2888 C   0  0  0  0  0  0  0  0  0  0  0  0
    1.5372   -0.1520   -0.6395 C   0  0  0  0  0  0  0  0  0  0  0  0
    1.3931    1.9270    0.0622 C   0  0  0  0  0  0  0  0  0  0  0  0
    1.3871   -1.5716   -1.0117 C   0  0  0  0  0  0  0  0  0  0  0  0
    3.8604    0.0948   -1.5656 C   0  0  0  0  0  0  0  0  0  0  0  0
    0.9486    3.2044    0.6468 C   0  0  0  0  0  0  0  0  0  0  0  0
   -5.0124   -0.4827   -0.2625 C   0  0  0  0  0  0  0  0  0  0  0  0
    4.9906   -0.2072   -0.6132 C   0  0  0  0  0  0  0  0  0  0  0  0
   -7.3783    0.2928   -0.1931 C   0  0  0  0  0  0  0  0  0  0  0  0
    5.7503    0.8342   -0.0802 C   0  0  0  0  0  0  0  0  0  0  0  0
    5.2760   -1.5274   -0.2655 C   0  0  0  0  0  0  0  0  0  0  0  0
   -8.0340    1.5849    0.2764 C   0  0  0  0  0  0  0  0  0  0  0  0
   -8.2402   -0.9177    0.1434 C   0  0  0  0  0  0  0  0  0  0  0  0
    6.7954    0.5553    0.8006 C   0  0  0  0  0  0  0  0  0  0  0  0
    6.3211   -1.8063    0.6153 C   0  0  0  0  0  0  0  0  0  0  0  0
    7.0808   -0.7650    1.1483 C   0  0  0  0  0  0  0  0  0  0  0  0
   -1.1208    1.3321    0.9721 H   0  0  0  0  0  0  0  0  0  0  0  0
   -2.2184    0.7807   -1.0381 H   0  0  0  0  0  0  0  0  0  0  0  0
   -1.1498   -0.5557   -1.4174 H   0  0  0  0  0  0  0  0  0  0  0  0
   -2.8129   -1.9158   -0.5784 H   0  0  0  0  0  0  0  0  0  0  0  0
   -0.1141   -0.7894    2.3560 H   0  0  0  0  0  0  0  0  0  0  0  0
   -2.0859   -2.3377    1.9084 H   0  0  0  0  0  0  0  0  0  0  0  0
   -3.8798    0.0107    1.4037 H   0  0  0  0  0  0  0  0  0  0  0  0
    1.3354   -1.6799   -2.1001 H   0  0  0  0  0  0  0  0  0  0  0  0
    2.2298   -2.1656   -0.6452 H   0  0  0  0  0  0  0  0  0  0  0  0
    0.4858   -2.0263   -0.5960 H   0  0  0  0  0  0  0  0  0  0  0  0
    4.1709    0.8710   -2.2772 H   0  0  0  0  0  0  0  0  0  0  0  0
    3.6153   -0.7816   -2.1750 H   0  0  0  0  0  0  0  0  0  0  0  0
    0.7271    3.0828    1.7121 H   0  0  0  0  0  0  0  0  0  0  0  0
    1.7117    3.9843    0.5519 H   0  0  0  0  0  0  0  0  0  0  0  0
    0.0429    3.5618    0.1459 H   0  0  0  0  0  0  0  0  0  0  0  0
   -5.9189    0.4746    1.3428 H   0  0  0  0  0  0  0  0  0  0  0  0
   -7.2651    0.3405   -1.2829 H   0  0  0  0  0  0  0  0  0  0  0  0
    5.5437    1.8673   -0.3463 H   0  0  0  0  0  0  0  0  0  0  0  0
    4.6957   -2.3493   -0.6752 H   0  0  0  0  0  0  0  0  0  0  0  0
   -8.1657    1.5926    1.3643 H   0  0  0  0  0  0  0  0  0  0  0  0
   -7.4170    2.4511    0.0133 H   0  0  0  0  0  0  0  0  0  0  0  0
   -9.0172    1.7163   -0.1870 H   0  0  0  0  0  0  0  0  0  0  0  0
   -8.3688   -1.0243    1.2264 H   0  0  0  0  0  0  0  0  0  0  0  0
   -7.7801   -1.8411   -0.2251 H   0  0  0  0  0  0  0  0  0  0  0  0
   -9.2324   -0.8305   -0.3114 H   0  0  0  0  0  0  0  0  0  0  0  0
    7.3878    1.3660    1.2146 H   0  0  0  0  0  0  0  0  0  0  0  0
    6.5440   -2.8344    0.8854 H   0  0  0  0  0  0  0  0  0  0  0  0
    7.8948   -0.9822    1.8337 H   0  0  0  0  0  0  0  0  0  0  0  0
  1 17  2  0  0  0  0
  2  8  1  0  0  0  0
  2 17  1  0  0  0  0
  2 33  1  0  0  0  0
  3  4  1  0  0  0  0
  3 12  1  0  0  0  0
  3 15  1  0  0  0  0
  4 13  2  0  0  0  0
  5 17  1  0  0  0  0
  5 19  1  0  0  0  0
  5 42  1  0  0  0  0
  6  7  1  0  0  0  0
  6  9  1  0  0  0  0
  6 10  1  0  0  0  0
  6 27  1  0  0  0  0
  7  8  1  0  0  0  0
  7 28  1  0  0  0  0
  7 29  1  0  0  0  0
  8 11  1  0  0  0  0
  8 30  1  0  0  0  0
  9 12  2  0  0  0  0
  9 13  1  0  0  0  0
 10 11  2  0  0  0  0
 10 31  1  0  0  0  0
 11 32  1  0  0  0  0
 12 14  1  0  0  0  0
 13 16  1  0  0  0  0
 14 34  1  0  0  0  0
 14 35  1  0  0  0  0
 14 36  1  0  0  0  0
 15 18  1  0  0  0  0
 15 37  1  0  0  0  0
 15 38  1  0  0  0  0
 16 39  1  0  0  0  0
 16 40  1  0  0  0  0
 16 41  1  0  0  0  0
 18 20  2  0  0  0  0
 18 21  1  0  0  0  0
 19 22  1  0  0  0  0
 19 23  1  0  0  0  0
 19 43  1  0  0  0  0
 20 24  1  0  0  0  0
 20 44  1  0  0  0  0
 21 25  2  0  0  0  0
 21 45  1  0  0  0  0
 22 46  1  0  0  0  0
 22 47  1  0  0  0  0
 22 48  1  0  0  0  0
 23 49  1  0  0  0  0
 23 50  1  0  0  0  0
 23 51  1  0  0  0  0
 24 26  2  0  0  0  0
 24 52  1  0  0  0  0
 25 26  1  0  0  0  0
 25 53  1  0  0  0  0
 26 54  1  0  0  0  0
M  END
> <PUBCHEM_COMPOUND_CID>
40777601

> <PUBCHEM_CONFORMER_RMSD>
0.8

> <PUBCHEM_CONFORMER_DIVERSEORDER>
2
59
191
53
203
255
105
36
254
278
223
260
272
251
145
237
94
125
96
263
271
275
168
188
149
123
79
109
173
201
134
235
151
133
230
187
44
65
233
155
286
281
264
101
257
22
256
289
227
280
218
162
279
152
232
23
282
124
241
269
177
90
258
245
172
138
137
113
212
169
108
83
179
166
199
126
217
211
276
165
141
64
117
39
27
120
222
246
196
193
204
153
77
15
74
242
41
287
11
284
154
91
89
140
190
283
66
214
171
26
62
159
182
93
80
180
85
73
273
253
207
84
25
228
252
220
60
265
116
288
82
115
144
215
225
42
33
267
270
92
58
250
142
139
81
75
231
148
35
248
210
40
56
29
206
174
200
132
127
181
57
167
54
135
78
163
261
70
121
184
69
68
266
32
243
244
28
48
31
12
234
118
259
185
110
146
112
194
3
71
157
98
128
268
88
103
136
16
9
239
189
175
95
238
46
208
76
150
192
14
47
277
213
221
97
20
45
158
156
161
34
143
247
19
291
51
183
224
10
37
249
7
63
104
198
38
170
131
4
290
87
147
274
226
160
1
17
236
209
129
43
202
229
30
49
106
130
114
102
240
176
111
100
107
285
186
197
8
262
50
13
21
18
178
72
164
52
6
61
99
219
86
205
122
24
67
216
5
55
195
119

> <PUBCHEM_MMFF94_PARTIAL_CHARGES>
32
1 -0.57
10 -0.29
11 -0.29
12 -0.33
13 0.11
14 0.18
15 0.4
16 0.18
17 0.69
18 -0.14
19 0.3
2 -0.73
20 -0.15
21 -0.15
24 -0.15
25 -0.15
26 -0.15
3 0.31
31 0.15
32 0.15
33 0.37
4 -0.71
42 0.37
44 0.15
45 0.15
5 -0.73
52 0.15
53 0.15
54 0.15
6 0.32
8 0.44
9 -0.18

> <PUBCHEM_EFFECTIVE_ROTOR_COUNT>
7.6

> <PUBCHEM_PHARMACOPHORE_FEATURES>
8
1 1 acceptor
1 2 donor
1 4 acceptor
1 5 donor
3 19 22 23 hydrophobe
5 3 4 9 12 13 rings
5 6 7 8 10 11 rings
6 18 20 21 24 25 26 rings

> <PUBCHEM_HEAVY_ATOM_COUNT>
26

> <PUBCHEM_ATOM_DEF_STEREO_COUNT>
2

> <PUBCHEM_ATOM_UDEF_STEREO_COUNT>
0

> <PUBCHEM_BOND_DEF_STEREO_COUNT>
0

> <PUBCHEM_BOND_UDEF_STEREO_COUNT>
0

> <PUBCHEM_ISOTOPIC_ATOM_COUNT>
0

> <PUBCHEM_COMPONENT_COUNT>
1

> <PUBCHEM_CACTVS_TAUTO_COUNT>
3

> <PUBCHEM_CONFORMER_ID>
026E378100000002

> <PUBCHEM_MMFF94_ENERGY>
41.1589

> <PUBCHEM_FEATURE_SELFOVERLAP>
40.646

> <PUBCHEM_SHAPE_FINGERPRINT>
10613725 11 18333169474953073223
10670039 82 16878214287039580413
11315181 36 9799692607029069239
11719270 70 18131354102663838742
11796584 16 17385729136184018802
12236239 1 17275107232015132814
12516196 113 18343581850316005824
13533116 47 18408602531735590730
13782708 43 17750815417803546387
13914758 101 18342459223089989961
14170010 4 18410856572545803460
14251764 18 18411139139040286927
14429380 56 14189280556934934106
1454969 45 10015579502422268257
15119646 104 18341049631560674231
15183329 4 18334305253131637983
15849732 13 17203890768836219437
18222031 100 18060151942210823740
19841028 212 17968090864494511994
20238998 120 18131351907988772336
20567600 234 16415757540217832304
21095086 128 11530481129513367017
21267235 1 12324241663596958087
21344244 181 13190335730620013624
21781051 124 16298401174916370171
21792934 111 18341885278342265184
22079108 93 14836119962549164142
22224240 67 10519983755487790285
23559900 14 18042403693417328761
24893992 56 18040720286520020641
249057 3 18131350843442491679
3004659 81 17749113292763365342
3009799 131 18202284710135984001
328311 84 15502377820280665603
335352 9 18335142015761174679
347723 3 17894912927487419337
34797466 226 12895076232434199384
4072396 5 18413390934648948638
4325135 7 12895354395463584546
4339292 15 17274531149508104695
4625314 4 10663826273465051489
57035037 87 16845569803510953273
5758199 1 8214142958477542437
59682541 35 11599997769760235439
59755656 215 14273732936915405602
59755656 520 17313104181430243363
6004065 56 18059575827459875483
6081469 158 17131838642840044668
6523845 18 17167855392576288451
8988823 20 18413106191492249784
9862260 156 18410291410942928353

> <PUBCHEM_SHAPE_MULTIPOLES>
509.27
22.37
2.04
1.18
25.39
1.25
0
-3.01
-2.23
-1
-0.32
-0.66
-0.25
-0.37

> <PUBCHEM_SHAPE_SELFOVERLAP>
1072.735

> <PUBCHEM_SHAPE_VOLUME>
290.2

> <PUBCHEM_COORDINATE_TYPE>
2
5
10

$$$$
