7049032
  -OEChem-12032416153D

 62 63  0     1  0  0  0  0  0999 V2000
    0.4852   -0.8638   -2.3422 O   0  0  0  0  0  0  0  0  0  0  0  0
    1.6520   -3.7709   -0.4528 O   0  0  0  0  0  0  0  0  0  0  0  0
    3.5208    0.2609    2.0902 O   0  0  0  0  0  0  0  0  0  0  0  0
   -2.6882   -1.7945    0.3199 O   0  0  0  0  0  0  0  0  0  0  0  0
    6.9120   -1.3206    0.7522 O   0  0  0  0  0  0  0  0  0  0  0  0
   -9.3830    1.7944    0.1510 O   0  0  0  0  0  0  0  0  0  0  0  0
   -0.9787   -0.2868   -0.0666 N   0  0  0  0  0  0  0  0  0  0  0  0
    4.7139    0.1829    0.0882 N   0  0  0  0  0  0  0  0  0  0  0  0
   -3.1443    0.4779   -0.0527 N   0  0  0  0  0  0  0  0  0  0  0  0
    7.5709    0.3434    2.1917 N   0  0  0  0  0  0  0  0  0  0  0  0
    0.4166   -1.8780   -1.3375 C   0  0  1  0  0  0  0  0  0  0  0  0
    1.7497   -2.6358   -1.3105 C   0  0  1  0  0  0  0  0  0  0  0  0
    0.1053   -1.2338    0.0270 C   0  0  1  0  0  0  0  0  0  0  0  0
    2.9173   -1.7379   -0.8664 C   0  0  0  0  0  0  0  0  0  0  0  0
    2.5491   -0.7811    0.2318 C   0  0  0  0  0  0  0  0  0  0  0  0
    1.2944   -0.5521    0.6480 C   0  0  0  0  0  0  0  0  0  0  0  0
    5.8948    0.8766    0.5319 C   0  0  2  0  0  0  0  0  0  0  0  0
    3.6300   -0.0622    0.9125 C   0  0  0  0  0  0  0  0  0  0  0  0
    6.6105    1.5996   -0.6159 C   0  0  0  0  0  0  0  0  0  0  0  0
    5.7459    2.6307   -1.3700 C   0  0  0  0  0  0  0  0  0  0  0  0
   -2.3231   -0.6440    0.0901 C   0  0  0  0  0  0  0  0  0  0  0  0
    4.4710    2.0125   -1.9453 C   0  0  0  0  0  0  0  0  0  0  0  0
    5.3813    3.7841   -0.4311 C   0  0  0  0  0  0  0  0  0  0  0  0
    6.8156   -0.1639    1.1553 C   0  0  0  0  0  0  0  0  0  0  0  0
   -4.5547    0.5382    0.0341 C   0  0  0  0  0  0  0  0  0  0  0  0
   -5.2687   -0.6208    0.2908 C   0  0  0  0  0  0  0  0  0  0  0  0
   -5.1930    1.7556   -0.1374 C   0  0  0  0  0  0  0  0  0  0  0  0
   -6.6595   -0.5607    0.3785 C   0  0  0  0  0  0  0  0  0  0  0  0
   -6.5837    1.8157   -0.0498 C   0  0  0  0  0  0  0  0  0  0  0  0
   -7.3171    0.6575    0.2082 C   0  0  0  0  0  0  0  0  0  0  0  0
   -8.7673    0.7198    0.2982 C   0  0  0  0  0  0  0  0  0  0  0  0
   -9.5750   -0.5429    0.5784 C   0  0  0  0  0  0  0  0  0  0  0  0
   -0.3986   -2.5580   -1.6131 H   0  0  0  0  0  0  0  0  0  0  0  0
    1.9814   -3.0140   -2.3138 H   0  0  0  0  0  0  0  0  0  0  0  0
   -0.2012   -2.0265    0.7220 H   0  0  0  0  0  0  0  0  0  0  0  0
    3.7548   -2.3702   -0.5473 H   0  0  0  0  0  0  0  0  0  0  0  0
    3.2313   -1.1609   -1.7450 H   0  0  0  0  0  0  0  0  0  0  0  0
    1.0956    0.1339    1.4684 H   0  0  0  0  0  0  0  0  0  0  0  0
    5.6024    1.5904    1.3105 H   0  0  0  0  0  0  0  0  0  0  0  0
   -0.7633    0.6777   -0.3023 H   0  0  0  0  0  0  0  0  0  0  0  0
    7.5123    2.0936   -0.2311 H   0  0  0  0  0  0  0  0  0  0  0  0
    6.9669    0.8564   -1.3427 H   0  0  0  0  0  0  0  0  0  0  0  0
    6.3466    3.0295   -2.1968 H   0  0  0  0  0  0  0  0  0  0  0  0
    4.7678   -0.2448   -0.8278 H   0  0  0  0  0  0  0  0  0  0  0  0
   -0.3684   -0.3980   -2.3432 H   0  0  0  0  0  0  0  0  0  0  0  0
    0.9193   -4.3213   -0.7777 H   0  0  0  0  0  0  0  0  0  0  0  0
    4.0651    2.6953   -2.7030 H   0  0  0  0  0  0  0  0  0  0  0  0
    3.6679    1.8968   -1.2137 H   0  0  0  0  0  0  0  0  0  0  0  0
    4.6691    1.0706   -2.4653 H   0  0  0  0  0  0  0  0  0  0  0  0
    4.8716    4.5779   -0.9883 H   0  0  0  0  0  0  0  0  0  0  0  0
    6.2785    4.2208    0.0199 H   0  0  0  0  0  0  0  0  0  0  0  0
    4.7108    3.4692    0.3747 H   0  0  0  0  0  0  0  0  0  0  0  0
   -2.6786    1.3621   -0.2417 H   0  0  0  0  0  0  0  0  0  0  0  0
    7.4975    1.3077    2.4996 H   0  0  0  0  0  0  0  0  0  0  0  0
    8.2362   -0.2420    2.6858 H   0  0  0  0  0  0  0  0  0  0  0  0
   -4.8338   -1.5988    0.4342 H   0  0  0  0  0  0  0  0  0  0  0  0
   -4.6311    2.6635   -0.3384 H   0  0  0  0  0  0  0  0  0  0  0  0
   -7.1924   -1.4848    0.5806 H   0  0  0  0  0  0  0  0  0  0  0  0
   -7.0731    2.7765   -0.1863 H   0  0  0  0  0  0  0  0  0  0  0  0
   -9.3017   -0.9583    1.5518 H   0  0  0  0  0  0  0  0  0  0  0  0
   -9.4244   -1.2733   -0.2206 H   0  0  0  0  0  0  0  0  0  0  0  0
  -10.6392   -0.2879    0.6067 H   0  0  0  0  0  0  0  0  0  0  0  0
  1 11  1  0  0  0  0
  1 45  1  0  0  0  0
  2 12  1  0  0  0  0
  2 46  1  0  0  0  0
  3 18  2  0  0  0  0
  4 21  2  0  0  0  0
  5 24  2  0  0  0  0
  6 31  2  0  0  0  0
  7 13  1  0  0  0  0
  7 21  1  0  0  0  0
  7 40  1  0  0  0  0
  8 17  1  0  0  0  0
  8 18  1  0  0  0  0
  8 44  1  0  0  0  0
  9 21  1  0  0  0  0
  9 25  1  0  0  0  0
  9 53  1  0  0  0  0
 10 24  1  0  0  0  0
 10 54  1  0  0  0  0
 10 55  1  0  0  0  0
 11 12  1  0  0  0  0
 11 13  1  0  0  0  0
 11 33  1  0  0  0  0
 12 14  1  0  0  0  0
 12 34  1  0  0  0  0
 13 16  1  0  0  0  0
 13 35  1  0  0  0  0
 14 15  1  0  0  0  0
 14 36  1  0  0  0  0
 14 37  1  0  0  0  0
 15 16  2  0  0  0  0
 15 18  1  0  0  0  0
 16 38  1  0  0  0  0
 17 19  1  0  0  0  0
 17 24  1  0  0  0  0
 17 39  1  0  0  0  0
 19 20  1  0  0  0  0
 19 41  1  0  0  0  0
 19 42  1  0  0  0  0
 20 22  1  0  0  0  0
 20 23  1  0  0  0  0
 20 43  1  0  0  0  0
 22 47  1  0  0  0  0
 22 48  1  0  0  0  0
 22 49  1  0  0  0  0
 23 50  1  0  0  0  0
 23 51  1  0  0  0  0
 23 52  1  0  0  0  0
 25 26  2  0  0  0  0
 25 27  1  0  0  0  0
 26 28  1  0  0  0  0
 26 56  1  0  0  0  0
 27 29  2  0  0  0  0
 27 57  1  0  0  0  0
 28 30  2  0  0  0  0
 28 58  1  0  0  0  0
 29 30  1  0  0  0  0
 29 59  1  0  0  0  0
 30 31  1  0  0  0  0
 31 32  1  0  0  0  0
 32 60  1  0  0  0  0
 32 61  1  0  0  0  0
 32 62  1  0  0  0  0
M  END
> <PUBCHEM_COMPOUND_CID>
7049032

> <PUBCHEM_CONFORMER_RMSD>
1.2

> <PUBCHEM_CONFORMER_DIVERSEORDER>
1
36
61
57
74
64
75
80
56
41
30
83
12
53
39
25
71
43
49
8
9
70
10
82
69
72
14
63
87
20
4
47
32
16
48
73
27
19
76
38
84
6
7
31
79
62
77
65
26
34
66
13
50
54
37
42
55
78
5
85
23
60
3
67
33
58
44
86
46
11
68
59
40
18
45
52
17
2
24
21
15
81
51
28
22
29
35

> <PUBCHEM_MMFF94_PARTIAL_CHARGES>
40
1 -0.68
10 -0.8
11 0.28
12 0.28
13 0.44
14 0.14
15 -0.12
16 -0.29
17 0.36
18 0.62
2 -0.68
21 0.69
24 0.57
25 0.12
26 -0.15
27 -0.15
28 -0.15
29 -0.15
3 -0.57
30 0.09
31 0.42
32 0.06
38 0.15
4 -0.57
40 0.37
44 0.37
45 0.4
46 0.4
5 -0.57
53 0.37
54 0.37
55 0.37
56 0.15
57 0.15
58 0.15
59 0.15
6 -0.57
7 -0.73
8 -0.73
9 -0.55

> <PUBCHEM_EFFECTIVE_ROTOR_COUNT>
11.8

> <PUBCHEM_PHARMACOPHORE_FEATURES>
15
1 1 acceptor
1 1 donor
1 10 donor
1 2 acceptor
1 2 donor
1 3 acceptor
1 4 acceptor
1 5 acceptor
1 6 acceptor
1 7 donor
1 8 donor
1 9 donor
3 20 22 23 hydrophobe
6 11 12 13 14 15 16 rings
6 25 26 27 28 29 30 rings

> <PUBCHEM_HEAVY_ATOM_COUNT>
32

> <PUBCHEM_ATOM_DEF_STEREO_COUNT>
4

> <PUBCHEM_ATOM_UDEF_STEREO_COUNT>
0

> <PUBCHEM_BOND_DEF_STEREO_COUNT>
0

> <PUBCHEM_BOND_UDEF_STEREO_COUNT>
0

> <PUBCHEM_ISOTOPIC_ATOM_COUNT>
0

> <PUBCHEM_COMPONENT_COUNT>
1

> <PUBCHEM_CACTVS_TAUTO_COUNT>
64

> <PUBCHEM_CONFORMER_ID>
006B8F4800000001

> <PUBCHEM_MMFF94_ENERGY>
79.9103

> <PUBCHEM_FEATURE_SELFOVERLAP>
76.184

> <PUBCHEM_SHAPE_FINGERPRINT>
10 15 18260551134712463699
10673678 19 18340214084607225652
12522641 24 17458339728830906968
13617811 41 18131636690211373224
13685833 64 11458426825536445107
14118638 360 17274545322250620009
14461889 52 18408046213027201355
15183329 4 9007060175679770981
15419008 145 17895744103029875944
1577012 14 18335982077611019964
15840311 113 17894915143822770540
15961568 22 18334861606211290389
16989713 51 17630602539391187647
17980427 23 17968379064656421143
18335252 98 18343866611549749235
19301679 30 11386905793405078144
19841028 212 10951781763484603060
21033648 29 17987498464193906418
21267235 1 12685090359042139042
21344244 78 14634869751382815982
21521239 73 13110973019680575572
21792934 111 15936405642231910997
24771293 8 18411703159021372261
25269216 80 16557899198783799221
2838139 119 18201145624742962996
335507 130 18271806861464346263
3411729 13 18411698755941688302
3418910 222 18272663338089367017
3711267 37 17846224358504514961
3918712 181 18272934967993316768
4073 2 18409454687649365363
4112364 45 18408884070725309052
4258327 124 18339088193696233141
444735 82 18341336587780765749
45377200 153 14333113223080515621
4625314 4 18408606967856454735
5109719 28 18338530706323943033
5470011 282 12895067440013775873
59682541 52 15626236706102488260
6438161 24 9439405701057642445
68570916 9 18188771776576420747
9849439 229 18336271214203361958
9962374 69 12035743041357892347

> <PUBCHEM_SHAPE_MULTIPOLES>
603.41
28.29
2.99
1.45
45.81
0.46
0.12
16.35
-7.61
-4.12
1.39
-3.14
-0.08
-1.09

> <PUBCHEM_SHAPE_SELFOVERLAP>
1253.986

> <PUBCHEM_SHAPE_VOLUME>
340.2

> <PUBCHEM_COORDINATE_TYPE>
2
5
10

$$$$
