11912453
  -OEChem-12032416113D

 51 52  0     1  0  0  0  0  0999 V2000
   -4.4437   -0.7929    1.6616 O   0  0  0  0  0  0  0  0  0  0  0  0
    2.0324    1.7828    0.9994 O   0  0  0  0  0  0  0  0  0  0  0  0
    0.5448    0.2306    0.1386 N   0  0  0  0  0  0  0  0  0  0  0  0
   -4.8979    0.6694   -0.0807 N   0  0  0  0  0  0  0  0  0  0  0  0
    2.8139    0.2111   -0.5167 N   0  0  0  0  0  0  0  0  0  0  0  0
   -2.8791    3.1958   -1.2175 N   0  0  0  0  0  0  0  0  0  0  0  0
   -1.8546   -1.3791    0.6830 C   0  0  1  0  0  0  0  0  0  0  0  0
   -0.6359   -1.9577   -0.0719 C   0  0  2  0  0  0  0  0  0  0  0  0
   -1.3753   -0.2641    1.6261 C   0  0  0  0  0  0  0  0  0  0  0  0
    0.1870   -0.8657   -0.7783 C   0  0  0  0  0  0  0  0  0  0  0  0
   -0.5702    0.8054    0.8963 C   0  0  0  0  0  0  0  0  0  0  0  0
   -1.0151   -3.0643   -1.0566 C   0  0  0  0  0  0  0  0  0  0  0  0
   -2.9792   -0.8848   -0.2335 C   0  0  0  0  0  0  0  0  0  0  0  0
   -1.8536   -4.1312   -0.3842 C   0  0  0  0  0  0  0  0  0  0  0  0
   -4.1664   -0.3452    0.5457 C   0  0  0  0  0  0  0  0  0  0  0  0
    1.8286    0.8102    0.2681 C   0  0  0  0  0  0  0  0  0  0  0  0
   -4.5500    1.1836   -1.4033 C   0  0  0  0  0  0  0  0  0  0  0  0
   -6.0623    1.2900    0.5391 C   0  0  0  0  0  0  0  0  0  0  0  0
    4.2114    0.2054   -0.2823 C   0  0  0  0  0  0  0  0  0  0  0  0
    5.0687   -0.3542   -1.2258 C   0  0  0  0  0  0  0  0  0  0  0  0
    4.7189    0.7599    0.8895 C   0  0  0  0  0  0  0  0  0  0  0  0
   -3.6187    2.3053   -1.2977 C   0  0  0  0  0  0  0  0  0  0  0  0
    6.4444   -0.3596   -0.9955 C   0  0  0  0  0  0  0  0  0  0  0  0
    6.0946    0.7545    1.1195 C   0  0  0  0  0  0  0  0  0  0  0  0
    6.9573    0.1948    0.1771 C   0  0  0  0  0  0  0  0  0  0  0  0
   -2.2666   -2.1627    1.3324 H   0  0  0  0  0  0  0  0  0  0  0  0
    0.0214   -2.4060    0.6887 H   0  0  0  0  0  0  0  0  0  0  0  0
   -2.1984    0.2084    2.1701 H   0  0  0  0  0  0  0  0  0  0  0  0
   -0.7315   -0.7169    2.3926 H   0  0  0  0  0  0  0  0  0  0  0  0
   -0.3724   -0.4177   -1.6075 H   0  0  0  0  0  0  0  0  0  0  0  0
    1.0685   -1.3419   -1.2091 H   0  0  0  0  0  0  0  0  0  0  0  0
   -0.2063    1.5360    1.6258 H   0  0  0  0  0  0  0  0  0  0  0  0
   -1.1928    1.3548    0.1856 H   0  0  0  0  0  0  0  0  0  0  0  0
   -1.5509   -2.6616   -1.9237 H   0  0  0  0  0  0  0  0  0  0  0  0
   -0.1000   -3.5270   -1.4464 H   0  0  0  0  0  0  0  0  0  0  0  0
   -2.5525   -0.1356   -0.8979 H   0  0  0  0  0  0  0  0  0  0  0  0
   -3.3699   -1.6909   -0.8624 H   0  0  0  0  0  0  0  0  0  0  0  0
   -1.9696   -4.9855   -1.0602 H   0  0  0  0  0  0  0  0  0  0  0  0
   -1.3747   -4.4990    0.5292 H   0  0  0  0  0  0  0  0  0  0  0  0
   -2.8616   -3.7900   -0.1358 H   0  0  0  0  0  0  0  0  0  0  0  0
    2.5345   -0.2399   -1.3805 H   0  0  0  0  0  0  0  0  0  0  0  0
   -5.4731    1.5146   -1.8948 H   0  0  0  0  0  0  0  0  0  0  0  0
   -4.1531    0.3904   -2.0429 H   0  0  0  0  0  0  0  0  0  0  0  0
   -6.2399    0.8791    1.5362 H   0  0  0  0  0  0  0  0  0  0  0  0
   -6.9407    1.0983   -0.0840 H   0  0  0  0  0  0  0  0  0  0  0  0
   -5.8947    2.3674    0.6235 H   0  0  0  0  0  0  0  0  0  0  0  0
    4.6814   -0.7893   -2.1433 H   0  0  0  0  0  0  0  0  0  0  0  0
    4.0991    1.1767    1.6735 H   0  0  0  0  0  0  0  0  0  0  0  0
    7.1162   -0.7959   -1.7290 H   0  0  0  0  0  0  0  0  0  0  0  0
    6.4947    1.1787    2.0360 H   0  0  0  0  0  0  0  0  0  0  0  0
    8.0283    0.1889    0.3573 H   0  0  0  0  0  0  0  0  0  0  0  0
  1 15  2  0  0  0  0
  2 16  2  0  0  0  0
  3 10  1  0  0  0  0
  3 11  1  0  0  0  0
  3 16  1  0  0  0  0
  4 15  1  0  0  0  0
  4 17  1  0  0  0  0
  4 18  1  0  0  0  0
  5 16  1  0  0  0  0
  5 19  1  0  0  0  0
  5 41  1  0  0  0  0
  6 22  3  0  0  0  0
  7  8  1  0  0  0  0
  7  9  1  0  0  0  0
  7 13  1  0  0  0  0
  7 26  1  0  0  0  0
  8 10  1  0  0  0  0
  8 12  1  0  0  0  0
  8 27  1  0  0  0  0
  9 11  1  0  0  0  0
  9 28  1  0  0  0  0
  9 29  1  0  0  0  0
 10 30  1  0  0  0  0
 10 31  1  0  0  0  0
 11 32  1  0  0  0  0
 11 33  1  0  0  0  0
 12 14  1  0  0  0  0
 12 34  1  0  0  0  0
 12 35  1  0  0  0  0
 13 15  1  0  0  0  0
 13 36  1  0  0  0  0
 13 37  1  0  0  0  0
 14 38  1  0  0  0  0
 14 39  1  0  0  0  0
 14 40  1  0  0  0  0
 17 22  1  0  0  0  0
 17 42  1  0  0  0  0
 17 43  1  0  0  0  0
 18 44  1  0  0  0  0
 18 45  1  0  0  0  0
 18 46  1  0  0  0  0
 19 20  2  0  0  0  0
 19 21  1  0  0  0  0
 20 23  1  0  0  0  0
 20 47  1  0  0  0  0
 21 24  2  0  0  0  0
 21 48  1  0  0  0  0
 23 25  2  0  0  0  0
 23 49  1  0  0  0  0
 24 25  1  0  0  0  0
 24 50  1  0  0  0  0
 25 51  1  0  0  0  0
M  END
> <PUBCHEM_COMPOUND_CID>
11912453

> <PUBCHEM_CONFORMER_RMSD>
1

> <PUBCHEM_CONFORMER_DIVERSEORDER>
1
343
361
7
152
254
390
324
288
46
129
201
351
365
338
168
318
160
262
335
226
38
238
229
382
244
127
146
211
73
187
408
326
376
380
154
42
237
345
216
207
322
255
217
130
148
395
115
371
372
32
341
132
300
367
140
334
62
228
328
260
336
224
30
364
296
312
137
283
401
131
174
347
392
155
86
251
220
8
177
276
215
136
374
291
173
370
383
169
402
293
269
103
307
396
340
398
102
368
104
407
37
41
193
108
111
98
66
205
235
188
179
208
51
144
342
186
290
280
377
200
44
9
363
59
162
350
319
167
236
357
198
118
43
172
214
142
97
204
289
285
95
379
327
337
90
246
138
273
393
135
74
250
106
206
27
209
15
16
394
305
256
195
76
329
119
124
321
388
362
302
375
271
45
391
171
133
325
310
406
57
245
239
284
149
164
71
405
69
332
265
384
121
279
243
309
399
389
247
294
242
109
227
266
252
113
301
369
35
89
122
404
203
33
210
14
185
331
233
183
311
110
24
72
397
272
400
359
26
303
91
175
107
92
55
317
366
61
333
349
114
105
282
360
225
191
323
3
31
313
231
234
213
180
81
378
292
356
120
70
75
156
221
87
278
54
314
53
194
387
315
298
189
85
99
163
241
178
353
381
50
308
253
128
304
358
352
355
60
58
232
93
268
223
150
49
141
274
330
39
5
52
190
6
281
385
34
299
166
68
197
339
83
153
125
101
275
277
112
196
47
346
20
4
17
96
316
295
287
64
261
219
23
354
199
267
143
94
270
11
257
56
222
13
18
145
12
21
230
117
259
176
123
297
182
165
48
218
65
202
170
249
19
139
240
36
403
373
79
82
212
77
67
159
116
126
344
29
25
147
348
306
2
78
10
320
158
181
192
88
161
63
80
386
248
286
263
100
134
258
157
151
184
22
264
28
40
84

> <PUBCHEM_MMFF94_PARTIAL_CHARGES>
26
1 -0.57
10 0.3
11 0.3
13 0.06
15 0.57
16 0.69
17 0.5
18 0.3
19 0.12
2 -0.57
20 -0.15
21 -0.15
22 0.36
23 -0.15
24 -0.15
25 -0.15
3 -0.66
4 -0.66
41 0.37
47 0.15
48 0.15
49 0.15
5 -0.55
50 0.15
51 0.15
6 -0.56

> <PUBCHEM_EFFECTIVE_ROTOR_COUNT>
9.2

> <PUBCHEM_PHARMACOPHORE_FEATURES>
7
1 1 acceptor
1 14 hydrophobe
1 2 acceptor
1 5 donor
1 6 acceptor
6 19 20 21 23 24 25 rings
6 3 7 8 9 10 11 rings

> <PUBCHEM_HEAVY_ATOM_COUNT>
25

> <PUBCHEM_ATOM_DEF_STEREO_COUNT>
2

> <PUBCHEM_ATOM_UDEF_STEREO_COUNT>
0

> <PUBCHEM_BOND_DEF_STEREO_COUNT>
0

> <PUBCHEM_BOND_UDEF_STEREO_COUNT>
0

> <PUBCHEM_ISOTOPIC_ATOM_COUNT>
0

> <PUBCHEM_COMPONENT_COUNT>
1

> <PUBCHEM_CACTVS_TAUTO_COUNT>
2

> <PUBCHEM_CONFORMER_ID>
00B5C50500000001

> <PUBCHEM_MMFF94_ENERGY>
66.0446

> <PUBCHEM_FEATURE_SELFOVERLAP>
35.522

> <PUBCHEM_SHAPE_FINGERPRINT>
10165383 225 18342741789568622825
105312 117 18409725149532876607
10835480 77 17988354988237282768
11089746 13 16128656366971508274
11315181 36 16917073299971156834
12236239 1 16660364788195168692
12293681 160 17632578202360106523
12596602 18 15502383335151055577
12969540 114 18130777945532474871
13533116 47 17775007826495055342
14251752 14 18186799146037794850
14713325 29 18333736831965167467
14856354 85 16950573215429360819
15099037 51 18342740736431080168
15183329 4 18261387836932772544
17349148 13 17274829051610614880
17844677 252 17822299032390761492
19958102 18 18339922619589040070
200 152 16056881333867110160
21033648 29 18342444942007713448
21279426 13 18268150847082283494
21859007 373 18337378367031819744
23198884 109 16443350883638277320
23402539 116 16272210781935675000
23559900 14 17917710258045298456
3009799 131 17632295661820094688
340366 18 18336830900187152180
4015057 19 17059766836191040560
44062 13 18339361984660362286
5104073 3 17986956452401550274
5283173 99 18339357475108478664
5385378 56 18267593416146311947
559249 180 18342175604909287114
56616090 46 18342462538346098751
59755656 215 18271813389155266102
59755656 520 18272650143099779583
6669772 16 18201725002915390911
7226269 152 17988927777279796944

> <PUBCHEM_SHAPE_MULTIPOLES>
482.83
15.56
2.98
1.4
18.94
2.43
-0.04
-6.26
0.33
-4.3
1.13
-0.46
-0.3
1.71

> <PUBCHEM_SHAPE_SELFOVERLAP>
987.673

> <PUBCHEM_SHAPE_VOLUME>
272.7

> <PUBCHEM_COORDINATE_TYPE>
2
5
10

$$$$
