9419217
  -OEChem-12032416113D

 48 52  0     1  0  0  0  0  0999 V2000
   -3.5073   -2.1612   -2.0634 O   0  0  0  0  0  0  0  0  0  0  0  0
   -2.9438    2.1891   -0.6718 O   0  0  0  0  0  0  0  0  0  0  0  0
    0.0352    3.3686    0.6137 O   0  0  0  0  0  0  0  0  0  0  0  0
   -2.0727   -1.5851   -0.3039 N   0  0  0  0  0  0  0  0  0  0  0  0
   -1.7459    1.2286    1.0915 N   0  0  0  0  0  0  0  0  0  0  0  0
    5.0583    1.7568   -0.2494 N   0  0  0  0  0  0  0  0  0  0  0  0
   -2.9784   -0.7487    1.9462 C   0  0  2  0  0  0  0  0  0  0  0  0
   -0.5509   -0.8971    1.5744 C   0  0  2  0  0  0  0  0  0  0  0  0
   -1.6839   -1.3140    2.5114 C   0  0  0  0  0  0  0  0  0  0  0  0
   -3.2314   -1.3885    0.5798 C   0  0  0  0  0  0  0  0  0  0  0  0
   -2.9074    0.7854    1.8600 C   0  0  0  0  0  0  0  0  0  0  0  0
   -0.4667    0.6438    1.5198 C   0  0  0  0  0  0  0  0  0  0  0  0
   -0.7495   -1.4600    0.1648 C   0  0  0  0  0  0  0  0  0  0  0  0
    0.2897   -1.8024   -0.6406 C   0  0  0  0  0  0  0  0  0  0  0  0
   -2.3723   -2.0213   -1.6066 C   0  0  0  0  0  0  0  0  0  0  0  0
   -1.9258    2.0978    0.0127 C   0  0  0  0  0  0  0  0  0  0  0  0
    0.0190   -2.2522   -1.9926 C   0  0  0  0  0  0  0  0  0  0  0  0
   -1.2194   -2.3493   -2.4758 C   0  0  0  0  0  0  0  0  0  0  0  0
    1.6934   -1.7109   -0.1820 C   0  0  0  0  0  0  0  0  0  0  0  0
   -0.8113    2.9742   -0.3665 C   0  0  0  0  0  0  0  0  0  0  0  0
    2.4031   -0.5269   -0.3583 C   0  0  0  0  0  0  0  0  0  0  0  0
    2.2947   -2.8107    0.4226 C   0  0  0  0  0  0  0  0  0  0  0  0
   -0.4452    3.4942   -1.5782 C   0  0  0  0  0  0  0  0  0  0  0  0
    3.7265   -0.4419    0.0744 C   0  0  0  0  0  0  0  0  0  0  0  0
    3.6181   -2.7256    0.8553 C   0  0  0  0  0  0  0  0  0  0  0  0
    4.3339   -1.5413    0.6811 C   0  0  0  0  0  0  0  0  0  0  0  0
    0.7137    4.2682   -1.3311 C   0  0  0  0  0  0  0  0  0  0  0  0
    0.9652    4.1595    0.0168 C   0  0  0  0  0  0  0  0  0  0  0  0
    4.4611    0.7709   -0.1042 C   0  0  0  0  0  0  0  0  0  0  0  0
   -3.8134   -1.0049    2.6099 H   0  0  0  0  0  0  0  0  0  0  0  0
    0.3785   -1.2747    2.0147 H   0  0  0  0  0  0  0  0  0  0  0  0
   -1.7395   -2.4069    2.5924 H   0  0  0  0  0  0  0  0  0  0  0  0
   -1.5067   -0.9257    3.5218 H   0  0  0  0  0  0  0  0  0  0  0  0
   -3.6519   -2.3914    0.7378 H   0  0  0  0  0  0  0  0  0  0  0  0
   -3.9986   -0.8261    0.0325 H   0  0  0  0  0  0  0  0  0  0  0  0
   -3.8290    1.1913    1.4288 H   0  0  0  0  0  0  0  0  0  0  0  0
   -2.8066    1.2124    2.8653 H   0  0  0  0  0  0  0  0  0  0  0  0
   -0.2409    1.0489    2.5135 H   0  0  0  0  0  0  0  0  0  0  0  0
    0.3341    0.9522    0.8465 H   0  0  0  0  0  0  0  0  0  0  0  0
    0.8621   -2.5036   -2.6294 H   0  0  0  0  0  0  0  0  0  0  0  0
   -1.4121   -2.6806   -3.4892 H   0  0  0  0  0  0  0  0  0  0  0  0
    1.9331    0.3282   -0.8406 H   0  0  0  0  0  0  0  0  0  0  0  0
    1.7489   -3.7399    0.5656 H   0  0  0  0  0  0  0  0  0  0  0  0
   -0.9415    3.3410   -2.5258 H   0  0  0  0  0  0  0  0  0  0  0  0
    4.0908   -3.5815    1.3279 H   0  0  0  0  0  0  0  0  0  0  0  0
    5.3647   -1.4906    1.0237 H   0  0  0  0  0  0  0  0  0  0  0  0
    1.2938    4.8336   -2.0460 H   0  0  0  0  0  0  0  0  0  0  0  0
    1.7258    4.5609    0.6703 H   0  0  0  0  0  0  0  0  0  0  0  0
  1 15  2  0  0  0  0
  2 16  2  0  0  0  0
  3 20  1  0  0  0  0
  3 28  1  0  0  0  0
  4 10  1  0  0  0  0
  4 13  1  0  0  0  0
  4 15  1  0  0  0  0
  5 11  1  0  0  0  0
  5 12  1  0  0  0  0
  5 16  1  0  0  0  0
  6 29  3  0  0  0  0
  7  9  1  0  0  0  0
  7 10  1  0  0  0  0
  7 11  1  0  0  0  0
  7 30  1  0  0  0  0
  8  9  1  0  0  0  0
  8 12  1  0  0  0  0
  8 13  1  0  0  0  0
  8 31  1  0  0  0  0
  9 32  1  0  0  0  0
  9 33  1  0  0  0  0
 10 34  1  0  0  0  0
 10 35  1  0  0  0  0
 11 36  1  0  0  0  0
 11 37  1  0  0  0  0
 12 38  1  0  0  0  0
 12 39  1  0  0  0  0
 13 14  2  0  0  0  0
 14 17  1  0  0  0  0
 14 19  1  0  0  0  0
 15 18  1  0  0  0  0
 16 20  1  0  0  0  0
 17 18  2  0  0  0  0
 17 40  1  0  0  0  0
 18 41  1  0  0  0  0
 19 21  1  0  0  0  0
 19 22  2  0  0  0  0
 20 23  2  0  0  0  0
 21 24  2  0  0  0  0
 21 42  1  0  0  0  0
 22 25  1  0  0  0  0
 22 43  1  0  0  0  0
 23 27  1  0  0  0  0
 23 44  1  0  0  0  0
 24 26  1  0  0  0  0
 24 29  1  0  0  0  0
 25 26  2  0  0  0  0
 25 45  1  0  0  0  0
 26 46  1  0  0  0  0
 27 28  2  0  0  0  0
 27 47  1  0  0  0  0
 28 48  1  0  0  0  0
M  END
> <PUBCHEM_COMPOUND_CID>
9419217

> <PUBCHEM_CONFORMER_RMSD>
0.8

> <PUBCHEM_CONFORMER_DIVERSEORDER>
1
5
8
6
3
7
4
2

> <PUBCHEM_MMFF94_PARTIAL_CHARGES>
36
1 -0.57
10 0.3
11 0.3
12 0.3
13 -0.03
14 -0.03
15 0.62
16 0.71
17 -0.15
18 -0.14
19 0.03
2 -0.57
20 0.05
21 -0.15
22 -0.15
23 -0.15
24 0.07
25 -0.15
26 -0.15
27 -0.15
28 -0.01
29 0.48
3 -0.28
4 -0.47
40 0.15
41 0.15
42 0.15
43 0.15
44 0.15
45 0.15
46 0.15
47 0.15
48 0.15
5 -0.66
6 -0.56
8 0.14

> <PUBCHEM_EFFECTIVE_ROTOR_COUNT>
4

> <PUBCHEM_PHARMACOPHORE_FEATURES>
9
1 1 acceptor
1 2 acceptor
1 3 acceptor
1 6 acceptor
5 3 20 23 27 28 rings
6 19 21 22 24 25 26 rings
6 4 13 14 15 17 18 rings
6 4 7 8 9 10 13 rings
6 5 7 8 9 11 12 rings

> <PUBCHEM_HEAVY_ATOM_COUNT>
29

> <PUBCHEM_ATOM_DEF_STEREO_COUNT>
2

> <PUBCHEM_ATOM_UDEF_STEREO_COUNT>
0

> <PUBCHEM_BOND_DEF_STEREO_COUNT>
0

> <PUBCHEM_BOND_UDEF_STEREO_COUNT>
0

> <PUBCHEM_ISOTOPIC_ATOM_COUNT>
0

> <PUBCHEM_COMPONENT_COUNT>
1

> <PUBCHEM_CACTVS_TAUTO_COUNT>
1

> <PUBCHEM_CONFORMER_ID>
008FB9D100000001

> <PUBCHEM_MMFF94_ENERGY>
74.8051

> <PUBCHEM_FEATURE_SELFOVERLAP>
47.258

> <PUBCHEM_SHAPE_FINGERPRINT>
10670039 82 18189353372137960988
10871710 139 18339928229001048668
11045515 52 18337092553921459943
11221954 11 17329154567928955448
11578080 2 17700941471561721490
11582403 64 17544460965098141763
12156800 1 16963723271534442648
12403814 3 18342181025152461171
12422481 6 18196956387020788865
12539773 59 17628381533590102352
133893 2 18050854613145594635
13583140 156 17973734579605440282
14725015 67 17612304156831521696
14840074 17 18271261515415890905
161222 619 17619087039631407961
17492 54 18267282271693705085
17974551 9 16450968042523956674
17980427 23 18199209355381914225
19930381 70 17758116277710982322
20764821 26 18267005323860885204
22907989 373 17846205644719503951
23419403 2 17461724184165978899
238 59 17329411862129384052
35225 105 17390496411868540308
445580 44 18195218153589606090
469060 322 18266723852882911490
57527293 21 18198930061917170587
9862522 239 17982724178268538914
9925002 15 17701261566752566063

> <PUBCHEM_SHAPE_MULTIPOLES>
564.26
6.6
5.3
2.14
7.71
6.7
-0.28
-1.74
1.32
0.02
-2.32
-2.04
-1.3
-0.93

> <PUBCHEM_SHAPE_SELFOVERLAP>
1256.044

> <PUBCHEM_SHAPE_VOLUME>
293.4

> <PUBCHEM_COORDINATE_TYPE>
2
5
10

$$$$
