26744916
  -OEChem-12032416333D

 49 53  0     1  0  0  0  0  0999 V2000
   -0.4826   -5.8255   -0.6248 F   0  0  0  0  0  0  0  0  0  0  0  0
   -0.1841    2.6168    1.7784 O   0  0  0  0  0  0  0  0  0  0  0  0
    1.7716   -0.0067    0.4405 N   0  0  1  0  0  0  0  0  0  0  0  0
    5.3659    0.1194   -0.6235 N   0  0  0  0  0  0  0  0  0  0  0  0
    4.8857    2.2000   -1.2860 N   0  0  0  0  0  0  0  0  0  0  0  0
   -0.6348    1.9875   -0.3234 N   0  0  0  0  0  0  0  0  0  0  0  0
   -1.5007    3.0216    1.5246 N   0  0  0  0  0  0  0  0  0  0  0  0
    1.6784    1.4782    0.6572 C   0  0  1  0  0  0  0  0  0  0  0  0
    2.5127    2.2916   -0.3951 C   0  0  0  0  0  0  0  0  0  0  0  0
    3.1743   -0.5053    0.5398 C   0  0  0  0  0  0  0  0  0  0  0  0
    4.0904    0.3704   -0.2183 C   0  0  0  0  0  0  0  0  0  0  0  0
    3.8223    1.6501   -0.6285 C   0  0  0  0  0  0  0  0  0  0  0  0
    0.9494   -0.7634    1.3943 C   0  0  0  0  0  0  0  0  0  0  0  0
    0.2515    2.0173    0.6396 C   0  0  0  0  0  0  0  0  0  0  0  0
    0.5667   -2.1161    0.8549 C   0  0  0  0  0  0  0  0  0  0  0  0
    5.8030    1.2529   -1.2636 C   0  0  0  0  0  0  0  0  0  0  0  0
   -1.6934    2.6152    0.2662 C   0  0  0  0  0  0  0  0  0  0  0  0
   -0.6101   -2.2669    0.1214 C   0  0  0  0  0  0  0  0  0  0  0  0
    1.3888   -3.2183    1.0890 C   0  0  0  0  0  0  0  0  0  0  0  0
   -2.9642    2.8306   -0.4343 C   0  0  0  0  0  0  0  0  0  0  0  0
   -0.9649   -3.5201   -0.3780 C   0  0  0  0  0  0  0  0  0  0  0  0
    1.0341   -4.4714    0.5897 C   0  0  0  0  0  0  0  0  0  0  0  0
   -3.8639    1.6014   -0.5186 C   0  0  0  0  0  0  0  0  0  0  0  0
   -0.1426   -4.6223   -0.1437 C   0  0  0  0  0  0  0  0  0  0  0  0
   -3.6179    0.6221   -1.4810 C   0  0  0  0  0  0  0  0  0  0  0  0
   -4.9322    1.4568    0.3663 C   0  0  0  0  0  0  0  0  0  0  0  0
   -4.4403   -0.5019   -1.5584 C   0  0  0  0  0  0  0  0  0  0  0  0
   -5.7546    0.3328    0.2890 C   0  0  0  0  0  0  0  0  0  0  0  0
   -5.5087   -0.6465   -0.6734 C   0  0  0  0  0  0  0  0  0  0  0  0
    2.0991    1.6917    1.6517 H   0  0  0  0  0  0  0  0  0  0  0  0
    2.6509    3.3208   -0.0431 H   0  0  0  0  0  0  0  0  0  0  0  0
    1.9765    2.3415   -1.3515 H   0  0  0  0  0  0  0  0  0  0  0  0
    3.2468   -1.5131    0.1191 H   0  0  0  0  0  0  0  0  0  0  0  0
    3.5113   -0.5361    1.5839 H   0  0  0  0  0  0  0  0  0  0  0  0
    0.0064   -0.2506    1.6184 H   0  0  0  0  0  0  0  0  0  0  0  0
    1.4382   -0.8617    2.3736 H   0  0  0  0  0  0  0  0  0  0  0  0
    5.8942   -0.7313   -0.4800 H   0  0  0  0  0  0  0  0  0  0  0  0
    6.7948    1.3199   -1.6877 H   0  0  0  0  0  0  0  0  0  0  0  0
   -1.2583   -1.4159   -0.0701 H   0  0  0  0  0  0  0  0  0  0  0  0
    2.3017   -3.1211    1.6704 H   0  0  0  0  0  0  0  0  0  0  0  0
   -3.5235    3.6514    0.0341 H   0  0  0  0  0  0  0  0  0  0  0  0
   -2.7619    3.1772   -1.4566 H   0  0  0  0  0  0  0  0  0  0  0  0
   -1.8806   -3.6374   -0.9498 H   0  0  0  0  0  0  0  0  0  0  0  0
    1.6724   -5.3304    0.7741 H   0  0  0  0  0  0  0  0  0  0  0  0
   -2.7885    0.7233   -2.1758 H   0  0  0  0  0  0  0  0  0  0  0  0
   -5.1334    2.2114    1.1218 H   0  0  0  0  0  0  0  0  0  0  0  0
   -4.2479   -1.2650   -2.3069 H   0  0  0  0  0  0  0  0  0  0  0  0
   -6.5860    0.2196    0.9784 H   0  0  0  0  0  0  0  0  0  0  0  0
   -6.1486   -1.5220   -0.7332 H   0  0  0  0  0  0  0  0  0  0  0  0
  1 24  1  0  0  0  0
  2  7  1  0  0  0  0
  2 14  1  0  0  0  0
  3  8  1  0  0  0  0
  3 10  1  0  0  0  0
  3 13  1  0  0  0  0
  4 11  1  0  0  0  0
  4 16  1  0  0  0  0
  4 37  1  0  0  0  0
  5 12  1  0  0  0  0
  5 16  2  0  0  0  0
  6 14  2  0  0  0  0
  6 17  1  0  0  0  0
  7 17  2  0  0  0  0
  8  9  1  0  0  0  0
  8 14  1  0  0  0  0
  8 30  1  0  0  0  0
  9 12  1  0  0  0  0
  9 31  1  0  0  0  0
  9 32  1  0  0  0  0
 10 11  1  0  0  0  0
 10 33  1  0  0  0  0
 10 34  1  0  0  0  0
 11 12  2  0  0  0  0
 13 15  1  0  0  0  0
 13 35  1  0  0  0  0
 13 36  1  0  0  0  0
 15 18  2  0  0  0  0
 15 19  1  0  0  0  0
 16 38  1  0  0  0  0
 17 20  1  0  0  0  0
 18 21  1  0  0  0  0
 18 39  1  0  0  0  0
 19 22  2  0  0  0  0
 19 40  1  0  0  0  0
 20 23  1  0  0  0  0
 20 41  1  0  0  0  0
 20 42  1  0  0  0  0
 21 24  2  0  0  0  0
 21 43  1  0  0  0  0
 22 24  1  0  0  0  0
 22 44  1  0  0  0  0
 23 25  2  0  0  0  0
 23 26  1  0  0  0  0
 25 27  1  0  0  0  0
 25 45  1  0  0  0  0
 26 28  2  0  0  0  0
 26 46  1  0  0  0  0
 27 29  2  0  0  0  0
 27 47  1  0  0  0  0
 28 29  1  0  0  0  0
 28 48  1  0  0  0  0
 29 49  1  0  0  0  0
M  END
> <PUBCHEM_COMPOUND_CID>
26744916

> <PUBCHEM_CONFORMER_RMSD>
0.8

> <PUBCHEM_CONFORMER_DIVERSEORDER>
1
151
142
205
209
75
190
161
20
157
176
153
212
160
13
22
143
123
234
177
178
29
133
219
189
87
159
235
154
169
220
111
216
158
64
52
81
210
208
187
236
85
50
117
180
62
140
32
171
60
166
206
191
121
6
174
223
139
128
233
241
240
181
198
122
126
119
125
82
130
214
39
102
165
149
211
40
164
237
197
71
230
201
222
26
195
58
144
17
12
124
5
70
226
175
227
92
104
135
106
61
203
96
80
76
23
155
147
152
103
98
44
100
167
163
184
168
217
221
97
131
202
183
93
101
194
215
34
172
16
54
213
112
21
162
188
134
30
36
95
37
239
192
110
145
207
67
91
88
90
43
150
113
199
179
41
15
136
193
42
200
170
3
141
114
196
56
48
148
10
89
137
66
115
72
225
228
18
132
38
182
11
45
2
59
14
55
146
73
47
25
224
173
218
33
7
108
86
77
49
35
78
51
53
79
156
116
107
138
127
99
74
4
185
109
118
84
238
231
63
57
68
28
65
120
229
204
94
46
232
24
19
69
27
9
83
186
31
105
129
8

> <PUBCHEM_MMFF94_PARTIAL_CHARGES>
40
1 -0.19
10 0.45
11 -0.33
12 0.05
13 0.41
14 0.3
15 -0.14
16 0.04
17 0.34
18 -0.15
19 -0.15
2 -0.02
20 0.32
21 -0.15
22 -0.15
23 -0.14
24 0.19
25 -0.15
26 -0.15
27 -0.15
28 -0.15
29 -0.15
3 -0.81
37 0.27
38 0.15
39 0.15
4 0.03
40 0.15
43 0.15
44 0.15
45 0.15
46 0.15
47 0.15
48 0.15
49 0.15
5 -0.57
6 -0.57
7 -0.41
8 0.45
9 0.18

> <PUBCHEM_EFFECTIVE_ROTOR_COUNT>
5.8

> <PUBCHEM_PHARMACOPHORE_FEATURES>
9
1 3 cation
1 4 donor
3 4 5 16 cation
3 6 7 17 cation
5 2 6 7 14 17 rings
5 4 5 11 12 16 rings
6 15 18 19 21 22 24 rings
6 23 25 26 27 28 29 rings
6 3 8 9 10 11 12 rings

> <PUBCHEM_HEAVY_ATOM_COUNT>
29

> <PUBCHEM_ATOM_DEF_STEREO_COUNT>
1

> <PUBCHEM_ATOM_UDEF_STEREO_COUNT>
0

> <PUBCHEM_BOND_DEF_STEREO_COUNT>
0

> <PUBCHEM_BOND_UDEF_STEREO_COUNT>
0

> <PUBCHEM_ISOTOPIC_ATOM_COUNT>
0

> <PUBCHEM_COMPONENT_COUNT>
1

> <PUBCHEM_CACTVS_TAUTO_COUNT>
2

> <PUBCHEM_CONFORMER_ID>
0198185400000001

> <PUBCHEM_MMFF94_ENERGY>
63.5075

> <PUBCHEM_FEATURE_SELFOVERLAP>
45.773

> <PUBCHEM_SHAPE_FINGERPRINT>
10674148 151 17489599939077086424
11014199 57 17547849655713651131
11069576 57 17980172233423736383
11135926 11 18265328417998495669
11285246 1 17480901574030545174
11488393 25 18118978987465678347
12788726 201 18201722838388451440
13257819 37 18189355553332266766
13383661 66 18058469719016183671
14114206 34 18200289092606583733
14114211 80 18341906211881016323
14251757 5 18193842767311444534
14289585 56 17458620073872854300
14790565 3 18409732876089494221
14931854 50 18411411821929026861
15537594 2 18272086081140283469
16993438 75 18115316716666835635
17138139 8 18272074045934856813
17909252 39 17059222427986125374
18681886 176 18333728014455863792
19319366 153 18339631283209474103
19591789 44 18338229487809963899
20028762 73 18268990882872674598
20775438 99 17553736831478160565
21344244 181 18271261451461231198
23559900 14 17906716017487582265
3737641 26 18269560442769740755
4258327 124 17678476362201648572
4280585 95 17181642979908704186
437795 70 18057606679523620655
4409770 3 18264220273380550562
46194498 28 17609203559985090325
5312544 6 18335420110857046922
6287921 2 17981033125068875235

> <PUBCHEM_SHAPE_MULTIPOLES>
558.76
10.96
6.18
1.31
2.5
10.41
0.05
-7.48
-4.92
-0.64
0.3
0.02
-0.39
-1.75

> <PUBCHEM_SHAPE_SELFOVERLAP>
1230.219

> <PUBCHEM_SHAPE_VOLUME>
303.4

> <PUBCHEM_COORDINATE_TYPE>
2
5
10

$$$$
