38027340
  -OEChem-12032416253D

 69 71  0     1  0  0  0  0  0999 V2000
   -2.2848   -3.3595    0.8245 O   0  0  0  0  0  0  0  0  0  0  0  0
    0.3095    2.8782   -1.8496 O   0  0  0  0  0  0  0  0  0  0  0  0
    2.6272    2.5307   -0.5249 O   0  0  0  0  0  0  0  0  0  0  0  0
   -0.0668   -2.6807    0.6823 N   0  0  0  0  0  0  0  0  0  0  0  0
   -0.9407    2.8961    0.1136 N   0  0  0  0  0  0  0  0  0  0  0  0
   -2.6705    0.6017   -0.7737 C   0  0  1  0  0  0  0  0  0  0  0  0
   -3.1636    1.9233   -0.1329 C   0  0  1  0  0  0  0  0  0  0  0  0
   -3.3402   -0.6044   -0.0977 C   0  0  0  0  0  0  0  0  0  0  0  0
   -3.0532   -0.6583    1.4147 C   0  0  2  0  0  0  0  0  0  0  0  0
   -2.9385    0.5661   -2.2815 C   0  0  0  0  0  0  0  0  0  0  0  0
   -3.2608    0.6893    2.0757 C   0  0  0  0  0  0  0  0  0  0  0  0
   -3.3210    1.8305    1.3667 C   0  0  0  0  0  0  0  0  0  0  0  0
   -1.6436   -1.1934    1.6907 C   0  0  0  0  0  0  0  0  0  0  0  0
   -2.2281    3.0877   -0.4773 C   0  0  0  0  0  0  0  0  0  0  0  0
    0.4514   -3.8603    0.0343 C   0  0  0  0  0  0  0  0  0  0  0  0
   -1.9674   -0.3862   -2.9721 C   0  0  0  0  0  0  0  0  0  0  0  0
   -4.3825    0.1588   -2.5558 C   0  0  0  0  0  0  0  0  0  0  0  0
    1.9234   -4.0796    0.3593 C   0  0  0  0  0  0  0  0  0  0  0  0
    0.4579   -3.7191   -1.4831 C   0  0  0  0  0  0  0  0  0  0  0  0
   -3.4437    0.6905    3.5679 C   0  0  0  0  0  0  0  0  0  0  0  0
   -1.4023   -2.5294    1.0251 C   0  0  0  0  0  0  0  0  0  0  0  0
    2.6698   -3.1587   -0.6021 C   0  0  0  0  0  0  0  0  0  0  0  0
    1.7454   -2.9619   -1.8039 C   0  0  0  0  0  0  0  0  0  0  0  0
    0.2381    2.8055   -0.6259 C   0  0  0  0  0  0  0  0  0  0  0  0
    1.4526    2.6046    0.2550 C   0  0  0  0  0  0  0  0  0  0  0  0
    3.6584    1.7643   -0.0352 C   0  0  0  0  0  0  0  0  0  0  0  0
    3.8272    1.6203    1.3419 C   0  0  0  0  0  0  0  0  0  0  0  0
    4.5366    1.1321   -0.9155 C   0  0  0  0  0  0  0  0  0  0  0  0
    4.8743    0.8441    1.8390 C   0  0  0  0  0  0  0  0  0  0  0  0
    5.5838    0.3559   -0.4185 C   0  0  0  0  0  0  0  0  0  0  0  0
    5.7523    0.2117    0.9588 C   0  0  0  0  0  0  0  0  0  0  0  0
   -1.5888    0.5127   -0.6145 H   0  0  0  0  0  0  0  0  0  0  0  0
   -4.1556    2.1749   -0.5289 H   0  0  0  0  0  0  0  0  0  0  0  0
   -3.0692   -1.5369   -0.5979 H   0  0  0  0  0  0  0  0  0  0  0  0
   -4.4328   -0.5262   -0.1808 H   0  0  0  0  0  0  0  0  0  0  0  0
   -3.7788   -1.3637    1.8438 H   0  0  0  0  0  0  0  0  0  0  0  0
   -2.7756    1.5553   -2.7215 H   0  0  0  0  0  0  0  0  0  0  0  0
   -3.5194    2.7641    1.8897 H   0  0  0  0  0  0  0  0  0  0  0  0
   -1.4940   -1.3474    2.7663 H   0  0  0  0  0  0  0  0  0  0  0  0
   -0.8897   -0.4652    1.3675 H   0  0  0  0  0  0  0  0  0  0  0  0
   -2.6246    4.0246   -0.0673 H   0  0  0  0  0  0  0  0  0  0  0  0
   -2.1368    3.2342   -1.5569 H   0  0  0  0  0  0  0  0  0  0  0  0
   -0.1535   -4.7194    0.3440 H   0  0  0  0  0  0  0  0  0  0  0  0
   -2.0875   -1.4195   -2.6331 H   0  0  0  0  0  0  0  0  0  0  0  0
   -0.9290   -0.0879   -2.7911 H   0  0  0  0  0  0  0  0  0  0  0  0
   -2.1278   -0.3758   -4.0558 H   0  0  0  0  0  0  0  0  0  0  0  0
   -4.5744   -0.9029   -2.3684 H   0  0  0  0  0  0  0  0  0  0  0  0
   -4.6049    0.3179   -3.6184 H   0  0  0  0  0  0  0  0  0  0  0  0
   -5.1050    0.7606   -1.9964 H   0  0  0  0  0  0  0  0  0  0  0  0
    2.1980   -5.1203    0.1470 H   0  0  0  0  0  0  0  0  0  0  0  0
    2.1748   -3.8707    1.4040 H   0  0  0  0  0  0  0  0  0  0  0  0
   -0.4257   -3.2085   -1.8781 H   0  0  0  0  0  0  0  0  0  0  0  0
    0.5042   -4.7133   -1.9446 H   0  0  0  0  0  0  0  0  0  0  0  0
   -4.2742    0.0351    3.8495 H   0  0  0  0  0  0  0  0  0  0  0  0
   -3.6675    1.6902    3.9552 H   0  0  0  0  0  0  0  0  0  0  0  0
   -2.5368    0.3394    4.0691 H   0  0  0  0  0  0  0  0  0  0  0  0
    3.6351   -3.5835   -0.8950 H   0  0  0  0  0  0  0  0  0  0  0  0
    2.8698   -2.1915   -0.1261 H   0  0  0  0  0  0  0  0  0  0  0  0
    1.5379   -1.8944   -1.9426 H   0  0  0  0  0  0  0  0  0  0  0  0
    2.1995   -3.3296   -2.7297 H   0  0  0  0  0  0  0  0  0  0  0  0
    0.5780   -1.9149    0.8558 H   0  0  0  0  0  0  0  0  0  0  0  0
   -0.8765    2.8803    1.1275 H   0  0  0  0  0  0  0  0  0  0  0  0
    1.5250    3.4516    0.9467 H   0  0  0  0  0  0  0  0  0  0  0  0
    1.2709    1.6773    0.8151 H   0  0  0  0  0  0  0  0  0  0  0  0
    3.1814    2.1172    2.0598 H   0  0  0  0  0  0  0  0  0  0  0  0
    4.4095    1.2404   -1.9891 H   0  0  0  0  0  0  0  0  0  0  0  0
    5.0096    0.7364    2.9112 H   0  0  0  0  0  0  0  0  0  0  0  0
    6.2675   -0.1365   -1.1037 H   0  0  0  0  0  0  0  0  0  0  0  0
    6.5681   -0.3920    1.3456 H   0  0  0  0  0  0  0  0  0  0  0  0
  1 21  2  0  0  0  0
  2 24  2  0  0  0  0
  3 25  1  0  0  0  0
  3 26  1  0  0  0  0
  4 15  1  0  0  0  0
  4 21  1  0  0  0  0
  4 61  1  0  0  0  0
  5 14  1  0  0  0  0
  5 24  1  0  0  0  0
  5 62  1  0  0  0  0
  6  7  1  0  0  0  0
  6  8  1  0  0  0  0
  6 10  1  0  0  0  0
  6 32  1  0  0  0  0
  7 12  1  0  0  0  0
  7 14  1  0  0  0  0
  7 33  1  0  0  0  0
  8  9  1  0  0  0  0
  8 34  1  0  0  0  0
  8 35  1  0  0  0  0
  9 11  1  0  0  0  0
  9 13  1  0  0  0  0
  9 36  1  0  0  0  0
 10 16  1  0  0  0  0
 10 17  1  0  0  0  0
 10 37  1  0  0  0  0
 11 12  2  0  0  0  0
 11 20  1  0  0  0  0
 12 38  1  0  0  0  0
 13 21  1  0  0  0  0
 13 39  1  0  0  0  0
 13 40  1  0  0  0  0
 14 41  1  0  0  0  0
 14 42  1  0  0  0  0
 15 18  1  0  0  0  0
 15 19  1  0  0  0  0
 15 43  1  0  0  0  0
 16 44  1  0  0  0  0
 16 45  1  0  0  0  0
 16 46  1  0  0  0  0
 17 47  1  0  0  0  0
 17 48  1  0  0  0  0
 17 49  1  0  0  0  0
 18 22  1  0  0  0  0
 18 50  1  0  0  0  0
 18 51  1  0  0  0  0
 19 23  1  0  0  0  0
 19 52  1  0  0  0  0
 19 53  1  0  0  0  0
 20 54  1  0  0  0  0
 20 55  1  0  0  0  0
 20 56  1  0  0  0  0
 22 23  1  0  0  0  0
 22 57  1  0  0  0  0
 22 58  1  0  0  0  0
 23 59  1  0  0  0  0
 23 60  1  0  0  0  0
 24 25  1  0  0  0  0
 25 63  1  0  0  0  0
 25 64  1  0  0  0  0
 26 27  2  0  0  0  0
 26 28  1  0  0  0  0
 27 29  1  0  0  0  0
 27 65  1  0  0  0  0
 28 30  2  0  0  0  0
 28 66  1  0  0  0  0
 29 31  2  0  0  0  0
 29 67  1  0  0  0  0
 30 31  1  0  0  0  0
 30 68  1  0  0  0  0
 31 69  1  0  0  0  0
M  END
> <PUBCHEM_COMPOUND_CID>
38027340

> <PUBCHEM_CONFORMER_RMSD>
1.2

> <PUBCHEM_CONFORMER_DIVERSEORDER>
1
11
42
121
117
21
51
125
126
115
131
73
58
36
33
144
128
45
35
62
82
34
137
95
96
25
108
127
64
135
110
49
106
122
88
139
23
80
129
9
103
83
65
18
111
134
123
31
130
138
20
37
120
72
10
94
99
85
32
78
2
84
38
133
93
5
143
40
87
118
91
86
105
56
13
71
124
76
107
54
22
44
74
69
109
79
12
136
98
48
8
89
52
141
15
47
27
46
43
60
92
113
63
90
57
53
102
66
39
146
70
67
81
59
112
116
24
101
77
100
140
29
6
4
16
68
17
61
142
104
114
145
75
14
119
19
50
28
3
41
132
30
55
26
97
7

> <PUBCHEM_MMFF94_PARTIAL_CHARGES>
30
1 -0.57
11 -0.28
12 -0.29
13 0.06
14 0.3
15 0.3
2 -0.57
20 0.14
21 0.57
24 0.57
25 0.34
26 0.08
27 -0.15
28 -0.15
29 -0.15
3 -0.36
30 -0.15
31 -0.15
38 0.15
4 -0.73
5 -0.73
61 0.37
62 0.37
65 0.15
66 0.15
67 0.15
68 0.15
69 0.15
7 0.14
9 0.14

> <PUBCHEM_EFFECTIVE_ROTOR_COUNT>
12.8

> <PUBCHEM_PHARMACOPHORE_FEATURES>
9
1 1 acceptor
1 2 acceptor
1 3 acceptor
1 4 donor
1 5 donor
3 10 16 17 hydrophobe
5 15 18 19 22 23 rings
6 26 27 28 29 30 31 rings
6 6 7 8 9 11 12 rings

> <PUBCHEM_HEAVY_ATOM_COUNT>
31

> <PUBCHEM_ATOM_DEF_STEREO_COUNT>
3

> <PUBCHEM_ATOM_UDEF_STEREO_COUNT>
0

> <PUBCHEM_BOND_DEF_STEREO_COUNT>
0

> <PUBCHEM_BOND_UDEF_STEREO_COUNT>
0

> <PUBCHEM_ISOTOPIC_ATOM_COUNT>
0

> <PUBCHEM_COMPONENT_COUNT>
1

> <PUBCHEM_CACTVS_TAUTO_COUNT>
4

> <PUBCHEM_CONFORMER_ID>
0244404C00000001

> <PUBCHEM_MMFF94_ENERGY>
67.2569

> <PUBCHEM_FEATURE_SELFOVERLAP>
45.678

> <PUBCHEM_SHAPE_FINGERPRINT>
107951 10 16298928889301330049
12156800 1 13415868903827568432
12422481 6 17974027316418781771
12539773 59 17774725264537651641
12633257 1 18192170367086266385
13122387 1 18337958999264618278
13165053 137 18193814012490444330
14279260 333 17530674400268448890
15064986 96 17972072273175621465
16120349 306 18130490977530125228
20764821 26 18264224628487905966
20775530 9 17329150680972925298
238918 7 18342738503718350070
25265897 201 14347751930668977203
3027735 51 18339910542078167525
3298306 158 18341050727145963216
4112364 45 17124266143146722113
508706 21 18410579461788693718

> <PUBCHEM_SHAPE_MULTIPOLES>
610.4
9.88
5.46
2.73
11.49
4.76
-0.18
-4.81
-1.75
2.33
0.74
-3.39
-0.11
0.64

> <PUBCHEM_SHAPE_SELFOVERLAP>
1259.231

> <PUBCHEM_SHAPE_VOLUME>
348.7

> <PUBCHEM_COORDINATE_TYPE>
2
5
10

$$$$
