26743666
  -OEChem-12032416263D

 45 48  0     1  0  0  0  0  0999 V2000
    3.7790   -3.5555    0.9930 O   0  0  0  0  0  0  0  0  0  0  0  0
   -0.4994   -1.2489   -1.9833 O   0  0  0  0  0  0  0  0  0  0  0  0
    2.2236   -0.4057    0.3372 N   0  0  1  0  0  0  0  0  0  0  0  0
   -0.7516   -0.5571    0.1320 N   0  0  0  0  0  0  0  0  0  0  0  0
   -1.8573   -0.9400   -1.8338 N   0  0  0  0  0  0  0  0  0  0  0  0
   -4.2454   -0.1466   -0.7488 N   0  0  0  0  0  0  0  0  0  0  0  0
    2.6187    0.9054   -0.1738 C   0  0  0  0  0  0  0  0  0  0  0  0
    1.5676   -1.2532   -0.6792 C   0  0  1  0  0  0  0  0  0  0  0  0
    3.3658   -1.1684    0.8374 C   0  0  0  0  0  0  0  0  0  0  0  0
    1.3852    1.6591   -0.6835 C   0  0  0  0  0  0  0  0  0  0  0  0
    3.3359    1.6980    0.9245 C   0  0  0  0  0  0  0  0  0  0  0  0
    1.8950   -2.6979   -0.2581 C   0  0  0  0  0  0  0  0  0  0  0  0
    2.7759   -2.5587    0.9772 C   0  0  1  0  0  0  0  0  0  0  0  0
    1.7483    3.0660   -1.1556 C   0  0  0  0  0  0  0  0  0  0  0  0
    3.6971    3.1046    0.4500 C   0  0  0  0  0  0  0  0  0  0  0  0
    2.4735    3.8547   -0.0689 C   0  0  0  0  0  0  0  0  0  0  0  0
    0.0788   -0.9958   -0.7800 C   0  0  0  0  0  0  0  0  0  0  0  0
   -1.9270   -0.5394   -0.5609 C   0  0  0  0  0  0  0  0  0  0  0  0
   -3.1546   -0.1171    0.0491 C   0  0  0  0  0  0  0  0  0  0  0  0
   -3.1735    0.2880    1.3740 C   0  0  0  0  0  0  0  0  0  0  0  0
   -4.3904    0.6879    1.9149 C   0  0  0  0  0  0  0  0  0  0  0  0
   -5.4103    0.2493   -0.1886 C   0  0  0  0  0  0  0  0  0  0  0  0
   -5.5349    0.6711    1.1253 C   0  0  0  0  0  0  0  0  0  0  0  0
    3.3171    0.7830   -1.0145 H   0  0  0  0  0  0  0  0  0  0  0  0
    2.0193   -1.0897   -1.6681 H   0  0  0  0  0  0  0  0  0  0  0  0
    3.7223   -0.8245    1.8138 H   0  0  0  0  0  0  0  0  0  0  0  0
    4.2147   -1.1737    0.1409 H   0  0  0  0  0  0  0  0  0  0  0  0
    0.6259    1.7413    0.1041 H   0  0  0  0  0  0  0  0  0  0  0  0
    0.9378    1.1715   -1.5533 H   0  0  0  0  0  0  0  0  0  0  0  0
    4.2699    1.2134    1.2298 H   0  0  0  0  0  0  0  0  0  0  0  0
    2.7014    1.7720    1.8176 H   0  0  0  0  0  0  0  0  0  0  0  0
    1.0054   -3.2943   -0.0245 H   0  0  0  0  0  0  0  0  0  0  0  0
    2.4302   -3.2161   -1.0636 H   0  0  0  0  0  0  0  0  0  0  0  0
    2.1758   -2.6376    1.8921 H   0  0  0  0  0  0  0  0  0  0  0  0
    0.8398    3.6012   -1.4544 H   0  0  0  0  0  0  0  0  0  0  0  0
    2.3873    3.0001   -2.0450 H   0  0  0  0  0  0  0  0  0  0  0  0
    4.4498    3.0400   -0.3454 H   0  0  0  0  0  0  0  0  0  0  0  0
    4.1508    3.6668    1.2742 H   0  0  0  0  0  0  0  0  0  0  0  0
    2.7788    4.8306   -0.4631 H   0  0  0  0  0  0  0  0  0  0  0  0
    1.7845    4.0470    0.7626 H   0  0  0  0  0  0  0  0  0  0  0  0
    3.3323   -4.4192    1.0066 H   0  0  0  0  0  0  0  0  0  0  0  0
   -2.2843    0.3041    1.9958 H   0  0  0  0  0  0  0  0  0  0  0  0
   -4.4472    1.0124    2.9496 H   0  0  0  0  0  0  0  0  0  0  0  0
   -6.2729    0.2179   -0.8460 H   0  0  0  0  0  0  0  0  0  0  0  0
   -6.4940    0.9787    1.5257 H   0  0  0  0  0  0  0  0  0  0  0  0
  1 13  1  0  0  0  0
  1 41  1  0  0  0  0
  2  5  1  0  0  0  0
  2 17  1  0  0  0  0
  3  7  1  0  0  0  0
  3  8  1  0  0  0  0
  3  9  1  0  0  0  0
  4 17  2  0  0  0  0
  4 18  1  0  0  0  0
  5 18  2  0  0  0  0
  6 19  1  0  0  0  0
  6 22  2  0  0  0  0
  7 10  1  0  0  0  0
  7 11  1  0  0  0  0
  7 24  1  0  0  0  0
  8 12  1  0  0  0  0
  8 17  1  0  0  0  0
  8 25  1  0  0  0  0
  9 13  1  0  0  0  0
  9 26  1  0  0  0  0
  9 27  1  0  0  0  0
 10 14  1  0  0  0  0
 10 28  1  0  0  0  0
 10 29  1  0  0  0  0
 11 15  1  0  0  0  0
 11 30  1  0  0  0  0
 11 31  1  0  0  0  0
 12 13  1  0  0  0  0
 12 32  1  0  0  0  0
 12 33  1  0  0  0  0
 13 34  1  0  0  0  0
 14 16  1  0  0  0  0
 14 35  1  0  0  0  0
 14 36  1  0  0  0  0
 15 16  1  0  0  0  0
 15 37  1  0  0  0  0
 15 38  1  0  0  0  0
 16 39  1  0  0  0  0
 16 40  1  0  0  0  0
 18 19  1  0  0  0  0
 19 20  2  0  0  0  0
 20 21  1  0  0  0  0
 20 42  1  0  0  0  0
 21 23  2  0  0  0  0
 21 43  1  0  0  0  0
 22 23  1  0  0  0  0
 22 44  1  0  0  0  0
 23 45  1  0  0  0  0
M  END
> <PUBCHEM_COMPOUND_CID>
26743666

> <PUBCHEM_CONFORMER_RMSD>
0.8

> <PUBCHEM_CONFORMER_DIVERSEORDER>
1
30
24
52
10
57
54
55
17
49
7
18
26
32
28
36
34
23
25
39
20
37
15
27
44
40
61
31
16
8
41
59
6
22
14
47
4
21
51
45
33
53
60
46
2
12
48
42
19
29
3
11
43
5
35
50
58
9
13
38
56

> <PUBCHEM_MMFF94_PARTIAL_CHARGES>
22
1 -0.68
13 0.28
17 0.3
18 0.46
19 0.36
2 -0.02
20 -0.15
21 -0.15
22 0.16
23 -0.15
3 -0.81
4 -0.57
41 0.4
42 0.15
43 0.15
44 0.15
45 0.15
5 -0.41
6 -0.62
7 0.27
8 0.45
9 0.27

> <PUBCHEM_EFFECTIVE_ROTOR_COUNT>
5.2

> <PUBCHEM_PHARMACOPHORE_FEATURES>
9
1 1 acceptor
1 1 donor
1 3 cation
1 6 acceptor
3 4 5 18 cation
5 2 4 5 17 18 rings
5 3 8 9 12 13 rings
6 6 19 20 21 22 23 rings
6 7 10 11 14 15 16 rings

> <PUBCHEM_HEAVY_ATOM_COUNT>
23

> <PUBCHEM_ATOM_DEF_STEREO_COUNT>
2

> <PUBCHEM_ATOM_UDEF_STEREO_COUNT>
0

> <PUBCHEM_BOND_DEF_STEREO_COUNT>
0

> <PUBCHEM_BOND_UDEF_STEREO_COUNT>
0

> <PUBCHEM_ISOTOPIC_ATOM_COUNT>
0

> <PUBCHEM_COMPONENT_COUNT>
1

> <PUBCHEM_CACTVS_TAUTO_COUNT>
1

> <PUBCHEM_CONFORMER_ID>
0198137200000001

> <PUBCHEM_MMFF94_ENERGY>
37.4958

> <PUBCHEM_FEATURE_SELFOVERLAP>
45.672

> <PUBCHEM_SHAPE_FINGERPRINT>
10382601 240 18409444817349717080
10937287 8 17979074117428819920
11049842 53 16845302617642510135
11640471 11 18058731449769290868
12390115 104 17904490954088238876
12403259 118 17987237738409898217
12549972 3 17025404752644166021
12633257 1 17459180953324893224
12644460 14 18409169904734797250
12930653 34 18047197632939631459
13134695 92 18262516987908306030
13140716 1 18192146221170394804
13533116 47 18259993656610869595
13583140 156 18261681445461321299
13590594 115 18267588996730303480
13828863 39 16157944246525986036
13878862 14 18263063471532543597
13965767 371 18131627872548042272
14251764 38 18267868285891141161
14739800 52 17273959389436795744
14790565 3 18118408586324883556
14950920 106 18121249561445993601
14955137 171 18340497664540157902
15142526 21 18122904497495849472
15475509 8 17987534653973360174
15842332 3 18058994198709969839
17980427 23 17416942020401295966
1813 80 18126008165856113166
18785283 64 18186803629751640664
19377110 9 18129950095862605835
20157964 124 18410006659528546005
20715895 44 17769098948049810001
20739085 24 18269837532332030678
21033648 29 17530677706871260349
21041028 32 18192144889746233990
21503847 285 18272099279046977630
21665062 11 18410857633682365408
21756936 100 17834967747263701156
22849341 161 18270122288669010718
23558518 356 17978227489465230574
23559900 14 16950292780219597527
23845131 108 18117274976386741906
25147074 1 18059278968232415151
266924 1 17985247815062594071
31174 14 18259701172910273022
34797466 226 12895059705737518289
38570 142 18197796572797489924
394222 165 18272378619356494106
4409770 3 16325436722681888902
474 4 18339077210831945417
5104073 3 18338531776757250491
513202 73 17619914955023907746
56616090 278 18339657714601509796
5895379 119 16271383910468498976
6034566 193 17684655711226568645
621550 5 17459755809043742694
633830 44 18198344163963626804
6823239 73 15864368933839402971
960060 61 8574427596062658883
9841814 1 18336553698692351190

> <PUBCHEM_SHAPE_MULTIPOLES>
441.67
9.99
3.88
1.5
14.28
1.06
0.08
2.59
-3.98
-7.8
-0.28
0.91
-0.19
-1.47

> <PUBCHEM_SHAPE_SELFOVERLAP>
949.526

> <PUBCHEM_SHAPE_VOLUME>
243.2

> <PUBCHEM_COORDINATE_TYPE>
2
5
10

$$$$
