45783812
  -OEChem-12032416263D

 52 56  0     1  0  0  0  0  0999 V2000
   -1.6433   -1.9414    1.8249 O   0  0  0  0  0  0  0  0  0  0  0  0
    0.5093    2.7670   -1.3947 O   0  0  0  0  0  0  0  0  0  0  0  0
    0.9343    3.4719    0.8703 O   0  0  0  0  0  0  0  0  0  0  0  0
   -3.7083   -0.4187   -0.8061 N   0  0  1  0  0  0  0  0  0  0  0  0
   -0.8983   -1.1787   -0.1448 N   0  0  0  0  0  0  0  0  0  0  0  0
   -0.2468   -1.9031    1.9251 N   0  0  0  0  0  0  0  0  0  0  0  0
    3.8276   -1.3385    0.9798 N   0  0  0  0  0  0  0  0  0  0  0  0
    5.4851   -0.6743   -0.5971 N   0  0  0  0  0  0  0  0  0  0  0  0
   -3.4126   -1.4449    0.2136 C   0  0  1  0  0  0  0  0  0  0  0  0
   -3.9236   -2.7625   -0.3978 C   0  0  0  0  0  0  0  0  0  0  0  0
   -4.5432   -2.3684   -1.7311 C   0  0  0  0  0  0  0  0  0  0  0  0
   -4.8715   -0.9000   -1.5517 C   0  0  0  0  0  0  0  0  0  0  0  0
   -3.9292    0.9061   -0.2407 C   0  0  0  0  0  0  0  0  0  0  0  0
   -1.9432   -1.4995    0.5755 C   0  0  0  0  0  0  0  0  0  0  0  0
   -2.6336    1.5962    0.0937 C   0  0  0  0  0  0  0  0  0  0  0  0
   -1.6902    1.8247   -0.9111 C   0  0  0  0  0  0  0  0  0  0  0  0
   -2.3853    2.0073    1.4151 C   0  0  0  0  0  0  0  0  0  0  0  0
    0.1193   -1.4429    0.7251 C   0  0  0  0  0  0  0  0  0  0  0  0
   -0.5191    2.4624   -0.5569 C   0  0  0  0  0  0  0  0  0  0  0  0
   -1.1911    2.6516    1.7471 C   0  0  0  0  0  0  0  0  0  0  0  0
   -0.2763    2.8649    0.7365 C   0  0  0  0  0  0  0  0  0  0  0  0
    1.4921   -1.2376    0.3633 C   0  0  0  0  0  0  0  0  0  0  0  0
    1.4263    3.4067   -0.4837 C   0  0  0  0  0  0  0  0  0  0  0  0
    1.8374   -0.7586   -0.8955 C   0  0  0  0  0  0  0  0  0  0  0  0
    2.5154   -1.5098    1.2569 C   0  0  0  0  0  0  0  0  0  0  0  0
    3.1769   -0.5693   -1.2178 C   0  0  0  0  0  0  0  0  0  0  0  0
    4.1249   -0.8714   -0.2535 C   0  0  0  0  0  0  0  0  0  0  0  0
    6.5273   -0.9618    0.3635 C   0  0  0  0  0  0  0  0  0  0  0  0
    5.8397   -0.1770   -1.9080 C   0  0  0  0  0  0  0  0  0  0  0  0
   -3.9888   -1.2593    1.1310 H   0  0  0  0  0  0  0  0  0  0  0  0
   -3.1421   -3.5169   -0.5399 H   0  0  0  0  0  0  0  0  0  0  0  0
   -4.6948   -3.1952    0.2511 H   0  0  0  0  0  0  0  0  0  0  0  0
   -5.4251   -2.9695   -1.9713 H   0  0  0  0  0  0  0  0  0  0  0  0
   -3.8101   -2.5010   -2.5364 H   0  0  0  0  0  0  0  0  0  0  0  0
   -5.7995   -0.7850   -0.9772 H   0  0  0  0  0  0  0  0  0  0  0  0
   -4.9831   -0.3924   -2.5147 H   0  0  0  0  0  0  0  0  0  0  0  0
   -4.4324    1.5471   -0.9784 H   0  0  0  0  0  0  0  0  0  0  0  0
   -4.6031    0.8711    0.6253 H   0  0  0  0  0  0  0  0  0  0  0  0
   -1.8654    1.5189   -1.9370 H   0  0  0  0  0  0  0  0  0  0  0  0
   -3.1207    1.8264    2.1951 H   0  0  0  0  0  0  0  0  0  0  0  0
   -0.9955    2.9691    2.7649 H   0  0  0  0  0  0  0  0  0  0  0  0
    1.6182    4.4263   -0.8371 H   0  0  0  0  0  0  0  0  0  0  0  0
    2.3701    2.8494   -0.4874 H   0  0  0  0  0  0  0  0  0  0  0  0
    1.0843   -0.5243   -1.6435 H   0  0  0  0  0  0  0  0  0  0  0  0
    2.3307   -1.8859    2.2588 H   0  0  0  0  0  0  0  0  0  0  0  0
    3.4018   -0.1937   -2.2085 H   0  0  0  0  0  0  0  0  0  0  0  0
    6.4118   -0.3400    1.2581 H   0  0  0  0  0  0  0  0  0  0  0  0
    6.4996   -2.0157    0.6618 H   0  0  0  0  0  0  0  0  0  0  0  0
    7.5264   -0.7661   -0.0403 H   0  0  0  0  0  0  0  0  0  0  0  0
    5.5120   -0.8610   -2.6990 H   0  0  0  0  0  0  0  0  0  0  0  0
    5.4262    0.8227   -2.0831 H   0  0  0  0  0  0  0  0  0  0  0  0
    6.9259   -0.0813   -2.0193 H   0  0  0  0  0  0  0  0  0  0  0  0
  1  6  1  0  0  0  0
  1 14  1  0  0  0  0
  2 19  1  0  0  0  0
  2 23  1  0  0  0  0
  3 21  1  0  0  0  0
  3 23  1  0  0  0  0
  4  9  1  0  0  0  0
  4 12  1  0  0  0  0
  4 13  1  0  0  0  0
  5 14  2  0  0  0  0
  5 18  1  0  0  0  0
  6 18  2  0  0  0  0
  7 25  1  0  0  0  0
  7 27  2  0  0  0  0
  8 27  1  0  0  0  0
  8 28  1  0  0  0  0
  8 29  1  0  0  0  0
  9 10  1  0  0  0  0
  9 14  1  0  0  0  0
  9 30  1  0  0  0  0
 10 11  1  0  0  0  0
 10 31  1  0  0  0  0
 10 32  1  0  0  0  0
 11 12  1  0  0  0  0
 11 33  1  0  0  0  0
 11 34  1  0  0  0  0
 12 35  1  0  0  0  0
 12 36  1  0  0  0  0
 13 15  1  0  0  0  0
 13 37  1  0  0  0  0
 13 38  1  0  0  0  0
 15 16  2  0  0  0  0
 15 17  1  0  0  0  0
 16 19  1  0  0  0  0
 16 39  1  0  0  0  0
 17 20  2  0  0  0  0
 17 40  1  0  0  0  0
 18 22  1  0  0  0  0
 19 21  2  0  0  0  0
 20 21  1  0  0  0  0
 20 41  1  0  0  0  0
 22 24  1  0  0  0  0
 22 25  2  0  0  0  0
 23 42  1  0  0  0  0
 23 43  1  0  0  0  0
 24 26  2  0  0  0  0
 24 44  1  0  0  0  0
 25 45  1  0  0  0  0
 26 27  1  0  0  0  0
 26 46  1  0  0  0  0
 28 47  1  0  0  0  0
 28 48  1  0  0  0  0
 28 49  1  0  0  0  0
 29 50  1  0  0  0  0
 29 51  1  0  0  0  0
 29 52  1  0  0  0  0
M  END
> <PUBCHEM_COMPOUND_CID>
45783812

> <PUBCHEM_CONFORMER_RMSD>
0.8

> <PUBCHEM_CONFORMER_DIVERSEORDER>
1
101
97
105
48
13
20
139
90
126
69
156
121
146
79
34
149
27
122
99
18
112
15
148
64
115
52
4
129
118
91
125
46
68
23
124
33
119
109
77
127
35
137
2
102
29
38
107
113
131
10
14
166
100
89
161
155
96
108
82
141
106
19
160
83
145
143
138
16
50
104
43
150
94
59
153
88
158
74
3
73
72
5
30
57
80
76
144
36
152
9
93
54
26
114
31
44
140
32
136
123
17
81
60
78
163
63
111
71
87
134
117
53
103
67
65
133
130
49
75
95
42
154
132
92
70
37
159
66
6
164
56
25
21
116
61
55
151
142
24
51
98
110
135
157
47
62
39
7
120
41
85
58
147
162
28
8
12
45
86
22
165
84
128
11
40

> <PUBCHEM_MMFF94_PARTIAL_CHARGES>
33
1 -0.02
12 0.27
13 0.41
14 0.3
15 -0.14
16 -0.15
17 -0.15
18 0.46
19 0.08
2 -0.36
20 -0.15
21 0.08
22 0.05
23 0.56
24 -0.15
25 0.16
26 -0.15
27 0.41
28 0.37
29 0.37
3 -0.36
39 0.15
4 -0.81
40 0.15
41 0.15
44 0.15
45 0.15
46 0.15
5 -0.57
6 -0.41
7 -0.62
8 -0.84
9 0.45

> <PUBCHEM_EFFECTIVE_ROTOR_COUNT>
6.6

> <PUBCHEM_PHARMACOPHORE_FEATURES>
10
1 2 acceptor
1 3 acceptor
1 4 cation
3 5 6 18 cation
3 7 8 27 cation
5 1 5 6 14 18 rings
5 2 3 19 21 23 rings
5 4 9 10 11 12 rings
6 15 16 17 19 20 21 rings
6 7 22 24 25 26 27 rings

> <PUBCHEM_HEAVY_ATOM_COUNT>
29

> <PUBCHEM_ATOM_DEF_STEREO_COUNT>
1

> <PUBCHEM_ATOM_UDEF_STEREO_COUNT>
0

> <PUBCHEM_BOND_DEF_STEREO_COUNT>
0

> <PUBCHEM_BOND_UDEF_STEREO_COUNT>
0

> <PUBCHEM_ISOTOPIC_ATOM_COUNT>
0

> <PUBCHEM_COMPONENT_COUNT>
1

> <PUBCHEM_CACTVS_TAUTO_COUNT>
1

> <PUBCHEM_CONFORMER_ID>
02BA9B0400000001

> <PUBCHEM_MMFF94_ENERGY>
74.2962

> <PUBCHEM_FEATURE_SELFOVERLAP>
50.904

> <PUBCHEM_SHAPE_FINGERPRINT>
10871710 139 18189901903010618473
1100329 8 18411985737340383089
12156800 1 15507944578864417436
12166972 35 17821732783606934798
12788726 201 18262232210270621274
13583140 156 14924240317124188552
14068700 675 18272082825006180749
14787075 74 18335422357325546124
14790565 3 17764306142103902801
14910302 57 17773877489422876406
14931854 50 18187643587404368439
16090146 7 17703796921330987223
17357779 13 18342733039686181435
17492 54 18114739339833441493
18336668 15 18186524297462880012
20642791 239 18260537901944858121
20642791 35 18337093623937768557
20691752 17 17677032651709302973
20775438 99 17333341993872199879
20775530 9 18339074995018970407
20905425 154 18124597745866536117
21304303 64 17386011628957325797
21344244 246 17837479014340595903
21623110 236 18337684078561618816
23402539 116 18411135822946246030
23419403 2 17908380884266412661
23557571 272 18130786728746123150
23559900 14 18117270561455260373
392239 28 18410856526050717616
4280585 95 18336815451142113988
469060 322 17532965785846212937
484989 97 17896887758447558635
5171179 24 18271799185239898240
57527585 103 17752239194808525995
7471813 234 18270115845890831070

> <PUBCHEM_SHAPE_MULTIPOLES>
554.29
10.74
4.05
1.7
13.01
3.51
0.09
-7.59
-4.59
-2.37
0.48
-0.06
-0.21
-1.34

> <PUBCHEM_SHAPE_SELFOVERLAP>
1219.072

> <PUBCHEM_SHAPE_VOLUME>
301.7

> <PUBCHEM_COORDINATE_TYPE>
2
5
10

$$$$
