11941473
  -OEChem-12032416363D

 55 58  0     1  0  0  0  0  0999 V2000
    4.5685    4.9119    0.3858 Cl  0  0  0  0  0  0  0  0  0  0  0  0
   -2.1550   -3.6832    1.6172 O   0  0  0  0  0  0  0  0  0  0  0  0
    0.7186   -1.7890   -2.3720 O   0  0  0  0  0  0  0  0  0  0  0  0
   -4.8258   -0.0872    1.4450 O   0  0  0  0  0  0  0  0  0  0  0  0
    5.4593   -0.8264   -0.5009 O   0  0  0  0  0  0  0  0  0  0  0  0
   -7.0578    4.3894    0.6782 O   0  0  0  0  0  0  0  0  0  0  0  0
   -6.1688    3.8695   -1.3461 O   0  0  0  0  0  0  0  0  0  0  0  0
   -1.1482   -2.0328   -1.0511 N   0  0  0  0  0  0  0  0  0  0  0  0
   -3.9375   -0.6678   -0.6224 N   0  0  0  0  0  0  0  0  0  0  0  0
   -0.1232   -2.6541    1.6357 N   0  0  0  0  0  0  0  0  0  0  0  0
   -3.3654   -1.9367   -0.2338 C   0  0  2  0  0  0  0  0  0  0  0  0
   -1.8927   -1.7746    0.1674 C   0  0  1  0  0  0  0  0  0  0  0  0
   -3.3079   -2.9036   -1.4181 C   0  0  0  0  0  0  0  0  0  0  0  0
   -2.0092   -2.5289   -2.1149 C   0  0  0  0  0  0  0  0  0  0  0  0
   -1.4110   -2.8099    1.1669 C   0  0  0  0  0  0  0  0  0  0  0  0
    0.1715   -1.7023   -1.2727 C   0  0  0  0  0  0  0  0  0  0  0  0
    0.9812   -1.2401   -0.1153 C   0  0  0  0  0  0  0  0  0  0  0  0
    0.8756   -1.7641    1.1843 C   0  0  0  0  0  0  0  0  0  0  0  0
   -4.6244    0.1550    0.2580 C   0  0  0  0  0  0  0  0  0  0  0  0
    2.0205   -0.3408   -0.4159 C   0  0  0  0  0  0  0  0  0  0  0  0
    1.8554   -1.4242    2.1337 C   0  0  0  0  0  0  0  0  0  0  0  0
   -5.1139    1.4187   -0.4263 C   0  0  0  0  0  0  0  0  0  0  0  0
    2.9554    0.0214    0.5526 C   0  0  0  0  0  0  0  0  0  0  0  0
    2.8804   -0.5304    1.8249 C   0  0  0  0  0  0  0  0  0  0  0  0
   -5.8730    2.3396    0.5235 C   0  0  0  0  0  0  0  0  0  0  0  0
    4.0148    0.9513    0.2269 C   0  0  0  0  0  0  0  0  0  0  0  0
    5.2318    0.5012   -0.2883 C   0  0  0  0  0  0  0  0  0  0  0  0
    3.8110    2.3168    0.4342 C   0  0  0  0  0  0  0  0  0  0  0  0
   -6.3609    3.5896   -0.1710 C   0  0  0  0  0  0  0  0  0  0  0  0
    6.2414    1.4135   -0.5952 C   0  0  0  0  0  0  0  0  0  0  0  0
    4.8207    3.2290    0.1274 C   0  0  0  0  0  0  0  0  0  0  0  0
    6.0358    2.7773   -0.3874 C   0  0  0  0  0  0  0  0  0  0  0  0
    6.7329   -1.1878   -1.0300 C   0  0  0  0  0  0  0  0  0  0  0  0
   -3.9815   -2.3456    0.5740 H   0  0  0  0  0  0  0  0  0  0  0  0
   -1.6746   -0.7716    0.5529 H   0  0  0  0  0  0  0  0  0  0  0  0
   -3.2380   -3.9341   -1.0489 H   0  0  0  0  0  0  0  0  0  0  0  0
   -4.1716   -2.8400   -2.0869 H   0  0  0  0  0  0  0  0  0  0  0  0
   -2.1554   -1.7177   -2.8368 H   0  0  0  0  0  0  0  0  0  0  0  0
   -1.5375   -3.3723   -2.6280 H   0  0  0  0  0  0  0  0  0  0  0  0
   -3.7842   -0.3453   -1.5739 H   0  0  0  0  0  0  0  0  0  0  0  0
    0.1067   -3.1949    2.4661 H   0  0  0  0  0  0  0  0  0  0  0  0
    2.1108    0.0710   -1.4204 H   0  0  0  0  0  0  0  0  0  0  0  0
    1.8132   -1.8356    3.1406 H   0  0  0  0  0  0  0  0  0  0  0  0
   -5.7587    1.1289   -1.2651 H   0  0  0  0  0  0  0  0  0  0  0  0
   -4.2457    1.9430   -0.8442 H   0  0  0  0  0  0  0  0  0  0  0  0
    3.6084   -0.2757    2.5913 H   0  0  0  0  0  0  0  0  0  0  0  0
   -6.7429    1.8148    0.9345 H   0  0  0  0  0  0  0  0  0  0  0  0
   -5.2221    2.6402    1.3522 H   0  0  0  0  0  0  0  0  0  0  0  0
    2.8642    2.6733    0.8361 H   0  0  0  0  0  0  0  0  0  0  0  0
    7.2106    1.1402   -0.9974 H   0  0  0  0  0  0  0  0  0  0  0  0
    6.8310    3.4777   -0.6304 H   0  0  0  0  0  0  0  0  0  0  0  0
   -7.3785    5.2029    0.2335 H   0  0  0  0  0  0  0  0  0  0  0  0
    6.8875   -0.7739   -2.0323 H   0  0  0  0  0  0  0  0  0  0  0  0
    6.7392   -2.2779   -1.1346 H   0  0  0  0  0  0  0  0  0  0  0  0
    7.5452   -0.9325   -0.3407 H   0  0  0  0  0  0  0  0  0  0  0  0
  1 31  1  0  0  0  0
  2 15  2  0  0  0  0
  3 16  2  0  0  0  0
  4 19  2  0  0  0  0
  5 27  1  0  0  0  0
  5 33  1  0  0  0  0
  6 29  1  0  0  0  0
  6 52  1  0  0  0  0
  7 29  2  0  0  0  0
  8 12  1  0  0  0  0
  8 14  1  0  0  0  0
  8 16  1  0  0  0  0
  9 11  1  0  0  0  0
  9 19  1  0  0  0  0
  9 40  1  0  0  0  0
 10 15  1  0  0  0  0
 10 18  1  0  0  0  0
 10 41  1  0  0  0  0
 11 12  1  0  0  0  0
 11 13  1  0  0  0  0
 11 34  1  0  0  0  0
 12 15  1  0  0  0  0
 12 35  1  0  0  0  0
 13 14  1  0  0  0  0
 13 36  1  0  0  0  0
 13 37  1  0  0  0  0
 14 38  1  0  0  0  0
 14 39  1  0  0  0  0
 16 17  1  0  0  0  0
 17 18  2  0  0  0  0
 17 20  1  0  0  0  0
 18 21  1  0  0  0  0
 19 22  1  0  0  0  0
 20 23  2  0  0  0  0
 20 42  1  0  0  0  0
 21 24  2  0  0  0  0
 21 43  1  0  0  0  0
 22 25  1  0  0  0  0
 22 44  1  0  0  0  0
 22 45  1  0  0  0  0
 23 24  1  0  0  0  0
 23 26  1  0  0  0  0
 24 46  1  0  0  0  0
 25 29  1  0  0  0  0
 25 47  1  0  0  0  0
 25 48  1  0  0  0  0
 26 27  2  0  0  0  0
 26 28  1  0  0  0  0
 27 30  1  0  0  0  0
 28 31  2  0  0  0  0
 28 49  1  0  0  0  0
 30 32  2  0  0  0  0
 30 50  1  0  0  0  0
 31 32  1  0  0  0  0
 32 51  1  0  0  0  0
 33 53  1  0  0  0  0
 33 54  1  0  0  0  0
 33 55  1  0  0  0  0
M  END
> <PUBCHEM_COMPOUND_CID>
11941473

> <PUBCHEM_CONFORMER_RMSD>
1

> <PUBCHEM_CONFORMER_DIVERSEORDER>
2
30
48
36
40
7
50
10
23
6
49
15
44
1
25
9
21
16
24
5
37
34
8
32
39
20
17
27
13
29
41
38
45
4
35
18
12
26
14
33
19
28
3
42
51
31
47
11
22
43
46

> <PUBCHEM_MMFF94_PARTIAL_CHARGES>
39
1 -0.18
10 -0.55
11 0.3
12 0.36
14 0.3
15 0.57
16 0.54
17 0.09
18 0.12
19 0.57
2 -0.57
20 -0.15
21 -0.15
22 0.06
24 -0.15
25 0.06
27 0.08
28 -0.15
29 0.66
3 -0.57
30 -0.15
31 0.18
32 -0.15
33 0.28
4 -0.57
40 0.37
41 0.37
42 0.15
43 0.15
46 0.15
49 0.15
5 -0.36
50 0.15
51 0.15
52 0.5
6 -0.65
7 -0.57
8 -0.66
9 -0.73

> <PUBCHEM_EFFECTIVE_ROTOR_COUNT>
7.8

> <PUBCHEM_PHARMACOPHORE_FEATURES>
13
1 10 donor
1 2 acceptor
1 3 acceptor
1 4 acceptor
1 5 acceptor
1 6 acceptor
1 7 acceptor
1 9 donor
3 6 7 29 anion
5 8 11 12 13 14 rings
6 17 18 20 21 23 24 rings
6 26 27 28 30 31 32 rings
7 8 10 12 15 16 17 18 rings

> <PUBCHEM_HEAVY_ATOM_COUNT>
33

> <PUBCHEM_ATOM_DEF_STEREO_COUNT>
2

> <PUBCHEM_ATOM_UDEF_STEREO_COUNT>
0

> <PUBCHEM_BOND_DEF_STEREO_COUNT>
0

> <PUBCHEM_BOND_UDEF_STEREO_COUNT>
0

> <PUBCHEM_ISOTOPIC_ATOM_COUNT>
0

> <PUBCHEM_COMPONENT_COUNT>
1

> <PUBCHEM_CACTVS_TAUTO_COUNT>
6

> <PUBCHEM_CONFORMER_ID>
00B6366100000002

> <PUBCHEM_MMFF94_ENERGY>
110.9397

> <PUBCHEM_FEATURE_SELFOVERLAP>
66.09

> <PUBCHEM_SHAPE_FINGERPRINT>
10190108 129 17313671421781296548
10674148 151 18261396616611082926
11505856 67 18338785819751902359
12013929 29 18261964050210370092
12104220 4 18186814572938746572
13944108 23 17982451486732492777
14251764 75 18338516331844473977
14347329 18 18131066047770246115
14664723 55 17987806194580783257
15064981 113 17346326951212065796
15183329 4 17560250227235494994
15238133 3 18340189835364245986
17349148 13 14763526979294900946
19053607 189 18055905503740460041
20691028 202 18334856121622403469
20775438 99 11597992247602966677
21223535 225 18338514261585802236
21756936 100 18335138743117830155
21792965 106 17980195611549316536
21796203 349 14996291340062627614
22122407 14 18334293171679019089
23191077 185 18342443877077252863
23569914 152 17770520655196402404
23569914 2 17698406096390958704
249057 25 18193246716214274259
2838139 119 18341893004497508391
3388396 114 17189527006845893333
393628 194 18270400469897227885
4144715 1 18190753109831345490
5104073 3 17386834188324875250
57591035 28 17480602446658983964
57724786 102 18265606585939714823
5951187 136 18052542076105890373
6058803 2 18192120807913202283
633830 44 18264480853658292754
636775 72 18193835071216106784
7288768 16 17749107807641937555
7808743 9 18342171176976761915
7970288 3 9655279450732744081
9849439 229 18262241019839174389

> <PUBCHEM_SHAPE_MULTIPOLES>
630.84
17.63
5.79
1.71
3.31
6.98
-0.05
23.32
2.52
6.14
-0.08
0.44
-1.57
0.02

> <PUBCHEM_SHAPE_SELFOVERLAP>
1362.956

> <PUBCHEM_SHAPE_VOLUME>
344.6

> <PUBCHEM_COORDINATE_TYPE>
2
5
10

$$$$
