11885179
  -OEChem-12032416113D

 48 52  0     1  0  0  0  0  0999 V2000
    3.1926   -2.1935    1.0220 S   0  0  0  0  0  0  0  0  0  0  0  0
    2.7353    1.5333    1.2772 O   0  0  0  0  0  0  0  0  0  0  0  0
   -2.1262    1.0909    2.5745 O   0  0  0  0  0  0  0  0  0  0  0  0
   -2.1368    1.9403    0.4179 N   0  0  0  0  0  0  0  0  0  0  0  0
    0.9605    1.9568   -0.1755 N   0  0  0  0  0  0  0  0  0  0  0  0
   -2.8607   -5.4567   -1.0644 N   0  0  0  0  0  0  0  0  0  0  0  0
   -0.6532    3.9193    0.1564 C   0  0  1  0  0  0  0  0  0  0  0  0
   -0.9742    2.3737   -1.7328 C   0  0  2  0  0  0  0  0  0  0  0  0
   -0.8298    3.8474   -1.3566 C   0  0  0  0  0  0  0  0  0  0  0  0
   -1.8747    3.3086    0.8681 C   0  0  0  0  0  0  0  0  0  0  0  0
    0.6519    3.2072    0.5344 C   0  0  0  0  0  0  0  0  0  0  0  0
   -2.2230    1.7838   -1.0446 C   0  0  0  0  0  0  0  0  0  0  0  0
    0.2524    1.5823   -1.3202 C   0  0  0  0  0  0  0  0  0  0  0  0
    0.6289    0.5025   -2.0235 C   0  0  0  0  0  0  0  0  0  0  0  0
    2.0646    1.2181    0.2927 C   0  0  0  0  0  0  0  0  0  0  0  0
   -2.2046    0.8972    1.3603 C   0  0  0  0  0  0  0  0  0  0  0  0
    2.4328   -0.0137   -0.4894 C   0  0  0  0  0  0  0  0  0  0  0  0
    1.7333   -0.3078   -1.5954 C   0  0  0  0  0  0  0  0  0  0  0  0
   -2.3443   -0.4571    0.8432 C   0  0  0  0  0  0  0  0  0  0  0  0
    3.5270   -0.8963   -0.0511 C   0  0  0  0  0  0  0  0  0  0  0  0
   -1.2086   -1.2121    0.5613 C   0  0  0  0  0  0  0  0  0  0  0  0
   -3.6133   -0.9912    0.6343 C   0  0  0  0  0  0  0  0  0  0  0  0
    4.8679   -0.8465   -0.3850 C   0  0  0  0  0  0  0  0  0  0  0  0
   -1.3427   -2.5097    0.0674 C   0  0  0  0  0  0  0  0  0  0  0  0
   -3.7475   -2.2888    0.1405 C   0  0  0  0  0  0  0  0  0  0  0  0
    5.6209   -1.8794    0.2445 C   0  0  0  0  0  0  0  0  0  0  0  0
    4.8331   -2.6840    1.0379 C   0  0  0  0  0  0  0  0  0  0  0  0
   -2.6121   -3.0480   -0.1430 C   0  0  0  0  0  0  0  0  0  0  0  0
   -2.7493   -4.3765   -0.6511 C   0  0  0  0  0  0  0  0  0  0  0  0
   -0.5775    4.9683    0.4683 H   0  0  0  0  0  0  0  0  0  0  0  0
   -1.1125    2.3084   -2.8198 H   0  0  0  0  0  0  0  0  0  0  0  0
    0.0301    4.2977   -1.8682 H   0  0  0  0  0  0  0  0  0  0  0  0
   -1.7188    4.4107   -1.6654 H   0  0  0  0  0  0  0  0  0  0  0  0
   -1.7338    3.3440    1.9533 H   0  0  0  0  0  0  0  0  0  0  0  0
   -2.7724    3.8961    0.6402 H   0  0  0  0  0  0  0  0  0  0  0  0
    0.6841    3.0141    1.6141 H   0  0  0  0  0  0  0  0  0  0  0  0
    1.4935    3.8810    0.3230 H   0  0  0  0  0  0  0  0  0  0  0  0
   -2.3618    0.7401   -1.3363 H   0  0  0  0  0  0  0  0  0  0  0  0
   -3.1207    2.3249   -1.3686 H   0  0  0  0  0  0  0  0  0  0  0  0
    0.0862    0.1818   -2.9065 H   0  0  0  0  0  0  0  0  0  0  0  0
    1.9564   -1.1867   -2.1932 H   0  0  0  0  0  0  0  0  0  0  0  0
   -0.2182   -0.8121    0.7491 H   0  0  0  0  0  0  0  0  0  0  0  0
   -4.5040   -0.4077    0.8518 H   0  0  0  0  0  0  0  0  0  0  0  0
    5.2913   -0.1038   -1.0498 H   0  0  0  0  0  0  0  0  0  0  0  0
   -0.4479   -3.0904   -0.1436 H   0  0  0  0  0  0  0  0  0  0  0  0
   -4.7438   -2.6944   -0.0188 H   0  0  0  0  0  0  0  0  0  0  0  0
    6.6862   -2.0247    0.1217 H   0  0  0  0  0  0  0  0  0  0  0  0
    5.1425   -3.5363    1.6262 H   0  0  0  0  0  0  0  0  0  0  0  0
  1 20  1  0  0  0  0
  1 27  1  0  0  0  0
  2 15  2  0  0  0  0
  3 16  2  0  0  0  0
  4 10  1  0  0  0  0
  4 12  1  0  0  0  0
  4 16  1  0  0  0  0
  5 11  1  0  0  0  0
  5 13  1  0  0  0  0
  5 15  1  0  0  0  0
  6 29  3  0  0  0  0
  7  9  1  0  0  0  0
  7 10  1  0  0  0  0
  7 11  1  0  0  0  0
  7 30  1  0  0  0  0
  8  9  1  0  0  0  0
  8 12  1  0  0  0  0
  8 13  1  0  0  0  0
  8 31  1  0  0  0  0
  9 32  1  0  0  0  0
  9 33  1  0  0  0  0
 10 34  1  0  0  0  0
 10 35  1  0  0  0  0
 11 36  1  0  0  0  0
 11 37  1  0  0  0  0
 12 38  1  0  0  0  0
 12 39  1  0  0  0  0
 13 14  2  0  0  0  0
 14 18  1  0  0  0  0
 14 40  1  0  0  0  0
 15 17  1  0  0  0  0
 16 19  1  0  0  0  0
 17 18  2  0  0  0  0
 17 20  1  0  0  0  0
 18 41  1  0  0  0  0
 19 21  2  0  0  0  0
 19 22  1  0  0  0  0
 20 23  2  0  0  0  0
 21 24  1  0  0  0  0
 21 42  1  0  0  0  0
 22 25  2  0  0  0  0
 22 43  1  0  0  0  0
 23 26  1  0  0  0  0
 23 44  1  0  0  0  0
 24 28  2  0  0  0  0
 24 45  1  0  0  0  0
 25 28  1  0  0  0  0
 25 46  1  0  0  0  0
 26 27  2  0  0  0  0
 26 47  1  0  0  0  0
 27 48  1  0  0  0  0
 28 29  1  0  0  0  0
M  END
> <PUBCHEM_COMPOUND_CID>
11885179

> <PUBCHEM_CONFORMER_RMSD>
0.8

> <PUBCHEM_CONFORMER_DIVERSEORDER>
1
6
5
7
4
2
3

> <PUBCHEM_MMFF94_PARTIAL_CHARGES>
36
1 -0.08
10 0.3
11 0.3
12 0.3
13 -0.03
14 -0.15
15 0.62
16 0.54
17 0.06
18 -0.15
19 0.09
2 -0.57
20 -0.01
21 -0.15
22 -0.15
23 -0.15
24 -0.15
25 -0.15
26 -0.15
27 -0.11
28 0.07
29 0.48
3 -0.57
4 -0.66
40 0.15
41 0.15
42 0.15
43 0.15
44 0.15
45 0.15
46 0.15
47 0.15
48 0.15
5 -0.47
6 -0.56
8 0.14

> <PUBCHEM_EFFECTIVE_ROTOR_COUNT>
4

> <PUBCHEM_PHARMACOPHORE_FEATURES>
8
1 2 acceptor
1 3 acceptor
1 6 acceptor
5 1 20 23 26 27 rings
6 19 21 22 24 25 28 rings
6 4 7 8 9 10 12 rings
6 5 13 14 15 17 18 rings
6 5 7 8 9 11 13 rings

> <PUBCHEM_HEAVY_ATOM_COUNT>
29

> <PUBCHEM_ATOM_DEF_STEREO_COUNT>
2

> <PUBCHEM_ATOM_UDEF_STEREO_COUNT>
0

> <PUBCHEM_BOND_DEF_STEREO_COUNT>
0

> <PUBCHEM_BOND_UDEF_STEREO_COUNT>
0

> <PUBCHEM_ISOTOPIC_ATOM_COUNT>
0

> <PUBCHEM_COMPONENT_COUNT>
1

> <PUBCHEM_CACTVS_TAUTO_COUNT>
1

> <PUBCHEM_CONFORMER_ID>
00B55A7B00000001

> <PUBCHEM_MMFF94_ENERGY>
76.0705

> <PUBCHEM_FEATURE_SELFOVERLAP>
42.195

> <PUBCHEM_SHAPE_FINGERPRINT>
10483366 6 18191849173132730621
11014199 57 18338802337574091786
11049842 53 16459985086165564972
11069576 57 17477756248778079287
11370993 70 17469038865642599876
11524674 6 17687171003352418250
11552529 35 18410571752359359362
12156800 1 17538235693585988577
12293681 25 17977347789604264669
12422481 6 17323553715911542841
12633257 1 18129677287349183568
12788726 201 18262535718656673542
13004483 165 18407758140362908499
13631057 29 18334860494378541662
14068700 675 18272643576189852799
14100547 121 18193272988434258690
14844126 61 18263078834208347154
14863182 85 17185314786109911241
16728300 4 17390505199419393907
19319366 153 16815797373714732949
20775438 99 17548363449961439007
20775530 9 18265336294504403258
21421861 104 17548726396351881723
23419403 2 17844504764935626873
23728640 28 18119530942434371793
3027735 51 18124580991120097263
3380486 145 18262523705348368369
35225 105 18045198475960311676
4409770 3 18190454957148003852
463206 1 18262522618584778403
484985 159 18190728752971745686
5265222 85 17760668974981625870
9981440 41 17688304586507419408

> <PUBCHEM_SHAPE_MULTIPOLES>
573.97
7.86
6.21
1.64
12.96
4.34
0.04
6.68
-1.93
-6.76
1.44
-0.47
-0.6
-1.02

> <PUBCHEM_SHAPE_SELFOVERLAP>
1259.56

> <PUBCHEM_SHAPE_VOLUME>
308.9

> <PUBCHEM_COORDINATE_TYPE>
2
5
10

$$$$
