11887301
  -OEChem-12032416373D

 58 63  0     1  0  0  0  0  0999 V2000
    2.9206   -3.1321    0.4486 S   0  0  0  0  0  0  0  0  0  0  0  0
    0.9284    0.1540   -2.0193 O   0  0  0  0  0  0  0  0  0  0  0  0
   -1.3205   -1.9599   -1.3496 O   0  0  0  0  0  0  0  0  0  0  0  0
    3.7381   -3.6476   -0.6330 O   0  0  0  0  0  0  0  0  0  0  0  0
    2.9069   -3.8008    1.7356 O   0  0  0  0  0  0  0  0  0  0  0  0
   -5.6960   -1.5488    1.7992 O   0  0  0  0  0  0  0  0  0  0  0  0
   -1.5783    1.5718   -0.4646 N   0  0  0  0  0  0  0  0  0  0  0  0
    1.3207   -2.9498   -0.0893 N   0  0  0  0  0  0  0  0  0  0  0  0
   -0.5910    2.4266   -0.1780 N   0  0  0  0  0  0  0  0  0  0  0  0
   -2.4471    2.9817    0.9255 N   0  0  0  0  0  0  0  0  0  0  0  0
   -1.1291    3.2899    0.6749 N   0  0  0  0  0  0  0  0  0  0  0  0
   -0.8218   -0.7793   -0.6952 C   0  0  1  0  0  0  0  0  0  0  0  0
    0.6773   -0.7372   -0.9216 C   0  0  1  0  0  0  0  0  0  0  0  0
   -1.3535    0.4593   -1.3912 C   0  0  2  0  0  0  0  0  0  0  0  0
    1.0387   -2.1516   -1.3067 C   0  0  2  0  0  0  0  0  0  0  0  0
   -0.3092    0.7202   -2.4707 C   0  0  0  0  0  0  0  0  0  0  0  0
   -0.2285   -2.6575   -1.9644 C   0  0  0  0  0  0  0  0  0  0  0  0
   -2.7035    1.9126    0.2073 C   0  0  0  0  0  0  0  0  0  0  0  0
    3.3999   -1.4565    0.7435 C   0  0  0  0  0  0  0  0  0  0  0  0
   -3.9540    1.2021    0.1273 C   0  0  0  0  0  0  0  0  0  0  0  0
    3.9765   -0.7279   -0.2829 C   0  0  0  0  0  0  0  0  0  0  0  0
    3.1905   -0.9057    1.9924 C   0  0  0  0  0  0  0  0  0  0  0  0
   -4.2229    0.1564    1.0120 C   0  0  0  0  0  0  0  0  0  0  0  0
   -4.9003    1.5589   -0.8349 C   0  0  0  0  0  0  0  0  0  0  0  0
    4.3635    0.6044   -0.0644 C   0  0  0  0  0  0  0  0  0  0  0  0
    3.5685    0.4167    2.2271 C   0  0  0  0  0  0  0  0  0  0  0  0
    4.1563    1.1853    1.2092 C   0  0  0  0  0  0  0  0  0  0  0  0
   -5.4346   -0.5302    0.9350 C   0  0  0  0  0  0  0  0  0  0  0  0
   -6.1120    0.8724   -0.9120 C   0  0  0  0  0  0  0  0  0  0  0  0
    4.9510    1.3729   -1.0826 C   0  0  0  0  0  0  0  0  0  0  0  0
   -6.3791   -0.1722   -0.0270 C   0  0  0  0  0  0  0  0  0  0  0  0
    4.5434    2.5176    1.4276 C   0  0  0  0  0  0  0  0  0  0  0  0
    5.3295    2.6951   -0.8479 C   0  0  0  0  0  0  0  0  0  0  0  0
    5.1262    3.2663    0.4047 C   0  0  0  0  0  0  0  0  0  0  0  0
   -6.9548   -2.2069    1.6652 C   0  0  0  0  0  0  0  0  0  0  0  0
   -1.0905   -0.8580    0.3632 H   0  0  0  0  0  0  0  0  0  0  0  0
    1.1832   -0.3237   -0.0502 H   0  0  0  0  0  0  0  0  0  0  0  0
   -2.3184    0.2801   -1.8794 H   0  0  0  0  0  0  0  0  0  0  0  0
    1.8758   -2.2243   -2.0076 H   0  0  0  0  0  0  0  0  0  0  0  0
   -0.5788    0.1964   -3.3949 H   0  0  0  0  0  0  0  0  0  0  0  0
   -0.1622    1.7759   -2.7174 H   0  0  0  0  0  0  0  0  0  0  0  0
   -0.2429   -2.4093   -3.0313 H   0  0  0  0  0  0  0  0  0  0  0  0
   -0.3826   -3.7357   -1.8585 H   0  0  0  0  0  0  0  0  0  0  0  0
    0.5543   -3.0308    0.5906 H   0  0  0  0  0  0  0  0  0  0  0  0
    4.1315   -1.1746   -1.2622 H   0  0  0  0  0  0  0  0  0  0  0  0
    2.7308   -1.4689    2.7987 H   0  0  0  0  0  0  0  0  0  0  0  0
   -3.4926   -0.1304    1.7658 H   0  0  0  0  0  0  0  0  0  0  0  0
   -4.7071    2.3708   -1.5322 H   0  0  0  0  0  0  0  0  0  0  0  0
    3.3978    0.8435    3.2133 H   0  0  0  0  0  0  0  0  0  0  0  0
   -6.8467    1.1518   -1.6615 H   0  0  0  0  0  0  0  0  0  0  0  0
    5.1190    0.9473   -2.0697 H   0  0  0  0  0  0  0  0  0  0  0  0
   -7.3396   -0.6626   -0.1425 H   0  0  0  0  0  0  0  0  0  0  0  0
    4.3936    2.9846    2.3989 H   0  0  0  0  0  0  0  0  0  0  0  0
    5.7828    3.2787   -1.6440 H   0  0  0  0  0  0  0  0  0  0  0  0
    5.4210    4.2957    0.5866 H   0  0  0  0  0  0  0  0  0  0  0  0
   -7.0467   -2.7059    0.6945 H   0  0  0  0  0  0  0  0  0  0  0  0
   -7.7887   -1.5246    1.8619 H   0  0  0  0  0  0  0  0  0  0  0  0
   -6.9940   -2.9885    2.4310 H   0  0  0  0  0  0  0  0  0  0  0  0
  1  4  2  0  0  0  0
  1  5  2  0  0  0  0
  1  8  1  0  0  0  0
  1 19  1  0  0  0  0
  2 13  1  0  0  0  0
  2 16  1  0  0  0  0
  3 12  1  0  0  0  0
  3 17  1  0  0  0  0
  6 28  1  0  0  0  0
  6 35  1  0  0  0  0
  7  9  1  0  0  0  0
  7 14  1  0  0  0  0
  7 18  1  0  0  0  0
  8 15  1  0  0  0  0
  8 44  1  0  0  0  0
  9 11  2  0  0  0  0
 10 11  1  0  0  0  0
 10 18  2  0  0  0  0
 12 13  1  0  0  0  0
 12 14  1  0  0  0  0
 12 36  1  0  0  0  0
 13 15  1  0  0  0  0
 13 37  1  0  0  0  0
 14 16  1  0  0  0  0
 14 38  1  0  0  0  0
 15 17  1  0  0  0  0
 15 39  1  0  0  0  0
 16 40  1  0  0  0  0
 16 41  1  0  0  0  0
 17 42  1  0  0  0  0
 17 43  1  0  0  0  0
 18 20  1  0  0  0  0
 19 21  2  0  0  0  0
 19 22  1  0  0  0  0
 20 23  2  0  0  0  0
 20 24  1  0  0  0  0
 21 25  1  0  0  0  0
 21 45  1  0  0  0  0
 22 26  2  0  0  0  0
 22 46  1  0  0  0  0
 23 28  1  0  0  0  0
 23 47  1  0  0  0  0
 24 29  2  0  0  0  0
 24 48  1  0  0  0  0
 25 27  1  0  0  0  0
 25 30  2  0  0  0  0
 26 27  1  0  0  0  0
 26 49  1  0  0  0  0
 27 32  2  0  0  0  0
 28 31  2  0  0  0  0
 29 31  1  0  0  0  0
 29 50  1  0  0  0  0
 30 33  1  0  0  0  0
 30 51  1  0  0  0  0
 31 52  1  0  0  0  0
 32 34  1  0  0  0  0
 32 53  1  0  0  0  0
 33 34  2  0  0  0  0
 33 54  1  0  0  0  0
 34 55  1  0  0  0  0
 35 56  1  0  0  0  0
 35 57  1  0  0  0  0
 35 58  1  0  0  0  0
M  END
> <PUBCHEM_COMPOUND_CID>
11887301

> <PUBCHEM_CONFORMER_RMSD>
1

> <PUBCHEM_CONFORMER_DIVERSEORDER>
1
136
67
376
273
336
157
298
397
187
366
271
76
282
353
385
375
297
321
93
315
264
311
73
197
213
394
291
143
374
42
324
224
106
202
274
320
15
241
226
395
262
102
74
176
242
98
215
404
296
316
191
359
211
261
362
115
75
383
43
177
384
44
329
306
51
203
183
382
258
259
396
28
57
402
270
26
71
337
357
66
11
346
10
284
365
135
312
318
63
367
393
222
302
49
121
204
287
199
292
161
313
294
310
180
131
317
168
68
387
91
276
105
219
309
150
322
205
370
372
371
286
269
41
127
99
171
360
290
62
348
398
249
377
331
151
60
230
107
77
194
289
172
21
245
69
278
97
190
263
114
386
335
210
156
339
314
120
369
192
173
118
56
22
46
196
54
328
389
391
299
390
5
381
134
116
148
185
182
113
345
307
285
146
25
133
246
255
401
206
343
169
400
31
126
238
103
256
301
234
208
308
373
275
145
349
33
232
327
325
170
128
30
34
338
342
207
221
229
334
17
78
243
227
303
189
4
178
111
378
24
380
200
216
79
220
223
137
72
403
152
140
129
52
347
153
355
47
12
35
351
90
293
59
260
268
32
186
193
100
323
109
333
225
83
84
237
96
326
142
36
188
147
195
399
265
217
300
236
7
354
254
87
48
368
119
248
38
281
101
23
166
155
158
29
16
235
124
379
117
295
218
228
132
251
64
88
53
344
8
364
231
361
82
55
392
352
95
85
233
212
92
341
123
257
165
94
58
209
70
2
214
279
198
138
20
50
330
154
9
13
283
164
104
175
266
201
272
244
252
61
130
304
40
39
167
18
350
277
14
162
108
247
174
356
144
267
288
363
305
45
3
37
181
358
240
253
27
179
139
125
319
81
340
86
80
110
149
239
112
280
65
19
159
250
6
89
160
122
184
388
141
163
332

> <PUBCHEM_MMFF94_PARTIAL_CHARGES>
44
1 1.45
10 -0.34
12 0.28
13 0.28
14 0.26
15 0.36
16 0.28
17 0.28
18 0.13
19 -0.01
2 -0.56
20 0.05
21 -0.15
22 -0.15
23 -0.15
24 -0.15
26 -0.15
28 0.08
29 -0.15
3 -0.56
30 -0.15
31 -0.15
32 -0.15
33 -0.15
34 -0.15
35 0.28
4 -0.65
44 0.42
45 0.15
46 0.15
47 0.15
48 0.15
49 0.15
5 -0.65
50 0.15
51 0.15
52 0.15
53 0.15
54 0.15
55 0.15
6 -0.36
7 0.31
8 -0.91
9 -0.42

> <PUBCHEM_EFFECTIVE_ROTOR_COUNT>
7.2

> <PUBCHEM_PHARMACOPHORE_FEATURES>
13
1 2 acceptor
1 3 acceptor
1 4 acceptor
1 5 acceptor
1 6 acceptor
1 8 donor
3 7 10 18 cation
5 2 12 13 14 16 rings
5 3 12 13 15 17 rings
5 7 9 10 11 18 rings
6 19 21 22 25 26 27 rings
6 20 23 24 28 29 31 rings
6 25 27 30 32 33 34 rings

> <PUBCHEM_HEAVY_ATOM_COUNT>
35

> <PUBCHEM_ATOM_DEF_STEREO_COUNT>
4

> <PUBCHEM_ATOM_UDEF_STEREO_COUNT>
0

> <PUBCHEM_BOND_DEF_STEREO_COUNT>
0

> <PUBCHEM_BOND_UDEF_STEREO_COUNT>
0

> <PUBCHEM_ISOTOPIC_ATOM_COUNT>
0

> <PUBCHEM_COMPONENT_COUNT>
1

> <PUBCHEM_CACTVS_TAUTO_COUNT>
1

> <PUBCHEM_CONFORMER_ID>
00B562C500000001

> <PUBCHEM_MMFF94_ENERGY>
90.8519

> <PUBCHEM_FEATURE_SELFOVERLAP>
66.708

> <PUBCHEM_SHAPE_FINGERPRINT>
10006869 2 18343298137424022399
10010297 198 18411976970605919558
10904742 90 18335701698141769700
11135609 201 18195519514465623528
11720765 8 8574715676404418438
12596602 18 18040435511890276449
12788726 201 17835223916461356822
13560911 23 18049995593716280858
13583140 156 17753877325347074790
14289585 56 12678643948154695107
14840074 17 17989486342678523469
14950920 106 18190736428030649147
150020 26 17627215768118636754
151778 21 18343297038302589518
15183329 4 10953743270721212511
15297060 5 18129378384133878216
19315092 285 16950828220580687928
19319366 153 18339352055033246544
20465049 17 18342748386548569470
20511986 3 17095510791564398235
21315764 371 17313387798803928441
21458453 9 18193844966524598507
23559900 14 18121782716599449231
23572383 38 18114183013004654843
3459 83 8286211560643464975
392239 28 18269837519536650507
437795 163 18198328745532317895
4918855 1 14189036448274016091
5776283 40 18270414914204242292

> <PUBCHEM_SHAPE_MULTIPOLES>
669.88
15.08
4.35
2.03
16.55
1.5
-0.02
-3.49
5.75
-4.3
0.56
-0.21
0.6
0.94

> <PUBCHEM_SHAPE_SELFOVERLAP>
1473.554

> <PUBCHEM_SHAPE_VOLUME>
363.2

> <PUBCHEM_COORDINATE_TYPE>
2
5
10

$$$$
