51137797
  -OEChem-12032416203D

 49 52  0     1  0  0  0  0  0999 V2000
   -4.0100    0.1239   -1.3402 S   0  0  0  0  0  0  0  0  0  0  0  0
    0.5536   -1.7003    0.0774 O   0  0  0  0  0  0  0  0  0  0  0  0
   -5.3391    0.5447   -0.9351 O   0  0  0  0  0  0  0  0  0  0  0  0
   -3.6698    0.0217   -2.7478 O   0  0  0  0  0  0  0  0  0  0  0  0
    6.4273    0.1540   -1.2467 O   0  0  0  0  0  0  0  0  0  0  0  0
   -3.6089   -1.3232   -0.5555 N   0  0  1  0  0  0  0  0  0  0  0  0
   -0.4505   -1.1134    1.9883 N   0  0  0  0  0  0  0  0  0  0  0  0
    0.8167   -0.5609    1.9845 N   0  0  0  0  0  0  0  0  0  0  0  0
   -1.7293   -2.5724    0.3135 C   0  0  1  0  0  0  0  0  0  0  0  0
   -2.8999   -2.6063    1.2984 C   0  0  0  0  0  0  0  0  0  0  0  0
   -2.3830   -2.0602   -0.9809 C   0  0  0  0  0  0  0  0  0  0  0  0
   -3.7262   -1.3851    0.9213 C   0  0  0  0  0  0  0  0  0  0  0  0
   -0.5603   -1.7690    0.8566 C   0  0  0  0  0  0  0  0  0  0  0  0
   -2.8517    1.2292   -0.5904 C   0  0  0  0  0  0  0  0  0  0  0  0
   -1.5941    1.4155   -1.1643 C   0  0  0  0  0  0  0  0  0  0  0  0
   -3.1942    1.9126    0.5763 C   0  0  0  0  0  0  0  0  0  0  0  0
    1.3661   -0.9295    0.8509 C   0  0  0  0  0  0  0  0  0  0  0  0
   -0.6790    2.2853   -0.5715 C   0  0  0  0  0  0  0  0  0  0  0  0
   -2.2790    2.7823    1.1691 C   0  0  0  0  0  0  0  0  0  0  0  0
   -1.0215    2.9689    0.5952 C   0  0  0  0  0  0  0  0  0  0  0  0
    2.6654   -0.6502    0.3118 C   0  0  0  0  0  0  0  0  0  0  0  0
   -0.0429    3.8989    1.2291 C   0  0  0  0  0  0  0  0  0  0  0  0
    3.5667    0.1324    1.0336 C   0  0  0  0  0  0  0  0  0  0  0  0
    3.0282   -1.1618   -0.9342 C   0  0  0  0  0  0  0  0  0  0  0  0
    4.8305    0.4035    0.5096 C   0  0  0  0  0  0  0  0  0  0  0  0
    4.2920   -0.8907   -1.4583 C   0  0  0  0  0  0  0  0  0  0  0  0
    5.1931   -0.1081   -0.7365 C   0  0  0  0  0  0  0  0  0  0  0  0
    7.2999    0.9584   -0.4544 C   0  0  0  0  0  0  0  0  0  0  0  0
   -1.3478   -3.5891    0.1548 H   0  0  0  0  0  0  0  0  0  0  0  0
   -3.4947   -3.5118    1.1203 H   0  0  0  0  0  0  0  0  0  0  0  0
   -2.6107   -2.6046    2.3539 H   0  0  0  0  0  0  0  0  0  0  0  0
   -2.7100   -2.9039   -1.5994 H   0  0  0  0  0  0  0  0  0  0  0  0
   -1.6978   -1.4481   -1.5709 H   0  0  0  0  0  0  0  0  0  0  0  0
   -3.3058   -0.5120    1.4180 H   0  0  0  0  0  0  0  0  0  0  0  0
   -4.7707   -1.5050    1.2214 H   0  0  0  0  0  0  0  0  0  0  0  0
   -1.3044    0.8951   -2.0724 H   0  0  0  0  0  0  0  0  0  0  0  0
   -4.1682    1.7850    1.0402 H   0  0  0  0  0  0  0  0  0  0  0  0
    0.2980    2.4222   -1.0275 H   0  0  0  0  0  0  0  0  0  0  0  0
   -2.5585    3.3102    2.0770 H   0  0  0  0  0  0  0  0  0  0  0  0
    0.9827    3.5365    1.0995 H   0  0  0  0  0  0  0  0  0  0  0  0
   -0.2176    3.9858    2.3069 H   0  0  0  0  0  0  0  0  0  0  0  0
   -0.1248    4.8937    0.7804 H   0  0  0  0  0  0  0  0  0  0  0  0
    3.3040    0.5414    2.0064 H   0  0  0  0  0  0  0  0  0  0  0  0
    2.3537   -1.7752   -1.5262 H   0  0  0  0  0  0  0  0  0  0  0  0
    5.4809    1.0179    1.1227 H   0  0  0  0  0  0  0  0  0  0  0  0
    4.5695   -1.2921   -2.4292 H   0  0  0  0  0  0  0  0  0  0  0  0
    6.8973    1.9667   -0.3100 H   0  0  0  0  0  0  0  0  0  0  0  0
    7.5468    0.4699    0.4943 H   0  0  0  0  0  0  0  0  0  0  0  0
    8.2363    1.0650   -1.0120 H   0  0  0  0  0  0  0  0  0  0  0  0
  1  3  2  0  0  0  0
  1  4  2  0  0  0  0
  1  6  1  0  0  0  0
  1 14  1  0  0  0  0
  2 13  1  0  0  0  0
  2 17  1  0  0  0  0
  5 27  1  0  0  0  0
  5 28  1  0  0  0  0
  6 11  1  0  0  0  0
  6 12  1  0  0  0  0
  7  8  1  0  0  0  0
  7 13  2  0  0  0  0
  8 17  2  0  0  0  0
  9 10  1  0  0  0  0
  9 11  1  0  0  0  0
  9 13  1  0  0  0  0
  9 29  1  0  0  0  0
 10 12  1  0  0  0  0
 10 30  1  0  0  0  0
 10 31  1  0  0  0  0
 11 32  1  0  0  0  0
 11 33  1  0  0  0  0
 12 34  1  0  0  0  0
 12 35  1  0  0  0  0
 14 15  2  0  0  0  0
 14 16  1  0  0  0  0
 15 18  1  0  0  0  0
 15 36  1  0  0  0  0
 16 19  2  0  0  0  0
 16 37  1  0  0  0  0
 17 21  1  0  0  0  0
 18 20  2  0  0  0  0
 18 38  1  0  0  0  0
 19 20  1  0  0  0  0
 19 39  1  0  0  0  0
 20 22  1  0  0  0  0
 21 23  2  0  0  0  0
 21 24  1  0  0  0  0
 22 40  1  0  0  0  0
 22 41  1  0  0  0  0
 22 42  1  0  0  0  0
 23 25  1  0  0  0  0
 23 43  1  0  0  0  0
 24 26  2  0  0  0  0
 24 44  1  0  0  0  0
 25 27  2  0  0  0  0
 25 45  1  0  0  0  0
 26 27  1  0  0  0  0
 26 46  1  0  0  0  0
 28 47  1  0  0  0  0
 28 48  1  0  0  0  0
 28 49  1  0  0  0  0
M  END
> <PUBCHEM_COMPOUND_CID>
51137797

> <PUBCHEM_CONFORMER_RMSD>
0.8

> <PUBCHEM_CONFORMER_DIVERSEORDER>
1
64
35
70
21
76
44
105
14
74
42
79
29
80
24
94
77
75
86
98
66
43
7
13
3
69
62
67
103
53
48
90
49
16
8
27
84
32
19
83
63
88
89
71
17
37
58
101
36
25
87
12
38
78
40
46
2
68
26
33
34
99
82
102
57
65
11
91
5
51
97
56
61
45
92
18
41
9
28
23
54
100
72
60
31
39
104
85
95
59
20
93
50
6
96
22
52
81
55
4
30
10
73
15
47

> <PUBCHEM_MMFF94_PARTIAL_CHARGES>
35
1 1.45
11 0.36
12 0.36
13 0.3
14 -0.01
15 -0.15
16 -0.15
17 0.43
18 -0.15
19 -0.15
2 -0.28
20 -0.14
21 0.05
22 0.14
23 -0.15
24 -0.15
25 -0.15
26 -0.15
27 0.08
28 0.28
3 -0.65
36 0.15
37 0.15
38 0.15
39 0.15
4 -0.65
43 0.15
44 0.15
45 0.15
46 0.15
5 -0.36
6 -0.85
7 -0.34
8 -0.34
9 0.18

> <PUBCHEM_EFFECTIVE_ROTOR_COUNT>
6

> <PUBCHEM_PHARMACOPHORE_FEATURES>
7
1 3 acceptor
1 4 acceptor
1 5 acceptor
5 2 7 8 13 17 rings
5 6 9 10 11 12 rings
6 14 15 16 18 19 20 rings
6 21 23 24 25 26 27 rings

> <PUBCHEM_HEAVY_ATOM_COUNT>
28

> <PUBCHEM_ATOM_DEF_STEREO_COUNT>
1

> <PUBCHEM_ATOM_UDEF_STEREO_COUNT>
0

> <PUBCHEM_BOND_DEF_STEREO_COUNT>
0

> <PUBCHEM_BOND_UDEF_STEREO_COUNT>
0

> <PUBCHEM_ISOTOPIC_ATOM_COUNT>
0

> <PUBCHEM_COMPONENT_COUNT>
1

> <PUBCHEM_CACTVS_TAUTO_COUNT>
1

> <PUBCHEM_CONFORMER_ID>
030C4D0500000001

> <PUBCHEM_MMFF94_ENERGY>
61.0488

> <PUBCHEM_FEATURE_SELFOVERLAP>
35.541

> <PUBCHEM_SHAPE_FINGERPRINT>
10291535 26 18409456894697416522
10429389 16 17915197732215704886
10498660 4 18334569118631736563
10871710 139 18268145358415226853
11112241 14 17198235035842781521
12156800 1 17338492939754653145
12788726 201 18340761533907631217
13761468 95 18116995477532402556
13947920 75 18334011684170580464
13994607 96 17530978972476820787
14713325 29 18339093621997390394
14840074 17 17894919468965821733
14931854 50 18337377263140179677
15183329 4 18187367576707765102
15575132 122 18115867400109289205
17357779 13 18272086132099311376
17492 54 18114445787661811197
17818456 19 18118946037051778362
20775438 99 16830058177172378271
20905425 154 17541361875911383211
21236236 1 18408610262417675800
23557571 272 18411708707496301626
23559900 14 18339072821734695144
354706 132 18338246947380413548
4112364 45 12904037123457180967
469060 322 16878525495763514499
484989 97 17970903595932937103
531348 171 18201163153000961718
6034566 193 18044092346358450701
6299153 45 17604417506766294946

> <PUBCHEM_SHAPE_MULTIPOLES>
541.66
12.04
3.49
1.79
21.4
2.43
-0.27
0.31
-5.27
-3.39
1.4
-0.89
-0.18
0.44

> <PUBCHEM_SHAPE_SELFOVERLAP>
1161.463

> <PUBCHEM_SHAPE_VOLUME>
302.3

> <PUBCHEM_COORDINATE_TYPE>
2
5
10

$$$$
