11911979
  -OEChem-12032416273D

 55 60  0     1  0  0  0  0  0999 V2000
   -3.0941   -1.4653    0.2295 S   0  0  0  0  0  0  0  0  0  0  0  0
    4.9490   -3.7232   -0.0626 O   0  0  0  0  0  0  0  0  0  0  0  0
   -1.1032    0.8987   -1.8483 O   0  0  0  0  0  0  0  0  0  0  0  0
    3.5267    0.2269   -0.0478 N   0  0  2  0  0  0  0  0  0  0  0  0
    0.6390    1.5264   -0.4294 N   0  0  0  0  0  0  0  0  0  0  0  0
    2.9181    2.3127   -1.2989 C   0  0  1  0  0  0  0  0  0  0  0  0
    2.5134    2.1939    1.1130 C   0  0  2  0  0  0  0  0  0  0  0  0
    2.9647    3.1230   -0.0105 C   0  0  0  0  0  0  0  0  0  0  0  0
    3.8540    1.0901   -1.1891 C   0  0  0  0  0  0  0  0  0  0  0  0
    3.4797    0.9910    1.2079 C   0  0  0  0  0  0  0  0  0  0  0  0
    1.4626    1.9172   -1.5823 C   0  0  0  0  0  0  0  0  0  0  0  0
    4.4663   -0.8874    0.0529 C   0  0  0  0  0  0  0  0  0  0  0  0
    1.0923    1.7157    0.8788 C   0  0  0  0  0  0  0  0  0  0  0  0
    4.0463   -1.8381    1.1776 C   0  0  0  0  0  0  0  0  0  0  0  0
    4.5594   -1.6512   -1.2717 C   0  0  0  0  0  0  0  0  0  0  0  0
    0.2822    1.4577    1.9181 C   0  0  0  0  0  0  0  0  0  0  0  0
   -0.6579    1.0509   -0.7096 C   0  0  0  0  0  0  0  0  0  0  0  0
    4.9541   -3.0629    1.2031 C   0  0  0  0  0  0  0  0  0  0  0  0
    5.4388   -2.8862   -1.1104 C   0  0  0  0  0  0  0  0  0  0  0  0
   -1.5270    0.7401    0.4777 C   0  0  0  0  0  0  0  0  0  0  0  0
   -1.0479    0.9584    1.7111 C   0  0  0  0  0  0  0  0  0  0  0  0
   -2.8474    0.2239    0.2986 C   0  0  0  0  0  0  0  0  0  0  0  0
   -4.0338    0.9151    0.1637 C   0  0  0  0  0  0  0  0  0  0  0  0
   -5.1722    0.0562    0.0003 C   0  0  0  0  0  0  0  0  0  0  0  0
   -4.7965   -1.2906    0.0177 C   0  0  0  0  0  0  0  0  0  0  0  0
   -6.5435    0.3665   -0.1666 C   0  0  0  0  0  0  0  0  0  0  0  0
   -5.7456   -2.3218   -0.1255 C   0  0  0  0  0  0  0  0  0  0  0  0
   -7.4874   -0.6541   -0.3089 C   0  0  0  0  0  0  0  0  0  0  0  0
   -7.0902   -1.9835   -0.2884 C   0  0  0  0  0  0  0  0  0  0  0  0
    3.2761    2.9300   -2.1326 H   0  0  0  0  0  0  0  0  0  0  0  0
    2.5639    2.7527    2.0570 H   0  0  0  0  0  0  0  0  0  0  0  0
    2.3140    4.0038   -0.0790 H   0  0  0  0  0  0  0  0  0  0  0  0
    3.9819    3.4875    0.1775 H   0  0  0  0  0  0  0  0  0  0  0  0
    3.7457    0.5544   -2.1376 H   0  0  0  0  0  0  0  0  0  0  0  0
    4.8922    1.4424   -1.1223 H   0  0  0  0  0  0  0  0  0  0  0  0
    4.4804    1.3549    1.4779 H   0  0  0  0  0  0  0  0  0  0  0  0
    3.1213    0.3760    2.0391 H   0  0  0  0  0  0  0  0  0  0  0  0
    0.9491    2.7780   -2.0327 H   0  0  0  0  0  0  0  0  0  0  0  0
    1.4181    1.1160   -2.3307 H   0  0  0  0  0  0  0  0  0  0  0  0
    5.4702   -0.5036    0.2878 H   0  0  0  0  0  0  0  0  0  0  0  0
    3.0102   -2.1646    1.0192 H   0  0  0  0  0  0  0  0  0  0  0  0
    4.1104   -1.3766    2.1672 H   0  0  0  0  0  0  0  0  0  0  0  0
    5.0036   -1.0511   -2.0720 H   0  0  0  0  0  0  0  0  0  0  0  0
    3.5573   -1.9659   -1.5909 H   0  0  0  0  0  0  0  0  0  0  0  0
    0.6128    1.5903    2.9430 H   0  0  0  0  0  0  0  0  0  0  0  0
    5.9830   -2.7929    1.4692 H   0  0  0  0  0  0  0  0  0  0  0  0
    4.5957   -3.7766    1.9518 H   0  0  0  0  0  0  0  0  0  0  0  0
    5.4313   -3.4721   -2.0351 H   0  0  0  0  0  0  0  0  0  0  0  0
    6.4796   -2.6118   -0.9011 H   0  0  0  0  0  0  0  0  0  0  0  0
   -1.6381    0.7533    2.5997 H   0  0  0  0  0  0  0  0  0  0  0  0
   -4.0933    1.9972    0.1799 H   0  0  0  0  0  0  0  0  0  0  0  0
   -6.8700    1.4034   -0.1848 H   0  0  0  0  0  0  0  0  0  0  0  0
   -5.4439   -3.3653   -0.1106 H   0  0  0  0  0  0  0  0  0  0  0  0
   -8.5367   -0.4031   -0.4362 H   0  0  0  0  0  0  0  0  0  0  0  0
   -7.8314   -2.7704   -0.3998 H   0  0  0  0  0  0  0  0  0  0  0  0
  1 22  1  0  0  0  0
  1 25  1  0  0  0  0
  2 18  1  0  0  0  0
  2 19  1  0  0  0  0
  3 17  2  0  0  0  0
  4  9  1  0  0  0  0
  4 10  1  0  0  0  0
  4 12  1  0  0  0  0
  5 11  1  0  0  0  0
  5 13  1  0  0  0  0
  5 17  1  0  0  0  0
  6  8  1  0  0  0  0
  6  9  1  0  0  0  0
  6 11  1  0  0  0  0
  6 30  1  0  0  0  0
  7  8  1  0  0  0  0
  7 10  1  0  0  0  0
  7 13  1  0  0  0  0
  7 31  1  0  0  0  0
  8 32  1  0  0  0  0
  8 33  1  0  0  0  0
  9 34  1  0  0  0  0
  9 35  1  0  0  0  0
 10 36  1  0  0  0  0
 10 37  1  0  0  0  0
 11 38  1  0  0  0  0
 11 39  1  0  0  0  0
 12 14  1  0  0  0  0
 12 15  1  0  0  0  0
 12 40  1  0  0  0  0
 13 16  2  0  0  0  0
 14 18  1  0  0  0  0
 14 41  1  0  0  0  0
 14 42  1  0  0  0  0
 15 19  1  0  0  0  0
 15 43  1  0  0  0  0
 15 44  1  0  0  0  0
 16 21  1  0  0  0  0
 16 45  1  0  0  0  0
 17 20  1  0  0  0  0
 18 46  1  0  0  0  0
 18 47  1  0  0  0  0
 19 48  1  0  0  0  0
 19 49  1  0  0  0  0
 20 21  2  0  0  0  0
 20 22  1  0  0  0  0
 21 50  1  0  0  0  0
 22 23  2  0  0  0  0
 23 24  1  0  0  0  0
 23 51  1  0  0  0  0
 24 25  1  0  0  0  0
 24 26  2  0  0  0  0
 25 27  2  0  0  0  0
 26 28  1  0  0  0  0
 26 52  1  0  0  0  0
 27 29  1  0  0  0  0
 27 53  1  0  0  0  0
 28 29  2  0  0  0  0
 28 54  1  0  0  0  0
 29 55  1  0  0  0  0
M  END
> <PUBCHEM_COMPOUND_CID>
11911979

> <PUBCHEM_CONFORMER_RMSD>
0.8

> <PUBCHEM_CONFORMER_DIVERSEORDER>
1
8
3
5
7
4
6
2

> <PUBCHEM_MMFF94_PARTIAL_CHARGES>
31
1 -0.08
10 0.27
11 0.3
12 0.27
13 -0.03
16 -0.15
17 0.62
18 0.28
19 0.28
2 -0.56
20 0.06
21 -0.15
22 -0.01
23 -0.15
25 0.04
26 -0.15
27 -0.15
28 -0.15
29 -0.15
3 -0.57
4 -0.81
45 0.15
5 -0.47
50 0.15
51 0.15
52 0.15
53 0.15
54 0.15
55 0.15
7 0.14
9 0.27

> <PUBCHEM_EFFECTIVE_ROTOR_COUNT>
4.2

> <PUBCHEM_PHARMACOPHORE_FEATURES>
9
1 2 acceptor
1 3 acceptor
1 4 cation
5 1 22 23 24 25 rings
6 2 12 14 15 18 19 rings
6 24 25 26 27 28 29 rings
6 4 6 7 8 9 10 rings
6 5 13 16 17 20 21 rings
6 5 6 7 8 11 13 rings

> <PUBCHEM_HEAVY_ATOM_COUNT>
29

> <PUBCHEM_ATOM_DEF_STEREO_COUNT>
2

> <PUBCHEM_ATOM_UDEF_STEREO_COUNT>
0

> <PUBCHEM_BOND_DEF_STEREO_COUNT>
0

> <PUBCHEM_BOND_UDEF_STEREO_COUNT>
0

> <PUBCHEM_ISOTOPIC_ATOM_COUNT>
0

> <PUBCHEM_COMPONENT_COUNT>
1

> <PUBCHEM_CACTVS_TAUTO_COUNT>
1

> <PUBCHEM_CONFORMER_ID>
00B5C32B00000001

> <PUBCHEM_MMFF94_ENERGY>
72.8127

> <PUBCHEM_FEATURE_SELFOVERLAP>
47.287

> <PUBCHEM_SHAPE_FINGERPRINT>
10554248 39 18337378440441266829
10670039 82 13984929689319962758
10906281 52 12613025047570108645
117089 54 17772206214801364662
11796584 16 18200885087974355343
11954058 11 18343024363571554294
11963148 33 18054502784358985839
12047536 79 16773790372776554992
12107183 9 18196661687750622521
12166972 35 18411422782390172862
12236239 1 17677321853606693649
12422481 6 16128377025950322693
12522641 33 18116161142340844076
12522641 68 17252046312107343916
12895836 83 12540995013377216642
13533116 47 18411982494143955401
1361 2 18334013886993672034
1361 4 18266741471134944591
13782708 43 18131347562293186263
14068700 675 18340769222215433546
14211702 104 18263368152349624187
14251740 57 18343018870408953562
14347332 77 18408319969804982981
14910302 57 18334005108269890173
15001296 14 18188765171307233387
15183329 4 18186800309963440997
15475509 35 18201995572805943731
15475509 8 17458346291393508261
15803439 3 17321027373973121614
17349148 13 16128389224100567945
19438510 23 9294988156111583222
1979834 28 16774081739348024862
19958102 18 18261099825570076479
20028762 73 18272933786856432398
20505436 4 17344062137980250668
20567600 234 13326845652289263563
20775438 99 18042680783565292386
20775530 9 18268135492917559262
21033648 29 14189586200251807915
21130935 74 18271528710644902483
21315764 119 18333729126920159453
21344244 181 17894917360437618867
21641784 216 14851873734818227647
21703447 108 18273494598263994864
21792934 111 14764079917874130409
23522609 53 18055664882714306001
23559900 14 18411414042806952393
23569914 152 17103076402258411287
23569943 247 18041836187268862355
25222932 49 17486766652103971470
29717793 49 18041274469849383781
3004659 81 18410857672078634354
34797466 226 17386004044113515925
376196 1 15796258788773463548
3886686 26 16695009067561174059
404807 14 17907304247698148619
4066623 53 14923941229120075006
4073 2 18118406378489010323
4340502 62 18129375085145385656
46194498 28 17676488375862404044
465052 167 17988928880986320860
484985 159 17617660952181071670
5104073 3 17418100918737163857
513532 50 17822285833950960480
5372103 7 14997154495820541174
5951187 136 13984958371792333758
59682541 52 18113335332204138055
6695519 79 17404605740123834432
6697151 62 18057298653016971941
70251023 43 18261111842387430128
7970288 3 18196655086539141590
960060 61 17821738234210239204
9831232 110 18333445435392710231

> <PUBCHEM_SHAPE_MULTIPOLES>
578.96
17.13
3.64
1.5
24.56
2.11
0.06
14.8
-2.26
-6.38
-0.06
-1.57
-0.45
-0.45

> <PUBCHEM_SHAPE_SELFOVERLAP>
1270.47

> <PUBCHEM_SHAPE_VOLUME>
313.5

> <PUBCHEM_COORDINATE_TYPE>
2
5
10

$$$$
