56774050
  -OEChem-12032416323D

 47 48  0     1  0  0  0  0  0999 V2000
   -4.1283   -1.8706   -0.0667 S   0  0  0  0  0  0  0  0  0  0  0  0
    3.5579    0.9371    0.7782 O   0  0  0  0  0  0  0  0  0  0  0  0
   -2.9492   -2.7067   -0.1748 O   0  0  0  0  0  0  0  0  0  0  0  0
   -5.3184   -2.1497   -0.8462 O   0  0  0  0  0  0  0  0  0  0  0  0
   -3.6943   -0.2341   -0.3043 N   0  0  0  0  0  0  0  0  0  0  0  0
    2.4864    1.8159    0.6747 N   0  0  0  0  0  0  0  0  0  0  0  0
   -2.1765    1.8701   -0.0572 C   0  0  0  0  0  0  0  0  0  0  0  0
   -0.7411    1.4821    0.3550 C   0  0  1  0  0  0  0  0  0  0  0  0
   -2.6176    0.4857    0.4615 C   0  0  2  0  0  0  0  0  0  0  0  0
   -1.1747    0.0102    0.1928 C   0  0  0  0  0  0  0  0  0  0  0  0
    0.4012    1.9226   -0.5701 C   0  0  0  0  0  0  0  0  0  0  0  0
   -2.7201    3.0606    0.7008 C   0  0  0  0  0  0  0  0  0  0  0  0
   -2.4122    2.0483   -1.5456 C   0  0  0  0  0  0  0  0  0  0  0  0
    1.6621    1.2527   -0.2132 C   0  0  0  0  0  0  0  0  0  0  0  0
    2.1558    0.0297   -0.6989 C   0  0  0  0  0  0  0  0  0  0  0  0
   -4.6064   -1.8182    1.6439 C   0  0  0  0  0  0  0  0  0  0  0  0
    3.3494   -0.1226   -0.0444 C   0  0  0  0  0  0  0  0  0  0  0  0
    4.4416   -1.2049   -0.0599 C   0  0  0  0  0  0  0  0  0  0  0  0
    5.0170   -1.3416   -1.4863 C   0  0  0  0  0  0  0  0  0  0  0  0
    3.8389   -2.5579    0.3763 C   0  0  0  0  0  0  0  0  0  0  0  0
    5.6287   -0.9086    0.8844 C   0  0  0  0  0  0  0  0  0  0  0  0
   -0.5175    1.7306    1.4042 H   0  0  0  0  0  0  0  0  0  0  0  0
   -2.8626    0.4976    1.5321 H   0  0  0  0  0  0  0  0  0  0  0  0
   -1.0148   -0.4209   -0.8026 H   0  0  0  0  0  0  0  0  0  0  0  0
   -0.7679   -0.6812    0.9370 H   0  0  0  0  0  0  0  0  0  0  0  0
    0.1774    1.6976   -1.6191 H   0  0  0  0  0  0  0  0  0  0  0  0
    0.5177    3.0118   -0.5068 H   0  0  0  0  0  0  0  0  0  0  0  0
   -3.7941    3.1859    0.5238 H   0  0  0  0  0  0  0  0  0  0  0  0
   -2.2189    3.9865    0.3975 H   0  0  0  0  0  0  0  0  0  0  0  0
   -2.5808    2.9524    1.7823 H   0  0  0  0  0  0  0  0  0  0  0  0
   -3.4795    2.1703   -1.7650 H   0  0  0  0  0  0  0  0  0  0  0  0
   -2.0573    1.2024   -2.1441 H   0  0  0  0  0  0  0  0  0  0  0  0
   -1.9099    2.9478   -1.9201 H   0  0  0  0  0  0  0  0  0  0  0  0
   -4.4852    0.3795   -0.5436 H   0  0  0  0  0  0  0  0  0  0  0  0
    1.7114   -0.6428   -1.4178 H   0  0  0  0  0  0  0  0  0  0  0  0
   -4.9964   -2.8029    1.9119 H   0  0  0  0  0  0  0  0  0  0  0  0
   -3.7338   -1.5932    2.2587 H   0  0  0  0  0  0  0  0  0  0  0  0
   -5.3877   -1.0669    1.7732 H   0  0  0  0  0  0  0  0  0  0  0  0
    5.4570   -0.3967   -1.8263 H   0  0  0  0  0  0  0  0  0  0  0  0
    4.2373   -1.6174   -2.2059 H   0  0  0  0  0  0  0  0  0  0  0  0
    5.7953   -2.1118   -1.5314 H   0  0  0  0  0  0  0  0  0  0  0  0
    3.0269   -2.8667   -0.2924 H   0  0  0  0  0  0  0  0  0  0  0  0
    3.4233   -2.4962    1.3889 H   0  0  0  0  0  0  0  0  0  0  0  0
    4.5933   -3.3528    0.3689 H   0  0  0  0  0  0  0  0  0  0  0  0
    5.2932   -0.8196    1.9243 H   0  0  0  0  0  0  0  0  0  0  0  0
    6.1204    0.0340    0.6169 H   0  0  0  0  0  0  0  0  0  0  0  0
    6.3834   -1.7023    0.8437 H   0  0  0  0  0  0  0  0  0  0  0  0
  1  3  2  0  0  0  0
  1  4  2  0  0  0  0
  1  5  1  0  0  0  0
  1 16  1  0  0  0  0
  2  6  1  0  0  0  0
  2 17  1  0  0  0  0
  5  9  1  0  0  0  0
  5 34  1  0  0  0  0
  6 14  2  0  0  0  0
  7  8  1  0  0  0  0
  7  9  1  0  0  0  0
  7 12  1  0  0  0  0
  7 13  1  0  0  0  0
  8 10  1  0  0  0  0
  8 11  1  0  0  0  0
  8 22  1  0  0  0  0
  9 10  1  0  0  0  0
  9 23  1  0  0  0  0
 10 24  1  0  0  0  0
 10 25  1  0  0  0  0
 11 14  1  0  0  0  0
 11 26  1  0  0  0  0
 11 27  1  0  0  0  0
 12 28  1  0  0  0  0
 12 29  1  0  0  0  0
 12 30  1  0  0  0  0
 13 31  1  0  0  0  0
 13 32  1  0  0  0  0
 13 33  1  0  0  0  0
 14 15  1  0  0  0  0
 15 17  2  0  0  0  0
 15 35  1  0  0  0  0
 16 36  1  0  0  0  0
 16 37  1  0  0  0  0
 16 38  1  0  0  0  0
 17 18  1  0  0  0  0
 18 19  1  0  0  0  0
 18 20  1  0  0  0  0
 18 21  1  0  0  0  0
 19 39  1  0  0  0  0
 19 40  1  0  0  0  0
 19 41  1  0  0  0  0
 20 42  1  0  0  0  0
 20 43  1  0  0  0  0
 20 44  1  0  0  0  0
 21 45  1  0  0  0  0
 21 46  1  0  0  0  0
 21 47  1  0  0  0  0
M  END
> <PUBCHEM_COMPOUND_CID>
56774050

> <PUBCHEM_CONFORMER_RMSD>
0.8

> <PUBCHEM_CONFORMER_DIVERSEORDER>
1
48
85
76
47
78
65
37
74
43
55
70
42
26
51
93
81
89
21
92
25
84
88
86
32
7
63
41
94
40
27
46
50
49
67
52
79
11
91
35
54
69
15
75
31
80
66
14
82
19
56
24
4
9
61
28
87
71
13
58
53
73
6
29
60
57
45
38
18
10
44
59
83
2
23
77
20
39
95
22
62
64
17
68
3
72
5
96
33
36
16
90
30
12
8
34

> <PUBCHEM_MMFF94_PARTIAL_CHARGES>
15
1 1.33
11 0.18
14 0.11
15 -0.15
16 0.11
17 -0.04
18 0.18
2 -0.02
3 -0.65
34 0.42
35 0.15
4 -0.65
5 -0.87
6 -0.41
9 0.31

> <PUBCHEM_EFFECTIVE_ROTOR_COUNT>
5.8

> <PUBCHEM_PHARMACOPHORE_FEATURES>
8
1 3 acceptor
1 4 acceptor
1 5 donor
1 6 acceptor
3 7 12 13 hydrophobe
4 18 19 20 21 hydrophobe
4 7 8 9 10 rings
5 2 6 14 15 17 rings

> <PUBCHEM_HEAVY_ATOM_COUNT>
21

> <PUBCHEM_ATOM_DEF_STEREO_COUNT>
2

> <PUBCHEM_ATOM_UDEF_STEREO_COUNT>
0

> <PUBCHEM_BOND_DEF_STEREO_COUNT>
0

> <PUBCHEM_BOND_UDEF_STEREO_COUNT>
0

> <PUBCHEM_ISOTOPIC_ATOM_COUNT>
0

> <PUBCHEM_COMPONENT_COUNT>
1

> <PUBCHEM_CACTVS_TAUTO_COUNT>
1

> <PUBCHEM_CONFORMER_ID>
03624DA200000001

> <PUBCHEM_MMFF94_ENERGY>
33.7829

> <PUBCHEM_FEATURE_SELFOVERLAP>
40.613

> <PUBCHEM_SHAPE_FINGERPRINT>
10498660 4 8718827574302638822
11036077 51 17983299227382411729
11405975 8 18342459201177790841
11796584 16 18194683653736975302
11809386 21 18041273275262725050
12422481 6 18129124280735773219
12633257 1 17987817253645991641
12760667 363 18411698803428389023
12916754 54 18411419526879120817
12969540 37 17547282771907472007
13255334 9 18411420583778438926
13544653 18 18338518663652460665
13583140 156 17631998793928722888
13965767 371 12966586208966435720
1420 369 18411703218085109099
14251751 18 18411132528859096610
14251751 93 18338231574700216354
14251764 30 17751091399923273523
14866123 147 18340210687931237755
15042514 8 18410019806323660449
15352361 1 18410572915762967527
15537594 2 18116167571051940602
17492 89 18410854394986834882
17857418 61 18409726261792366242
1813 80 17750237066260560989
19141452 34 18265054626259373925
193927 3 18409174328361220978
20028762 73 18060135483190245142
20281475 54 18335986346787672804
20403669 9 18412548725368339287
21054139 6 18187933850939376358
21673915 165 18410853253000794618
221490 88 18409450310396662888
23503958 8 18340486677417436568
23559900 14 18411689998149742664
27216 239 10231745708867522197
2871803 45 18260823834464528435
312423 11 18261971720230156364
316301 35 18410287000412643274
44062 13 18262800648954668471
463206 1 18265895946234365987
5104073 3 18272930492995610360
5486654 36 18339090301913479969
5924683 9 18413105035433734929
59755656 215 18337954472432437551
59755656 520 18119525445604928445
633830 44 15792870905785033556
76465 3 18410571803334484045
7970288 3 18337953527545738539
9709674 26 18261957456690940416

> <PUBCHEM_SHAPE_MULTIPOLES>
408.45
12.14
3.34
1.17
6.38
0.27
0.1
9.66
-0.42
-3.52
-0.12
-0.15
0.08
0.38

> <PUBCHEM_SHAPE_SELFOVERLAP>
820.082

> <PUBCHEM_SHAPE_VOLUME>
246.5

> <PUBCHEM_COORDINATE_TYPE>
2
5
10

$$$$
