11886048
  -OEChem-12032416153D

 53 57  0     1  0  0  0  0  0999 V2000
   -0.4897   -0.1819   -1.2356 O   0  0  0  0  0  0  0  0  0  0  0  0
   -2.3555   -2.2235    0.1451 O   0  0  0  0  0  0  0  0  0  0  0  0
    1.2151   -2.0080   -0.0404 O   0  0  0  0  0  0  0  0  0  0  0  0
    1.9816   -0.2160    1.1558 O   0  0  0  0  0  0  0  0  0  0  0  0
    8.5072    2.1571    0.9790 O   0  0  0  0  0  0  0  0  0  0  0  0
   -3.3512    1.2484   -0.4651 N   0  0  0  0  0  0  0  0  0  0  0  0
   -2.5594    2.3240   -0.5306 N   0  0  0  0  0  0  0  0  0  0  0  0
   -4.5869    2.8933    0.2014 N   0  0  0  0  0  0  0  0  0  0  0  0
   -3.3221    3.3304   -0.1211 N   0  0  0  0  0  0  0  0  0  0  0  0
    3.3844   -1.4338   -0.2687 N   0  0  0  0  0  0  0  0  0  0  0  0
   -2.1863   -0.7982    0.3097 C   0  0  1  0  0  0  0  0  0  0  0  0
   -0.7069   -0.5111    0.1453 C   0  0  1  0  0  0  0  0  0  0  0  0
   -2.8454   -0.0721   -0.8470 C   0  0  2  0  0  0  0  0  0  0  0  0
   -0.0695   -1.8303    0.5116 C   0  0  1  0  0  0  0  0  0  0  0  0
   -1.7515   -0.0706   -1.9099 C   0  0  0  0  0  0  0  0  0  0  0  0
   -1.0664   -2.8264   -0.0332 C   0  0  0  0  0  0  0  0  0  0  0  0
   -4.5815    1.5990   -0.0202 C   0  0  0  0  0  0  0  0  0  0  0  0
    2.1942   -1.1222    0.3596 C   0  0  0  0  0  0  0  0  0  0  0  0
   -5.6774    0.6832    0.1679 C   0  0  0  0  0  0  0  0  0  0  0  0
   -6.5660    0.4322   -0.8790 C   0  0  0  0  0  0  0  0  0  0  0  0
   -5.8538    0.0451    1.3970 C   0  0  0  0  0  0  0  0  0  0  0  0
    4.6322   -0.7820   -0.1419 C   0  0  0  0  0  0  0  0  0  0  0  0
   -7.6280   -0.4537   -0.6973 C   0  0  0  0  0  0  0  0  0  0  0  0
   -6.9157   -0.8409    1.5784 C   0  0  0  0  0  0  0  0  0  0  0  0
   -7.8029   -1.0902    0.5313 C   0  0  0  0  0  0  0  0  0  0  0  0
    5.7189   -1.2503   -0.8632 C   0  0  0  0  0  0  0  0  0  0  0  0
    4.7443    0.3130    0.7001 C   0  0  0  0  0  0  0  0  0  0  0  0
    6.9502   -0.6069   -0.7391 C   0  0  0  0  0  0  0  0  0  0  0  0
    5.9758    0.9564    0.8240 C   0  0  0  0  0  0  0  0  0  0  0  0
    7.0786    0.4964    0.1043 C   0  0  0  0  0  0  0  0  0  0  0  0
    8.3621    1.1682    0.2331 C   0  0  0  0  0  0  0  0  0  0  0  0
    9.5717    0.6714   -0.5512 C   0  0  0  0  0  0  0  0  0  0  0  0
   -2.5696   -0.5346    1.3004 H   0  0  0  0  0  0  0  0  0  0  0  0
   -0.3771    0.3410    0.7454 H   0  0  0  0  0  0  0  0  0  0  0  0
   -3.7095   -0.6187   -1.2421 H   0  0  0  0  0  0  0  0  0  0  0  0
   -0.0288   -1.9384    1.6040 H   0  0  0  0  0  0  0  0  0  0  0  0
   -1.7458    0.8125   -2.5556 H   0  0  0  0  0  0  0  0  0  0  0  0
   -1.8443   -0.9532   -2.5530 H   0  0  0  0  0  0  0  0  0  0  0  0
   -0.9130   -3.0295   -1.0990 H   0  0  0  0  0  0  0  0  0  0  0  0
   -1.0314   -3.7831    0.4964 H   0  0  0  0  0  0  0  0  0  0  0  0
    3.3626   -2.2301   -0.9011 H   0  0  0  0  0  0  0  0  0  0  0  0
   -6.4433    0.9201   -1.8431 H   0  0  0  0  0  0  0  0  0  0  0  0
   -5.1709    0.2286    2.2232 H   0  0  0  0  0  0  0  0  0  0  0  0
   -8.3186   -0.6481   -1.5127 H   0  0  0  0  0  0  0  0  0  0  0  0
   -7.0519   -1.3369    2.5350 H   0  0  0  0  0  0  0  0  0  0  0  0
   -8.6296   -1.7802    0.6727 H   0  0  0  0  0  0  0  0  0  0  0  0
    5.6290   -2.1088   -1.5231 H   0  0  0  0  0  0  0  0  0  0  0  0
    3.9372    0.7260    1.2874 H   0  0  0  0  0  0  0  0  0  0  0  0
    7.7821   -0.9973   -1.3171 H   0  0  0  0  0  0  0  0  0  0  0  0
    6.0521    1.8144    1.4871 H   0  0  0  0  0  0  0  0  0  0  0  0
   10.4337    1.3048   -0.3185 H   0  0  0  0  0  0  0  0  0  0  0  0
    9.8172   -0.3529   -0.2592 H   0  0  0  0  0  0  0  0  0  0  0  0
    9.3811    0.7424   -1.6252 H   0  0  0  0  0  0  0  0  0  0  0  0
  1 12  1  0  0  0  0
  1 15  1  0  0  0  0
  2 11  1  0  0  0  0
  2 16  1  0  0  0  0
  3 14  1  0  0  0  0
  3 18  1  0  0  0  0
  4 18  2  0  0  0  0
  5 31  2  0  0  0  0
  6  7  1  0  0  0  0
  6 13  1  0  0  0  0
  6 17  1  0  0  0  0
  7  9  2  0  0  0  0
  8  9  1  0  0  0  0
  8 17  2  0  0  0  0
 10 18  1  0  0  0  0
 10 22  1  0  0  0  0
 10 41  1  0  0  0  0
 11 12  1  0  0  0  0
 11 13  1  0  0  0  0
 11 33  1  0  0  0  0
 12 14  1  0  0  0  0
 12 34  1  0  0  0  0
 13 15  1  0  0  0  0
 13 35  1  0  0  0  0
 14 16  1  0  0  0  0
 14 36  1  0  0  0  0
 15 37  1  0  0  0  0
 15 38  1  0  0  0  0
 16 39  1  0  0  0  0
 16 40  1  0  0  0  0
 17 19  1  0  0  0  0
 19 20  2  0  0  0  0
 19 21  1  0  0  0  0
 20 23  1  0  0  0  0
 20 42  1  0  0  0  0
 21 24  2  0  0  0  0
 21 43  1  0  0  0  0
 22 26  2  0  0  0  0
 22 27  1  0  0  0  0
 23 25  2  0  0  0  0
 23 44  1  0  0  0  0
 24 25  1  0  0  0  0
 24 45  1  0  0  0  0
 25 46  1  0  0  0  0
 26 28  1  0  0  0  0
 26 47  1  0  0  0  0
 27 29  2  0  0  0  0
 27 48  1  0  0  0  0
 28 30  2  0  0  0  0
 28 49  1  0  0  0  0
 29 30  1  0  0  0  0
 29 50  1  0  0  0  0
 30 31  1  0  0  0  0
 31 32  1  0  0  0  0
 32 51  1  0  0  0  0
 32 52  1  0  0  0  0
 32 53  1  0  0  0  0
M  END
> <PUBCHEM_COMPOUND_CID>
11886048

> <PUBCHEM_CONFORMER_RMSD>
1

> <PUBCHEM_CONFORMER_DIVERSEORDER>
1
18
25
57
41
13
56
66
39
35
37
61
27
6
31
58
9
40
19
44
20
51
47
22
53
55
36
43
28
4
54
68
64
12
16
26
48
67
34
7
42
8
38
14
2
3
46
24
23
30
63
5
21
59
11
65
29
32
10
62
17
49
45
60
50
52
33
15

> <PUBCHEM_MMFF94_PARTIAL_CHARGES>
41
1 -0.56
10 -0.55
11 0.28
12 0.28
13 0.26
14 0.28
15 0.28
16 0.28
17 0.13
18 0.78
19 0.05
2 -0.56
20 -0.15
21 -0.15
22 0.12
23 -0.15
24 -0.15
25 -0.15
26 -0.15
27 -0.15
28 -0.15
29 -0.15
3 -0.43
30 0.09
31 0.42
32 0.06
4 -0.57
41 0.37
42 0.15
43 0.15
44 0.15
45 0.15
46 0.15
47 0.15
48 0.15
49 0.15
5 -0.57
50 0.15
6 0.31
7 -0.42
8 -0.34

> <PUBCHEM_EFFECTIVE_ROTOR_COUNT>
8.2

> <PUBCHEM_PHARMACOPHORE_FEATURES>
11
1 1 acceptor
1 10 donor
1 2 acceptor
1 4 acceptor
1 5 acceptor
3 6 8 17 cation
5 1 11 12 13 15 rings
5 2 11 12 14 16 rings
5 6 7 8 9 17 rings
6 19 20 21 23 24 25 rings
6 22 26 27 28 29 30 rings

> <PUBCHEM_HEAVY_ATOM_COUNT>
32

> <PUBCHEM_ATOM_DEF_STEREO_COUNT>
4

> <PUBCHEM_ATOM_UDEF_STEREO_COUNT>
0

> <PUBCHEM_BOND_DEF_STEREO_COUNT>
0

> <PUBCHEM_BOND_UDEF_STEREO_COUNT>
0

> <PUBCHEM_ISOTOPIC_ATOM_COUNT>
0

> <PUBCHEM_COMPONENT_COUNT>
1

> <PUBCHEM_CACTVS_TAUTO_COUNT>
9

> <PUBCHEM_CONFORMER_ID>
00B55DE000000001

> <PUBCHEM_MMFF94_ENERGY>
93.7368

> <PUBCHEM_FEATURE_SELFOVERLAP>
56.524

> <PUBCHEM_SHAPE_FINGERPRINT>
10 15 18259983782043186658
10076449 9 17917714612551526713
10369192 42 18202001018924507135
106641 1 17821450175085768883
10674148 151 12607404382013847526
11135609 201 18334849541932550786
11374522 155 18261398887689408412
11408170 108 13118272647054523729
12643181 29 9583515412929110185
12664476 115 18343299284665931448
14394314 77 18339928095351803553
15183329 4 16343699907082034640
16126227 98 18411983580818147570
16628084 112 13254256920809621749
18603816 31 13190345711991679465
18608769 82 18411701014893577971
18643901 69 10880000168128346066
19611394 137 18042136499813195339
19841028 212 13110698116516031580
21033648 29 18201144569093514794
21365058 27 17275105029399024279
21779490 81 18335138635912421344
21792961 116 18131357384709656698
22224240 67 17749107790182525362
24771293 8 18334297539660953925
25019877 29 18273218590674943135
2747138 104 18262252066368628419
3383291 50 18333736840170071323
4098825 35 16988567866092299814
4403749 210 18260543395318462053
5028188 123 17489864956487607693
550186 72 18262799562930323437
563151 40 16558741335113547663
59682541 35 18040719194379729651
6703917 75 18412272730643096250
9689198 14 18273218569062572180

> <PUBCHEM_SHAPE_MULTIPOLES>
604.29
27.78
2.49
1.16
35.56
0.93
-0.07
9
2.59
-1.58
0.11
-0.78
-0.03
1.51

> <PUBCHEM_SHAPE_SELFOVERLAP>
1327.577

> <PUBCHEM_SHAPE_VOLUME>
327.5

> <PUBCHEM_COORDINATE_TYPE>
2
5
10

$$$$
