25390800
  -OEChem-12032416383D

 59 64  0     1  0  0  0  0  0999 V2000
    3.8170   -2.6388    1.7094 O   0  0  0  0  0  0  0  0  0  0  0  0
    1.8891   -0.1872    1.8084 O   0  0  0  0  0  0  0  0  0  0  0  0
    6.2223    1.7927    1.4912 O   0  0  0  0  0  0  0  0  0  0  0  0
    4.7980    2.4545   -1.6875 O   0  0  0  0  0  0  0  0  0  0  0  0
    1.2432   -3.3793    0.1583 N   0  0  0  0  0  0  0  0  0  0  0  0
    4.5039    0.7001    0.3814 N   0  0  0  0  0  0  0  0  0  0  0  0
   -0.7960   -2.3680   -0.3049 N   0  0  0  0  0  0  0  0  0  0  0  0
    0.0368   -4.1805   -1.6571 N   0  0  0  0  0  0  0  0  0  0  0  0
    2.1146   -1.2232    0.8376 C   0  0  1  0  0  0  0  0  0  0  0  0
    3.6016   -1.5197    0.8335 C   0  0  1  0  0  0  0  0  0  0  0  0
    1.4813   -2.5162    1.2945 C   0  0  2  0  0  0  0  0  0  0  0  0
    4.2273   -0.2712    1.4120 C   0  0  2  0  0  0  0  0  0  0  0  0
    2.5507   -3.1120    2.1915 C   0  0  0  0  0  0  0  0  0  0  0  0
    3.1490    0.2234    2.3595 C   0  0  0  0  0  0  0  0  0  0  0  0
    0.1114   -3.3066   -0.6352 C   0  0  0  0  0  0  0  0  0  0  0  0
    5.4932    1.6641    0.5112 C   0  0  0  0  0  0  0  0  0  0  0  0
    5.6352    2.6071   -0.6279 C   0  0  0  0  0  0  0  0  0  0  0  0
   -1.8842   -2.3231   -1.1013 C   0  0  0  0  0  0  0  0  0  0  0  0
    6.4909    3.6638   -0.8363 C   0  0  0  0  0  0  0  0  0  0  0  0
   -1.0768   -4.0799   -2.4121 C   0  0  0  0  0  0  0  0  0  0  0  0
   -2.0804   -3.1617   -2.1794 C   0  0  0  0  0  0  0  0  0  0  0  0
   -2.8592   -1.3182   -0.7507 C   0  0  0  0  0  0  0  0  0  0  0  0
    6.1579    4.1946   -2.1054 C   0  0  0  0  0  0  0  0  0  0  0  0
    5.1227    3.4243   -2.5821 C   0  0  0  0  0  0  0  0  0  0  0  0
   -4.1613   -1.6946   -0.4212 C   0  0  0  0  0  0  0  0  0  0  0  0
   -2.4998    0.0295   -0.7443 C   0  0  0  0  0  0  0  0  0  0  0  0
   -4.7446    0.6248   -0.0789 C   0  0  0  0  0  0  0  0  0  0  0  0
   -5.1040   -0.7229   -0.0854 C   0  0  0  0  0  0  0  0  0  0  0  0
   -3.4426    1.0010   -0.4084 C   0  0  0  0  0  0  0  0  0  0  0  0
   -5.7227    1.6328    0.2693 C   0  0  0  0  0  0  0  0  0  0  0  0
   -6.5145    2.2089   -0.7241 C   0  0  0  0  0  0  0  0  0  0  0  0
   -5.8743    2.0279    1.5984 C   0  0  0  0  0  0  0  0  0  0  0  0
   -7.4580    3.1799   -0.3886 C   0  0  0  0  0  0  0  0  0  0  0  0
   -6.8179    2.9988    1.9341 C   0  0  0  0  0  0  0  0  0  0  0  0
   -7.6097    3.5749    0.9405 C   0  0  0  0  0  0  0  0  0  0  0  0
    1.7543   -0.8484   -0.1258 H   0  0  0  0  0  0  0  0  0  0  0  0
    3.9815   -1.7985   -0.1548 H   0  0  0  0  0  0  0  0  0  0  0  0
    0.5631   -2.3769    1.8766 H   0  0  0  0  0  0  0  0  0  0  0  0
    5.1526   -0.4747    1.9619 H   0  0  0  0  0  0  0  0  0  0  0  0
    2.4420   -2.7522    3.2207 H   0  0  0  0  0  0  0  0  0  0  0  0
    2.5566   -4.2063    2.2106 H   0  0  0  0  0  0  0  0  0  0  0  0
    3.2435   -0.2516    3.3422 H   0  0  0  0  0  0  0  0  0  0  0  0
    3.1452    1.3085    2.5011 H   0  0  0  0  0  0  0  0  0  0  0  0
    1.9542   -4.0472   -0.1175 H   0  0  0  0  0  0  0  0  0  0  0  0
    3.9186    0.7063   -0.4496 H   0  0  0  0  0  0  0  0  0  0  0  0
    7.2596    4.0123   -0.1613 H   0  0  0  0  0  0  0  0  0  0  0  0
   -1.1419   -4.7805   -3.2378 H   0  0  0  0  0  0  0  0  0  0  0  0
   -2.9552   -3.1152   -2.8163 H   0  0  0  0  0  0  0  0  0  0  0  0
    6.6152    5.0336   -2.6097 H   0  0  0  0  0  0  0  0  0  0  0  0
    4.5387    3.4363   -3.4908 H   0  0  0  0  0  0  0  0  0  0  0  0
   -4.4608   -2.7400   -0.4153 H   0  0  0  0  0  0  0  0  0  0  0  0
   -1.4904    0.3423   -1.0016 H   0  0  0  0  0  0  0  0  0  0  0  0
   -6.1146   -1.0333    0.1699 H   0  0  0  0  0  0  0  0  0  0  0  0
   -3.1461    2.0473   -0.4090 H   0  0  0  0  0  0  0  0  0  0  0  0
   -6.4092    1.9124   -1.7650 H   0  0  0  0  0  0  0  0  0  0  0  0
   -5.2654    1.5890    2.3853 H   0  0  0  0  0  0  0  0  0  0  0  0
   -8.0745    3.6284   -1.1621 H   0  0  0  0  0  0  0  0  0  0  0  0
   -6.9362    3.3065    2.9689 H   0  0  0  0  0  0  0  0  0  0  0  0
   -8.3443    4.3308    1.2019 H   0  0  0  0  0  0  0  0  0  0  0  0
  1 10  1  0  0  0  0
  1 13  1  0  0  0  0
  2  9  1  0  0  0  0
  2 14  1  0  0  0  0
  3 16  2  0  0  0  0
  4 17  1  0  0  0  0
  4 24  1  0  0  0  0
  5 11  1  0  0  0  0
  5 15  1  0  0  0  0
  5 44  1  0  0  0  0
  6 12  1  0  0  0  0
  6 16  1  0  0  0  0
  6 45  1  0  0  0  0
  7 15  1  0  0  0  0
  7 18  2  0  0  0  0
  8 15  2  0  0  0  0
  8 20  1  0  0  0  0
  9 10  1  0  0  0  0
  9 11  1  0  0  0  0
  9 36  1  0  0  0  0
 10 12  1  0  0  0  0
 10 37  1  0  0  0  0
 11 13  1  0  0  0  0
 11 38  1  0  0  0  0
 12 14  1  0  0  0  0
 12 39  1  0  0  0  0
 13 40  1  0  0  0  0
 13 41  1  0  0  0  0
 14 42  1  0  0  0  0
 14 43  1  0  0  0  0
 16 17  1  0  0  0  0
 17 19  2  0  0  0  0
 18 21  1  0  0  0  0
 18 22  1  0  0  0  0
 19 23  1  0  0  0  0
 19 46  1  0  0  0  0
 20 21  2  0  0  0  0
 20 47  1  0  0  0  0
 21 48  1  0  0  0  0
 22 25  2  0  0  0  0
 22 26  1  0  0  0  0
 23 24  2  0  0  0  0
 23 49  1  0  0  0  0
 24 50  1  0  0  0  0
 25 28  1  0  0  0  0
 25 51  1  0  0  0  0
 26 29  2  0  0  0  0
 26 52  1  0  0  0  0
 27 28  2  0  0  0  0
 27 29  1  0  0  0  0
 27 30  1  0  0  0  0
 28 53  1  0  0  0  0
 29 54  1  0  0  0  0
 30 31  2  0  0  0  0
 30 32  1  0  0  0  0
 31 33  1  0  0  0  0
 31 55  1  0  0  0  0
 32 34  2  0  0  0  0
 32 56  1  0  0  0  0
 33 35  2  0  0  0  0
 33 57  1  0  0  0  0
 34 35  1  0  0  0  0
 34 58  1  0  0  0  0
 35 59  1  0  0  0  0
M  END
> <PUBCHEM_COMPOUND_CID>
25390800

> <PUBCHEM_CONFORMER_RMSD>
1

> <PUBCHEM_CONFORMER_DIVERSEORDER>
1
4
40
78
138
162
119
151
163
98
24
90
104
65
50
56
48
100
21
20
44
152
150
35
103
112
54
157
72
17
73
111
86
9
93
121
168
137
109
43
25
91
62
165
147
34
148
172
144
31
69
166
81
45
136
88
60
23
146
32
158
84
106
114
108
126
64
159
160
141
79
28
12
66
156
80
161
170
89
129
135
77
127
75
41
101
74
120
130
11
113
171
149
95
145
33
132
26
63
110
167
47
61
83
18
82
139
107
27
29
117
164
16
125
155
8
92
105
123
128
94
55
42
154
124
87
36
10
7
122
5
67
142
49
46
14
52
143
134
133
22
115
68
37
39
58
3
70
116
76
96
53
71
15
38
30
140
131
59
174
97
99
169
57
102
118
85
51
19
13
173
153
2
6

> <PUBCHEM_MMFF94_PARTIAL_CHARGES>
48
1 -0.56
10 0.28
11 0.37
12 0.3
13 0.28
14 0.28
15 0.72
16 0.71
17 0.05
18 0.31
19 -0.15
2 -0.56
20 0.16
21 -0.15
23 -0.15
24 -0.01
25 -0.15
26 -0.15
28 -0.15
29 -0.15
3 -0.57
31 -0.15
32 -0.15
33 -0.15
34 -0.15
35 -0.15
4 -0.28
44 0.4
45 0.37
46 0.15
47 0.15
48 0.15
49 0.15
5 -0.87
50 0.15
51 0.15
52 0.15
53 0.15
54 0.15
55 0.15
56 0.15
57 0.15
58 0.15
59 0.15
6 -0.73
7 -0.62
8 -0.62
9 0.28

> <PUBCHEM_EFFECTIVE_ROTOR_COUNT>
8.2

> <PUBCHEM_PHARMACOPHORE_FEATURES>
14
1 1 acceptor
1 2 acceptor
1 3 acceptor
1 4 acceptor
1 5 donor
1 6 donor
1 7 acceptor
4 5 7 8 15 cation
5 1 9 10 11 13 rings
5 2 9 10 12 14 rings
5 4 17 19 23 24 rings
6 22 25 26 27 28 29 rings
6 30 31 32 33 34 35 rings
6 7 8 15 18 20 21 rings

> <PUBCHEM_HEAVY_ATOM_COUNT>
35

> <PUBCHEM_ATOM_DEF_STEREO_COUNT>
4

> <PUBCHEM_ATOM_UDEF_STEREO_COUNT>
0

> <PUBCHEM_BOND_DEF_STEREO_COUNT>
0

> <PUBCHEM_BOND_UDEF_STEREO_COUNT>
0

> <PUBCHEM_ISOTOPIC_ATOM_COUNT>
0

> <PUBCHEM_COMPONENT_COUNT>
1

> <PUBCHEM_CACTVS_TAUTO_COUNT>
6

> <PUBCHEM_CONFORMER_ID>
01836ED000000001

> <PUBCHEM_MMFF94_ENERGY>
100.2525

> <PUBCHEM_FEATURE_SELFOVERLAP>
71.757

> <PUBCHEM_SHAPE_FINGERPRINT>
100830 2 18189054360097851436
10556698 54 17773579714749930344
10917259 128 18051680334364474696
11374522 174 18342747278205017861
11374522 72 18261671477132832765
11399939 17 17408258970745343928
11410812 94 18055641866280030572
11505856 67 18266739284738232543
11801155 225 18337393849904158157
11828042 38 12535335831678470061
1200032 147 18409166589194177218
12013929 29 18044663229549153540
12061779 8 18041849548875488684
12104220 4 18260558848410716964
12655364 74 17322698708303370436
12975358 362 18197229049137175553
13165054 27 17755048584398840721
13782708 43 10159683691445529921
13944108 23 17841715114724919409
14026016 13 18411145766112320569
14251764 75 18409452496208007888
14664723 55 18412831282528927060
15145343 54 18342448292862828225
15198563 99 17484782042961028727
15357212 105 18409456889943857402
15406563 185 17561368374336907777
15448158 71 18261940904277326164
15513586 35 17680139969609990589
155225 6 18410577271155516581
15950262 2 18259707783323696161
15968369 153 17619626225524908162
16120349 67 18266468770654548234
16992727 255 18342457084513099688
16992779 147 18040716948771262584
1768 23 18187646959607894212
18339144 43 17269500659750836713
19302320 297 18040994025828647088
19304671 126 16272198700345796081
19309040 13 18261117404243166042
20691028 202 18412820295996971096
21772528 278 17168992347607508320
21774942 28 18122063367982598132
22019808 48 18199757934049008121
23569914 152 17916045477672424092
245318 6 18342176627147686393
3388396 114 16755216662367560068
3552219 110 17827066618062808471
38570 142 18115030822474537078
397830 11 17822303357971293177
4112364 45 18260835865163868589
437795 139 9006790769313171108
437795 70 15554174687937152425
44280116 191 18341059518976797312
45266715 3 11311756377233551070
54131252 217 12750945590771666997
57724786 102 18335412439972064482
6058803 2 18194656320096826274
6636735 143 16805323259119885169

> <PUBCHEM_SHAPE_MULTIPOLES>
676.88
20.85
6.78
2.41
11.63
0.46
-0.16
-36.27
1.79
-2.87
-3.47
-2.48
0.29
-7.91

> <PUBCHEM_SHAPE_SELFOVERLAP>
1508.073

> <PUBCHEM_SHAPE_VOLUME>
359.4

> <PUBCHEM_COORDINATE_TYPE>
2
5
10

$$$$
