45784091
  -OEChem-12032416253D

 63 66  0     1  0  0  0  0  0999 V2000
    2.8890    0.0443    0.7641 O   0  0  0  0  0  0  0  0  0  0  0  0
   -3.3912   -0.6113    0.4232 N   0  0  0  0  0  0  0  0  0  0  0  0
    3.9646   -1.5117   -0.4302 N   0  0  0  0  0  0  0  0  0  0  0  0
    4.4708   -0.2753   -0.7852 N   0  0  0  0  0  0  0  0  0  0  0  0
    3.3798    2.9396    0.5966 N   0  0  0  0  0  0  0  0  0  0  0  0
   -6.0468    3.0622   -0.3422 N   0  0  0  0  0  0  0  0  0  0  0  0
    4.8202    4.0608   -0.6680 N   0  0  0  0  0  0  0  0  0  0  0  0
   -1.0964   -1.9009   -0.8558 C   0  0  1  0  0  0  0  0  0  0  0  0
   -1.9863   -2.6117    0.1903 C   0  0  1  0  0  0  0  0  0  0  0  0
    0.2643   -1.5363   -0.2458 C   0  0  0  0  0  0  0  0  0  0  0  0
    1.0212   -2.7517    0.3313 C   0  0  2  0  0  0  0  0  0  0  0  0
   -0.9270   -2.7555   -2.1193 C   0  0  0  0  0  0  0  0  0  0  0  0
    0.1093   -3.7348    1.0497 C   0  0  0  0  0  0  0  0  0  0  0  0
   -1.2320   -3.6481    0.9837 C   0  0  0  0  0  0  0  0  0  0  0  0
   -2.6345   -1.6127    1.1544 C   0  0  0  0  0  0  0  0  0  0  0  0
    2.1638   -2.2409    1.2179 C   0  0  0  0  0  0  0  0  0  0  0  0
   -2.2891   -3.1366   -2.6905 C   0  0  0  0  0  0  0  0  0  0  0  0
   -0.0943   -2.0106   -3.1576 C   0  0  0  0  0  0  0  0  0  0  0  0
    0.7597   -4.8630    1.8023 C   0  0  0  0  0  0  0  0  0  0  0  0
    3.0448   -1.2768    0.4762 C   0  0  0  0  0  0  0  0  0  0  0  0
   -4.0038    0.3504    1.3320 C   0  0  0  0  0  0  0  0  0  0  0  0
   -4.3551    1.6369    0.6334 C   0  0  0  0  0  0  0  0  0  0  0  0
    3.8140    0.6028   -0.0638 C   0  0  0  0  0  0  0  0  0  0  0  0
   -3.3749    2.5704    0.3155 C   0  0  0  0  0  0  0  0  0  0  0  0
   -5.6646    1.9278    0.2861 C   0  0  0  0  0  0  0  0  0  0  0  0
    4.0438    1.9984   -0.1385 C   0  0  0  0  0  0  0  0  0  0  0  0
   -3.7291    3.7496   -0.3307 C   0  0  0  0  0  0  0  0  0  0  0  0
    4.9273    2.7143   -0.9113 C   0  0  0  0  0  0  0  0  0  0  0  0
   -5.0664    3.9458   -0.6350 C   0  0  0  0  0  0  0  0  0  0  0  0
    3.8798    4.1624    0.2446 C   0  0  0  0  0  0  0  0  0  0  0  0
    2.3388    2.7123    1.5724 C   0  0  0  0  0  0  0  0  0  0  0  0
   -1.5660   -0.9617   -1.1744 H   0  0  0  0  0  0  0  0  0  0  0  0
   -2.8189   -3.1318   -0.2902 H   0  0  0  0  0  0  0  0  0  0  0  0
    0.8789   -0.9942   -0.9709 H   0  0  0  0  0  0  0  0  0  0  0  0
    0.0835   -0.8113    0.5606 H   0  0  0  0  0  0  0  0  0  0  0  0
    1.4688   -3.2966   -0.5122 H   0  0  0  0  0  0  0  0  0  0  0  0
   -0.4038   -3.6923   -1.8930 H   0  0  0  0  0  0  0  0  0  0  0  0
   -1.8409   -4.3764    1.5153 H   0  0  0  0  0  0  0  0  0  0  0  0
   -3.3003   -2.1495    1.8435 H   0  0  0  0  0  0  0  0  0  0  0  0
   -1.8631   -1.1296    1.7675 H   0  0  0  0  0  0  0  0  0  0  0  0
    1.7688   -1.7588    2.1211 H   0  0  0  0  0  0  0  0  0  0  0  0
    2.7968   -3.0715    1.5519 H   0  0  0  0  0  0  0  0  0  0  0  0
   -2.9757   -2.2835   -2.7145 H   0  0  0  0  0  0  0  0  0  0  0  0
   -2.7574   -3.9549   -2.1357 H   0  0  0  0  0  0  0  0  0  0  0  0
   -2.1879   -3.5018   -3.7192 H   0  0  0  0  0  0  0  0  0  0  0  0
   -0.4812   -1.0022   -3.3396 H   0  0  0  0  0  0  0  0  0  0  0  0
   -0.1033   -2.5439   -4.1151 H   0  0  0  0  0  0  0  0  0  0  0  0
    0.9569   -1.9342   -2.8648 H   0  0  0  0  0  0  0  0  0  0  0  0
    1.4882   -5.3747    1.1649 H   0  0  0  0  0  0  0  0  0  0  0  0
    0.0322   -5.6128    2.1318 H   0  0  0  0  0  0  0  0  0  0  0  0
    1.2717   -4.4893    2.6943 H   0  0  0  0  0  0  0  0  0  0  0  0
   -4.1068   -1.0519   -0.1535 H   0  0  0  0  0  0  0  0  0  0  0  0
   -3.3244    0.6065    2.1564 H   0  0  0  0  0  0  0  0  0  0  0  0
   -4.8944   -0.0891    1.7985 H   0  0  0  0  0  0  0  0  0  0  0  0
   -2.3331    2.3894    0.5661 H   0  0  0  0  0  0  0  0  0  0  0  0
   -6.4742    1.2386    0.5054 H   0  0  0  0  0  0  0  0  0  0  0  0
   -2.9818    4.4914   -0.5883 H   0  0  0  0  0  0  0  0  0  0  0  0
    5.6379    2.3355   -1.6325 H   0  0  0  0  0  0  0  0  0  0  0  0
   -5.3945    4.8490   -1.1389 H   0  0  0  0  0  0  0  0  0  0  0  0
    3.5253    5.0864    0.6811 H   0  0  0  0  0  0  0  0  0  0  0  0
    1.4926    2.2280    1.0788 H   0  0  0  0  0  0  0  0  0  0  0  0
    2.7406    2.0943    2.3790 H   0  0  0  0  0  0  0  0  0  0  0  0
    2.0141    3.6726    1.9826 H   0  0  0  0  0  0  0  0  0  0  0  0
  1 20  1  0  0  0  0
  1 23  1  0  0  0  0
  2 15  1  0  0  0  0
  2 21  1  0  0  0  0
  2 52  1  0  0  0  0
  3  4  1  0  0  0  0
  3 20  2  0  0  0  0
  4 23  2  0  0  0  0
  5 26  1  0  0  0  0
  5 30  1  0  0  0  0
  5 31  1  0  0  0  0
  6 25  1  0  0  0  0
  6 29  2  0  0  0  0
  7 28  1  0  0  0  0
  7 30  2  0  0  0  0
  8  9  1  0  0  0  0
  8 10  1  0  0  0  0
  8 12  1  0  0  0  0
  8 32  1  0  0  0  0
  9 14  1  0  0  0  0
  9 15  1  0  0  0  0
  9 33  1  0  0  0  0
 10 11  1  0  0  0  0
 10 34  1  0  0  0  0
 10 35  1  0  0  0  0
 11 13  1  0  0  0  0
 11 16  1  0  0  0  0
 11 36  1  0  0  0  0
 12 17  1  0  0  0  0
 12 18  1  0  0  0  0
 12 37  1  0  0  0  0
 13 14  2  0  0  0  0
 13 19  1  0  0  0  0
 14 38  1  0  0  0  0
 15 39  1  0  0  0  0
 15 40  1  0  0  0  0
 16 20  1  0  0  0  0
 16 41  1  0  0  0  0
 16 42  1  0  0  0  0
 17 43  1  0  0  0  0
 17 44  1  0  0  0  0
 17 45  1  0  0  0  0
 18 46  1  0  0  0  0
 18 47  1  0  0  0  0
 18 48  1  0  0  0  0
 19 49  1  0  0  0  0
 19 50  1  0  0  0  0
 19 51  1  0  0  0  0
 21 22  1  0  0  0  0
 21 53  1  0  0  0  0
 21 54  1  0  0  0  0
 22 24  1  0  0  0  0
 22 25  2  0  0  0  0
 23 26  1  0  0  0  0
 24 27  2  0  0  0  0
 24 55  1  0  0  0  0
 25 56  1  0  0  0  0
 26 28  2  0  0  0  0
 27 29  1  0  0  0  0
 27 57  1  0  0  0  0
 28 58  1  0  0  0  0
 29 59  1  0  0  0  0
 30 60  1  0  0  0  0
 31 61  1  0  0  0  0
 31 62  1  0  0  0  0
 31 63  1  0  0  0  0
M  END
> <PUBCHEM_COMPOUND_CID>
45784091

> <PUBCHEM_CONFORMER_RMSD>
1

> <PUBCHEM_CONFORMER_DIVERSEORDER>
107
124
54
229
29
1
35
73
238
105
188
133
111
32
241
23
165
210
103
64
164
231
47
58
113
190
125
213
56
139
55
117
201
53
183
221
65
152
203
200
132
81
186
253
119
226
74
170
248
128
148
83
78
242
173
214
26
155
85
76
196
209
67
245
46
243
88
228
96
197
256
240
195
48
233
106
259
60
178
5
169
109
162
199
166
134
87
230
193
90
232
192
151
142
191
45
41
69
218
92
236
258
145
194
122
219
174
86
257
130
27
137
216
24
147
208
136
129
176
127
42
80
150
223
260
252
211
179
184
138
224
153
4
114
172
206
40
250
14
158
123
189
177
244
154
239
234
144
181
79
25
161
115
72
227
70
99
182
36
89
198
121
140
116
143
44
175
225
63
18
126
94
91
19
222
52
167
249
11
93
102
62
77
160
237
255
38
98
187
84
120
118
28
66
185
82
101
246
100
220
180
156
261
205
235
6
207
39
146
104
131
20
50
13
112
202
10
168
15
157
141
57
21
3
247
61
215
59
217
31
159
2
51
7
33
30
110
71
163
9
108
37
75
95
171
8
49
97
12
17
68
212
43
16
149
204
251
22
135
254
34

> <PUBCHEM_MMFF94_PARTIAL_CHARGES>
34
1 -0.28
11 0.14
13 -0.28
14 -0.29
15 0.27
16 0.18
19 0.14
2 -0.9
20 0.3
21 0.41
22 -0.14
23 0.48
24 -0.15
25 0.16
26 -0.15
27 -0.15
28 0.08
29 0.16
3 -0.34
30 0.04
31 0.26
38 0.15
4 -0.34
5 0.05
52 0.36
55 0.15
56 0.15
57 0.15
58 0.15
59 0.15
6 -0.62
60 0.15
7 -0.57
9 0.14

> <PUBCHEM_EFFECTIVE_ROTOR_COUNT>
8.8

> <PUBCHEM_PHARMACOPHORE_FEATURES>
9
1 2 cation
1 2 donor
1 6 acceptor
3 12 17 18 hydrophobe
3 5 7 30 cation
5 1 3 4 20 23 rings
5 5 7 26 28 30 rings
6 6 22 24 25 27 29 rings
6 8 9 10 11 13 14 rings

> <PUBCHEM_HEAVY_ATOM_COUNT>
31

> <PUBCHEM_ATOM_DEF_STEREO_COUNT>
3

> <PUBCHEM_ATOM_UDEF_STEREO_COUNT>
0

> <PUBCHEM_BOND_DEF_STEREO_COUNT>
0

> <PUBCHEM_BOND_UDEF_STEREO_COUNT>
0

> <PUBCHEM_ISOTOPIC_ATOM_COUNT>
0

> <PUBCHEM_COMPONENT_COUNT>
1

> <PUBCHEM_CACTVS_TAUTO_COUNT>
1

> <PUBCHEM_CONFORMER_ID>
02BA9C1B0000006B

> <PUBCHEM_MMFF94_ENERGY>
53.2092

> <PUBCHEM_FEATURE_SELFOVERLAP>
45.671

> <PUBCHEM_SHAPE_FINGERPRINT>
10439779 11 17977093570469116857
10871710 139 18196933499061030823
10937287 8 18408040731904626315
11059845 2 18120346965553248760
12788726 201 17979334667250381199
1361 2 18335701624610633633
13761468 95 17842309044330662048
13944108 23 17909274581083002729
15320467 1 17976263752791868969
16067690 210 17254313478564551196
16991981 162 17915445302446229039
16992727 255 18189356636218166940
17921350 177 18059584602563650676
21223535 225 18340490075591168796
21388113 180 18409173177700811129
21475661 188 18338802212645052039
21716022 299 14331167979902983663
21860390 5 17693935198802152439
325973 47 18194122906490769697
3298306 158 18341046307762207657
3388396 114 17765419229848020884
469060 322 15866306428020915202
46939830 39 17536896385560381660
508706 21 17980482587808238688
57527585 21 17908414002869950654
6608658 132 17838612610570240423
7288768 16 17823417278391420866
7970288 3 9404513270585590513

> <PUBCHEM_SHAPE_MULTIPOLES>
602.21
11.69
7.75
1.93
4.45
1.63
1.5
19.22
0.3
-0.08
-0.51
0.46
-2.38
-0.89

> <PUBCHEM_SHAPE_SELFOVERLAP>
1278.53

> <PUBCHEM_SHAPE_VOLUME>
337.1

> <PUBCHEM_COORDINATE_TYPE>
2
5
10

$$$$
