25338560
  -OEChem-12032416233D

 50 52  0     1  0  0  0  0  0999 V2000
   -2.5784    2.9804   -0.9154 O   0  0  0  0  0  0  0  0  0  0  0  0
    4.1132    1.1367   -1.2030 O   0  0  0  0  0  0  0  0  0  0  0  0
    4.6642   -1.2570   -0.1010 O   0  0  0  0  0  0  0  0  0  0  0  0
   -5.2282   -4.0973    0.2587 O   0  0  0  0  0  0  0  0  0  0  0  0
    6.1517   -4.4642    0.4961 O   0  0  0  0  0  0  0  0  0  0  0  0
    6.5211   -2.9447   -1.1599 O   0  0  0  0  0  0  0  0  0  0  0  0
    0.2336    3.4518    1.1552 N   0  0  1  0  0  0  0  0  0  0  0  0
    2.5177    1.6252    0.4169 N   0  0  0  0  0  0  0  0  0  0  0  0
   -1.5899    1.1693   -0.0439 N   0  0  0  0  0  0  0  0  0  0  0  0
   -3.5390    1.9614   -0.9425 N   0  0  0  0  0  0  0  0  0  0  0  0
    2.1425    2.9290   -0.0765 C   0  0  1  0  0  0  0  0  0  0  0  0
   -0.2608    3.3413   -0.2305 C   0  0  1  0  0  0  0  0  0  0  0  0
    0.9562    2.8471   -1.0371 C   0  0  0  0  0  0  0  0  0  0  0  0
    1.6474    3.8254    1.0484 C   0  0  0  0  0  0  0  0  0  0  0  0
   -1.4612    2.4301   -0.3722 C   0  0  0  0  0  0  0  0  0  0  0  0
   -0.5217    4.4046    1.9598 C   0  0  0  0  0  0  0  0  0  0  0  0
    3.4791    0.8359   -0.1953 C   0  0  0  0  0  0  0  0  0  0  0  0
   -2.8810    0.9261   -0.4125 C   0  0  0  0  0  0  0  0  0  0  0  0
    3.6723   -0.4773    0.5326 C   0  0  0  0  0  0  0  0  0  0  0  0
   -3.4835   -0.3640   -0.2388 C   0  0  0  0  0  0  0  0  0  0  0  0
   -2.7471   -1.4091    0.3192 C   0  0  0  0  0  0  0  0  0  0  0  0
   -4.8061   -0.5736   -0.6294 C   0  0  0  0  0  0  0  0  0  0  0  0
    4.8674   -2.5005    0.5638 C   0  0  0  0  0  0  0  0  0  0  0  0
   -3.3332   -2.6637    0.4863 C   0  0  0  0  0  0  0  0  0  0  0  0
   -5.3921   -1.8283   -0.4624 C   0  0  0  0  0  0  0  0  0  0  0  0
   -4.6556   -2.8733    0.0956 C   0  0  0  0  0  0  0  0  0  0  0  0
    5.9301   -3.2907   -0.1480 C   0  0  0  0  0  0  0  0  0  0  0  0
   -4.4186   -5.1208    0.8358 C   0  0  0  0  0  0  0  0  0  0  0  0
    3.0125    3.3707   -0.5752 H   0  0  0  0  0  0  0  0  0  0  0  0
   -0.5287    4.3366   -0.6138 H   0  0  0  0  0  0  0  0  0  0  0  0
    0.8262    1.8390   -1.4476 H   0  0  0  0  0  0  0  0  0  0  0  0
    1.1223    3.5276   -1.8819 H   0  0  0  0  0  0  0  0  0  0  0  0
    2.1842    3.6611    1.9888 H   0  0  0  0  0  0  0  0  0  0  0  0
    1.7561    4.8788    0.7589 H   0  0  0  0  0  0  0  0  0  0  0  0
    2.0115    1.2530    1.2158 H   0  0  0  0  0  0  0  0  0  0  0  0
   -1.5678    4.0929    2.0488 H   0  0  0  0  0  0  0  0  0  0  0  0
   -0.4991    5.4163    1.5392 H   0  0  0  0  0  0  0  0  0  0  0  0
   -0.1172    4.4476    2.9769 H   0  0  0  0  0  0  0  0  0  0  0  0
    3.9701   -0.2609    1.5653 H   0  0  0  0  0  0  0  0  0  0  0  0
    2.7175   -1.0161    0.5335 H   0  0  0  0  0  0  0  0  0  0  0  0
   -1.7146   -1.2761    0.6330 H   0  0  0  0  0  0  0  0  0  0  0  0
   -5.4110    0.2162   -1.0678 H   0  0  0  0  0  0  0  0  0  0  0  0
    5.1984   -2.3146    1.5911 H   0  0  0  0  0  0  0  0  0  0  0  0
    3.9367   -3.0776    0.5534 H   0  0  0  0  0  0  0  0  0  0  0  0
   -2.7047   -3.4308    0.9258 H   0  0  0  0  0  0  0  0  0  0  0  0
   -6.4227   -1.9862   -0.7684 H   0  0  0  0  0  0  0  0  0  0  0  0
   -5.0326   -6.0256    0.8914 H   0  0  0  0  0  0  0  0  0  0  0  0
   -4.1241   -4.8710    1.8607 H   0  0  0  0  0  0  0  0  0  0  0  0
   -3.5570   -5.3575    0.2022 H   0  0  0  0  0  0  0  0  0  0  0  0
    6.8424   -5.0008    0.0520 H   0  0  0  0  0  0  0  0  0  0  0  0
  1 10  1  0  0  0  0
  1 15  1  0  0  0  0
  2 17  2  0  0  0  0
  3 19  1  0  0  0  0
  3 23  1  0  0  0  0
  4 26  1  0  0  0  0
  4 28  1  0  0  0  0
  5 27  1  0  0  0  0
  5 50  1  0  0  0  0
  6 27  2  0  0  0  0
  7 12  1  0  0  0  0
  7 14  1  0  0  0  0
  7 16  1  0  0  0  0
  8 11  1  0  0  0  0
  8 17  1  0  0  0  0
  8 35  1  0  0  0  0
  9 15  2  0  0  0  0
  9 18  1  0  0  0  0
 10 18  2  0  0  0  0
 11 13  1  0  0  0  0
 11 14  1  0  0  0  0
 11 29  1  0  0  0  0
 12 13  1  0  0  0  0
 12 15  1  0  0  0  0
 12 30  1  0  0  0  0
 13 31  1  0  0  0  0
 13 32  1  0  0  0  0
 14 33  1  0  0  0  0
 14 34  1  0  0  0  0
 16 36  1  0  0  0  0
 16 37  1  0  0  0  0
 16 38  1  0  0  0  0
 17 19  1  0  0  0  0
 18 20  1  0  0  0  0
 19 39  1  0  0  0  0
 19 40  1  0  0  0  0
 20 21  2  0  0  0  0
 20 22  1  0  0  0  0
 21 24  1  0  0  0  0
 21 41  1  0  0  0  0
 22 25  2  0  0  0  0
 22 42  1  0  0  0  0
 23 27  1  0  0  0  0
 23 43  1  0  0  0  0
 23 44  1  0  0  0  0
 24 26  2  0  0  0  0
 24 45  1  0  0  0  0
 25 26  1  0  0  0  0
 25 46  1  0  0  0  0
 28 47  1  0  0  0  0
 28 48  1  0  0  0  0
 28 49  1  0  0  0  0
M  END
> <PUBCHEM_COMPOUND_CID>
25338560

> <PUBCHEM_CONFORMER_RMSD>
1

> <PUBCHEM_CONFORMER_DIVERSEORDER>
1
27
10
18
6
3
21
29
22
12
13
26
15
20
19
5
14
23
7
25
24
2
28
9
16
4
8
17
11

> <PUBCHEM_MMFF94_PARTIAL_CHARGES>
33
1 -0.02
10 -0.41
11 0.3
12 0.45
14 0.27
15 0.3
16 0.27
17 0.57
18 0.46
19 0.34
2 -0.57
20 0.05
21 -0.15
22 -0.15
23 0.34
24 -0.15
25 -0.15
26 0.08
27 0.66
28 0.28
3 -0.56
35 0.37
4 -0.36
41 0.15
42 0.15
45 0.15
46 0.15
5 -0.65
50 0.5
6 -0.57
7 -0.81
8 -0.73
9 -0.57

> <PUBCHEM_EFFECTIVE_ROTOR_COUNT>
10

> <PUBCHEM_PHARMACOPHORE_FEATURES>
12
1 2 acceptor
1 3 acceptor
1 4 acceptor
1 5 acceptor
1 6 acceptor
1 7 cation
1 8 donor
3 5 6 27 anion
3 9 10 18 cation
5 1 9 10 15 18 rings
5 7 11 12 13 14 rings
6 20 21 22 24 25 26 rings

> <PUBCHEM_HEAVY_ATOM_COUNT>
28

> <PUBCHEM_ATOM_DEF_STEREO_COUNT>
2

> <PUBCHEM_ATOM_UDEF_STEREO_COUNT>
0

> <PUBCHEM_BOND_DEF_STEREO_COUNT>
0

> <PUBCHEM_BOND_UDEF_STEREO_COUNT>
0

> <PUBCHEM_ISOTOPIC_ATOM_COUNT>
0

> <PUBCHEM_COMPONENT_COUNT>
1

> <PUBCHEM_CACTVS_TAUTO_COUNT>
2

> <PUBCHEM_CONFORMER_ID>
0182A2C000000001

> <PUBCHEM_MMFF94_ENERGY>
59.4192

> <PUBCHEM_FEATURE_SELFOVERLAP>
60.966

> <PUBCHEM_SHAPE_FINGERPRINT>
10571361 74 17613428949122469202
10838868 158 18125459518144294526
10838868 229 18118974822429537507
10928967 22 18125450953577598855
11197282 1 18409165545195720902
11285246 1 17967817141136561882
11374522 301 17465407573541544306
114674 6 17905322180040337136
117089 54 18411423916446909078
12107183 9 18271260369567472177
13150687 139 16741437526993947924
13533116 47 17695636534553988265
13631057 29 18410864282899102932
13911852 28 18339640169923940711
14863182 85 17687182410343029724
14866123 147 18268995293888613633
15569901 51 15168831763797096374
15728490 83 18337117743604185034
17492 89 18409445920744810198
17859628 70 18051692440737389377
17909252 39 18266459991330010568
19301676 85 18409439311476912079
19319366 153 18051415368793254340
20609170 109 13467822842500675479
20775530 9 18334571300717774712
21057603 40 17184763922464481059
21196832 93 18410579453652946622
21307412 95 18266166237105214869
23379529 103 18409728431072337640
23466295 7 18339364041701842408
23559900 14 18336817689173438269
2835820 82 18122624114238352095
32027 91 18411408532142469317
325973 47 18408887351743206330
3383291 50 18123187909914319137
345986 75 17631184163329135529
404807 14 18410579504981648651
437795 163 18335424574188079814
4435113 14 17126212261558448654
4461854 278 16751290301986059298
484985 159 18124035632952293713
6441014 3 18410854343675269586
6700243 42 17024850775458188527
7970288 3 18410291398142629982
88748 71 18409167735739525909
9831232 110 17757552229116910623
9980921 52 17700675527562397783

> <PUBCHEM_SHAPE_MULTIPOLES>
521.09
14.54
8.05
1.11
7.89
3.29
-0.21
26.57
1.61
3.16
-2.42
0.23
-0.87
1.72

> <PUBCHEM_SHAPE_SELFOVERLAP>
1098.305

> <PUBCHEM_SHAPE_VOLUME>
294.8

> <PUBCHEM_COORDINATE_TYPE>
2
5
10

$$$$
