38028426
  -OEChem-12032416253D

 68 70  0     1  0  0  0  0  0999 V2000
    3.8917   -1.3129    1.0479 S   0  0  0  0  0  0  0  0  0  0  0  0
   -2.5403    3.1712    0.6805 O   0  0  0  0  0  0  0  0  0  0  0  0
    4.0960   -1.3234    2.4838 O   0  0  0  0  0  0  0  0  0  0  0  0
    4.9183   -1.8263    0.1613 O   0  0  0  0  0  0  0  0  0  0  0  0
    3.4622    0.2598    0.5528 N   0  0  0  0  0  0  0  0  0  0  0  0
   -2.3197    1.1750    1.8498 N   0  0  0  0  0  0  0  0  0  0  0  0
   -4.0857   -1.9755   -0.4920 N   0  0  0  0  0  0  0  0  0  0  0  0
    1.2298    1.0869   -1.2670 C   0  0  1  0  0  0  0  0  0  0  0  0
    2.6415    1.7236   -1.2284 C   0  0  1  0  0  0  0  0  0  0  0  0
    0.1486    2.1780   -1.2397 C   0  0  0  0  0  0  0  0  0  0  0  0
    0.2491    3.0666    0.0145 C   0  0  2  0  0  0  0  0  0  0  0  0
    1.0397    0.1991   -2.5008 C   0  0  0  0  0  0  0  0  0  0  0  0
    1.6724    3.5179    0.2722 C   0  0  0  0  0  0  0  0  0  0  0  0
    2.7280    2.9142   -0.3025 C   0  0  0  0  0  0  0  0  0  0  0  0
    3.7034    0.6911   -0.8330 C   0  0  0  0  0  0  0  0  0  0  0  0
   -0.3324    2.3570    1.2423 C   0  0  0  0  0  0  0  0  0  0  0  0
    1.1813    1.0236   -3.7762 C   0  0  0  0  0  0  0  0  0  0  0  0
   -0.3178   -0.4949   -2.4530 C   0  0  0  0  0  0  0  0  0  0  0  0
    1.8527    4.7094    1.1711 C   0  0  0  0  0  0  0  0  0  0  0  0
   -1.8433    2.3092    1.2088 C   0  0  0  0  0  0  0  0  0  0  0  0
    2.4120   -2.2156    0.7014 C   0  0  0  0  0  0  0  0  0  0  0  0
   -3.7267    0.8701    1.9724 C   0  0  0  0  0  0  0  0  0  0  0  0
    2.2348   -2.8109   -0.5477 C   0  0  0  0  0  0  0  0  0  0  0  0
    1.4204   -2.3304    1.6757 C   0  0  0  0  0  0  0  0  0  0  0  0
   -4.2272    0.0521    0.8171 C   0  0  0  0  0  0  0  0  0  0  0  0
    1.0662   -3.5209   -0.8223 C   0  0  0  0  0  0  0  0  0  0  0  0
    0.2516   -3.0405    1.4010 C   0  0  0  0  0  0  0  0  0  0  0  0
    0.0746   -3.6359    0.1521 C   0  0  0  0  0  0  0  0  0  0  0  0
   -5.2498    0.5181   -0.0016 C   0  0  0  0  0  0  0  0  0  0  0  0
   -3.6833   -1.1901    0.5321 C   0  0  0  0  0  0  0  0  0  0  0  0
   -1.1750   -4.3952   -0.1417 C   0  0  0  0  0  0  0  0  0  0  0  0
   -5.6913   -0.2613   -1.0652 C   0  0  0  0  0  0  0  0  0  0  0  0
   -5.0818   -1.4894   -1.2660 C   0  0  0  0  0  0  0  0  0  0  0  0
    1.0906    0.4550   -0.3821 H   0  0  0  0  0  0  0  0  0  0  0  0
    2.9250    2.1204   -2.2063 H   0  0  0  0  0  0  0  0  0  0  0  0
   -0.8604    1.7592   -1.2945 H   0  0  0  0  0  0  0  0  0  0  0  0
    0.2551    2.8464   -2.1023 H   0  0  0  0  0  0  0  0  0  0  0  0
   -0.3429    3.9682   -0.1952 H   0  0  0  0  0  0  0  0  0  0  0  0
    1.8042   -0.5841   -2.5139 H   0  0  0  0  0  0  0  0  0  0  0  0
    3.7247    3.3103   -0.1173 H   0  0  0  0  0  0  0  0  0  0  0  0
    4.7042    1.1368   -0.8813 H   0  0  0  0  0  0  0  0  0  0  0  0
    3.6940   -0.1591   -1.5194 H   0  0  0  0  0  0  0  0  0  0  0  0
   -0.0808    2.8952    2.1642 H   0  0  0  0  0  0  0  0  0  0  0  0
    0.0856    1.3504    1.3509 H   0  0  0  0  0  0  0  0  0  0  0  0
    0.4294    1.8100   -3.8796 H   0  0  0  0  0  0  0  0  0  0  0  0
    1.0346    0.3623   -4.6403 H   0  0  0  0  0  0  0  0  0  0  0  0
    2.1732    1.4572   -3.9138 H   0  0  0  0  0  0  0  0  0  0  0  0
   -1.1443    0.1736   -2.7137 H   0  0  0  0  0  0  0  0  0  0  0  0
   -0.5193   -0.9247   -1.4670 H   0  0  0  0  0  0  0  0  0  0  0  0
   -0.3414   -1.3153   -3.1796 H   0  0  0  0  0  0  0  0  0  0  0  0
    1.2673    5.5571    0.8004 H   0  0  0  0  0  0  0  0  0  0  0  0
    2.8985    5.0316    1.2215 H   0  0  0  0  0  0  0  0  0  0  0  0
    1.5310    4.4834    2.1917 H   0  0  0  0  0  0  0  0  0  0  0  0
    3.4360    0.9953    1.2692 H   0  0  0  0  0  0  0  0  0  0  0  0
   -1.6624    0.5144    2.2541 H   0  0  0  0  0  0  0  0  0  0  0  0
   -4.2853    1.8089    2.0607 H   0  0  0  0  0  0  0  0  0  0  0  0
   -3.8676    0.3128    2.9051 H   0  0  0  0  0  0  0  0  0  0  0  0
    2.9906   -2.7294   -1.3235 H   0  0  0  0  0  0  0  0  0  0  0  0
    1.5350   -1.8675    2.6517 H   0  0  0  0  0  0  0  0  0  0  0  0
    0.9366   -3.9790   -1.7993 H   0  0  0  0  0  0  0  0  0  0  0  0
   -0.5133   -3.1194    2.1690 H   0  0  0  0  0  0  0  0  0  0  0  0
   -5.7100    1.4859    0.1771 H   0  0  0  0  0  0  0  0  0  0  0  0
   -2.8848   -1.6101    1.1358 H   0  0  0  0  0  0  0  0  0  0  0  0
   -0.9511   -5.4608   -0.2547 H   0  0  0  0  0  0  0  0  0  0  0  0
   -1.9146   -4.2889    0.6589 H   0  0  0  0  0  0  0  0  0  0  0  0
   -1.6361   -4.0274   -1.0644 H   0  0  0  0  0  0  0  0  0  0  0  0
   -6.4866    0.0818   -1.7167 H   0  0  0  0  0  0  0  0  0  0  0  0
   -5.3892   -2.1350   -2.0821 H   0  0  0  0  0  0  0  0  0  0  0  0
  1  3  2  0  0  0  0
  1  4  2  0  0  0  0
  1  5  1  0  0  0  0
  1 21  1  0  0  0  0
  2 20  2  0  0  0  0
  5 15  1  0  0  0  0
  5 54  1  0  0  0  0
  6 20  1  0  0  0  0
  6 22  1  0  0  0  0
  6 55  1  0  0  0  0
  7 30  1  0  0  0  0
  7 33  2  0  0  0  0
  8  9  1  0  0  0  0
  8 10  1  0  0  0  0
  8 12  1  0  0  0  0
  8 34  1  0  0  0  0
  9 14  1  0  0  0  0
  9 15  1  0  0  0  0
  9 35  1  0  0  0  0
 10 11  1  0  0  0  0
 10 36  1  0  0  0  0
 10 37  1  0  0  0  0
 11 13  1  0  0  0  0
 11 16  1  0  0  0  0
 11 38  1  0  0  0  0
 12 17  1  0  0  0  0
 12 18  1  0  0  0  0
 12 39  1  0  0  0  0
 13 14  2  0  0  0  0
 13 19  1  0  0  0  0
 14 40  1  0  0  0  0
 15 41  1  0  0  0  0
 15 42  1  0  0  0  0
 16 20  1  0  0  0  0
 16 43  1  0  0  0  0
 16 44  1  0  0  0  0
 17 45  1  0  0  0  0
 17 46  1  0  0  0  0
 17 47  1  0  0  0  0
 18 48  1  0  0  0  0
 18 49  1  0  0  0  0
 18 50  1  0  0  0  0
 19 51  1  0  0  0  0
 19 52  1  0  0  0  0
 19 53  1  0  0  0  0
 21 23  2  0  0  0  0
 21 24  1  0  0  0  0
 22 25  1  0  0  0  0
 22 56  1  0  0  0  0
 22 57  1  0  0  0  0
 23 26  1  0  0  0  0
 23 58  1  0  0  0  0
 24 27  2  0  0  0  0
 24 59  1  0  0  0  0
 25 29  1  0  0  0  0
 25 30  2  0  0  0  0
 26 28  2  0  0  0  0
 26 60  1  0  0  0  0
 27 28  1  0  0  0  0
 27 61  1  0  0  0  0
 28 31  1  0  0  0  0
 29 32  2  0  0  0  0
 29 62  1  0  0  0  0
 30 63  1  0  0  0  0
 31 64  1  0  0  0  0
 31 65  1  0  0  0  0
 31 66  1  0  0  0  0
 32 33  1  0  0  0  0
 32 67  1  0  0  0  0
 33 68  1  0  0  0  0
M  END
> <PUBCHEM_COMPOUND_CID>
38028426

> <PUBCHEM_CONFORMER_RMSD>
1.4

> <PUBCHEM_CONFORMER_DIVERSEORDER>
2
54
60
79
69
30
27
91
39
76
19
53
114
5
102
41
37
118
107
75
66
25
38
48
82
127
87
96
22
71
62
77
52
6
70
57
15
3
10
121
122
117
11
109
56
106
64
103
86
124
40
104
26
50
31
63
68
61
43
113
115
55
108
16
78
100
23
45
47
92
85
112
49
74
12
123
42
33
20
21
125
99
44
24
93
126
67
89
105
9
119
17
110
72
59
35
120
46
95
116
14
101
8
97
65
58
18
98
4
94
36
84
29
51
73
28
32
88
90
111
1
13
34
7
81
80
83

> <PUBCHEM_MMFF94_PARTIAL_CHARGES>
39
1 1.45
11 0.14
13 -0.28
14 -0.29
15 0.36
16 0.06
19 0.14
2 -0.57
20 0.57
21 -0.01
22 0.44
23 -0.15
24 -0.15
25 -0.14
26 -0.15
27 -0.15
28 -0.14
29 -0.15
3 -0.65
30 0.16
31 0.14
32 -0.15
33 0.16
4 -0.65
40 0.15
5 -0.91
54 0.42
55 0.37
58 0.15
59 0.15
6 -0.73
60 0.15
61 0.15
62 0.15
63 0.15
67 0.15
68 0.15
7 -0.62
9 0.14

> <PUBCHEM_EFFECTIVE_ROTOR_COUNT>
10.8

> <PUBCHEM_PHARMACOPHORE_FEATURES>
10
1 2 acceptor
1 3 acceptor
1 4 acceptor
1 5 donor
1 6 donor
1 7 acceptor
3 12 17 18 hydrophobe
6 21 23 24 26 27 28 rings
6 7 25 29 30 32 33 rings
6 8 9 10 11 13 14 rings

> <PUBCHEM_HEAVY_ATOM_COUNT>
33

> <PUBCHEM_ATOM_DEF_STEREO_COUNT>
3

> <PUBCHEM_ATOM_UDEF_STEREO_COUNT>
0

> <PUBCHEM_BOND_DEF_STEREO_COUNT>
0

> <PUBCHEM_BOND_UDEF_STEREO_COUNT>
0

> <PUBCHEM_ISOTOPIC_ATOM_COUNT>
0

> <PUBCHEM_COMPONENT_COUNT>
1

> <PUBCHEM_CACTVS_TAUTO_COUNT>
2

> <PUBCHEM_CONFORMER_ID>
0244448A00000002

> <PUBCHEM_MMFF94_ENERGY>
60.0321

> <PUBCHEM_FEATURE_SELFOVERLAP>
50.765

> <PUBCHEM_SHAPE_FINGERPRINT>
10675989 125 16967449873081471055
1100329 8 18337665433907821538
11513181 2 18198637527151707126
11828532 37 15956664508440645003
13642711 20 15031699247666880743
14117953 113 18266734684616780935
14725015 67 16540726145876213259
15001296 14 18336823203842816139
19026451 147 18343295994678959847
20764821 26 18049168773730331499
21315764 371 18060697269153722818
21421861 104 18267607744241633449
3493558 16 18196360644544364450
35225 105 17250654278228986591
46194498 28 15503809474656982841
463206 1 18337401460991147937
469060 322 17767639998412313354
6287921 2 18126574418101360267
6669772 16 17909543196926966825
9896288 288 17840021837576643760

> <PUBCHEM_SHAPE_MULTIPOLES>
650.42
9.03
5.92
2.48
10.94
0.34
-1.56
1.52
0.78
-3.09
1.78
-0.69
-0.43
-1.85

> <PUBCHEM_SHAPE_SELFOVERLAP>
1343.658

> <PUBCHEM_SHAPE_VOLUME>
374.4

> <PUBCHEM_COORDINATE_TYPE>
2
5
10

$$$$
