11883399
  -OEChem-12032416343D

 58 61  0     1  0  0  0  0  0999 V2000
    8.7096   -2.1464    0.5042 F   0  0  0  0  0  0  0  0  0  0  0  0
    8.3557   -0.2339    1.4640 F   0  0  0  0  0  0  0  0  0  0  0  0
    7.3016   -2.0057    2.1555 F   0  0  0  0  0  0  0  0  0  0  0  0
   -0.9834    1.0136    1.0139 O   0  0  0  0  0  0  0  0  0  0  0  0
   -1.6228    3.7240   -0.2701 O   0  0  0  0  0  0  0  0  0  0  0  0
    1.4469    1.8981    0.0053 O   0  0  0  0  0  0  0  0  0  0  0  0
   -5.7485    1.3043    1.3922 O   0  0  0  0  0  0  0  0  0  0  0  0
    2.0210    0.8014   -1.9176 O   0  0  0  0  0  0  0  0  0  0  0  0
   -3.9392    0.8942   -0.0018 N   0  0  0  0  0  0  0  0  0  0  0  0
   -5.8115   -0.4352   -0.1444 N   0  0  0  0  0  0  0  0  0  0  0  0
    3.3899    0.7531   -0.0193 N   0  0  0  0  0  0  0  0  0  0  0  0
   -2.0988    2.3930   -0.5598 C   0  0  1  0  0  0  0  0  0  0  0  0
   -0.9279    1.4532   -0.3535 C   0  0  1  0  0  0  0  0  0  0  0  0
   -3.0993    1.9605    0.4865 C   0  0  2  0  0  0  0  0  0  0  0  0
    0.2595    2.3512   -0.6047 C   0  0  1  0  0  0  0  0  0  0  0  0
   -2.2003    1.4836    1.6142 C   0  0  0  0  0  0  0  0  0  0  0  0
   -0.2091    3.6686   -0.0292 C   0  0  0  0  0  0  0  0  0  0  0  0
   -7.1387   -0.9129    0.1744 C   0  0  0  0  0  0  0  0  0  0  0  0
   -7.8319   -1.4829   -1.0676 C   0  0  0  0  0  0  0  0  0  0  0  0
   -7.0961   -1.9426    1.3085 C   0  0  0  0  0  0  0  0  0  0  0  0
   -7.2355   -2.8196   -1.5087 C   0  0  0  0  0  0  0  0  0  0  0  0
   -6.5009   -3.2785    0.8635 C   0  0  0  0  0  0  0  0  0  0  0  0
   -5.2170    0.6477    0.4977 C   0  0  0  0  0  0  0  0  0  0  0  0
   -7.2142   -3.8309   -0.3666 C   0  0  0  0  0  0  0  0  0  0  0  0
    2.2795    1.1082   -0.7603 C   0  0  0  0  0  0  0  0  0  0  0  0
    4.4849   -0.0457   -0.4204 C   0  0  0  0  0  0  0  0  0  0  0  0
    5.5268   -0.3010    0.4712 C   0  0  0  0  0  0  0  0  0  0  0  0
    4.5233   -0.5788   -1.7088 C   0  0  0  0  0  0  0  0  0  0  0  0
    6.6070   -1.0892    0.0743 C   0  0  0  0  0  0  0  0  0  0  0  0
    5.6034   -1.3671   -2.1057 C   0  0  0  0  0  0  0  0  0  0  0  0
    6.6452   -1.6223   -1.2141 C   0  0  0  0  0  0  0  0  0  0  0  0
    7.7210   -1.3619    1.0273 C   0  0  0  0  0  0  0  0  0  0  0  0
   -2.4812    2.3925   -1.5854 H   0  0  0  0  0  0  0  0  0  0  0  0
   -0.9492    0.5638   -0.9898 H   0  0  0  0  0  0  0  0  0  0  0  0
   -3.7377    2.7812    0.8311 H   0  0  0  0  0  0  0  0  0  0  0  0
    0.3853    2.4953   -1.6868 H   0  0  0  0  0  0  0  0  0  0  0  0
   -2.6356    0.6844    2.2217 H   0  0  0  0  0  0  0  0  0  0  0  0
   -1.9325    2.3132    2.2779 H   0  0  0  0  0  0  0  0  0  0  0  0
   -0.0310    3.7384    1.0497 H   0  0  0  0  0  0  0  0  0  0  0  0
    0.2779    4.5265   -0.5025 H   0  0  0  0  0  0  0  0  0  0  0  0
   -3.5627    0.2545   -0.6951 H   0  0  0  0  0  0  0  0  0  0  0  0
   -7.7187   -0.0488    0.5219 H   0  0  0  0  0  0  0  0  0  0  0  0
   -8.8969   -1.6284   -0.8462 H   0  0  0  0  0  0  0  0  0  0  0  0
   -7.7746   -0.7682   -1.8974 H   0  0  0  0  0  0  0  0  0  0  0  0
   -6.5223   -1.5555    2.1590 H   0  0  0  0  0  0  0  0  0  0  0  0
   -8.1180   -2.1162    1.6695 H   0  0  0  0  0  0  0  0  0  0  0  0
   -6.2173   -2.6713   -1.8869 H   0  0  0  0  0  0  0  0  0  0  0  0
   -7.8228   -3.2227   -2.3418 H   0  0  0  0  0  0  0  0  0  0  0  0
   -6.5710   -4.0019    1.6838 H   0  0  0  0  0  0  0  0  0  0  0  0
   -5.4339   -3.1529    0.6426 H   0  0  0  0  0  0  0  0  0  0  0  0
   -8.2435   -4.1004   -0.0998 H   0  0  0  0  0  0  0  0  0  0  0  0
   -6.7197   -4.7510   -0.6978 H   0  0  0  0  0  0  0  0  0  0  0  0
   -5.2554   -0.9519   -0.8185 H   0  0  0  0  0  0  0  0  0  0  0  0
    3.4274    1.1084    0.9330 H   0  0  0  0  0  0  0  0  0  0  0  0
    5.5004    0.1130    1.4767 H   0  0  0  0  0  0  0  0  0  0  0  0
    3.7544   -0.4247   -2.4530 H   0  0  0  0  0  0  0  0  0  0  0  0
    5.6342   -1.7826   -3.1088 H   0  0  0  0  0  0  0  0  0  0  0  0
    7.4779   -2.2386   -1.5417 H   0  0  0  0  0  0  0  0  0  0  0  0
  1 32  1  0  0  0  0
  2 32  1  0  0  0  0
  3 32  1  0  0  0  0
  4 13  1  0  0  0  0
  4 16  1  0  0  0  0
  5 12  1  0  0  0  0
  5 17  1  0  0  0  0
  6 15  1  0  0  0  0
  6 25  1  0  0  0  0
  7 23  2  0  0  0  0
  8 25  2  0  0  0  0
  9 14  1  0  0  0  0
  9 23  1  0  0  0  0
  9 41  1  0  0  0  0
 10 18  1  0  0  0  0
 10 23  1  0  0  0  0
 10 53  1  0  0  0  0
 11 25  1  0  0  0  0
 11 26  1  0  0  0  0
 11 54  1  0  0  0  0
 12 13  1  0  0  0  0
 12 14  1  0  0  0  0
 12 33  1  0  0  0  0
 13 15  1  0  0  0  0
 13 34  1  0  0  0  0
 14 16  1  0  0  0  0
 14 35  1  0  0  0  0
 15 17  1  0  0  0  0
 15 36  1  0  0  0  0
 16 37  1  0  0  0  0
 16 38  1  0  0  0  0
 17 39  1  0  0  0  0
 17 40  1  0  0  0  0
 18 19  1  0  0  0  0
 18 20  1  0  0  0  0
 18 42  1  0  0  0  0
 19 21  1  0  0  0  0
 19 43  1  0  0  0  0
 19 44  1  0  0  0  0
 20 22  1  0  0  0  0
 20 45  1  0  0  0  0
 20 46  1  0  0  0  0
 21 24  1  0  0  0  0
 21 47  1  0  0  0  0
 21 48  1  0  0  0  0
 22 24  1  0  0  0  0
 22 49  1  0  0  0  0
 22 50  1  0  0  0  0
 24 51  1  0  0  0  0
 24 52  1  0  0  0  0
 26 27  1  0  0  0  0
 26 28  2  0  0  0  0
 27 29  2  0  0  0  0
 27 55  1  0  0  0  0
 28 30  1  0  0  0  0
 28 56  1  0  0  0  0
 29 31  1  0  0  0  0
 29 32  1  0  0  0  0
 30 31  2  0  0  0  0
 30 57  1  0  0  0  0
 31 58  1  0  0  0  0
M  END
> <PUBCHEM_COMPOUND_CID>
11883399

> <PUBCHEM_CONFORMER_RMSD>
1.2

> <PUBCHEM_CONFORMER_DIVERSEORDER>
1
109
2
123
49
138
91
45
77
117
130
71
97
95
101
122
76
64
102
43
25
44
143
46
30
86
149
62
82
152
17
41
93
119
108
105
136
107
137
116
61
141
126
106
36
153
57
73
129
148
27
112
131
70
103
139
11
125
31
52
104
28
78
9
111
5
60
51
140
63
147
110
87
150
81
92
40
99
23
98
19
89
35
133
94
74
12
22
79
121
115
20
47
146
151
83
38
54
16
34
18
144
120
124
142
69
67
96
15
10
58
128
127
80
39
26
100
90
114
113
118
65
132
134
14
33
68
55
135
48
24
145
7
84
85
29
53
32
42
3
50
72
6
37
13
88
75
4
66
56
8
21
59

> <PUBCHEM_MMFF94_PARTIAL_CHARGES>
34
1 -0.34
10 -0.73
11 -0.55
12 0.28
13 0.28
14 0.3
15 0.28
16 0.28
17 0.28
18 0.3
2 -0.34
23 0.69
25 0.78
26 0.12
27 -0.15
28 -0.15
29 -0.14
3 -0.34
30 -0.15
31 -0.15
32 1.16
4 -0.56
41 0.37
5 -0.56
53 0.37
54 0.37
55 0.15
56 0.15
57 0.15
58 0.15
6 -0.43
7 -0.57
8 -0.57
9 -0.73

> <PUBCHEM_EFFECTIVE_ROTOR_COUNT>
11.4

> <PUBCHEM_PHARMACOPHORE_FEATURES>
11
1 10 donor
1 11 donor
1 4 acceptor
1 5 acceptor
1 7 acceptor
1 8 acceptor
1 9 donor
5 4 12 13 14 16 rings
5 5 12 13 15 17 rings
6 18 19 20 21 22 24 rings
6 26 27 28 29 30 31 rings

> <PUBCHEM_HEAVY_ATOM_COUNT>
32

> <PUBCHEM_ATOM_DEF_STEREO_COUNT>
4

> <PUBCHEM_ATOM_UDEF_STEREO_COUNT>
0

> <PUBCHEM_BOND_DEF_STEREO_COUNT>
0

> <PUBCHEM_BOND_UDEF_STEREO_COUNT>
0

> <PUBCHEM_ISOTOPIC_ATOM_COUNT>
0

> <PUBCHEM_COMPONENT_COUNT>
1

> <PUBCHEM_CACTVS_TAUTO_COUNT>
6

> <PUBCHEM_CONFORMER_ID>
00B5538700000001

> <PUBCHEM_MMFF94_ENERGY>
64.9322

> <PUBCHEM_FEATURE_SELFOVERLAP>
56.59

> <PUBCHEM_SHAPE_FINGERPRINT>
10 15 14836401402428067280
10258705 36 17911808977651427174
10391435 84 18273214167090164247
11963148 33 18336829684669774470
12013929 112 17168128037464457279
12522641 68 17537989274629357781
12758862 65 18131074874134164074
1361 4 18122631819324180791
13782708 43 18343588438405902657
14068700 675 18259990348932761396
14359421 15 17822285795576239659
14904525 67 9438815285110941510
14919807 6 8286207193099237552
14951699 99 9511192828552425927
15145343 39 18197212770424964407
15183329 4 14634869729908043620
15188451 53 18260268512990346308
15519825 34 18272087193088271090
16126227 98 9727635007899582419
16990366 60 18337955700687485131
16992779 147 15840404065001228216
16994733 274 10015584982552599015
190975 80 18272088301596223000
19303781 99 18268987752036786135
19841028 212 18336548312766237561
20028762 73 18341619213033187294
2026 5 18336263527119529443
20691028 202 9655567496565942046
21424621 283 9079121046772873661
21585482 111 9727372216173781283
21585483 132 18337661040589450435
21987483 16 18267864067557075370
22002106 203 17916295216878250487
22149856 69 17631748079665872624
22864921 47 18334566907172602314
23389318 12 18186809106209717460
23528940 14 18262790767438577778
23569914 152 12758522308524139592
25025965 108 17969211236572560698
25242607 90 18342736355944486971
255183 313 17060616711576998863
2747138 104 17775292625428040068
32027 91 18267026249141186617
3383291 50 18341897415619760575
3525247 18 10660780588193784099
393628 194 10159692495870537299
3986486 107 12468354644297175714
406291 66 18409730698963230703
4173938 188 18341888603090012474
44802255 64 13045951205086834553
4516262 110 9583253708641398817
50009960 94 18271803592614608223
5718773 13 18410012152127046605
5874358 3 18336256920810604867
5937810 71 11674876676507673359
59682541 35 17989480828056202848
59682541 52 15068335714012181408
6201320 221 16806428233661485722
6289498 60 11671790338156637587
636775 72 8574131818222873710
6712543 237 16271658840780090543
96874 4 18186516592602735202
9689198 14 10231758911327847653
9962374 69 18260551139213386524

> <PUBCHEM_SHAPE_MULTIPOLES>
592.43
28.93
4.2
1.62
11.4
0.46
-0.02
-35.8
4.83
-6.19
-0.16
1.63
-0.75
-1.63

> <PUBCHEM_SHAPE_SELFOVERLAP>
1261.416

> <PUBCHEM_SHAPE_VOLUME>
329.7

> <PUBCHEM_COORDINATE_TYPE>
2
5
10

$$$$
