71693411
  -OEChem-12032416233D

 53 56  0     1  0  0  0  0  0999 V2000
    2.8815   -1.8269   -1.7070 O   0  0  0  0  0  0  0  0  0  0  0  0
    4.7793   -1.4985    2.5896 O   0  0  0  0  0  0  0  0  0  0  0  0
    5.2598    0.6320   -1.7797 O   0  0  0  0  0  0  0  0  0  0  0  0
   -3.3954    0.7771   -1.2873 O   0  0  0  0  0  0  0  0  0  0  0  0
   -7.0999   -0.6217    0.8131 O   0  0  0  0  0  0  0  0  0  0  0  0
    4.0217   -0.1144    0.0526 N   0  0  0  0  0  0  0  0  0  0  0  0
   -3.0429   -1.0158    0.1926 N   0  0  0  0  0  0  0  0  0  0  0  0
    2.0243    3.7366   -0.7442 N   0  0  0  0  0  0  0  0  0  0  0  0
   -5.7424   -0.9088    0.7384 N   0  0  0  0  0  0  0  0  0  0  0  0
    3.3626   -1.2644    0.6811 C   0  0  1  0  0  0  0  0  0  0  0  0
    2.5328   -2.0836   -0.3424 C   0  0  1  0  0  0  0  0  0  0  0  0
    4.3887   -2.1512    1.3991 C   0  0  0  0  0  0  0  0  0  0  0  0
    1.0495   -1.7989   -0.1998 C   0  0  0  0  0  0  0  0  0  0  0  0
    4.2047    1.0895    0.8493 C   0  0  0  0  0  0  0  0  0  0  0  0
    4.5696   -0.2196   -1.2234 C   0  0  0  0  0  0  0  0  0  0  0  0
    4.2496   -1.5315   -1.8990 C   0  0  0  0  0  0  0  0  0  0  0  0
    3.0860    2.0707    0.6496 C   0  0  0  0  0  0  0  0  0  0  0  0
    0.4607   -0.7754   -0.9424 C   0  0  0  0  0  0  0  0  0  0  0  0
    0.2742   -2.5614    0.6739 C   0  0  0  0  0  0  0  0  0  0  0  0
   -0.9032   -0.5144   -0.8114 C   0  0  0  0  0  0  0  0  0  0  0  0
   -1.0897   -2.3006    0.8049 C   0  0  0  0  0  0  0  0  0  0  0  0
   -1.6785   -1.2770    0.0622 C   0  0  0  0  0  0  0  0  0  0  0  0
    2.1007    2.2405    1.6158 C   0  0  0  0  0  0  0  0  0  0  0  0
    3.0031    2.8360   -0.5026 C   0  0  0  0  0  0  0  0  0  0  0  0
    1.0772    3.1575    1.4035 C   0  0  0  0  0  0  0  0  0  0  0  0
    1.0844    3.8743    0.2177 C   0  0  0  0  0  0  0  0  0  0  0  0
   -3.8006   -0.0380   -0.4654 C   0  0  0  0  0  0  0  0  0  0  0  0
   -5.2498   -0.0252   -0.1343 C   0  0  0  0  0  0  0  0  0  0  0  0
   -6.2397    0.8363   -0.6380 C   0  0  0  0  0  0  0  0  0  0  0  0
   -7.3839    0.4192   -0.0109 C   0  0  0  0  0  0  0  0  0  0  0  0
   -8.7843    0.8576   -0.0556 C   0  0  0  0  0  0  0  0  0  0  0  0
    2.6879   -0.8662    1.4516 H   0  0  0  0  0  0  0  0  0  0  0  0
    2.6792   -3.1601   -0.1874 H   0  0  0  0  0  0  0  0  0  0  0  0
    5.2783   -2.3385    0.7906 H   0  0  0  0  0  0  0  0  0  0  0  0
    3.9449   -3.1103    1.6849 H   0  0  0  0  0  0  0  0  0  0  0  0
    5.1467    1.5719    0.5596 H   0  0  0  0  0  0  0  0  0  0  0  0
    4.3113    0.8316    1.9075 H   0  0  0  0  0  0  0  0  0  0  0  0
    4.4231   -1.4254   -2.9742 H   0  0  0  0  0  0  0  0  0  0  0  0
    4.8889   -2.3360   -1.5235 H   0  0  0  0  0  0  0  0  0  0  0  0
    1.0458   -0.1570   -1.6177 H   0  0  0  0  0  0  0  0  0  0  0  0
    0.7222   -3.3596    1.2596 H   0  0  0  0  0  0  0  0  0  0  0  0
    5.4232   -2.0741    3.0362 H   0  0  0  0  0  0  0  0  0  0  0  0
   -1.2830    0.2967   -1.4163 H   0  0  0  0  0  0  0  0  0  0  0  0
   -1.6817   -2.9022    1.4899 H   0  0  0  0  0  0  0  0  0  0  0  0
    2.1180    1.6633    2.5361 H   0  0  0  0  0  0  0  0  0  0  0  0
    3.7433    2.7601   -1.2918 H   0  0  0  0  0  0  0  0  0  0  0  0
   -3.5413   -1.6168    0.8459 H   0  0  0  0  0  0  0  0  0  0  0  0
    0.2979    3.3056    2.1422 H   0  0  0  0  0  0  0  0  0  0  0  0
    0.3079    4.6012    0.0037 H   0  0  0  0  0  0  0  0  0  0  0  0
   -6.1411    1.6418   -1.3507 H   0  0  0  0  0  0  0  0  0  0  0  0
   -8.9135    1.6982   -0.7445 H   0  0  0  0  0  0  0  0  0  0  0  0
   -9.1192    1.1777    0.9359 H   0  0  0  0  0  0  0  0  0  0  0  0
   -9.4323    0.0420   -0.3910 H   0  0  0  0  0  0  0  0  0  0  0  0
  1 11  1  0  0  0  0
  1 16  1  0  0  0  0
  2 12  1  0  0  0  0
  2 42  1  0  0  0  0
  3 15  2  0  0  0  0
  4 27  2  0  0  0  0
  5  9  1  0  0  0  0
  5 30  1  0  0  0  0
  6 10  1  0  0  0  0
  6 14  1  0  0  0  0
  6 15  1  0  0  0  0
  7 22  1  0  0  0  0
  7 27  1  0  0  0  0
  7 47  1  0  0  0  0
  8 24  1  0  0  0  0
  8 26  2  0  0  0  0
  9 28  2  0  0  0  0
 10 11  1  0  0  0  0
 10 12  1  0  0  0  0
 10 32  1  0  0  0  0
 11 13  1  0  0  0  0
 11 33  1  0  0  0  0
 12 34  1  0  0  0  0
 12 35  1  0  0  0  0
 13 18  2  0  0  0  0
 13 19  1  0  0  0  0
 14 17  1  0  0  0  0
 14 36  1  0  0  0  0
 14 37  1  0  0  0  0
 15 16  1  0  0  0  0
 16 38  1  0  0  0  0
 16 39  1  0  0  0  0
 17 23  1  0  0  0  0
 17 24  2  0  0  0  0
 18 20  1  0  0  0  0
 18 40  1  0  0  0  0
 19 21  2  0  0  0  0
 19 41  1  0  0  0  0
 20 22  2  0  0  0  0
 20 43  1  0  0  0  0
 21 22  1  0  0  0  0
 21 44  1  0  0  0  0
 23 25  2  0  0  0  0
 23 45  1  0  0  0  0
 24 46  1  0  0  0  0
 25 26  1  0  0  0  0
 25 48  1  0  0  0  0
 26 49  1  0  0  0  0
 27 28  1  0  0  0  0
 28 29  1  0  0  0  0
 29 30  2  0  0  0  0
 29 50  1  0  0  0  0
 30 31  1  0  0  0  0
 31 51  1  0  0  0  0
 31 52  1  0  0  0  0
 31 53  1  0  0  0  0
M  END
> <PUBCHEM_COMPOUND_CID>
71693411

> <PUBCHEM_CONFORMER_RMSD>
1

> <PUBCHEM_CONFORMER_DIVERSEORDER>
1
40
10
35
20
77
68
51
66
17
75
22
74
79
71
37
49
42
28
54
4
45
32
43
34
56
41
76
64
3
57
27
47
16
55
44
53
73
24
38
80
36
7
67
19
61
13
60
65
25
5
50
78
33
46
31
72
39
2
63
23
11
30
14
59
70
18
52
62
21
15
69
29
48
8
58
26
12
9
6

> <PUBCHEM_MMFF94_PARTIAL_CHARGES>
42
1 -0.56
10 0.3
11 0.42
12 0.28
13 -0.14
14 0.44
15 0.57
16 0.34
17 -0.14
18 -0.15
19 -0.15
2 -0.68
20 -0.15
21 -0.15
22 0.12
23 -0.15
24 0.16
25 -0.15
26 0.16
27 0.72
28 0.2
29 -0.15
3 -0.57
30 -0.04
31 0.18
4 -0.57
40 0.15
41 0.15
42 0.4
43 0.15
44 0.15
45 0.15
46 0.15
47 0.37
48 0.15
49 0.15
5 -0.02
50 0.15
6 -0.66
7 -0.55
8 -0.62
9 -0.41

> <PUBCHEM_EFFECTIVE_ROTOR_COUNT>
8

> <PUBCHEM_PHARMACOPHORE_FEATURES>
12
1 1 acceptor
1 2 acceptor
1 2 donor
1 3 acceptor
1 4 acceptor
1 7 donor
1 8 acceptor
1 9 acceptor
5 5 9 28 29 30 rings
6 1 6 10 11 15 16 rings
6 13 18 19 20 21 22 rings
6 8 17 23 24 25 26 rings

> <PUBCHEM_HEAVY_ATOM_COUNT>
31

> <PUBCHEM_ATOM_DEF_STEREO_COUNT>
2

> <PUBCHEM_ATOM_UDEF_STEREO_COUNT>
0

> <PUBCHEM_BOND_DEF_STEREO_COUNT>
0

> <PUBCHEM_BOND_UDEF_STEREO_COUNT>
0

> <PUBCHEM_ISOTOPIC_ATOM_COUNT>
0

> <PUBCHEM_COMPONENT_COUNT>
1

> <PUBCHEM_CACTVS_TAUTO_COUNT>
4

> <PUBCHEM_CONFORMER_ID>
0445F46300000001

> <PUBCHEM_MMFF94_ENERGY>
80.2709

> <PUBCHEM_FEATURE_SELFOVERLAP>
60.901

> <PUBCHEM_SHAPE_FINGERPRINT>
10074138 170 15594660582888761747
10165383 225 17967820470443039246
10675989 125 18129380565112653905
11456790 92 18188207594489203601
11828042 279 17974549584974147423
1200032 147 16661505067789909852
12166972 35 17968098560510799158
12539745 222 17025415714329536082
12596602 18 14707206621795905765
13150687 139 10519126240663567930
13402501 40 18408882957769544812
13617811 41 14548741712415053385
13878862 14 18338498816761827093
13944108 23 18341054102785614336
14537116 161 18341900662577418677
14725015 67 18338507552308536744
15183329 4 18273500065994329961
15210252 30 18334585663663874028
15238133 3 18261107517882506898
15420108 30 17485058007588928552
15483637 11 18051130298734100993
15968369 153 17773579556374476713
19301679 30 17976529521690681994
20554085 129 17167857557424117275
21033648 29 18261393415810479667
21344244 78 18119227490437705570
21475661 188 18337388369651150418
21860390 5 18273214231335312956
221357 26 18272656709867307389
23559900 14 18130511915411498599
24893992 56 18335421292252920779
249057 3 17917715694714941766
3411729 13 18337388365667750744
397830 11 18263655120837114707
4066623 53 18198921210273890646
4760202 170 18341034244075299453
5109719 28 18411145762122834163
513532 50 17489313031320090204
53794403 172 18190747633505495853
57359948 33 12247690365989848091
5776283 40 18117293655885795508
60111433 81 17201620367314285993
6086070 43 18409735092171553642
70251023 43 17771638853879424846
8509985 295 18261663818815175386

> <PUBCHEM_SHAPE_MULTIPOLES>
588.69
17.07
3.83
1.59
44.32
3.7
-0.13
0.78
0.22
-4.91
-0.71
-2.53
-0.31
0.45

> <PUBCHEM_SHAPE_SELFOVERLAP>
1271.292

> <PUBCHEM_SHAPE_VOLUME>
319.6

> <PUBCHEM_COORDINATE_TYPE>
2
5
10

$$$$
