75536260
  -OEChem-12032416303D

 53 56  0     1  0  0  0  0  0999 V2000
   -6.4488   -0.7908    0.9067 F   0  0  0  0  0  0  0  0  0  0  0  0
    3.0849   -0.4911    0.8629 O   0  0  0  0  0  0  0  0  0  0  0  0
    5.8466   -0.0009    1.7688 O   0  0  0  0  0  0  0  0  0  0  0  0
   -0.8365   -2.3222   -1.4391 O   0  0  0  0  0  0  0  0  0  0  0  0
    1.6981    1.8766    0.0950 N   0  0  0  0  0  0  0  0  0  0  0  0
    0.5219   -2.5913   -1.5535 N   0  0  0  0  0  0  0  0  0  0  0  0
   -0.7497    4.1370    0.0069 N   0  0  0  0  0  0  0  0  0  0  0  0
    3.7645    0.7707    0.8298 C   0  0  1  0  0  0  0  0  0  0  0  0
    5.2703    0.5880    0.5999 C   0  0  2  0  0  0  0  0  0  0  0  0
    3.2799   -1.3173   -0.2874 C   0  0  1  0  0  0  0  0  0  0  0  0
    5.5708   -0.3312   -0.5809 C   0  0  0  0  0  0  0  0  0  0  0  0
    4.7637   -1.6228   -0.4861 C   0  0  0  0  0  0  0  0  0  0  0  0
    3.1179    1.7177   -0.1789 C   0  0  0  0  0  0  0  0  0  0  0  0
    2.4862   -2.5999   -0.0703 C   0  0  0  0  0  0  0  0  0  0  0  0
    1.0172   -2.3969   -0.3279 C   0  0  0  0  0  0  0  0  0  0  0  0
    1.0801    2.7879   -0.8596 C   0  0  0  0  0  0  0  0  0  0  0  0
    0.0282   -2.0078    0.5919 C   0  0  0  0  0  0  0  0  0  0  0  0
   -1.1184   -1.9758   -0.1569 C   0  0  0  0  0  0  0  0  0  0  0  0
   -0.3881    2.9767   -0.5850 C   0  0  0  0  0  0  0  0  0  0  0  0
   -2.4922   -1.6693    0.1171 C   0  0  0  0  0  0  0  0  0  0  0  0
   -1.2792    1.9779   -0.9432 C   0  0  0  0  0  0  0  0  0  0  0  0
   -2.8820   -1.3051    1.4061 C   0  0  0  0  0  0  0  0  0  0  0  0
   -3.4390   -1.7363   -0.9050 C   0  0  0  0  0  0  0  0  0  0  0  0
   -2.6284    2.1834   -0.6770 C   0  0  0  0  0  0  0  0  0  0  0  0
   -2.0695    4.3012    0.2500 C   0  0  0  0  0  0  0  0  0  0  0  0
   -3.0393    3.3647   -0.0694 C   0  0  0  0  0  0  0  0  0  0  0  0
   -4.2185   -1.0083    1.6728 C   0  0  0  0  0  0  0  0  0  0  0  0
   -4.7755   -1.4395   -0.6382 C   0  0  0  0  0  0  0  0  0  0  0  0
   -5.1652   -1.0755    0.6506 C   0  0  0  0  0  0  0  0  0  0  0  0
    3.6267    1.1950    1.8331 H   0  0  0  0  0  0  0  0  0  0  0  0
    5.7558    1.5603    0.4604 H   0  0  0  0  0  0  0  0  0  0  0  0
    2.8966   -0.8022   -1.1763 H   0  0  0  0  0  0  0  0  0  0  0  0
    4.9164   -2.2225   -1.3906 H   0  0  0  0  0  0  0  0  0  0  0  0
    5.1373   -2.2108    0.3619 H   0  0  0  0  0  0  0  0  0  0  0  0
    6.6379   -0.5805   -0.6132 H   0  0  0  0  0  0  0  0  0  0  0  0
    5.3279    0.1795   -1.5199 H   0  0  0  0  0  0  0  0  0  0  0  0
    3.2545    1.3512   -1.2020 H   0  0  0  0  0  0  0  0  0  0  0  0
    3.6187    2.6918   -0.1154 H   0  0  0  0  0  0  0  0  0  0  0  0
    2.6176   -2.9662    0.9559 H   0  0  0  0  0  0  0  0  0  0  0  0
    2.8446   -3.3894   -0.7435 H   0  0  0  0  0  0  0  0  0  0  0  0
    6.8060   -0.0649    1.6231 H   0  0  0  0  0  0  0  0  0  0  0  0
    1.2433    0.9648    0.0476 H   0  0  0  0  0  0  0  0  0  0  0  0
    1.2025    2.4220   -1.8872 H   0  0  0  0  0  0  0  0  0  0  0  0
    1.5713    3.7681   -0.8107 H   0  0  0  0  0  0  0  0  0  0  0  0
    0.1439   -1.7849    1.6425 H   0  0  0  0  0  0  0  0  0  0  0  0
   -0.9490    1.0624   -1.4222 H   0  0  0  0  0  0  0  0  0  0  0  0
   -2.1675   -1.2432    2.2227 H   0  0  0  0  0  0  0  0  0  0  0  0
   -3.1745   -2.0149   -1.9219 H   0  0  0  0  0  0  0  0  0  0  0  0
   -3.3604    1.4308   -0.9499 H   0  0  0  0  0  0  0  0  0  0  0  0
   -2.3381    5.2390    0.7250 H   0  0  0  0  0  0  0  0  0  0  0  0
   -4.5226   -0.7242    2.6759 H   0  0  0  0  0  0  0  0  0  0  0  0
   -5.5132   -1.4910   -1.4336 H   0  0  0  0  0  0  0  0  0  0  0  0
   -4.0859    3.5469    0.1458 H   0  0  0  0  0  0  0  0  0  0  0  0
  1 29  1  0  0  0  0
  2  8  1  0  0  0  0
  2 10  1  0  0  0  0
  3  9  1  0  0  0  0
  3 41  1  0  0  0  0
  4  6  1  0  0  0  0
  4 18  1  0  0  0  0
  5 13  1  0  0  0  0
  5 16  1  0  0  0  0
  5 42  1  0  0  0  0
  6 15  2  0  0  0  0
  7 19  1  0  0  0  0
  7 25  2  0  0  0  0
  8  9  1  0  0  0  0
  8 13  1  0  0  0  0
  8 30  1  0  0  0  0
  9 11  1  0  0  0  0
  9 31  1  0  0  0  0
 10 12  1  0  0  0  0
 10 14  1  0  0  0  0
 10 32  1  0  0  0  0
 11 12  1  0  0  0  0
 11 35  1  0  0  0  0
 11 36  1  0  0  0  0
 12 33  1  0  0  0  0
 12 34  1  0  0  0  0
 13 37  1  0  0  0  0
 13 38  1  0  0  0  0
 14 15  1  0  0  0  0
 14 39  1  0  0  0  0
 14 40  1  0  0  0  0
 15 17  1  0  0  0  0
 16 19  1  0  0  0  0
 16 43  1  0  0  0  0
 16 44  1  0  0  0  0
 17 18  2  0  0  0  0
 17 45  1  0  0  0  0
 18 20  1  0  0  0  0
 19 21  2  0  0  0  0
 20 22  2  0  0  0  0
 20 23  1  0  0  0  0
 21 24  1  0  0  0  0
 21 46  1  0  0  0  0
 22 27  1  0  0  0  0
 22 47  1  0  0  0  0
 23 28  2  0  0  0  0
 23 48  1  0  0  0  0
 24 26  2  0  0  0  0
 24 49  1  0  0  0  0
 25 26  1  0  0  0  0
 25 50  1  0  0  0  0
 26 53  1  0  0  0  0
 27 29  2  0  0  0  0
 27 51  1  0  0  0  0
 28 29  1  0  0  0  0
 28 52  1  0  0  0  0
M  END
> <PUBCHEM_COMPOUND_CID>
75536260

> <PUBCHEM_CONFORMER_RMSD>
1

> <PUBCHEM_CONFORMER_DIVERSEORDER>
1
173
167
108
35
131
34
56
66
86
77
78
76
45
91
122
58
57
8
81
162
123
83
174
44
183
159
113
137
118
186
60
179
120
110
104
171
124
43
28
182
144
141
63
82
55
107
127
185
189
128
9
175
98
71
68
115
50
140
84
125
133
31
188
101
73
61
85
25
178
190
17
26
79
54
102
87
5
65
117
105
64
169
132
67
51
30
46
116
22
143
48
47
176
138
121
126
157
151
94
152
147
33
119
23
148
168
129
99
41
69
155
38
42
70
92
95
139
136
4
18
130
3
164
80
172
180
96
106
74
135
37
177
166
181
165
27
52
160
146
184
145
150
24
29
112
62
142
161
156
39
134
187
40
13
89
7
170
154
97
36
10
111
158
15
21
88
103
114
12
49
109
72
32
100
153
19
59
14
93
2
53
20
75
149
90
6
16
163
11

> <PUBCHEM_MMFF94_PARTIAL_CHARGES>
38
1 -0.19
10 0.28
13 0.27
14 0.18
15 0.11
16 0.41
17 -0.15
18 0.09
19 0.17
2 -0.56
20 0.05
21 -0.15
22 -0.15
23 -0.15
24 -0.15
25 0.16
26 -0.15
27 -0.15
28 -0.15
29 0.19
3 -0.68
4 -0.02
41 0.4
42 0.36
45 0.15
46 0.15
47 0.15
48 0.15
49 0.15
5 -0.9
50 0.15
51 0.15
52 0.15
53 0.15
6 -0.41
7 -0.62
8 0.28
9 0.28

> <PUBCHEM_EFFECTIVE_ROTOR_COUNT>
8.2

> <PUBCHEM_PHARMACOPHORE_FEATURES>
11
1 2 acceptor
1 3 acceptor
1 3 donor
1 5 cation
1 5 donor
1 6 acceptor
1 7 acceptor
5 4 6 15 17 18 rings
6 2 8 9 10 11 12 rings
6 20 22 23 27 28 29 rings
6 7 19 21 24 25 26 rings

> <PUBCHEM_HEAVY_ATOM_COUNT>
29

> <PUBCHEM_ATOM_DEF_STEREO_COUNT>
3

> <PUBCHEM_ATOM_UDEF_STEREO_COUNT>
0

> <PUBCHEM_BOND_DEF_STEREO_COUNT>
0

> <PUBCHEM_BOND_UDEF_STEREO_COUNT>
0

> <PUBCHEM_ISOTOPIC_ATOM_COUNT>
0

> <PUBCHEM_COMPONENT_COUNT>
1

> <PUBCHEM_CACTVS_TAUTO_COUNT>
1

> <PUBCHEM_CONFORMER_ID>
0480978400000001

> <PUBCHEM_MMFF94_ENERGY>
54.5204

> <PUBCHEM_FEATURE_SELFOVERLAP>
55.824

> <PUBCHEM_SHAPE_FINGERPRINT>
10006869 2 18192138310009687503
10670039 82 18262252040720150846
10688039 33 18113054943469083460
10864689 126 17184763390103903909
10939801 23 18263923418696191288
12107698 1 18260828211436935066
12156800 1 18050321122188267236
12293681 4 18114468963052523218
12422481 6 18267607752931509441
12655364 131 16907186688319124584
12788726 201 18260825999275609200
13075007 39 17752504297749381299
13140716 1 18119811571403044138
13402501 40 18410011022566400501
14028597 1 17604693535391911930
14363568 33 17902814168226515873
14394314 77 18195251246028616073
14790565 3 17110446844741996020
14840074 17 18342464780656383895
14955137 171 18192722352447214467
150020 26 17756441713492213441
15276724 80 18339926021973661484
15840311 113 17415589553207993115
15968369 153 18272360954050809260
17852330 162 18194993819891809718
20764821 26 18264777570814222741
21033648 144 18202558505970405598
21133410 90 17489295357339952049
21360443 126 18115303354870668181
21796203 349 17974321942089733912
22113638 7 18052817232536745327
3052486 1 18261396607635708516
338550 245 18334583438100622900
463206 1 18192712465121100063
469060 322 16877947083642952231
474 4 18340771558303745459
508706 21 18336550430021441106
5283268 108 18408047324895586234
6004065 56 18336827610975815963
653340 110 18340765940676004176

> <PUBCHEM_SHAPE_MULTIPOLES>
556.98
11.79
5.06
1.25
4.08
5.56
0.18
-4.09
3.53
-3.22
-0.92
-0.2
-0.45
0.77

> <PUBCHEM_SHAPE_SELFOVERLAP>
1195.361

> <PUBCHEM_SHAPE_VOLUME>
307.8

> <PUBCHEM_COORDINATE_TYPE>
2
5
10

$$$$
