25389261
  -OEChem-12032416223D

 63 68  0     1  0  0  0  0  0999 V2000
    3.6119   -1.5404   -2.1957 O   0  0  0  0  0  0  0  0  0  0  0  0
    5.6938    3.1136    0.8727 O   0  0  0  0  0  0  0  0  0  0  0  0
    7.8260    1.9908    0.8876 O   0  0  0  0  0  0  0  0  0  0  0  0
   -0.5692   -2.8344   -0.9428 N   0  0  2  0  0  0  0  0  0  0  0  0
   -3.7270   -0.1539    0.5780 N   0  0  1  0  0  0  0  0  0  0  0  0
    2.2252   -0.2933   -0.8193 N   0  0  0  0  0  0  0  0  0  0  0  0
   -0.8192   -2.4530    1.6182 C   0  0  2  0  0  0  0  0  0  0  0  0
   -2.0714   -1.9544    0.8612 C   0  0  2  0  0  0  0  0  0  0  0  0
    0.6175   -2.1063   -0.4179 C   0  0  2  0  0  0  0  0  0  0  0  0
    0.4276   -1.7351    1.0696 C   0  0  0  0  0  0  0  0  0  0  0  0
   -1.8086   -2.0720   -0.6570 C   0  0  0  0  0  0  0  0  0  0  0  0
   -0.6648   -3.9504    1.2902 C   0  0  0  0  0  0  0  0  0  0  0  0
   -0.6546   -4.1364   -0.2376 C   0  0  0  0  0  0  0  0  0  0  0  0
   -2.4879   -0.5385    1.2526 C   0  0  0  0  0  0  0  0  0  0  0  0
    0.9753   -0.8845   -1.2674 C   0  0  0  0  0  0  0  0  0  0  0  0
   -4.8864   -0.7899    1.2153 C   0  0  0  0  0  0  0  0  0  0  0  0
   -3.8820    1.3116    0.5859 C   0  0  0  0  0  0  0  0  0  0  0  0
   -6.1427   -0.5448    0.3732 C   0  0  0  0  0  0  0  0  0  0  0  0
   -5.2083    1.7758    0.0288 C   0  0  0  0  0  0  0  0  0  0  0  0
   -6.3038    0.8974   -0.0312 C   0  0  0  0  0  0  0  0  0  0  0  0
    3.4474   -0.6819   -1.3329 C   0  0  0  0  0  0  0  0  0  0  0  0
   -5.3692    3.1087   -0.3730 C   0  0  0  0  0  0  0  0  0  0  0  0
   -7.5321    1.3540   -0.5266 C   0  0  0  0  0  0  0  0  0  0  0  0
    4.6326   -0.0008   -0.7513 C   0  0  0  0  0  0  0  0  0  0  0  0
   -6.5987    3.5566   -0.8557 C   0  0  0  0  0  0  0  0  0  0  0  0
   -7.6781    2.6796   -0.9345 C   0  0  0  0  0  0  0  0  0  0  0  0
    4.5012    1.2832   -0.2169 C   0  0  0  0  0  0  0  0  0  0  0  0
    5.8767   -0.6557   -0.7427 C   0  0  0  0  0  0  0  0  0  0  0  0
    5.6296    1.8748    0.3129 C   0  0  0  0  0  0  0  0  0  0  0  0
    7.0038   -0.0342   -0.1997 C   0  0  0  0  0  0  0  0  0  0  0  0
    6.8472    1.2337    0.3214 C   0  0  0  0  0  0  0  0  0  0  0  0
    7.0882    3.1802    1.2349 C   0  0  0  0  0  0  0  0  0  0  0  0
   -0.9150   -2.3026    2.6985 H   0  0  0  0  0  0  0  0  0  0  0  0
   -2.8760   -2.6534    1.1207 H   0  0  0  0  0  0  0  0  0  0  0  0
    1.4769   -2.7898   -0.4855 H   0  0  0  0  0  0  0  0  0  0  0  0
    0.3362   -0.6543    1.2182 H   0  0  0  0  0  0  0  0  0  0  0  0
    1.3111   -2.0542    1.6371 H   0  0  0  0  0  0  0  0  0  0  0  0
   -2.6577   -2.5815   -1.1316 H   0  0  0  0  0  0  0  0  0  0  0  0
   -1.7620   -1.0934   -1.1475 H   0  0  0  0  0  0  0  0  0  0  0  0
   -1.4879   -4.5256    1.7301 H   0  0  0  0  0  0  0  0  0  0  0  0
    0.2669   -4.3342    1.7231 H   0  0  0  0  0  0  0  0  0  0  0  0
    0.1872   -4.7762   -0.5299 H   0  0  0  0  0  0  0  0  0  0  0  0
   -1.5558   -4.6740   -0.5591 H   0  0  0  0  0  0  0  0  0  0  0  0
   -1.6895    0.1540    0.9593 H   0  0  0  0  0  0  0  0  0  0  0  0
   -2.5857   -0.4515    2.3427 H   0  0  0  0  0  0  0  0  0  0  0  0
    0.2178   -0.0975   -1.1970 H   0  0  0  0  0  0  0  0  0  0  0  0
    1.0751   -1.1661   -2.3220 H   0  0  0  0  0  0  0  0  0  0  0  0
   -5.0337   -0.3974    2.2310 H   0  0  0  0  0  0  0  0  0  0  0  0
   -4.7725   -1.8740    1.3083 H   0  0  0  0  0  0  0  0  0  0  0  0
   -3.0817    1.7491   -0.0242 H   0  0  0  0  0  0  0  0  0  0  0  0
   -3.7873    1.7067    1.6063 H   0  0  0  0  0  0  0  0  0  0  0  0
    2.1650    0.3754   -0.0593 H   0  0  0  0  0  0  0  0  0  0  0  0
   -7.0201   -0.8696    0.9453 H   0  0  0  0  0  0  0  0  0  0  0  0
   -6.0946   -1.1515   -0.5402 H   0  0  0  0  0  0  0  0  0  0  0  0
   -4.5363    3.8047   -0.3116 H   0  0  0  0  0  0  0  0  0  0  0  0
   -8.3807    0.6784   -0.5971 H   0  0  0  0  0  0  0  0  0  0  0  0
   -6.7146    4.5899   -1.1695 H   0  0  0  0  0  0  0  0  0  0  0  0
   -8.6343    3.0282   -1.3139 H   0  0  0  0  0  0  0  0  0  0  0  0
    3.5709    1.8394   -0.2280 H   0  0  0  0  0  0  0  0  0  0  0  0
    5.9803   -1.6572   -1.1536 H   0  0  0  0  0  0  0  0  0  0  0  0
    7.9647   -0.5361   -0.1901 H   0  0  0  0  0  0  0  0  0  0  0  0
    7.1625    3.3358    2.3173 H   0  0  0  0  0  0  0  0  0  0  0  0
    7.5429    4.0368    0.7242 H   0  0  0  0  0  0  0  0  0  0  0  0
  1 21  2  0  0  0  0
  2 29  1  0  0  0  0
  2 32  1  0  0  0  0
  3 31  1  0  0  0  0
  3 32  1  0  0  0  0
  4  9  1  0  0  0  0
  4 11  1  0  0  0  0
  4 13  1  0  0  0  0
  5 14  1  0  0  0  0
  5 16  1  0  0  0  0
  5 17  1  0  0  0  0
  6 15  1  0  0  0  0
  6 21  1  0  0  0  0
  6 52  1  0  0  0  0
  7  8  1  0  0  0  0
  7 10  1  0  0  0  0
  7 12  1  0  0  0  0
  7 33  1  0  0  0  0
  8 11  1  0  0  0  0
  8 14  1  0  0  0  0
  8 34  1  0  0  0  0
  9 10  1  0  0  0  0
  9 15  1  0  0  0  0
  9 35  1  0  0  0  0
 10 36  1  0  0  0  0
 10 37  1  0  0  0  0
 11 38  1  0  0  0  0
 11 39  1  0  0  0  0
 12 13  1  0  0  0  0
 12 40  1  0  0  0  0
 12 41  1  0  0  0  0
 13 42  1  0  0  0  0
 13 43  1  0  0  0  0
 14 44  1  0  0  0  0
 14 45  1  0  0  0  0
 15 46  1  0  0  0  0
 15 47  1  0  0  0  0
 16 18  1  0  0  0  0
 16 48  1  0  0  0  0
 16 49  1  0  0  0  0
 17 19  1  0  0  0  0
 17 50  1  0  0  0  0
 17 51  1  0  0  0  0
 18 20  1  0  0  0  0
 18 53  1  0  0  0  0
 18 54  1  0  0  0  0
 19 20  1  0  0  0  0
 19 22  2  0  0  0  0
 20 23  2  0  0  0  0
 21 24  1  0  0  0  0
 22 25  1  0  0  0  0
 22 55  1  0  0  0  0
 23 26  1  0  0  0  0
 23 56  1  0  0  0  0
 24 27  2  0  0  0  0
 24 28  1  0  0  0  0
 25 26  2  0  0  0  0
 25 57  1  0  0  0  0
 26 58  1  0  0  0  0
 27 29  1  0  0  0  0
 27 59  1  0  0  0  0
 28 30  2  0  0  0  0
 28 60  1  0  0  0  0
 29 31  2  0  0  0  0
 30 31  1  0  0  0  0
 30 61  1  0  0  0  0
 32 62  1  0  0  0  0
 32 63  1  0  0  0  0
M  END
> <PUBCHEM_COMPOUND_CID>
25389261

> <PUBCHEM_CONFORMER_RMSD>
1

> <PUBCHEM_CONFORMER_DIVERSEORDER>
2
111
21
113
71
193
186
160
121
138
169
84
201
158
94
171
24
57
80
190
123
103
181
12
61
202
53
161
39
116
152
156
112
66
69
19
106
4
144
129
192
35
167
99
126
175
148
185
125
194
26
95
178
14
162
93
150
23
149
147
31
143
49
65
191
9
142
136
139
104
28
196
83
68
52
183
164
177
44
134
8
187
30
29
182
135
199
79
78
184
154
189
90
124
133
67
132
62
172
45
63
155
91
174
27
110
5
153
86
145
200
197
141
188
40
22
70
56
157
51
117
42
198
48
127
120
17
55
33
32
146
168
101
159
179
73
38
165
82
10
11
43
176
58
76
130
54
114
6
87
170
34
173
81
36
109
18
180
85
59
115
77
3
128
47
166
41
98
137
105
163
108
102
92
64
118
74
89
37
72
1
96
151
107
119
140
13
20
46
97
122
88
25
50
100
131
195
7
60
15
16
75

> <PUBCHEM_MMFF94_PARTIAL_CHARGES>
36
1 -0.57
11 0.27
13 0.27
14 0.27
15 0.3
16 0.27
17 0.41
18 0.14
19 -0.14
2 -0.36
20 -0.14
21 0.54
22 -0.15
23 -0.15
24 0.09
25 -0.15
26 -0.15
27 -0.15
28 -0.15
29 0.08
3 -0.36
30 -0.15
31 0.08
32 0.56
4 -0.81
5 -0.81
52 0.37
55 0.15
56 0.15
57 0.15
58 0.15
59 0.15
6 -0.73
60 0.15
61 0.15
9 0.27

> <PUBCHEM_EFFECTIVE_ROTOR_COUNT>
8.6

> <PUBCHEM_PHARMACOPHORE_FEATURES>
11
1 1 acceptor
1 2 acceptor
1 3 acceptor
1 4 cation
1 5 cation
1 6 donor
5 2 3 29 31 32 rings
6 19 20 22 23 25 26 rings
6 24 27 28 29 30 31 rings
6 5 16 17 18 19 20 rings
8 4 7 8 9 10 11 12 13 rings

> <PUBCHEM_HEAVY_ATOM_COUNT>
32

> <PUBCHEM_ATOM_DEF_STEREO_COUNT>
3

> <PUBCHEM_ATOM_UDEF_STEREO_COUNT>
0

> <PUBCHEM_BOND_DEF_STEREO_COUNT>
0

> <PUBCHEM_BOND_UDEF_STEREO_COUNT>
0

> <PUBCHEM_ISOTOPIC_ATOM_COUNT>
0

> <PUBCHEM_COMPONENT_COUNT>
1

> <PUBCHEM_CACTVS_TAUTO_COUNT>
2

> <PUBCHEM_CONFORMER_ID>
018368CD00000002

> <PUBCHEM_MMFF94_ENERGY>
86.0258

> <PUBCHEM_FEATURE_SELFOVERLAP>
55.999

> <PUBCHEM_SHAPE_FINGERPRINT>
10006869 2 18189608354885801758
10280341 67 18115017490970501277
10554248 39 16414937283306084366
10904742 38 18410856581167783208
10985338 1 17059789810219599206
11135609 127 18047180862094114725
11408170 108 7997673300584806529
12925494 130 18260832592256818962
13150687 139 18272657800931932607
13673619 4 11169907299660225934
13726171 33 18129669596149075907
13878862 14 17418374701965438872
14123256 34 10591754381776257901
14190465 44 18188778369440709348
14739800 52 18188207581493693819
14767858 380 15482673459335256479
14955137 171 8718532910014177015
15274700 208 16342565332529153016
15289351 153 18337104545517194138
15320295 198 18199754803154622464
15350500 185 18261101959984160989
15350500 55 18341894143365994208
19053607 189 17895770486649570109
19304144 158 18334013849145340653
19438510 23 18187930530554636307
195137 95 18408880733351090336
20501277 180 18048870794387891133
20511986 3 17846494890115161098
20554085 129 18340758260973753626
20715895 44 18413394233136131568
21033648 29 18333456442929166151
21133410 221 17984691483601405625
21424621 283 18408322185438441063
21585481 104 16056055523679271393
21859007 373 18333733481584578812
23191077 185 18411971469032160443
23516275 100 18412259532426094916
23522609 53 16806749445970407294
23929065 36 18116442625269380571
255183 451 11095582491418959595
2838139 119 18411982464016036863
2851757 15 18410575076178977187
3918712 181 18338791226583341961
393628 179 18409440393423301757
397638 26 18186522102744952657
3991529 202 18116974652190922802
4173938 306 17988347248627062024
437795 96 18128252488105531664
5372103 7 18273213088616088069
57307002 19 18335134298058975765
6058803 2 16156832584625522846
6086070 43 16486691498097232984
636775 8 8862670127278182864
6677587 24 17841975720682451517
6697151 62 17415587336799666350
9981440 41 18041013821327594667

> <PUBCHEM_SHAPE_MULTIPOLES>
625.99
23.77
4.83
1.41
7.23
0.88
0.08
-30.85
0.06
-1.99
-0.69
0.75
0.48
4.22

> <PUBCHEM_SHAPE_SELFOVERLAP>
1372.328

> <PUBCHEM_SHAPE_VOLUME>
334.5

> <PUBCHEM_COORDINATE_TYPE>
2
5
10

$$$$
