45783557
  -OEChem-12032416263D

 54 57  0     1  0  0  0  0  0999 V2000
   -2.2065   -1.6371    2.0445 O   0  0  0  0  0  0  0  0  0  0  0  0
    4.8442   -0.3705   -0.4467 O   0  0  0  0  0  0  0  0  0  0  0  0
    0.1879    4.3454    1.2109 O   0  5  0  0  0  0  0  0  0  0  0  0
    0.8891    3.7872   -0.7931 O   0  0  0  0  0  0  0  0  0  0  0  0
    7.4910   -1.2029   -0.8151 O   0  0  0  0  0  0  0  0  0  0  0  0
   -4.2985   -0.8727   -0.8785 N   0  0  1  0  0  0  0  0  0  0  0  0
   -1.4613   -1.2542   -0.0327 N   0  0  0  0  0  0  0  0  0  0  0  0
   -0.8201   -1.4700    2.1528 N   0  0  0  0  0  0  0  0  0  0  0  0
    0.0414    3.7253    0.1300 N   0  3  0  0  0  0  0  0  0  0  0  0
    3.2284   -0.8020    1.1618 N   0  0  0  0  0  0  0  0  0  0  0  0
   -3.9589   -1.6329    0.3409 C   0  0  1  0  0  0  0  0  0  0  0  0
   -4.3539   -3.0859    0.0187 C   0  0  0  0  0  0  0  0  0  0  0  0
   -4.9610   -3.0331   -1.3761 C   0  0  0  0  0  0  0  0  0  0  0  0
   -5.4009   -1.5901   -1.5193 C   0  0  0  0  0  0  0  0  0  0  0  0
   -4.6323    0.5206   -0.6125 C   0  0  0  0  0  0  0  0  0  0  0  0
   -2.5007   -1.4952    0.7256 C   0  0  0  0  0  0  0  0  0  0  0  0
   -3.4010    1.3646   -0.4162 C   0  0  0  0  0  0  0  0  0  0  0  0
   -3.2160    2.0626    0.7772 C   0  0  0  0  0  0  0  0  0  0  0  0
   -2.4451    1.4484   -1.4286 C   0  0  0  0  0  0  0  0  0  0  0  0
   -0.4533   -1.2480    0.8871 C   0  0  0  0  0  0  0  0  0  0  0  0
   -2.0754    2.8446    0.9582 C   0  0  0  0  0  0  0  0  0  0  0  0
   -1.3043    2.2305   -1.2477 C   0  0  0  0  0  0  0  0  0  0  0  0
   -1.1195    2.9287   -0.0543 C   0  0  0  0  0  0  0  0  0  0  0  0
    0.9110   -1.0181    0.5080 C   0  0  0  0  0  0  0  0  0  0  0  0
    1.2567   -0.7919   -0.8196 C   0  0  0  0  0  0  0  0  0  0  0  0
    1.9250   -1.0131    1.4522 C   0  0  0  0  0  0  0  0  0  0  0  0
    2.5873   -0.5708   -1.1576 C   0  0  0  0  0  0  0  0  0  0  0  0
    3.5264   -0.5858   -0.1390 C   0  0  0  0  0  0  0  0  0  0  0  0
    5.7666   -0.3964    0.6364 C   0  0  0  0  0  0  0  0  0  0  0  0
    7.1660   -0.1638    0.1003 C   0  0  0  0  0  0  0  0  0  0  0  0
    8.7876   -1.0232   -1.3676 C   0  0  0  0  0  0  0  0  0  0  0  0
   -4.5740   -1.3022    1.1897 H   0  0  0  0  0  0  0  0  0  0  0  0
   -3.5156   -3.7903    0.0517 H   0  0  0  0  0  0  0  0  0  0  0  0
   -5.1103   -3.4296    0.7349 H   0  0  0  0  0  0  0  0  0  0  0  0
   -5.7891   -3.7381   -1.4939 H   0  0  0  0  0  0  0  0  0  0  0  0
   -4.1967   -3.2763   -2.1246 H   0  0  0  0  0  0  0  0  0  0  0  0
   -6.3514   -1.4283   -0.9950 H   0  0  0  0  0  0  0  0  0  0  0  0
   -5.5208   -1.3087   -2.5700 H   0  0  0  0  0  0  0  0  0  0  0  0
   -5.3267    0.6183    0.2323 H   0  0  0  0  0  0  0  0  0  0  0  0
   -5.1590    0.9495   -1.4767 H   0  0  0  0  0  0  0  0  0  0  0  0
   -3.9516    2.0044    1.5749 H   0  0  0  0  0  0  0  0  0  0  0  0
   -2.5773    0.9137   -2.3656 H   0  0  0  0  0  0  0  0  0  0  0  0
   -1.9642    3.3737    1.9012 H   0  0  0  0  0  0  0  0  0  0  0  0
   -0.5807    2.2718   -2.0577 H   0  0  0  0  0  0  0  0  0  0  0  0
    0.5114   -0.7817   -1.6108 H   0  0  0  0  0  0  0  0  0  0  0  0
    1.7392   -1.1809    2.5089 H   0  0  0  0  0  0  0  0  0  0  0  0
    2.8736   -0.3923   -2.1884 H   0  0  0  0  0  0  0  0  0  0  0  0
    5.7297   -1.3794    1.1223 H   0  0  0  0  0  0  0  0  0  0  0  0
    5.5222    0.3885    1.3619 H   0  0  0  0  0  0  0  0  0  0  0  0
    7.2058    0.7975   -0.4253 H   0  0  0  0  0  0  0  0  0  0  0  0
    7.8867   -0.1567    0.9254 H   0  0  0  0  0  0  0  0  0  0  0  0
    8.8405   -0.0829   -1.9249 H   0  0  0  0  0  0  0  0  0  0  0  0
    9.5462   -1.0376   -0.5790 H   0  0  0  0  0  0  0  0  0  0  0  0
    8.9855   -1.8484   -2.0569 H   0  0  0  0  0  0  0  0  0  0  0  0
  1  8  1  0  0  0  0
  1 16  1  0  0  0  0
  2 28  1  0  0  0  0
  2 29  1  0  0  0  0
  3  9  1  0  0  0  0
  4  9  2  0  0  0  0
  5 30  1  0  0  0  0
  5 31  1  0  0  0  0
  6 11  1  0  0  0  0
  6 14  1  0  0  0  0
  6 15  1  0  0  0  0
  7 16  2  0  0  0  0
  7 20  1  0  0  0  0
  8 20  2  0  0  0  0
  9 23  1  0  0  0  0
 10 26  1  0  0  0  0
 10 28  2  0  0  0  0
 11 12  1  0  0  0  0
 11 16  1  0  0  0  0
 11 32  1  0  0  0  0
 12 13  1  0  0  0  0
 12 33  1  0  0  0  0
 12 34  1  0  0  0  0
 13 14  1  0  0  0  0
 13 35  1  0  0  0  0
 13 36  1  0  0  0  0
 14 37  1  0  0  0  0
 14 38  1  0  0  0  0
 15 17  1  0  0  0  0
 15 39  1  0  0  0  0
 15 40  1  0  0  0  0
 17 18  2  0  0  0  0
 17 19  1  0  0  0  0
 18 21  1  0  0  0  0
 18 41  1  0  0  0  0
 19 22  2  0  0  0  0
 19 42  1  0  0  0  0
 20 24  1  0  0  0  0
 21 23  2  0  0  0  0
 21 43  1  0  0  0  0
 22 23  1  0  0  0  0
 22 44  1  0  0  0  0
 24 25  1  0  0  0  0
 24 26  2  0  0  0  0
 25 27  2  0  0  0  0
 25 45  1  0  0  0  0
 26 46  1  0  0  0  0
 27 28  1  0  0  0  0
 27 47  1  0  0  0  0
 29 30  1  0  0  0  0
 29 48  1  0  0  0  0
 29 49  1  0  0  0  0
 30 50  1  0  0  0  0
 30 51  1  0  0  0  0
 31 52  1  0  0  0  0
 31 53  1  0  0  0  0
 31 54  1  0  0  0  0
M  CHG  2   3  -1   9   1
M  END
> <PUBCHEM_COMPOUND_CID>
45783557

> <PUBCHEM_CONFORMER_RMSD>
1

> <PUBCHEM_CONFORMER_DIVERSEORDER>
1
102
38
75
99
50
100
24
33
56
82
13
17
66
25
65
46
51
16
60
35
90
86
105
12
94
6
104
73
28
57
101
39
40
7
59
37
49
95
20
109
79
4
2
19
64
3
52
88
83
22
106
81
45
29
32
74
93
41
10
44
18
26
69
15
55
21
78
36
92
11
14
5
87
43
89
71
27
98
53
72
48
34
108
47
96
58
9
80
67
91
70
23
76
97
42
77
8
63
30
61
103
31
107
84
54
85
62
68

> <PUBCHEM_MMFF94_PARTIAL_CHARGES>
36
1 -0.02
10 -0.62
11 0.45
14 0.27
15 0.41
16 0.3
17 -0.14
18 -0.15
19 -0.15
2 -0.36
20 0.46
21 -0.15
22 -0.15
23 0.13
24 0.05
25 -0.15
26 0.16
27 -0.15
28 0.39
29 0.28
3 -0.52
30 0.28
31 0.28
4 -0.52
41 0.15
42 0.15
43 0.15
44 0.15
45 0.15
46 0.15
47 0.15
5 -0.56
6 -0.81
7 -0.57
8 -0.41
9 0.91

> <PUBCHEM_EFFECTIVE_ROTOR_COUNT>
10

> <PUBCHEM_PHARMACOPHORE_FEATURES>
10
1 3 acceptor
1 3 anion
1 4 acceptor
1 5 acceptor
1 6 cation
3 7 8 20 cation
5 1 7 8 16 20 rings
5 6 11 12 13 14 rings
6 10 24 25 26 27 28 rings
6 17 18 19 21 22 23 rings

> <PUBCHEM_HEAVY_ATOM_COUNT>
31

> <PUBCHEM_ATOM_DEF_STEREO_COUNT>
1

> <PUBCHEM_ATOM_UDEF_STEREO_COUNT>
0

> <PUBCHEM_BOND_DEF_STEREO_COUNT>
0

> <PUBCHEM_BOND_UDEF_STEREO_COUNT>
0

> <PUBCHEM_ISOTOPIC_ATOM_COUNT>
0

> <PUBCHEM_COMPONENT_COUNT>
1

> <PUBCHEM_CACTVS_TAUTO_COUNT>
1

> <PUBCHEM_CONFORMER_ID>
02BA9A0500000001

> <PUBCHEM_MMFF94_ENERGY>
73.7525

> <PUBCHEM_FEATURE_SELFOVERLAP>
50.828

> <PUBCHEM_SHAPE_FINGERPRINT>
10454371 7 18409173186738748988
10670039 82 18334012766560536714
1100329 8 18410572878079037257
11315181 36 17530971310772505926
12156800 1 14640992876088148565
12166972 35 17749389325077424614
12645989 146 18342177812775509894
12788726 201 18188482484764129891
13782708 43 17846500310290250414
14931854 50 18041266712690002711
15183329 4 17968096383695934234
15419008 47 17988636398857906672
15876981 60 18408610257384367428
17492 54 18042384873846233197
18336668 15 17967819344491986965
20642791 35 18262778758561454053
20691752 17 17314769980332514669
20721686 56 18337106895339604400
20775438 99 17330530551361753735
20905425 154 18049158071547302557
21057603 43 17913490414159974771
21236236 1 18334297544045305538
21344244 246 17835228331571854903
21927370 108 18337404811123732563
23557571 272 18343297059519352879
23559900 14 17970339545855237509
392239 28 18409451366990591280
4280585 95 18336814368958048437
5171179 24 18269547407075181185
531348 171 18270964518892414750
57527585 103 17387444331110198539
5969126 39 18342457049778502710
68570916 9 10303511907372281250

> <PUBCHEM_SHAPE_MULTIPOLES>
583.71
15.51
4.24
1.58
39.12
4.87
0.25
-11.18
-6.83
-4.99
0.23
-0.33
-0.4
-0.23

> <PUBCHEM_SHAPE_SELFOVERLAP>
1254.221

> <PUBCHEM_SHAPE_VOLUME>
323.9

> <PUBCHEM_COORDINATE_TYPE>
2
5
10

$$$$
