26763053
  -OEChem-12032416183D

 60 62  0     1  0  0  0  0  0999 V2000
    7.8869    3.0911    2.2398 Cl  0  0  0  0  0  0  0  0  0  0  0  0
   -0.3243   -4.5419    1.0999 O   0  0  0  0  0  0  0  0  0  0  0  0
    3.8621   -0.9708   -1.7759 O   0  0  0  0  0  0  0  0  0  0  0  0
   -4.2806    2.6245    0.0386 O   0  0  0  0  0  0  0  0  0  0  0  0
   -1.0190   -1.3264   -0.1981 N   0  0  2  0  0  0  0  0  0  0  0  0
   -2.2254   -3.2703    1.2997 N   0  0  0  0  0  0  0  0  0  0  0  0
    1.9973   -0.3827   -0.5421 N   0  0  0  0  0  0  0  0  0  0  0  0
   -6.4475    1.7976    0.0299 N   0  0  0  0  0  0  0  0  0  0  0  0
    4.0323    0.5133    0.0349 N   0  0  0  0  0  0  0  0  0  0  0  0
   -0.6034   -2.7121   -0.4328 C   0  0  1  0  0  0  0  0  0  0  0  0
   -2.4799   -1.2393   -0.1598 C   0  0  1  0  0  0  0  0  0  0  0  0
    1.0482   -1.1770   -1.2819 C   0  0  1  0  0  0  0  0  0  0  0  0
    0.8933   -2.5721   -0.6647 C   0  0  0  0  0  0  0  0  0  0  0  0
   -0.3546   -0.5625   -1.2536 C   0  0  0  0  0  0  0  0  0  0  0  0
   -2.9385   -2.0209    1.0794 C   0  0  0  0  0  0  0  0  0  0  0  0
   -2.9931    0.1999   -0.0762 C   0  0  0  0  0  0  0  0  0  0  0  0
   -0.9976   -3.5759    0.7430 C   0  0  0  0  0  0  0  0  0  0  0  0
   -4.5174    0.2409   -0.0565 C   0  0  0  0  0  0  0  0  0  0  0  0
    3.3625   -0.3367   -0.8495 C   0  0  0  0  0  0  0  0  0  0  0  0
   -5.0550    1.6645    0.0081 C   0  0  0  0  0  0  0  0  0  0  0  0
   -7.4028    0.6928   -0.0044 C   0  0  0  0  0  0  0  0  0  0  0  0
   -7.0404    3.1273    0.1018 C   0  0  0  0  0  0  0  0  0  0  0  0
    5.4110    0.8280    0.0601 C   0  0  0  0  0  0  0  0  0  0  0  0
   -7.7488    0.2153    1.3907 C   0  0  0  0  0  0  0  0  0  0  0  0
   -7.2814    3.7023   -1.2785 C   0  0  0  0  0  0  0  0  0  0  0  0
    5.9104    1.7028    1.0249 C   0  0  0  0  0  0  0  0  0  0  0  0
    6.2718    0.2616   -0.8802 C   0  0  0  0  0  0  0  0  0  0  0  0
    7.2705    2.0113    1.0496 C   0  0  0  0  0  0  0  0  0  0  0  0
    7.6319    0.5702   -0.8555 C   0  0  0  0  0  0  0  0  0  0  0  0
    8.1312    1.4451    0.1094 C   0  0  0  0  0  0  0  0  0  0  0  0
   -1.0772   -3.1296   -1.3329 H   0  0  0  0  0  0  0  0  0  0  0  0
   -2.9010   -1.7104   -1.0594 H   0  0  0  0  0  0  0  0  0  0  0  0
    1.3972   -1.2590   -2.3180 H   0  0  0  0  0  0  0  0  0  0  0  0
    1.4629   -2.6712    0.2680 H   0  0  0  0  0  0  0  0  0  0  0  0
    1.2545   -3.3460   -1.3514 H   0  0  0  0  0  0  0  0  0  0  0  0
   -0.3331    0.5116   -1.0424 H   0  0  0  0  0  0  0  0  0  0  0  0
   -0.8478   -0.7222   -2.2211 H   0  0  0  0  0  0  0  0  0  0  0  0
   -2.7972   -1.4327    1.9942 H   0  0  0  0  0  0  0  0  0  0  0  0
   -3.9974   -2.2893    1.0100 H   0  0  0  0  0  0  0  0  0  0  0  0
   -2.5914    0.7003    0.8148 H   0  0  0  0  0  0  0  0  0  0  0  0
   -2.6452    0.7776   -0.9415 H   0  0  0  0  0  0  0  0  0  0  0  0
   -2.5629   -3.8725    2.0443 H   0  0  0  0  0  0  0  0  0  0  0  0
    1.6731    0.1097    0.2849 H   0  0  0  0  0  0  0  0  0  0  0  0
   -4.9042   -0.2933    0.8140 H   0  0  0  0  0  0  0  0  0  0  0  0
   -4.8957   -0.2341   -0.9680 H   0  0  0  0  0  0  0  0  0  0  0  0
    3.4674    0.9647    0.7499 H   0  0  0  0  0  0  0  0  0  0  0  0
   -6.9912   -0.1414   -0.5778 H   0  0  0  0  0  0  0  0  0  0  0  0
   -8.3078    1.0156   -0.5314 H   0  0  0  0  0  0  0  0  0  0  0  0
   -6.3631    3.7924    0.6497 H   0  0  0  0  0  0  0  0  0  0  0  0
   -7.9752    3.0825    0.6710 H   0  0  0  0  0  0  0  0  0  0  0  0
   -6.8632   -0.1160    1.9405 H   0  0  0  0  0  0  0  0  0  0  0  0
   -8.2182    1.0128    1.9761 H   0  0  0  0  0  0  0  0  0  0  0  0
   -8.4505   -0.6231    1.3411 H   0  0  0  0  0  0  0  0  0  0  0  0
   -6.3471    3.7761   -1.8449 H   0  0  0  0  0  0  0  0  0  0  0  0
   -7.9704    3.0770   -1.8554 H   0  0  0  0  0  0  0  0  0  0  0  0
   -7.7141    4.7048   -1.2034 H   0  0  0  0  0  0  0  0  0  0  0  0
    5.2382    2.1438    1.7580 H   0  0  0  0  0  0  0  0  0  0  0  0
    5.9616   -0.4229   -1.6568 H   0  0  0  0  0  0  0  0  0  0  0  0
    8.3032    0.1298   -1.5871 H   0  0  0  0  0  0  0  0  0  0  0  0
    9.1933    1.6764    0.1165 H   0  0  0  0  0  0  0  0  0  0  0  0
  1 28  1  0  0  0  0
  2 17  2  0  0  0  0
  3 19  2  0  0  0  0
  4 20  2  0  0  0  0
  5 10  1  0  0  0  0
  5 11  1  0  0  0  0
  5 14  1  0  0  0  0
  6 15  1  0  0  0  0
  6 17  1  0  0  0  0
  6 42  1  0  0  0  0
  7 12  1  0  0  0  0
  7 19  1  0  0  0  0
  7 43  1  0  0  0  0
  8 20  1  0  0  0  0
  8 21  1  0  0  0  0
  8 22  1  0  0  0  0
  9 19  1  0  0  0  0
  9 23  1  0  0  0  0
  9 46  1  0  0  0  0
 10 13  1  0  0  0  0
 10 17  1  0  0  0  0
 10 31  1  0  0  0  0
 11 15  1  0  0  0  0
 11 16  1  0  0  0  0
 11 32  1  0  0  0  0
 12 13  1  0  0  0  0
 12 14  1  0  0  0  0
 12 33  1  0  0  0  0
 13 34  1  0  0  0  0
 13 35  1  0  0  0  0
 14 36  1  0  0  0  0
 14 37  1  0  0  0  0
 15 38  1  0  0  0  0
 15 39  1  0  0  0  0
 16 18  1  0  0  0  0
 16 40  1  0  0  0  0
 16 41  1  0  0  0  0
 18 20  1  0  0  0  0
 18 44  1  0  0  0  0
 18 45  1  0  0  0  0
 21 24  1  0  0  0  0
 21 47  1  0  0  0  0
 21 48  1  0  0  0  0
 22 25  1  0  0  0  0
 22 49  1  0  0  0  0
 22 50  1  0  0  0  0
 23 26  2  0  0  0  0
 23 27  1  0  0  0  0
 24 51  1  0  0  0  0
 24 52  1  0  0  0  0
 24 53  1  0  0  0  0
 25 54  1  0  0  0  0
 25 55  1  0  0  0  0
 25 56  1  0  0  0  0
 26 28  1  0  0  0  0
 26 57  1  0  0  0  0
 27 29  2  0  0  0  0
 27 58  1  0  0  0  0
 28 30  2  0  0  0  0
 29 30  1  0  0  0  0
 29 59  1  0  0  0  0
 30 60  1  0  0  0  0
M  END
> <PUBCHEM_COMPOUND_CID>
26763053

> <PUBCHEM_CONFORMER_RMSD>
1.2

> <PUBCHEM_CONFORMER_DIVERSEORDER>
1
33
28
26
27
112
96
80
34
100
64
63
82
58
25
10
99
106
52
86
73
57
51
67
61
46
59
6
102
7
30
9
50
116
56
113
31
103
85
13
8
37
53
94
97
87
14
55
88
44
17
23
43
110
35
72
92
18
65
108
101
16
22
60
78
48
89
38
91
5
2
74
75
20
19
12
39
98
11
77
68
24
36
29
71
76
15
109
83
40
62
21
79
4
104
90
66
105
54
115
49
95
107
42
111
114
84
69
32
3
70
47
81
45
93
41

> <PUBCHEM_MMFF94_PARTIAL_CHARGES>
33
1 -0.18
10 0.33
11 0.27
12 0.3
14 0.27
15 0.3
17 0.57
18 0.06
19 0.69
2 -0.57
20 0.57
21 0.3
22 0.3
23 0.12
26 -0.15
27 -0.15
28 0.18
29 -0.15
3 -0.57
30 -0.15
4 -0.57
42 0.37
43 0.37
46 0.37
5 -0.81
57 0.15
58 0.15
59 0.15
6 -0.73
60 0.15
7 -0.73
8 -0.66
9 -0.55

> <PUBCHEM_EFFECTIVE_ROTOR_COUNT>
11.2

> <PUBCHEM_PHARMACOPHORE_FEATURES>
10
1 2 acceptor
1 3 acceptor
1 4 acceptor
1 5 cation
1 6 donor
1 7 donor
1 9 donor
5 5 10 12 13 14 rings
6 23 26 27 28 29 30 rings
6 5 6 10 11 15 17 rings

> <PUBCHEM_HEAVY_ATOM_COUNT>
30

> <PUBCHEM_ATOM_DEF_STEREO_COUNT>
3

> <PUBCHEM_ATOM_UDEF_STEREO_COUNT>
0

> <PUBCHEM_BOND_DEF_STEREO_COUNT>
0

> <PUBCHEM_BOND_UDEF_STEREO_COUNT>
0

> <PUBCHEM_ISOTOPIC_ATOM_COUNT>
0

> <PUBCHEM_COMPONENT_COUNT>
1

> <PUBCHEM_CACTVS_TAUTO_COUNT>
9

> <PUBCHEM_CONFORMER_ID>
01985F2D00000001

> <PUBCHEM_MMFF94_ENERGY>
66.5539

> <PUBCHEM_FEATURE_SELFOVERLAP>
50.889

> <PUBCHEM_SHAPE_FINGERPRINT>
10 15 18334861614832054593
10190206 1 18270105925403146879
10319688 67 18260829323522351835
10554248 39 15482410715813600404
11135609 127 17902783069534163045
11135609 201 18410566284876586623
11136131 41 17896879859722847403
11408170 108 12612753528201457849
11409948 8 18339088198502969131
12925494 130 18410012139712032986
12988421 55 17968364689501042927
13540713 4 18266763340549688663
13540713 5 17170975917680863862
13673619 4 10881400945715500326
13878862 14 16486972939041603944
14190465 44 18263368138868370180
14556957 393 14836136484613093530
15152005 77 11458431241296498753
15289351 153 18271242695386281472
15320295 198 17915743274783421552
18643901 69 9223239554652324675
19438510 23 18410013217078619315
20501277 279 18340217336841468145
20554085 129 18272076172038945418
21033648 29 18335712645179639078
21307412 95 9511457793833360145
21424621 283 18410012113414357679
21585481 104 15266520438503379209
21792965 270 18197786702620214185
23522609 53 17096665369189319214
24771293 8 18408325463200244845
2851757 15 18412827971167092518
312425 54 18114732842249569106
3918712 181 18340762633572863561
393628 179 18341602720501623737
397638 26 18335416877042403584
4144715 1 18119254115482538090
57307002 19 18261106349430538709
6058803 2 16881905549052839862
6695519 79 18121249544456710507
9896288 288 17969227896081152411
999808 66 11458421345168686145

> <PUBCHEM_SHAPE_MULTIPOLES>
576.74
26.49
4.66
1.44
13.58
1.78
-0.26
-34.94
-4.95
-4.95
-1.5
1.32
-0.13
4.73

> <PUBCHEM_SHAPE_SELFOVERLAP>
1186.537

> <PUBCHEM_SHAPE_VOLUME>
331.7

> <PUBCHEM_COORDINATE_TYPE>
2
5
10

$$$$
