7143826
  -OEChem-12032416213D

 56 59  0     1  0  0  0  0  0999 V2000
    7.1964    0.8423   -0.0087 S   0  0  0  0  0  0  0  0  0  0  0  0
   -3.2073    1.9334   -1.9293 O   0  0  0  0  0  0  0  0  0  0  0  0
    1.1016   -1.2261   -1.7089 O   0  0  0  0  0  0  0  0  0  0  0  0
   -3.5433    0.1896   -0.4310 N   0  0  0  0  0  0  0  0  0  0  0  0
   -0.7924   -1.4305   -0.3633 N   0  0  0  0  0  0  0  0  0  0  0  0
   -3.0786   -2.1064   -1.2971 C   0  0  1  0  0  0  0  0  0  0  0  0
   -2.8305   -1.6346    1.1032 C   0  0  2  0  0  0  0  0  0  0  0  0
   -3.3261   -2.6706    0.0966 C   0  0  0  0  0  0  0  0  0  0  0  0
   -3.8385   -0.7818   -1.4859 C   0  0  0  0  0  0  0  0  0  0  0  0
   -3.6363   -0.3306    0.9414 C   0  0  0  0  0  0  0  0  0  0  0  0
   -1.5685   -1.9388   -1.5027 C   0  0  0  0  0  0  0  0  0  0  0  0
   -1.3520   -1.3518    0.9142 C   0  0  0  0  0  0  0  0  0  0  0  0
   -3.2813    1.5170   -0.7705 C   0  0  0  0  0  0  0  0  0  0  0  0
   -0.5906   -0.9996    1.9622 C   0  0  0  0  0  0  0  0  0  0  0  0
   -3.0722    2.4779    0.3726 C   0  0  0  0  0  0  0  0  0  0  0  0
    0.5639   -1.1351   -0.6037 C   0  0  0  0  0  0  0  0  0  0  0  0
    1.3828   -0.7074    0.5844 C   0  0  0  0  0  0  0  0  0  0  0  0
    0.7952   -0.6683    1.7897 C   0  0  0  0  0  0  0  0  0  0  0  0
   -1.8739    1.9868    1.1859 C   0  0  0  0  0  0  0  0  0  0  0  0
   -4.3339    2.4975    1.2372 C   0  0  0  0  0  0  0  0  0  0  0  0
   -2.7972    3.8705   -0.1978 C   0  0  0  0  0  0  0  0  0  0  0  0
    2.7994   -0.3298    0.4391 C   0  0  0  0  0  0  0  0  0  0  0  0
    3.7965   -1.2975    0.5662 C   0  0  0  0  0  0  0  0  0  0  0  0
    3.1454    0.9959    0.1748 C   0  0  0  0  0  0  0  0  0  0  0  0
    5.1378   -0.9400    0.4291 C   0  0  0  0  0  0  0  0  0  0  0  0
    4.4867    1.3533    0.0377 C   0  0  0  0  0  0  0  0  0  0  0  0
    5.4829    0.3854    0.1649 C   0  0  0  0  0  0  0  0  0  0  0  0
    7.2340    1.4994   -1.7004 C   0  0  0  0  0  0  0  0  0  0  0  0
   -3.4513   -2.8116   -2.0504 H   0  0  0  0  0  0  0  0  0  0  0  0
   -3.0081   -2.0305    2.1118 H   0  0  0  0  0  0  0  0  0  0  0  0
   -2.7985   -3.6237    0.2271 H   0  0  0  0  0  0  0  0  0  0  0  0
   -4.3939   -2.8721    0.2449 H   0  0  0  0  0  0  0  0  0  0  0  0
   -3.6219   -0.3597   -2.4729 H   0  0  0  0  0  0  0  0  0  0  0  0
   -4.9194   -0.9661   -1.4486 H   0  0  0  0  0  0  0  0  0  0  0  0
   -4.6999   -0.5709    1.0832 H   0  0  0  0  0  0  0  0  0  0  0  0
   -3.4106    0.3324    1.7571 H   0  0  0  0  0  0  0  0  0  0  0  0
   -1.1359   -2.9205   -1.7398 H   0  0  0  0  0  0  0  0  0  0  0  0
   -1.3676   -1.3030   -2.3742 H   0  0  0  0  0  0  0  0  0  0  0  0
   -1.0024   -0.9218    2.9630 H   0  0  0  0  0  0  0  0  0  0  0  0
    1.3401   -0.3655    2.6790 H   0  0  0  0  0  0  0  0  0  0  0  0
   -1.2171    1.3401    0.6015 H   0  0  0  0  0  0  0  0  0  0  0  0
   -1.2392    2.8481    1.4413 H   0  0  0  0  0  0  0  0  0  0  0  0
   -2.0799    1.5569    2.1674 H   0  0  0  0  0  0  0  0  0  0  0  0
   -5.1356    1.8417    0.8813 H   0  0  0  0  0  0  0  0  0  0  0  0
   -4.7794    3.5013    1.2401 H   0  0  0  0  0  0  0  0  0  0  0  0
   -4.1449    2.2777    2.2935 H   0  0  0  0  0  0  0  0  0  0  0  0
   -3.6281    4.2264   -0.8187 H   0  0  0  0  0  0  0  0  0  0  0  0
   -1.8934    3.8809   -0.8189 H   0  0  0  0  0  0  0  0  0  0  0  0
   -2.6516    4.6032    0.6046 H   0  0  0  0  0  0  0  0  0  0  0  0
    3.5432   -2.3349    0.7711 H   0  0  0  0  0  0  0  0  0  0  0  0
    2.3799    1.7618    0.0740 H   0  0  0  0  0  0  0  0  0  0  0  0
    5.9003   -1.7083    0.5313 H   0  0  0  0  0  0  0  0  0  0  0  0
    4.7322    2.3936   -0.1610 H   0  0  0  0  0  0  0  0  0  0  0  0
    8.2670    1.7350   -1.9696 H   0  0  0  0  0  0  0  0  0  0  0  0
    6.6397    2.4137   -1.7742 H   0  0  0  0  0  0  0  0  0  0  0  0
    6.8496    0.7572   -2.4053 H   0  0  0  0  0  0  0  0  0  0  0  0
  1 27  1  0  0  0  0
  1 28  1  0  0  0  0
  2 13  2  0  0  0  0
  3 16  2  0  0  0  0
  4  9  1  0  0  0  0
  4 10  1  0  0  0  0
  4 13  1  0  0  0  0
  5 11  1  0  0  0  0
  5 12  1  0  0  0  0
  5 16  1  0  0  0  0
  6  8  1  0  0  0  0
  6  9  1  0  0  0  0
  6 11  1  0  0  0  0
  6 29  1  0  0  0  0
  7  8  1  0  0  0  0
  7 10  1  0  0  0  0
  7 12  1  0  0  0  0
  7 30  1  0  0  0  0
  8 31  1  0  0  0  0
  8 32  1  0  0  0  0
  9 33  1  0  0  0  0
  9 34  1  0  0  0  0
 10 35  1  0  0  0  0
 10 36  1  0  0  0  0
 11 37  1  0  0  0  0
 11 38  1  0  0  0  0
 12 14  2  0  0  0  0
 13 15  1  0  0  0  0
 14 18  1  0  0  0  0
 14 39  1  0  0  0  0
 15 19  1  0  0  0  0
 15 20  1  0  0  0  0
 15 21  1  0  0  0  0
 16 17  1  0  0  0  0
 17 18  2  0  0  0  0
 17 22  1  0  0  0  0
 18 40  1  0  0  0  0
 19 41  1  0  0  0  0
 19 42  1  0  0  0  0
 19 43  1  0  0  0  0
 20 44  1  0  0  0  0
 20 45  1  0  0  0  0
 20 46  1  0  0  0  0
 21 47  1  0  0  0  0
 21 48  1  0  0  0  0
 21 49  1  0  0  0  0
 22 23  2  0  0  0  0
 22 24  1  0  0  0  0
 23 25  1  0  0  0  0
 23 50  1  0  0  0  0
 24 26  2  0  0  0  0
 24 51  1  0  0  0  0
 25 27  2  0  0  0  0
 25 52  1  0  0  0  0
 26 27  1  0  0  0  0
 26 53  1  0  0  0  0
 28 54  1  0  0  0  0
 28 55  1  0  0  0  0
 28 56  1  0  0  0  0
M  END
> <PUBCHEM_COMPOUND_CID>
7143826

> <PUBCHEM_CONFORMER_RMSD>
0.8

> <PUBCHEM_CONFORMER_DIVERSEORDER>
1
3
2

> <PUBCHEM_MMFF94_PARTIAL_CHARGES>
29
1 -0.33
10 0.3
11 0.3
12 -0.03
13 0.57
14 -0.15
15 0.06
16 0.62
17 -0.01
18 -0.15
2 -0.57
22 0.03
23 -0.15
24 -0.15
25 -0.15
26 -0.15
27 0.1
28 0.23
3 -0.57
39 0.15
4 -0.66
40 0.15
5 -0.47
50 0.15
51 0.15
52 0.15
53 0.15
7 0.14
9 0.3

> <PUBCHEM_EFFECTIVE_ROTOR_COUNT>
5

> <PUBCHEM_PHARMACOPHORE_FEATURES>
8
1 2 acceptor
1 28 hydrophobe
1 3 acceptor
4 15 19 20 21 hydrophobe
6 22 23 24 25 26 27 rings
6 4 6 7 8 9 10 rings
6 5 12 14 16 17 18 rings
6 5 6 7 8 11 12 rings

> <PUBCHEM_HEAVY_ATOM_COUNT>
28

> <PUBCHEM_ATOM_DEF_STEREO_COUNT>
2

> <PUBCHEM_ATOM_UDEF_STEREO_COUNT>
0

> <PUBCHEM_BOND_DEF_STEREO_COUNT>
0

> <PUBCHEM_BOND_UDEF_STEREO_COUNT>
0

> <PUBCHEM_ISOTOPIC_ATOM_COUNT>
0

> <PUBCHEM_COMPONENT_COUNT>
1

> <PUBCHEM_CACTVS_TAUTO_COUNT>
1

> <PUBCHEM_CONFORMER_ID>
006D019200000001

> <PUBCHEM_MMFF94_ENERGY>
101.2746

> <PUBCHEM_FEATURE_SELFOVERLAP>
42.162

> <PUBCHEM_SHAPE_FINGERPRINT>
10076449 9 18341329002942049311
10165383 225 17704080573428336435
10291535 26 18334576871137383571
105312 117 17917713487449267742
10670039 82 18341895221033202268
11101153 10 18193560197350500188
11477941 20 18200017577347633420
11578080 2 18058749995554113518
12107183 9 17903910068319605050
12107698 1 18336827605683075948
12403814 3 18201442523300992995
12788726 201 18337934758849469243
13965767 371 17319581176458510389
13994607 96 18334857208327652997
14142880 1 18188770544675038213
14251751 93 18410005516228455705
14251764 38 18410577301346901284
14251764 75 17765437548032374601
14713325 29 18342739620030181811
14856354 85 18266185122250975622
15064981 113 17986093142236045060
15163728 17 18341059514612342246
15183329 4 18202567289779055030
15324884 4 17125884950616816511
15348495 7 11025797622327968118
15484559 13 14464364931736782480
15876981 60 18263084477657912455
17492 54 18266154181717615861
17844677 252 18408887377960623454
17913733 40 14634863142293427360
17980427 23 18041289837136621052
19958102 18 17561370591224808598
20101258 96 18053102019319071203
21236236 1 18410011044273540520
21756936 100 18259988153976931425
22393880 68 17988922297539733002
22907989 373 18130493185454337313
22956985 138 16673325019240871531
23522609 53 11239164536878634050
23559900 14 16056601010801855074
2838139 119 18411696557255789800
328310 630 17531257205528839212
3610482 184 18334590022723181652
4169191 19 17241615091054961796
445580 37 18336837463609142124
469060 322 15140970581909263435
531348 171 18272933804457865838
5364581 5 11314605263422338918
57527585 21 17985245397655791861
6700243 42 17484834788635901382
7237137 82 18272653471857637544
7808743 9 18340763720320363057

> <PUBCHEM_SHAPE_MULTIPOLES>
558.38
13.68
3.24
1.68
28.94
2.31
-0.22
6.15
-3.02
-4.83
-0.29
-0.77
-0.21
-1.23

> <PUBCHEM_SHAPE_SELFOVERLAP>
1193.852

> <PUBCHEM_SHAPE_VOLUME>
313.5

> <PUBCHEM_COORDINATE_TYPE>
2
5
10

$$$$
