75536320
  -OEChem-12032416303D

 58 61  0     1  0  0  0  0  0999 V2000
    3.2420   -0.3526    0.8127 O   0  0  0  0  0  0  0  0  0  0  0  0
    6.0463    0.2536    1.4884 O   0  0  0  0  0  0  0  0  0  0  0  0
   -0.7747   -2.3070   -1.2063 O   0  0  0  0  0  0  0  0  0  0  0  0
   -3.8691    1.2595   -1.4367 O   0  0  0  0  0  0  0  0  0  0  0  0
    1.6712    1.9629    0.2745 N   0  0  0  0  0  0  0  0  0  0  0  0
    0.5796   -2.4965   -1.4531 N   0  0  0  0  0  0  0  0  0  0  0  0
    3.8502    0.9449    0.7733 C   0  0  1  0  0  0  0  0  0  0  0  0
    5.3360    0.8542    0.4022 C   0  0  2  0  0  0  0  0  0  0  0  0
    3.3730   -1.1223   -0.3849 C   0  0  1  0  0  0  0  0  0  0  0  0
    5.5738   -0.0013   -0.8393 C   0  0  0  0  0  0  0  0  0  0  0  0
    4.8460   -1.3380   -0.7285 C   0  0  0  0  0  0  0  0  0  0  0  0
    3.0662    1.8929   -0.1318 C   0  0  0  0  0  0  0  0  0  0  0  0
    2.6693   -2.4539   -0.1533 C   0  0  0  0  0  0  0  0  0  0  0  0
    1.1744   -2.3222   -0.2695 C   0  0  0  0  0  0  0  0  0  0  0  0
    0.8363    2.4692   -0.8073 C   0  0  0  0  0  0  0  0  0  0  0  0
    0.2551   -2.0236    0.7509 C   0  0  0  0  0  0  0  0  0  0  0  0
   -0.6108    2.5622   -0.4022 C   0  0  0  0  0  0  0  0  0  0  0  0
   -0.9553   -2.0260    0.1096 C   0  0  0  0  0  0  0  0  0  0  0  0
   -2.3121   -1.8061    0.5184 C   0  0  0  0  0  0  0  0  0  0  0  0
   -1.5817    1.8598   -1.1162 C   0  0  0  0  0  0  0  0  0  0  0  0
   -0.9805    3.3502    0.6879 C   0  0  0  0  0  0  0  0  0  0  0  0
   -2.9221    1.9454   -0.7403 C   0  0  0  0  0  0  0  0  0  0  0  0
   -2.3210    3.4358    1.0638 C   0  0  0  0  0  0  0  0  0  0  0  0
   -2.5896   -0.9488    1.5831 C   0  0  0  0  0  0  0  0  0  0  0  0
   -3.3545   -2.4496   -0.1487 C   0  0  0  0  0  0  0  0  0  0  0  0
   -3.2918    2.7334    0.3496 C   0  0  0  0  0  0  0  0  0  0  0  0
   -3.9095   -0.7349    1.9808 C   0  0  0  0  0  0  0  0  0  0  0  0
   -4.6743   -2.2358    0.2489 C   0  0  0  0  0  0  0  0  0  0  0  0
   -4.9517   -1.3785    1.3137 C   0  0  0  0  0  0  0  0  0  0  0  0
   -3.4211    0.4732   -2.5400 C   0  0  0  0  0  0  0  0  0  0  0  0
    3.7834    1.3225    1.8022 H   0  0  0  0  0  0  0  0  0  0  0  0
    5.7559    1.8564    0.2618 H   0  0  0  0  0  0  0  0  0  0  0  0
    2.8835   -0.5960   -1.2131 H   0  0  0  0  0  0  0  0  0  0  0  0
    6.6449   -0.1904   -0.9772 H   0  0  0  0  0  0  0  0  0  0  0  0
    5.2209    0.5306   -1.7304 H   0  0  0  0  0  0  0  0  0  0  0  0
    4.9459   -1.8933   -1.6680 H   0  0  0  0  0  0  0  0  0  0  0  0
    5.3254   -1.9365    0.0567 H   0  0  0  0  0  0  0  0  0  0  0  0
    3.1431    1.5591   -1.1723 H   0  0  0  0  0  0  0  0  0  0  0  0
    3.5066    2.8959   -0.0853 H   0  0  0  0  0  0  0  0  0  0  0  0
    2.9127   -2.8514    0.8403 H   0  0  0  0  0  0  0  0  0  0  0  0
    3.0046   -3.1962   -0.8891 H   0  0  0  0  0  0  0  0  0  0  0  0
    1.3473    1.0294    0.5299 H   0  0  0  0  0  0  0  0  0  0  0  0
    6.9903    0.2482    1.2550 H   0  0  0  0  0  0  0  0  0  0  0  0
    0.9337    1.8222   -1.6883 H   0  0  0  0  0  0  0  0  0  0  0  0
    1.1674    3.4713   -1.1086 H   0  0  0  0  0  0  0  0  0  0  0  0
    0.4492   -1.8361    1.7970 H   0  0  0  0  0  0  0  0  0  0  0  0
   -1.2418    1.2619   -1.9550 H   0  0  0  0  0  0  0  0  0  0  0  0
   -0.2364    3.9078    1.2505 H   0  0  0  0  0  0  0  0  0  0  0  0
   -2.6092    4.0497    1.9120 H   0  0  0  0  0  0  0  0  0  0  0  0
   -1.7947   -0.4307    2.1142 H   0  0  0  0  0  0  0  0  0  0  0  0
   -3.1672   -3.1279   -0.9776 H   0  0  0  0  0  0  0  0  0  0  0  0
   -4.3344    2.8030    0.6478 H   0  0  0  0  0  0  0  0  0  0  0  0
   -4.1257   -0.0651    2.8079 H   0  0  0  0  0  0  0  0  0  0  0  0
   -5.4861   -2.7370   -0.2701 H   0  0  0  0  0  0  0  0  0  0  0  0
   -5.9794   -1.2111    1.6226 H   0  0  0  0  0  0  0  0  0  0  0  0
   -4.3018   -0.0216   -2.9622 H   0  0  0  0  0  0  0  0  0  0  0  0
   -2.7311   -0.3163   -2.2285 H   0  0  0  0  0  0  0  0  0  0  0  0
   -2.9969    1.1014   -3.3307 H   0  0  0  0  0  0  0  0  0  0  0  0
  1  7  1  0  0  0  0
  1  9  1  0  0  0  0
  2  8  1  0  0  0  0
  2 43  1  0  0  0  0
  3  6  1  0  0  0  0
  3 18  1  0  0  0  0
  4 22  1  0  0  0  0
  4 30  1  0  0  0  0
  5 12  1  0  0  0  0
  5 15  1  0  0  0  0
  5 42  1  0  0  0  0
  6 14  2  0  0  0  0
  7  8  1  0  0  0  0
  7 12  1  0  0  0  0
  7 31  1  0  0  0  0
  8 10  1  0  0  0  0
  8 32  1  0  0  0  0
  9 11  1  0  0  0  0
  9 13  1  0  0  0  0
  9 33  1  0  0  0  0
 10 11  1  0  0  0  0
 10 34  1  0  0  0  0
 10 35  1  0  0  0  0
 11 36  1  0  0  0  0
 11 37  1  0  0  0  0
 12 38  1  0  0  0  0
 12 39  1  0  0  0  0
 13 14  1  0  0  0  0
 13 40  1  0  0  0  0
 13 41  1  0  0  0  0
 14 16  1  0  0  0  0
 15 17  1  0  0  0  0
 15 44  1  0  0  0  0
 15 45  1  0  0  0  0
 16 18  2  0  0  0  0
 16 46  1  0  0  0  0
 17 20  2  0  0  0  0
 17 21  1  0  0  0  0
 18 19  1  0  0  0  0
 19 24  2  0  0  0  0
 19 25  1  0  0  0  0
 20 22  1  0  0  0  0
 20 47  1  0  0  0  0
 21 23  2  0  0  0  0
 21 48  1  0  0  0  0
 22 26  2  0  0  0  0
 23 26  1  0  0  0  0
 23 49  1  0  0  0  0
 24 27  1  0  0  0  0
 24 50  1  0  0  0  0
 25 28  2  0  0  0  0
 25 51  1  0  0  0  0
 26 52  1  0  0  0  0
 27 29  2  0  0  0  0
 27 53  1  0  0  0  0
 28 29  1  0  0  0  0
 28 54  1  0  0  0  0
 29 55  1  0  0  0  0
 30 56  1  0  0  0  0
 30 57  1  0  0  0  0
 30 58  1  0  0  0  0
M  END
> <PUBCHEM_COMPOUND_CID>
75536320

> <PUBCHEM_CONFORMER_RMSD>
1.2

> <PUBCHEM_CONFORMER_DIVERSEORDER>
1
120
41
69
138
86
106
77
85
144
19
72
109
47
14
46
148
79
15
136
131
17
21
128
146
67
63
108
78
74
49
54
145
27
126
110
34
133
139
23
116
147
20
52
143
70
127
124
149
117
111
99
32
37
107
68
40
59
43
103
123
81
51
60
62
104
121
102
97
135
26
61
11
33
38
3
122
125
118
83
98
2
44
65
66
152
100
71
80
45
92
73
134
89
64
36
90
13
22
151
76
101
96
130
115
16
140
24
75
93
56
95
35
8
53
30
132
114
12
129
87
58
84
29
57
39
137
48
31
88
28
7
94
9
150
112
119
141
113
105
6
42
82
55
25
142
4
50
18
91
5
10

> <PUBCHEM_MMFF94_PARTIAL_CHARGES>
40
1 -0.56
12 0.27
13 0.18
14 0.11
15 0.41
16 -0.15
17 -0.14
18 0.09
19 0.05
2 -0.68
20 -0.15
21 -0.15
22 0.08
23 -0.15
24 -0.15
25 -0.15
26 -0.15
27 -0.15
28 -0.15
29 -0.15
3 -0.02
30 0.28
4 -0.36
42 0.36
43 0.4
46 0.15
47 0.15
48 0.15
49 0.15
5 -0.9
50 0.15
51 0.15
52 0.15
53 0.15
54 0.15
55 0.15
6 -0.41
7 0.28
8 0.28
9 0.28

> <PUBCHEM_EFFECTIVE_ROTOR_COUNT>
9.2

> <PUBCHEM_PHARMACOPHORE_FEATURES>
11
1 1 acceptor
1 2 acceptor
1 2 donor
1 4 acceptor
1 5 cation
1 5 donor
1 6 acceptor
5 3 6 14 16 18 rings
6 1 7 8 9 10 11 rings
6 17 20 21 22 23 26 rings
6 19 24 25 27 28 29 rings

> <PUBCHEM_HEAVY_ATOM_COUNT>
30

> <PUBCHEM_ATOM_DEF_STEREO_COUNT>
3

> <PUBCHEM_ATOM_UDEF_STEREO_COUNT>
0

> <PUBCHEM_BOND_DEF_STEREO_COUNT>
0

> <PUBCHEM_BOND_UDEF_STEREO_COUNT>
0

> <PUBCHEM_ISOTOPIC_ATOM_COUNT>
0

> <PUBCHEM_COMPONENT_COUNT>
1

> <PUBCHEM_CACTVS_TAUTO_COUNT>
1

> <PUBCHEM_CONFORMER_ID>
048097C000000001

> <PUBCHEM_MMFF94_ENERGY>
69.1621

> <PUBCHEM_FEATURE_SELFOVERLAP>
55.824

> <PUBCHEM_SHAPE_FINGERPRINT>
10006869 2 18264765463887218179
10670039 82 18262537943808078654
11513181 2 17987794086297440430
12107698 1 18187925135912149680
12156800 1 17907340655882073205
12422481 6 18192743127314698337
12788726 201 18193857039730713084
13075007 39 17608957582881153539
13402501 40 18408605872491652939
14363568 33 17830756595721394793
14840074 17 18266754651650337872
20764821 26 18337117765094273632
21796203 349 17829931889144771408
3052486 1 18260271837347423628
338550 245 18334588961660602492
392239 28 18410578392009449529
437795 51 18190449477883240021
463206 1 18122065574587686851
469060 322 16805898320363908455
5081480 168 16914564063886019942
508706 21 18410292488773770110
56638632 10 17916019242778296968
57527585 103 17531833319108571619
653340 110 18341618083730906616

> <PUBCHEM_SHAPE_MULTIPOLES>
583.95
11.21
4.43
1.59
11.04
1.82
-0.32
-1.95
1.92
-3.06
0.02
-1.39
0.05
1.24

> <PUBCHEM_SHAPE_SELFOVERLAP>
1248.252

> <PUBCHEM_SHAPE_VOLUME>
324.1

> <PUBCHEM_COORDINATE_TYPE>
2
5
10

$$$$
