44716236
  -OEChem-12032416253D

 58 62  0     1  0  0  0  0  0999 V2000
   -3.9029    3.4346   -0.5547 S   0  0  0  0  0  0  0  0  0  0  0  0
    1.3226   -1.2206    1.8675 O   0  0  0  0  0  0  0  0  0  0  0  0
    4.4775    2.0459    0.9809 O   0  0  0  0  0  0  0  0  0  0  0  0
   -0.7547   -3.9371    0.0073 N   0  0  2  0  0  0  0  0  0  0  0  0
   -3.0993   -0.9870    0.6939 N   0  0  0  0  0  0  0  0  0  0  0  0
    3.2973   -1.3571    0.6420 N   0  0  0  0  0  0  0  0  0  0  0  0
   -4.0639   -1.0724   -0.2365 N   0  0  0  0  0  0  0  0  0  0  0  0
   -4.6587    0.1139   -0.2979 N   0  0  0  0  0  0  0  0  0  0  0  0
    0.8122   -2.2340   -1.1827 C   0  0  2  0  0  0  0  0  0  0  0  0
   -1.4819   -2.6626   -0.2356 C   0  0  2  0  0  0  0  0  0  0  0  0
    1.4715   -2.8055    0.0872 C   0  0  2  0  0  0  0  0  0  0  0  0
   -0.5327   -1.5837   -0.8014 C   0  0  0  0  0  0  0  0  0  0  0  0
    0.4988   -3.4315   -2.0977 C   0  0  0  0  0  0  0  0  0  0  0  0
    0.4551   -3.6905    0.8304 C   0  0  0  0  0  0  0  0  0  0  0  0
   -0.3187   -4.4706   -1.3075 C   0  0  0  0  0  0  0  0  0  0  0  0
   -2.2272   -2.1702    1.0068 C   0  0  0  0  0  0  0  0  0  0  0  0
    2.0025   -1.7181    0.9738 C   0  0  0  0  0  0  0  0  0  0  0  0
   -3.0495    0.2530    1.2527 C   0  0  0  0  0  0  0  0  0  0  0  0
    4.0289   -0.3175    1.3294 C   0  0  0  0  0  0  0  0  0  0  0  0
   -4.0492    0.9370    0.6079 C   0  0  0  0  0  0  0  0  0  0  0  0
    4.3919    0.8145    0.4124 C   0  0  0  0  0  0  0  0  0  0  0  0
   -4.4796    2.3301    0.7825 C   0  0  0  0  0  0  0  0  0  0  0  0
    4.6689    0.8831   -0.9332 C   0  0  0  0  0  0  0  0  0  0  0  0
    4.9425    2.2440   -1.2093 C   0  0  0  0  0  0  0  0  0  0  0  0
    4.8129    2.9101   -0.0126 C   0  0  0  0  0  0  0  0  0  0  0  0
   -2.1382    3.1616   -0.4868 C   0  0  0  0  0  0  0  0  0  0  0  0
   -1.4324    3.4479    0.6817 C   0  0  0  0  0  0  0  0  0  0  0  0
   -1.4666    2.6624   -1.6027 C   0  0  0  0  0  0  0  0  0  0  0  0
   -0.0547    3.2350    0.7344 C   0  0  0  0  0  0  0  0  0  0  0  0
   -0.0892    2.4494   -1.5501 C   0  0  0  0  0  0  0  0  0  0  0  0
    0.6168    2.7358   -0.3817 C   0  0  0  0  0  0  0  0  0  0  0  0
    1.4585   -1.5097   -1.6899 H   0  0  0  0  0  0  0  0  0  0  0  0
   -2.2454   -2.8708   -0.9990 H   0  0  0  0  0  0  0  0  0  0  0  0
    2.3152   -3.4436   -0.2129 H   0  0  0  0  0  0  0  0  0  0  0  0
   -0.9859   -1.1329   -1.6935 H   0  0  0  0  0  0  0  0  0  0  0  0
   -0.3637   -0.7677   -0.0907 H   0  0  0  0  0  0  0  0  0  0  0  0
   -0.0664   -3.0950   -2.9752 H   0  0  0  0  0  0  0  0  0  0  0  0
    1.4268   -3.8869   -2.4627 H   0  0  0  0  0  0  0  0  0  0  0  0
    0.9251   -4.6583    1.0524 H   0  0  0  0  0  0  0  0  0  0  0  0
    0.1667   -3.3039    1.8131 H   0  0  0  0  0  0  0  0  0  0  0  0
   -1.1926   -4.7812   -1.8934 H   0  0  0  0  0  0  0  0  0  0  0  0
    0.2728   -5.3831   -1.1594 H   0  0  0  0  0  0  0  0  0  0  0  0
   -2.9135   -2.9290    1.4000 H   0  0  0  0  0  0  0  0  0  0  0  0
   -1.5583   -1.8440    1.8097 H   0  0  0  0  0  0  0  0  0  0  0  0
    3.7716   -1.8441   -0.1131 H   0  0  0  0  0  0  0  0  0  0  0  0
   -2.3414    0.5267    2.0220 H   0  0  0  0  0  0  0  0  0  0  0  0
    3.4465    0.0556    2.1781 H   0  0  0  0  0  0  0  0  0  0  0  0
    4.9462   -0.7721    1.7177 H   0  0  0  0  0  0  0  0  0  0  0  0
   -4.1402    2.7282    1.7446 H   0  0  0  0  0  0  0  0  0  0  0  0
   -5.5739    2.3771    0.7948 H   0  0  0  0  0  0  0  0  0  0  0  0
    4.6751    0.0592   -1.6326 H   0  0  0  0  0  0  0  0  0  0  0  0
    5.2011    2.6846   -2.1612 H   0  0  0  0  0  0  0  0  0  0  0  0
    4.9198    3.9435    0.2833 H   0  0  0  0  0  0  0  0  0  0  0  0
   -1.9330    3.8443    1.5613 H   0  0  0  0  0  0  0  0  0  0  0  0
   -2.0003    2.4314   -2.5213 H   0  0  0  0  0  0  0  0  0  0  0  0
    0.4955    3.4581    1.6438 H   0  0  0  0  0  0  0  0  0  0  0  0
    0.4339    2.0581   -2.4179 H   0  0  0  0  0  0  0  0  0  0  0  0
    1.6879    2.5682   -0.3405 H   0  0  0  0  0  0  0  0  0  0  0  0
  1 22  1  0  0  0  0
  1 26  1  0  0  0  0
  2 17  2  0  0  0  0
  3 21  1  0  0  0  0
  3 25  1  0  0  0  0
  4 10  1  0  0  0  0
  4 14  1  0  0  0  0
  4 15  1  0  0  0  0
  5  7  1  0  0  0  0
  5 16  1  0  0  0  0
  5 18  1  0  0  0  0
  6 17  1  0  0  0  0
  6 19  1  0  0  0  0
  6 45  1  0  0  0  0
  7  8  2  0  0  0  0
  8 20  1  0  0  0  0
  9 11  1  0  0  0  0
  9 12  1  0  0  0  0
  9 13  1  0  0  0  0
  9 32  1  0  0  0  0
 10 12  1  0  0  0  0
 10 16  1  0  0  0  0
 10 33  1  0  0  0  0
 11 14  1  0  0  0  0
 11 17  1  0  0  0  0
 11 34  1  0  0  0  0
 12 35  1  0  0  0  0
 12 36  1  0  0  0  0
 13 15  1  0  0  0  0
 13 37  1  0  0  0  0
 13 38  1  0  0  0  0
 14 39  1  0  0  0  0
 14 40  1  0  0  0  0
 15 41  1  0  0  0  0
 15 42  1  0  0  0  0
 16 43  1  0  0  0  0
 16 44  1  0  0  0  0
 18 20  2  0  0  0  0
 18 46  1  0  0  0  0
 19 21  1  0  0  0  0
 19 47  1  0  0  0  0
 19 48  1  0  0  0  0
 20 22  1  0  0  0  0
 21 23  2  0  0  0  0
 22 49  1  0  0  0  0
 22 50  1  0  0  0  0
 23 24  1  0  0  0  0
 23 51  1  0  0  0  0
 24 25  2  0  0  0  0
 24 52  1  0  0  0  0
 25 53  1  0  0  0  0
 26 27  2  0  0  0  0
 26 28  1  0  0  0  0
 27 29  1  0  0  0  0
 27 54  1  0  0  0  0
 28 30  2  0  0  0  0
 28 55  1  0  0  0  0
 29 31  2  0  0  0  0
 29 56  1  0  0  0  0
 30 31  1  0  0  0  0
 30 57  1  0  0  0  0
 31 58  1  0  0  0  0
M  END
> <PUBCHEM_COMPOUND_CID>
44716236

> <PUBCHEM_CONFORMER_RMSD>
1.4

> <PUBCHEM_CONFORMER_DIVERSEORDER>
1
67
142
7
124
10
110
129
4
140
20
57
41
100
47
6
90
102
18
144
64
137
62
73
107
143
42
119
84
134
19
131
77
28
49
27
133
132
26
136
69
86
81
11
12
123
70
9
83
113
146
8
23
126
76
61
139
56
99
22
96
141
58
14
101
30
138
116
16
2
106
95
114
108
36
78
55
82
118
109
35
24
117
115
31
122
145
40
85
50
3
103
59
43
33
63
65
121
60
93
72
45
32
120
46
125
71
112
75
127
66
34
37
79
53
104
15
135
52
98
94
92
51
130
87
44
5
105
74
111
128
38
17
39
68
54
29
88
89
25
21
97
48
80
13
91

> <PUBCHEM_MMFF94_PARTIAL_CHARGES>
38
1 -0.33
10 0.27
11 0.06
14 0.27
15 0.27
16 0.26
17 0.57
18 -0.3
19 0.48
2 -0.57
20 0.05
21 -0.04
22 0.41
23 -0.15
24 -0.15
25 -0.01
26 0.1
27 -0.15
28 -0.15
29 -0.15
3 -0.28
30 -0.15
31 -0.15
4 -0.81
45 0.37
46 0.15
5 0.31
51 0.15
52 0.15
53 0.15
54 0.15
55 0.15
56 0.15
57 0.15
58 0.15
6 -0.73
7 -0.42
8 -0.23

> <PUBCHEM_EFFECTIVE_ROTOR_COUNT>
10.2

> <PUBCHEM_PHARMACOPHORE_FEATURES>
8
1 2 acceptor
1 3 acceptor
1 4 cation
1 6 donor
5 3 21 23 24 25 rings
5 5 7 8 18 20 rings
6 26 27 28 29 30 31 rings
8 4 9 10 11 12 13 14 15 rings

> <PUBCHEM_HEAVY_ATOM_COUNT>
31

> <PUBCHEM_ATOM_DEF_STEREO_COUNT>
2

> <PUBCHEM_ATOM_UDEF_STEREO_COUNT>
1

> <PUBCHEM_BOND_DEF_STEREO_COUNT>
0

> <PUBCHEM_BOND_UDEF_STEREO_COUNT>
0

> <PUBCHEM_ISOTOPIC_ATOM_COUNT>
0

> <PUBCHEM_COMPONENT_COUNT>
1

> <PUBCHEM_CACTVS_TAUTO_COUNT>
2

> <PUBCHEM_CONFORMER_ID>
02AA50CC00000001

> <PUBCHEM_MMFF94_ENERGY>
56.0312

> <PUBCHEM_FEATURE_SELFOVERLAP>
40.597

> <PUBCHEM_SHAPE_FINGERPRINT>
10670039 82 18409737274663039068
10864689 126 18412266138607509104
10871710 139 18339358698799228415
11014199 57 17474108078071213330
11513181 2 18272375265098066110
12788726 201 18119251911969734092
14114211 80 18201453471013887977
14251757 5 18195256726654442028
144659 178 16822495774439705260
14790565 3 18410295817426808588
14840074 17 18261688054899310993
14930077 153 17900286361921427972
14950920 106 17385713712703284170
15001296 14 18190180272541552808
15297060 5 18201730522174621760
15975801 100 17388841690614704286
20764821 26 18267573611698448105
22113638 7 18193277622698300181
23559900 14 17834954174712923217
25265897 201 17626421104579408718
5047190 48 18408325462472172637
5081480 168 16768739031954760014
5265222 85 18337404832319974909
6287921 2 18052544265827165173
6608658 132 18196926897285185078
9982175 49 17244432120938623556

> <PUBCHEM_SHAPE_MULTIPOLES>
605.17
9.23
6.79
1.56
3.08
2.71
0.27
-9.02
-1.33
0.21
1.74
0.46
0.4
0.02

> <PUBCHEM_SHAPE_SELFOVERLAP>
1289.218

> <PUBCHEM_SHAPE_VOLUME>
339.4

> <PUBCHEM_COORDINATE_TYPE>
2
5
10

$$$$
