7051759
  -OEChem-12032416113D

 46 50  0     1  0  0  0  0  0999 V2000
    1.3961    3.8277   -0.4715 S   0  0  0  0  0  0  0  0  0  0  0  0
    1.9855   -2.7740    2.4308 O   0  0  0  0  0  0  0  0  0  0  0  0
    3.6576    1.3272   -0.0459 O   0  0  0  0  0  0  0  0  0  0  0  0
    1.9208    0.4423   -1.3372 N   0  0  0  0  0  0  0  0  0  0  0  0
    0.9539   -1.9347    0.5028 N   0  0  0  0  0  0  0  0  0  0  0  0
   -4.6419   -0.6651   -0.8711 N   0  0  0  0  0  0  0  0  0  0  0  0
    2.1263   -1.9913   -1.7787 C   0  0  1  0  0  0  0  0  0  0  0  0
   -0.1059   -0.9789   -1.5660 C   0  0  2  0  0  0  0  0  0  0  0  0
    0.7127   -2.0109   -2.3409 C   0  0  0  0  0  0  0  0  0  0  0  0
    2.7540   -0.5964   -1.9399 C   0  0  0  0  0  0  0  0  0  0  0  0
    2.0719   -2.4296   -0.3140 C   0  0  0  0  0  0  0  0  0  0  0  0
    0.5129    0.4225   -1.7605 C   0  0  0  0  0  0  0  0  0  0  0  0
   -0.1740   -1.3179   -0.0749 C   0  0  0  0  0  0  0  0  0  0  0  0
   -1.2514   -1.0178    0.6964 C   0  0  0  0  0  0  0  0  0  0  0  0
    1.0325   -2.2259    1.8762 C   0  0  0  0  0  0  0  0  0  0  0  0
    2.4790    1.3130   -0.3981 C   0  0  0  0  0  0  0  0  0  0  0  0
   -1.2045   -1.2995    2.1183 C   0  0  0  0  0  0  0  0  0  0  0  0
   -0.1396   -1.8515    2.6997 C   0  0  0  0  0  0  0  0  0  0  0  0
   -2.4663   -0.3930    0.1281 C   0  0  0  0  0  0  0  0  0  0  0  0
    1.5987    2.2919    0.2507 C   0  0  0  0  0  0  0  0  0  0  0  0
   -2.5848    0.9855    0.0550 C   0  0  0  0  0  0  0  0  0  0  0  0
   -3.5059   -1.1713   -0.3408 C   0  0  0  0  0  0  0  0  0  0  0  0
    0.8740    2.1577    1.4098 C   0  0  0  0  0  0  0  0  0  0  0  0
   -3.7385    1.5437   -0.4843 C   0  0  0  0  0  0  0  0  0  0  0  0
    0.1363    3.3383    1.7132 C   0  0  0  0  0  0  0  0  0  0  0  0
    0.3292    4.3253    0.7720 C   0  0  0  0  0  0  0  0  0  0  0  0
   -4.7287    0.6827   -0.9293 C   0  0  0  0  0  0  0  0  0  0  0  0
    2.7525   -2.7025   -2.3314 H   0  0  0  0  0  0  0  0  0  0  0  0
   -1.1081   -0.9744   -2.0087 H   0  0  0  0  0  0  0  0  0  0  0  0
    0.2697   -3.0101   -2.2448 H   0  0  0  0  0  0  0  0  0  0  0  0
    0.7235   -1.7661   -3.4101 H   0  0  0  0  0  0  0  0  0  0  0  0
    3.7621   -0.5831   -1.5122 H   0  0  0  0  0  0  0  0  0  0  0  0
    2.8516   -0.3502   -3.0042 H   0  0  0  0  0  0  0  0  0  0  0  0
    1.9953   -3.5254   -0.2813 H   0  0  0  0  0  0  0  0  0  0  0  0
    3.0132   -2.1809    0.1927 H   0  0  0  0  0  0  0  0  0  0  0  0
    0.5007    0.6895   -2.8247 H   0  0  0  0  0  0  0  0  0  0  0  0
   -0.0705    1.1829   -1.2423 H   0  0  0  0  0  0  0  0  0  0  0  0
   -2.0666   -1.0350    2.7235 H   0  0  0  0  0  0  0  0  0  0  0  0
   -0.1108   -2.0524    3.7639 H   0  0  0  0  0  0  0  0  0  0  0  0
   -1.8025    1.6410    0.4165 H   0  0  0  0  0  0  0  0  0  0  0  0
   -3.4674   -2.2560   -0.3094 H   0  0  0  0  0  0  0  0  0  0  0  0
    0.8715    1.2629    2.0181 H   0  0  0  0  0  0  0  0  0  0  0  0
   -3.8593    2.6188   -0.5524 H   0  0  0  0  0  0  0  0  0  0  0  0
   -0.5033    3.4571    2.5780 H   0  0  0  0  0  0  0  0  0  0  0  0
   -0.1057    5.3147    0.7549 H   0  0  0  0  0  0  0  0  0  0  0  0
   -5.6482    1.0680   -1.3577 H   0  0  0  0  0  0  0  0  0  0  0  0
  1 20  1  0  0  0  0
  1 26  1  0  0  0  0
  2 15  2  0  0  0  0
  3 16  2  0  0  0  0
  4 10  1  0  0  0  0
  4 12  1  0  0  0  0
  4 16  1  0  0  0  0
  5 11  1  0  0  0  0
  5 13  1  0  0  0  0
  5 15  1  0  0  0  0
  6 22  1  0  0  0  0
  6 27  2  0  0  0  0
  7  9  1  0  0  0  0
  7 10  1  0  0  0  0
  7 11  1  0  0  0  0
  7 28  1  0  0  0  0
  8  9  1  0  0  0  0
  8 12  1  0  0  0  0
  8 13  1  0  0  0  0
  8 29  1  0  0  0  0
  9 30  1  0  0  0  0
  9 31  1  0  0  0  0
 10 32  1  0  0  0  0
 10 33  1  0  0  0  0
 11 34  1  0  0  0  0
 11 35  1  0  0  0  0
 12 36  1  0  0  0  0
 12 37  1  0  0  0  0
 13 14  2  0  0  0  0
 14 17  1  0  0  0  0
 14 19  1  0  0  0  0
 15 18  1  0  0  0  0
 16 20  1  0  0  0  0
 17 18  2  0  0  0  0
 17 38  1  0  0  0  0
 18 39  1  0  0  0  0
 19 21  1  0  0  0  0
 19 22  2  0  0  0  0
 20 23  2  0  0  0  0
 21 24  2  0  0  0  0
 21 40  1  0  0  0  0
 22 41  1  0  0  0  0
 23 25  1  0  0  0  0
 23 42  1  0  0  0  0
 24 27  1  0  0  0  0
 24 43  1  0  0  0  0
 25 26  2  0  0  0  0
 25 44  1  0  0  0  0
 26 45  1  0  0  0  0
 27 46  1  0  0  0  0
M  END
> <PUBCHEM_COMPOUND_CID>
7051759

> <PUBCHEM_CONFORMER_RMSD>
0.8

> <PUBCHEM_CONFORMER_DIVERSEORDER>
1
8
12
9
4
11
7
10
3
6
2
5

> <PUBCHEM_MMFF94_PARTIAL_CHARGES>
34
1 -0.08
10 0.3
11 0.3
12 0.3
13 -0.03
14 -0.03
15 0.62
16 0.71
17 -0.15
18 -0.14
19 0.03
2 -0.57
20 -0.05
21 -0.15
22 0.16
23 -0.15
24 -0.15
25 -0.15
26 -0.11
27 0.16
3 -0.57
38 0.15
39 0.15
4 -0.66
40 0.15
41 0.15
42 0.15
43 0.15
44 0.15
45 0.15
46 0.15
5 -0.47
6 -0.62
8 0.14

> <PUBCHEM_EFFECTIVE_ROTOR_COUNT>
4

> <PUBCHEM_PHARMACOPHORE_FEATURES>
8
1 2 acceptor
1 3 acceptor
1 6 acceptor
5 1 20 23 25 26 rings
6 4 7 8 9 10 12 rings
6 5 13 14 15 17 18 rings
6 5 7 8 9 11 13 rings
6 6 19 21 22 24 27 rings

> <PUBCHEM_HEAVY_ATOM_COUNT>
27

> <PUBCHEM_ATOM_DEF_STEREO_COUNT>
2

> <PUBCHEM_ATOM_UDEF_STEREO_COUNT>
0

> <PUBCHEM_BOND_DEF_STEREO_COUNT>
0

> <PUBCHEM_BOND_UDEF_STEREO_COUNT>
0

> <PUBCHEM_ISOTOPIC_ATOM_COUNT>
0

> <PUBCHEM_COMPONENT_COUNT>
1

> <PUBCHEM_CACTVS_TAUTO_COUNT>
1

> <PUBCHEM_CONFORMER_ID>
006B99EF00000001

> <PUBCHEM_MMFF94_ENERGY>
77.0498

> <PUBCHEM_FEATURE_SELFOVERLAP>
42.182

> <PUBCHEM_SHAPE_FINGERPRINT>
107951 10 17755857863774476336
10930396 42 18128511913468815344
11221954 11 17977670032442456709
11582403 64 18192415592597157703
11725454 13 18118953922342207839
12156800 1 15220006552399111433
12788726 201 17907030473248996892
13009979 54 17466503409077584963
13294875 104 18187356640665507323
1361 2 17264120053665286165
14142880 1 15824956200775749000
14251764 3 18049449437264165595
16945 1 18195550265919772710
17974551 9 17461146927745067312
17980427 23 17768485600432704515
19930381 70 17986674985840693733
20600515 1 17617632394405645273
20691752 17 17603590677773764421
20905425 154 18266444439237827769
21860390 5 18267559399989165373
23419403 2 17689757393882006091
23559900 14 18060131042889425087
238 59 17984992745534139221
2803657 2 17685794418667163568
3052486 1 17403455170199116633
35225 105 17031036747501812257
513532 50 17985517041199024245
57527295 17 18265072265784978671
5895379 119 17699284365915933649
84936 182 18187078438859960715

> <PUBCHEM_SHAPE_MULTIPOLES>
532.82
5.5
4.56
2.43
7.09
4.61
-0.94
0.55
2.59
-3.01
-1.61
-0.82
-1.8
0.41

> <PUBCHEM_SHAPE_SELFOVERLAP>
1169.897

> <PUBCHEM_SHAPE_VOLUME>
288.4

> <PUBCHEM_COORDINATE_TYPE>
2
5
10

$$$$
