25388766
  -OEChem-12032416163D

 59 61  0     1  0  0  0  0  0999 V2000
   -8.3117    0.6505   -0.0172 F   0  0  0  0  0  0  0  0  0  0  0  0
   -6.7637   -0.2179    1.2577 F   0  0  0  0  0  0  0  0  0  0  0  0
   -6.7918    1.9553    0.8564 F   0  0  0  0  0  0  0  0  0  0  0  0
   -0.1063   -0.4229    1.2171 O   0  0  0  0  0  0  0  0  0  0  0  0
   -6.2108    0.5269   -0.8330 O   0  0  0  0  0  0  0  0  0  0  0  0
    4.6617   -2.0048    0.7527 N   0  0  2  0  0  0  0  0  0  0  0  0
    4.1826    2.7125   -0.2492 N   0  0  1  0  0  0  0  0  0  0  0  0
    0.9120   -2.3381    0.4205 N   0  0  0  0  0  0  0  0  0  0  0  0
   -1.2346   -1.8902   -0.2266 N   0  0  0  0  0  0  0  0  0  0  0  0
    4.4964   -0.1236   -1.0364 C   0  0  2  0  0  0  0  0  0  0  0  0
    4.9448    0.4498    0.3272 C   0  0  2  0  0  0  0  0  0  0  0  0
    3.3285   -2.0447    0.0931 C   0  0  2  0  0  0  0  0  0  0  0  0
    3.1480   -0.8475   -0.8666 C   0  0  0  0  0  0  0  0  0  0  0  0
    4.8857   -0.6798    1.3801 C   0  0  0  0  0  0  0  0  0  0  0  0
    5.5371   -1.1859   -1.4391 C   0  0  0  0  0  0  0  0  0  0  0  0
    5.6947   -2.2013   -0.2933 C   0  0  0  0  0  0  0  0  0  0  0  0
    4.1357    1.6690    0.7634 C   0  0  0  0  0  0  0  0  0  0  0  0
    2.1813   -2.1428    1.1013 C   0  0  0  0  0  0  0  0  0  0  0  0
    3.0387    3.6180   -0.1145 C   0  0  0  0  0  0  0  0  0  0  0  0
    5.4360    3.4658   -0.1601 C   0  0  0  0  0  0  0  0  0  0  0  0
   -0.1513   -1.4442    0.5354 C   0  0  0  0  0  0  0  0  0  0  0  0
    1.7856    3.0094   -0.6648 C   0  0  0  0  0  0  0  0  0  0  0  0
    0.6872    2.7736    0.0619 C   0  0  0  0  0  0  0  0  0  0  0  0
   -2.4992   -1.2756   -0.3805 C   0  0  0  0  0  0  0  0  0  0  0  0
   -3.4695   -1.8696   -1.1877 C   0  0  0  0  0  0  0  0  0  0  0  0
   -2.7765   -0.0757    0.2749 C   0  0  0  0  0  0  0  0  0  0  0  0
   -4.7166   -1.2639   -1.3398 C   0  0  0  0  0  0  0  0  0  0  0  0
   -4.0236    0.5301    0.1227 C   0  0  0  0  0  0  0  0  0  0  0  0
   -4.9936   -0.0640   -0.6846 C   0  0  0  0  0  0  0  0  0  0  0  0
   -7.0068    0.7313    0.3290 C   0  0  0  0  0  0  0  0  0  0  0  0
    4.4310    0.6414   -1.8162 H   0  0  0  0  0  0  0  0  0  0  0  0
    5.9992    0.7442    0.2365 H   0  0  0  0  0  0  0  0  0  0  0  0
    3.2849   -2.9654   -0.5077 H   0  0  0  0  0  0  0  0  0  0  0  0
    2.3864   -0.1459   -0.5137 H   0  0  0  0  0  0  0  0  0  0  0  0
    2.8060   -1.2150   -1.8426 H   0  0  0  0  0  0  0  0  0  0  0  0
    5.8336   -0.7051    1.9341 H   0  0  0  0  0  0  0  0  0  0  0  0
    4.1257   -0.4861    2.1449 H   0  0  0  0  0  0  0  0  0  0  0  0
    6.5026   -0.7129   -1.6532 H   0  0  0  0  0  0  0  0  0  0  0  0
    5.2155   -1.6973   -2.3544 H   0  0  0  0  0  0  0  0  0  0  0  0
    5.6361   -3.2227   -0.6894 H   0  0  0  0  0  0  0  0  0  0  0  0
    6.6943   -2.1171    0.1519 H   0  0  0  0  0  0  0  0  0  0  0  0
    4.5018    2.0379    1.7316 H   0  0  0  0  0  0  0  0  0  0  0  0
    3.1071    1.3427    0.9553 H   0  0  0  0  0  0  0  0  0  0  0  0
    2.1198   -1.2581    1.7419 H   0  0  0  0  0  0  0  0  0  0  0  0
    2.3216   -3.0148    1.7500 H   0  0  0  0  0  0  0  0  0  0  0  0
    0.7846   -3.1860   -0.1232 H   0  0  0  0  0  0  0  0  0  0  0  0
    3.2115    4.5277   -0.7051 H   0  0  0  0  0  0  0  0  0  0  0  0
    2.9116    3.9479    0.9252 H   0  0  0  0  0  0  0  0  0  0  0  0
    6.3073    2.8243   -0.3228 H   0  0  0  0  0  0  0  0  0  0  0  0
    5.5501    3.9670    0.8081 H   0  0  0  0  0  0  0  0  0  0  0  0
    5.4784    4.2300   -0.9450 H   0  0  0  0  0  0  0  0  0  0  0  0
    1.7750    2.7487   -1.7204 H   0  0  0  0  0  0  0  0  0  0  0  0
   -1.1071   -2.7610   -0.7359 H   0  0  0  0  0  0  0  0  0  0  0  0
   -0.1895    2.3297   -0.3968 H   0  0  0  0  0  0  0  0  0  0  0  0
    0.6436    3.0131    1.1185 H   0  0  0  0  0  0  0  0  0  0  0  0
   -3.2665   -2.8045   -1.7037 H   0  0  0  0  0  0  0  0  0  0  0  0
   -2.0775    0.4451    0.9138 H   0  0  0  0  0  0  0  0  0  0  0  0
   -5.4686   -1.7314   -1.9696 H   0  0  0  0  0  0  0  0  0  0  0  0
   -4.2248    1.4684    0.6326 H   0  0  0  0  0  0  0  0  0  0  0  0
  1 30  1  0  0  0  0
  2 30  1  0  0  0  0
  3 30  1  0  0  0  0
  4 21  2  0  0  0  0
  5 29  1  0  0  0  0
  5 30  1  0  0  0  0
  6 12  1  0  0  0  0
  6 14  1  0  0  0  0
  6 16  1  0  0  0  0
  7 17  1  0  0  0  0
  7 19  1  0  0  0  0
  7 20  1  0  0  0  0
  8 18  1  0  0  0  0
  8 21  1  0  0  0  0
  8 46  1  0  0  0  0
  9 21  1  0  0  0  0
  9 24  1  0  0  0  0
  9 53  1  0  0  0  0
 10 11  1  0  0  0  0
 10 13  1  0  0  0  0
 10 15  1  0  0  0  0
 10 31  1  0  0  0  0
 11 14  1  0  0  0  0
 11 17  1  0  0  0  0
 11 32  1  0  0  0  0
 12 13  1  0  0  0  0
 12 18  1  0  0  0  0
 12 33  1  0  0  0  0
 13 34  1  0  0  0  0
 13 35  1  0  0  0  0
 14 36  1  0  0  0  0
 14 37  1  0  0  0  0
 15 16  1  0  0  0  0
 15 38  1  0  0  0  0
 15 39  1  0  0  0  0
 16 40  1  0  0  0  0
 16 41  1  0  0  0  0
 17 42  1  0  0  0  0
 17 43  1  0  0  0  0
 18 44  1  0  0  0  0
 18 45  1  0  0  0  0
 19 22  1  0  0  0  0
 19 47  1  0  0  0  0
 19 48  1  0  0  0  0
 20 49  1  0  0  0  0
 20 50  1  0  0  0  0
 20 51  1  0  0  0  0
 22 23  2  0  0  0  0
 22 52  1  0  0  0  0
 23 54  1  0  0  0  0
 23 55  1  0  0  0  0
 24 25  2  0  0  0  0
 24 26  1  0  0  0  0
 25 27  1  0  0  0  0
 25 56  1  0  0  0  0
 26 28  2  0  0  0  0
 26 57  1  0  0  0  0
 27 29  2  0  0  0  0
 27 58  1  0  0  0  0
 28 29  1  0  0  0  0
 28 59  1  0  0  0  0
M  END
> <PUBCHEM_COMPOUND_CID>
25388766

> <PUBCHEM_CONFORMER_RMSD>
1.2

> <PUBCHEM_CONFORMER_DIVERSEORDER>
1
22
16
9
20
13
4
18
15
21
2
14
12
19
8
17
3
7
11
6
10
5

> <PUBCHEM_MMFF94_PARTIAL_CHARGES>
35
1 -0.34
12 0.27
14 0.27
16 0.27
17 0.27
18 0.3
19 0.41
2 -0.34
20 0.27
21 0.69
22 -0.29
23 -0.3
24 0.12
25 -0.15
26 -0.15
27 -0.15
28 -0.15
29 0.08
3 -0.34
30 1.3
4 -0.57
46 0.37
5 -0.36
52 0.15
53 0.37
54 0.15
55 0.15
56 0.15
57 0.15
58 0.15
59 0.15
6 -0.81
7 -0.81
8 -0.73
9 -0.55

> <PUBCHEM_EFFECTIVE_ROTOR_COUNT>
12.2

> <PUBCHEM_PHARMACOPHORE_FEATURES>
9
1 23 hydrophobe
1 4 acceptor
1 5 acceptor
1 6 cation
1 7 cation
1 8 donor
1 9 donor
6 24 25 26 27 28 29 rings
8 6 10 11 12 13 14 15 16 rings

> <PUBCHEM_HEAVY_ATOM_COUNT>
30

> <PUBCHEM_ATOM_DEF_STEREO_COUNT>
3

> <PUBCHEM_ATOM_UDEF_STEREO_COUNT>
0

> <PUBCHEM_BOND_DEF_STEREO_COUNT>
0

> <PUBCHEM_BOND_UDEF_STEREO_COUNT>
0

> <PUBCHEM_ISOTOPIC_ATOM_COUNT>
0

> <PUBCHEM_COMPONENT_COUNT>
1

> <PUBCHEM_CACTVS_TAUTO_COUNT>
3

> <PUBCHEM_CONFORMER_ID>
018366DE00000001

> <PUBCHEM_MMFF94_ENERGY>
82.7589

> <PUBCHEM_FEATURE_SELFOVERLAP>
45.724

> <PUBCHEM_SHAPE_FINGERPRINT>
10638233 991 18411979148897019289
10675989 125 18336543936580340880
11070050 100 16660635258964527530
11227688 84 17262702787515086863
11456790 92 17968651628008041578
1200032 147 16661223580123352588
13533116 47 18272088318312258424
14117953 113 18201441346669702622
14429380 56 18335971018260091599
14464042 87 18271528606642410977
15001296 14 18409162250976819721
15183329 4 18060142063612313573
15483637 11 17974846172865690428
15840311 113 18409731759904075189
16090146 7 17560814225298671331
16760501 71 18408042935713368403
17899979 129 18411144671232419012
18335252 114 18337947896373602279
20511986 3 17916859248355788484
20554085 129 16153415139841315049
20715895 44 18340200886467812530
21033648 29 17531251716180962842
21298829 104 18341046436469009448
21344244 78 17899110751852111530
21781055 127 16773531988815157675
21860390 5 18340206410143863134
22122407 14 18337966605931378905
23559900 14 18201991157616642379
24771293 8 18270945960623072040
249057 3 18272370854483436502
3004659 81 18131632270816086458
3472631 163 18342739632551132727
3680242 22 18261380157610226080
397830 11 18041852821745433259
4073 2 18189618426288575498
4093350 32 17703794734416816740
437795 51 17967540077586973659
44317340 157 18413110588647425403
5104073 3 17967808400783577963
513532 50 18059298772948940364
5312510 48 18409448119815577324
53794403 172 18116719706283225804
58902169 19 18201993318190973071
5951187 136 18342185474901967406

> <PUBCHEM_SHAPE_MULTIPOLES>
563.9
19.44
3.84
1.18
33.42
3.26
0.04
4.11
0.16
-6.11
0.15
-0.19
-0.38
-1.06

> <PUBCHEM_SHAPE_SELFOVERLAP>
1175.328

> <PUBCHEM_SHAPE_VOLUME>
320.9

> <PUBCHEM_COORDINATE_TYPE>
2
5
10

$$$$
