45361019
  -OEChem-12032416283D

 57 60  0     1  0  0  0  0  0999 V2000
   -7.6505    0.9695    1.4110 S   0  0  0  0  0  0  0  0  0  0  0  0
    2.2268    1.8381    0.9969 O   0  0  0  0  0  0  0  0  0  0  0  0
   -4.1926   -0.9771    1.4115 O   0  0  0  0  0  0  0  0  0  0  0  0
    0.7657   -1.6739    0.2754 N   0  0  1  0  0  0  0  0  0  0  0  0
    3.9735    0.0584   -0.0396 N   0  0  1  0  0  0  0  0  0  0  0  0
    0.4535    1.1417   -0.2706 N   0  0  0  0  0  0  0  0  0  0  0  0
    7.2701    0.3355   -0.8429 N   0  0  0  0  0  0  0  0  0  0  0  0
    6.6127    1.6580    0.8155 N   0  0  0  0  0  0  0  0  0  0  0  0
   -5.2863   -1.1800   -0.6260 N   0  0  0  0  0  0  0  0  0  0  0  0
    2.1042   -1.4643   -0.3195 C   0  0  1  0  0  0  0  0  0  0  0  0
    2.5917   -0.0039   -0.5518 C   0  0  1  0  0  0  0  0  0  0  0  0
    3.2571   -2.0590    0.5105 C   0  0  0  0  0  0  0  0  0  0  0  0
    4.4743   -1.3106    0.0097 C   0  0  0  0  0  0  0  0  0  0  0  0
   -0.3642   -1.1785   -0.5593 C   0  0  2  0  0  0  0  0  0  0  0  0
    1.7676    1.0716    0.1513 C   0  0  0  0  0  0  0  0  0  0  0  0
   -0.1380    0.2032   -1.2036 C   0  0  0  0  0  0  0  0  0  0  0  0
    4.8401    0.9315   -0.8210 C   0  0  0  0  0  0  0  0  0  0  0  0
   -1.6574   -1.0937    0.2785 C   0  0  0  0  0  0  0  0  0  0  0  0
    0.5619   -3.0912    0.6203 C   0  0  0  0  0  0  0  0  0  0  0  0
   -2.8817   -1.1820   -0.6137 C   0  0  0  0  0  0  0  0  0  0  0  0
    6.2289    0.9981   -0.2546 C   0  0  0  0  0  0  0  0  0  0  0  0
   -4.1672   -1.0993    0.1897 C   0  0  0  0  0  0  0  0  0  0  0  0
    8.3889    0.5891   -0.1006 C   0  0  0  0  0  0  0  0  0  0  0  0
    7.9582    1.4072    0.9171 C   0  0  0  0  0  0  0  0  0  0  0  0
   -6.6295   -1.1264   -0.0995 C   0  0  0  0  0  0  0  0  0  0  0  0
   -7.1691    0.2745   -0.0782 C   0  0  0  0  0  0  0  0  0  0  0  0
   -7.3489    1.1401   -1.1347 C   0  0  0  0  0  0  0  0  0  0  0  0
   -7.8886    2.3905   -0.7160 C   0  0  0  0  0  0  0  0  0  0  0  0
   -8.1009    2.4328    0.6444 C   0  0  0  0  0  0  0  0  0  0  0  0
    2.1299   -1.9717   -1.2965 H   0  0  0  0  0  0  0  0  0  0  0  0
    2.5809    0.2039   -1.6299 H   0  0  0  0  0  0  0  0  0  0  0  0
    3.3662   -3.1384    0.3625 H   0  0  0  0  0  0  0  0  0  0  0  0
    3.1118   -1.8672    1.5821 H   0  0  0  0  0  0  0  0  0  0  0  0
    5.3126   -1.4330    0.7027 H   0  0  0  0  0  0  0  0  0  0  0  0
    4.7662   -1.6843   -0.9801 H   0  0  0  0  0  0  0  0  0  0  0  0
   -0.5196   -1.8907   -1.3821 H   0  0  0  0  0  0  0  0  0  0  0  0
    0.5101    0.1120   -2.0811 H   0  0  0  0  0  0  0  0  0  0  0  0
   -1.0636    0.6600   -1.5639 H   0  0  0  0  0  0  0  0  0  0  0  0
    4.4367    1.9518   -0.8182 H   0  0  0  0  0  0  0  0  0  0  0  0
    4.8827    0.6137   -1.8715 H   0  0  0  0  0  0  0  0  0  0  0  0
   -1.6768   -0.1643    0.8633 H   0  0  0  0  0  0  0  0  0  0  0  0
   -1.7404   -1.8895    1.0224 H   0  0  0  0  0  0  0  0  0  0  0  0
   -0.1440    1.8520    0.1412 H   0  0  0  0  0  0  0  0  0  0  0  0
   -0.4073   -3.3036    1.0746 H   0  0  0  0  0  0  0  0  0  0  0  0
    1.2867   -3.4230    1.3708 H   0  0  0  0  0  0  0  0  0  0  0  0
    0.6614   -3.7345   -0.2620 H   0  0  0  0  0  0  0  0  0  0  0  0
   -2.8857   -2.1355   -1.1559 H   0  0  0  0  0  0  0  0  0  0  0  0
   -2.9061   -0.3758   -1.3535 H   0  0  0  0  0  0  0  0  0  0  0  0
    7.2233   -0.2396   -1.6736 H   0  0  0  0  0  0  0  0  0  0  0  0
    9.3545    0.1776   -0.3564 H   0  0  0  0  0  0  0  0  0  0  0  0
    8.5484    1.8282    1.7179 H   0  0  0  0  0  0  0  0  0  0  0  0
   -5.1682   -1.2645   -1.6317 H   0  0  0  0  0  0  0  0  0  0  0  0
   -7.2551   -1.7438   -0.7540 H   0  0  0  0  0  0  0  0  0  0  0  0
   -6.6424   -1.5850    0.8957 H   0  0  0  0  0  0  0  0  0  0  0  0
   -7.1070    0.8926   -2.1606 H   0  0  0  0  0  0  0  0  0  0  0  0
   -8.1101    3.2168   -1.3789 H   0  0  0  0  0  0  0  0  0  0  0  0
   -8.4991    3.2532    1.2248 H   0  0  0  0  0  0  0  0  0  0  0  0
  1 26  1  0  0  0  0
  1 29  1  0  0  0  0
  2 15  2  0  0  0  0
  3 22  2  0  0  0  0
  4 10  1  0  0  0  0
  4 14  1  0  0  0  0
  4 19  1  0  0  0  0
  5 11  1  0  0  0  0
  5 13  1  0  0  0  0
  5 17  1  0  0  0  0
  6 15  1  0  0  0  0
  6 16  1  0  0  0  0
  6 43  1  0  0  0  0
  7 21  1  0  0  0  0
  7 23  1  0  0  0  0
  7 49  1  0  0  0  0
  8 21  2  0  0  0  0
  8 24  1  0  0  0  0
  9 22  1  0  0  0  0
  9 25  1  0  0  0  0
  9 52  1  0  0  0  0
 10 11  1  0  0  0  0
 10 12  1  0  0  0  0
 10 30  1  0  0  0  0
 11 15  1  0  0  0  0
 11 31  1  0  0  0  0
 12 13  1  0  0  0  0
 12 32  1  0  0  0  0
 12 33  1  0  0  0  0
 13 34  1  0  0  0  0
 13 35  1  0  0  0  0
 14 16  1  0  0  0  0
 14 18  1  0  0  0  0
 14 36  1  0  0  0  0
 16 37  1  0  0  0  0
 16 38  1  0  0  0  0
 17 21  1  0  0  0  0
 17 39  1  0  0  0  0
 17 40  1  0  0  0  0
 18 20  1  0  0  0  0
 18 41  1  0  0  0  0
 18 42  1  0  0  0  0
 19 44  1  0  0  0  0
 19 45  1  0  0  0  0
 19 46  1  0  0  0  0
 20 22  1  0  0  0  0
 20 47  1  0  0  0  0
 20 48  1  0  0  0  0
 23 24  2  0  0  0  0
 23 50  1  0  0  0  0
 24 51  1  0  0  0  0
 25 26  1  0  0  0  0
 25 53  1  0  0  0  0
 25 54  1  0  0  0  0
 26 27  2  0  0  0  0
 27 28  1  0  0  0  0
 27 55  1  0  0  0  0
 28 29  2  0  0  0  0
 28 56  1  0  0  0  0
 29 57  1  0  0  0  0
M  END
> <PUBCHEM_COMPOUND_CID>
45361019

> <PUBCHEM_CONFORMER_RMSD>
1

> <PUBCHEM_CONFORMER_DIVERSEORDER>
2
142
80
234
72
263
240
114
162
105
94
134
179
45
147
192
242
249
194
195
244
101
8
109
52
167
15
123
146
104
216
92
122
153
136
7
227
258
225
125
64
230
231
1
206
76
13
214
158
126
171
115
166
73
180
49
107
4
229
264
259
253
21
150
161
164
25
84
157
213
44
261
200
116
42
197
121
90
218
35
203
65
9
103
241
217
260
173
233
57
165
265
117
59
28
199
267
16
39
34
220
148
252
238
168
89
198
211
215
139
237
232
91
88
256
239
50
78
41
62
119
19
228
202
38
236
172
58
140
144
212
170
48
185
204
12
268
75
243
138
111
155
67
222
251
143
100
254
169
156
120
77
27
74
246
29
118
11
245
151
5
178
250
223
247
82
191
110
106
235
99
51
112
176
133
189
20
209
266
255
31
135
83
98
61
87
141
130
47
93
181
159
205
262
152
226
70
131
69
33
219
248
160
30
26
182
201
55
56
183
132
128
81
145
221
40
53
129
207
24
187
149
17
54
137
43
68
3
154
127
174
193
190
108
196
86
184
36
63
85
46
224
14
113
6
22
10
97
96
208
177
210
66
163
257
95
124
186
32
18
71
23
102
37
188
175
79
60

> <PUBCHEM_MMFF94_PARTIAL_CHARGES>
35
1 -0.08
10 0.27
11 0.33
13 0.27
14 0.27
15 0.57
16 0.3
17 0.45
19 0.27
2 -0.57
20 0.06
21 0.01
22 0.57
23 -0.3
24 0.08
25 0.48
26 -0.14
27 -0.15
28 -0.15
29 -0.11
3 -0.57
4 -0.81
43 0.37
49 0.27
5 -0.81
50 0.15
51 0.15
52 0.37
55 0.15
56 0.15
57 0.15
6 -0.73
7 0.03
8 -0.57
9 -0.73

> <PUBCHEM_EFFECTIVE_ROTOR_COUNT>
9.4

> <PUBCHEM_PHARMACOPHORE_FEATURES>
12
1 2 acceptor
1 3 acceptor
1 4 cation
1 5 cation
1 6 donor
1 7 donor
1 9 donor
3 7 8 21 cation
5 1 26 27 28 29 rings
5 5 10 11 12 13 rings
5 7 8 21 23 24 rings
7 4 6 10 11 14 15 16 rings

> <PUBCHEM_HEAVY_ATOM_COUNT>
29

> <PUBCHEM_ATOM_DEF_STEREO_COUNT>
3

> <PUBCHEM_ATOM_UDEF_STEREO_COUNT>
0

> <PUBCHEM_BOND_DEF_STEREO_COUNT>
0

> <PUBCHEM_BOND_UDEF_STEREO_COUNT>
0

> <PUBCHEM_ISOTOPIC_ATOM_COUNT>
0

> <PUBCHEM_COMPONENT_COUNT>
1

> <PUBCHEM_CACTVS_TAUTO_COUNT>
6

> <PUBCHEM_CONFORMER_ID>
02B4277B00000002

> <PUBCHEM_MMFF94_ENERGY>
54.9598

> <PUBCHEM_FEATURE_SELFOVERLAP>
60.935

> <PUBCHEM_SHAPE_FINGERPRINT>
10 15 17894911806986427045
11181472 205 17631462176076622522
11386260 185 14117506671505196226
12539765 74 18341341058551396174
12664476 115 18341895208802239897
12838862 33 18341317959948037752
13782708 43 11815896739377420967
14251764 18 18259701207385951871
15183329 4 18201718423953089057
15461852 350 16343697755920604773
15604295 49 18201713011314024064
1577012 14 18342172259314204615
16991971 28 9511463342303040394
1754908 1 14345797170857209277
1818759 1 11602819077884335360
18335252 114 16845572028725836160
195137 175 18201722842983884633
21130935 74 18187364307816050027
21150785 3 15339122346589055892
21298829 104 18410293605887292653
21585482 111 18334854962329439069
21781051 124 7853568054392285640
21792934 111 18342448215690106130
23576562 1 16701439300072400753
24771293 8 18260546740491766111
3178227 256 14201400486487684908
3633792 109 18272376343514755682
4073 2 18113904866723012035
4093350 32 18341333310224957326
4169191 19 18409445869912006589
4340502 62 16298380280238481138
54039377 194 8430315740559820777
5758199 1 18335421274593061939
58260988 393 15430307006475917118
5937810 71 17704080556380719609
6009941 240 18113904879269491905
6328613 192 18413108343091224713
999808 66 11241970382956495593

> <PUBCHEM_SHAPE_MULTIPOLES>
559.03
27.8
2.55
1.08
14.21
0.43
0.1
-20.03
2.08
1.32
0.45
0.82
-0.21
0.3

> <PUBCHEM_SHAPE_SELFOVERLAP>
1166.753

> <PUBCHEM_SHAPE_VOLUME>
318.7

> <PUBCHEM_COORDINATE_TYPE>
2
5
10

$$$$
