51136824
  -OEChem-12032416223D

 59 63  0     1  0  0  0  0  0999 V2000
   -2.2108    1.7570   -1.5027 O   0  0  0  0  0  0  0  0  0  0  0  0
    8.1080    1.6937   -0.7689 O   0  0  0  0  0  0  0  0  0  0  0  0
   -5.2544    0.5949    0.1980 N   0  0  1  0  0  0  0  0  0  0  0  0
    3.7151   -0.1067    0.3235 N   0  0  0  0  0  0  0  0  0  0  0  0
    6.3417    0.1910   -0.6640 N   0  0  0  0  0  0  0  0  0  0  0  0
   -2.2846    0.7131    0.4777 N   0  0  0  0  0  0  0  0  0  0  0  0
   -0.8909    1.3974   -1.2025 N   0  0  0  0  0  0  0  0  0  0  0  0
    2.2898   -0.8215    2.0733 N   0  0  0  0  0  0  0  0  0  0  0  0
   -2.8068   -2.9285    0.5856 N   0  0  0  0  0  0  0  0  0  0  0  0
   -4.4541    1.5870   -0.5475 C   0  0  1  0  0  0  0  0  0  0  0  0
   -4.8480    2.9450    0.0621 C   0  0  0  0  0  0  0  0  0  0  0  0
   -5.9167    2.6217    1.0965 C   0  0  0  0  0  0  0  0  0  0  0  0
   -6.4666    1.2868    0.6361 C   0  0  0  0  0  0  0  0  0  0  0  0
   -5.5558   -0.6007   -0.5788 C   0  0  0  0  0  0  0  0  0  0  0  0
   -2.9664    1.3174   -0.4623 C   0  0  0  0  0  0  0  0  0  0  0  0
   -4.3904   -1.5532   -0.6168 C   0  0  0  0  0  0  0  0  0  0  0  0
    4.7155   -1.1428    0.6152 C   0  0  0  0  0  0  0  0  0  0  0  0
    4.2413    1.2425    0.0606 C   0  0  0  0  0  0  0  0  0  0  0  0
    5.8015   -1.1544   -0.4605 C   0  0  0  0  0  0  0  0  0  0  0  0
    5.3314    1.1884   -1.0073 C   0  0  0  0  0  0  0  0  0  0  0  0
    2.4337   -0.2078    0.8774 C   0  0  0  0  0  0  0  0  0  0  0  0
   -1.0164    0.7865   -0.0206 C   0  0  0  0  0  0  0  0  0  0  0  0
    0.1054    0.2398    0.6894 C   0  0  0  0  0  0  0  0  0  0  0  0
   -3.8194   -1.9388   -1.8245 C   0  0  0  0  0  0  0  0  0  0  0  0
    1.3846    0.3341    0.1525 C   0  0  0  0  0  0  0  0  0  0  0  0
   -3.8519   -2.0716    0.5500 C   0  0  0  0  0  0  0  0  0  0  0  0
    7.6838    0.5519   -0.5741 C   0  0  0  0  0  0  0  0  0  0  0  0
   -0.0829   -0.3844    1.9174 C   0  0  0  0  0  0  0  0  0  0  0  0
   -2.7428   -2.8187   -1.8286 C   0  0  0  0  0  0  0  0  0  0  0  0
    1.0318   -0.8940    2.5636 C   0  0  0  0  0  0  0  0  0  0  0  0
    8.6532   -0.5446   -0.2120 C   0  0  0  0  0  0  0  0  0  0  0  0
   -2.2780   -3.2806   -0.6078 C   0  0  0  0  0  0  0  0  0  0  0  0
   -4.7433    1.6027   -1.6078 H   0  0  0  0  0  0  0  0  0  0  0  0
   -4.0118    3.4831    0.5217 H   0  0  0  0  0  0  0  0  0  0  0  0
   -5.2747    3.5887   -0.7168 H   0  0  0  0  0  0  0  0  0  0  0  0
   -6.6869    3.3965    1.1518 H   0  0  0  0  0  0  0  0  0  0  0  0
   -5.4581    2.5251    2.0885 H   0  0  0  0  0  0  0  0  0  0  0  0
   -7.1742    1.4314   -0.1903 H   0  0  0  0  0  0  0  0  0  0  0  0
   -6.9722    0.7580    1.4500 H   0  0  0  0  0  0  0  0  0  0  0  0
   -5.9037   -0.3529   -1.5902 H   0  0  0  0  0  0  0  0  0  0  0  0
   -6.3823   -1.1522   -0.1090 H   0  0  0  0  0  0  0  0  0  0  0  0
    5.1625   -0.9472    1.5979 H   0  0  0  0  0  0  0  0  0  0  0  0
    4.2475   -2.1341    0.6485 H   0  0  0  0  0  0  0  0  0  0  0  0
    3.4644    1.9373   -0.2769 H   0  0  0  0  0  0  0  0  0  0  0  0
    4.6537    1.6467    0.9940 H   0  0  0  0  0  0  0  0  0  0  0  0
    5.3797   -1.4770   -1.4204 H   0  0  0  0  0  0  0  0  0  0  0  0
    6.5760   -1.8742   -0.1896 H   0  0  0  0  0  0  0  0  0  0  0  0
    5.7821    2.1783   -1.1294 H   0  0  0  0  0  0  0  0  0  0  0  0
    4.9044    0.8982   -1.9749 H   0  0  0  0  0  0  0  0  0  0  0  0
    1.5625    0.7963   -0.8141 H   0  0  0  0  0  0  0  0  0  0  0  0
   -4.2020   -1.5595   -2.7679 H   0  0  0  0  0  0  0  0  0  0  0  0
   -4.2546   -1.8127    1.5245 H   0  0  0  0  0  0  0  0  0  0  0  0
   -1.0593   -0.4849    2.3799 H   0  0  0  0  0  0  0  0  0  0  0  0
   -2.2810   -3.1318   -2.7579 H   0  0  0  0  0  0  0  0  0  0  0  0
    9.6671   -0.1347   -0.1693 H   0  0  0  0  0  0  0  0  0  0  0  0
    8.4097   -0.9547    0.7717 H   0  0  0  0  0  0  0  0  0  0  0  0
    8.6351   -1.3311   -0.9711 H   0  0  0  0  0  0  0  0  0  0  0  0
    0.9389   -1.3906    3.5238 H   0  0  0  0  0  0  0  0  0  0  0  0
   -1.4396   -3.9673   -0.5565 H   0  0  0  0  0  0  0  0  0  0  0  0
  1  7  1  0  0  0  0
  1 15  1  0  0  0  0
  2 27  2  0  0  0  0
  3 10  1  0  0  0  0
  3 13  1  0  0  0  0
  3 14  1  0  0  0  0
  4 17  1  0  0  0  0
  4 18  1  0  0  0  0
  4 21  1  0  0  0  0
  5 19  1  0  0  0  0
  5 20  1  0  0  0  0
  5 27  1  0  0  0  0
  6 15  2  0  0  0  0
  6 22  1  0  0  0  0
  7 22  2  0  0  0  0
  8 21  2  0  0  0  0
  8 30  1  0  0  0  0
  9 26  1  0  0  0  0
  9 32  2  0  0  0  0
 10 11  1  0  0  0  0
 10 15  1  0  0  0  0
 10 33  1  0  0  0  0
 11 12  1  0  0  0  0
 11 34  1  0  0  0  0
 11 35  1  0  0  0  0
 12 13  1  0  0  0  0
 12 36  1  0  0  0  0
 12 37  1  0  0  0  0
 13 38  1  0  0  0  0
 13 39  1  0  0  0  0
 14 16  1  0  0  0  0
 14 40  1  0  0  0  0
 14 41  1  0  0  0  0
 16 24  1  0  0  0  0
 16 26  2  0  0  0  0
 17 19  1  0  0  0  0
 17 42  1  0  0  0  0
 17 43  1  0  0  0  0
 18 20  1  0  0  0  0
 18 44  1  0  0  0  0
 18 45  1  0  0  0  0
 19 46  1  0  0  0  0
 19 47  1  0  0  0  0
 20 48  1  0  0  0  0
 20 49  1  0  0  0  0
 21 25  1  0  0  0  0
 22 23  1  0  0  0  0
 23 25  2  0  0  0  0
 23 28  1  0  0  0  0
 24 29  2  0  0  0  0
 24 51  1  0  0  0  0
 25 50  1  0  0  0  0
 26 52  1  0  0  0  0
 27 31  1  0  0  0  0
 28 30  2  0  0  0  0
 28 53  1  0  0  0  0
 29 32  1  0  0  0  0
 29 54  1  0  0  0  0
 30 58  1  0  0  0  0
 31 55  1  0  0  0  0
 31 56  1  0  0  0  0
 31 57  1  0  0  0  0
 32 59  1  0  0  0  0
M  END
> <PUBCHEM_COMPOUND_CID>
51136824

> <PUBCHEM_CONFORMER_RMSD>
1

> <PUBCHEM_CONFORMER_DIVERSEORDER>
12
24
107
46
145
134
121
187
158
30
193
146
167
172
4
72
75
149
116
189
148
199
95
56
191
37
33
62
104
84
50
200
9
120
137
93
163
192
119
174
96
129
195
52
58
171
60
34
117
87
179
175
141
204
161
99
151
132
41
168
15
142
196
66
164
13
16
170
73
108
135
131
1
18
112
79
27
153
83
29
124
165
198
88
115
17
21
154
78
188
102
138
77
61
111
160
64
105
26
8
144
206
82
49
81
103
125
28
122
162
203
106
44
2
173
25
184
69
185
155
89
31
67
140
40
70
156
101
139
123
113
207
159
63
100
39
169
177
76
127
147
45
181
5
136
23
110
152
32
86
92
126
205
74
47
36
51
130
186
190
157
128
54
143
43
38
71
53
80
197
90
65
48
94
114
42
68
97
183
22
85
182
166
11
178
91
201
133
98
109
7
150
194
35
59
10
20
6
55
19
180
3
57
14
118
176
202

> <PUBCHEM_MMFF94_PARTIAL_CHARGES>
37
1 -0.02
10 0.45
13 0.27
14 0.41
15 0.3
16 -0.14
17 0.37
18 0.37
19 0.3
2 -0.57
20 0.3
21 0.41
22 0.46
23 0.05
24 -0.15
25 -0.15
26 0.16
27 0.57
28 -0.15
29 -0.15
3 -0.81
30 0.16
31 0.06
32 0.16
4 -0.84
5 -0.66
50 0.15
51 0.15
52 0.15
53 0.15
54 0.15
58 0.15
59 0.15
6 -0.57
7 -0.41
8 -0.62
9 -0.62

> <PUBCHEM_EFFECTIVE_ROTOR_COUNT>
8.2

> <PUBCHEM_PHARMACOPHORE_FEATURES>
10
1 2 acceptor
1 3 cation
1 9 acceptor
3 4 8 21 cation
3 6 7 22 cation
5 1 6 7 15 22 rings
5 3 10 11 12 13 rings
6 4 5 17 18 19 20 rings
6 8 21 23 25 28 30 rings
6 9 16 24 26 29 32 rings

> <PUBCHEM_HEAVY_ATOM_COUNT>
32

> <PUBCHEM_ATOM_DEF_STEREO_COUNT>
1

> <PUBCHEM_ATOM_UDEF_STEREO_COUNT>
0

> <PUBCHEM_BOND_DEF_STEREO_COUNT>
0

> <PUBCHEM_BOND_UDEF_STEREO_COUNT>
0

> <PUBCHEM_ISOTOPIC_ATOM_COUNT>
0

> <PUBCHEM_COMPONENT_COUNT>
1

> <PUBCHEM_CACTVS_TAUTO_COUNT>
1

> <PUBCHEM_CONFORMER_ID>
030C49380000000C

> <PUBCHEM_MMFF94_ENERGY>
81.3691

> <PUBCHEM_FEATURE_SELFOVERLAP>
50.749

> <PUBCHEM_SHAPE_FINGERPRINT>
10 15 13118293581241535964
10165383 225 18060141999741335225
10670039 82 18413383246699641183
10675989 125 14012225752990702397
11135926 11 17385436614171763946
11273773 42 17967825989354838292
11524674 6 17275100630988080967
12082328 90 18334016116250289074
12166972 35 11815596589840690027
12655364 131 13398089530096735364
12821665 9 18188776187908435900
13690498 29 18200589336574286719
13757389 114 18343299241769168317
13782708 43 16701164447771789391
14040221 310 18193559089676251250
14251757 5 18341610455979764987
14840074 17 17821726118260484567
14856354 85 18272933826000994845
15183329 4 18186794799262307714
15230672 131 18199749159425203286
15274700 242 17603855689924851170
15276724 80 18040708134828412676
15351334 14 16878774973134416278
15461852 350 10809349923299197472
16992727 255 18341618096726363768
16993438 75 14188474567794410755
21756936 100 17894916226191166643
21772528 278 17531257148792476635
21781055 127 17630043754885240417
21795232 338 18340213006881547763
23516275 137 18122928454760747131
23559900 14 17917422150863850064
24771293 8 18115303510265223556
249057 3 18413670214465074957
2838139 119 17240199941874245060
3610482 184 18188221969359608132
4073 2 18334018324163964810
4098825 35 18411982443100168014
4325135 7 18187364333231542036
5265222 85 18272651280986596495
5470011 282 17132123459913871948
58902169 19 18334298673959451612
59755656 520 16950003642878780474

> <PUBCHEM_SHAPE_MULTIPOLES>
611.94
20.57
3.03
1.63
37.94
1.25
-0.59
-6.6
4.78
-5.9
0.72
-0.1
0.5
-1.91

> <PUBCHEM_SHAPE_SELFOVERLAP>
1322.082

> <PUBCHEM_SHAPE_VOLUME>
335.1

> <PUBCHEM_COORDINATE_TYPE>
2
5
10

$$$$
