45361590
  -OEChem-12032416393D

 76 78  0     1  0  0  0  0  0999 V2000
    0.6192    2.6882   -1.3360 O   0  0  0  0  0  0  0  0  0  0  0  0
   -4.4130    2.8445    0.4596 O   0  0  0  0  0  0  0  0  0  0  0  0
    5.7962   -1.7701   -0.5156 O   0  0  0  0  0  0  0  0  0  0  0  0
    8.4313   -1.1951   -1.4797 O   0  0  0  0  0  0  0  0  0  0  0  0
   -5.9598   -3.8682    0.6825 O   0  0  0  0  0  0  0  0  0  0  0  0
    4.9987    0.1266    0.5613 N   0  0  0  0  0  0  0  0  0  0  0  0
   -3.7819    1.6866   -1.4485 N   0  0  0  0  0  0  0  0  0  0  0  0
    0.7763    0.0271    1.3970 C   0  0  1  0  0  0  0  0  0  0  0  0
    1.2343    0.8570    0.1518 C   0  0  2  0  0  0  0  0  0  0  0  0
    2.7704    1.1771    0.2275 C   0  0  1  0  0  0  0  0  0  0  0  0
    0.3065    2.0843   -0.0800 C   0  0  2  0  0  0  0  0  0  0  0  0
   -0.7110   -0.3669    1.2359 C   0  0  0  0  0  0  0  0  0  0  0  0
    1.6038   -1.2772    1.4657 C   0  0  0  0  0  0  0  0  0  0  0  0
   -1.1896    1.6966   -0.1363 C   0  0  1  0  0  0  0  0  0  0  0  0
    3.5878   -0.1374    0.3720 C   0  0  2  0  0  0  0  0  0  0  0  0
   -1.6272    0.8351    1.0482 C   0  0  0  0  0  0  0  0  0  0  0  0
    3.1049   -1.0307    1.5144 C   0  0  0  0  0  0  0  0  0  0  0  0
    0.9433    0.8077    2.7253 C   0  0  0  0  0  0  0  0  0  0  0  0
   -2.0941    2.9312   -0.2337 C   0  0  2  0  0  0  0  0  0  0  0  0
    3.2950    1.9683   -0.9825 C   0  0  0  0  0  0  0  0  0  0  0  0
   -1.8756    3.8384    0.9721 C   0  0  0  0  0  0  0  0  0  0  0  0
   -3.5528    2.4993   -0.3478 C   0  0  0  0  0  0  0  0  0  0  0  0
    5.9898   -0.7227    0.0955 C   0  0  0  0  0  0  0  0  0  0  0  0
    7.3757   -0.1967    0.4334 C   0  0  0  0  0  0  0  0  0  0  0  0
   -5.0851    1.1503   -1.7660 C   0  0  0  0  0  0  0  0  0  0  0  0
    8.4920   -1.1030   -0.0623 C   0  0  0  0  0  0  0  0  0  0  0  0
   -5.3174   -0.1830   -1.1161 C   0  0  0  0  0  0  0  0  0  0  0  0
   -4.7006   -1.3253   -1.6264 C   0  0  0  0  0  0  0  0  0  0  0  0
   -6.1502   -0.2793   -0.0012 C   0  0  0  0  0  0  0  0  0  0  0  0
    9.4631   -2.0267   -1.9927 C   0  0  0  0  0  0  0  0  0  0  0  0
   -4.9167   -2.5638   -1.0222 C   0  0  0  0  0  0  0  0  0  0  0  0
   -6.3664   -1.5177    0.6031 C   0  0  0  0  0  0  0  0  0  0  0  0
   -5.7497   -2.6600    0.0925 C   0  0  0  0  0  0  0  0  0  0  0  0
   -5.2971   -4.9945    0.1093 C   0  0  0  0  0  0  0  0  0  0  0  0
    1.1136    0.2139   -0.7348 H   0  0  0  0  0  0  0  0  0  0  0  0
    2.9587    1.8049    1.1076 H   0  0  0  0  0  0  0  0  0  0  0  0
    0.5246    2.8185    0.6973 H   0  0  0  0  0  0  0  0  0  0  0  0
   -0.8257   -1.0313    0.3686 H   0  0  0  0  0  0  0  0  0  0  0  0
   -1.0484   -0.9424    2.1075 H   0  0  0  0  0  0  0  0  0  0  0  0
    1.3096   -1.8683    2.3423 H   0  0  0  0  0  0  0  0  0  0  0  0
    1.3837   -1.9002    0.5882 H   0  0  0  0  0  0  0  0  0  0  0  0
   -1.3171    1.0893   -1.0424 H   0  0  0  0  0  0  0  0  0  0  0  0
    3.4803   -0.7058   -0.5622 H   0  0  0  0  0  0  0  0  0  0  0  0
   -1.6563    1.3917    1.9871 H   0  0  0  0  0  0  0  0  0  0  0  0
   -2.6419    0.4493    0.8960 H   0  0  0  0  0  0  0  0  0  0  0  0
    3.3837   -0.5930    2.4807 H   0  0  0  0  0  0  0  0  0  0  0  0
    3.6229   -1.9977    1.4740 H   0  0  0  0  0  0  0  0  0  0  0  0
    0.3968    1.7549    2.7262 H   0  0  0  0  0  0  0  0  0  0  0  0
    0.5697    0.2159    3.5692 H   0  0  0  0  0  0  0  0  0  0  0  0
    1.9855    1.0523    2.9458 H   0  0  0  0  0  0  0  0  0  0  0  0
   -1.8598    3.4999   -1.1428 H   0  0  0  0  0  0  0  0  0  0  0  0
    3.0020    1.4942   -1.9249 H   0  0  0  0  0  0  0  0  0  0  0  0
    4.3869    2.0478   -0.9774 H   0  0  0  0  0  0  0  0  0  0  0  0
    2.9283    2.9985   -0.9696 H   0  0  0  0  0  0  0  0  0  0  0  0
    5.2629    0.9378    1.1135 H   0  0  0  0  0  0  0  0  0  0  0  0
    0.4828    2.0243   -2.0332 H   0  0  0  0  0  0  0  0  0  0  0  0
   -2.1106    3.3732    1.9322 H   0  0  0  0  0  0  0  0  0  0  0  0
   -2.5479    4.7032    0.8957 H   0  0  0  0  0  0  0  0  0  0  0  0
   -0.8690    4.2598    1.0164 H   0  0  0  0  0  0  0  0  0  0  0  0
   -3.0281    1.4897   -2.0988 H   0  0  0  0  0  0  0  0  0  0  0  0
    7.4726    0.7929   -0.0297 H   0  0  0  0  0  0  0  0  0  0  0  0
    7.4489   -0.0802    1.5205 H   0  0  0  0  0  0  0  0  0  0  0  0
   -5.8550    1.8713   -1.4672 H   0  0  0  0  0  0  0  0  0  0  0  0
   -5.1471    1.0508   -2.8557 H   0  0  0  0  0  0  0  0  0  0  0  0
    8.3892   -2.1036    0.3743 H   0  0  0  0  0  0  0  0  0  0  0  0
    9.4602   -0.6854    0.2368 H   0  0  0  0  0  0  0  0  0  0  0  0
   -4.0490   -1.2610   -2.4940 H   0  0  0  0  0  0  0  0  0  0  0  0
   -6.6356    0.6026    0.4082 H   0  0  0  0  0  0  0  0  0  0  0  0
    9.3653   -3.0443   -1.6023 H   0  0  0  0  0  0  0  0  0  0  0  0
    9.3685   -2.0605   -3.0814 H   0  0  0  0  0  0  0  0  0  0  0  0
   10.4464   -1.6183   -1.7402 H   0  0  0  0  0  0  0  0  0  0  0  0
   -4.4061   -3.4096   -1.4697 H   0  0  0  0  0  0  0  0  0  0  0  0
   -7.0157   -1.5864    1.4716 H   0  0  0  0  0  0  0  0  0  0  0  0
   -5.5765   -5.8707    0.7035 H   0  0  0  0  0  0  0  0  0  0  0  0
   -4.2082   -4.8974    0.1758 H   0  0  0  0  0  0  0  0  0  0  0  0
   -5.6356   -5.1820   -0.9153 H   0  0  0  0  0  0  0  0  0  0  0  0
  1 11  1  0  0  0  0
  1 56  1  0  0  0  0
  2 22  2  0  0  0  0
  3 23  2  0  0  0  0
  4 26  1  0  0  0  0
  4 30  1  0  0  0  0
  5 33  1  0  0  0  0
  5 34  1  0  0  0  0
  6 15  1  0  0  0  0
  6 23  1  0  0  0  0
  6 55  1  0  0  0  0
  7 22  1  0  0  0  0
  7 25  1  0  0  0  0
  7 60  1  0  0  0  0
  8  9  1  0  0  0  0
  8 12  1  0  0  0  0
  8 13  1  0  0  0  0
  8 18  1  0  0  0  0
  9 10  1  0  0  0  0
  9 11  1  0  0  0  0
  9 35  1  0  0  0  0
 10 15  1  0  0  0  0
 10 20  1  0  0  0  0
 10 36  1  0  0  0  0
 11 14  1  0  0  0  0
 11 37  1  0  0  0  0
 12 16  1  0  0  0  0
 12 38  1  0  0  0  0
 12 39  1  0  0  0  0
 13 17  1  0  0  0  0
 13 40  1  0  0  0  0
 13 41  1  0  0  0  0
 14 16  1  0  0  0  0
 14 19  1  0  0  0  0
 14 42  1  0  0  0  0
 15 17  1  0  0  0  0
 15 43  1  0  0  0  0
 16 44  1  0  0  0  0
 16 45  1  0  0  0  0
 17 46  1  0  0  0  0
 17 47  1  0  0  0  0
 18 48  1  0  0  0  0
 18 49  1  0  0  0  0
 18 50  1  0  0  0  0
 19 21  1  0  0  0  0
 19 22  1  0  0  0  0
 19 51  1  0  0  0  0
 20 52  1  0  0  0  0
 20 53  1  0  0  0  0
 20 54  1  0  0  0  0
 21 57  1  0  0  0  0
 21 58  1  0  0  0  0
 21 59  1  0  0  0  0
 23 24  1  0  0  0  0
 24 26  1  0  0  0  0
 24 61  1  0  0  0  0
 24 62  1  0  0  0  0
 25 27  1  0  0  0  0
 25 63  1  0  0  0  0
 25 64  1  0  0  0  0
 26 65  1  0  0  0  0
 26 66  1  0  0  0  0
 27 28  2  0  0  0  0
 27 29  1  0  0  0  0
 28 31  1  0  0  0  0
 28 67  1  0  0  0  0
 29 32  2  0  0  0  0
 29 68  1  0  0  0  0
 30 69  1  0  0  0  0
 30 70  1  0  0  0  0
 30 71  1  0  0  0  0
 31 33  2  0  0  0  0
 31 72  1  0  0  0  0
 32 33  1  0  0  0  0
 32 73  1  0  0  0  0
 34 74  1  0  0  0  0
 34 75  1  0  0  0  0
 34 76  1  0  0  0  0
M  END
> <PUBCHEM_COMPOUND_CID>
45361590

> <PUBCHEM_CONFORMER_RMSD>
1.2

> <PUBCHEM_CONFORMER_DIVERSEORDER>
1
20
73
25
29
55
77
40
39
17
80
65
54
79
72
63
2
82
35
68
31
38
45
69
3
78
53
28
15
11
46
43
57
64
83
41
61
27
8
23
81
70
21
75
58
48
32
60
76
30
74
18
59
36
16
26
37
12
66
71
62
13
6
4
49
47
56
44
24
7
9
67
42
22
52
51
34
10
14
33
19
5
50

> <PUBCHEM_MMFF94_PARTIAL_CHARGES>
30
1 -0.68
11 0.28
15 0.3
19 0.06
2 -0.57
22 0.57
23 0.57
24 0.06
25 0.44
26 0.28
27 -0.14
28 -0.15
29 -0.15
3 -0.57
30 0.28
31 -0.15
32 -0.15
33 0.08
34 0.28
4 -0.56
5 -0.36
55 0.37
56 0.4
6 -0.73
60 0.37
67 0.15
68 0.15
7 -0.73
72 0.15
73 0.15

> <PUBCHEM_EFFECTIVE_ROTOR_COUNT>
12.6

> <PUBCHEM_PHARMACOPHORE_FEATURES>
12
1 1 acceptor
1 1 donor
1 2 acceptor
1 21 hydrophobe
1 3 acceptor
1 4 acceptor
1 5 acceptor
1 6 donor
1 7 donor
6 27 28 29 31 32 33 rings
6 8 9 10 13 15 17 rings
6 8 9 11 12 14 16 rings

> <PUBCHEM_HEAVY_ATOM_COUNT>
34

> <PUBCHEM_ATOM_DEF_STEREO_COUNT>
6

> <PUBCHEM_ATOM_UDEF_STEREO_COUNT>
1

> <PUBCHEM_BOND_DEF_STEREO_COUNT>
0

> <PUBCHEM_BOND_UDEF_STEREO_COUNT>
0

> <PUBCHEM_ISOTOPIC_ATOM_COUNT>
0

> <PUBCHEM_COMPONENT_COUNT>
1

> <PUBCHEM_CACTVS_TAUTO_COUNT>
4

> <PUBCHEM_CONFORMER_ID>
02B429B600000001

> <PUBCHEM_MMFF94_ENERGY>
100.6049

> <PUBCHEM_FEATURE_SELFOVERLAP>
60.914

> <PUBCHEM_SHAPE_FINGERPRINT>
10391435 84 18338499915682675609
10554248 39 16153706463220603850
10928967 22 18123741218088264503
11315621 136 18260264187383201421
11315621 246 18334570235776823597
11374522 301 16740322596812945779
11477941 20 16515397457037927677
117089 54 18119531183512651339
11973864 196 16444488977653489606
12107183 9 11383299399687859325
1361 87 18263346132136277863
13782708 43 18131625699526426602
14279260 333 18261101950698277354
14340393 91 18335140929387702074
14856354 85 18342171146859445237
14950920 106 15122930954993824071
15183329 4 18040987449521384898
15392192 29 18411982456327799077
15461852 350 18408890612418968806
16112460 7 12462983577129289426
17686467 74 18343011200025066384
17909252 39 18265610077848223841
208703 8 18337948012917980623
21867018 265 18409455795518533758
22288116 15 18261114062869548382
22393880 68 17749934619022191733
354706 132 16660638549759087239
437795 150 18409731759298095766
437795 160 18337092511878895450
445580 160 18412541007475450247
44802255 64 13118008794244271641
484989 97 18409167753182905642
49967989 163 18409727335676290575
54039377 194 18261397767408967907
54583773 228 18262804081799778228
6086070 43 14634868686515885600
999808 66 17847058874490575756

> <PUBCHEM_SHAPE_MULTIPOLES>
660.4
22.65
4.46
1.74
40.7
1.94
-0.13
23.03
10.26
-8.93
0.2
0.81
0.05
1.8

> <PUBCHEM_SHAPE_SELFOVERLAP>
1361.397

> <PUBCHEM_SHAPE_VOLUME>
376

> <PUBCHEM_COORDINATE_TYPE>
2
5
10

$$$$
