25338403
  -OEChem-12032416233D

 50 53  0     1  0  0  0  0  0999 V2000
   -3.9395   -5.8115    0.4595 Cl  0  0  0  0  0  0  0  0  0  0  0  0
   -3.7288    2.0769   -0.8984 O   0  0  0  0  0  0  0  0  0  0  0  0
    3.1935    2.5092   -1.2903 O   0  0  0  0  0  0  0  0  0  0  0  0
    4.5103    0.4452   -0.1705 O   0  0  0  0  0  0  0  0  0  0  0  0
   -1.1956    3.4746    1.1130 N   0  0  1  0  0  0  0  0  0  0  0  0
    1.5487    2.4793    0.3535 N   0  0  0  0  0  0  0  0  0  0  0  0
   -2.1917    0.7021   -0.0243 N   0  0  0  0  0  0  0  0  0  0  0  0
   -4.3049    0.8002   -0.8954 N   0  0  0  0  0  0  0  0  0  0  0  0
    0.7621    3.5810   -0.1482 C   0  0  1  0  0  0  0  0  0  0  0  0
   -1.6462    3.1850   -0.2618 C   0  0  1  0  0  0  0  0  0  0  0  0
   -0.3459    3.1004   -1.0852 C   0  0  0  0  0  0  0  0  0  0  0  0
    0.0175    4.2866    0.9751 C   0  0  0  0  0  0  0  0  0  0  0  0
   -2.4857    1.9301   -0.3700 C   0  0  0  0  0  0  0  0  0  0  0  0
   -2.2090    4.1432    1.9203 C   0  0  0  0  0  0  0  0  0  0  0  0
    2.7063    2.0358   -0.2673 C   0  0  0  0  0  0  0  0  0  0  0  0
   -3.3379    0.0451   -0.3656 C   0  0  0  0  0  0  0  0  0  0  0  0
    3.3273    0.8701    0.4723 C   0  0  0  0  0  0  0  0  0  0  0  0
   -3.4844   -1.3677   -0.1653 C   0  0  0  0  0  0  0  0  0  0  0  0
   -2.4388   -2.1044    0.3912 C   0  0  0  0  0  0  0  0  0  0  0  0
   -4.6708   -2.0052   -0.5282 C   0  0  0  0  0  0  0  0  0  0  0  0
    4.8417   -0.8846   -0.0599 C   0  0  0  0  0  0  0  0  0  0  0  0
   -2.5794   -3.4786    0.5846 C   0  0  0  0  0  0  0  0  0  0  0  0
   -4.8115   -3.3794   -0.3350 C   0  0  0  0  0  0  0  0  0  0  0  0
   -3.7658   -4.1161    0.2214 C   0  0  0  0  0  0  0  0  0  0  0  0
    4.4694   -1.6043    1.0755 C   0  0  0  0  0  0  0  0  0  0  0  0
    5.5507   -1.5140   -1.0829 C   0  0  0  0  0  0  0  0  0  0  0  0
    4.8060   -2.9532    1.1879 C   0  0  0  0  0  0  0  0  0  0  0  0
    5.8873   -2.8630   -0.9707 C   0  0  0  0  0  0  0  0  0  0  0  0
    5.5151   -3.5826    0.1648 C   0  0  0  0  0  0  0  0  0  0  0  0
    1.4335    4.2733   -0.6684 H   0  0  0  0  0  0  0  0  0  0  0  0
   -2.2293    4.0318   -0.6518 H   0  0  0  0  0  0  0  0  0  0  0  0
   -0.1459    2.0979   -1.4812 H   0  0  0  0  0  0  0  0  0  0  0  0
   -0.4227    3.7829   -1.9410 H   0  0  0  0  0  0  0  0  0  0  0  0
    0.5916    4.3223    1.9071 H   0  0  0  0  0  0  0  0  0  0  0  0
   -0.2272    5.3127    0.6711 H   0  0  0  0  0  0  0  0  0  0  0  0
    1.2030    1.9773    1.1666 H   0  0  0  0  0  0  0  0  0  0  0  0
   -3.0950    3.5092    2.0326 H   0  0  0  0  0  0  0  0  0  0  0  0
   -2.5234    5.0995    1.4873 H   0  0  0  0  0  0  0  0  0  0  0  0
   -1.8264    4.3333    2.9290 H   0  0  0  0  0  0  0  0  0  0  0  0
    3.5613    1.1907    1.4939 H   0  0  0  0  0  0  0  0  0  0  0  0
    2.5642    0.0804    0.4927 H   0  0  0  0  0  0  0  0  0  0  0  0
   -1.5019   -1.6368    0.6840 H   0  0  0  0  0  0  0  0  0  0  0  0
   -5.5068   -1.4642   -0.9645 H   0  0  0  0  0  0  0  0  0  0  0  0
   -1.7564   -4.0403    1.0190 H   0  0  0  0  0  0  0  0  0  0  0  0
   -5.7415   -3.8634   -0.6226 H   0  0  0  0  0  0  0  0  0  0  0  0
    3.9403   -1.1444    1.9051 H   0  0  0  0  0  0  0  0  0  0  0  0
    5.8433   -0.9583   -1.9696 H   0  0  0  0  0  0  0  0  0  0  0  0
    4.5217   -3.5124    2.0746 H   0  0  0  0  0  0  0  0  0  0  0  0
    6.4396   -3.3530   -1.7673 H   0  0  0  0  0  0  0  0  0  0  0  0
    5.7785   -4.6325    0.2528 H   0  0  0  0  0  0  0  0  0  0  0  0
  1 24  1  0  0  0  0
  2  8  1  0  0  0  0
  2 13  1  0  0  0  0
  3 15  2  0  0  0  0
  4 17  1  0  0  0  0
  4 21  1  0  0  0  0
  5 10  1  0  0  0  0
  5 12  1  0  0  0  0
  5 14  1  0  0  0  0
  6  9  1  0  0  0  0
  6 15  1  0  0  0  0
  6 36  1  0  0  0  0
  7 13  2  0  0  0  0
  7 16  1  0  0  0  0
  8 16  2  0  0  0  0
  9 11  1  0  0  0  0
  9 12  1  0  0  0  0
  9 30  1  0  0  0  0
 10 11  1  0  0  0  0
 10 13  1  0  0  0  0
 10 31  1  0  0  0  0
 11 32  1  0  0  0  0
 11 33  1  0  0  0  0
 12 34  1  0  0  0  0
 12 35  1  0  0  0  0
 14 37  1  0  0  0  0
 14 38  1  0  0  0  0
 14 39  1  0  0  0  0
 15 17  1  0  0  0  0
 16 18  1  0  0  0  0
 17 40  1  0  0  0  0
 17 41  1  0  0  0  0
 18 19  2  0  0  0  0
 18 20  1  0  0  0  0
 19 22  1  0  0  0  0
 19 42  1  0  0  0  0
 20 23  2  0  0  0  0
 20 43  1  0  0  0  0
 21 25  2  0  0  0  0
 21 26  1  0  0  0  0
 22 24  2  0  0  0  0
 22 44  1  0  0  0  0
 23 24  1  0  0  0  0
 23 45  1  0  0  0  0
 25 27  1  0  0  0  0
 25 46  1  0  0  0  0
 26 28  2  0  0  0  0
 26 47  1  0  0  0  0
 27 29  2  0  0  0  0
 27 48  1  0  0  0  0
 28 29  1  0  0  0  0
 28 49  1  0  0  0  0
 29 50  1  0  0  0  0
M  END
> <PUBCHEM_COMPOUND_CID>
25338403

> <PUBCHEM_CONFORMER_RMSD>
1

> <PUBCHEM_CONFORMER_DIVERSEORDER>
1
117
115
93
74
66
88
15
126
49
53
38
69
77
73
20
114
30
139
2
32
37
65
105
81
27
62
78
40
111
112
5
133
116
80
109
136
118
84
75
106
6
31
56
138
79
119
7
128
44
107
108
91
13
95
18
10
26
98
67
23
85
101
121
89
113
9
131
43
90
25
103
68
50
12
86
127
76
135
70
120
21
59
130
22
35
124
97
134
99
132
57
92
110
19
24
129
52
17
63
64
55
102
42
125
29
45
33
8
96
58
46
83
72
51
137
34
47
71
104
28
39
60
41
14
94
122
123
16
4
54
11
82
61
100
48
3
36
87

> <PUBCHEM_MMFF94_PARTIAL_CHARGES>
38
1 -0.18
10 0.45
12 0.27
13 0.3
14 0.27
15 0.57
16 0.46
17 0.34
18 0.05
19 -0.15
2 -0.02
20 -0.15
21 0.08
22 -0.15
23 -0.15
24 0.18
25 -0.15
26 -0.15
27 -0.15
28 -0.15
29 -0.15
3 -0.57
36 0.37
4 -0.36
42 0.15
43 0.15
44 0.15
45 0.15
46 0.15
47 0.15
48 0.15
49 0.15
5 -0.81
50 0.15
6 -0.73
7 -0.57
8 -0.41
9 0.3

> <PUBCHEM_EFFECTIVE_ROTOR_COUNT>
8

> <PUBCHEM_PHARMACOPHORE_FEATURES>
9
1 3 acceptor
1 4 acceptor
1 5 cation
1 6 donor
3 7 8 16 cation
5 2 7 8 13 16 rings
5 5 9 10 11 12 rings
6 18 19 20 22 23 24 rings
6 21 25 26 27 28 29 rings

> <PUBCHEM_HEAVY_ATOM_COUNT>
29

> <PUBCHEM_ATOM_DEF_STEREO_COUNT>
2

> <PUBCHEM_ATOM_UDEF_STEREO_COUNT>
0

> <PUBCHEM_BOND_DEF_STEREO_COUNT>
0

> <PUBCHEM_BOND_UDEF_STEREO_COUNT>
0

> <PUBCHEM_ISOTOPIC_ATOM_COUNT>
0

> <PUBCHEM_COMPONENT_COUNT>
1

> <PUBCHEM_CACTVS_TAUTO_COUNT>
2

> <PUBCHEM_CONFORMER_ID>
0182A22300000001

> <PUBCHEM_MMFF94_ENERGY>
66.8749

> <PUBCHEM_FEATURE_SELFOVERLAP>
45.679

> <PUBCHEM_SHAPE_FINGERPRINT>
10928967 22 17981619469598083295
11186622 123 18333726889115935746
11197282 1 18338234980640969662
11285246 1 18040435520416791179
114674 6 17403458971028928185
117089 54 18339086002773113990
12107183 9 18198642080570687633
12969540 37 18193551392477996620
13165053 137 17836358255599842267
1361 2 17040915941314503531
14251757 5 18263645061306269322
14866123 147 18270403768231079697
15001296 14 18334005073973409920
15250474 111 18119248368695152018
15320294 125 17610332750079513186
15320467 1 18265612087498129858
17909252 39 18267867366471981264
19301676 85 18410564094618255479
19319366 153 17762339519523190564
20501277 246 17842828095444093394
20771845 38 17764314938001253329
20775530 9 18410011069695009224
22440779 20 15622608214941859948
23379529 103 18410294688192833484
23559900 14 18338223994631480551
325973 47 18336829813592509754
3383291 50 18267299842515370641
404807 14 18339368569209588115
4394409 98 17828475882398876725
4435113 14 17414163408969528086
463206 1 18408886200649058560
474144 1 17244123939474841082
484985 159 18267586797565025569
49967989 163 18195828292766135294
508706 21 17984709913643117030
5309563 4 18196095670910612662
56633871 153 18411991256172489249
5912855 24 18269853019905459880
613672 6 18196064807206863544
636783 275 16241841489452554643
6422251 121 18118118314896149059
6679774 75 17545926678643594513
6700243 42 16881009404585465319
7970288 3 18338799017146789550

> <PUBCHEM_SHAPE_MULTIPOLES>
561.14
13.79
8.72
1.18
14.39
1.95
-0.21
19.73
1.88
-6.18
-2.21
0.36
-0.66
-0.22

> <PUBCHEM_SHAPE_SELFOVERLAP>
1199.744

> <PUBCHEM_SHAPE_VOLUME>
313

> <PUBCHEM_COORDINATE_TYPE>
2
5
10

$$$$
