45360453
  -OEChem-12032416173D

 62 66  0     1  0  0  0  0  0999 V2000
   -4.1557    2.3523   -2.1715 Br  0  0  0  0  0  0  0  0  0  0  0  0
    3.8378   -1.3922   -1.7464 O   0  0  0  0  0  0  0  0  0  0  0  0
   -0.3695   -2.9285   -0.8437 N   0  0  2  0  0  0  0  0  0  0  0  0
    2.1642   -0.1537   -0.7378 N   0  0  0  0  0  0  0  0  0  0  0  0
   -2.4597    0.0295    1.9318 N   0  0  0  0  0  0  0  0  0  0  0  0
   -4.2847    1.5176    1.4196 N   0  0  0  0  0  0  0  0  0  0  0  0
    4.3640    0.4544   -0.3959 N   0  0  0  0  0  0  0  0  0  0  0  0
    9.1619    3.3353    1.5154 N   0  0  0  0  0  0  0  0  0  0  0  0
   -0.8882   -2.3506    1.6423 C   0  0  2  0  0  0  0  0  0  0  0  0
   -2.1340   -2.0879    0.7515 C   0  0  2  0  0  0  0  0  0  0  0  0
    0.6961   -2.0501   -0.2930 C   0  0  2  0  0  0  0  0  0  0  0  0
    0.3040   -1.5300    1.1067 C   0  0  0  0  0  0  0  0  0  0  0  0
   -0.5257   -3.8415    1.4721 C   0  0  0  0  0  0  0  0  0  0  0  0
   -1.6895   -2.2595   -0.7291 C   0  0  0  0  0  0  0  0  0  0  0  0
   -0.4054   -4.1656   -0.0273 C   0  0  0  0  0  0  0  0  0  0  0  0
    1.0597   -0.9083   -1.2445 C   0  0  0  0  0  0  0  0  0  0  0  0
   -2.9181   -0.8025    0.9737 C   0  0  0  0  0  0  0  0  0  0  0  0
   -4.0372   -0.5473    0.2078 C   0  0  0  0  0  0  0  0  0  0  0  0
   -4.6873    0.6399    0.4773 C   0  0  0  0  0  0  0  0  0  0  0  0
   -3.1803    1.1548    2.0994 C   0  0  0  0  0  0  0  0  0  0  0  0
    3.5078   -0.4515   -1.0281 C   0  0  0  0  0  0  0  0  0  0  0  0
   -5.8716    1.0237   -0.2531 C   0  0  0  0  0  0  0  0  0  0  0  0
   -2.7055    2.0991    3.1514 C   0  0  0  0  0  0  0  0  0  0  0  0
   -5.8062    1.7710   -1.4291 C   0  0  0  0  0  0  0  0  0  0  0  0
   -7.1093    0.6242    0.2515 C   0  0  0  0  0  0  0  0  0  0  0  0
    5.7772    0.4896   -0.4413 C   0  0  0  0  0  0  0  0  0  0  0  0
   -6.9783    2.1188   -2.1006 C   0  0  0  0  0  0  0  0  0  0  0  0
   -8.2814    0.9718   -0.4202 C   0  0  0  0  0  0  0  0  0  0  0  0
   -8.2160    1.7192   -1.5961 C   0  0  0  0  0  0  0  0  0  0  0  0
    6.4739    1.4741    0.2596 C   0  0  0  0  0  0  0  0  0  0  0  0
    6.4745   -0.4610   -1.1871 C   0  0  0  0  0  0  0  0  0  0  0  0
    7.8676    1.5081    0.2149 C   0  0  0  0  0  0  0  0  0  0  0  0
    7.8683   -0.4271   -1.2317 C   0  0  0  0  0  0  0  0  0  0  0  0
    8.5649    0.5575   -0.5309 C   0  0  0  0  0  0  0  0  0  0  0  0
    8.5818    2.5164    0.9325 C   0  0  0  0  0  0  0  0  0  0  0  0
   -1.0805   -2.1220    2.6959 H   0  0  0  0  0  0  0  0  0  0  0  0
   -2.8526   -2.8901    0.9811 H   0  0  0  0  0  0  0  0  0  0  0  0
    1.6052   -2.6602   -0.1838 H   0  0  0  0  0  0  0  0  0  0  0  0
    0.0428   -0.4661    1.0855 H   0  0  0  0  0  0  0  0  0  0  0  0
    1.1582   -1.6358    1.7871 H   0  0  0  0  0  0  0  0  0  0  0  0
   -1.2929   -4.4768    1.9297 H   0  0  0  0  0  0  0  0  0  0  0  0
    0.4208   -4.0558    1.9831 H   0  0  0  0  0  0  0  0  0  0  0  0
   -1.6685   -1.3022   -1.2626 H   0  0  0  0  0  0  0  0  0  0  0  0
   -2.4379   -2.8615   -1.2619 H   0  0  0  0  0  0  0  0  0  0  0  0
   -1.2429   -4.7983   -0.3481 H   0  0  0  0  0  0  0  0  0  0  0  0
    0.4981   -4.7608   -0.2086 H   0  0  0  0  0  0  0  0  0  0  0  0
    0.2322   -0.2038   -1.3752 H   0  0  0  0  0  0  0  0  0  0  0  0
    1.3203   -1.3051   -2.2324 H   0  0  0  0  0  0  0  0  0  0  0  0
    1.9674    0.6371   -0.1320 H   0  0  0  0  0  0  0  0  0  0  0  0
   -4.3871   -1.2369   -0.5513 H   0  0  0  0  0  0  0  0  0  0  0  0
   -2.8749    3.1357    2.8440 H   0  0  0  0  0  0  0  0  0  0  0  0
   -1.6346    1.9711    3.3375 H   0  0  0  0  0  0  0  0  0  0  0  0
   -3.2472    1.9157    4.0840 H   0  0  0  0  0  0  0  0  0  0  0  0
    3.9257    1.1787    0.1674 H   0  0  0  0  0  0  0  0  0  0  0  0
   -7.1812    0.0416    1.1673 H   0  0  0  0  0  0  0  0  0  0  0  0
   -6.9487    2.7010   -3.0181 H   0  0  0  0  0  0  0  0  0  0  0  0
   -9.2451    0.6608   -0.0276 H   0  0  0  0  0  0  0  0  0  0  0  0
   -9.1288    1.9900   -2.1187 H   0  0  0  0  0  0  0  0  0  0  0  0
    5.9281    2.2148    0.8410 H   0  0  0  0  0  0  0  0  0  0  0  0
    6.0072   -1.2525   -1.7555 H   0  0  0  0  0  0  0  0  0  0  0  0
    8.4123   -1.1669   -1.8120 H   0  0  0  0  0  0  0  0  0  0  0  0
    9.6513    0.5707   -0.5757 H   0  0  0  0  0  0  0  0  0  0  0  0
  1 24  1  0  0  0  0
  2 21  2  0  0  0  0
  3 11  1  0  0  0  0
  3 14  1  0  0  0  0
  3 15  1  0  0  0  0
  4 16  1  0  0  0  0
  4 21  1  0  0  0  0
  4 49  1  0  0  0  0
  5 17  2  0  0  0  0
  5 20  1  0  0  0  0
  6 19  1  0  0  0  0
  6 20  2  0  0  0  0
  7 21  1  0  0  0  0
  7 26  1  0  0  0  0
  7 54  1  0  0  0  0
  8 35  3  0  0  0  0
  9 10  1  0  0  0  0
  9 12  1  0  0  0  0
  9 13  1  0  0  0  0
  9 36  1  0  0  0  0
 10 14  1  0  0  0  0
 10 17  1  0  0  0  0
 10 37  1  0  0  0  0
 11 12  1  0  0  0  0
 11 16  1  0  0  0  0
 11 38  1  0  0  0  0
 12 39  1  0  0  0  0
 12 40  1  0  0  0  0
 13 15  1  0  0  0  0
 13 41  1  0  0  0  0
 13 42  1  0  0  0  0
 14 43  1  0  0  0  0
 14 44  1  0  0  0  0
 15 45  1  0  0  0  0
 15 46  1  0  0  0  0
 16 47  1  0  0  0  0
 16 48  1  0  0  0  0
 17 18  1  0  0  0  0
 18 19  2  0  0  0  0
 18 50  1  0  0  0  0
 19 22  1  0  0  0  0
 20 23  1  0  0  0  0
 22 24  1  0  0  0  0
 22 25  2  0  0  0  0
 23 51  1  0  0  0  0
 23 52  1  0  0  0  0
 23 53  1  0  0  0  0
 24 27  2  0  0  0  0
 25 28  1  0  0  0  0
 25 55  1  0  0  0  0
 26 30  1  0  0  0  0
 26 31  2  0  0  0  0
 27 29  1  0  0  0  0
 27 56  1  0  0  0  0
 28 29  2  0  0  0  0
 28 57  1  0  0  0  0
 29 58  1  0  0  0  0
 30 32  2  0  0  0  0
 30 59  1  0  0  0  0
 31 33  1  0  0  0  0
 31 60  1  0  0  0  0
 32 34  1  0  0  0  0
 32 35  1  0  0  0  0
 33 34  2  0  0  0  0
 33 61  1  0  0  0  0
 34 62  1  0  0  0  0
M  END
> <PUBCHEM_COMPOUND_CID>
45360453

> <PUBCHEM_CONFORMER_RMSD>
1.6

> <PUBCHEM_CONFORMER_DIVERSEORDER>
1
43
32
81
79
30
29
28
27
36
77
42
14
37
75
52
9
23
16
85
60
33
88
3
40
22
8
20
51
38
4
24
25
31
87
82
34
39
7
57
73
50
41
69
54
66
44
76
65
26
68
15
58
10
45
12
17
11
90
61
13
21
80
78
56
35
74
47
67
19
62
18
89
49
84
2
71
64
70
86
83
48
59
6
72
55
63
5
53
46

> <PUBCHEM_MMFF94_PARTIAL_CHARGES>
42
1 -0.11
10 0.14
11 0.27
14 0.27
15 0.27
16 0.3
17 0.17
18 -0.15
19 0.31
2 -0.57
20 0.48
21 0.69
23 0.14
24 0.11
25 -0.15
26 0.12
27 -0.15
28 -0.15
29 -0.15
3 -0.81
30 -0.15
31 -0.15
32 0.07
33 -0.15
34 -0.15
35 0.48
4 -0.73
49 0.37
5 -0.62
50 0.15
54 0.37
55 0.15
56 0.15
57 0.15
58 0.15
59 0.15
6 -0.62
60 0.15
61 0.15
62 0.15
7 -0.55
8 -0.56

> <PUBCHEM_EFFECTIVE_ROTOR_COUNT>
8.2

> <PUBCHEM_PHARMACOPHORE_FEATURES>
12
1 1 hydrophobe
1 2 acceptor
1 3 cation
1 4 donor
1 5 acceptor
1 7 donor
1 8 acceptor
3 5 6 20 cation
6 22 24 25 27 28 29 rings
6 26 30 31 32 33 34 rings
6 5 6 17 18 19 20 rings
8 3 9 10 11 12 13 14 15 rings

> <PUBCHEM_HEAVY_ATOM_COUNT>
35

> <PUBCHEM_ATOM_DEF_STEREO_COUNT>
3

> <PUBCHEM_ATOM_UDEF_STEREO_COUNT>
0

> <PUBCHEM_BOND_DEF_STEREO_COUNT>
0

> <PUBCHEM_BOND_UDEF_STEREO_COUNT>
0

> <PUBCHEM_ISOTOPIC_ATOM_COUNT>
0

> <PUBCHEM_COMPONENT_COUNT>
1

> <PUBCHEM_CACTVS_TAUTO_COUNT>
3

> <PUBCHEM_CONFORMER_ID>
02B4254500000001

> <PUBCHEM_MMFF94_ENERGY>
100.2102

> <PUBCHEM_FEATURE_SELFOVERLAP>
60.945

> <PUBCHEM_SHAPE_FINGERPRINT>
10076449 9 13901904523272894967
10280341 67 17604700055395828405
10305334 12 13479145609339208081
10554248 39 16486992678684753780
10835480 77 18131074883536215344
11136131 41 17459745922245649443
11146851 88 17821736026323503269
11211813 15 18343861142958869061
11374522 184 18409727379237925741
11621639 254 17203612601343289441
12838862 33 17894901924303752389
13150687 139 18130794429723024094
13673619 4 8214144036572843334
13911987 19 18272930484901527683
14040221 15 14619648194713792512
14040221 310 18339635772521748407
14705955 166 15647328590429013973
14950920 106 15214165105013356542
15160629 35 18338499920916485058
15289351 153 18338234852488003650
15350500 185 18408600357563981268
19304144 158 18041277674390423815
21033648 29 17168439159767000339
21133410 221 18192702560869390113
21859007 373 18113901503541456318
3388396 114 18058731295414543945
3918712 181 18413102858038680168
393628 179 18408878533943206853
397638 26 18113335323656641844
4366758 6 18409730659775469807
4874694 18 18201437009248228640
5372103 7 18410288082538706261
54039377 194 10159696906500840696
5470011 282 12895069618184738920
54728670 133 14707747555731846055
6009941 240 18336271236622054250
636783 225 17840017783202396208
9555976 147 15069210925420891625
9896288 288 7853036964633120007

> <PUBCHEM_SHAPE_MULTIPOLES>
690.47
27.75
3.94
2.22
41.18
3.08
-1.01
-31.42
5.11
0.15
-0.53
-1.82
-1.18
4.34

> <PUBCHEM_SHAPE_SELFOVERLAP>
1487.986

> <PUBCHEM_SHAPE_VOLUME>
388.1

> <PUBCHEM_COORDINATE_TYPE>
2
5
10

$$$$
