56775440
  -OEChem-12032416323D

 44 45  0     0  0  0  0  0  0999 V2000
   -3.1901   -2.1710    1.2449 O   0  0  0  0  0  0  0  0  0  0  0  0
    2.3381   -1.9385   -0.0596 O   0  0  0  0  0  0  0  0  0  0  0  0
   -1.8412    0.4450    0.2361 N   0  0  0  0  0  0  0  0  0  0  0  0
    1.0296   -2.3691   -0.2426 N   0  0  0  0  0  0  0  0  0  0  0  0
    3.7857    1.1850    0.4040 N   0  0  0  0  0  0  0  0  0  0  0  0
   -1.9243   -0.9978   -0.0111 C   0  0  0  0  0  0  0  0  0  0  0  0
   -3.3890   -1.4190    0.0262 C   0  0  0  0  0  0  0  0  0  0  0  0
   -1.8149   -1.7311    1.3211 C   0  0  0  0  0  0  0  0  0  0  0  0
   -1.0686   -1.4441   -1.1569 C   0  0  0  0  0  0  0  0  0  0  0  0
   -2.4411    1.1620   -0.8843 C   0  0  0  0  0  0  0  0  0  0  0  0
    0.4008   -1.3337   -0.8062 C   0  0  0  0  0  0  0  0  0  0  0  0
   -2.7775    2.6219   -0.5350 C   0  0  0  0  0  0  0  0  0  0  0  0
    1.2532   -0.2334   -1.0011 C   0  0  0  0  0  0  0  0  0  0  0  0
   -3.7698    2.6588    0.6305 C   0  0  0  0  0  0  0  0  0  0  0  0
   -1.5349    3.4420   -0.1786 C   0  0  0  0  0  0  0  0  0  0  0  0
    2.4588   -0.6654   -0.5152 C   0  0  0  0  0  0  0  0  0  0  0  0
    3.7864   -0.0505   -0.3979 C   0  0  0  0  0  0  0  0  0  0  0  0
    4.9710    1.9794    0.1006 C   0  0  0  0  0  0  0  0  0  0  0  0
    3.7279    0.8597    1.8250 C   0  0  0  0  0  0  0  0  0  0  0  0
   -4.1637   -0.6627    0.1888 H   0  0  0  0  0  0  0  0  0  0  0  0
   -3.7104   -2.0774   -0.7879 H   0  0  0  0  0  0  0  0  0  0  0  0
   -1.1483   -2.5976    1.3542 H   0  0  0  0  0  0  0  0  0  0  0  0
   -1.6445   -1.1261    2.2185 H   0  0  0  0  0  0  0  0  0  0  0  0
   -1.2695   -0.9046   -2.0887 H   0  0  0  0  0  0  0  0  0  0  0  0
   -1.2771   -2.4975   -1.3915 H   0  0  0  0  0  0  0  0  0  0  0  0
   -0.9070    0.8010    0.4288 H   0  0  0  0  0  0  0  0  0  0  0  0
   -1.7422    1.1805   -1.7294 H   0  0  0  0  0  0  0  0  0  0  0  0
   -3.3602    0.6996   -1.2605 H   0  0  0  0  0  0  0  0  0  0  0  0
   -3.2513    3.0815   -1.4115 H   0  0  0  0  0  0  0  0  0  0  0  0
    1.0271    0.7309   -1.4320 H   0  0  0  0  0  0  0  0  0  0  0  0
   -4.6632    2.0679    0.4018 H   0  0  0  0  0  0  0  0  0  0  0  0
   -4.0950    3.6876    0.8204 H   0  0  0  0  0  0  0  0  0  0  0  0
   -3.3343    2.2753    1.5593 H   0  0  0  0  0  0  0  0  0  0  0  0
   -0.7967    3.3968   -0.9862 H   0  0  0  0  0  0  0  0  0  0  0  0
   -1.8014    4.4939   -0.0292 H   0  0  0  0  0  0  0  0  0  0  0  0
   -1.0568    3.0886    0.7407 H   0  0  0  0  0  0  0  0  0  0  0  0
    4.5252   -0.7679   -0.0161 H   0  0  0  0  0  0  0  0  0  0  0  0
    4.1034    0.1841   -1.4237 H   0  0  0  0  0  0  0  0  0  0  0  0
    4.9807    2.2760   -0.9543 H   0  0  0  0  0  0  0  0  0  0  0  0
    5.8998    1.4386    0.3163 H   0  0  0  0  0  0  0  0  0  0  0  0
    4.9718    2.9078    0.6829 H   0  0  0  0  0  0  0  0  0  0  0  0
    2.8131    0.3096    2.0717 H   0  0  0  0  0  0  0  0  0  0  0  0
    3.7037    1.7766    2.4251 H   0  0  0  0  0  0  0  0  0  0  0  0
    4.5877    0.2635    2.1527 H   0  0  0  0  0  0  0  0  0  0  0  0
  1  7  1  0  0  0  0
  1  8  1  0  0  0  0
  2  4  1  0  0  0  0
  2 16  1  0  0  0  0
  3  6  1  0  0  0  0
  3 10  1  0  0  0  0
  3 26  1  0  0  0  0
  4 11  2  0  0  0  0
  5 17  1  0  0  0  0
  5 18  1  0  0  0  0
  5 19  1  0  0  0  0
  6  7  1  0  0  0  0
  6  8  1  0  0  0  0
  6  9  1  0  0  0  0
  7 20  1  0  0  0  0
  7 21  1  0  0  0  0
  8 22  1  0  0  0  0
  8 23  1  0  0  0  0
  9 11  1  0  0  0  0
  9 24  1  0  0  0  0
  9 25  1  0  0  0  0
 10 12  1  0  0  0  0
 10 27  1  0  0  0  0
 10 28  1  0  0  0  0
 11 13  1  0  0  0  0
 12 14  1  0  0  0  0
 12 15  1  0  0  0  0
 12 29  1  0  0  0  0
 13 16  2  0  0  0  0
 13 30  1  0  0  0  0
 14 31  1  0  0  0  0
 14 32  1  0  0  0  0
 14 33  1  0  0  0  0
 15 34  1  0  0  0  0
 15 35  1  0  0  0  0
 15 36  1  0  0  0  0
 16 17  1  0  0  0  0
 17 37  1  0  0  0  0
 17 38  1  0  0  0  0
 18 39  1  0  0  0  0
 18 40  1  0  0  0  0
 18 41  1  0  0  0  0
 19 42  1  0  0  0  0
 19 43  1  0  0  0  0
 19 44  1  0  0  0  0
M  END
> <PUBCHEM_COMPOUND_CID>
56775440

> <PUBCHEM_CONFORMER_RMSD>
1

> <PUBCHEM_CONFORMER_DIVERSEORDER>
5
102
54
60
100
39
104
35
30
86
98
42
55
96
94
29
50
81
70
33
3
69
92
93
77
59
32
101
22
9
105
84
63
95
43
19
2
41
16
106
76
27
58
67
66
52
71
80
85
75
79
10
61
97
24
83
4
36
57
62
99
34
38
8
107
90
26
51
87
73
88
11
37
15
49
25
89
21
78
74
18
20
91
31
68
1
13
47
46
72
28
64
53
6
82
44
103
65
23
14
7
56
45
17
12
40
48

> <PUBCHEM_MMFF94_PARTIAL_CHARGES>
18
1 -0.52
10 0.27
11 0.11
13 -0.15
16 -0.04
17 0.45
18 0.27
19 0.27
2 -0.02
26 0.36
3 -0.84
30 0.15
4 -0.41
5 -0.81
6 0.21
7 0.26
8 0.26
9 0.18

> <PUBCHEM_EFFECTIVE_ROTOR_COUNT>
7.8

> <PUBCHEM_PHARMACOPHORE_FEATURES>
8
1 1 acceptor
1 3 cation
1 3 donor
1 4 acceptor
1 5 cation
3 12 14 15 hydrophobe
4 1 6 7 8 rings
5 2 4 11 13 16 rings

> <PUBCHEM_HEAVY_ATOM_COUNT>
19

> <PUBCHEM_ATOM_DEF_STEREO_COUNT>
0

> <PUBCHEM_ATOM_UDEF_STEREO_COUNT>
0

> <PUBCHEM_BOND_DEF_STEREO_COUNT>
0

> <PUBCHEM_BOND_UDEF_STEREO_COUNT>
0

> <PUBCHEM_ISOTOPIC_ATOM_COUNT>
0

> <PUBCHEM_COMPONENT_COUNT>
1

> <PUBCHEM_CACTVS_TAUTO_COUNT>
1

> <PUBCHEM_CONFORMER_ID>
0362531000000005

> <PUBCHEM_MMFF94_ENERGY>
35.2732

> <PUBCHEM_FEATURE_SELFOVERLAP>
40.595

> <PUBCHEM_SHAPE_FINGERPRINT>
10366900 7 18264767834302710922
10608611 8 18340207379946816974
10646746 165 18411699864121482182
10670039 82 18263657302496125508
11221954 11 18198903612991024933
122479 349 18340767022828083397
12390115 104 18341629134919278772
12596602 18 17241878986250364632
12633257 1 17970612018511891600
12892183 10 18114736144583540842
13140716 1 18263927639857446870
14123250 116 17629768872499355561
14178342 30 18041002821256764306
14251764 38 18339914935908689720
15295992 7 17977399239228363235
15806764 133 17986699007418525430
20344682 10 18263371458646175975
20510252 161 18410578404741533019
21033648 29 18130781287650248432
21524375 3 17905329520692866079
21652331 79 18269274728407120716
21864079 5 18267857453925098388
22182937 141 18341901736145331265
23503958 25 18341337772822058628
23557571 272 18339375105568647885
23559900 14 18196369226363495742
27216 239 18411980286451449037
3187 122 18261667198717365673
3524813 1 18059288885174757952
526903 126 18339920394944056597
6049 1 18200333034200230158
621550 34 18272385186504466639
7808743 9 18124593343810283864
81228 2 18042144110564029119
9981440 41 18340188722551016978

> <PUBCHEM_SHAPE_MULTIPOLES>
364.33
8.28
3.62
1.23
7.4
2.2
0.36
4.71
1.93
-2.97
0.22
0.14
-0.2
1.15

> <PUBCHEM_SHAPE_SELFOVERLAP>
734.847

> <PUBCHEM_SHAPE_VOLUME>
218

> <PUBCHEM_COORDINATE_TYPE>
2
5
10

$$$$
