7685242
  -OEChem-12032416153D

 44 47  0     1  0  0  0  0  0999 V2000
   -4.0784   -0.0466    0.4653 S   0  0  0  0  0  0  0  0  0  0  0  0
    3.3619   -2.9719   -1.1371 S   0  0  0  0  0  0  0  0  0  0  0  0
    0.8931    3.0167   -2.4167 O   0  0  0  0  0  0  0  0  0  0  0  0
    3.8004   -0.5735    0.0983 O   0  0  0  0  0  0  0  0  0  0  0  0
    1.8408   -0.1842    1.2836 N   0  0  0  0  0  0  0  0  0  0  0  0
    0.1845    1.8554   -0.5097 N   0  0  0  0  0  0  0  0  0  0  0  0
    1.3208    2.2030    1.7627 C   0  0  1  0  0  0  0  0  0  0  0  0
   -0.5141    0.5829    1.5427 C   0  0  2  0  0  0  0  0  0  0  0  0
   -0.0263    1.7937    2.3364 C   0  0  0  0  0  0  0  0  0  0  0  0
    2.3368    1.0553    1.8808 C   0  0  0  0  0  0  0  0  0  0  0  0
    1.1181    2.6388    0.3115 C   0  0  0  0  0  0  0  0  0  0  0  0
    0.4905   -0.5773    1.7065 C   0  0  0  0  0  0  0  0  0  0  0  0
   -0.7022    0.9168    0.0580 C   0  0  0  0  0  0  0  0  0  0  0  0
   -1.6550    0.3324   -0.7174 C   0  0  0  0  0  0  0  0  0  0  0  0
    0.1533    2.1955   -1.8739 C   0  0  0  0  0  0  0  0  0  0  0  0
    2.6682   -0.9249    0.4400 C   0  0  0  0  0  0  0  0  0  0  0  0
   -1.7116    0.6573   -2.1315 C   0  0  0  0  0  0  0  0  0  0  0  0
   -0.8669    1.5155   -2.7019 C   0  0  0  0  0  0  0  0  0  0  0  0
   -2.5856   -0.6093   -0.1566 C   0  0  0  0  0  0  0  0  0  0  0  0
    2.1132   -2.2277   -0.0778 C   0  0  0  0  0  0  0  0  0  0  0  0
   -2.4560   -1.9752   -0.0335 C   0  0  0  0  0  0  0  0  0  0  0  0
   -3.5977   -2.5677    0.5792 C   0  0  0  0  0  0  0  0  0  0  0  0
   -4.5561   -1.6321    0.9012 C   0  0  0  0  0  0  0  0  0  0  0  0
    2.4684   -4.4731   -1.6100 C   0  0  0  0  0  0  0  0  0  0  0  0
    1.7178    3.0554    2.3277 H   0  0  0  0  0  0  0  0  0  0  0  0
   -1.4619    0.2752    1.9964 H   0  0  0  0  0  0  0  0  0  0  0  0
   -0.7458    2.6192    2.2680 H   0  0  0  0  0  0  0  0  0  0  0  0
    0.0720    1.5409    3.3992 H   0  0  0  0  0  0  0  0  0  0  0  0
    3.2922    1.3476    1.4323 H   0  0  0  0  0  0  0  0  0  0  0  0
    2.5331    0.8395    2.9383 H   0  0  0  0  0  0  0  0  0  0  0  0
    0.7216    3.6637    0.3084 H   0  0  0  0  0  0  0  0  0  0  0  0
    2.0834    2.6911   -0.2083 H   0  0  0  0  0  0  0  0  0  0  0  0
    0.5634   -0.8601    2.7642 H   0  0  0  0  0  0  0  0  0  0  0  0
    0.1447   -1.4626    1.1724 H   0  0  0  0  0  0  0  0  0  0  0  0
   -2.4656    0.1665   -2.7401 H   0  0  0  0  0  0  0  0  0  0  0  0
   -0.9147    1.7459   -3.7595 H   0  0  0  0  0  0  0  0  0  0  0  0
    1.2130   -2.0333   -0.6673 H   0  0  0  0  0  0  0  0  0  0  0  0
    1.8945   -2.8936    0.7614 H   0  0  0  0  0  0  0  0  0  0  0  0
   -1.5889   -2.5315   -0.3675 H   0  0  0  0  0  0  0  0  0  0  0  0
   -3.7105   -3.6263    0.7733 H   0  0  0  0  0  0  0  0  0  0  0  0
   -5.5140   -1.8038    1.3716 H   0  0  0  0  0  0  0  0  0  0  0  0
    2.2349   -5.0710   -0.7253 H   0  0  0  0  0  0  0  0  0  0  0  0
    3.0950   -5.0698   -2.2780 H   0  0  0  0  0  0  0  0  0  0  0  0
    1.5451   -4.2162   -2.1357 H   0  0  0  0  0  0  0  0  0  0  0  0
  1 19  1  0  0  0  0
  1 23  1  0  0  0  0
  2 20  1  0  0  0  0
  2 24  1  0  0  0  0
  3 15  2  0  0  0  0
  4 16  2  0  0  0  0
  5 10  1  0  0  0  0
  5 12  1  0  0  0  0
  5 16  1  0  0  0  0
  6 11  1  0  0  0  0
  6 13  1  0  0  0  0
  6 15  1  0  0  0  0
  7  9  1  0  0  0  0
  7 10  1  0  0  0  0
  7 11  1  0  0  0  0
  7 25  1  0  0  0  0
  8  9  1  0  0  0  0
  8 12  1  0  0  0  0
  8 13  1  0  0  0  0
  8 26  1  0  0  0  0
  9 27  1  0  0  0  0
  9 28  1  0  0  0  0
 10 29  1  0  0  0  0
 10 30  1  0  0  0  0
 11 31  1  0  0  0  0
 11 32  1  0  0  0  0
 12 33  1  0  0  0  0
 12 34  1  0  0  0  0
 13 14  2  0  0  0  0
 14 17  1  0  0  0  0
 14 19  1  0  0  0  0
 15 18  1  0  0  0  0
 16 20  1  0  0  0  0
 17 18  2  0  0  0  0
 17 35  1  0  0  0  0
 18 36  1  0  0  0  0
 19 21  2  0  0  0  0
 20 37  1  0  0  0  0
 20 38  1  0  0  0  0
 21 22  1  0  0  0  0
 21 39  1  0  0  0  0
 22 23  2  0  0  0  0
 22 40  1  0  0  0  0
 23 41  1  0  0  0  0
 24 42  1  0  0  0  0
 24 43  1  0  0  0  0
 24 44  1  0  0  0  0
M  END
> <PUBCHEM_COMPOUND_CID>
7685242

> <PUBCHEM_CONFORMER_RMSD>
0.8

> <PUBCHEM_CONFORMER_DIVERSEORDER>
1
7
4
6
8
5
10
3
9
2

> <PUBCHEM_MMFF94_PARTIAL_CHARGES>
27
1 -0.08
10 0.3
11 0.3
12 0.3
13 -0.03
14 0.05
15 0.62
16 0.57
17 -0.15
18 -0.14
19 -0.01
2 -0.46
20 0.29
21 -0.15
22 -0.15
23 -0.11
24 0.23
3 -0.57
35 0.15
36 0.15
39 0.15
4 -0.57
40 0.15
41 0.15
5 -0.66
6 -0.47
8 0.14

> <PUBCHEM_EFFECTIVE_ROTOR_COUNT>
5

> <PUBCHEM_PHARMACOPHORE_FEATURES>
7
1 24 hydrophobe
1 3 acceptor
1 4 acceptor
5 1 19 21 22 23 rings
6 5 7 8 9 10 12 rings
6 6 13 14 15 17 18 rings
6 6 7 8 9 11 13 rings

> <PUBCHEM_HEAVY_ATOM_COUNT>
24

> <PUBCHEM_ATOM_DEF_STEREO_COUNT>
2

> <PUBCHEM_ATOM_UDEF_STEREO_COUNT>
0

> <PUBCHEM_BOND_DEF_STEREO_COUNT>
0

> <PUBCHEM_BOND_UDEF_STEREO_COUNT>
0

> <PUBCHEM_ISOTOPIC_ATOM_COUNT>
0

> <PUBCHEM_COMPONENT_COUNT>
1

> <PUBCHEM_CACTVS_TAUTO_COUNT>
1

> <PUBCHEM_CONFORMER_ID>
0075447A00000001

> <PUBCHEM_MMFF94_ENERGY>
62.7322

> <PUBCHEM_FEATURE_SELFOVERLAP>
37.086

> <PUBCHEM_SHAPE_FINGERPRINT>
10064457 181 17552068924010384826
10764073 3 16695006864696209945
107951 10 16114886851733106414
12156800 1 16552327732868495326
12422481 6 17901923538481358416
12596599 1 17895748629961459371
12617007 42 17967536817548650223
13135754 10 16841657595268790254
13294875 104 11959193941645629473
13533116 47 18130223887137802475
13583140 156 17415827244839356953
13911987 19 17985231228716379304
14817 1 11786779665144007764
14863182 85 17762339519396426819
15422964 175 18201432532932574178
15664445 248 18040157309562639687
15848702 105 12685677579565177857
16945 1 18125697183989718992
17492 54 17315089976322310062
17974551 9 17703509870547275843
1813 80 17967255303938261651
20600515 1 18123492491672332991
20691752 17 17241594186705047587
20775530 9 18340212868942207046
20905425 154 16952508411581297149
21330990 113 17687191885472855449
23419403 2 18341317925271534799
23557571 272 17897415381619269224
23728640 28 15189631401552451046
25222932 49 16768440390585007087
2748010 2 17535709114555064073
35225 105 16765374500308426086
484985 159 17476932250665050558
497634 4 17910418099356806486
6287921 2 18192717967006186187
84936 31 18197773504026625673

> <PUBCHEM_SHAPE_MULTIPOLES>
479.91
6.04
4.23
2.52
2.65
2.89
-1.16
6.79
0.95
-3.18
-1.41
-0.19
-1.94
2.06

> <PUBCHEM_SHAPE_SELFOVERLAP>
1012.496

> <PUBCHEM_SHAPE_VOLUME>
271.4

> <PUBCHEM_COORDINATE_TYPE>
2
5
10

$$$$
