38027823
  -OEChem-12032416393D

 62 63  0     1  0  0  0  0  0999 V2000
   -0.2968    3.2749   -0.4204 O   0  0  0  0  0  0  0  0  0  0  0  0
    1.4654   -3.5397    1.3855 O   0  0  0  0  0  0  0  0  0  0  0  0
   -5.2130   -1.5491   -0.9480 O   0  0  0  0  0  0  0  0  0  0  0  0
    3.1441   -1.9481    1.1045 N   0  0  0  0  0  0  0  0  0  0  0  0
   -0.7387    2.1622    1.5714 N   0  0  0  0  0  0  0  0  0  0  0  0
    1.6464   -0.4945   -1.0606 C   0  0  1  0  0  0  0  0  0  0  0  0
    3.1454   -0.8843   -1.0903 C   0  0  1  0  0  0  0  0  0  0  0  0
    1.4646    0.9699   -1.4879 C   0  0  0  0  0  0  0  0  0  0  0  0
    2.2399    1.9425   -0.5792 C   0  0  2  0  0  0  0  0  0  0  0  0
    0.8040   -1.4053   -1.9592 C   0  0  0  0  0  0  0  0  0  0  0  0
    3.6627    1.4785   -0.3419 C   0  0  0  0  0  0  0  0  0  0  0  0
    4.0522    0.2151   -0.5887 C   0  0  0  0  0  0  0  0  0  0  0  0
    3.4003   -2.1636   -0.2851 C   0  0  0  0  0  0  0  0  0  0  0  0
    1.5058    2.1622    0.7483 C   0  0  0  0  0  0  0  0  0  0  0  0
   -0.6461   -1.4258   -1.4862 C   0  0  0  0  0  0  0  0  0  0  0  0
    0.8928   -0.9490   -3.4119 C   0  0  0  0  0  0  0  0  0  0  0  0
    4.6402    2.5127    0.1429 C   0  0  0  0  0  0  0  0  0  0  0  0
    0.0757    2.6069    0.5403 C   0  0  0  0  0  0  0  0  0  0  0  0
    2.1920   -2.6568    1.8340 C   0  0  0  0  0  0  0  0  0  0  0  0
   -2.1549    2.4412    1.6347 C   0  0  0  0  0  0  0  0  0  0  0  0
    2.1445   -2.2484    3.2820 C   0  0  0  0  0  0  0  0  0  0  0  0
   -2.9677    1.3816    0.9487 C   0  0  0  0  0  0  0  0  0  0  0  0
   -3.7944    1.7203   -0.1227 C   0  0  0  0  0  0  0  0  0  0  0  0
   -2.8957    0.0579    1.3825 C   0  0  0  0  0  0  0  0  0  0  0  0
   -4.5492    0.7356   -0.7598 C   0  0  0  0  0  0  0  0  0  0  0  0
   -3.6505   -0.9270    0.7455 C   0  0  0  0  0  0  0  0  0  0  0  0
   -4.4772   -0.5881   -0.3256 C   0  0  0  0  0  0  0  0  0  0  0  0
   -5.0918   -2.8819   -0.4529 C   0  0  0  0  0  0  0  0  0  0  0  0
    1.2758   -0.5884   -0.0325 H   0  0  0  0  0  0  0  0  0  0  0  0
    3.4518   -1.0846   -2.1247 H   0  0  0  0  0  0  0  0  0  0  0  0
    0.4064    1.2319   -1.5568 H   0  0  0  0  0  0  0  0  0  0  0  0
    1.8777    1.1244   -2.4939 H   0  0  0  0  0  0  0  0  0  0  0  0
    2.2792    2.9024   -1.1133 H   0  0  0  0  0  0  0  0  0  0  0  0
    1.1672   -2.4367   -1.9054 H   0  0  0  0  0  0  0  0  0  0  0  0
    5.0978   -0.0500   -0.4449 H   0  0  0  0  0  0  0  0  0  0  0  0
    4.4534   -2.4587   -0.3678 H   0  0  0  0  0  0  0  0  0  0  0  0
    2.8102   -3.0059   -0.6563 H   0  0  0  0  0  0  0  0  0  0  0  0
    1.9969    2.9487    1.3342 H   0  0  0  0  0  0  0  0  0  0  0  0
    1.5356    1.2494    1.3558 H   0  0  0  0  0  0  0  0  0  0  0  0
   -0.7136   -1.7829   -0.4530 H   0  0  0  0  0  0  0  0  0  0  0  0
   -1.2424   -2.1035   -2.1069 H   0  0  0  0  0  0  0  0  0  0  0  0
   -1.1137   -0.4379   -1.5365 H   0  0  0  0  0  0  0  0  0  0  0  0
    0.4409   -1.7131   -4.0567 H   0  0  0  0  0  0  0  0  0  0  0  0
    1.9246   -0.8276   -3.7546 H   0  0  0  0  0  0  0  0  0  0  0  0
    0.3353   -0.0273   -3.6091 H   0  0  0  0  0  0  0  0  0  0  0  0
    4.6640    3.3647   -0.5441 H   0  0  0  0  0  0  0  0  0  0  0  0
    5.6591    2.1169    0.2118 H   0  0  0  0  0  0  0  0  0  0  0  0
    4.3601    2.8737    1.1370 H   0  0  0  0  0  0  0  0  0  0  0  0
    3.7320   -1.2838    1.5999 H   0  0  0  0  0  0  0  0  0  0  0  0
   -0.3376    1.6109    2.3244 H   0  0  0  0  0  0  0  0  0  0  0  0
   -2.3395    3.4282    1.1955 H   0  0  0  0  0  0  0  0  0  0  0  0
   -2.4377    2.4940    2.6921 H   0  0  0  0  0  0  0  0  0  0  0  0
    2.1728   -1.1585    3.3713 H   0  0  0  0  0  0  0  0  0  0  0  0
    1.2184   -2.6112    3.7361 H   0  0  0  0  0  0  0  0  0  0  0  0
    2.9999   -2.6796    3.8088 H   0  0  0  0  0  0  0  0  0  0  0  0
   -3.8598    2.7471   -0.4725 H   0  0  0  0  0  0  0  0  0  0  0  0
   -2.2576   -0.2190    2.2178 H   0  0  0  0  0  0  0  0  0  0  0  0
   -5.1908    1.0052   -1.5942 H   0  0  0  0  0  0  0  0  0  0  0  0
   -3.5465   -1.9346    1.1333 H   0  0  0  0  0  0  0  0  0  0  0  0
   -5.4451   -2.9609    0.5808 H   0  0  0  0  0  0  0  0  0  0  0  0
   -4.0726   -3.2645   -0.5738 H   0  0  0  0  0  0  0  0  0  0  0  0
   -5.7450   -3.5141   -1.0631 H   0  0  0  0  0  0  0  0  0  0  0  0
  1 18  2  0  0  0  0
  2 19  2  0  0  0  0
  3 27  1  0  0  0  0
  3 28  1  0  0  0  0
  4 13  1  0  0  0  0
  4 19  1  0  0  0  0
  4 49  1  0  0  0  0
  5 18  1  0  0  0  0
  5 20  1  0  0  0  0
  5 50  1  0  0  0  0
  6  7  1  0  0  0  0
  6  8  1  0  0  0  0
  6 10  1  0  0  0  0
  6 29  1  0  0  0  0
  7 12  1  0  0  0  0
  7 13  1  0  0  0  0
  7 30  1  0  0  0  0
  8  9  1  0  0  0  0
  8 31  1  0  0  0  0
  8 32  1  0  0  0  0
  9 11  1  0  0  0  0
  9 14  1  0  0  0  0
  9 33  1  0  0  0  0
 10 15  1  0  0  0  0
 10 16  1  0  0  0  0
 10 34  1  0  0  0  0
 11 12  2  0  0  0  0
 11 17  1  0  0  0  0
 12 35  1  0  0  0  0
 13 36  1  0  0  0  0
 13 37  1  0  0  0  0
 14 18  1  0  0  0  0
 14 38  1  0  0  0  0
 14 39  1  0  0  0  0
 15 40  1  0  0  0  0
 15 41  1  0  0  0  0
 15 42  1  0  0  0  0
 16 43  1  0  0  0  0
 16 44  1  0  0  0  0
 16 45  1  0  0  0  0
 17 46  1  0  0  0  0
 17 47  1  0  0  0  0
 17 48  1  0  0  0  0
 19 21  1  0  0  0  0
 20 22  1  0  0  0  0
 20 51  1  0  0  0  0
 20 52  1  0  0  0  0
 21 53  1  0  0  0  0
 21 54  1  0  0  0  0
 21 55  1  0  0  0  0
 22 23  2  0  0  0  0
 22 24  1  0  0  0  0
 23 25  1  0  0  0  0
 23 56  1  0  0  0  0
 24 26  2  0  0  0  0
 24 57  1  0  0  0  0
 25 27  2  0  0  0  0
 25 58  1  0  0  0  0
 26 27  1  0  0  0  0
 26 59  1  0  0  0  0
 28 60  1  0  0  0  0
 28 61  1  0  0  0  0
 28 62  1  0  0  0  0
M  END
> <PUBCHEM_COMPOUND_CID>
38027823

> <PUBCHEM_CONFORMER_RMSD>
1

> <PUBCHEM_CONFORMER_DIVERSEORDER>
1
206
30
60
101
38
191
211
64
66
105
80
72
169
114
92
171
205
48
115
112
158
129
85
165
202
162
149
189
50
88
31
91
200
43
94
128
178
132
102
46
95
104
208
71
28
77
182
142
78
183
139
89
127
41
11
151
119
54
35
97
59
44
61
152
197
10
107
118
113
177
117
190
20
186
148
123
19
63
172
106
167
120
52
53
125
207
146
8
99
34
47
168
175
179
32
194
140
75
141
192
16
79
193
39
210
90
116
67
124
173
204
51
188
126
26
7
103
84
74
13
184
176
131
76
22
69
98
109
87
108
181
144
68
6
138
65
33
145
161
198
70
37
163
56
96
40
155
100
130
137
110
17
93
57
203
187
27
3
86
24
166
73
136
180
153
58
111
159
150
135
134
160
55
122
2
49
209
14
164
62
170
4
9
121
21
185
81
15
29
36
25
42
133
201
5
154
147
82
156
143
12
157
196
174
195
199
23
83
45
18

> <PUBCHEM_MMFF94_PARTIAL_CHARGES>
30
1 -0.57
11 -0.28
12 -0.29
13 0.3
14 0.06
17 0.14
18 0.57
19 0.57
2 -0.57
20 0.44
21 0.06
22 -0.14
23 -0.15
24 -0.15
25 -0.15
26 -0.15
27 0.08
28 0.28
3 -0.36
35 0.15
4 -0.73
49 0.37
5 -0.73
50 0.37
56 0.15
57 0.15
58 0.15
59 0.15
7 0.14
9 0.14

> <PUBCHEM_EFFECTIVE_ROTOR_COUNT>
10.8

> <PUBCHEM_PHARMACOPHORE_FEATURES>
8
1 1 acceptor
1 2 acceptor
1 3 acceptor
1 4 donor
1 5 donor
3 10 15 16 hydrophobe
6 22 23 24 25 26 27 rings
6 6 7 8 9 11 12 rings

> <PUBCHEM_HEAVY_ATOM_COUNT>
28

> <PUBCHEM_ATOM_DEF_STEREO_COUNT>
3

> <PUBCHEM_ATOM_UDEF_STEREO_COUNT>
0

> <PUBCHEM_BOND_DEF_STEREO_COUNT>
0

> <PUBCHEM_BOND_UDEF_STEREO_COUNT>
0

> <PUBCHEM_ISOTOPIC_ATOM_COUNT>
0

> <PUBCHEM_COMPONENT_COUNT>
1

> <PUBCHEM_CACTVS_TAUTO_COUNT>
4

> <PUBCHEM_CONFORMER_ID>
0244422F00000001

> <PUBCHEM_MMFF94_ENERGY>
64.717

> <PUBCHEM_FEATURE_SELFOVERLAP>
40.596

> <PUBCHEM_SHAPE_FINGERPRINT>
11370993 70 17749677397092298746
11578080 2 17822564985097338812
12156800 1 15548781810861655906
12596602 18 18410006658763934158
12633257 1 18053956056143048081
13224815 77 17988656150858560285
13583140 156 18259708904162479847
13726171 33 17988657306247312441
14674994 50 16018010024713638490
19315092 285 17896296126211807387
20511986 3 18342170055711242477
20626108 58 18342168947630428593
20715895 44 17981889640817618973
20764821 26 17396725527608357163
22393880 68 18410017598024297909
23559900 14 17700421281917589757
25222932 49 18266744765242868451
463206 1 18333736814463311411
484985 159 16816832731242312338
5309563 4 17844251946376152265

> <PUBCHEM_SHAPE_MULTIPOLES>
548.66
9.66
4.09
2.47
9.06
0.13
0.24
1.9
-0.63
-0.97
1.71
-1.34
1.88
-1.9

> <PUBCHEM_SHAPE_SELFOVERLAP>
1122.751

> <PUBCHEM_SHAPE_VOLUME>
316.2

> <PUBCHEM_COORDINATE_TYPE>
2
5
10

$$$$
