75536551
  -OEChem-12032416303D

 40 42  0     1  0  0  0  0  0999 V2000
   -5.5695    1.6507   -0.1114 S   0  0  0  0  0  0  0  0  0  0  0  0
    1.0885    1.0322   -0.3761 O   0  0  0  0  0  0  0  0  0  0  0  0
    0.0582   -2.3062    0.4600 O   0  0  0  0  0  0  0  0  0  0  0  0
    4.6835   -1.5020    0.5687 O   0  0  0  0  0  0  0  0  0  0  0  0
    3.6568   -0.1074   -0.9902 N   0  0  0  0  0  0  0  0  0  0  0  0
   -2.2885   -0.2847   -0.0714 N   0  0  0  0  0  0  0  0  0  0  0  0
    5.8719    0.3964   -0.1511 C   0  0  0  0  0  0  0  0  0  0  0  0
    5.6677    1.8445    0.1465 C   0  0  0  0  0  0  0  0  0  0  0  0
    6.3444    0.9578    1.1485 C   0  0  0  0  0  0  0  0  0  0  0  0
    1.3826   -0.3556   -0.1450 C   0  0  1  0  0  0  0  0  0  0  0  0
    0.0558   -1.0927   -0.2667 C   0  0  2  0  0  0  0  0  0  0  0  0
   -0.9025   -0.0669    0.3095 C   0  0  1  0  0  0  0  0  0  0  0  0
   -0.3313    1.2258   -0.2500 C   0  0  0  0  0  0  0  0  0  0  0  0
    2.4272   -0.8313   -1.1388 C   0  0  0  0  0  0  0  0  0  0  0  0
    4.6831   -0.5065   -0.1461 C   0  0  0  0  0  0  0  0  0  0  0  0
   -3.1916    0.5016    0.7607 C   0  0  0  0  0  0  0  0  0  0  0  0
   -4.6315    0.3012    0.3695 C   0  0  0  0  0  0  0  0  0  0  0  0
   -5.3561   -0.8699    0.3370 C   0  0  0  0  0  0  0  0  0  0  0  0
   -6.6990   -0.6566   -0.0886 C   0  0  0  0  0  0  0  0  0  0  0  0
   -6.9497    0.6695   -0.3650 C   0  0  0  0  0  0  0  0  0  0  0  0
    6.6375    0.1362   -0.8744 H   0  0  0  0  0  0  0  0  0  0  0  0
    4.6758    2.2043    0.3917 H   0  0  0  0  0  0  0  0  0  0  0  0
    6.2801    2.5608   -0.3877 H   0  0  0  0  0  0  0  0  0  0  0  0
    7.4116    1.0793    1.2891 H   0  0  0  0  0  0  0  0  0  0  0  0
    5.8003    0.7177    2.0538 H   0  0  0  0  0  0  0  0  0  0  0  0
    1.7816   -0.4393    0.8746 H   0  0  0  0  0  0  0  0  0  0  0  0
   -0.1816   -1.3093   -1.3157 H   0  0  0  0  0  0  0  0  0  0  0  0
   -0.8026   -0.0855    1.4040 H   0  0  0  0  0  0  0  0  0  0  0  0
   -0.7160    1.4527   -1.2510 H   0  0  0  0  0  0  0  0  0  0  0  0
   -0.5226    2.0875    0.3965 H   0  0  0  0  0  0  0  0  0  0  0  0
    2.0898   -0.6571   -2.1664 H   0  0  0  0  0  0  0  0  0  0  0  0
    2.6212   -1.9017   -1.0120 H   0  0  0  0  0  0  0  0  0  0  0  0
    3.7729    0.7408   -1.5372 H   0  0  0  0  0  0  0  0  0  0  0  0
   -2.5104   -1.2744    0.0394 H   0  0  0  0  0  0  0  0  0  0  0  0
    0.2680   -2.1065    1.3880 H   0  0  0  0  0  0  0  0  0  0  0  0
   -2.9319    1.5653    0.6976 H   0  0  0  0  0  0  0  0  0  0  0  0
   -3.0880    0.2081    1.8136 H   0  0  0  0  0  0  0  0  0  0  0  0
   -4.9488   -1.8361    0.6067 H   0  0  0  0  0  0  0  0  0  0  0  0
   -7.4435   -1.4359   -0.1864 H   0  0  0  0  0  0  0  0  0  0  0  0
   -7.8774    1.1089   -0.7035 H   0  0  0  0  0  0  0  0  0  0  0  0
  1 17  1  0  0  0  0
  1 20  1  0  0  0  0
  2 10  1  0  0  0  0
  2 13  1  0  0  0  0
  3 11  1  0  0  0  0
  3 35  1  0  0  0  0
  4 15  2  0  0  0  0
  5 14  1  0  0  0  0
  5 15  1  0  0  0  0
  5 33  1  0  0  0  0
  6 12  1  0  0  0  0
  6 16  1  0  0  0  0
  6 34  1  0  0  0  0
  7  8  1  0  0  0  0
  7  9  1  0  0  0  0
  7 15  1  0  0  0  0
  7 21  1  0  0  0  0
  8  9  1  0  0  0  0
  8 22  1  0  0  0  0
  8 23  1  0  0  0  0
  9 24  1  0  0  0  0
  9 25  1  0  0  0  0
 10 11  1  0  0  0  0
 10 14  1  0  0  0  0
 10 26  1  0  0  0  0
 11 12  1  0  0  0  0
 11 27  1  0  0  0  0
 12 13  1  0  0  0  0
 12 28  1  0  0  0  0
 13 29  1  0  0  0  0
 13 30  1  0  0  0  0
 14 31  1  0  0  0  0
 14 32  1  0  0  0  0
 16 17  1  0  0  0  0
 16 36  1  0  0  0  0
 16 37  1  0  0  0  0
 17 18  2  0  0  0  0
 18 19  1  0  0  0  0
 18 38  1  0  0  0  0
 19 20  2  0  0  0  0
 19 39  1  0  0  0  0
 20 40  1  0  0  0  0
M  END
> <PUBCHEM_COMPOUND_CID>
75536551

> <PUBCHEM_CONFORMER_RMSD>
0.8

> <PUBCHEM_CONFORMER_DIVERSEORDER>
2
140
109
142
131
71
89
198
54
18
193
11
116
46
103
161
212
28
229
238
223
99
53
181
119
45
133
84
208
218
145
83
87
172
95
136
152
220
157
147
196
160
42
169
158
124
3
187
207
59
236
211
227
214
23
81
173
114
75
233
110
27
48
55
88
33
204
174
195
61
37
171
31
159
77
56
213
67
40
94
203
221
185
120
132
217
237
17
143
92
5
121
113
127
205
50
183
165
177
146
186
154
202
104
22
226
175
163
148
164
60
151
74
222
234
182
97
188
135
106
123
39
115
144
85
118
21
231
25
149
184
201
166
35
162
73
210
36
101
68
192
100
58
91
76
6
63
117
43
72
189
8
138
200
206
29
230
41
225
111
199
93
180
20
90
232
70
215
86
228
108
126
47
112
125
209
155
57
130
19
30
82
26
122
34
128
153
65
190
52
24
78
14
156
49
9
176
38
69
170
79
105
168
179
167
197
10
96
32
102
62
129
235
98
224
219
107
1
194
134
66
216
51
137
44
64
15
141
178
80
4
191
16
13
150
7
12
139

> <PUBCHEM_MMFF94_PARTIAL_CHARGES>
31
1 -0.08
10 0.28
11 0.28
12 0.27
13 0.28
14 0.3
15 0.63
16 0.45
17 -0.14
18 -0.15
19 -0.15
2 -0.56
20 -0.11
21 0.1
22 0.1
23 0.1
24 0.1
25 0.1
3 -0.68
33 0.37
34 0.36
35 0.4
38 0.15
39 0.15
4 -0.57
40 0.15
5 -0.73
6 -0.9
7 -0.1
8 -0.2
9 -0.2

> <PUBCHEM_EFFECTIVE_ROTOR_COUNT>
8.6

> <PUBCHEM_PHARMACOPHORE_FEATURES>
9
1 2 acceptor
1 3 acceptor
1 3 donor
1 4 acceptor
1 5 donor
1 6 cation
1 6 donor
5 1 17 18 19 20 rings
5 2 10 11 12 13 rings

> <PUBCHEM_HEAVY_ATOM_COUNT>
20

> <PUBCHEM_ATOM_DEF_STEREO_COUNT>
3

> <PUBCHEM_ATOM_UDEF_STEREO_COUNT>
0

> <PUBCHEM_BOND_DEF_STEREO_COUNT>
0

> <PUBCHEM_BOND_UDEF_STEREO_COUNT>
0

> <PUBCHEM_ISOTOPIC_ATOM_COUNT>
0

> <PUBCHEM_COMPONENT_COUNT>
1

> <PUBCHEM_CACTVS_TAUTO_COUNT>
2

> <PUBCHEM_CONFORMER_ID>
048098A700000002

> <PUBCHEM_MMFF94_ENERGY>
31.0965

> <PUBCHEM_FEATURE_SELFOVERLAP>
45.672

> <PUBCHEM_SHAPE_FINGERPRINT>
10 15 18260547861620518328
10638233 991 15267341846502896499
10968037 39 17775849017366950159
11315181 36 17989489628818927065
11796584 16 15719684220378733064
12236239 1 18202284676145536671
125118 31 18408043996080440149
12516196 113 18342739615613888729
13533116 47 17968375637852708970
13899415 154 16558752338624197232
14123256 10 16559032692403401008
1420 363 10087640399026367429
14251718 22 18131634474223648765
14251732 16 18343582966685690881
14251752 14 9295298230927176019
14251764 18 14707209911978185926
14251764 46 17346600768514872582
14429380 56 18059281149659472421
15183329 4 14418134002156469329
20157964 124 18272936007781012518
20281389 69 18261111842429485077
21054139 6 18409445921394169919
21150785 3 17632853136296719189
21521721 280 17917997199856279539
22079108 93 18341609335014003286
22224240 67 18413103978629316778
2297311 6 10735881668738297299
23035841 295 10519988153782221165
23081809 10 15140972785011318159
23402539 116 16877947144300092591
23559900 14 18411132580979108785
28498 318 12829479346639533296
2916195 48 18413670214211529640
29717793 49 8286201660870259706
3009799 131 18333450937224463897
3014965 18 11097846406797309824
34797466 226 16271933735339531428
4072396 5 17603586318218382938
4325135 7 17632859728417527060
4340502 62 16660362576007488994
4463277 17 18411418406024135621
5104073 3 18262245400341807193
5207 217 17489870453164947119
6438161 24 10951782850606986644

> <PUBCHEM_SHAPE_MULTIPOLES>
387.87
19.59
1.64
0.87
5.09
0.04
0
-5.27
1.54
-0.56
0.12
-0.55
0.01
0.55

> <PUBCHEM_SHAPE_SELFOVERLAP>
789.756

> <PUBCHEM_SHAPE_VOLUME>
227.2

> <PUBCHEM_COORDINATE_TYPE>
2
5
10

$$$$
