7144094
  -OEChem-12032416413D

 51 55  0     1  0  0  0  0  0999 V2000
   -1.3867   -3.9330   -0.4792 S   0  0  0  0  0  0  0  0  0  0  0  0
   -3.0002    2.6109    2.1529 O   0  0  0  0  0  0  0  0  0  0  0  0
   -3.9251   -1.6750   -0.4017 O   0  0  0  0  0  0  0  0  0  0  0  0
    5.6584   -0.7345   -0.6317 O   0  0  0  0  0  0  0  0  0  0  0  0
   -1.6555    1.8569    0.3896 N   0  0  0  0  0  0  0  0  0  0  0  0
   -2.1388   -0.6323   -1.4921 N   0  0  0  0  0  0  0  0  0  0  0  0
   -2.5326    1.7606   -2.0197 C   0  0  2  0  0  0  0  0  0  0  0  0
   -0.2537    0.9881   -1.5070 C   0  0  2  0  0  0  0  0  0  0  0  0
   -1.0690    1.9190   -2.4038 C   0  0  0  0  0  0  0  0  0  0  0  0
   -2.7068    2.2221   -0.5715 C   0  0  0  0  0  0  0  0  0  0  0  0
   -2.9907    0.3060   -2.2201 C   0  0  0  0  0  0  0  0  0  0  0  0
   -0.6983   -0.4724   -1.7391 C   0  0  0  0  0  0  0  0  0  0  0  0
   -0.4076    1.3527   -0.0283 C   0  0  0  0  0  0  0  0  0  0  0  0
    0.5895    1.1764    0.8775 C   0  0  0  0  0  0  0  0  0  0  0  0
   -1.9346    2.1571    1.7346 C   0  0  0  0  0  0  0  0  0  0  0  0
   -2.7192   -1.5434   -0.6063 C   0  0  0  0  0  0  0  0  0  0  0  0
    0.3366    1.4711    2.2748 C   0  0  0  0  0  0  0  0  0  0  0  0
   -0.8431    1.9175    2.7059 C   0  0  0  0  0  0  0  0  0  0  0  0
    1.9229    0.6734    0.4799 C   0  0  0  0  0  0  0  0  0  0  0  0
   -1.8326   -2.4168    0.1717 C   0  0  0  0  0  0  0  0  0  0  0  0
    2.1685   -0.6961    0.4652 C   0  0  0  0  0  0  0  0  0  0  0  0
    2.9224    1.5737    0.1239 C   0  0  0  0  0  0  0  0  0  0  0  0
   -1.2761   -2.1924    1.4072 C   0  0  0  0  0  0  0  0  0  0  0  0
    3.4260   -1.1699    0.0910 C   0  0  0  0  0  0  0  0  0  0  0  0
    4.1798    1.0999   -0.2505 C   0  0  0  0  0  0  0  0  0  0  0  0
    4.4316   -0.2719   -0.2669 C   0  0  0  0  0  0  0  0  0  0  0  0
   -0.4665   -3.2858    1.8304 C   0  0  0  0  0  0  0  0  0  0  0  0
   -0.4391   -4.3002    0.8990 C   0  0  0  0  0  0  0  0  0  0  0  0
    6.6405    0.2383   -0.9856 C   0  0  0  0  0  0  0  0  0  0  0  0
   -3.1534    2.3954   -2.6639 H   0  0  0  0  0  0  0  0  0  0  0  0
    0.7913    1.0815   -1.8227 H   0  0  0  0  0  0  0  0  0  0  0  0
   -0.7450    2.9600   -2.2803 H   0  0  0  0  0  0  0  0  0  0  0  0
   -0.9210    1.6599   -3.4593 H   0  0  0  0  0  0  0  0  0  0  0  0
   -2.7462    3.3202   -0.5586 H   0  0  0  0  0  0  0  0  0  0  0  0
   -3.6741    1.8840   -0.1783 H   0  0  0  0  0  0  0  0  0  0  0  0
   -4.0379    0.1940   -1.9197 H   0  0  0  0  0  0  0  0  0  0  0  0
   -2.9288    0.0365   -3.2815 H   0  0  0  0  0  0  0  0  0  0  0  0
   -0.5261   -0.7508   -2.7864 H   0  0  0  0  0  0  0  0  0  0  0  0
   -0.1106   -1.1616   -1.1338 H   0  0  0  0  0  0  0  0  0  0  0  0
    1.1384    1.3057    2.9885 H   0  0  0  0  0  0  0  0  0  0  0  0
   -1.0252    2.1288    3.7527 H   0  0  0  0  0  0  0  0  0  0  0  0
    1.4045   -1.4089    0.7488 H   0  0  0  0  0  0  0  0  0  0  0  0
    2.7390    2.6453    0.1319 H   0  0  0  0  0  0  0  0  0  0  0  0
   -1.4404   -1.2939    1.9873 H   0  0  0  0  0  0  0  0  0  0  0  0
    3.6166   -2.2396    0.0820 H   0  0  0  0  0  0  0  0  0  0  0  0
    4.9145    1.8521   -0.5165 H   0  0  0  0  0  0  0  0  0  0  0  0
    0.0685   -3.3259    2.7702 H   0  0  0  0  0  0  0  0  0  0  0  0
    0.0924   -5.2392    0.9616 H   0  0  0  0  0  0  0  0  0  0  0  0
    6.8872    0.8876   -0.1387 H   0  0  0  0  0  0  0  0  0  0  0  0
    6.3414    0.8078   -1.8721 H   0  0  0  0  0  0  0  0  0  0  0  0
    7.5539   -0.3054   -1.2482 H   0  0  0  0  0  0  0  0  0  0  0  0
  1 20  1  0  0  0  0
  1 28  1  0  0  0  0
  2 15  2  0  0  0  0
  3 16  2  0  0  0  0
  4 26  1  0  0  0  0
  4 29  1  0  0  0  0
  5 10  1  0  0  0  0
  5 13  1  0  0  0  0
  5 15  1  0  0  0  0
  6 11  1  0  0  0  0
  6 12  1  0  0  0  0
  6 16  1  0  0  0  0
  7  9  1  0  0  0  0
  7 10  1  0  0  0  0
  7 11  1  0  0  0  0
  7 30  1  0  0  0  0
  8  9  1  0  0  0  0
  8 12  1  0  0  0  0
  8 13  1  0  0  0  0
  8 31  1  0  0  0  0
  9 32  1  0  0  0  0
  9 33  1  0  0  0  0
 10 34  1  0  0  0  0
 10 35  1  0  0  0  0
 11 36  1  0  0  0  0
 11 37  1  0  0  0  0
 12 38  1  0  0  0  0
 12 39  1  0  0  0  0
 13 14  2  0  0  0  0
 14 17  1  0  0  0  0
 14 19  1  0  0  0  0
 15 18  1  0  0  0  0
 16 20  1  0  0  0  0
 17 18  2  0  0  0  0
 17 40  1  0  0  0  0
 18 41  1  0  0  0  0
 19 21  2  0  0  0  0
 19 22  1  0  0  0  0
 20 23  2  0  0  0  0
 21 24  1  0  0  0  0
 21 42  1  0  0  0  0
 22 25  2  0  0  0  0
 22 43  1  0  0  0  0
 23 27  1  0  0  0  0
 23 44  1  0  0  0  0
 24 26  2  0  0  0  0
 24 45  1  0  0  0  0
 25 26  1  0  0  0  0
 25 46  1  0  0  0  0
 27 28  2  0  0  0  0
 27 47  1  0  0  0  0
 28 48  1  0  0  0  0
 29 49  1  0  0  0  0
 29 50  1  0  0  0  0
 29 51  1  0  0  0  0
M  END
> <PUBCHEM_COMPOUND_CID>
7144094

> <PUBCHEM_CONFORMER_RMSD>
0.8

> <PUBCHEM_CONFORMER_DIVERSEORDER>
1
5
4
2
3

> <PUBCHEM_MMFF94_PARTIAL_CHARGES>
36
1 -0.08
10 0.3
11 0.3
12 0.3
13 -0.03
14 -0.03
15 0.62
16 0.71
17 -0.15
18 -0.14
19 0.03
2 -0.57
20 -0.05
21 -0.15
22 -0.15
23 -0.15
24 -0.15
25 -0.15
26 0.08
27 -0.15
28 -0.11
29 0.28
3 -0.57
4 -0.36
40 0.15
41 0.15
42 0.15
43 0.15
44 0.15
45 0.15
46 0.15
47 0.15
48 0.15
5 -0.47
6 -0.66
8 0.14

> <PUBCHEM_EFFECTIVE_ROTOR_COUNT>
5

> <PUBCHEM_PHARMACOPHORE_FEATURES>
8
1 2 acceptor
1 3 acceptor
1 4 acceptor
5 1 20 23 27 28 rings
6 19 21 22 24 25 26 rings
6 5 13 14 15 17 18 rings
6 5 7 8 9 10 13 rings
6 6 7 8 9 11 12 rings

> <PUBCHEM_HEAVY_ATOM_COUNT>
29

> <PUBCHEM_ATOM_DEF_STEREO_COUNT>
2

> <PUBCHEM_ATOM_UDEF_STEREO_COUNT>
0

> <PUBCHEM_BOND_DEF_STEREO_COUNT>
0

> <PUBCHEM_BOND_UDEF_STEREO_COUNT>
0

> <PUBCHEM_ISOTOPIC_ATOM_COUNT>
0

> <PUBCHEM_COMPONENT_COUNT>
1

> <PUBCHEM_CACTVS_TAUTO_COUNT>
1

> <PUBCHEM_CONFORMER_ID>
006D029E00000001

> <PUBCHEM_MMFF94_ENERGY>
91.2203

> <PUBCHEM_FEATURE_SELFOVERLAP>
42.182

> <PUBCHEM_SHAPE_FINGERPRINT>
12156800 1 17542562344698034131
12592029 89 17827624864767622245
12788726 201 18202283593450073946
13135754 10 17627832791573209690
133893 2 17472404466292282541
14114206 34 18058148558204060529
14251740 79 18409728465379614394
15463212 79 17749094587748190122
17974551 9 17413881152144953195
20101258 96 17418379112470000224
20642791 178 17543601173112303549
20775530 9 17903638832360727002
3027735 51 18412263917449722514
35225 105 17983333432205999019
394222 165 16908922340769744369
469060 322 17386305266690568290
484985 159 18131358496636869950
497634 4 18338247054500810436
59755656 520 18269287767980676472

> <PUBCHEM_SHAPE_MULTIPOLES>
573.09
7.8
4.33
2.42
16.67
4.8
-0.57
-0.18
3.47
-4.03
-1.51
-1.9
-1.57
-0.04

> <PUBCHEM_SHAPE_SELFOVERLAP>
1252.827

> <PUBCHEM_SHAPE_VOLUME>
311.9

> <PUBCHEM_COORDINATE_TYPE>
2
5
10

$$$$
