28961668
  -OEChem-12032416133D

 54 56  0     1  0  0  0  0  0999 V2000
   -0.2489   -1.6608   -0.6989 O   0  0  0  0  0  0  0  0  0  0  0  0
   -2.3567   -2.0266    1.3969 O   0  0  0  0  0  0  0  0  0  0  0  0
    0.5585   -4.3458   -0.4906 O   0  0  0  0  0  0  0  0  0  0  0  0
    2.2088   -0.6524    0.8290 O   0  0  0  0  0  0  0  0  0  0  0  0
   -3.3374    0.2393   -0.0709 N   0  0  0  0  0  0  0  0  0  0  0  0
   -5.5713    2.0733   -0.1381 N   0  0  0  0  0  0  0  0  0  0  0  0
    0.8079    1.0571    0.1465 N   0  0  0  0  0  0  0  0  0  0  0  0
    3.0875    1.3302   -0.0697 N   0  0  0  0  0  0  0  0  0  0  0  0
   -2.4491   -0.7526   -0.6737 C   0  0  1  0  0  0  0  0  0  0  0  0
   -0.9561   -0.4007   -0.6969 C   0  0  1  0  0  0  0  0  0  0  0  0
   -2.4678   -2.1243   -0.0171 C   0  0  1  0  0  0  0  0  0  0  0  0
   -1.2033   -2.7361   -0.6083 C   0  0  2  0  0  0  0  0  0  0  0  0
   -3.2521    1.5186   -0.7858 C   0  0  0  0  0  0  0  0  0  0  0  0
   -4.7229   -0.2454   -0.0505 C   0  0  0  0  0  0  0  0  0  0  0  0
   -0.4271    0.4125    0.4793 C   0  0  0  0  0  0  0  0  0  0  0  0
   -4.1861    2.5587   -0.1576 C   0  0  0  0  0  0  0  0  0  0  0  0
   -5.6559    0.7950    0.5786 C   0  0  0  0  0  0  0  0  0  0  0  0
   -0.5968   -3.8780    0.1868 C   0  0  0  0  0  0  0  0  0  0  0  0
   -6.4606    3.0653    0.4630 C   0  0  0  0  0  0  0  0  0  0  0  0
    2.0686    0.4694    0.3478 C   0  0  0  0  0  0  0  0  0  0  0  0
    4.4835    1.1055   -0.0319 C   0  0  0  0  0  0  0  0  0  0  0  0
    5.3605    2.0865   -0.4944 C   0  0  0  0  0  0  0  0  0  0  0  0
    4.9831   -0.0972    0.4675 C   0  0  0  0  0  0  0  0  0  0  0  0
    6.7373    1.8650   -0.4574 C   0  0  0  0  0  0  0  0  0  0  0  0
    6.3597   -0.3188    0.5046 C   0  0  0  0  0  0  0  0  0  0  0  0
    7.2368    0.6624    0.0420 C   0  0  0  0  0  0  0  0  0  0  0  0
   -2.7499   -0.9078   -1.7226 H   0  0  0  0  0  0  0  0  0  0  0  0
   -0.7194    0.1134   -1.6373 H   0  0  0  0  0  0  0  0  0  0  0  0
   -3.3566   -2.7157   -0.2599 H   0  0  0  0  0  0  0  0  0  0  0  0
   -1.3858   -3.0593   -1.6412 H   0  0  0  0  0  0  0  0  0  0  0  0
   -3.5276    1.3835   -1.8415 H   0  0  0  0  0  0  0  0  0  0  0  0
   -2.2438    1.9408   -0.7866 H   0  0  0  0  0  0  0  0  0  0  0  0
   -4.8134   -1.1549    0.5531 H   0  0  0  0  0  0  0  0  0  0  0  0
   -5.0704   -0.4875   -1.0642 H   0  0  0  0  0  0  0  0  0  0  0  0
   -0.2527   -0.2349    1.3465 H   0  0  0  0  0  0  0  0  0  0  0  0
   -1.0936    1.2120    0.8043 H   0  0  0  0  0  0  0  0  0  0  0  0
   -3.8396    2.8009    0.8564 H   0  0  0  0  0  0  0  0  0  0  0  0
   -4.1266    3.4788   -0.7517 H   0  0  0  0  0  0  0  0  0  0  0  0
   -6.6824    0.4113    0.5312 H   0  0  0  0  0  0  0  0  0  0  0  0
   -5.4037    0.9234    1.6401 H   0  0  0  0  0  0  0  0  0  0  0  0
   -1.3056   -4.7050    0.2908 H   0  0  0  0  0  0  0  0  0  0  0  0
   -0.2730   -3.5459    1.1783 H   0  0  0  0  0  0  0  0  0  0  0  0
   -2.4818   -2.9180    1.7640 H   0  0  0  0  0  0  0  0  0  0  0  0
    0.7683    1.9831   -0.2680 H   0  0  0  0  0  0  0  0  0  0  0  0
   -7.4992    2.7176    0.4345 H   0  0  0  0  0  0  0  0  0  0  0  0
   -6.4278    4.0033   -0.1023 H   0  0  0  0  0  0  0  0  0  0  0  0
   -6.1976    3.2812    1.5049 H   0  0  0  0  0  0  0  0  0  0  0  0
    0.9237   -5.0765    0.0369 H   0  0  0  0  0  0  0  0  0  0  0  0
    2.7989    2.2293   -0.4472 H   0  0  0  0  0  0  0  0  0  0  0  0
    4.9843    3.0282   -0.8862 H   0  0  0  0  0  0  0  0  0  0  0  0
    4.3689   -0.9035    0.8426 H   0  0  0  0  0  0  0  0  0  0  0  0
    7.4202    2.6289   -0.8175 H   0  0  0  0  0  0  0  0  0  0  0  0
    6.7502   -1.2550    0.8932 H   0  0  0  0  0  0  0  0  0  0  0  0
    8.3087    0.4897    0.0709 H   0  0  0  0  0  0  0  0  0  0  0  0
  1 10  1  0  0  0  0
  1 12  1  0  0  0  0
  2 11  1  0  0  0  0
  2 43  1  0  0  0  0
  3 18  1  0  0  0  0
  3 48  1  0  0  0  0
  4 20  2  0  0  0  0
  5  9  1  0  0  0  0
  5 13  1  0  0  0  0
  5 14  1  0  0  0  0
  6 16  1  0  0  0  0
  6 17  1  0  0  0  0
  6 19  1  0  0  0  0
  7 15  1  0  0  0  0
  7 20  1  0  0  0  0
  7 44  1  0  0  0  0
  8 20  1  0  0  0  0
  8 21  1  0  0  0  0
  8 49  1  0  0  0  0
  9 10  1  0  0  0  0
  9 11  1  0  0  0  0
  9 27  1  0  0  0  0
 10 15  1  0  0  0  0
 10 28  1  0  0  0  0
 11 12  1  0  0  0  0
 11 29  1  0  0  0  0
 12 18  1  0  0  0  0
 12 30  1  0  0  0  0
 13 16  1  0  0  0  0
 13 31  1  0  0  0  0
 13 32  1  0  0  0  0
 14 17  1  0  0  0  0
 14 33  1  0  0  0  0
 14 34  1  0  0  0  0
 15 35  1  0  0  0  0
 15 36  1  0  0  0  0
 16 37  1  0  0  0  0
 16 38  1  0  0  0  0
 17 39  1  0  0  0  0
 17 40  1  0  0  0  0
 18 41  1  0  0  0  0
 18 42  1  0  0  0  0
 19 45  1  0  0  0  0
 19 46  1  0  0  0  0
 19 47  1  0  0  0  0
 21 22  2  0  0  0  0
 21 23  1  0  0  0  0
 22 24  1  0  0  0  0
 22 50  1  0  0  0  0
 23 25  2  0  0  0  0
 23 51  1  0  0  0  0
 24 26  2  0  0  0  0
 24 52  1  0  0  0  0
 25 26  1  0  0  0  0
 25 53  1  0  0  0  0
 26 54  1  0  0  0  0
M  END
> <PUBCHEM_COMPOUND_CID>
28961668

> <PUBCHEM_CONFORMER_RMSD>
1

> <PUBCHEM_CONFORMER_DIVERSEORDER>
1
48
26
32
4
12
23
20
33
37
8
10
39
2
5
30
38
42
31
14
47
29
44
13
28
16
15
41
9
25
6
19
3
46
7
34
40
24
22
21
43
17
35
36
45
11
18
27

> <PUBCHEM_MMFF94_PARTIAL_CHARGES>
35
1 -0.56
10 0.28
11 0.28
12 0.28
13 0.27
14 0.27
15 0.3
16 0.27
17 0.27
18 0.28
19 0.27
2 -0.68
20 0.69
21 0.12
22 -0.15
23 -0.15
24 -0.15
25 -0.15
26 -0.15
3 -0.68
4 -0.57
43 0.4
44 0.37
48 0.4
49 0.37
5 -0.81
50 0.15
51 0.15
52 0.15
53 0.15
54 0.15
6 -0.81
7 -0.73
8 -0.55
9 0.27

> <PUBCHEM_EFFECTIVE_ROTOR_COUNT>
9.2

> <PUBCHEM_PHARMACOPHORE_FEATURES>
13
1 1 acceptor
1 2 acceptor
1 2 donor
1 3 acceptor
1 3 donor
1 4 acceptor
1 5 cation
1 6 cation
1 7 donor
1 8 donor
5 1 9 10 11 12 rings
6 21 22 23 24 25 26 rings
6 5 6 13 14 16 17 rings

> <PUBCHEM_HEAVY_ATOM_COUNT>
26

> <PUBCHEM_ATOM_DEF_STEREO_COUNT>
4

> <PUBCHEM_ATOM_UDEF_STEREO_COUNT>
0

> <PUBCHEM_BOND_DEF_STEREO_COUNT>
0

> <PUBCHEM_BOND_UDEF_STEREO_COUNT>
0

> <PUBCHEM_ISOTOPIC_ATOM_COUNT>
0

> <PUBCHEM_COMPONENT_COUNT>
1

> <PUBCHEM_CACTVS_TAUTO_COUNT>
3

> <PUBCHEM_CONFORMER_ID>
01B9EB8400000001

> <PUBCHEM_MMFF94_ENERGY>
66.9696

> <PUBCHEM_FEATURE_SELFOVERLAP>
66.028

> <PUBCHEM_SHAPE_FINGERPRINT>
10165383 225 18342458115474120345
10411042 1 17762618791503690799
107951 10 18341333365922311150
10835480 77 18201431545734135432
11036077 3 18411700980554905911
11796584 16 18343022229526754382
12107183 9 18263353721322391042
12166972 35 11815891271520258098
12236239 1 18333448755391711536
12293681 160 17775286040879127193
12788726 201 17846217696482347704
13914758 101 14404916768689593082
14251757 5 18340768255821437464
14713325 29 18263083361378462923
14790565 3 18410573959635303200
15183329 4 18409441492997622372
15230672 131 18409167693708212030
15400415 2 18410290346302598596
15927050 60 18413105056719739431
16110190 28 18114184159238962980
16719943 64 18411698794347753202
167882 2 18268147557032332935
17093844 174 18201997785394394600
17844677 252 18265618874047143300
19611394 137 17969235597847907713
20281389 69 18410291432407676240
20554085 129 17845074221363315538
20621476 66 18411983541952763529
20681677 155 18410288151310449530
21033648 29 18271795865362047544
21236236 1 18411979204483771887
21756936 100 18412820304956223037
23559900 14 18129936918771164144
3411729 13 18265332807497036307
3610482 184 17896332483557575172
4015057 19 16128089078636907978
4058900 60 18338803303809176339
4073 2 17968099785235660344
5104073 3 18114452474989468008
5265222 85 18268715077078292468
5385378 56 18268998579263723249
559249 180 18411978083650411650
59755656 520 18409161125948180031
6327066 14 18336260155337710541
6328613 192 18410011061343159500
6371380 46 18272362092596951104
7226269 152 17989208144044630145
77188 2 17186438487347316015
9981440 41 18408612457088370979

> <PUBCHEM_SHAPE_MULTIPOLES>
491.67
17.44
3.97
0.85
18.07
3.84
-0.05
-16.69
-1.16
-3.92
0.29
-0.17
0.13
-0.68

> <PUBCHEM_SHAPE_SELFOVERLAP>
1021.428

> <PUBCHEM_SHAPE_VOLUME>
278.9

> <PUBCHEM_COORDINATE_TYPE>
2
5
10

$$$$
