40587807
  -OEChem-12032416223D

 63 67  0     1  0  0  0  0  0999 V2000
   -0.9108    0.3060    1.9857 O   0  0  0  0  0  0  0  0  0  0  0  0
    3.1175   -0.5463   -2.1074 O   0  0  0  0  0  0  0  0  0  0  0  0
   -0.1506   -1.4888    0.7053 N   0  0  0  0  0  0  0  0  0  0  0  0
    2.7703   -2.1046   -0.4322 N   0  0  0  0  0  0  0  0  0  0  0  0
    4.0190   -0.1484   -0.0077 N   0  0  0  0  0  0  0  0  0  0  0  0
   -4.9787   -0.7725   -0.2712 N   0  0  0  0  0  0  0  0  0  0  0  0
    1.6246   -3.1273    1.5486 C   0  0  2  0  0  0  0  0  0  0  0  0
    0.6693   -3.4143   -0.6962 C   0  0  2  0  0  0  0  0  0  0  0  0
    0.9482   -4.1296    0.6230 C   0  0  0  0  0  0  0  0  0  0  0  0
    0.6426   -1.9851    1.8377 C   0  0  0  0  0  0  0  0  0  0  0  0
    2.9434   -2.6108    0.9388 C   0  0  0  0  0  0  0  0  0  0  0  0
    2.0044   -2.9813   -1.3269 C   0  0  0  0  0  0  0  0  0  0  0  0
   -0.2204   -2.2026   -0.4932 C   0  0  0  0  0  0  0  0  0  0  0  0
   -1.0457   -1.7969   -1.4712 C   0  0  0  0  0  0  0  0  0  0  0  0
   -0.9170   -0.3283    0.9292 C   0  0  0  0  0  0  0  0  0  0  0  0
    3.2896   -0.8910   -0.9355 C   0  0  0  0  0  0  0  0  0  0  0  0
   -1.8016    0.1249   -0.2008 C   0  0  0  0  0  0  0  0  0  0  0  0
   -1.8419   -0.6121   -1.3209 C   0  0  0  0  0  0  0  0  0  0  0  0
   -2.6042    1.3558   -0.0949 C   0  0  0  0  0  0  0  0  0  0  0  0
   -3.9067    1.3312    0.4033 C   0  0  0  0  0  0  0  0  0  0  0  0
   -2.0373    2.5620   -0.5061 C   0  0  0  0  0  0  0  0  0  0  0  0
    4.1582    1.2606    0.0424 C   0  0  0  0  0  0  0  0  0  0  0  0
   -4.5466    0.0571    0.8531 C   0  0  0  0  0  0  0  0  0  0  0  0
   -4.6424    2.5130    0.4905 C   0  0  0  0  0  0  0  0  0  0  0  0
   -2.7731    3.7439   -0.4190 C   0  0  0  0  0  0  0  0  0  0  0  0
   -4.0756    3.7195    0.0793 C   0  0  0  0  0  0  0  0  0  0  0  0
    4.9936    1.8453    0.9940 C   0  0  0  0  0  0  0  0  0  0  0  0
    3.4596    2.0629   -0.8597 C   0  0  0  0  0  0  0  0  0  0  0  0
    5.1305    3.2327    1.0436 C   0  0  0  0  0  0  0  0  0  0  0  0
    3.5964    3.4501   -0.8102 C   0  0  0  0  0  0  0  0  0  0  0  0
   -6.2524   -0.2892   -0.8030 C   0  0  0  0  0  0  0  0  0  0  0  0
   -5.0942   -2.1710    0.1401 C   0  0  0  0  0  0  0  0  0  0  0  0
    4.4319    4.0350    0.1415 C   0  0  0  0  0  0  0  0  0  0  0  0
    1.8704   -3.6151    2.5001 H   0  0  0  0  0  0  0  0  0  0  0  0
    0.1790   -4.1251   -1.3741 H   0  0  0  0  0  0  0  0  0  0  0  0
    0.0171   -4.5012    1.0688 H   0  0  0  0  0  0  0  0  0  0  0  0
    1.5964   -4.9993    0.4605 H   0  0  0  0  0  0  0  0  0  0  0  0
   -0.0884   -2.3291    2.5822 H   0  0  0  0  0  0  0  0  0  0  0  0
    1.1650   -1.1371    2.2981 H   0  0  0  0  0  0  0  0  0  0  0  0
    3.3643   -1.8584    1.6080 H   0  0  0  0  0  0  0  0  0  0  0  0
    3.6681   -3.4315    0.8761 H   0  0  0  0  0  0  0  0  0  0  0  0
    2.6318   -3.8600   -1.5221 H   0  0  0  0  0  0  0  0  0  0  0  0
    1.8302   -2.4967   -2.2935 H   0  0  0  0  0  0  0  0  0  0  0  0
   -1.1111   -2.3265   -2.4159 H   0  0  0  0  0  0  0  0  0  0  0  0
   -2.4598   -0.3281   -2.1678 H   0  0  0  0  0  0  0  0  0  0  0  0
    4.5234   -0.6510    0.7154 H   0  0  0  0  0  0  0  0  0  0  0  0
   -1.0228    2.5993   -0.8960 H   0  0  0  0  0  0  0  0  0  0  0  0
   -3.8182   -0.4793    1.4767 H   0  0  0  0  0  0  0  0  0  0  0  0
   -5.3803    0.2577    1.5414 H   0  0  0  0  0  0  0  0  0  0  0  0
   -5.6588    2.5118    0.8756 H   0  0  0  0  0  0  0  0  0  0  0  0
   -2.3317    4.6833   -0.7390 H   0  0  0  0  0  0  0  0  0  0  0  0
   -4.6484    4.6398    0.1470 H   0  0  0  0  0  0  0  0  0  0  0  0
    5.5434    1.2316    1.7029 H   0  0  0  0  0  0  0  0  0  0  0  0
    2.7733    1.6659   -1.5983 H   0  0  0  0  0  0  0  0  0  0  0  0
    5.7806    3.6882    1.7849 H   0  0  0  0  0  0  0  0  0  0  0  0
    3.0470    4.0760   -1.5073 H   0  0  0  0  0  0  0  0  0  0  0  0
   -6.1609    0.7254   -1.2038 H   0  0  0  0  0  0  0  0  0  0  0  0
   -7.0497   -0.2971   -0.0507 H   0  0  0  0  0  0  0  0  0  0  0  0
   -6.5750   -0.9154   -1.6430 H   0  0  0  0  0  0  0  0  0  0  0  0
   -4.1267   -2.5554    0.4826 H   0  0  0  0  0  0  0  0  0  0  0  0
   -5.3942   -2.7980   -0.7070 H   0  0  0  0  0  0  0  0  0  0  0  0
   -5.8253   -2.3060    0.9456 H   0  0  0  0  0  0  0  0  0  0  0  0
    4.5369    5.1153    0.1813 H   0  0  0  0  0  0  0  0  0  0  0  0
  1 15  2  0  0  0  0
  2 16  2  0  0  0  0
  3 10  1  0  0  0  0
  3 13  1  0  0  0  0
  3 15  1  0  0  0  0
  4 11  1  0  0  0  0
  4 12  1  0  0  0  0
  4 16  1  0  0  0  0
  5 16  1  0  0  0  0
  5 22  1  0  0  0  0
  5 46  1  0  0  0  0
  6 23  1  0  0  0  0
  6 31  1  0  0  0  0
  6 32  1  0  0  0  0
  7  9  1  0  0  0  0
  7 10  1  0  0  0  0
  7 11  1  0  0  0  0
  7 34  1  0  0  0  0
  8  9  1  0  0  0  0
  8 12  1  0  0  0  0
  8 13  1  0  0  0  0
  8 35  1  0  0  0  0
  9 36  1  0  0  0  0
  9 37  1  0  0  0  0
 10 38  1  0  0  0  0
 10 39  1  0  0  0  0
 11 40  1  0  0  0  0
 11 41  1  0  0  0  0
 12 42  1  0  0  0  0
 12 43  1  0  0  0  0
 13 14  2  0  0  0  0
 14 18  1  0  0  0  0
 14 44  1  0  0  0  0
 15 17  1  0  0  0  0
 17 18  2  0  0  0  0
 17 19  1  0  0  0  0
 18 45  1  0  0  0  0
 19 20  1  0  0  0  0
 19 21  2  0  0  0  0
 20 23  1  0  0  0  0
 20 24  2  0  0  0  0
 21 25  1  0  0  0  0
 21 47  1  0  0  0  0
 22 27  2  0  0  0  0
 22 28  1  0  0  0  0
 23 48  1  0  0  0  0
 23 49  1  0  0  0  0
 24 26  1  0  0  0  0
 24 50  1  0  0  0  0
 25 26  2  0  0  0  0
 25 51  1  0  0  0  0
 26 52  1  0  0  0  0
 27 29  1  0  0  0  0
 27 53  1  0  0  0  0
 28 30  2  0  0  0  0
 28 54  1  0  0  0  0
 29 33  2  0  0  0  0
 29 55  1  0  0  0  0
 30 33  1  0  0  0  0
 30 56  1  0  0  0  0
 31 57  1  0  0  0  0
 31 58  1  0  0  0  0
 31 59  1  0  0  0  0
 32 60  1  0  0  0  0
 32 61  1  0  0  0  0
 32 62  1  0  0  0  0
 33 63  1  0  0  0  0
M  END
> <PUBCHEM_COMPOUND_CID>
40587807

> <PUBCHEM_CONFORMER_RMSD>
1

> <PUBCHEM_CONFORMER_DIVERSEORDER>
1
18
20
2
21
9
31
28
12
16
32
34
29
25
35
19
23
36
24
8
4
26
22
33
14
13
17
27
5
11
6
15
30
7
10
3

> <PUBCHEM_MMFF94_PARTIAL_CHARGES>
43
1 -0.57
10 0.3
11 0.3
12 0.3
13 -0.03
14 -0.15
15 0.62
16 0.69
17 -0.01
18 -0.15
19 0.03
2 -0.57
20 -0.14
21 -0.15
22 0.12
23 0.41
24 -0.15
25 -0.15
26 -0.15
27 -0.15
28 -0.15
29 -0.15
3 -0.47
30 -0.15
31 0.27
32 0.27
33 -0.15
4 -0.66
44 0.15
45 0.15
46 0.37
47 0.15
5 -0.55
50 0.15
51 0.15
52 0.15
53 0.15
54 0.15
55 0.15
56 0.15
6 -0.81
63 0.15
8 0.14

> <PUBCHEM_EFFECTIVE_ROTOR_COUNT>
7

> <PUBCHEM_PHARMACOPHORE_FEATURES>
9
1 1 acceptor
1 2 acceptor
1 5 donor
1 6 cation
6 19 20 21 24 25 26 rings
6 22 27 28 29 30 33 rings
6 3 13 14 15 17 18 rings
6 3 7 8 9 10 13 rings
6 4 7 8 9 11 12 rings

> <PUBCHEM_HEAVY_ATOM_COUNT>
33

> <PUBCHEM_ATOM_DEF_STEREO_COUNT>
2

> <PUBCHEM_ATOM_UDEF_STEREO_COUNT>
0

> <PUBCHEM_BOND_DEF_STEREO_COUNT>
0

> <PUBCHEM_BOND_UDEF_STEREO_COUNT>
0

> <PUBCHEM_ISOTOPIC_ATOM_COUNT>
0

> <PUBCHEM_COMPONENT_COUNT>
1

> <PUBCHEM_CACTVS_TAUTO_COUNT>
6

> <PUBCHEM_CONFORMER_ID>
026B521F00000001

> <PUBCHEM_MMFF94_ENERGY>
103.1619

> <PUBCHEM_FEATURE_SELFOVERLAP>
47.24

> <PUBCHEM_SHAPE_FINGERPRINT>
10439779 11 17978784606884686400
10675989 125 18271248205825094056
11331351 85 16962373964366639234
12107698 1 18272093777573803558
12403259 118 18195514905548996259
12788726 201 17468210271935456494
12925494 130 18122344571643327809
13583140 156 17828504482828570227
1361 2 18337393854351300349
13617811 41 18196355121859856677
14068700 686 18411986883874916501
14790565 3 18413390951527916291
14849402 71 18334295341101700642
14955137 171 18048593716950567746
15082195 135 18196354932849270789
17349148 13 14852474042355354275
17980427 23 17980167861247911346
18681886 176 18053097320350815370
19930381 70 18410014316616945285
20567600 299 18050566240588861980
23559900 14 17623291572591759143
249057 3 17688033007594359319
3298306 158 18411421704585925584
3493558 16 18267308625455082457
469060 322 17186737546273246442
508180 173 18197237870925147470
5776283 40 18267889288575982044
6004065 56 17834113431060686343
6036956 94 16821646947083543285
6086070 43 18047463435543535063
7288768 16 18115304630575603234

> <PUBCHEM_SHAPE_MULTIPOLES>
647.46
11.78
6.01
1.48
4.62
1.54
-0.06
10.02
-0.32
-3.79
-0.3
-0.71
-0.73
0.02

> <PUBCHEM_SHAPE_SELFOVERLAP>
1411.082

> <PUBCHEM_SHAPE_VOLUME>
346

> <PUBCHEM_COORDINATE_TYPE>
2
5
10

$$$$
