40777383
  -OEChem-12032416253D

 68 72  0     1  0  0  0  0  0999 V2000
    0.0988    0.1279   -1.5268 O   0  0  0  0  0  0  0  0  0  0  0  0
   -3.5311   -1.1276    0.7451 O   0  0  0  0  0  0  0  0  0  0  0  0
    6.8936   -2.7326   -1.0582 O   0  0  0  0  0  0  0  0  0  0  0  0
    7.9917   -0.7395    0.5354 O   0  0  0  0  0  0  0  0  0  0  0  0
   -1.5520    5.1486   -1.0185 N   0  0  0  0  0  0  0  0  0  0  0  0
    1.6392    0.1618    0.2110 N   0  0  0  0  0  0  0  0  0  0  0  0
   -2.7100   -0.0433    1.0298 N   0  0  0  0  0  0  0  0  0  0  0  0
   -1.3752    2.2128   -0.7813 C   0  0  1  0  0  0  0  0  0  0  0  0
   -2.4605    3.0463   -0.0591 C   0  0  2  0  0  0  0  0  0  0  0  0
   -0.8845    2.9891   -2.0149 C   0  0  0  0  0  0  0  0  0  0  0  0
   -1.9865    4.4843    0.2107 C   0  0  0  0  0  0  0  0  0  0  0  0
   -0.1974    1.8118    0.1149 C   0  0  0  0  0  0  0  0  0  0  0  0
   -0.4693    4.4202   -1.6764 C   0  0  0  0  0  0  0  0  0  0  0  0
   -2.9574    2.3934    1.2315 C   0  0  0  0  0  0  0  0  0  0  0  0
    0.5194    0.6257   -0.4792 C   0  0  0  0  0  0  0  0  0  0  0  0
   -3.5131    1.0230    0.9724 C   0  0  0  0  0  0  0  0  0  0  0  0
    2.1066    0.6693    1.5042 C   0  0  0  0  0  0  0  0  0  0  0  0
    2.3858   -0.9857   -0.3124 C   0  0  0  0  0  0  0  0  0  0  0  0
    3.5516    1.1430    1.3844 C   0  0  0  0  0  0  0  0  0  0  0  0
    3.8745   -0.8973   -0.0799 C   0  0  0  0  0  0  0  0  0  0  0  0
    4.4299    0.0965    0.7472 C   0  0  0  0  0  0  0  0  0  0  0  0
   -4.8386    0.6764    0.6586 C   0  0  0  0  0  0  0  0  0  0  0  0
    4.7174   -1.8463   -0.6759 C   0  0  0  0  0  0  0  0  0  0  0  0
    5.8179    0.1448    0.9355 C   0  0  0  0  0  0  0  0  0  0  0  0
   -4.7962   -0.6863    0.5257 C   0  0  0  0  0  0  0  0  0  0  0  0
    6.0960   -1.7970   -0.4710 C   0  0  0  0  0  0  0  0  0  0  0  0
    6.6459   -0.8007    0.3315 C   0  0  0  0  0  0  0  0  0  0  0  0
   -5.7630   -1.6997    0.2178 C   0  0  0  0  0  0  0  0  0  0  0  0
   -7.0906   -1.3466   -0.0237 C   0  0  0  0  0  0  0  0  0  0  0  0
   -5.3757   -3.0385    0.1598 C   0  0  0  0  0  0  0  0  0  0  0  0
    6.2508   -3.7181   -1.8645 C   0  0  0  0  0  0  0  0  0  0  0  0
    8.4732    0.3118    1.3705 C   0  0  0  0  0  0  0  0  0  0  0  0
   -8.0311   -2.3322   -0.3232 C   0  0  0  0  0  0  0  0  0  0  0  0
   -6.3162   -4.0242   -0.1397 C   0  0  0  0  0  0  0  0  0  0  0  0
   -7.6439   -3.6710   -0.3811 C   0  0  0  0  0  0  0  0  0  0  0  0
   -1.8710    1.3119   -1.1648 H   0  0  0  0  0  0  0  0  0  0  0  0
   -3.3182    3.1161   -0.7466 H   0  0  0  0  0  0  0  0  0  0  0  0
   -1.6966    3.0235   -2.7540 H   0  0  0  0  0  0  0  0  0  0  0  0
   -0.0492    2.4791   -2.5068 H   0  0  0  0  0  0  0  0  0  0  0  0
   -2.8111    5.0650    0.6402 H   0  0  0  0  0  0  0  0  0  0  0  0
   -1.1747    4.4941    0.9486 H   0  0  0  0  0  0  0  0  0  0  0  0
   -0.5286    1.5025    1.1068 H   0  0  0  0  0  0  0  0  0  0  0  0
    0.5103    2.6364    0.2397 H   0  0  0  0  0  0  0  0  0  0  0  0
    0.4329    4.4366   -1.0553 H   0  0  0  0  0  0  0  0  0  0  0  0
   -0.2156    4.9418   -2.6061 H   0  0  0  0  0  0  0  0  0  0  0  0
   -3.7627    3.0102    1.6538 H   0  0  0  0  0  0  0  0  0  0  0  0
   -2.1871    2.3607    2.0095 H   0  0  0  0  0  0  0  0  0  0  0  0
   -1.2382    6.0934   -0.7985 H   0  0  0  0  0  0  0  0  0  0  0  0
    2.0266   -0.1571    2.2218 H   0  0  0  0  0  0  0  0  0  0  0  0
    1.4887    1.4837    1.8854 H   0  0  0  0  0  0  0  0  0  0  0  0
    2.1873   -1.0928   -1.3846 H   0  0  0  0  0  0  0  0  0  0  0  0
    1.9955   -1.8745    0.1979 H   0  0  0  0  0  0  0  0  0  0  0  0
    3.9260    1.3967    2.3829 H   0  0  0  0  0  0  0  0  0  0  0  0
    3.5949    2.0476    0.7652 H   0  0  0  0  0  0  0  0  0  0  0  0
   -5.6914    1.3300    0.5473 H   0  0  0  0  0  0  0  0  0  0  0  0
    4.2328   -2.5986   -1.2900 H   0  0  0  0  0  0  0  0  0  0  0  0
    6.1894    0.9460    1.5662 H   0  0  0  0  0  0  0  0  0  0  0  0
   -7.4224   -0.3122    0.0143 H   0  0  0  0  0  0  0  0  0  0  0  0
   -4.3514   -3.3535    0.3416 H   0  0  0  0  0  0  0  0  0  0  0  0
    7.0345   -4.3772   -2.2526 H   0  0  0  0  0  0  0  0  0  0  0  0
    5.7554   -3.2697   -2.7325 H   0  0  0  0  0  0  0  0  0  0  0  0
    5.5738   -4.3446   -1.2738 H   0  0  0  0  0  0  0  0  0  0  0  0
    9.5620    0.2078    1.4228 H   0  0  0  0  0  0  0  0  0  0  0  0
    8.0966    0.2189    2.3949 H   0  0  0  0  0  0  0  0  0  0  0  0
    8.2695    1.2971    0.9376 H   0  0  0  0  0  0  0  0  0  0  0  0
   -9.0649   -2.0576   -0.5113 H   0  0  0  0  0  0  0  0  0  0  0  0
   -6.0153   -5.0668   -0.1850 H   0  0  0  0  0  0  0  0  0  0  0  0
   -8.3761   -4.4385   -0.6143 H   0  0  0  0  0  0  0  0  0  0  0  0
  1 15  2  0  0  0  0
  2  7  1  0  0  0  0
  2 25  1  0  0  0  0
  3 26  1  0  0  0  0
  3 31  1  0  0  0  0
  4 27  1  0  0  0  0
  4 32  1  0  0  0  0
  5 11  1  0  0  0  0
  5 13  1  0  0  0  0
  5 48  1  0  0  0  0
  6 15  1  0  0  0  0
  6 17  1  0  0  0  0
  6 18  1  0  0  0  0
  7 16  2  0  0  0  0
  8  9  1  0  0  0  0
  8 10  1  0  0  0  0
  8 12  1  0  0  0  0
  8 36  1  0  0  0  0
  9 11  1  0  0  0  0
  9 14  1  0  0  0  0
  9 37  1  0  0  0  0
 10 13  1  0  0  0  0
 10 38  1  0  0  0  0
 10 39  1  0  0  0  0
 11 40  1  0  0  0  0
 11 41  1  0  0  0  0
 12 15  1  0  0  0  0
 12 42  1  0  0  0  0
 12 43  1  0  0  0  0
 13 44  1  0  0  0  0
 13 45  1  0  0  0  0
 14 16  1  0  0  0  0
 14 46  1  0  0  0  0
 14 47  1  0  0  0  0
 16 22  1  0  0  0  0
 17 19  1  0  0  0  0
 17 49  1  0  0  0  0
 17 50  1  0  0  0  0
 18 20  1  0  0  0  0
 18 51  1  0  0  0  0
 18 52  1  0  0  0  0
 19 21  1  0  0  0  0
 19 53  1  0  0  0  0
 19 54  1  0  0  0  0
 20 21  1  0  0  0  0
 20 23  2  0  0  0  0
 21 24  2  0  0  0  0
 22 25  2  0  0  0  0
 22 55  1  0  0  0  0
 23 26  1  0  0  0  0
 23 56  1  0  0  0  0
 24 27  1  0  0  0  0
 24 57  1  0  0  0  0
 25 28  1  0  0  0  0
 26 27  2  0  0  0  0
 28 29  2  0  0  0  0
 28 30  1  0  0  0  0
 29 33  1  0  0  0  0
 29 58  1  0  0  0  0
 30 34  2  0  0  0  0
 30 59  1  0  0  0  0
 31 60  1  0  0  0  0
 31 61  1  0  0  0  0
 31 62  1  0  0  0  0
 32 63  1  0  0  0  0
 32 64  1  0  0  0  0
 32 65  1  0  0  0  0
 33 35  2  0  0  0  0
 33 66  1  0  0  0  0
 34 35  1  0  0  0  0
 34 67  1  0  0  0  0
 35 68  1  0  0  0  0
M  END
> <PUBCHEM_COMPOUND_CID>
40777383

> <PUBCHEM_CONFORMER_RMSD>
1

> <PUBCHEM_CONFORMER_DIVERSEORDER>
15
99
28
186
24
46
269
294
195
80
73
178
191
296
56
62
81
250
273
261
307
301
34
267
67
122
207
166
114
229
60
163
145
165
52
256
303
29
79
77
295
287
222
259
9
172
278
290
185
190
248
270
217
291
126
208
276
245
224
243
150
302
233
300
22
112
213
181
209
149
76
119
132
244
18
68
123
232
160
306
2
45
285
85
152
100
116
220
274
187
161
141
110
65
157
130
286
47
176
182
83
292
89
293
258
249
225
158
35
127
131
159
146
196
230
179
134
216
27
240
103
177
247
42
237
133
124
147
234
3
251
203
96
304
193
202
170
238
111
13
75
156
227
148
174
23
308
32
106
305
43
254
298
98
118
228
63
188
262
108
255
10
197
136
266
241
93
117
206
19
30
268
88
144
271
26
173
142
253
252
201
279
281
107
204
87
242
155
48
78
55
4
36
44
40
125
37
41
90
200
8
70
104
184
109
113
17
92
275
199
71
211
94
50
21
105
49
189
59
169
38
215
272
260
168
282
57
16
257
121
39
7
280
212
12
164
194
25
264
91
236
226
102
218
128
11
221
135
167
162
154
61
210
299
153
6
20
223
120
1
14
263
151
72
95
86
192
5
219
265
235
140
283
51
101
82
175
205
246
297
284
138
180
66
288
58
139
183
97
129
31
198
239
53
137
69
277
214
115
54
64
74
231
33
84
171
289
143

> <PUBCHEM_MMFF94_PARTIAL_CHARGES>
41
1 -0.57
11 0.27
12 0.06
13 0.27
14 0.18
15 0.57
16 0.11
17 0.3
18 0.44
19 0.14
2 -0.02
20 -0.14
21 -0.14
22 -0.15
23 -0.15
24 -0.15
25 0.09
26 0.08
27 0.08
28 0.05
29 -0.15
3 -0.36
30 -0.15
31 0.28
32 0.28
33 -0.15
34 -0.15
35 -0.15
4 -0.36
48 0.36
5 -0.9
55 0.15
56 0.15
57 0.15
58 0.15
59 0.15
6 -0.66
66 0.15
67 0.15
68 0.15
7 -0.41

> <PUBCHEM_EFFECTIVE_ROTOR_COUNT>
10

> <PUBCHEM_PHARMACOPHORE_FEATURES>
11
1 1 acceptor
1 3 acceptor
1 4 acceptor
1 5 cation
1 5 donor
1 7 acceptor
5 2 7 16 22 25 rings
6 20 21 23 24 26 27 rings
6 28 29 30 33 34 35 rings
6 5 8 9 10 11 13 rings
6 6 17 18 19 20 21 rings

> <PUBCHEM_HEAVY_ATOM_COUNT>
35

> <PUBCHEM_ATOM_DEF_STEREO_COUNT>
2

> <PUBCHEM_ATOM_UDEF_STEREO_COUNT>
0

> <PUBCHEM_BOND_DEF_STEREO_COUNT>
0

> <PUBCHEM_BOND_UDEF_STEREO_COUNT>
0

> <PUBCHEM_ISOTOPIC_ATOM_COUNT>
0

> <PUBCHEM_COMPONENT_COUNT>
1

> <PUBCHEM_CACTVS_TAUTO_COUNT>
1

> <PUBCHEM_CONFORMER_ID>
026E36A70000000F

> <PUBCHEM_MMFF94_ENERGY>
96.6221

> <PUBCHEM_FEATURE_SELFOVERLAP>
55.85

> <PUBCHEM_SHAPE_FINGERPRINT>
10100884 174 18334010627256341714
10904742 90 9799421022845011451
11062273 19 17972888230846457909
11135926 11 15647053729021723401
11411753 3 18128245698352475624
11497681 19 18341617035922169564
11973864 118 14975985718999665767
12166972 35 17968656142218999303
12342043 65 18130785638230280904
12623949 98 18059868284704976670
131258 43 18192454028449439332
13540713 5 18194142891970506625
1361 4 18340207389122944034
13631057 29 18333728000921517896
13782708 43 18342461383606498834
13947947 140 18201450142573385339
14068700 675 18259702315688338309
14556957 393 15936698064421181758
14565420 104 10375610200076596957
15183329 4 14273727461254427359
15392192 29 18261973915728416043
15803439 3 17101690970431403949
16126227 98 9151170957335887343
16989713 51 18336271124140417606
16992779 147 16270221881839802912
17686467 74 18339635746002332552
18608769 82 18411697660924630712
19303781 99 18194392523774939039
21130935 74 18059861602358888706
21756936 100 9727631705381273537
25019877 29 17203334446392357231
255183 451 18336828696900668669
3627633 1 18408884006385825445
397830 11 18343019940145544796
4144715 1 17985836921836326344
437815 12 18187924028137816631
5219985 9 18187080685096331445
5385378 56 11887690467087419548
5718773 13 18342176708974208739
6081469 158 18412259541563115871
613672 6 18115029718303796283
6376802 137 18059584619943811563
6698420 124 17624981534258073272

> <PUBCHEM_SHAPE_MULTIPOLES>
681.86
23.52
5.87
1.44
10.22
4.02
-0.35
-31.93
2.53
-7.64
-3.16
1.35
0.65
2.1

> <PUBCHEM_SHAPE_SELFOVERLAP>
1471.337

> <PUBCHEM_SHAPE_VOLUME>
372.6

> <PUBCHEM_COORDINATE_TYPE>
2
5
10

$$$$
