51136698
  -OEChem-12032416143D

 61 64  0     1  0  0  0  0  0999 V2000
   -0.0901   -3.4912    1.2079 O   0  0  0  0  0  0  0  0  0  0  0  0
   -7.0215    0.9950    0.5239 O   0  0  0  0  0  0  0  0  0  0  0  0
   -6.5730   -1.0592   -0.3478 O   0  0  0  0  0  0  0  0  0  0  0  0
   -1.3632   -2.1522   -0.2004 N   0  0  0  0  0  0  0  0  0  0  0  0
   -0.9515    2.1765   -1.5729 N   0  0  0  0  0  0  0  0  0  0  0  0
   -2.4222    0.0193   -0.7811 C   0  0  2  0  0  0  0  0  0  0  0  0
   -3.7861   -0.5701   -0.3395 C   0  0  1  0  0  0  0  0  0  0  0  0
   -3.6087   -1.6863    0.7037 C   0  0  0  0  0  0  0  0  0  0  0  0
   -1.4843   -1.1150   -1.2329 C   0  0  0  0  0  0  0  0  0  0  0  0
   -2.6309   -2.7519    0.2152 C   0  0  0  0  0  0  0  0  0  0  0  0
   -1.7397    0.8803    0.2890 C   0  0  0  0  0  0  0  0  0  0  0  0
   -4.7632    0.4905    0.1669 C   0  0  0  0  0  0  0  0  0  0  0  0
   -0.7291    1.7966   -0.3579 C   0  0  0  0  0  0  0  0  0  0  0  0
   -0.1668   -2.5986    0.3596 C   0  0  0  0  0  0  0  0  0  0  0  0
   -6.1891    0.0229    0.0700 C   0  0  0  0  0  0  0  0  0  0  0  0
    0.4653    2.2090    0.4225 C   0  0  0  0  0  0  0  0  0  0  0  0
    1.0957   -1.9279   -0.1198 C   0  0  0  0  0  0  0  0  0  0  0  0
    1.5482    2.7201   -0.3040 C   0  0  0  0  0  0  0  0  0  0  0  0
   -0.0015    3.1149   -2.1801 C   0  0  0  0  0  0  0  0  0  0  0  0
    1.4391    2.8023   -1.7976 C   0  0  0  0  0  0  0  0  0  0  0  0
    2.3128   -2.5183    0.5775 C   0  0  0  0  0  0  0  0  0  0  0  0
    0.5375    2.0901    1.8118 C   0  0  0  0  0  0  0  0  0  0  0  0
    2.7173    3.0886    0.3674 C   0  0  0  0  0  0  0  0  0  0  0  0
    1.7033    2.4756    2.4751 C   0  0  0  0  0  0  0  0  0  0  0  0
    3.6149   -1.9008    0.1289 C   0  0  0  0  0  0  0  0  0  0  0  0
    2.7912    2.9706    1.7554 C   0  0  0  0  0  0  0  0  0  0  0  0
    4.3117   -2.4478   -0.9485 C   0  0  0  0  0  0  0  0  0  0  0  0
    4.1215   -0.7833    0.7921 C   0  0  0  0  0  0  0  0  0  0  0  0
    5.5153   -1.8772   -1.3628 C   0  0  0  0  0  0  0  0  0  0  0  0
    5.3250   -0.2126    0.3780 C   0  0  0  0  0  0  0  0  0  0  0  0
    6.0219   -0.7596   -0.6996 C   0  0  0  0  0  0  0  0  0  0  0  0
   -2.6499    0.6236   -1.6681 H   0  0  0  0  0  0  0  0  0  0  0  0
   -4.2180   -1.0373   -1.2373 H   0  0  0  0  0  0  0  0  0  0  0  0
   -3.2327   -1.2589    1.6420 H   0  0  0  0  0  0  0  0  0  0  0  0
   -4.5666   -2.1642    0.9354 H   0  0  0  0  0  0  0  0  0  0  0  0
   -0.5139   -0.7169   -1.5336 H   0  0  0  0  0  0  0  0  0  0  0  0
   -1.9016   -1.6071   -2.1207 H   0  0  0  0  0  0  0  0  0  0  0  0
   -3.0429   -3.2809   -0.6524 H   0  0  0  0  0  0  0  0  0  0  0  0
   -2.4717   -3.4942    1.0037 H   0  0  0  0  0  0  0  0  0  0  0  0
   -2.4567    1.5368    0.7923 H   0  0  0  0  0  0  0  0  0  0  0  0
   -1.2749    0.2491    1.0512 H   0  0  0  0  0  0  0  0  0  0  0  0
   -4.6813    1.3934   -0.4499 H   0  0  0  0  0  0  0  0  0  0  0  0
   -4.5573    0.7513    1.2108 H   0  0  0  0  0  0  0  0  0  0  0  0
    1.1865   -2.0720   -1.2025 H   0  0  0  0  0  0  0  0  0  0  0  0
    1.0340   -0.8550    0.0891 H   0  0  0  0  0  0  0  0  0  0  0  0
    1.7501    1.8419   -2.2262 H   0  0  0  0  0  0  0  0  0  0  0  0
    2.0982    3.5820   -2.1955 H   0  0  0  0  0  0  0  0  0  0  0  0
   -0.2728    4.1365   -1.8859 H   0  0  0  0  0  0  0  0  0  0  0  0
   -0.1035    3.0588   -3.2694 H   0  0  0  0  0  0  0  0  0  0  0  0
    2.3608   -3.6028    0.4087 H   0  0  0  0  0  0  0  0  0  0  0  0
    2.2218   -2.4003    1.6660 H   0  0  0  0  0  0  0  0  0  0  0  0
   -0.2942    1.7181    2.4013 H   0  0  0  0  0  0  0  0  0  0  0  0
    3.5737    3.4682   -0.1832 H   0  0  0  0  0  0  0  0  0  0  0  0
   -7.9626    0.7226    0.4752 H   0  0  0  0  0  0  0  0  0  0  0  0
    1.7651    2.3878    3.5562 H   0  0  0  0  0  0  0  0  0  0  0  0
    3.6986    3.2618    2.2766 H   0  0  0  0  0  0  0  0  0  0  0  0
    3.9260   -3.3171   -1.4744 H   0  0  0  0  0  0  0  0  0  0  0  0
    3.5867   -0.3479    1.6319 H   0  0  0  0  0  0  0  0  0  0  0  0
    6.0576   -2.3027   -2.2021 H   0  0  0  0  0  0  0  0  0  0  0  0
    5.7186    0.6584    0.8937 H   0  0  0  0  0  0  0  0  0  0  0  0
    6.9587   -0.3148   -1.0224 H   0  0  0  0  0  0  0  0  0  0  0  0
  1 14  2  0  0  0  0
  2 15  1  0  0  0  0
  2 54  1  0  0  0  0
  3 15  2  0  0  0  0
  4  9  1  0  0  0  0
  4 10  1  0  0  0  0
  4 14  1  0  0  0  0
  5 13  2  0  0  0  0
  5 19  1  0  0  0  0
  6  7  1  0  0  0  0
  6  9  1  0  0  0  0
  6 11  1  0  0  0  0
  6 32  1  0  0  0  0
  7  8  1  0  0  0  0
  7 12  1  0  0  0  0
  7 33  1  0  0  0  0
  8 10  1  0  0  0  0
  8 34  1  0  0  0  0
  8 35  1  0  0  0  0
  9 36  1  0  0  0  0
  9 37  1  0  0  0  0
 10 38  1  0  0  0  0
 10 39  1  0  0  0  0
 11 13  1  0  0  0  0
 11 40  1  0  0  0  0
 11 41  1  0  0  0  0
 12 15  1  0  0  0  0
 12 42  1  0  0  0  0
 12 43  1  0  0  0  0
 13 16  1  0  0  0  0
 14 17  1  0  0  0  0
 16 18  1  0  0  0  0
 16 22  2  0  0  0  0
 17 21  1  0  0  0  0
 17 44  1  0  0  0  0
 17 45  1  0  0  0  0
 18 20  1  0  0  0  0
 18 23  2  0  0  0  0
 19 20  1  0  0  0  0
 19 48  1  0  0  0  0
 19 49  1  0  0  0  0
 20 46  1  0  0  0  0
 20 47  1  0  0  0  0
 21 25  1  0  0  0  0
 21 50  1  0  0  0  0
 21 51  1  0  0  0  0
 22 24  1  0  0  0  0
 22 52  1  0  0  0  0
 23 26  1  0  0  0  0
 23 53  1  0  0  0  0
 24 26  2  0  0  0  0
 24 55  1  0  0  0  0
 25 27  2  0  0  0  0
 25 28  1  0  0  0  0
 26 56  1  0  0  0  0
 27 29  1  0  0  0  0
 27 57  1  0  0  0  0
 28 30  2  0  0  0  0
 28 58  1  0  0  0  0
 29 31  2  0  0  0  0
 29 59  1  0  0  0  0
 30 31  1  0  0  0  0
 30 60  1  0  0  0  0
 31 61  1  0  0  0  0
M  END
> <PUBCHEM_COMPOUND_CID>
51136698

> <PUBCHEM_CONFORMER_RMSD>
1

> <PUBCHEM_CONFORMER_DIVERSEORDER>
1
202
46
169
96
125
140
104
162
233
95
174
239
187
75
211
228
36
68
251
221
6
114
64
40
234
192
205
131
252
240
214
121
190
107
2
79
50
195
109
201
116
176
143
41
212
154
7
12
47
250
65
188
227
13
198
186
229
62
48
230
66
243
238
206
23
26
108
244
63
16
58
3
85
165
144
225
71
219
83
236
194
11
126
123
157
112
171
218
89
200
57
38
156
147
113
183
74
193
179
76
35
87
82
163
245
31
93
141
90
155
8
102
142
253
4
210
249
67
101
237
216
120
37
21
106
149
191
124
32
213
44
128
226
81
248
55
10
34
14
168
100
29
70
164
220
59
175
43
167
94
208
185
222
73
254
22
60
9
42
61
159
148
151
223
98
242
134
172
215
72
139
17
224
132
51
217
86
28
39
160
182
137
235
196
88
30
119
161
80
49
53
173
181
170
204
207
78
118
54
56
99
122
209
146
117
129
24
246
138
77
152
84
184
115
97
127
136
145
33
15
189
111
130
178
25
203
197
92
20
153
110
105
177
103
241
232
135
166
150
199
231
45
91
19
69
52
247
133
180
18
158
27
5

> <PUBCHEM_MMFF94_PARTIAL_CHARGES>
38
1 -0.57
10 0.3
11 0.06
12 0.06
13 0.3
14 0.57
15 0.66
16 0.09
17 0.06
18 -0.14
19 0.25
2 -0.65
20 0.14
21 0.14
22 -0.15
23 -0.15
24 -0.15
25 -0.14
26 -0.15
27 -0.15
28 -0.15
29 -0.15
3 -0.57
30 -0.15
31 -0.15
4 -0.66
5 -0.7
52 0.15
53 0.15
54 0.5
55 0.15
56 0.15
57 0.15
58 0.15
59 0.15
60 0.15
61 0.15
9 0.3

> <PUBCHEM_EFFECTIVE_ROTOR_COUNT>
9.6

> <PUBCHEM_PHARMACOPHORE_FEATURES>
9
1 1 acceptor
1 2 acceptor
1 3 acceptor
1 5 acceptor
3 2 3 15 anion
6 16 18 22 23 24 26 rings
6 25 27 28 29 30 31 rings
6 4 6 7 8 9 10 rings
6 5 13 16 18 19 20 rings

> <PUBCHEM_HEAVY_ATOM_COUNT>
31

> <PUBCHEM_ATOM_DEF_STEREO_COUNT>
2

> <PUBCHEM_ATOM_UDEF_STEREO_COUNT>
0

> <PUBCHEM_BOND_DEF_STEREO_COUNT>
0

> <PUBCHEM_BOND_UDEF_STEREO_COUNT>
0

> <PUBCHEM_ISOTOPIC_ATOM_COUNT>
0

> <PUBCHEM_COMPONENT_COUNT>
1

> <PUBCHEM_CACTVS_TAUTO_COUNT>
1

> <PUBCHEM_CONFORMER_ID>
030C48BA00000001

> <PUBCHEM_MMFF94_ENERGY>
77.2771

> <PUBCHEM_FEATURE_SELFOVERLAP>
45.755

> <PUBCHEM_SHAPE_FINGERPRINT>
10290309 65 18192706748446471542
10670039 82 18044388136772259134
10692045 39 18272656757786940571
1100329 8 18408889559588063183
11049842 53 18046070620673273621
11112241 14 16985997345867740080
11513181 2 17843398733494923822
12128747 34 18060131042104123713
12156800 1 16912611378463950536
12422481 6 18050257527240680488
13140716 1 18337387248981502675
13402501 40 18411412939031895418
13533116 47 18130503132356346273
14020679 6 17822020804694170643
14955137 171 18059577949485235511
15927050 60 17983011451614285470
16090146 7 17203619198740603447
17492 54 17968675868898418124
17980427 26 17199924954796701040
19311894 1 16539899759899226526
19319366 153 17313376799609825498
20642791 178 18115881843704029599
20642791 35 18411978074454004322
20691752 17 18042664256213917510
22182313 1 18043503106720007757
23559900 14 18334294305824600171
3178227 256 18262814994916006043
338550 245 18190460652459280257
350125 39 18411136897125913249
469060 322 18043543719961990992

> <PUBCHEM_SHAPE_MULTIPOLES>
610.4
12.33
4.76
1.67
9.8
1.07
-0.04
-5.78
0.72
-3.27
-0.29
-1.08
1.53
1.41

> <PUBCHEM_SHAPE_SELFOVERLAP>
1301.937

> <PUBCHEM_SHAPE_VOLUME>
334.7

> <PUBCHEM_COORDINATE_TYPE>
2
5
10

$$$$
