11886184
  -OEChem-12032416283D

 56 60  0     1  0  0  0  0  0999 V2000
   -0.3294    0.5646    1.6976 O   0  0  0  0  0  0  0  0  0  0  0  0
   -0.0060    2.9712   -0.3012 O   0  0  0  0  0  0  0  0  0  0  0  0
    4.2280   -0.1300    0.4836 O   0  0  0  0  0  0  0  0  0  0  0  0
   -4.8132    1.9111    0.8098 O   0  0  0  0  0  0  0  0  0  0  0  0
   -2.9273    0.8024    0.0356 N   0  0  0  0  0  0  0  0  0  0  0  0
    2.3989    0.7812   -0.7207 N   0  0  0  0  0  0  0  0  0  0  0  0
   -5.0069   -0.1272   -0.2848 N   0  0  0  0  0  0  0  0  0  0  0  0
    2.0271    0.9096   -1.9977 N   0  0  0  0  0  0  0  0  0  0  0  0
    3.9934   -0.1318   -1.8581 N   0  0  0  0  0  0  0  0  0  0  0  0
    3.0091    0.3481   -2.6923 N   0  0  0  0  0  0  0  0  0  0  0  0
   -0.6987    1.7141   -0.3524 C   0  0  1  0  0  0  0  0  0  0  0  0
    0.1639    0.6843    0.3509 C   0  0  1  0  0  0  0  0  0  0  0  0
   -1.9598    1.7764    0.4798 C   0  0  2  0  0  0  0  0  0  0  0  0
    1.5545    1.2901    0.3632 C   0  0  2  0  0  0  0  0  0  0  0  0
   -1.4470    1.4473    1.8694 C   0  0  0  0  0  0  0  0  0  0  0  0
    1.2758    2.7884    0.3154 C   0  0  0  0  0  0  0  0  0  0  0  0
   -6.4472   -0.2361   -0.2150 C   0  0  0  0  0  0  0  0  0  0  0  0
   -7.0036   -0.9738   -1.4376 C   0  0  0  0  0  0  0  0  0  0  0  0
   -6.8861   -0.9117    1.0886 C   0  0  0  0  0  0  0  0  0  0  0  0
   -4.2981    0.9505    0.2392 C   0  0  0  0  0  0  0  0  0  0  0  0
   -6.6854   -2.4687   -1.4136 C   0  0  0  0  0  0  0  0  0  0  0  0
   -6.5681   -2.4068    1.1084 C   0  0  0  0  0  0  0  0  0  0  0  0
   -7.1416   -3.1207   -0.1118 C   0  0  0  0  0  0  0  0  0  0  0  0
    3.5928    0.1489   -0.6395 C   0  0  0  0  0  0  0  0  0  0  0  0
    5.4523   -0.7838    0.5076 C   0  0  0  0  0  0  0  0  0  0  0  0
    6.6128   -0.0357    0.4612 C   0  0  0  0  0  0  0  0  0  0  0  0
    5.4739   -2.1634    0.5764 C   0  0  0  0  0  0  0  0  0  0  0  0
    7.8430   -0.6929    0.4844 C   0  0  0  0  0  0  0  0  0  0  0  0
    6.7042   -2.8205    0.5998 C   0  0  0  0  0  0  0  0  0  0  0  0
    7.8887   -2.0852    0.5538 C   0  0  0  0  0  0  0  0  0  0  0  0
   -0.8722    1.4793   -1.4075 H   0  0  0  0  0  0  0  0  0  0  0  0
    0.1040   -0.3096   -0.1043 H   0  0  0  0  0  0  0  0  0  0  0  0
   -2.4283    2.7664    0.4711 H   0  0  0  0  0  0  0  0  0  0  0  0
    2.0893    1.0555    1.2914 H   0  0  0  0  0  0  0  0  0  0  0  0
   -1.0772    2.3466    2.3742 H   0  0  0  0  0  0  0  0  0  0  0  0
   -2.1894    0.9698    2.5159 H   0  0  0  0  0  0  0  0  0  0  0  0
    1.2082    3.2018    1.3277 H   0  0  0  0  0  0  0  0  0  0  0  0
    2.0285    3.3580   -0.2382 H   0  0  0  0  0  0  0  0  0  0  0  0
   -2.5941   -0.0593   -0.3862 H   0  0  0  0  0  0  0  0  0  0  0  0
   -6.8494    0.7847   -0.2206 H   0  0  0  0  0  0  0  0  0  0  0  0
   -6.6081   -0.5330   -2.3606 H   0  0  0  0  0  0  0  0  0  0  0  0
   -8.0933   -0.8460   -1.4654 H   0  0  0  0  0  0  0  0  0  0  0  0
   -7.9693   -0.7814    1.2091 H   0  0  0  0  0  0  0  0  0  0  0  0
   -6.4120   -0.4289    1.9515 H   0  0  0  0  0  0  0  0  0  0  0  0
   -5.6087   -2.6269   -1.5459 H   0  0  0  0  0  0  0  0  0  0  0  0
   -7.1798   -2.9595   -2.2599 H   0  0  0  0  0  0  0  0  0  0  0  0
   -6.9759   -2.8558    2.0213 H   0  0  0  0  0  0  0  0  0  0  0  0
   -5.4817   -2.5536    1.1416 H   0  0  0  0  0  0  0  0  0  0  0  0
   -8.2373   -3.1044   -0.0611 H   0  0  0  0  0  0  0  0  0  0  0  0
   -6.8377   -4.1734   -0.1002 H   0  0  0  0  0  0  0  0  0  0  0  0
   -4.4768   -0.9020   -0.6711 H   0  0  0  0  0  0  0  0  0  0  0  0
    6.5794    1.0482    0.4081 H   0  0  0  0  0  0  0  0  0  0  0  0
    4.5531   -2.7376    0.6131 H   0  0  0  0  0  0  0  0  0  0  0  0
    8.7653   -0.1204    0.4488 H   0  0  0  0  0  0  0  0  0  0  0  0
    6.7398   -3.9047    0.6540 H   0  0  0  0  0  0  0  0  0  0  0  0
    8.8465   -2.5968    0.5720 H   0  0  0  0  0  0  0  0  0  0  0  0
  1 12  1  0  0  0  0
  1 15  1  0  0  0  0
  2 11  1  0  0  0  0
  2 16  1  0  0  0  0
  3 24  1  0  0  0  0
  3 25  1  0  0  0  0
  4 20  2  0  0  0  0
  5 13  1  0  0  0  0
  5 20  1  0  0  0  0
  5 39  1  0  0  0  0
  6  8  1  0  0  0  0
  6 14  1  0  0  0  0
  6 24  1  0  0  0  0
  7 17  1  0  0  0  0
  7 20  1  0  0  0  0
  7 51  1  0  0  0  0
  8 10  2  0  0  0  0
  9 10  1  0  0  0  0
  9 24  2  0  0  0  0
 11 12  1  0  0  0  0
 11 13  1  0  0  0  0
 11 31  1  0  0  0  0
 12 14  1  0  0  0  0
 12 32  1  0  0  0  0
 13 15  1  0  0  0  0
 13 33  1  0  0  0  0
 14 16  1  0  0  0  0
 14 34  1  0  0  0  0
 15 35  1  0  0  0  0
 15 36  1  0  0  0  0
 16 37  1  0  0  0  0
 16 38  1  0  0  0  0
 17 18  1  0  0  0  0
 17 19  1  0  0  0  0
 17 40  1  0  0  0  0
 18 21  1  0  0  0  0
 18 41  1  0  0  0  0
 18 42  1  0  0  0  0
 19 22  1  0  0  0  0
 19 43  1  0  0  0  0
 19 44  1  0  0  0  0
 21 23  1  0  0  0  0
 21 45  1  0  0  0  0
 21 46  1  0  0  0  0
 22 23  1  0  0  0  0
 22 47  1  0  0  0  0
 22 48  1  0  0  0  0
 23 49  1  0  0  0  0
 23 50  1  0  0  0  0
 25 26  2  0  0  0  0
 25 27  1  0  0  0  0
 26 28  1  0  0  0  0
 26 52  1  0  0  0  0
 27 29  2  0  0  0  0
 27 53  1  0  0  0  0
 28 30  2  0  0  0  0
 28 54  1  0  0  0  0
 29 30  1  0  0  0  0
 29 55  1  0  0  0  0
 30 56  1  0  0  0  0
M  END
> <PUBCHEM_COMPOUND_CID>
11886184

> <PUBCHEM_CONFORMER_RMSD>
1

> <PUBCHEM_CONFORMER_DIVERSEORDER>
1
151
67
324
405
62
56
375
288
237
377
256
33
303
376
399
395
139
131
96
10
241
246
297
336
352
360
260
373
394
312
136
9
156
289
234
34
165
296
141
243
223
27
185
354
419
115
319
107
306
112
200
207
168
411
236
164
126
268
418
321
15
82
349
157
344
320
233
212
371
144
150
23
210
250
239
231
124
76
398
402
90
182
325
314
337
16
29
5
135
24
309
287
311
363
202
206
339
220
40
274
280
421
285
104
59
423
80
265
230
404
176
50
249
68
149
219
36
184
61
28
277
340
114
295
334
407
374
120
310
69
412
273
216
425
299
71
264
266
359
193
152
3
424
381
85
226
100
51
65
263
122
370
52
254
78
84
369
368
25
391
302
190
143
187
348
329
129
177
89
60
93
105
161
353
106
282
318
54
188
72
198
191
195
338
128
132
248
416
358
281
307
97
2
208
170
304
159
108
279
153
163
138
261
269
238
224
232
91
322
209
175
41
103
240
57
199
179
397
4
357
31
147
330
316
35
142
162
201
308
148
30
283
317
383
73
393
110
49
121
98
328
351
378
7
372
117
171
8
400
92
298
361
94
343
335
211
81
14
83
194
417
401
270
294
86
242
53
350
158
386
192
37
262
197
379
362
44
17
409
228
18
388
217
408
38
99
205
390
382
26
365
293
331
415
214
173
95
278
290
125
47
301
174
305
272
130
48
292
333
251
253
119
70
160
271
389
13
327
286
275
196
11
116
420
346
213
127
392
88
355
345
203
87
323
45
291
180
410
111
244
255
356
74
109
66
6
326
385
315
189
384
259
146
366
154
218
178
79
20
181
221
257
342
300
204
215
137
140
167
406
113
64
341
229
42
169
276
422
387
102
145
367
75
21
414
123
396
22
32
284
39
222
403
186
245
183
134
258
347
313
12
235
332
55
133
172
225
63
380
43
77
166
364
252
413
155
19
247
101
267
118
227
46
58

> <PUBCHEM_MMFF94_PARTIAL_CHARGES>
31
1 -0.56
11 0.28
12 0.28
13 0.3
14 0.26
15 0.28
16 0.28
17 0.3
2 -0.56
20 0.69
24 0.25
25 0.08
26 -0.15
27 -0.15
28 -0.15
29 -0.15
3 -0.15
30 -0.15
39 0.37
4 -0.57
5 -0.73
51 0.37
52 0.15
53 0.15
54 0.15
55 0.15
56 0.15
6 0.31
7 -0.73
8 -0.42
9 -0.34

> <PUBCHEM_EFFECTIVE_ROTOR_COUNT>
9.4

> <PUBCHEM_PHARMACOPHORE_FEATURES>
11
1 1 acceptor
1 2 acceptor
1 4 acceptor
1 5 donor
1 7 donor
3 6 9 24 cation
5 1 11 12 13 15 rings
5 2 11 12 14 16 rings
5 6 8 9 10 24 rings
6 17 18 19 21 22 23 rings
6 25 26 27 28 29 30 rings

> <PUBCHEM_HEAVY_ATOM_COUNT>
30

> <PUBCHEM_ATOM_DEF_STEREO_COUNT>
4

> <PUBCHEM_ATOM_UDEF_STEREO_COUNT>
0

> <PUBCHEM_BOND_DEF_STEREO_COUNT>
0

> <PUBCHEM_BOND_UDEF_STEREO_COUNT>
0

> <PUBCHEM_ISOTOPIC_ATOM_COUNT>
0

> <PUBCHEM_COMPONENT_COUNT>
1

> <PUBCHEM_CACTVS_TAUTO_COUNT>
3

> <PUBCHEM_CONFORMER_ID>
00B55E6800000001

> <PUBCHEM_MMFF94_ENERGY>
58.7664

> <PUBCHEM_FEATURE_SELFOVERLAP>
56.565

> <PUBCHEM_SHAPE_FINGERPRINT>
106641 1 17989198249579040640
10670039 82 13840259265389390727
10883706 17 18115312305498344299
11135609 99 18410855486605289214
11374522 79 18335990839535007123
11386260 185 16081375193465376022
12218070 45 15410031002864096661
12664476 115 12252190654366283301
13540713 4 15214456488580651192
13668630 136 17967250884000228178
13782708 43 18410855495142190353
14178184 131 18130219471479295671
14931854 50 13840261455875458540
14951699 99 9727363424427791611
15183329 4 15357697461922393644
15510800 12 18130519590381134279
16992610 120 17458892753821594543
16994733 274 9943513112407719966
18603816 31 17846201286429973295
190975 80 17060615620470694871
19303781 99 18270671095664476663
2026 5 18409163325452444707
20567600 247 18408319982399637379
20691028 202 9727048964018306634
21095123 293 11887663014469178690
21130935 74 18271242700108582154
21585483 132 18336250341221953219
21781055 127 12535624999911498570
21792938 703 18188771794183604283
23389318 12 18041003947460927150
23559900 14 16950863469915582708
23576562 1 14563112375564295067
2747138 104 16774086154695542000
2838139 119 12613025150343303741
3178227 256 15697991951759608514
3383291 50 18411701006383420883
3633792 109 17167865236340813244
3711267 37 11167933702085208810
406291 66 18408600344737738386
4169191 19 9871754581374658523
4173938 188 18343010100692527458
439807 62 18335985354950998735
484989 97 17531822358088489683
5718773 13 18409727357014022130
5758199 1 13398623953246634068
59682541 35 17203319027569961818
59682541 52 15430033245313087074
6328613 192 8934998178984152011
96874 4 18335414651774844002
9689198 14 10663817503152168172
999808 66 18408887347911956195

> <PUBCHEM_SHAPE_MULTIPOLES>
564.02
25.11
3.19
1.58
1.88
0.89
-0.72
26.79
1.56
1.77
0.44
0.21
-0.05
-1.92

> <PUBCHEM_SHAPE_SELFOVERLAP>
1211.632

> <PUBCHEM_SHAPE_VOLUME>
309.5

> <PUBCHEM_COORDINATE_TYPE>
2
5
10

$$$$
