11882600
  -OEChem-12032416123D

 77 80  0     1  0  0  0  0  0999 V2000
    0.5374    1.5247    2.2091 S   0  0  0  0  0  0  0  0  0  0  0  0
   -0.7929   -2.8470    0.2323 O   0  0  0  0  0  0  0  0  0  0  0  0
    1.0950    0.9283    3.3992 O   0  0  0  0  0  0  0  0  0  0  0  0
   -0.6094    2.3993    2.2685 O   0  0  0  0  0  0  0  0  0  0  0  0
    2.1337   -4.4288    2.4486 O   0  0  0  0  0  0  0  0  0  0  0  0
   -4.3387   -0.4963   -2.0618 O   0  0  0  0  0  0  0  0  0  0  0  0
    4.8802    4.3584   -0.6347 O   0  0  0  0  0  0  0  0  0  0  0  0
    0.2148    0.2821    1.0746 N   0  0  1  0  0  0  0  0  0  0  0  0
    1.3494   -2.2414    0.9127 N   0  0  0  0  0  0  0  0  0  0  0  0
   -3.9183    0.0562    0.1508 N   0  0  0  0  0  0  0  0  0  0  0  0
    2.0172   -5.7289    0.5591 N   0  0  0  0  0  0  0  0  0  0  0  0
   -8.8455    0.9445   -0.4540 N   0  0  0  0  0  0  0  0  0  0  0  0
    3.5231   -1.6902   -1.0627 C   0  0  0  0  0  0  0  0  0  0  0  0
   -0.5159   -0.9084    1.5894 C   0  0  1  0  0  0  0  0  0  0  0  0
    4.9724   -1.3192   -1.4048 C   0  0  0  0  0  0  0  0  0  0  0  0
    2.7082   -1.9433   -2.3382 C   0  0  0  0  0  0  0  0  0  0  0  0
    3.4810   -2.9102   -0.1445 C   0  0  0  0  0  0  0  0  0  0  0  0
   -2.0293   -0.7258    1.5020 C   0  0  0  0  0  0  0  0  0  0  0  0
   -2.5040   -0.2312    0.1301 C   0  0  2  0  0  0  0  0  0  0  0  0
    5.0392   -0.1338   -2.3651 C   0  0  0  0  0  0  0  0  0  0  0  0
    2.7789   -0.7570   -3.2971 C   0  0  0  0  0  0  0  0  0  0  0  0
   -1.7123    0.9997   -0.3117 C   0  0  0  0  0  0  0  0  0  0  0  0
   -0.2154    0.7251   -0.2838 C   0  0  0  0  0  0  0  0  0  0  0  0
    4.2210   -0.3857   -3.6278 C   0  0  0  0  0  0  0  0  0  0  0  0
    2.0700   -3.3250    0.2845 C   0  0  1  0  0  0  0  0  0  0  0  0
   -0.0250   -2.0979    0.8303 C   0  0  0  0  0  0  0  0  0  0  0  0
    2.0677   -4.5229    1.2252 C   0  0  0  0  0  0  0  0  0  0  0  0
    1.8322    2.3703    1.3620 C   0  0  0  0  0  0  0  0  0  0  0  0
   -4.7263   -0.1036   -0.9644 C   0  0  0  0  0  0  0  0  0  0  0  0
    3.0840    1.7699    1.2252 C   0  0  0  0  0  0  0  0  0  0  0  0
    1.6048    3.6384    0.8276 C   0  0  0  0  0  0  0  0  0  0  0  0
   -6.1558    0.2604   -0.7872 C   0  0  0  0  0  0  0  0  0  0  0  0
    4.1080    2.4378    0.5539 C   0  0  0  0  0  0  0  0  0  0  0  0
    2.6289    4.3063    0.1563 C   0  0  0  0  0  0  0  0  0  0  0  0
    3.8805    3.7061    0.0194 C   0  0  0  0  0  0  0  0  0  0  0  0
   -6.9101    0.6781   -1.8781 C   0  0  0  0  0  0  0  0  0  0  0  0
   -6.7447    0.1841    0.4700 C   0  0  0  0  0  0  0  0  0  0  0  0
   -8.2386    1.0058   -1.6604 C   0  0  0  0  0  0  0  0  0  0  0  0
   -8.0807    0.5341    0.5826 C   0  0  0  0  0  0  0  0  0  0  0  0
    6.1351    3.6872   -0.7372 C   0  0  0  0  0  0  0  0  0  0  0  0
    3.0791   -0.8341   -0.5387 H   0  0  0  0  0  0  0  0  0  0  0  0
   -0.2499   -1.0921    2.6379 H   0  0  0  0  0  0  0  0  0  0  0  0
    5.4819   -2.1790   -1.8582 H   0  0  0  0  0  0  0  0  0  0  0  0
    5.5211   -1.0709   -0.4883 H   0  0  0  0  0  0  0  0  0  0  0  0
    1.6519   -2.1113   -2.1055 H   0  0  0  0  0  0  0  0  0  0  0  0
    3.0748   -2.8440   -2.8466 H   0  0  0  0  0  0  0  0  0  0  0  0
   -2.5478   -1.6588    1.7581 H   0  0  0  0  0  0  0  0  0  0  0  0
   -2.3344    0.0040    2.2647 H   0  0  0  0  0  0  0  0  0  0  0  0
   -2.3426   -1.0235   -0.6107 H   0  0  0  0  0  0  0  0  0  0  0  0
    4.0755   -2.6968    0.7545 H   0  0  0  0  0  0  0  0  0  0  0  0
    3.9727   -3.7631   -0.6311 H   0  0  0  0  0  0  0  0  0  0  0  0
   -2.0028    1.2774   -1.3329 H   0  0  0  0  0  0  0  0  0  0  0  0
   -1.9716    1.8603    0.3131 H   0  0  0  0  0  0  0  0  0  0  0  0
    6.0824    0.0665   -2.6334 H   0  0  0  0  0  0  0  0  0  0  0  0
    4.6586    0.7631   -1.8650 H   0  0  0  0  0  0  0  0  0  0  0  0
    2.2390   -0.9962   -4.2203 H   0  0  0  0  0  0  0  0  0  0  0  0
    2.2741    0.1066   -2.8462 H   0  0  0  0  0  0  0  0  0  0  0  0
    0.3340    1.6061   -0.6209 H   0  0  0  0  0  0  0  0  0  0  0  0
    0.0378   -0.0634   -1.0030 H   0  0  0  0  0  0  0  0  0  0  0  0
    4.2357    0.5084   -4.2611 H   0  0  0  0  0  0  0  0  0  0  0  0
    4.6827   -1.1953   -4.2063 H   0  0  0  0  0  0  0  0  0  0  0  0
    1.4956   -3.6263   -0.5996 H   0  0  0  0  0  0  0  0  0  0  0  0
    1.8743   -1.5959    1.4963 H   0  0  0  0  0  0  0  0  0  0  0  0
   -4.2876    0.4887    0.9911 H   0  0  0  0  0  0  0  0  0  0  0  0
    3.2747    0.7811    1.6337 H   0  0  0  0  0  0  0  0  0  0  0  0
    0.6393    4.1274    0.9176 H   0  0  0  0  0  0  0  0  0  0  0  0
    2.0183   -6.6056    1.0700 H   0  0  0  0  0  0  0  0  0  0  0  0
    1.9830   -5.7933   -0.4532 H   0  0  0  0  0  0  0  0  0  0  0  0
    5.0551    1.9138    0.4842 H   0  0  0  0  0  0  0  0  0  0  0  0
    2.4458    5.2938   -0.2585 H   0  0  0  0  0  0  0  0  0  0  0  0
   -6.4881    0.7553   -2.8743 H   0  0  0  0  0  0  0  0  0  0  0  0
   -6.2189   -0.1608    1.3529 H   0  0  0  0  0  0  0  0  0  0  0  0
   -8.8696    1.3387   -2.4779 H   0  0  0  0  0  0  0  0  0  0  0  0
   -8.5892    0.4853    1.5398 H   0  0  0  0  0  0  0  0  0  0  0  0
    6.8133    4.3523   -1.2817 H   0  0  0  0  0  0  0  0  0  0  0  0
    6.0531    2.7665   -1.3235 H   0  0  0  0  0  0  0  0  0  0  0  0
    6.5810    3.5139    0.2481 H   0  0  0  0  0  0  0  0  0  0  0  0
  1  3  2  0  0  0  0
  1  4  2  0  0  0  0
  1  8  1  0  0  0  0
  1 28  1  0  0  0  0
  2 26  2  0  0  0  0
  5 27  2  0  0  0  0
  6 29  2  0  0  0  0
  7 35  1  0  0  0  0
  7 40  1  0  0  0  0
  8 14  1  0  0  0  0
  8 23  1  0  0  0  0
  9 25  1  0  0  0  0
  9 26  1  0  0  0  0
  9 63  1  0  0  0  0
 10 19  1  0  0  0  0
 10 29  1  0  0  0  0
 10 64  1  0  0  0  0
 11 27  1  0  0  0  0
 11 67  1  0  0  0  0
 11 68  1  0  0  0  0
 12 38  2  0  0  0  0
 12 39  1  0  0  0  0
 13 15  1  0  0  0  0
 13 16  1  0  0  0  0
 13 17  1  0  0  0  0
 13 41  1  0  0  0  0
 14 18  1  0  0  0  0
 14 26  1  0  0  0  0
 14 42  1  0  0  0  0
 15 20  1  0  0  0  0
 15 43  1  0  0  0  0
 15 44  1  0  0  0  0
 16 21  1  0  0  0  0
 16 45  1  0  0  0  0
 16 46  1  0  0  0  0
 17 25  1  0  0  0  0
 17 50  1  0  0  0  0
 17 51  1  0  0  0  0
 18 19  1  0  0  0  0
 18 47  1  0  0  0  0
 18 48  1  0  0  0  0
 19 22  1  0  0  0  0
 19 49  1  0  0  0  0
 20 24  1  0  0  0  0
 20 54  1  0  0  0  0
 20 55  1  0  0  0  0
 21 24  1  0  0  0  0
 21 56  1  0  0  0  0
 21 57  1  0  0  0  0
 22 23  1  0  0  0  0
 22 52  1  0  0  0  0
 22 53  1  0  0  0  0
 23 58  1  0  0  0  0
 23 59  1  0  0  0  0
 24 60  1  0  0  0  0
 24 61  1  0  0  0  0
 25 27  1  0  0  0  0
 25 62  1  0  0  0  0
 28 30  2  0  0  0  0
 28 31  1  0  0  0  0
 29 32  1  0  0  0  0
 30 33  1  0  0  0  0
 30 65  1  0  0  0  0
 31 34  2  0  0  0  0
 31 66  1  0  0  0  0
 32 36  2  0  0  0  0
 32 37  1  0  0  0  0
 33 35  2  0  0  0  0
 33 69  1  0  0  0  0
 34 35  1  0  0  0  0
 34 70  1  0  0  0  0
 36 38  1  0  0  0  0
 36 71  1  0  0  0  0
 37 39  2  0  0  0  0
 37 72  1  0  0  0  0
 38 73  1  0  0  0  0
 39 74  1  0  0  0  0
 40 75  1  0  0  0  0
 40 76  1  0  0  0  0
 40 77  1  0  0  0  0
M  END
> <PUBCHEM_COMPOUND_CID>
11882600

> <PUBCHEM_CONFORMER_RMSD>
1.2

> <PUBCHEM_CONFORMER_DIVERSEORDER>
1
57
44
75
65
18
12
47
39
32
4
16
5
17
79
49
74
34
9
72
69
73
36
67
56
30
3
33
38
70
61
59
78
31
60
19
27
20
80
54
25
68
28
55
21
64
11
23
62
8
53
37
71
41
7
58
51
22
63
77
45
2
42
52
26
24
50
29
13
15
14
6
46
48
40
10
66
76
35
43

> <PUBCHEM_MMFF94_PARTIAL_CHARGES>
43
1 1.45
10 -0.73
11 -0.8
12 -0.62
14 0.42
19 0.3
2 -0.57
23 0.36
25 0.36
26 0.57
27 0.57
28 -0.01
29 0.54
3 -0.65
30 -0.15
31 -0.15
32 0.09
33 -0.15
34 -0.15
35 0.08
36 -0.15
37 -0.15
38 0.16
39 0.16
4 -0.65
40 0.28
5 -0.57
6 -0.57
63 0.37
64 0.37
65 0.15
66 0.15
67 0.37
68 0.37
69 0.15
7 -0.36
70 0.15
71 0.15
72 0.15
73 0.15
74 0.15
8 -0.85
9 -0.73

> <PUBCHEM_EFFECTIVE_ROTOR_COUNT>
14.4

> <PUBCHEM_PHARMACOPHORE_FEATURES>
14
1 10 donor
1 11 donor
1 12 acceptor
1 2 acceptor
1 3 acceptor
1 4 acceptor
1 5 acceptor
1 6 acceptor
1 7 acceptor
1 9 donor
6 12 32 36 37 38 39 rings
6 13 15 16 20 21 24 rings
6 28 30 31 33 34 35 rings
6 8 14 18 19 22 23 rings

> <PUBCHEM_HEAVY_ATOM_COUNT>
40

> <PUBCHEM_ATOM_DEF_STEREO_COUNT>
3

> <PUBCHEM_ATOM_UDEF_STEREO_COUNT>
0

> <PUBCHEM_BOND_DEF_STEREO_COUNT>
0

> <PUBCHEM_BOND_UDEF_STEREO_COUNT>
0

> <PUBCHEM_ISOTOPIC_ATOM_COUNT>
0

> <PUBCHEM_COMPONENT_COUNT>
1

> <PUBCHEM_CACTVS_TAUTO_COUNT>
8

> <PUBCHEM_CONFORMER_ID>
00B5506800000001

> <PUBCHEM_MMFF94_ENERGY>
91.757

> <PUBCHEM_FEATURE_SELFOVERLAP>
71.071

> <PUBCHEM_SHAPE_FINGERPRINT>
10675989 125 18341611559522980040
10721379 63 18411697651749205049
11062273 29 18130209532618588325
11578080 2 18263363753464044319
11763715 3 17762628287180243826
12633046 712 18045522841203484835
14117953 113 18411981378317810120
14705955 166 12978730482604681726
14725015 67 18411976945843014984
14747281 78 18260270758651665129
15183329 4 16486982834261586297
15328829 1 17489320642223399539
15351334 14 18261939826794378383
15439362 3 18267302217775255456
15484559 13 18128811018669285152
1813 80 17631724942693068043
20578428 11 18411415137833656893
24180151 248 18189046517514241573
3388396 114 18051155626514435718
4066623 53 18336268947041112564
4112364 45 15574995134520185420
5265222 85 17832428974371860337
57527452 28 15698005107228456486
6669772 16 18337670922553967246

> <PUBCHEM_SHAPE_MULTIPOLES>
766.91
17.21
6.03
2.9
48.29
2.5
-1.1
-9.37
-11.94
-13.12
2.89
-2.37
0.82
0.68

> <PUBCHEM_SHAPE_SELFOVERLAP>
1601.977

> <PUBCHEM_SHAPE_VOLUME>
433.1

> <PUBCHEM_COORDINATE_TYPE>
2
5
10

$$$$
