71693479
  -OEChem-12032416233D

 56 57  0     1  0  0  0  0  0999 V2000
    1.3159    2.4043   -0.1104 O   0  0  0  0  0  0  0  0  0  0  0  0
    2.1993   -1.5160   -1.1207 O   0  0  0  0  0  0  0  0  0  0  0  0
    4.8780    2.4675   -0.0892 O   0  0  0  0  0  0  0  0  0  0  0  0
    4.8102   -0.8006   -1.3723 O   0  0  0  0  0  0  0  0  0  0  0  0
   -5.2946   -0.6126   -1.3492 O   0  0  0  0  0  0  0  0  0  0  0  0
    3.4440    0.6881    0.3696 N   0  0  0  0  0  0  0  0  0  0  0  0
    6.2151   -1.7853    0.1892 N   0  0  0  0  0  0  0  0  0  0  0  0
   -4.4324    0.0530    0.7352 N   0  0  0  0  0  0  0  0  0  0  0  0
   -6.6685   -0.4909    0.5059 N   0  0  0  0  0  0  0  0  0  0  0  0
    2.0495    0.2077    0.5270 C   0  0  1  0  0  0  0  0  0  0  0  0
    1.0783    1.0172   -0.3540 C   0  0  1  0  0  0  0  0  0  0  0  0
    1.9098   -1.2952    0.2445 C   0  0  0  0  0  0  0  0  0  0  0  0
   -0.3858    0.7605   -0.0642 C   0  0  0  0  0  0  0  0  0  0  0  0
    3.7454    1.9811   -0.0627 C   0  0  0  0  0  0  0  0  0  0  0  0
    4.5203   -0.1362    0.9125 C   0  0  0  0  0  0  0  0  0  0  0  0
    2.5792    2.7887   -0.5969 C   0  0  0  0  0  0  0  0  0  0  0  0
   -0.8846    0.9440    1.2255 C   0  0  0  0  0  0  0  0  0  0  0  0
   -1.2359    0.3408   -1.0875 C   0  0  0  0  0  0  0  0  0  0  0  0
    5.1821   -0.9265   -0.2026 C   0  0  0  0  0  0  0  0  0  0  0  0
   -2.2334    0.7082    1.4918 C   0  0  0  0  0  0  0  0  0  0  0  0
   -2.5845    0.1049   -0.8213 C   0  0  0  0  0  0  0  0  0  0  0  0
   -3.0832    0.2887    0.4684 C   0  0  0  0  0  0  0  0  0  0  0  0
    6.6365   -1.9166    1.5784 C   0  0  0  0  0  0  0  0  0  0  0  0
    6.9479   -2.6140   -0.7649 C   0  0  0  0  0  0  0  0  0  0  0  0
   -5.4408   -0.3716   -0.1532 C   0  0  0  0  0  0  0  0  0  0  0  0
   -7.8822   -0.9091   -0.1572 C   0  0  0  0  0  0  0  0  0  0  0  0
   -8.7809   -1.6750    0.8057 C   0  0  0  0  0  0  0  0  0  0  0  0
   -8.6047    0.2948   -0.7474 C   0  0  0  0  0  0  0  0  0  0  0  0
    1.8297    0.3819    1.5878 H   0  0  0  0  0  0  0  0  0  0  0  0
    1.2719    0.8243   -1.4184 H   0  0  0  0  0  0  0  0  0  0  0  0
    0.8887   -1.6376    0.4411 H   0  0  0  0  0  0  0  0  0  0  0  0
    2.5737   -1.9144    0.8524 H   0  0  0  0  0  0  0  0  0  0  0  0
    4.1334   -0.7812    1.7050 H   0  0  0  0  0  0  0  0  0  0  0  0
    5.2741    0.5302    1.3472 H   0  0  0  0  0  0  0  0  0  0  0  0
    2.7350    3.8347   -0.3133 H   0  0  0  0  0  0  0  0  0  0  0  0
    2.5900    2.7346   -1.6917 H   0  0  0  0  0  0  0  0  0  0  0  0
   -0.2428    1.2816    2.0343 H   0  0  0  0  0  0  0  0  0  0  0  0
   -0.8606    0.1931   -2.0967 H   0  0  0  0  0  0  0  0  0  0  0  0
    2.0929   -2.4679   -1.2876 H   0  0  0  0  0  0  0  0  0  0  0  0
   -2.6092    0.8578    2.5008 H   0  0  0  0  0  0  0  0  0  0  0  0
   -3.1787   -0.2176   -1.6646 H   0  0  0  0  0  0  0  0  0  0  0  0
   -4.7235    0.2073    1.6974 H   0  0  0  0  0  0  0  0  0  0  0  0
    6.3889   -2.9281    1.9152 H   0  0  0  0  0  0  0  0  0  0  0  0
    6.1832   -1.2032    2.2644 H   0  0  0  0  0  0  0  0  0  0  0  0
    7.7220   -1.7828    1.6261 H   0  0  0  0  0  0  0  0  0  0  0  0
    8.0041   -2.3310   -0.7411 H   0  0  0  0  0  0  0  0  0  0  0  0
    6.5637   -2.4772   -1.7788 H   0  0  0  0  0  0  0  0  0  0  0  0
    6.8384   -3.6637   -0.4781 H   0  0  0  0  0  0  0  0  0  0  0  0
   -7.6071   -1.5810   -0.9791 H   0  0  0  0  0  0  0  0  0  0  0  0
   -6.7239   -0.2007    1.4775 H   0  0  0  0  0  0  0  0  0  0  0  0
   -9.0819   -1.0488    1.6530 H   0  0  0  0  0  0  0  0  0  0  0  0
   -9.6873   -2.0252    0.3012 H   0  0  0  0  0  0  0  0  0  0  0  0
   -8.2590   -2.5488    1.2110 H   0  0  0  0  0  0  0  0  0  0  0  0
   -9.5159   -0.0132   -1.2707 H   0  0  0  0  0  0  0  0  0  0  0  0
   -7.9666    0.8228   -1.4643 H   0  0  0  0  0  0  0  0  0  0  0  0
   -8.8847    1.0114    0.0329 H   0  0  0  0  0  0  0  0  0  0  0  0
  1 11  1  0  0  0  0
  1 16  1  0  0  0  0
  2 12  1  0  0  0  0
  2 39  1  0  0  0  0
  3 14  2  0  0  0  0
  4 19  2  0  0  0  0
  5 25  2  0  0  0  0
  6 10  1  0  0  0  0
  6 14  1  0  0  0  0
  6 15  1  0  0  0  0
  7 19  1  0  0  0  0
  7 23  1  0  0  0  0
  7 24  1  0  0  0  0
  8 22  1  0  0  0  0
  8 25  1  0  0  0  0
  8 42  1  0  0  0  0
  9 25  1  0  0  0  0
  9 26  1  0  0  0  0
  9 50  1  0  0  0  0
 10 11  1  0  0  0  0
 10 12  1  0  0  0  0
 10 29  1  0  0  0  0
 11 13  1  0  0  0  0
 11 30  1  0  0  0  0
 12 31  1  0  0  0  0
 12 32  1  0  0  0  0
 13 17  2  0  0  0  0
 13 18  1  0  0  0  0
 14 16  1  0  0  0  0
 15 19  1  0  0  0  0
 15 33  1  0  0  0  0
 15 34  1  0  0  0  0
 16 35  1  0  0  0  0
 16 36  1  0  0  0  0
 17 20  1  0  0  0  0
 17 37  1  0  0  0  0
 18 21  2  0  0  0  0
 18 38  1  0  0  0  0
 20 22  2  0  0  0  0
 20 40  1  0  0  0  0
 21 22  1  0  0  0  0
 21 41  1  0  0  0  0
 23 43  1  0  0  0  0
 23 44  1  0  0  0  0
 23 45  1  0  0  0  0
 24 46  1  0  0  0  0
 24 47  1  0  0  0  0
 24 48  1  0  0  0  0
 26 27  1  0  0  0  0
 26 28  1  0  0  0  0
 26 49  1  0  0  0  0
 27 51  1  0  0  0  0
 27 52  1  0  0  0  0
 27 53  1  0  0  0  0
 28 54  1  0  0  0  0
 28 55  1  0  0  0  0
 28 56  1  0  0  0  0
M  END
> <PUBCHEM_COMPOUND_CID>
71693479

> <PUBCHEM_CONFORMER_RMSD>
1

> <PUBCHEM_CONFORMER_DIVERSEORDER>
1
44
30
83
18
79
15
64
77
42
69
25
88
60
24
34
53
72
86
71
9
65
48
28
91
33
13
92
67
81
73
84
11
87
51
22
50
74
90
58
49
85
52
31
37
45
6
38
47
43
66
57
36
19
63
40
70
10
46
78
26
82
76
12
55
75
54
80
16
62
59
23
32
7
29
27
20
14
89
17
56
68
5
61
21
41
2
8
3
35
39
4

> <PUBCHEM_MMFF94_PARTIAL_CHARGES>
33
1 -0.56
10 0.3
11 0.42
12 0.28
13 -0.14
14 0.57
15 0.36
16 0.34
17 -0.15
18 -0.15
19 0.57
2 -0.68
20 -0.15
21 -0.15
22 0.12
23 0.3
24 0.3
25 0.69
26 0.3
3 -0.57
37 0.15
38 0.15
39 0.4
4 -0.57
40 0.15
41 0.15
42 0.37
5 -0.57
50 0.37
6 -0.66
7 -0.66
8 -0.55
9 -0.73

> <PUBCHEM_EFFECTIVE_ROTOR_COUNT>
10

> <PUBCHEM_PHARMACOPHORE_FEATURES>
11
1 1 acceptor
1 2 acceptor
1 2 donor
1 3 acceptor
1 4 acceptor
1 5 acceptor
1 8 donor
1 9 donor
3 26 27 28 hydrophobe
6 1 6 10 11 14 16 rings
6 13 17 18 20 21 22 rings

> <PUBCHEM_HEAVY_ATOM_COUNT>
28

> <PUBCHEM_ATOM_DEF_STEREO_COUNT>
2

> <PUBCHEM_ATOM_UDEF_STEREO_COUNT>
0

> <PUBCHEM_BOND_DEF_STEREO_COUNT>
0

> <PUBCHEM_BOND_UDEF_STEREO_COUNT>
0

> <PUBCHEM_ISOTOPIC_ATOM_COUNT>
0

> <PUBCHEM_COMPONENT_COUNT>
1

> <PUBCHEM_CACTVS_TAUTO_COUNT>
6

> <PUBCHEM_CONFORMER_ID>
0445F4A700000001

> <PUBCHEM_MMFF94_ENERGY>
77.3942

> <PUBCHEM_FEATURE_SELFOVERLAP>
55.877

> <PUBCHEM_SHAPE_FINGERPRINT>
10 15 13542458778367853506
10411042 1 18337671898535098412
106641 1 15195276543494770987
10670039 82 15213293089767327087
11719270 70 17989208153172544039
12166972 35 18343302569741068888
12236239 1 18131073749074193729
13533116 47 18343581871690934072
13668630 136 18261110786178721355
13685833 64 18410011022634959338
13782708 43 18040152907279170491
13862211 1 18335700478365432090
13914758 101 18410293580513595681
15183329 4 17894346662499916145
15188451 53 17989204819813367184
1577012 14 17988639761484664941
1813 80 18269565957782399828
18222031 100 18409449155556615800
20028762 73 18201719535859768606
20771845 140 16702303438543615534
21150785 3 13118002197748964627
21267235 1 18341897368210700086
21304304 249 18343304743136958446
21315763 28 18410011044716483273
21344244 78 17846493717351882368
21792934 111 17346593054869855505
22956985 138 17768256713379270262
23559900 14 18041282178914916081
23569943 247 17695360170494609426
23576562 1 13768507430759644667
3004659 81 18410009944830218377
34797466 226 16515687771120636444
3633792 109 18411418389566979041
4073 2 17751081516801955609
4340502 62 18337673126494578119
465052 167 18410857638505015878
58260988 393 15626230070140756314
6438161 24 18040427781397497834

> <PUBCHEM_SHAPE_MULTIPOLES>
526.96
23.27
2.37
1.21
37.47
0.58
-0.09
-15.98
0.02
-4.92
0.17
-0.19
-0.24
0.2

> <PUBCHEM_SHAPE_SELFOVERLAP>
1083.578

> <PUBCHEM_SHAPE_VOLUME>
300.1

> <PUBCHEM_COORDINATE_TYPE>
2
5
10

$$$$
