11911963
  -OEChem-12032416213D

 53 58  0     1  0  0  0  0  0999 V2000
   -2.9128   -0.9421   -0.5275 S   0  0  0  0  0  0  0  0  0  0  0  0
    1.7962   -5.0946    1.1939 F   0  0  0  0  0  0  0  0  0  0  0  0
   -1.0272    2.1678   -1.3051 O   0  0  0  0  0  0  0  0  0  0  0  0
    3.1559   -0.2804   -2.6188 O   0  0  0  0  0  0  0  0  0  0  0  0
    3.6489    0.7119   -0.5830 N   0  0  0  0  0  0  0  0  0  0  0  0
    0.8547    2.0237    0.0666 N   0  0  0  0  0  0  0  0  0  0  0  0
    3.0847    3.1336   -0.5346 C   0  0  1  0  0  0  0  0  0  0  0  0
    2.8976    1.7927    1.5218 C   0  0  2  0  0  0  0  0  0  0  0  0
    3.3194    3.1544    0.9721 C   0  0  0  0  0  0  0  0  0  0  0  0
    3.9173    2.0165   -1.1912 C   0  0  0  0  0  0  0  0  0  0  0  0
    1.5825    2.9654   -0.7970 C   0  0  0  0  0  0  0  0  0  0  0  0
    3.7652    0.6867    0.8855 C   0  0  0  0  0  0  0  0  0  0  0  0
    1.4341    1.5167    1.2335 C   0  0  0  0  0  0  0  0  0  0  0  0
    0.7141    0.7500    2.0683 C   0  0  0  0  0  0  0  0  0  0  0  0
   -0.4778    1.7361   -0.2903 C   0  0  0  0  0  0  0  0  0  0  0  0
    3.2334   -0.3624   -1.3921 C   0  0  0  0  0  0  0  0  0  0  0  0
   -1.2438    0.8476    0.6500 C   0  0  0  0  0  0  0  0  0  0  0  0
   -0.6483    0.4115    1.7692 C   0  0  0  0  0  0  0  0  0  0  0  0
    2.8586   -1.5969   -0.7163 C   0  0  0  0  0  0  0  0  0  0  0  0
   -2.5937    0.4789    0.3655 C   0  0  0  0  0  0  0  0  0  0  0  0
    1.5381   -1.7974   -0.3219 C   0  0  0  0  0  0  0  0  0  0  0  0
    3.8220   -2.5718   -0.4692 C   0  0  0  0  0  0  0  0  0  0  0  0
   -3.7586    1.1277    0.7189 C   0  0  0  0  0  0  0  0  0  0  0  0
   -4.9405    0.4581    0.2554 C   0  0  0  0  0  0  0  0  0  0  0  0
   -4.6190   -0.7048   -0.4513 C   0  0  0  0  0  0  0  0  0  0  0  0
    1.1788   -2.9804    0.3241 C   0  0  0  0  0  0  0  0  0  0  0  0
    3.4625   -3.7547    0.1766 C   0  0  0  0  0  0  0  0  0  0  0  0
    2.1410   -3.9591    0.5733 C   0  0  0  0  0  0  0  0  0  0  0  0
   -6.3079    0.7931    0.4063 C   0  0  0  0  0  0  0  0  0  0  0  0
   -5.6176   -1.5308   -1.0039 C   0  0  0  0  0  0  0  0  0  0  0  0
   -7.3009   -0.0239   -0.1407 C   0  0  0  0  0  0  0  0  0  0  0  0
   -6.9569   -1.1732   -0.8380 C   0  0  0  0  0  0  0  0  0  0  0  0
    3.4071    4.0873   -0.9701 H   0  0  0  0  0  0  0  0  0  0  0  0
    3.0712    1.7910    2.6057 H   0  0  0  0  0  0  0  0  0  0  0  0
    2.7419    3.9602    1.4424 H   0  0  0  0  0  0  0  0  0  0  0  0
    4.3766    3.3458    1.1922 H   0  0  0  0  0  0  0  0  0  0  0  0
    3.7296    1.9923   -2.2695 H   0  0  0  0  0  0  0  0  0  0  0  0
    4.9867    2.2177   -1.0542 H   0  0  0  0  0  0  0  0  0  0  0  0
    1.4055    2.6898   -1.8442 H   0  0  0  0  0  0  0  0  0  0  0  0
    1.0899    3.9369   -0.6532 H   0  0  0  0  0  0  0  0  0  0  0  0
    3.5024   -0.2897    1.2994 H   0  0  0  0  0  0  0  0  0  0  0  0
    4.8227    0.8565    1.1225 H   0  0  0  0  0  0  0  0  0  0  0  0
    1.1467    0.3308    2.9708 H   0  0  0  0  0  0  0  0  0  0  0  0
   -1.1623   -0.2280    2.4808 H   0  0  0  0  0  0  0  0  0  0  0  0
   -3.7732    2.0497    1.2887 H   0  0  0  0  0  0  0  0  0  0  0  0
    0.7775   -1.0555   -0.5388 H   0  0  0  0  0  0  0  0  0  0  0  0
    4.8544   -2.4222   -0.7739 H   0  0  0  0  0  0  0  0  0  0  0  0
    0.1487   -3.1418    0.6274 H   0  0  0  0  0  0  0  0  0  0  0  0
    4.2115   -4.5168    0.3710 H   0  0  0  0  0  0  0  0  0  0  0  0
   -6.5930    1.6904    0.9500 H   0  0  0  0  0  0  0  0  0  0  0  0
   -5.3576   -2.4324   -1.5513 H   0  0  0  0  0  0  0  0  0  0  0  0
   -8.3465    0.2439   -0.0181 H   0  0  0  0  0  0  0  0  0  0  0  0
   -7.7360   -1.8024   -1.2598 H   0  0  0  0  0  0  0  0  0  0  0  0
  1 20  1  0  0  0  0
  1 25  1  0  0  0  0
  2 28  1  0  0  0  0
  3 15  2  0  0  0  0
  4 16  2  0  0  0  0
  5 10  1  0  0  0  0
  5 12  1  0  0  0  0
  5 16  1  0  0  0  0
  6 11  1  0  0  0  0
  6 13  1  0  0  0  0
  6 15  1  0  0  0  0
  7  9  1  0  0  0  0
  7 10  1  0  0  0  0
  7 11  1  0  0  0  0
  7 33  1  0  0  0  0
  8  9  1  0  0  0  0
  8 12  1  0  0  0  0
  8 13  1  0  0  0  0
  8 34  1  0  0  0  0
  9 35  1  0  0  0  0
  9 36  1  0  0  0  0
 10 37  1  0  0  0  0
 10 38  1  0  0  0  0
 11 39  1  0  0  0  0
 11 40  1  0  0  0  0
 12 41  1  0  0  0  0
 12 42  1  0  0  0  0
 13 14  2  0  0  0  0
 14 18  1  0  0  0  0
 14 43  1  0  0  0  0
 15 17  1  0  0  0  0
 16 19  1  0  0  0  0
 17 18  2  0  0  0  0
 17 20  1  0  0  0  0
 18 44  1  0  0  0  0
 19 21  2  0  0  0  0
 19 22  1  0  0  0  0
 20 23  2  0  0  0  0
 21 26  1  0  0  0  0
 21 46  1  0  0  0  0
 22 27  2  0  0  0  0
 22 47  1  0  0  0  0
 23 24  1  0  0  0  0
 23 45  1  0  0  0  0
 24 25  1  0  0  0  0
 24 29  2  0  0  0  0
 25 30  2  0  0  0  0
 26 28  2  0  0  0  0
 26 48  1  0  0  0  0
 27 28  1  0  0  0  0
 27 49  1  0  0  0  0
 29 31  1  0  0  0  0
 29 50  1  0  0  0  0
 30 32  1  0  0  0  0
 30 51  1  0  0  0  0
 31 32  2  0  0  0  0
 31 52  1  0  0  0  0
 32 53  1  0  0  0  0
M  END
> <PUBCHEM_COMPOUND_CID>
11911963

> <PUBCHEM_CONFORMER_RMSD>
0.8

> <PUBCHEM_CONFORMER_DIVERSEORDER>
1
8
9
5
4
12
3
6
10
7
2
11

> <PUBCHEM_MMFF94_PARTIAL_CHARGES>
40
1 -0.08
10 0.3
11 0.3
12 0.3
13 -0.03
14 -0.15
15 0.62
16 0.54
17 0.06
18 -0.15
19 0.09
2 -0.19
20 -0.01
21 -0.15
22 -0.15
23 -0.15
25 0.04
26 -0.15
27 -0.15
28 0.19
29 -0.15
3 -0.57
30 -0.15
31 -0.15
32 -0.15
4 -0.57
43 0.15
44 0.15
45 0.15
46 0.15
47 0.15
48 0.15
49 0.15
5 -0.66
50 0.15
51 0.15
52 0.15
53 0.15
6 -0.47
8 0.14

> <PUBCHEM_EFFECTIVE_ROTOR_COUNT>
4

> <PUBCHEM_PHARMACOPHORE_FEATURES>
8
1 3 acceptor
1 4 acceptor
5 1 20 23 24 25 rings
6 19 21 22 26 27 28 rings
6 24 25 29 30 31 32 rings
6 5 7 8 9 10 12 rings
6 6 13 14 15 17 18 rings
6 6 7 8 9 11 13 rings

> <PUBCHEM_HEAVY_ATOM_COUNT>
32

> <PUBCHEM_ATOM_DEF_STEREO_COUNT>
2

> <PUBCHEM_ATOM_UDEF_STEREO_COUNT>
0

> <PUBCHEM_BOND_DEF_STEREO_COUNT>
0

> <PUBCHEM_BOND_UDEF_STEREO_COUNT>
0

> <PUBCHEM_ISOTOPIC_ATOM_COUNT>
0

> <PUBCHEM_COMPONENT_COUNT>
1

> <PUBCHEM_CACTVS_TAUTO_COUNT>
1

> <PUBCHEM_CONFORMER_ID>
00B5C31B00000001

> <PUBCHEM_MMFF94_ENERGY>
88.8206

> <PUBCHEM_FEATURE_SELFOVERLAP>
42.252

> <PUBCHEM_SHAPE_FINGERPRINT>
10462674 125 10155418831855192269
10675989 125 18271810180351089897
11135609 149 18118100520877575871
11796584 16 17632302289529560893
11963148 33 17982718969259901047
12107183 9 17983022142194444249
12539745 222 13469035518844838700
13150687 139 17970368095036221900
13533116 47 18272090504851031945
1361 2 18336266850516322509
13617811 41 18334571391650930341
14068700 675 18121503441168908938
14675020 138 18270105928974758432
15001296 14 18130220558237208247
15183329 4 18342178895355123117
15324115 91 18335707151932116246
15324884 4 17682712818867660472
15664445 248 18338517550771355428
15799311 1 18340217379432613331
17138139 8 17558259092886281007
17492 54 18264230109187792550
17909252 39 18335983060836952609
19026451 147 18271810060466343538
19315092 285 18201997690366992219
19319366 153 18342449400157373287
20511986 3 17845926429328237917
20775438 99 18336536214076311379
20775530 9 18048878490034562494
21285901 2 17821722840979366157
23559900 14 18187655703617866515
23569914 152 17396947221747229847
238 59 18336563667622383050
239999 70 17917716820191038492
25222932 49 16844152657914255269
27425 322 17096928194384470593
3004659 81 17989494008778194597
3411729 13 17845927536907404792
4073 2 18267585883285065843
4340502 62 17774152534786007144
44280117 145 17404026917048413950
444735 86 17843667001711066823
460360 51 18190730930704663905
46194498 28 18040433317478701013
463206 1 18271522095424471611
484989 97 18192168176954158458
513532 50 17775568658744171812
70251023 43 18190462649429468203

> <PUBCHEM_SHAPE_MULTIPOLES>
633.42
13.26
4.69
1.56
30.22
4.72
-0.05
1.71
-2.96
-7.73
0.77
-1.22
-0.3
-0.85

> <PUBCHEM_SHAPE_SELFOVERLAP>
1411.155

> <PUBCHEM_SHAPE_VOLUME>
341.2

> <PUBCHEM_COORDINATE_TYPE>
2
5
10

$$$$
