38028057
  -OEChem-12032416143D

 71 73  0     1  0  0  0  0  0999 V2000
    1.4913    1.5037    0.6173 S   0  0  0  0  0  0  0  0  0  0  0  0
   -5.4405   -1.4788   -0.3346 O   0  0  0  0  0  0  0  0  0  0  0  0
   -6.6815    3.1976    0.6906 O   0  0  0  0  0  0  0  0  0  0  0  0
    1.3180    1.2659    2.0376 O   0  0  0  0  0  0  0  0  0  0  0  0
    1.1021    2.7750    0.0378 O   0  0  0  0  0  0  0  0  0  0  0  0
    7.9941   -0.7815    0.9952 O   0  0  0  0  0  0  0  0  0  0  0  0
    0.7530    0.2420   -0.2578 N   0  0  0  0  0  0  0  0  0  0  0  0
   -5.5891    0.8374   -0.3941 N   0  0  0  0  0  0  0  0  0  0  0  0
    7.2401    0.6828   -0.6917 N   0  0  0  0  0  0  0  0  0  0  0  0
   -1.2717   -1.7461    0.7052 C   0  0  1  0  0  0  0  0  0  0  0  0
   -0.1068   -2.0491   -0.2703 C   0  0  1  0  0  0  0  0  0  0  0  0
   -2.5908   -2.3113    0.1569 C   0  0  0  0  0  0  0  0  0  0  0  0
   -2.9458   -1.7274   -1.2236 C   0  0  2  0  0  0  0  0  0  0  0  0
   -1.0053   -2.3138    2.1029 C   0  0  0  0  0  0  0  0  0  0  0  0
   -1.7586   -1.7459   -2.1650 C   0  0  0  0  0  0  0  0  0  0  0  0
   -0.4987   -1.9042   -1.7221 C   0  0  0  0  0  0  0  0  0  0  0  0
    1.1058   -1.1585    0.0228 C   0  0  0  0  0  0  0  0  0  0  0  0
   -3.5210   -0.3126   -1.0935 C   0  0  0  0  0  0  0  0  0  0  0  0
   -1.7970   -1.5390    3.1515 C   0  0  0  0  0  0  0  0  0  0  0  0
   -1.3538   -3.7980    2.1495 C   0  0  0  0  0  0  0  0  0  0  0  0
   -2.0570   -1.6239   -3.6333 C   0  0  0  0  0  0  0  0  0  0  0  0
   -4.9353   -0.3795   -0.5749 C   0  0  0  0  0  0  0  0  0  0  0  0
   -6.9620    0.8632    0.1102 C   0  0  0  0  0  0  0  0  0  0  0  0
   -5.0672    2.1507   -0.7873 C   0  0  0  0  0  0  0  0  0  0  0  0
   -7.1111    1.9275    1.1880 C   0  0  0  0  0  0  0  0  0  0  0  0
   -5.2992    3.1650    0.3255 C   0  0  0  0  0  0  0  0  0  0  0  0
    3.1984    1.2602    0.2284 C   0  0  0  0  0  0  0  0  0  0  0  0
    3.9854    0.4344    1.0313 C   0  0  0  0  0  0  0  0  0  0  0  0
    3.7586    1.8939   -0.8808 C   0  0  0  0  0  0  0  0  0  0  0  0
    5.3325    0.2423    0.7248 C   0  0  0  0  0  0  0  0  0  0  0  0
    5.1057    1.7018   -1.1871 C   0  0  0  0  0  0  0  0  0  0  0  0
    5.8926    0.8758   -0.3845 C   0  0  0  0  0  0  0  0  0  0  0  0
    8.1786   -0.1031   -0.0101 C   0  0  0  0  0  0  0  0  0  0  0  0
    9.5361   -0.0464   -0.6649 C   0  0  0  0  0  0  0  0  0  0  0  0
   -1.3780   -0.6584    0.7964 H   0  0  0  0  0  0  0  0  0  0  0  0
    0.2158   -3.0901   -0.1434 H   0  0  0  0  0  0  0  0  0  0  0  0
   -3.4071   -2.1515    0.8674 H   0  0  0  0  0  0  0  0  0  0  0  0
   -2.5139   -3.3961    0.0073 H   0  0  0  0  0  0  0  0  0  0  0  0
   -3.6995   -2.3946   -1.6653 H   0  0  0  0  0  0  0  0  0  0  0  0
    0.0522   -2.2069    2.3650 H   0  0  0  0  0  0  0  0  0  0  0  0
    0.3109   -1.9570   -2.4476 H   0  0  0  0  0  0  0  0  0  0  0  0
    1.9441   -1.4402   -0.6257 H   0  0  0  0  0  0  0  0  0  0  0  0
    1.4384   -1.2766    1.0565 H   0  0  0  0  0  0  0  0  0  0  0  0
   -3.5616    0.1765   -2.0729 H   0  0  0  0  0  0  0  0  0  0  0  0
   -2.9151    0.3081   -0.4266 H   0  0  0  0  0  0  0  0  0  0  0  0
   -1.5267   -0.4776    3.1405 H   0  0  0  0  0  0  0  0  0  0  0  0
   -1.5794   -1.9223    4.1547 H   0  0  0  0  0  0  0  0  0  0  0  0
   -2.8779   -1.6153    2.9984 H   0  0  0  0  0  0  0  0  0  0  0  0
   -0.9844   -4.2244    3.0905 H   0  0  0  0  0  0  0  0  0  0  0  0
   -0.8802   -4.3690    1.3455 H   0  0  0  0  0  0  0  0  0  0  0  0
   -2.4323   -3.9876    2.1413 H   0  0  0  0  0  0  0  0  0  0  0  0
   -2.7731   -2.3927   -3.9412 H   0  0  0  0  0  0  0  0  0  0  0  0
   -1.1583   -1.7505   -4.2468 H   0  0  0  0  0  0  0  0  0  0  0  0
   -2.4770   -0.6420   -3.8690 H   0  0  0  0  0  0  0  0  0  0  0  0
    0.4498    0.4500   -1.2172 H   0  0  0  0  0  0  0  0  0  0  0  0
   -7.2588   -0.1163    0.4969 H   0  0  0  0  0  0  0  0  0  0  0  0
   -7.6036    1.0997   -0.7468 H   0  0  0  0  0  0  0  0  0  0  0  0
   -5.6234    2.4445   -1.6853 H   0  0  0  0  0  0  0  0  0  0  0  0
   -4.0078    2.1198   -1.0457 H   0  0  0  0  0  0  0  0  0  0  0  0
   -8.1608    2.0194    1.4837 H   0  0  0  0  0  0  0  0  0  0  0  0
   -6.5306    1.6747    2.0832 H   0  0  0  0  0  0  0  0  0  0  0  0
   -4.6972    2.9297    1.2113 H   0  0  0  0  0  0  0  0  0  0  0  0
   -5.0179    4.1666   -0.0144 H   0  0  0  0  0  0  0  0  0  0  0  0
    3.5683   -0.0701    1.8983 H   0  0  0  0  0  0  0  0  0  0  0  0
    3.1625    2.5351   -1.5238 H   0  0  0  0  0  0  0  0  0  0  0  0
    5.8773   -0.4110    1.3920 H   0  0  0  0  0  0  0  0  0  0  0  0
    5.5287    2.2003   -2.0556 H   0  0  0  0  0  0  0  0  0  0  0  0
    7.5730    1.1794   -1.5156 H   0  0  0  0  0  0  0  0  0  0  0  0
    9.8892    0.9881   -0.6986 H   0  0  0  0  0  0  0  0  0  0  0  0
    9.4724   -0.4446   -1.6815 H   0  0  0  0  0  0  0  0  0  0  0  0
   10.2493   -0.6456   -0.0921 H   0  0  0  0  0  0  0  0  0  0  0  0
  1  4  2  0  0  0  0
  1  5  2  0  0  0  0
  1  7  1  0  0  0  0
  1 27  1  0  0  0  0
  2 22  2  0  0  0  0
  3 25  1  0  0  0  0
  3 26  1  0  0  0  0
  6 33  2  0  0  0  0
  7 17  1  0  0  0  0
  7 55  1  0  0  0  0
  8 22  1  0  0  0  0
  8 23  1  0  0  0  0
  8 24  1  0  0  0  0
  9 32  1  0  0  0  0
  9 33  1  0  0  0  0
  9 68  1  0  0  0  0
 10 11  1  0  0  0  0
 10 12  1  0  0  0  0
 10 14  1  0  0  0  0
 10 35  1  0  0  0  0
 11 16  1  0  0  0  0
 11 17  1  0  0  0  0
 11 36  1  0  0  0  0
 12 13  1  0  0  0  0
 12 37  1  0  0  0  0
 12 38  1  0  0  0  0
 13 15  1  0  0  0  0
 13 18  1  0  0  0  0
 13 39  1  0  0  0  0
 14 19  1  0  0  0  0
 14 20  1  0  0  0  0
 14 40  1  0  0  0  0
 15 16  2  0  0  0  0
 15 21  1  0  0  0  0
 16 41  1  0  0  0  0
 17 42  1  0  0  0  0
 17 43  1  0  0  0  0
 18 22  1  0  0  0  0
 18 44  1  0  0  0  0
 18 45  1  0  0  0  0
 19 46  1  0  0  0  0
 19 47  1  0  0  0  0
 19 48  1  0  0  0  0
 20 49  1  0  0  0  0
 20 50  1  0  0  0  0
 20 51  1  0  0  0  0
 21 52  1  0  0  0  0
 21 53  1  0  0  0  0
 21 54  1  0  0  0  0
 23 25  1  0  0  0  0
 23 56  1  0  0  0  0
 23 57  1  0  0  0  0
 24 26  1  0  0  0  0
 24 58  1  0  0  0  0
 24 59  1  0  0  0  0
 25 60  1  0  0  0  0
 25 61  1  0  0  0  0
 26 62  1  0  0  0  0
 26 63  1  0  0  0  0
 27 28  2  0  0  0  0
 27 29  1  0  0  0  0
 28 30  1  0  0  0  0
 28 64  1  0  0  0  0
 29 31  2  0  0  0  0
 29 65  1  0  0  0  0
 30 32  2  0  0  0  0
 30 66  1  0  0  0  0
 31 32  1  0  0  0  0
 31 67  1  0  0  0  0
 33 34  1  0  0  0  0
 34 69  1  0  0  0  0
 34 70  1  0  0  0  0
 34 71  1  0  0  0  0
M  END
> <PUBCHEM_COMPOUND_CID>
38028057

> <PUBCHEM_CONFORMER_RMSD>
1.4

> <PUBCHEM_CONFORMER_DIVERSEORDER>
1
14
28
48
137
158
57
105
68
80
145
108
36
7
22
42
133
34
33
129
101
21
62
107
118
76
102
149
142
99
90
144
100
19
120
122
10
139
112
55
52
156
93
126
104
141
98
49
136
114
73
64
66
110
13
61
151
67
70
38
97
50
116
45
132
79
59
8
17
155
39
148
128
159
4
113
29
46
135
65
56
54
138
143
103
37
95
26
140
51
82
94
72
15
92
124
87
43
2
91
85
24
32
111
27
77
152
16
130
153
12
84
71
81
131
20
47
96
31
11
30
40
121
89
157
44
3
18
5
9
119
83
25
106
75
115
134
127
74
154
6
146
53
41
60
78
69
63
23
58
86
117
123
35
88
125
109
150
147

> <PUBCHEM_MMFF94_PARTIAL_CHARGES>
36
1 1.45
11 0.14
13 0.14
15 -0.28
16 -0.29
17 0.36
18 0.06
2 -0.57
21 0.14
22 0.57
23 0.3
24 0.3
25 0.28
26 0.28
27 -0.01
28 -0.15
29 -0.15
3 -0.56
30 -0.15
31 -0.15
32 0.12
33 0.57
34 0.06
4 -0.65
41 0.15
5 -0.65
55 0.42
6 -0.57
64 0.15
65 0.15
66 0.15
67 0.15
68 0.37
7 -0.91
8 -0.66
9 -0.55

> <PUBCHEM_EFFECTIVE_ROTOR_COUNT>
12

> <PUBCHEM_PHARMACOPHORE_FEATURES>
11
1 2 acceptor
1 3 acceptor
1 4 acceptor
1 5 acceptor
1 6 acceptor
1 7 donor
1 9 donor
3 14 19 20 hydrophobe
6 10 11 12 13 15 16 rings
6 27 28 29 30 31 32 rings
6 3 8 23 24 25 26 rings

> <PUBCHEM_HEAVY_ATOM_COUNT>
34

> <PUBCHEM_ATOM_DEF_STEREO_COUNT>
3

> <PUBCHEM_ATOM_UDEF_STEREO_COUNT>
0

> <PUBCHEM_BOND_DEF_STEREO_COUNT>
0

> <PUBCHEM_BOND_UDEF_STEREO_COUNT>
0

> <PUBCHEM_ISOTOPIC_ATOM_COUNT>
0

> <PUBCHEM_COMPONENT_COUNT>
1

> <PUBCHEM_CACTVS_TAUTO_COUNT>
2

> <PUBCHEM_CONFORMER_ID>
0244431900000001

> <PUBCHEM_MMFF94_ENERGY>
70.17

> <PUBCHEM_FEATURE_SELFOVERLAP>
55.841

> <PUBCHEM_SHAPE_FINGERPRINT>
10165383 225 17603298263341550055
10483366 6 17346598543684994417
10577160 103 13901900107709470202
10577160 183 18272652308100972098
10670039 82 18343294878040009101
10674148 151 18411414017321907528
11497681 19 8935006979720567672
11763715 3 17255693417492468135
1200032 147 18058457513372671857
12373685 5 14332861331104945526
14068700 675 8142076577247841287
14279260 333 18410571760938776958
14294032 229 18266178336408603080
14444916 359 17240482481855626682
14856354 85 18040433334510786015
15183329 4 17895462705398707526
15357212 105 17170134770074652764
15444296 121 18259990400324253316
15728490 51 7997967972834883288
16628084 112 17970901164505953610
19303781 99 10087049953415796113
20105231 36 15213019337278932082
21304303 282 15769238075814226755
21365058 27 15791728607545115954
21458453 9 12901843730413597461
21756936 100 18411978075123858911
244849 19 18192459431808882899
2838139 119 18201433710048823813
3633792 109 16701749254628975038
4098825 35 17168426082281966374
4173938 306 16486966289878185518
4280585 95 11024103257471076811
4394409 98 17203610393149674966
4625314 4 9078847285588854038
508180 173 17988923400623921744
59755656 520 18040712588857438091
6009941 240 18261116296489802354
6126387 218 18131626804039779808

> <PUBCHEM_SHAPE_MULTIPOLES>
659.26
21.7
3.6
2.32
32.59
0.01
-0.35
13.67
-0.49
-5.78
1.14
-1.91
-2
-1.42

> <PUBCHEM_SHAPE_SELFOVERLAP>
1349.428

> <PUBCHEM_SHAPE_VOLUME>
381.6

> <PUBCHEM_COORDINATE_TYPE>
2
5
10

$$$$
