11912973
  -OEChem-12032416373D

 57 61  0     1  0  0  0  0  0999 V2000
    2.8541    3.0769   -1.1881 S   0  0  0  0  0  0  0  0  0  0  0  0
   -1.2198    2.4885    1.2062 O   0  0  0  0  0  0  0  0  0  0  0  0
    1.0627    0.6268    2.2504 O   0  0  0  0  0  0  0  0  0  0  0  0
    3.7503    3.8618   -0.3607 O   0  0  0  0  0  0  0  0  0  0  0  0
    2.7295    3.3636   -2.6044 O   0  0  0  0  0  0  0  0  0  0  0  0
   -5.4134    0.7182    0.0460 O   0  0  0  0  0  0  0  0  0  0  0  0
    5.5030   -2.7280    1.3911 O   0  0  0  0  0  0  0  0  0  0  0  0
    1.3049    3.0689   -0.4935 N   0  0  0  0  0  0  0  0  0  0  0  0
   -1.2309   -1.1618    1.2030 N   0  0  0  0  0  0  0  0  0  0  0  0
   -3.3759   -0.8482    0.3043 N   0  0  0  0  0  0  0  0  0  0  0  0
   -2.1667   -2.8995   -0.0656 N   0  0  0  0  0  0  0  0  0  0  0  0
    4.4383   -2.6179   -0.7096 N   0  0  0  0  0  0  0  0  0  0  0  0
    0.7531    1.1811    0.9609 C   0  0  1  0  0  0  0  0  0  0  0  0
   -0.7567    1.1834    0.8212 C   0  0  1  0  0  0  0  0  0  0  0  0
    1.1306    2.6418    0.9163 C   0  0  2  0  0  0  0  0  0  0  0  0
   -1.2224    0.1478    1.8174 C   0  0  2  0  0  0  0  0  0  0  0  0
   -0.0900    3.3212    1.5058 C   0  0  0  0  0  0  0  0  0  0  0  0
   -0.1535    0.2164    2.8924 C   0  0  0  0  0  0  0  0  0  0  0  0
   -2.2895   -1.6510    0.4584 C   0  0  0  0  0  0  0  0  0  0  0  0
    3.3269    1.3795   -1.0456 C   0  0  0  0  0  0  0  0  0  0  0  0
    3.9920    0.9567    0.0921 C   0  0  0  0  0  0  0  0  0  0  0  0
    3.0226    0.5053   -2.0743 C   0  0  0  0  0  0  0  0  0  0  0  0
   -4.3888   -1.3568   -0.4276 C   0  0  0  0  0  0  0  0  0  0  0  0
   -3.2167   -3.3452   -0.7862 C   0  0  0  0  0  0  0  0  0  0  0  0
    4.3647   -0.3828    0.2045 C   0  0  0  0  0  0  0  0  0  0  0  0
    3.3951   -0.8342   -1.9619 C   0  0  0  0  0  0  0  0  0  0  0  0
    4.0663   -1.2782   -0.8225 C   0  0  0  0  0  0  0  0  0  0  0  0
   -4.3647   -2.6108   -1.0029 C   0  0  0  0  0  0  0  0  0  0  0  0
   -5.5241   -0.4850   -0.5724 C   0  0  0  0  0  0  0  0  0  0  0  0
   -6.7341   -0.5943   -1.2127 C   0  0  0  0  0  0  0  0  0  0  0  0
    5.1110   -3.2430    0.3489 C   0  0  0  0  0  0  0  0  0  0  0  0
   -7.4146    0.6232   -0.9728 C   0  0  0  0  0  0  0  0  0  0  0  0
   -6.5695    1.3878   -0.2027 C   0  0  0  0  0  0  0  0  0  0  0  0
    5.3264   -4.7122    0.0849 C   0  0  0  0  0  0  0  0  0  0  0  0
    1.2071    0.5320    0.2136 H   0  0  0  0  0  0  0  0  0  0  0  0
   -1.0879    1.0137   -0.2084 H   0  0  0  0  0  0  0  0  0  0  0  0
    2.0190    2.8946    1.5024 H   0  0  0  0  0  0  0  0  0  0  0  0
   -2.1973    0.3728    2.2651 H   0  0  0  0  0  0  0  0  0  0  0  0
   -0.2687    4.3271    1.1138 H   0  0  0  0  0  0  0  0  0  0  0  0
   -0.0140    3.3844    2.5969 H   0  0  0  0  0  0  0  0  0  0  0  0
    0.0145   -0.7308    3.4141 H   0  0  0  0  0  0  0  0  0  0  0  0
   -0.3986    0.9802    3.6388 H   0  0  0  0  0  0  0  0  0  0  0  0
    0.4850    2.9704   -1.1053 H   0  0  0  0  0  0  0  0  0  0  0  0
   -0.4056   -1.7470    1.2661 H   0  0  0  0  0  0  0  0  0  0  0  0
    4.2294    1.6381    0.9032 H   0  0  0  0  0  0  0  0  0  0  0  0
    2.4932    0.8290   -2.9650 H   0  0  0  0  0  0  0  0  0  0  0  0
    4.8795   -0.6519    1.1162 H   0  0  0  0  0  0  0  0  0  0  0  0
    3.1539   -1.5216   -2.7688 H   0  0  0  0  0  0  0  0  0  0  0  0
   -3.1057   -4.3424   -1.1986 H   0  0  0  0  0  0  0  0  0  0  0  0
   -5.1788   -3.0168   -1.5898 H   0  0  0  0  0  0  0  0  0  0  0  0
    4.1849   -3.2070   -1.5002 H   0  0  0  0  0  0  0  0  0  0  0  0
   -7.0954   -1.4376   -1.7840 H   0  0  0  0  0  0  0  0  0  0  0  0
   -8.3980    0.9079   -1.3179 H   0  0  0  0  0  0  0  0  0  0  0  0
   -6.6386    2.3762    0.2274 H   0  0  0  0  0  0  0  0  0  0  0  0
    5.9026   -4.8435   -0.8353 H   0  0  0  0  0  0  0  0  0  0  0  0
    5.8782   -5.1611    0.9154 H   0  0  0  0  0  0  0  0  0  0  0  0
    4.3603   -5.2151   -0.0135 H   0  0  0  0  0  0  0  0  0  0  0  0
  1  4  2  0  0  0  0
  1  5  2  0  0  0  0
  1  8  1  0  0  0  0
  1 20  1  0  0  0  0
  2 14  1  0  0  0  0
  2 17  1  0  0  0  0
  3 13  1  0  0  0  0
  3 18  1  0  0  0  0
  6 29  1  0  0  0  0
  6 33  1  0  0  0  0
  7 31  2  0  0  0  0
  8 15  1  0  0  0  0
  8 43  1  0  0  0  0
  9 16  1  0  0  0  0
  9 19  1  0  0  0  0
  9 44  1  0  0  0  0
 10 19  1  0  0  0  0
 10 23  2  0  0  0  0
 11 19  2  0  0  0  0
 11 24  1  0  0  0  0
 12 27  1  0  0  0  0
 12 31  1  0  0  0  0
 12 51  1  0  0  0  0
 13 14  1  0  0  0  0
 13 15  1  0  0  0  0
 13 35  1  0  0  0  0
 14 16  1  0  0  0  0
 14 36  1  0  0  0  0
 15 17  1  0  0  0  0
 15 37  1  0  0  0  0
 16 18  1  0  0  0  0
 16 38  1  0  0  0  0
 17 39  1  0  0  0  0
 17 40  1  0  0  0  0
 18 41  1  0  0  0  0
 18 42  1  0  0  0  0
 20 21  2  0  0  0  0
 20 22  1  0  0  0  0
 21 25  1  0  0  0  0
 21 45  1  0  0  0  0
 22 26  2  0  0  0  0
 22 46  1  0  0  0  0
 23 28  1  0  0  0  0
 23 29  1  0  0  0  0
 24 28  2  0  0  0  0
 24 49  1  0  0  0  0
 25 27  2  0  0  0  0
 25 47  1  0  0  0  0
 26 27  1  0  0  0  0
 26 48  1  0  0  0  0
 28 50  1  0  0  0  0
 29 30  2  0  0  0  0
 30 32  1  0  0  0  0
 30 52  1  0  0  0  0
 31 34  1  0  0  0  0
 32 33  2  0  0  0  0
 32 53  1  0  0  0  0
 33 54  1  0  0  0  0
 34 55  1  0  0  0  0
 34 56  1  0  0  0  0
 34 57  1  0  0  0  0
M  END
> <PUBCHEM_COMPOUND_CID>
11912973

> <PUBCHEM_CONFORMER_RMSD>
1.2

> <PUBCHEM_CONFORMER_DIVERSEORDER>
1
52
199
30
99
143
161
16
189
168
33
225
75
247
12
192
191
186
241
144
205
136
175
133
190
138
140
88
107
196
141
17
120
244
80
234
236
61
77
243
238
200
218
21
9
109
82
66
146
123
79
122
112
46
40
248
155
89
87
145
63
8
188
132
221
42
34
68
90
43
58
180
151
104
245
242
115
220
49
250
100
174
158
55
62
202
178
18
185
204
126
54
212
214
179
38
149
86
121
111
64
84
39
210
233
219
83
131
181
27
230
10
135
32
203
106
76
13
20
157
3
127
152
73
154
31
101
171
159
183
57
137
96
139
50
197
51
227
165
91
229
166
105
95
240
130
173
72
2
228
201
182
74
23
195
128
81
44
124
148
217
47
246
29
164
118
232
169
208
237
252
170
26
160
134
103
15
45
22
249
113
97
125
162
150
110
184
65
85
129
98
94
7
207
48
224
102
41
223
70
92
24
108
167
211
35
153
187
14
60
163
239
216
156
56
142
231
59
176
37
71
209
114
69
36
67
198
222
93
25
194
215
193
147
53
11
117
213
177
206
226
4
172
19
116
119
6
5
28
78
235
251

> <PUBCHEM_MMFF94_PARTIAL_CHARGES>
46
1 1.45
10 -0.62
11 -0.62
12 -0.55
13 0.28
14 0.28
15 0.36
16 0.37
17 0.28
18 0.28
19 0.72
2 -0.56
20 -0.01
21 -0.15
22 -0.15
23 0.36
24 0.16
25 -0.15
26 -0.15
27 0.12
28 -0.15
29 0.09
3 -0.56
30 -0.15
31 0.57
32 -0.15
33 -0.01
34 0.06
4 -0.65
43 0.42
44 0.4
45 0.15
46 0.15
47 0.15
48 0.15
49 0.15
5 -0.65
50 0.15
51 0.37
52 0.15
53 0.15
54 0.15
6 -0.28
7 -0.57
8 -0.91
9 -0.87

> <PUBCHEM_EFFECTIVE_ROTOR_COUNT>
9.2

> <PUBCHEM_PHARMACOPHORE_FEATURES>
16
1 10 acceptor
1 12 donor
1 2 acceptor
1 3 acceptor
1 4 acceptor
1 5 acceptor
1 6 acceptor
1 7 acceptor
1 8 donor
1 9 donor
4 9 10 11 19 cation
5 2 13 14 15 17 rings
5 3 13 14 16 18 rings
5 6 29 30 32 33 rings
6 10 11 19 23 24 28 rings
6 20 21 22 25 26 27 rings

> <PUBCHEM_HEAVY_ATOM_COUNT>
34

> <PUBCHEM_ATOM_DEF_STEREO_COUNT>
4

> <PUBCHEM_ATOM_UDEF_STEREO_COUNT>
0

> <PUBCHEM_BOND_DEF_STEREO_COUNT>
0

> <PUBCHEM_BOND_UDEF_STEREO_COUNT>
0

> <PUBCHEM_ISOTOPIC_ATOM_COUNT>
0

> <PUBCHEM_COMPONENT_COUNT>
1

> <PUBCHEM_CACTVS_TAUTO_COUNT>
6

> <PUBCHEM_CONFORMER_ID>
00B5C70D00000001

> <PUBCHEM_MMFF94_ENERGY>
75.5667

> <PUBCHEM_FEATURE_SELFOVERLAP>
81.935

> <PUBCHEM_SHAPE_FINGERPRINT>
10675989 125 18335702779682153016
10842051 180 8862360000389640699
10904742 90 9439105569091644462
10974685 15 17190094358834116156
11069576 57 18337397136349431990
11578080 2 15576137570525961844
11720765 8 18410849967097839444
13636023 51 17273952779514230562
14068700 675 18270116791295527306
14117953 113 18200033923945897358
14289585 56 17314228869903575445
14415361 349 18053125947093178286
14674994 50 17755300068372329596
15003188 33 18410296951609138365
15183329 4 18273220820142536413
15406563 42 17829902283724242676
15684389 69 8718239336283398629
20715895 44 18335137626262263565
21315764 21 18188219800300909276
21315764 371 13902195889190179431
21362857 166 17914026920174082183
21458453 9 11671767308530739519
23559900 14 18201706397854964123
3004659 81 18343025488552565382
3459 83 18410295787825826041
4066623 53 18411691068045070573
4394409 98 18339923706232369759
4918855 1 17096639908148609565
6443934 186 9439403540831419879
9862260 156 18341889659103216743

> <PUBCHEM_SHAPE_MULTIPOLES>
643.43
15.58
5.24
2.05
19.74
1.38
0.36
9.11
-6.24
-7.47
-0.51
-1.17
-0.99
-2.3

> <PUBCHEM_SHAPE_SELFOVERLAP>
1393.619

> <PUBCHEM_SHAPE_VOLUME>
353.3

> <PUBCHEM_COORDINATE_TYPE>
2
5
10

$$$$
