25390362
  -OEChem-12032416173D

 57 60  0     1  0  0  0  0  0999 V2000
   -3.6100    0.7319    0.9364 O   0  0  0  0  0  0  0  0  0  0  0  0
   -5.3044    2.5968   -0.7683 O   0  0  0  0  0  0  0  0  0  0  0  0
   -5.9049    0.0992   -1.7531 O   0  0  0  0  0  0  0  0  0  0  0  0
   -1.2152    2.3634    1.6834 O   0  0  0  0  0  0  0  0  0  0  0  0
   -2.0309   -1.5429    2.0842 O   0  0  0  0  0  0  0  0  0  0  0  0
   -0.9886   -2.9289   -1.0082 O   0  0  0  0  0  0  0  0  0  0  0  0
    0.5422    1.5894    0.3748 N   0  0  0  0  0  0  0  0  0  0  0  0
    3.3317    0.9032    0.0176 N   0  0  0  0  0  0  0  0  0  0  0  0
   -3.2695   -1.9803    0.1715 N   0  0  0  0  0  0  0  0  0  0  0  0
    5.3548    1.0437   -1.1924 N   0  0  0  0  0  0  0  0  0  0  0  0
   -3.2034    1.7701    0.0156 C   0  0  2  0  0  0  0  0  0  0  0  0
   -4.2129    1.7502   -1.1270 C   0  0  1  0  0  0  0  0  0  0  0  0
   -4.6522    0.3006   -1.1343 C   0  0  1  0  0  0  0  0  0  0  0  0
   -4.6932   -0.0126    0.3520 C   0  0  1  0  0  0  0  0  0  0  0  0
   -1.7833    1.4606   -0.4380 C   0  0  0  0  0  0  0  0  0  0  0  0
   -4.5239   -1.4894    0.6607 C   0  0  0  0  0  0  0  0  0  0  0  0
   -0.8029    1.8473    0.6421 C   0  0  0  0  0  0  0  0  0  0  0  0
    1.5535    1.9396    1.3688 C   0  0  0  0  0  0  0  0  0  0  0  0
    1.0291    0.9666   -0.8582 C   0  0  0  0  0  0  0  0  0  0  0  0
    2.7308    0.9670    1.3529 C   0  0  0  0  0  0  0  0  0  0  0  0
    2.5021    1.2698   -1.1328 C   0  0  0  0  0  0  0  0  0  0  0  0
    4.6659    0.5379   -0.1450 C   0  0  0  0  0  0  0  0  0  0  0  0
   -2.1047   -1.9678    0.9341 C   0  0  0  0  0  0  0  0  0  0  0  0
    5.2038   -0.3313    0.7903 C   0  0  0  0  0  0  0  0  0  0  0  0
   -0.8804   -2.4882    0.2729 C   0  0  0  0  0  0  0  0  0  0  0  0
    6.5346   -0.7054    0.6413 C   0  0  0  0  0  0  0  0  0  0  0  0
    6.6456    0.6575   -1.3048 C   0  0  0  0  0  0  0  0  0  0  0  0
    7.2763   -0.2058   -0.4236 C   0  0  0  0  0  0  0  0  0  0  0  0
    0.4133   -2.6196    0.7215 C   0  0  0  0  0  0  0  0  0  0  0  0
    1.1472   -3.1765   -0.3528 C   0  0  0  0  0  0  0  0  0  0  0  0
    0.2495   -3.3461   -1.3815 C   0  0  0  0  0  0  0  0  0  0  0  0
   -3.2597    2.7252    0.5506 H   0  0  0  0  0  0  0  0  0  0  0  0
   -3.8274    2.0927   -2.0914 H   0  0  0  0  0  0  0  0  0  0  0  0
   -3.9028   -0.2996   -1.6616 H   0  0  0  0  0  0  0  0  0  0  0  0
   -5.6301    0.3382    0.8023 H   0  0  0  0  0  0  0  0  0  0  0  0
   -1.5535    2.0635   -1.3234 H   0  0  0  0  0  0  0  0  0  0  0  0
   -1.6584    0.4012   -0.6769 H   0  0  0  0  0  0  0  0  0  0  0  0
   -5.3195   -2.0801    0.1959 H   0  0  0  0  0  0  0  0  0  0  0  0
   -4.5615   -1.6498    1.7439 H   0  0  0  0  0  0  0  0  0  0  0  0
    1.1050    1.9698    2.3675 H   0  0  0  0  0  0  0  0  0  0  0  0
    1.8924    2.9555    1.1318 H   0  0  0  0  0  0  0  0  0  0  0  0
    0.4305    1.2941   -1.7121 H   0  0  0  0  0  0  0  0  0  0  0  0
    0.8809   -0.1112   -0.7482 H   0  0  0  0  0  0  0  0  0  0  0  0
    3.4590    1.3135    2.0965 H   0  0  0  0  0  0  0  0  0  0  0  0
    2.3859   -0.0320    1.6461 H   0  0  0  0  0  0  0  0  0  0  0  0
    2.8082    0.7118   -2.0260 H   0  0  0  0  0  0  0  0  0  0  0  0
    2.6356    2.3378   -1.3439 H   0  0  0  0  0  0  0  0  0  0  0  0
   -4.9709    3.5102   -0.7524 H   0  0  0  0  0  0  0  0  0  0  0  0
   -5.8390    0.4376   -2.6623 H   0  0  0  0  0  0  0  0  0  0  0  0
   -3.2343   -2.3520   -0.7735 H   0  0  0  0  0  0  0  0  0  0  0  0
    4.6381   -0.7483    1.6162 H   0  0  0  0  0  0  0  0  0  0  0  0
    6.9921   -1.3886    1.3505 H   0  0  0  0  0  0  0  0  0  0  0  0
    7.1799    1.0745   -2.1520 H   0  0  0  0  0  0  0  0  0  0  0  0
    8.3148   -0.4847   -0.5602 H   0  0  0  0  0  0  0  0  0  0  0  0
    0.7863   -2.3468    1.6984 H   0  0  0  0  0  0  0  0  0  0  0  0
    2.1992   -3.4214   -0.3754 H   0  0  0  0  0  0  0  0  0  0  0  0
    0.3298   -3.7289   -2.3883 H   0  0  0  0  0  0  0  0  0  0  0  0
  1 11  1  0  0  0  0
  1 14  1  0  0  0  0
  2 12  1  0  0  0  0
  2 48  1  0  0  0  0
  3 13  1  0  0  0  0
  3 49  1  0  0  0  0
  4 17  2  0  0  0  0
  5 23  2  0  0  0  0
  6 25  1  0  0  0  0
  6 31  1  0  0  0  0
  7 17  1  0  0  0  0
  7 18  1  0  0  0  0
  7 19  1  0  0  0  0
  8 20  1  0  0  0  0
  8 21  1  0  0  0  0
  8 22  1  0  0  0  0
  9 16  1  0  0  0  0
  9 23  1  0  0  0  0
  9 50  1  0  0  0  0
 10 22  1  0  0  0  0
 10 27  2  0  0  0  0
 11 12  1  0  0  0  0
 11 15  1  0  0  0  0
 11 32  1  0  0  0  0
 12 13  1  0  0  0  0
 12 33  1  0  0  0  0
 13 14  1  0  0  0  0
 13 34  1  0  0  0  0
 14 16  1  0  0  0  0
 14 35  1  0  0  0  0
 15 17  1  0  0  0  0
 15 36  1  0  0  0  0
 15 37  1  0  0  0  0
 16 38  1  0  0  0  0
 16 39  1  0  0  0  0
 18 20  1  0  0  0  0
 18 40  1  0  0  0  0
 18 41  1  0  0  0  0
 19 21  1  0  0  0  0
 19 42  1  0  0  0  0
 19 43  1  0  0  0  0
 20 44  1  0  0  0  0
 20 45  1  0  0  0  0
 21 46  1  0  0  0  0
 21 47  1  0  0  0  0
 22 24  2  0  0  0  0
 23 25  1  0  0  0  0
 24 26  1  0  0  0  0
 24 51  1  0  0  0  0
 25 29  2  0  0  0  0
 26 28  2  0  0  0  0
 26 52  1  0  0  0  0
 27 28  1  0  0  0  0
 27 53  1  0  0  0  0
 28 54  1  0  0  0  0
 29 30  1  0  0  0  0
 29 55  1  0  0  0  0
 30 31  2  0  0  0  0
 30 56  1  0  0  0  0
 31 57  1  0  0  0  0
M  END
> <PUBCHEM_COMPOUND_CID>
25390362

> <PUBCHEM_CONFORMER_RMSD>
1

> <PUBCHEM_CONFORMER_DIVERSEORDER>
1
182
225
283
148
172
26
212
170
47
106
27
72
83
190
217
229
253
274
221
44
151
292
269
143
10
184
77
51
115
244
142
146
122
60
237
254
81
228
240
173
251
206
131
102
82
80
245
238
31
219
159
201
125
49
293
99
105
210
181
196
208
56
52
289
58
20
211
85
284
155
279
202
290
261
275
264
144
214
39
157
136
291
280
132
34
193
23
88
263
223
75
62
126
167
121
129
236
241
198
168
74
93
222
7
164
29
246
138
137
117
286
154
234
141
66
150
227
249
100
36
152
149
161
266
46
145
276
30
233
218
179
186
54
282
255
113
187
116
110
123
92
197
265
235
5
67
203
127
281
114
166
139
200
13
259
215
258
55
130
204
247
242
45
252
213
96
98
59
107
18
153
273
185
97
89
195
91
104
205
61
64
256
108
84
268
216
19
69
14
224
38
175
267
87
189
95
180
22
135
171
40
176
169
101
232
192
128
191
8
174
199
63
103
11
17
33
24
65
250
194
133
239
220
124
288
162
226
119
28
134
37
270
243
277
207
209
158
140
165
188
43
53
147
120
294
6
71
42
73
118
86
78
160
287
41
231
262
2
272
248
21
32
50
285
79
278
16
57
3
230
109
4
178
260
156
271
76
90
12
163
177
35
257
183
111
9
25
48
70
94
112
15
68

> <PUBCHEM_MMFF94_PARTIAL_CHARGES>
41
1 -0.56
10 -0.62
11 0.28
12 0.28
13 0.28
14 0.28
15 0.06
16 0.3
17 0.57
18 0.3
19 0.3
2 -0.68
20 0.37
21 0.37
22 0.41
23 0.71
24 -0.15
25 0.05
26 -0.15
27 0.16
28 -0.15
29 -0.15
3 -0.68
30 -0.15
31 -0.01
4 -0.57
48 0.4
49 0.4
5 -0.57
50 0.37
51 0.15
52 0.15
53 0.15
54 0.15
55 0.15
56 0.15
57 0.15
6 -0.28
7 -0.66
8 -0.84
9 -0.73

> <PUBCHEM_EFFECTIVE_ROTOR_COUNT>
10.2

> <PUBCHEM_PHARMACOPHORE_FEATURES>
15
1 1 acceptor
1 10 acceptor
1 2 acceptor
1 2 donor
1 3 acceptor
1 3 donor
1 4 acceptor
1 5 acceptor
1 6 acceptor
1 8 cation
1 9 donor
5 1 11 12 13 14 rings
5 6 25 29 30 31 rings
6 10 22 24 26 27 28 rings
6 7 8 18 19 20 21 rings

> <PUBCHEM_HEAVY_ATOM_COUNT>
31

> <PUBCHEM_ATOM_DEF_STEREO_COUNT>
4

> <PUBCHEM_ATOM_UDEF_STEREO_COUNT>
0

> <PUBCHEM_BOND_DEF_STEREO_COUNT>
0

> <PUBCHEM_BOND_UDEF_STEREO_COUNT>
0

> <PUBCHEM_ISOTOPIC_ATOM_COUNT>
0

> <PUBCHEM_COMPONENT_COUNT>
1

> <PUBCHEM_CACTVS_TAUTO_COUNT>
2

> <PUBCHEM_CONFORMER_ID>
01836D1A00000001

> <PUBCHEM_MMFF94_ENERGY>
78.5277

> <PUBCHEM_FEATURE_SELFOVERLAP>
76.139

> <PUBCHEM_SHAPE_FINGERPRINT>
10675989 125 17181646274449690301
107951 10 17749109993384704259
11200772 71 18119546564069425364
11513181 2 17773035254572702975
11524674 6 18201998824154072822
11578080 2 16879888791836026815
12422481 6 18114739335565055758
12788726 201 18201436909736468064
13402501 40 18413110558693268046
14251757 5 18265342883643189594
14931854 50 18341039736488294013
15183329 4 17749103383667177912
16719943 64 18410013260572065538
18608769 82 18334300886089031307
18681886 176 18335415794510516192
19958102 18 18409453562024496902
20511986 3 18113895005583075368
21279426 13 18339649936648183318
21344244 246 18342451500649621335
23559900 14 18339076120011148448
3298306 158 18411693270982828715
3383291 50 18201998850304223310
338550 245 18333455352740890934
373842 8 18266456504349946010
4015057 19 17560231556585807912
4093350 32 17059507214229652999
5085150 59 18341323423426207850
508706 21 18411142475803244975
5265222 85 18336836410988778692
57527295 17 17915441828351072541
59755656 215 18412540981441655583
6437827 68 18409168805676921458
7226269 152 18272655657916824268

> <PUBCHEM_SHAPE_MULTIPOLES>
582.83
14.91
3.56
1.51
16.86
2.68
-0.08
-3.88
4
-2.44
0.18
-0.3
-0.09
0.55

> <PUBCHEM_SHAPE_SELFOVERLAP>
1244.601

> <PUBCHEM_SHAPE_VOLUME>
321.3

> <PUBCHEM_COORDINATE_TYPE>
2
5
10

$$$$
