75537134
  -OEChem-12032416313D

 56 60  0     1  0  0  0  0  0999 V2000
    4.2200    2.4559   -0.1387 O   0  0  0  0  0  0  0  0  0  0  0  0
   -4.5758   -2.1846    1.0361 O   0  0  0  0  0  0  0  0  0  0  0  0
   -6.1523   -1.1866   -1.1615 O   0  0  0  0  0  0  0  0  0  0  0  0
    3.4493    0.2274   -0.1989 N   0  0  0  0  0  0  0  0  0  0  0  0
    1.9435    1.8920   -0.2753 N   0  0  0  0  0  0  0  0  0  0  0  0
   -0.8152    1.9617    0.2686 N   0  0  2  0  0  0  0  0  0  0  0  0
    1.1617    0.6865   -0.4551 C   0  0  1  0  0  0  0  0  0  0  0  0
    4.6876   -0.5040   -0.0816 C   0  0  0  0  0  0  0  0  0  0  0  0
    2.1573   -0.4368   -0.1723 C   0  0  0  0  0  0  0  0  0  0  0  0
   -0.0626    0.7052    0.4596 C   0  0  0  0  0  0  0  0  0  0  0  0
    4.9344   -1.3458   -1.3358 C   0  0  0  0  0  0  0  0  0  0  0  0
    4.6875   -1.3710    1.1803 C   0  0  0  0  0  0  0  0  0  0  0  0
    3.3182    1.6307   -0.2009 C   0  0  0  0  0  0  0  0  0  0  0  0
    1.2780    3.1779   -0.2952 C   0  0  0  0  0  0  0  0  0  0  0  0
    0.0267    3.1332    0.5854 C   0  0  0  0  0  0  0  0  0  0  0  0
    6.2127   -2.1715   -1.2167 C   0  0  0  0  0  0  0  0  0  0  0  0
    5.9670   -2.1952    1.2959 C   0  0  0  0  0  0  0  0  0  0  0  0
    6.2121   -3.0320    0.0436 C   0  0  0  0  0  0  0  0  0  0  0  0
   -2.0218    1.9630    1.0953 C   0  0  0  0  0  0  0  0  0  0  0  0
   -3.1088    1.1066    0.5021 C   0  0  0  0  0  0  0  0  0  0  0  0
   -3.3737   -0.1540    1.0376 C   0  0  0  0  0  0  0  0  0  0  0  0
   -3.8464    1.5738   -0.5861 C   0  0  0  0  0  0  0  0  0  0  0  0
   -4.3763   -0.9480    0.4801 C   0  0  0  0  0  0  0  0  0  0  0  0
   -4.8583    0.7862   -1.1357 C   0  0  0  0  0  0  0  0  0  0  0  0
   -5.1330   -0.4689   -0.5922 C   0  0  0  0  0  0  0  0  0  0  0  0
   -5.3623   -3.0288    0.1911 C   0  0  0  0  0  0  0  0  0  0  0  0
   -6.5692   -2.2729   -0.3296 C   0  0  0  0  0  0  0  0  0  0  0  0
    0.8535    0.6593   -1.5086 H   0  0  0  0  0  0  0  0  0  0  0  0
    5.5011    0.2281    0.0030 H   0  0  0  0  0  0  0  0  0  0  0  0
    1.9991   -0.8709    0.8196 H   0  0  0  0  0  0  0  0  0  0  0  0
    2.0993   -1.2220   -0.9301 H   0  0  0  0  0  0  0  0  0  0  0  0
   -0.6749   -0.1680    0.2103 H   0  0  0  0  0  0  0  0  0  0  0  0
    0.2445    0.6050    1.5096 H   0  0  0  0  0  0  0  0  0  0  0  0
    4.9982   -0.6959   -2.2171 H   0  0  0  0  0  0  0  0  0  0  0  0
    4.0967   -2.0302   -1.5162 H   0  0  0  0  0  0  0  0  0  0  0  0
    3.8395   -2.0665    1.1767 H   0  0  0  0  0  0  0  0  0  0  0  0
    4.5729   -0.7411    2.0708 H   0  0  0  0  0  0  0  0  0  0  0  0
    1.9716    3.9554    0.0401 H   0  0  0  0  0  0  0  0  0  0  0  0
    1.0089    3.3887   -1.3366 H   0  0  0  0  0  0  0  0  0  0  0  0
    0.3254    3.1072    1.6419 H   0  0  0  0  0  0  0  0  0  0  0  0
   -0.5368    4.0601    0.4250 H   0  0  0  0  0  0  0  0  0  0  0  0
    7.0798   -1.4999   -1.1993 H   0  0  0  0  0  0  0  0  0  0  0  0
    6.3226   -2.8110   -2.0999 H   0  0  0  0  0  0  0  0  0  0  0  0
    5.9057   -2.8513    2.1715 H   0  0  0  0  0  0  0  0  0  0  0  0
    6.8193   -1.5241    1.4590 H   0  0  0  0  0  0  0  0  0  0  0  0
    7.1700   -3.5567    0.1323 H   0  0  0  0  0  0  0  0  0  0  0  0
    5.4333   -3.8001   -0.0399 H   0  0  0  0  0  0  0  0  0  0  0  0
   -1.8068    1.6662    2.1309 H   0  0  0  0  0  0  0  0  0  0  0  0
   -2.4325    2.9801    1.1685 H   0  0  0  0  0  0  0  0  0  0  0  0
   -2.7962   -0.5261    1.8803 H   0  0  0  0  0  0  0  0  0  0  0  0
   -3.6446    2.5529   -1.0129 H   0  0  0  0  0  0  0  0  0  0  0  0
   -5.4337    1.1613   -1.9777 H   0  0  0  0  0  0  0  0  0  0  0  0
   -5.6810   -3.8907    0.7855 H   0  0  0  0  0  0  0  0  0  0  0  0
   -4.7291   -3.3927   -0.6277 H   0  0  0  0  0  0  0  0  0  0  0  0
   -7.1990   -2.9326   -0.9345 H   0  0  0  0  0  0  0  0  0  0  0  0
   -7.1797   -1.8727    0.4894 H   0  0  0  0  0  0  0  0  0  0  0  0
  1 13  2  0  0  0  0
  2 23  1  0  0  0  0
  2 26  1  0  0  0  0
  3 25  1  0  0  0  0
  3 27  1  0  0  0  0
  4  8  1  0  0  0  0
  4  9  1  0  0  0  0
  4 13  1  0  0  0  0
  5  7  1  0  0  0  0
  5 13  1  0  0  0  0
  5 14  1  0  0  0  0
  6 10  1  0  0  0  0
  6 15  1  0  0  0  0
  6 19  1  0  0  0  0
  7  9  1  0  0  0  0
  7 10  1  0  0  0  0
  7 28  1  0  0  0  0
  8 11  1  0  0  0  0
  8 12  1  0  0  0  0
  8 29  1  0  0  0  0
  9 30  1  0  0  0  0
  9 31  1  0  0  0  0
 10 32  1  0  0  0  0
 10 33  1  0  0  0  0
 11 16  1  0  0  0  0
 11 34  1  0  0  0  0
 11 35  1  0  0  0  0
 12 17  1  0  0  0  0
 12 36  1  0  0  0  0
 12 37  1  0  0  0  0
 14 15  1  0  0  0  0
 14 38  1  0  0  0  0
 14 39  1  0  0  0  0
 15 40  1  0  0  0  0
 15 41  1  0  0  0  0
 16 18  1  0  0  0  0
 16 42  1  0  0  0  0
 16 43  1  0  0  0  0
 17 18  1  0  0  0  0
 17 44  1  0  0  0  0
 17 45  1  0  0  0  0
 18 46  1  0  0  0  0
 18 47  1  0  0  0  0
 19 20  1  0  0  0  0
 19 48  1  0  0  0  0
 19 49  1  0  0  0  0
 20 21  2  0  0  0  0
 20 22  1  0  0  0  0
 21 23  1  0  0  0  0
 21 50  1  0  0  0  0
 22 24  2  0  0  0  0
 22 51  1  0  0  0  0
 23 25  2  0  0  0  0
 24 25  1  0  0  0  0
 24 52  1  0  0  0  0
 26 27  1  0  0  0  0
 26 53  1  0  0  0  0
 26 54  1  0  0  0  0
 27 55  1  0  0  0  0
 27 56  1  0  0  0  0
M  END
> <PUBCHEM_COMPOUND_CID>
75537134

> <PUBCHEM_CONFORMER_RMSD>
0.8

> <PUBCHEM_CONFORMER_DIVERSEORDER>
1
91
82
63
8
35
66
11
78
84
50
20
19
97
76
64
86
68
90
93
69
36
31
43
54
89
83
74
28
41
13
52
30
88
79
87
47
67
49
58
60
16
14
23
44
96
77
29
18
48
94
42
39
32
6
25
46
53
17
40
56
51
57
10
73
71
80
9
22
62
21
70
75
72
4
81
26
85
3
65
95
27
2
24
12
61
45
15
59
37
33
38
5
7
92
34
55

> <PUBCHEM_MMFF94_PARTIAL_CHARGES>
25
1 -0.57
10 0.27
13 0.69
14 0.3
15 0.27
19 0.41
2 -0.36
20 -0.14
21 -0.15
22 -0.15
23 0.08
24 -0.15
25 0.08
26 0.28
27 0.28
3 -0.36
4 -0.66
5 -0.66
50 0.15
51 0.15
52 0.15
6 -0.81
7 0.3
8 0.3
9 0.3

> <PUBCHEM_EFFECTIVE_ROTOR_COUNT>
6.2

> <PUBCHEM_PHARMACOPHORE_FEATURES>
9
1 1 acceptor
1 2 acceptor
1 3 acceptor
1 6 cation
5 4 5 7 9 13 rings
6 2 3 23 25 26 27 rings
6 20 21 22 23 24 25 rings
6 5 6 7 10 14 15 rings
6 8 11 12 16 17 18 rings

> <PUBCHEM_HEAVY_ATOM_COUNT>
27

> <PUBCHEM_ATOM_DEF_STEREO_COUNT>
1

> <PUBCHEM_ATOM_UDEF_STEREO_COUNT>
0

> <PUBCHEM_BOND_DEF_STEREO_COUNT>
0

> <PUBCHEM_BOND_UDEF_STEREO_COUNT>
0

> <PUBCHEM_ISOTOPIC_ATOM_COUNT>
0

> <PUBCHEM_COMPONENT_COUNT>
1

> <PUBCHEM_CACTVS_TAUTO_COUNT>
1

> <PUBCHEM_CONFORMER_ID>
04809AEE00000001

> <PUBCHEM_MMFF94_ENERGY>
64.0447

> <PUBCHEM_FEATURE_SELFOVERLAP>
45.811

> <PUBCHEM_SHAPE_FINGERPRINT>
10050765 1 18411139113007882272
10074138 170 16986892137832211161
10883706 89 12390688355693959646
11135609 99 18411696604458076238
11273773 46 18409446956697163407
11578821 258 9076532792977728886
117089 54 18055927493952267510
11796584 16 18337668607645897824
11963148 33 18123746727761379734
1200032 147 13901329552212557826
12166972 35 18186805794056475213
12422481 6 17203328862712650398
13533116 47 18340206396452027752
13540713 5 18269578111570033704
1361 4 18265897045882883835
13782708 43 18187361060698739839
14211702 104 18412262835280993930
14251740 57 18341893004866773504
14347332 77 18409730664550127755
14848178 5 18342173345507998136
14866123 147 18341337691793037753
14910302 57 18040703797381247229
14931854 50 18040987441685979939
14951699 99 10303813206720226459
15001296 14 18188765188059925803
15064986 266 18187656808284317641
15183329 4 16081368518812156642
15188451 53 17988354888692898514
15510800 12 18130512941877092919
15519825 34 14548159026933965807
15728490 51 18412820301405223034
17138139 8 17967814916908017914
17492 89 18411703213732145545
17857418 61 18261674762428664914
18222031 100 18338517439861191856
18393751 57 10303825293823749269
19841028 212 18340768256133225955
19958102 18 17895466007986354623
20028762 73 18343301440460387294
20058555 10 9223236247586204559
20691028 202 8646775490934955775
21033650 10 16878218663348075661
21424621 283 9006761095695514958
21585480 29 17272544348179621286
22393880 68 18113609080513694361
229767 8 18046073911241273347
23522609 53 18051168910099805864
23559900 14 18263072375184285745
23569943 247 18341330085601628883
25122255 55 18412548695276992775
270888 7 8574712394869302647
2748736 6 9079113319678321482
3004659 81 18260547818274985460
312425 54 17416409757904821946
32027 91 18341607183530800211
4280585 95 18335415712557406280
439807 62 18334858359753551571
44062 13 18334574621086463461
46194498 28 17678453276261581693
465052 167 18272373053695972694
5104073 3 18131637780895416977
559249 180 18341611465671567193
5718773 13 18341888628306167951
59682541 52 14346071976519518034
6034566 193 11241965997779133881
6058803 2 18197242349685767241
6712543 237 16056883516164606743
7970288 3 18410572843033697914
960060 61 16877948209393881616

> <PUBCHEM_SHAPE_MULTIPOLES>
523.1
18.22
3.91
1.15
0.59
0.32
0.01
-19.73
-2.39
0.69
0.28
0.31
-0.34
-0.16

> <PUBCHEM_SHAPE_SELFOVERLAP>
1122.578

> <PUBCHEM_SHAPE_VOLUME>
287.7

> <PUBCHEM_COORDINATE_TYPE>
2
5
10

$$$$
