26743096
  -OEChem-12032416193D

 54 57  0     1  0  0  0  0  0999 V2000
   -5.8186   -0.7592   -0.2095 S   0  0  0  0  0  0  0  0  0  0  0  0
    4.8763   -1.0545   -1.2794 O   0  0  0  0  0  0  0  0  0  0  0  0
   -3.1507   -2.7286   -0.6056 O   0  0  0  0  0  0  0  0  0  0  0  0
    5.3346   -0.2847    0.8622 N   0  0  0  0  0  0  0  0  0  0  0  0
    0.5499    2.0219   -0.4966 N   0  0  0  0  0  0  0  0  0  0  0  0
   -1.7766   -2.7087   -0.8117 N   0  0  0  0  0  0  0  0  0  0  0  0
    2.0964   -0.4577   -0.9051 C   0  0  1  0  0  0  0  0  0  0  0  0
    0.5996   -0.4607   -0.5127 C   0  0  2  0  0  0  0  0  0  0  0  0
    6.7591   -0.2011    0.7121 C   0  0  0  0  0  0  0  0  0  0  0  0
    2.4270    0.8672   -1.6124 C   0  0  0  0  0  0  0  0  0  0  0  0
    7.4053    1.0067    0.0995 C   0  0  0  0  0  0  0  0  0  0  0  0
    7.5772    0.7252    1.5633 C   0  0  0  0  0  0  0  0  0  0  0  0
    3.0500   -0.7011    0.2707 C   0  0  0  0  0  0  0  0  0  0  0  0
    0.2113    0.8135    0.2561 C   0  0  0  0  0  0  0  0  0  0  0  0
    1.9761    2.0860   -0.8086 C   0  0  0  0  0  0  0  0  0  0  0  0
    0.1882   -1.7075    0.2715 C   0  0  0  0  0  0  0  0  0  0  0  0
    4.5003   -0.7109   -0.1617 C   0  0  0  0  0  0  0  0  0  0  0  0
   -1.2900   -1.9512    0.1754 C   0  0  0  0  0  0  0  0  0  0  0  0
   -2.2999   -1.4704    1.0266 C   0  0  0  0  0  0  0  0  0  0  0  0
   -3.4500   -1.9877    0.4918 C   0  0  0  0  0  0  0  0  0  0  0  0
   -4.8692   -1.9008    0.8566 C   0  0  0  0  0  0  0  0  0  0  0  0
   -4.8810    0.7495   -0.0151 C   0  0  0  0  0  0  0  0  0  0  0  0
   -4.7308    1.3197    1.2489 C   0  0  0  0  0  0  0  0  0  0  0  0
   -4.2996    1.3573   -1.1278 C   0  0  0  0  0  0  0  0  0  0  0  0
   -3.9991    2.4977    1.4004 C   0  0  0  0  0  0  0  0  0  0  0  0
   -3.5679    2.5351   -0.9765 C   0  0  0  0  0  0  0  0  0  0  0  0
   -3.4178    3.1053    0.2876 C   0  0  0  0  0  0  0  0  0  0  0  0
    2.2534   -1.2665   -1.6325 H   0  0  0  0  0  0  0  0  0  0  0  0
    0.0369   -0.4507   -1.4595 H   0  0  0  0  0  0  0  0  0  0  0  0
    7.2066   -1.1650    0.4897 H   0  0  0  0  0  0  0  0  0  0  0  0
    1.9078    0.8789   -2.5811 H   0  0  0  0  0  0  0  0  0  0  0  0
    3.4902    0.9646   -1.8510 H   0  0  0  0  0  0  0  0  0  0  0  0
    6.7764    1.8426   -0.1816 H   0  0  0  0  0  0  0  0  0  0  0  0
    8.2577    0.8480   -0.5494 H   0  0  0  0  0  0  0  0  0  0  0  0
    8.5464    0.3782    1.9000 H   0  0  0  0  0  0  0  0  0  0  0  0
    7.0644    1.3735    2.2633 H   0  0  0  0  0  0  0  0  0  0  0  0
    2.8991    0.0492    1.0542 H   0  0  0  0  0  0  0  0  0  0  0  0
    2.8587   -1.6806    0.7240 H   0  0  0  0  0  0  0  0  0  0  0  0
   -0.8685    0.8383    0.4285 H   0  0  0  0  0  0  0  0  0  0  0  0
    0.6876    0.8413    1.2435 H   0  0  0  0  0  0  0  0  0  0  0  0
    2.5636    2.1862    0.1114 H   0  0  0  0  0  0  0  0  0  0  0  0
    2.1625    2.9892   -1.4003 H   0  0  0  0  0  0  0  0  0  0  0  0
    0.4772   -1.6250    1.3265 H   0  0  0  0  0  0  0  0  0  0  0  0
    0.7068   -2.5893   -0.1274 H   0  0  0  0  0  0  0  0  0  0  0  0
    4.9436   -0.0341    1.7664 H   0  0  0  0  0  0  0  0  0  0  0  0
    0.2853    2.8431    0.0467 H   0  0  0  0  0  0  0  0  0  0  0  0
   -2.2075   -0.8441    1.9017 H   0  0  0  0  0  0  0  0  0  0  0  0
   -5.3351   -2.8888    0.7753 H   0  0  0  0  0  0  0  0  0  0  0  0
   -4.9816   -1.5887    1.9003 H   0  0  0  0  0  0  0  0  0  0  0  0
   -5.1808    0.8681    2.1294 H   0  0  0  0  0  0  0  0  0  0  0  0
   -4.4046    0.9265   -2.1205 H   0  0  0  0  0  0  0  0  0  0  0  0
   -3.8826    2.9421    2.3844 H   0  0  0  0  0  0  0  0  0  0  0  0
   -3.1134    3.0074   -1.8424 H   0  0  0  0  0  0  0  0  0  0  0  0
   -2.8467    4.0216    0.4055 H   0  0  0  0  0  0  0  0  0  0  0  0
  1 21  1  0  0  0  0
  1 22  1  0  0  0  0
  2 17  2  0  0  0  0
  3  6  1  0  0  0  0
  3 20  1  0  0  0  0
  4  9  1  0  0  0  0
  4 17  1  0  0  0  0
  4 45  1  0  0  0  0
  5 14  1  0  0  0  0
  5 15  1  0  0  0  0
  5 46  1  0  0  0  0
  6 18  2  0  0  0  0
  7  8  1  0  0  0  0
  7 10  1  0  0  0  0
  7 13  1  0  0  0  0
  7 28  1  0  0  0  0
  8 14  1  0  0  0  0
  8 16  1  0  0  0  0
  8 29  1  0  0  0  0
  9 11  1  0  0  0  0
  9 12  1  0  0  0  0
  9 30  1  0  0  0  0
 10 15  1  0  0  0  0
 10 31  1  0  0  0  0
 10 32  1  0  0  0  0
 11 12  1  0  0  0  0
 11 33  1  0  0  0  0
 11 34  1  0  0  0  0
 12 35  1  0  0  0  0
 12 36  1  0  0  0  0
 13 17  1  0  0  0  0
 13 37  1  0  0  0  0
 13 38  1  0  0  0  0
 14 39  1  0  0  0  0
 14 40  1  0  0  0  0
 15 41  1  0  0  0  0
 15 42  1  0  0  0  0
 16 18  1  0  0  0  0
 16 43  1  0  0  0  0
 16 44  1  0  0  0  0
 18 19  1  0  0  0  0
 19 20  2  0  0  0  0
 19 47  1  0  0  0  0
 20 21  1  0  0  0  0
 21 48  1  0  0  0  0
 21 49  1  0  0  0  0
 22 23  2  0  0  0  0
 22 24  1  0  0  0  0
 23 25  1  0  0  0  0
 23 50  1  0  0  0  0
 24 26  2  0  0  0  0
 24 51  1  0  0  0  0
 25 27  2  0  0  0  0
 25 52  1  0  0  0  0
 26 27  1  0  0  0  0
 26 53  1  0  0  0  0
 27 54  1  0  0  0  0
M  END
> <PUBCHEM_COMPOUND_CID>
26743096

> <PUBCHEM_CONFORMER_RMSD>
1.2

> <PUBCHEM_CONFORMER_DIVERSEORDER>
1
144
117
143
39
9
122
128
89
150
42
121
4
126
48
14
124
74
50
71
60
127
93
139
99
11
73
29
86
66
21
140
25
33
138
22
38
54
123
147
5
94
153
118
36
114
80
10
104
12
98
151
84
152
145
51
57
20
142
109
148
41
120
69
64
110
130
75
119
134
6
108
40
95
43
58
102
13
146
31
92
76
15
32
18
132
68
37
26
49
30
149
23
81
2
79
111
61
133
107
16
135
19
28
47
45
131
87
90
96
100
46
101
136
82
8
113
35
70
125
129
65
72
106
105
24
17
103
67
97
44
88
116
7
55
137
3
78
63
83
115
34
141
77
112
91
56
85
62
59
53
52
27

> <PUBCHEM_MMFF94_PARTIAL_CHARGES>
37
1 -0.33
11 -0.2
12 -0.2
13 0.06
14 0.27
15 0.27
16 0.18
17 0.57
18 0.11
19 -0.15
2 -0.57
20 -0.04
21 0.41
22 0.1
23 -0.15
24 -0.15
25 -0.15
26 -0.15
27 -0.15
3 -0.02
30 0.1
33 0.1
34 0.1
35 0.1
36 0.1
4 -0.58
45 0.37
46 0.36
47 0.15
5 -0.9
50 0.15
51 0.15
52 0.15
53 0.15
54 0.15
6 -0.41
9 0.05

> <PUBCHEM_EFFECTIVE_ROTOR_COUNT>
10.8

> <PUBCHEM_PHARMACOPHORE_FEATURES>
8
1 2 acceptor
1 4 donor
1 5 cation
1 5 donor
1 6 acceptor
5 3 6 18 19 20 rings
6 22 23 24 25 26 27 rings
6 5 7 8 10 14 15 rings

> <PUBCHEM_HEAVY_ATOM_COUNT>
27

> <PUBCHEM_ATOM_DEF_STEREO_COUNT>
2

> <PUBCHEM_ATOM_UDEF_STEREO_COUNT>
0

> <PUBCHEM_BOND_DEF_STEREO_COUNT>
0

> <PUBCHEM_BOND_UDEF_STEREO_COUNT>
0

> <PUBCHEM_ISOTOPIC_ATOM_COUNT>
0

> <PUBCHEM_COMPONENT_COUNT>
1

> <PUBCHEM_CACTVS_TAUTO_COUNT>
2

> <PUBCHEM_CONFORMER_ID>
0198113800000001

> <PUBCHEM_MMFF94_ENERGY>
43.4295

> <PUBCHEM_FEATURE_SELFOVERLAP>
40.596

> <PUBCHEM_SHAPE_FINGERPRINT>
100830 39 18410290294378109680
10087517 78 18410852170278288557
10838868 229 17903342720789820754
10906281 52 18041857194164577694
10939801 23 18335984285419447044
11135609 187 17975688399959632861
12104220 1 18342454799268952312
12422481 6 17750510663987844606
12838862 33 18335692794690369653
13403585 85 18413106177736721706
13560911 43 17967813877531225721
13590594 115 16370723725539731100
14251751 93 18260833661919192901
14466204 15 18334575724455059218
15021287 119 17095245817430260428
15119646 57 16127825037312526601
15183329 4 18040724666585075590
18336668 15 18113056043091987861
21033648 29 17846767503814588186
21236236 1 18409727365498312175
21792961 116 17561087978640744642
25147074 1 18041290962639878004
32027 91 17771643252020914142
350125 39 18408891745905251737
373842 8 18199743807964699864
4325135 7 12175628390325901435
445580 37 18412272744297943028
552612 73 18200583830806275200
6299153 45 18040997358438113620
6328613 192 18335706087371226292
7226269 152 18271804584039987656

> <PUBCHEM_SHAPE_MULTIPOLES>
532.82
17.52
3.2
1.3
28.73
0.53
0.04
3.07
5.24
-5.11
-0.06
0.32
0.35
0.04

> <PUBCHEM_SHAPE_SELFOVERLAP>
1102.428

> <PUBCHEM_SHAPE_VOLUME>
305.8

> <PUBCHEM_COORDINATE_TYPE>
2
5
10

$$$$
