51137298
  -OEChem-12032416243D

 41 44  0     1  0  0  0  0  0999 V2000
   -4.7238   -1.3493   -1.4317 F   0  0  0  0  0  0  0  0  0  0  0  0
    2.0956   -0.4806    0.1876 O   0  0  0  0  0  0  0  0  0  0  0  0
   -1.9541   -0.4997   -0.0495 N   0  0  1  0  0  0  0  0  0  0  0  0
    2.3326   -2.7048    0.1517 N   0  0  0  0  0  0  0  0  0  0  0  0
    3.5854   -2.1393    0.0045 N   0  0  0  0  0  0  0  0  0  0  0  0
    6.1701    2.3386   -0.2897 N   0  0  0  0  0  0  0  0  0  0  0  0
   -0.0061   -1.7127    0.4336 C   0  0  1  0  0  0  0  0  0  0  0  0
   -0.5111   -1.0200    1.7112 C   0  0  0  0  0  0  0  0  0  0  0  0
   -0.7506   -1.0099   -0.7096 C   0  0  0  0  0  0  0  0  0  0  0  0
   -1.4832    0.0464    1.2233 C   0  0  0  0  0  0  0  0  0  0  0  0
   -2.6506    0.4928   -0.8545 C   0  0  0  0  0  0  0  0  0  0  0  0
    1.4945   -1.7000    0.2551 C   0  0  0  0  0  0  0  0  0  0  0  0
   -4.0726    0.6866   -0.3991 C   0  0  0  0  0  0  0  0  0  0  0  0
   -5.0450   -0.2608   -0.7186 C   0  0  0  0  0  0  0  0  0  0  0  0
   -4.4165    1.8159    0.3437 C   0  0  0  0  0  0  0  0  0  0  0  0
    3.3989   -0.8403    0.0310 C   0  0  0  0  0  0  0  0  0  0  0  0
   -6.3616   -0.0790   -0.2953 C   0  0  0  0  0  0  0  0  0  0  0  0
   -5.7332    1.9979    0.7670 C   0  0  0  0  0  0  0  0  0  0  0  0
    4.3387    0.2376   -0.0770 C   0  0  0  0  0  0  0  0  0  0  0  0
   -6.7057    1.0504    0.4476 C   0  0  0  0  0  0  0  0  0  0  0  0
    5.6933   -0.0309   -0.2387 C   0  0  0  0  0  0  0  0  0  0  0  0
    3.8987    1.5555   -0.0216 C   0  0  0  0  0  0  0  0  0  0  0  0
    6.5603    1.0451   -0.3392 C   0  0  0  0  0  0  0  0  0  0  0  0
    4.8459    2.5607   -0.1319 C   0  0  0  0  0  0  0  0  0  0  0  0
   -0.3236   -2.7641    0.4719 H   0  0  0  0  0  0  0  0  0  0  0  0
   -1.0390   -1.7517    2.3357 H   0  0  0  0  0  0  0  0  0  0  0  0
    0.2897   -0.5833    2.3172 H   0  0  0  0  0  0  0  0  0  0  0  0
   -0.1545   -0.1942   -1.1397 H   0  0  0  0  0  0  0  0  0  0  0  0
   -0.9970   -1.7130   -1.5128 H   0  0  0  0  0  0  0  0  0  0  0  0
   -0.9498    0.9966    1.0901 H   0  0  0  0  0  0  0  0  0  0  0  0
   -2.2935    0.1972    1.9435 H   0  0  0  0  0  0  0  0  0  0  0  0
   -2.1138    1.4508   -0.8847 H   0  0  0  0  0  0  0  0  0  0  0  0
   -2.6958    0.1590   -1.9009 H   0  0  0  0  0  0  0  0  0  0  0  0
   -3.6684    2.5610    0.6009 H   0  0  0  0  0  0  0  0  0  0  0  0
   -7.1185   -0.8169   -0.5441 H   0  0  0  0  0  0  0  0  0  0  0  0
   -6.0010    2.8770    1.3458 H   0  0  0  0  0  0  0  0  0  0  0  0
   -7.7308    1.1919    0.7773 H   0  0  0  0  0  0  0  0  0  0  0  0
    6.0807   -1.0435   -0.2873 H   0  0  0  0  0  0  0  0  0  0  0  0
    2.8554    1.8265    0.1028 H   0  0  0  0  0  0  0  0  0  0  0  0
    7.6266    0.8894   -0.4664 H   0  0  0  0  0  0  0  0  0  0  0  0
    4.5546    3.6052   -0.0949 H   0  0  0  0  0  0  0  0  0  0  0  0
  1 14  1  0  0  0  0
  2 12  1  0  0  0  0
  2 16  1  0  0  0  0
  3  9  1  0  0  0  0
  3 10  1  0  0  0  0
  3 11  1  0  0  0  0
  4  5  1  0  0  0  0
  4 12  2  0  0  0  0
  5 16  2  0  0  0  0
  6 23  2  0  0  0  0
  6 24  1  0  0  0  0
  7  8  1  0  0  0  0
  7  9  1  0  0  0  0
  7 12  1  0  0  0  0
  7 25  1  0  0  0  0
  8 10  1  0  0  0  0
  8 26  1  0  0  0  0
  8 27  1  0  0  0  0
  9 28  1  0  0  0  0
  9 29  1  0  0  0  0
 10 30  1  0  0  0  0
 10 31  1  0  0  0  0
 11 13  1  0  0  0  0
 11 32  1  0  0  0  0
 11 33  1  0  0  0  0
 13 14  1  0  0  0  0
 13 15  2  0  0  0  0
 14 17  2  0  0  0  0
 15 18  1  0  0  0  0
 15 34  1  0  0  0  0
 16 19  1  0  0  0  0
 17 20  1  0  0  0  0
 17 35  1  0  0  0  0
 18 20  2  0  0  0  0
 18 36  1  0  0  0  0
 19 21  2  0  0  0  0
 19 22  1  0  0  0  0
 20 37  1  0  0  0  0
 21 23  1  0  0  0  0
 21 38  1  0  0  0  0
 22 24  2  0  0  0  0
 22 39  1  0  0  0  0
 23 40  1  0  0  0  0
 24 41  1  0  0  0  0
M  END
> <PUBCHEM_COMPOUND_CID>
51137298

> <PUBCHEM_CONFORMER_RMSD>
0.8

> <PUBCHEM_CONFORMER_DIVERSEORDER>
1
48
68
18
93
78
70
92
81
51
34
8
37
88
91
59
82
14
60
95
28
53
44
52
2
9
65
83
64
71
67
21
40
75
31
62
43
15
79
85
4
73
72
98
11
7
3
86
12
20
47
87
25
56
45
54
66
19
6
97
57
69
38
99
76
77
13
63
23
27
16
29
33
39
5
58
17
10
42
41
80
84
61
50
32
94
74
26
49
46
24
96
89
22
35
36
90
30
55

> <PUBCHEM_MMFF94_PARTIAL_CHARGES>
31
1 -0.19
10 0.27
11 0.41
12 0.3
13 -0.14
14 0.19
15 -0.15
16 0.43
17 -0.15
18 -0.15
19 0.05
2 -0.28
20 -0.15
21 -0.15
22 -0.15
23 0.16
24 0.16
3 -0.81
34 0.15
35 0.15
36 0.15
37 0.15
38 0.15
39 0.15
4 -0.34
40 0.15
41 0.15
5 -0.34
6 -0.62
7 0.18
9 0.27

> <PUBCHEM_EFFECTIVE_ROTOR_COUNT>
5

> <PUBCHEM_PHARMACOPHORE_FEATURES>
6
1 3 cation
1 6 acceptor
5 2 4 5 12 16 rings
5 3 7 8 9 10 rings
6 13 14 15 17 18 20 rings
6 6 19 21 22 23 24 rings

> <PUBCHEM_HEAVY_ATOM_COUNT>
24

> <PUBCHEM_ATOM_DEF_STEREO_COUNT>
1

> <PUBCHEM_ATOM_UDEF_STEREO_COUNT>
0

> <PUBCHEM_BOND_DEF_STEREO_COUNT>
0

> <PUBCHEM_BOND_UDEF_STEREO_COUNT>
0

> <PUBCHEM_ISOTOPIC_ATOM_COUNT>
0

> <PUBCHEM_COMPONENT_COUNT>
1

> <PUBCHEM_CACTVS_TAUTO_COUNT>
1

> <PUBCHEM_CONFORMER_ID>
030C4B1200000001

> <PUBCHEM_MMFF94_ENERGY>
49.4855

> <PUBCHEM_FEATURE_SELFOVERLAP>
30.448

> <PUBCHEM_SHAPE_FINGERPRINT>
10 15 15140968374058488142
10074138 170 16081661104837231371
10411042 1 17832423095574878298
10595046 47 18341609300765262079
11646440 116 17458067062036054820
12236239 1 18130786737362230183
12403259 415 17604427384236247951
12633257 1 16009312119070107542
12730499 353 18261117348414255850
12760667 363 10447934970517249167
12788726 201 17203052876619884337
12821665 9 18340204215157248047
12839892 36 13118001085247025081
12895836 83 17775560974504412575
13167372 99 18340486677670611488
13402501 40 18186516622799596028
13533116 47 17168135681788611394
13685833 64 10592043565670697100
13690498 29 17416393476180065191
13955234 65 17896596189701610458
14461889 52 17676778646969079899
14528608 73 18341892999996819030
14681490 219 18413389813093421744
14856354 85 17203610407057579735
14931854 50 17916600842413582168
14933364 13 18413110545913757357
15003188 100 18409451423067414820
15183329 4 17846501430427297625
15419008 145 18116421558697295616
15475509 8 14189584022503169211
15840311 113 18265623083273440117
15961568 22 18333733498390505829
17844677 252 18268434525498399431
17980427 23 17241053230984269846
19489759 90 12396301444295264671
20157964 124 18410013213126536466
20567600 254 17530676615189807603
21033648 144 18186514402317120495
21033648 29 18263640844233927912
21298829 104 18411983602710312952
21307412 95 13039187026421479781
21315764 119 16630536106874650940
21521721 280 18408610241059300267
21585482 111 18190181196018089893
21641784 216 16558757763062481913
22061861 79 11671777152912149697
23522609 53 17774455901769961337
2838139 119 18334289868796400924
2916195 48 17967531246970714597
3004659 81 17774158985900875086
335352 9 18409452484578438838
3472631 163 18343024415021478244
34797466 226 18130512950893905359
4072396 5 13623532333831701747
4073 2 18187652426484350371
4325135 7 18413387636045227143
445580 126 18411410714207311304
46194498 28 18057892346773183286
465052 167 8646765612425292088
5104073 3 16444463465210354553
513532 50 18342752788705438718
53794403 172 18117282660558416956
5385378 56 18261106353972925546
543368 44 18410854365718778813
59682541 35 17749117707921148289
59682541 52 17560255643637324398
59755656 520 17822005432584490858
6328613 192 18271526391299382577
7970288 3 9367082038392030804

> <PUBCHEM_SHAPE_MULTIPOLES>
460.84
18.45
2.49
1
2.86
0.21
-0.16
11.63
2.13
-2.58
-0.15
0.92
-0.18
-1.15

> <PUBCHEM_SHAPE_SELFOVERLAP>
1008.871

> <PUBCHEM_SHAPE_VOLUME>
252.1

> <PUBCHEM_COORDINATE_TYPE>
2
5
10

$$$$
