75536730
  -OEChem-12032416303D

 51 52  0     1  0  0  0  0  0999 V2000
    3.7237    0.4799    0.7169 O   0  0  0  0  0  0  0  0  0  0  0  0
    4.2306   -2.5498   -0.1956 O   0  0  0  0  0  0  0  0  0  0  0  0
    2.0765    2.8383   -0.0796 O   0  0  0  0  0  0  0  0  0  0  0  0
   -5.1373   -0.4346   -0.6332 O   0  0  0  0  0  0  0  0  0  0  0  0
    1.0439   -1.0235    0.6718 N   0  0  0  0  0  0  0  0  0  0  0  0
    1.7991    0.8901   -1.3140 N   0  0  0  0  0  0  0  0  0  0  0  0
   -0.0422    1.9561   -0.4202 N   0  0  0  0  0  0  0  0  0  0  0  0
    2.4113   -1.4812    0.9090 C   0  0  1  0  0  0  0  0  0  0  0  0
    3.2029   -1.5741   -0.3836 C   0  0  1  0  0  0  0  0  0  0  0  0
    3.8459   -0.1975   -0.5477 C   0  0  1  0  0  0  0  0  0  0  0  0
    3.2010   -0.4387    1.6838 C   0  0  0  0  0  0  0  0  0  0  0  0
    3.1828    0.6598   -1.6150 C   0  0  0  0  0  0  0  0  0  0  0  0
    0.1629   -2.1423    0.3587 C   0  0  0  0  0  0  0  0  0  0  0  0
   -1.2481   -1.6880    0.0951 C   0  0  0  0  0  0  0  0  0  0  0  0
    1.3432    1.9749   -0.5595 C   0  0  0  0  0  0  0  0  0  0  0  0
   -2.0756   -1.3280    1.1588 C   0  0  0  0  0  0  0  0  0  0  0  0
   -1.7277   -1.6270   -1.2132 C   0  0  0  0  0  0  0  0  0  0  0  0
   -0.7685    2.9650    0.3145 C   0  0  0  0  0  0  0  0  0  0  0  0
   -3.3827   -0.9070    0.9142 C   0  0  0  0  0  0  0  0  0  0  0  0
   -3.0349   -1.2062   -1.4580 C   0  0  0  0  0  0  0  0  0  0  0  0
   -3.8623   -0.8462   -0.3944 C   0  0  0  0  0  0  0  0  0  0  0  0
   -2.1485    3.1802   -0.2945 C   0  0  0  0  0  0  0  0  0  0  0  0
   -0.8680    2.5803    1.7849 C   0  0  0  0  0  0  0  0  0  0  0  0
   -5.9282   -0.0804    0.5006 C   0  0  0  0  0  0  0  0  0  0  0  0
    2.4086   -2.4132    1.4875 H   0  0  0  0  0  0  0  0  0  0  0  0
    2.6227   -1.8981   -1.2531 H   0  0  0  0  0  0  0  0  0  0  0  0
    4.9153   -0.2808   -0.7736 H   0  0  0  0  0  0  0  0  0  0  0  0
    2.6164    0.1069    2.4312 H   0  0  0  0  0  0  0  0  0  0  0  0
    4.0533   -0.8991    2.1974 H   0  0  0  0  0  0  0  0  0  0  0  0
    3.2372    0.1749   -2.5948 H   0  0  0  0  0  0  0  0  0  0  0  0
    3.6875    1.6301   -1.6798 H   0  0  0  0  0  0  0  0  0  0  0  0
    0.6937   -0.5583    1.5096 H   0  0  0  0  0  0  0  0  0  0  0  0
    0.1425   -2.8630    1.1870 H   0  0  0  0  0  0  0  0  0  0  0  0
    0.5328   -2.6913   -0.5159 H   0  0  0  0  0  0  0  0  0  0  0  0
    4.7544   -2.5807   -1.0144 H   0  0  0  0  0  0  0  0  0  0  0  0
    1.1152    0.2242   -1.6606 H   0  0  0  0  0  0  0  0  0  0  0  0
   -1.7121   -1.3713    2.1822 H   0  0  0  0  0  0  0  0  0  0  0  0
   -1.0929   -1.9007   -2.0518 H   0  0  0  0  0  0  0  0  0  0  0  0
   -0.5541    1.1620   -0.7921 H   0  0  0  0  0  0  0  0  0  0  0  0
   -0.2102    3.9062    0.2434 H   0  0  0  0  0  0  0  0  0  0  0  0
   -3.9704   -0.6410    1.7861 H   0  0  0  0  0  0  0  0  0  0  0  0
   -3.4025   -1.1593   -2.4794 H   0  0  0  0  0  0  0  0  0  0  0  0
   -2.6916    3.9697    0.2351 H   0  0  0  0  0  0  0  0  0  0  0  0
   -2.0666    3.4717   -1.3472 H   0  0  0  0  0  0  0  0  0  0  0  0
   -2.7497    2.2655   -0.2522 H   0  0  0  0  0  0  0  0  0  0  0  0
    0.1268    2.4491    2.2246 H   0  0  0  0  0  0  0  0  0  0  0  0
   -1.3904    3.3540    2.3570 H   0  0  0  0  0  0  0  0  0  0  0  0
   -1.4100    1.6377    1.9139 H   0  0  0  0  0  0  0  0  0  0  0  0
   -6.9117    0.2224    0.1267 H   0  0  0  0  0  0  0  0  0  0  0  0
   -5.5083    0.7815    1.0302 H   0  0  0  0  0  0  0  0  0  0  0  0
   -6.0881   -0.9376    1.1633 H   0  0  0  0  0  0  0  0  0  0  0  0
  1 10  1  0  0  0  0
  1 11  1  0  0  0  0
  2  9  1  0  0  0  0
  2 35  1  0  0  0  0
  3 15  2  0  0  0  0
  4 21  1  0  0  0  0
  4 24  1  0  0  0  0
  5  8  1  0  0  0  0
  5 13  1  0  0  0  0
  5 32  1  0  0  0  0
  6 12  1  0  0  0  0
  6 15  1  0  0  0  0
  6 36  1  0  0  0  0
  7 15  1  0  0  0  0
  7 18  1  0  0  0  0
  7 39  1  0  0  0  0
  8  9  1  0  0  0  0
  8 11  1  0  0  0  0
  8 25  1  0  0  0  0
  9 10  1  0  0  0  0
  9 26  1  0  0  0  0
 10 12  1  0  0  0  0
 10 27  1  0  0  0  0
 11 28  1  0  0  0  0
 11 29  1  0  0  0  0
 12 30  1  0  0  0  0
 12 31  1  0  0  0  0
 13 14  1  0  0  0  0
 13 33  1  0  0  0  0
 13 34  1  0  0  0  0
 14 16  2  0  0  0  0
 14 17  1  0  0  0  0
 16 19  1  0  0  0  0
 16 37  1  0  0  0  0
 17 20  2  0  0  0  0
 17 38  1  0  0  0  0
 18 22  1  0  0  0  0
 18 23  1  0  0  0  0
 18 40  1  0  0  0  0
 19 21  2  0  0  0  0
 19 41  1  0  0  0  0
 20 21  1  0  0  0  0
 20 42  1  0  0  0  0
 22 43  1  0  0  0  0
 22 44  1  0  0  0  0
 22 45  1  0  0  0  0
 23 46  1  0  0  0  0
 23 47  1  0  0  0  0
 23 48  1  0  0  0  0
 24 49  1  0  0  0  0
 24 50  1  0  0  0  0
 24 51  1  0  0  0  0
M  END
> <PUBCHEM_COMPOUND_CID>
75536730

> <PUBCHEM_CONFORMER_RMSD>
1

> <PUBCHEM_CONFORMER_DIVERSEORDER>
3
77
39
63
23
61
9
53
41
76
11
81
26
1
47
79
60
54
82
91
17
34
86
75
48
85
84
43
73
83
29
36
10
25
64
30
37
56
46
55
65
44
31
20
15
24
87
58
42
33
51
13
22
88
59
80
6
27
74
21
89
92
14
70
49
7
35
72
57
32
38
28
52
12
16
8
50
18
66
62
90
2
68
69
4
19
45
71
40
78
5
67

> <PUBCHEM_MMFF94_PARTIAL_CHARGES>
30
1 -0.56
10 0.28
11 0.28
12 0.3
13 0.41
14 -0.14
15 0.69
16 -0.15
17 -0.15
18 0.3
19 -0.15
2 -0.68
20 -0.15
21 0.08
24 0.28
3 -0.57
32 0.36
35 0.4
36 0.37
37 0.15
38 0.15
39 0.37
4 -0.36
41 0.15
42 0.15
5 -0.9
6 -0.73
7 -0.73
8 0.27
9 0.28

> <PUBCHEM_EFFECTIVE_ROTOR_COUNT>
10

> <PUBCHEM_PHARMACOPHORE_FEATURES>
12
1 1 acceptor
1 2 acceptor
1 2 donor
1 3 acceptor
1 4 acceptor
1 5 cation
1 5 donor
1 6 donor
1 7 donor
3 18 22 23 hydrophobe
5 1 8 9 10 11 rings
6 14 16 17 19 20 21 rings

> <PUBCHEM_HEAVY_ATOM_COUNT>
24

> <PUBCHEM_ATOM_DEF_STEREO_COUNT>
3

> <PUBCHEM_ATOM_UDEF_STEREO_COUNT>
0

> <PUBCHEM_BOND_DEF_STEREO_COUNT>
0

> <PUBCHEM_BOND_UDEF_STEREO_COUNT>
0

> <PUBCHEM_ISOTOPIC_ATOM_COUNT>
0

> <PUBCHEM_COMPONENT_COUNT>
1

> <PUBCHEM_CACTVS_TAUTO_COUNT>
3

> <PUBCHEM_CONFORMER_ID>
0480995A00000003

> <PUBCHEM_MMFF94_ENERGY>
52.3739

> <PUBCHEM_FEATURE_SELFOVERLAP>
60.949

> <PUBCHEM_SHAPE_FINGERPRINT>
104564 63 18410295770060361861
11578080 2 17846200142898144640
12422481 6 18125465033171641201
12553582 1 18338527437948932092
12596599 1 17844823657414056743
12788726 201 18341062851475247061
13140716 1 18117271673804700634
14251757 17 17749936817738998349
14464042 87 18343026562663524537
16752209 62 18410297977721031405
17357779 13 18339629079700969834
20261772 1 18194700180117236801
21236236 1 18338518513830051046
21421861 104 18336822086940790312
23419403 2 17466733456437405608
23557571 272 18271800182146674674
238 59 17186426383664700190
2818148 4 17538564310229988650
3014063 31 18409448085619525269
3052486 1 18263072219874165520
338550 245 18189624852008751349
34934 24 18198064887683058860
394222 165 16808419681295151700
6438718 38 18200884958898567253
7164475 11 18339642222643955990
7832392 63 18196090164614976222
81228 2 18337386037668473482
8509985 295 18409166636591635319

> <PUBCHEM_SHAPE_MULTIPOLES>
455.49
9.01
3.51
1.46
5.98
2.98
-0.1
-3.4
0.43
-0.17
-0.23
-0.26
0.07
-0.72

> <PUBCHEM_SHAPE_SELFOVERLAP>
931.781

> <PUBCHEM_SHAPE_VOLUME>
265.1

> <PUBCHEM_COORDINATE_TYPE>
2
5
10

$$$$
