7051280
  -OEChem-12032416223D

 59 63  0     1  0  0  0  0  0999 V2000
    7.1941   -0.1239   -1.4408 Cl  0  0  0  0  0  0  0  0  0  0  0  0
    1.9914    2.1204    1.2124 S   0  0  0  0  0  0  0  0  0  0  0  0
   -0.9865    2.9884    1.5652 O   0  0  0  0  0  0  0  0  0  0  0  0
   -3.1192   -1.9151    1.9123 O   0  0  0  0  0  0  0  0  0  0  0  0
   -1.4783   -3.4311    0.7294 O   0  0  0  0  0  0  0  0  0  0  0  0
    2.3976    3.1178    2.1845 O   0  0  0  0  0  0  0  0  0  0  0  0
    1.1899    0.9832    1.6235 O   0  0  0  0  0  0  0  0  0  0  0  0
   -3.8895   -0.8161    0.0154 N   0  0  0  0  0  0  0  0  0  0  0  0
   -2.3718    1.9964   -0.0433 N   0  0  0  0  0  0  0  0  0  0  0  0
    1.2641    2.8801   -0.1140 N   0  0  0  0  0  0  0  0  0  0  0  0
   -4.8398    1.4660    0.3750 C   0  0  1  0  0  0  0  0  0  0  0  0
   -3.8193    0.8960   -1.7890 C   0  0  2  0  0  0  0  0  0  0  0  0
   -4.9867    1.6302   -1.1328 C   0  0  0  0  0  0  0  0  0  0  0  0
   -4.8689   -0.0232    0.7608 C   0  0  0  0  0  0  0  0  0  0  0  0
   -3.5451    2.1527    0.8254 C   0  0  0  0  0  0  0  0  0  0  0  0
   -3.8898   -0.6035   -1.4396 C   0  0  0  0  0  0  0  0  0  0  0  0
   -2.4887    1.4680   -1.3360 C   0  0  0  0  0  0  0  0  0  0  0  0
   -1.4249    1.4401   -2.1597 C   0  0  0  0  0  0  0  0  0  0  0  0
   -1.1484    2.4986    0.4481 C   0  0  0  0  0  0  0  0  0  0  0  0
   -3.1048   -1.7521    0.6894 C   0  0  0  0  0  0  0  0  0  0  0  0
   -0.0072    2.4191   -0.4979 C   0  0  0  0  0  0  0  0  0  0  0  0
   -0.1424    1.9286   -1.7304 C   0  0  0  0  0  0  0  0  0  0  0  0
   -2.1859   -2.5975   -0.1559 C   0  0  0  0  0  0  0  0  0  0  0  0
    3.4622    1.4861    0.4623 C   0  0  0  0  0  0  0  0  0  0  0  0
   -0.1892   -3.7710    0.3840 C   0  0  0  0  0  0  0  0  0  0  0  0
    4.6027    2.2692    0.4455 C   0  0  0  0  0  0  0  0  0  0  0  0
    3.4437    0.2190   -0.0931 C   0  0  0  0  0  0  0  0  0  0  0  0
    0.1560   -3.8612   -0.9562 C   0  0  0  0  0  0  0  0  0  0  0  0
    0.7411   -4.0182    1.3825 C   0  0  0  0  0  0  0  0  0  0  0  0
    5.7626    1.7687   -0.1461 C   0  0  0  0  0  0  0  0  0  0  0  0
    4.6036   -0.2814   -0.6846 C   0  0  0  0  0  0  0  0  0  0  0  0
    5.7631    0.4935   -0.7112 C   0  0  0  0  0  0  0  0  0  0  0  0
    1.4614   -4.2066   -1.3061 C   0  0  0  0  0  0  0  0  0  0  0  0
    2.0465   -4.3635    1.0327 C   0  0  0  0  0  0  0  0  0  0  0  0
    2.4066   -4.4576   -0.3116 C   0  0  0  0  0  0  0  0  0  0  0  0
   -5.6813    1.9548    0.8814 H   0  0  0  0  0  0  0  0  0  0  0  0
   -3.9167    1.0028   -2.8772 H   0  0  0  0  0  0  0  0  0  0  0  0
   -5.9423    1.2127   -1.4725 H   0  0  0  0  0  0  0  0  0  0  0  0
   -4.9836    2.6923   -1.4085 H   0  0  0  0  0  0  0  0  0  0  0  0
   -4.7192   -0.1368    1.8397 H   0  0  0  0  0  0  0  0  0  0  0  0
   -5.8545   -0.4462    0.5296 H   0  0  0  0  0  0  0  0  0  0  0  0
   -3.2735    1.8358    1.8403 H   0  0  0  0  0  0  0  0  0  0  0  0
   -3.7249    3.2349    0.8861 H   0  0  0  0  0  0  0  0  0  0  0  0
   -3.0782   -1.1436   -1.9321 H   0  0  0  0  0  0  0  0  0  0  0  0
   -4.8262   -1.0320   -1.8186 H   0  0  0  0  0  0  0  0  0  0  0  0
   -1.4917    1.0256   -3.1601 H   0  0  0  0  0  0  0  0  0  0  0  0
    0.6816    1.8659   -2.4331 H   0  0  0  0  0  0  0  0  0  0  0  0
   -2.7755   -3.2037   -0.8505 H   0  0  0  0  0  0  0  0  0  0  0  0
   -1.5167   -1.9087   -0.6854 H   0  0  0  0  0  0  0  0  0  0  0  0
    1.8916    3.0355   -0.9158 H   0  0  0  0  0  0  0  0  0  0  0  0
    4.6199    3.2668    0.8731 H   0  0  0  0  0  0  0  0  0  0  0  0
    2.5491   -0.3963   -0.0891 H   0  0  0  0  0  0  0  0  0  0  0  0
   -0.5585   -3.7007   -1.7577 H   0  0  0  0  0  0  0  0  0  0  0  0
    0.4635   -3.9452    2.4300 H   0  0  0  0  0  0  0  0  0  0  0  0
    6.6584    2.3844   -0.1611 H   0  0  0  0  0  0  0  0  0  0  0  0
    4.5885   -1.2764   -1.1222 H   0  0  0  0  0  0  0  0  0  0  0  0
    1.7409   -4.2857   -2.3527 H   0  0  0  0  0  0  0  0  0  0  0  0
    2.7826   -4.5586    1.8070 H   0  0  0  0  0  0  0  0  0  0  0  0
    3.4230   -4.7269   -0.5839 H   0  0  0  0  0  0  0  0  0  0  0  0
  1 32  1  0  0  0  0
  2  6  2  0  0  0  0
  2  7  2  0  0  0  0
  2 10  1  0  0  0  0
  2 24  1  0  0  0  0
  3 19  2  0  0  0  0
  4 20  2  0  0  0  0
  5 23  1  0  0  0  0
  5 25  1  0  0  0  0
  8 14  1  0  0  0  0
  8 16  1  0  0  0  0
  8 20  1  0  0  0  0
  9 15  1  0  0  0  0
  9 17  1  0  0  0  0
  9 19  1  0  0  0  0
 10 21  1  0  0  0  0
 10 50  1  0  0  0  0
 11 13  1  0  0  0  0
 11 14  1  0  0  0  0
 11 15  1  0  0  0  0
 11 36  1  0  0  0  0
 12 13  1  0  0  0  0
 12 16  1  0  0  0  0
 12 17  1  0  0  0  0
 12 37  1  0  0  0  0
 13 38  1  0  0  0  0
 13 39  1  0  0  0  0
 14 40  1  0  0  0  0
 14 41  1  0  0  0  0
 15 42  1  0  0  0  0
 15 43  1  0  0  0  0
 16 44  1  0  0  0  0
 16 45  1  0  0  0  0
 17 18  2  0  0  0  0
 18 22  1  0  0  0  0
 18 46  1  0  0  0  0
 19 21  1  0  0  0  0
 20 23  1  0  0  0  0
 21 22  2  0  0  0  0
 22 47  1  0  0  0  0
 23 48  1  0  0  0  0
 23 49  1  0  0  0  0
 24 26  2  0  0  0  0
 24 27  1  0  0  0  0
 25 28  2  0  0  0  0
 25 29  1  0  0  0  0
 26 30  1  0  0  0  0
 26 51  1  0  0  0  0
 27 31  2  0  0  0  0
 27 52  1  0  0  0  0
 28 33  1  0  0  0  0
 28 53  1  0  0  0  0
 29 34  2  0  0  0  0
 29 54  1  0  0  0  0
 30 32  2  0  0  0  0
 30 55  1  0  0  0  0
 31 32  1  0  0  0  0
 31 56  1  0  0  0  0
 33 35  2  0  0  0  0
 33 57  1  0  0  0  0
 34 35  1  0  0  0  0
 34 58  1  0  0  0  0
 35 59  1  0  0  0  0
M  END
> <PUBCHEM_COMPOUND_CID>
7051280

> <PUBCHEM_CONFORMER_RMSD>
1

> <PUBCHEM_CONFORMER_DIVERSEORDER>
1
114
40
9
55
29
4
106
32
71
102
52
21
103
119
100
58
65
84
60
130
57
26
43
38
92
105
88
13
12
67
61
48
16
129
72
127
112
25
64
99
51
83
30
7
81
80
118
24
116
109
126
75
53
49
17
63
31
110
23
8
37
18
86
111
96
34
28
20
122
82
2
108
93
128
33
70
47
107
121
95
76
69
3
6
62
35
50
36
79
77
73
54
78
91
44
19
42
10
59
123
97
66
115
124
56
94
117
85
90
14
98
87
11
15
39
74
113
68
125
45
89
22
46
101
41
27
104
5
120

> <PUBCHEM_MMFF94_PARTIAL_CHARGES>
45
1 -0.18
10 -0.75
12 0.14
14 0.3
15 0.3
16 0.3
17 -0.03
18 -0.15
19 0.62
2 1.45
20 0.57
21 0.21
22 -0.15
23 0.34
24 -0.01
25 0.08
26 -0.15
27 -0.15
28 -0.15
29 -0.15
3 -0.57
30 -0.15
31 -0.15
32 0.18
33 -0.15
34 -0.15
35 -0.15
4 -0.57
46 0.15
47 0.15
5 -0.36
50 0.42
51 0.15
52 0.15
53 0.15
54 0.15
55 0.15
56 0.15
57 0.15
58 0.15
59 0.15
6 -0.65
7 -0.65
8 -0.66
9 -0.47

> <PUBCHEM_EFFECTIVE_ROTOR_COUNT>
8

> <PUBCHEM_PHARMACOPHORE_FEATURES>
11
1 10 donor
1 3 acceptor
1 4 acceptor
1 5 acceptor
1 6 acceptor
1 7 acceptor
6 24 26 27 30 31 32 rings
6 25 28 29 33 34 35 rings
6 8 11 12 13 14 16 rings
6 9 11 12 13 15 17 rings
6 9 17 18 19 21 22 rings

> <PUBCHEM_HEAVY_ATOM_COUNT>
35

> <PUBCHEM_ATOM_DEF_STEREO_COUNT>
2

> <PUBCHEM_ATOM_UDEF_STEREO_COUNT>
0

> <PUBCHEM_BOND_DEF_STEREO_COUNT>
0

> <PUBCHEM_BOND_UDEF_STEREO_COUNT>
0

> <PUBCHEM_ISOTOPIC_ATOM_COUNT>
0

> <PUBCHEM_COMPONENT_COUNT>
1

> <PUBCHEM_CACTVS_TAUTO_COUNT>
1

> <PUBCHEM_CONFORMER_ID>
006B981000000001

> <PUBCHEM_MMFF94_ENERGY>
89.6925

> <PUBCHEM_FEATURE_SELFOVERLAP>
57.426

> <PUBCHEM_SHAPE_FINGERPRINT>
10462674 296 16469527275495377966
11285246 1 17694466615168698479
11578080 2 17828198801358800597
13402501 40 18411422846983526494
14251757 5 17975144437475163718
14725015 67 18049443935475031899
14747281 78 16738032984033001685
14930077 153 17606420988703166308
15351339 4 18338516335854559418
15927050 60 18412537709531378279
16067689 134 16467272614284661101
16067689 391 17628104221186574934
16719943 64 18337107968801697626
17627616 140 18265335002130437426
20764821 26 18339343211353010698
20775530 9 16389854471906596875
21133410 230 17896908597217539603
21344244 246 18337091408024801287
3298306 158 18411131424899754194
373842 8 18192986025127900930
463206 1 17690851060349351054
50150288 127 16986333585502683888
5080951 261 17683205365796397624
5085150 59 18341043052678293674
508706 21 18264764552794936662
5265222 85 18262244437837265588
57676310 188 18263092025018595142
86090 222 18410584993321832170

> <PUBCHEM_SHAPE_MULTIPOLES>
681.71
11.95
6.44
1.79
10.76
8.99
0.09
-5.89
3.02
2.75
-1.43
-0.44
-0.42
1.29

> <PUBCHEM_SHAPE_SELFOVERLAP>
1467.362

> <PUBCHEM_SHAPE_VOLUME>
374.2

> <PUBCHEM_COORDINATE_TYPE>
2
5
10

$$$$
