45783500
  -OEChem-12032416203D

 50 53  0     1  0  0  0  0  0999 V2000
   -2.3426   -2.2196    1.2060 O   0  0  0  0  0  0  0  0  0  0  0  0
    7.3502    1.1103    0.2087 O   0  0  0  0  0  0  0  0  0  0  0  0
   -4.2787    0.4721   -0.3790 N   0  0  1  0  0  0  0  0  0  0  0  0
   -1.5148   -0.6298   -0.1373 N   0  0  0  0  0  0  0  0  0  0  0  0
   -0.9493   -2.2930    1.3283 N   0  0  0  0  0  0  0  0  0  0  0  0
    3.1674   -1.5119    0.8229 N   0  0  0  0  0  0  0  0  0  0  0  0
    4.8918   -0.2367   -0.2144 N   0  0  0  0  0  0  0  0  0  0  0  0
   -4.1881    2.7841    0.3867 C   0  0  0  0  0  0  0  0  0  0  0  0
   -2.7630    3.2480    0.3108 C   0  0  0  0  0  0  0  0  0  0  0  0
   -3.6462    3.7171    1.4297 C   0  0  0  0  0  0  0  0  0  0  0  0
   -4.4755    1.3649    0.7557 C   0  0  0  0  0  0  0  0  0  0  0  0
   -4.0459   -0.9309    0.0178 C   0  0  1  0  0  0  0  0  0  0  0  0
   -5.4330    0.4615   -1.2777 C   0  0  0  0  0  0  0  0  0  0  0  0
   -4.5787   -1.7647   -1.1621 C   0  0  0  0  0  0  0  0  0  0  0  0
   -5.1451   -0.7484   -2.1435 C   0  0  0  0  0  0  0  0  0  0  0  0
   -2.5906   -1.2155    0.3247 C   0  0  0  0  0  0  0  0  0  0  0  0
   -0.5328   -1.3248    0.5067 C   0  0  0  0  0  0  0  0  0  0  0  0
    0.8559   -1.0275    0.3059 C   0  0  0  0  0  0  0  0  0  0  0  0
    1.2541   -0.0134   -0.5582 C   0  0  0  0  0  0  0  0  0  0  0  0
    1.8428   -1.7410    0.9667 C   0  0  0  0  0  0  0  0  0  0  0  0
    2.6079    0.2522   -0.7325 C   0  0  0  0  0  0  0  0  0  0  0  0
    3.5164   -0.5186   -0.0253 C   0  0  0  0  0  0  0  0  0  0  0  0
    5.3545    0.7910   -1.0892 C   0  0  0  0  0  0  0  0  0  0  0  0
    6.8734    0.8202   -1.0992 C   0  0  0  0  0  0  0  0  0  0  0  0
    8.7698    1.1545    0.2479 C   0  0  0  0  0  0  0  0  0  0  0  0
   -4.8989    3.1952   -0.3197 H   0  0  0  0  0  0  0  0  0  0  0  0
   -1.9719    2.5490    0.5536 H   0  0  0  0  0  0  0  0  0  0  0  0
   -2.5066    3.9612   -0.4630 H   0  0  0  0  0  0  0  0  0  0  0  0
   -3.9819    4.7469    1.4081 H   0  0  0  0  0  0  0  0  0  0  0  0
   -3.4476    3.3340    2.4229 H   0  0  0  0  0  0  0  0  0  0  0  0
   -5.4885    1.2831    1.1699 H   0  0  0  0  0  0  0  0  0  0  0  0
   -3.7974    1.0760    1.5701 H   0  0  0  0  0  0  0  0  0  0  0  0
   -4.6457   -1.1810    0.9046 H   0  0  0  0  0  0  0  0  0  0  0  0
   -6.3771    0.3190   -0.7368 H   0  0  0  0  0  0  0  0  0  0  0  0
   -5.5024    1.3722   -1.8803 H   0  0  0  0  0  0  0  0  0  0  0  0
   -5.3820   -2.4251   -0.8133 H   0  0  0  0  0  0  0  0  0  0  0  0
   -3.8170   -2.3877   -1.6435 H   0  0  0  0  0  0  0  0  0  0  0  0
   -4.3924   -0.5049   -2.9037 H   0  0  0  0  0  0  0  0  0  0  0  0
   -6.0374   -1.1205   -2.6554 H   0  0  0  0  0  0  0  0  0  0  0  0
    0.5317    0.5853   -1.1071 H   0  0  0  0  0  0  0  0  0  0  0  0
    1.6162   -2.5474    1.6579 H   0  0  0  0  0  0  0  0  0  0  0  0
    2.8832    1.0502   -1.4118 H   0  0  0  0  0  0  0  0  0  0  0  0
    5.5460   -0.8051    0.3114 H   0  0  0  0  0  0  0  0  0  0  0  0
    5.0106    0.6200   -2.1159 H   0  0  0  0  0  0  0  0  0  0  0  0
    4.9917    1.7677   -0.7468 H   0  0  0  0  0  0  0  0  0  0  0  0
    7.2701   -0.1487   -1.4263 H   0  0  0  0  0  0  0  0  0  0  0  0
    7.2193    1.5942   -1.7942 H   0  0  0  0  0  0  0  0  0  0  0  0
    9.1920    0.1862   -0.0380 H   0  0  0  0  0  0  0  0  0  0  0  0
    9.1478    1.9408   -0.4127 H   0  0  0  0  0  0  0  0  0  0  0  0
    9.0790    1.3809    1.2718 H   0  0  0  0  0  0  0  0  0  0  0  0
  1  5  1  0  0  0  0
  1 16  1  0  0  0  0
  2 24  1  0  0  0  0
  2 25  1  0  0  0  0
  3 11  1  0  0  0  0
  3 12  1  0  0  0  0
  3 13  1  0  0  0  0
  4 16  2  0  0  0  0
  4 17  1  0  0  0  0
  5 17  2  0  0  0  0
  6 20  1  0  0  0  0
  6 22  2  0  0  0  0
  7 22  1  0  0  0  0
  7 23  1  0  0  0  0
  7 43  1  0  0  0  0
  8  9  1  0  0  0  0
  8 10  1  0  0  0  0
  8 11  1  0  0  0  0
  8 26  1  0  0  0  0
  9 10  1  0  0  0  0
  9 27  1  0  0  0  0
  9 28  1  0  0  0  0
 10 29  1  0  0  0  0
 10 30  1  0  0  0  0
 11 31  1  0  0  0  0
 11 32  1  0  0  0  0
 12 14  1  0  0  0  0
 12 16  1  0  0  0  0
 12 33  1  0  0  0  0
 13 15  1  0  0  0  0
 13 34  1  0  0  0  0
 13 35  1  0  0  0  0
 14 15  1  0  0  0  0
 14 36  1  0  0  0  0
 14 37  1  0  0  0  0
 15 38  1  0  0  0  0
 15 39  1  0  0  0  0
 17 18  1  0  0  0  0
 18 19  1  0  0  0  0
 18 20  2  0  0  0  0
 19 21  2  0  0  0  0
 19 40  1  0  0  0  0
 20 41  1  0  0  0  0
 21 22  1  0  0  0  0
 21 42  1  0  0  0  0
 23 24  1  0  0  0  0
 23 44  1  0  0  0  0
 23 45  1  0  0  0  0
 24 46  1  0  0  0  0
 24 47  1  0  0  0  0
 25 48  1  0  0  0  0
 25 49  1  0  0  0  0
 25 50  1  0  0  0  0
M  END
> <PUBCHEM_COMPOUND_CID>
45783500

> <PUBCHEM_CONFORMER_RMSD>
1

> <PUBCHEM_CONFORMER_DIVERSEORDER>
1
32
30
40
18
23
4
31
21
47
37
48
38
19
44
36
8
29
34
46
15
16
41
43
35
17
26
42
20
2
6
45
5
13
22
27
25
39
33
11
9
14
28
7
3
10
12
24

> <PUBCHEM_MMFF94_PARTIAL_CHARGES>
32
1 -0.02
10 -0.2
11 0.37
12 0.45
13 0.27
16 0.3
17 0.46
18 0.05
19 -0.15
2 -0.56
20 0.16
21 -0.15
22 0.41
23 0.37
24 0.28
25 0.28
26 0.1
27 0.1
28 0.1
29 0.1
3 -0.81
30 0.1
4 -0.57
40 0.15
41 0.15
42 0.15
43 0.4
5 -0.41
6 -0.62
7 -0.87
8 -0.19
9 -0.2

> <PUBCHEM_EFFECTIVE_ROTOR_COUNT>
9.6

> <PUBCHEM_PHARMACOPHORE_FEATURES>
8
1 2 acceptor
1 3 cation
1 7 donor
3 4 5 17 cation
3 6 7 22 cation
5 1 4 5 16 17 rings
5 3 12 13 14 15 rings
6 6 18 19 20 21 22 rings

> <PUBCHEM_HEAVY_ATOM_COUNT>
25

> <PUBCHEM_ATOM_DEF_STEREO_COUNT>
1

> <PUBCHEM_ATOM_UDEF_STEREO_COUNT>
0

> <PUBCHEM_BOND_DEF_STEREO_COUNT>
0

> <PUBCHEM_BOND_UDEF_STEREO_COUNT>
0

> <PUBCHEM_ISOTOPIC_ATOM_COUNT>
0

> <PUBCHEM_COMPONENT_COUNT>
1

> <PUBCHEM_CACTVS_TAUTO_COUNT>
8

> <PUBCHEM_CONFORMER_ID>
02BA99CC00000001

> <PUBCHEM_MMFF94_ENERGY>
56.9349

> <PUBCHEM_FEATURE_SELFOVERLAP>
40.597

> <PUBCHEM_SHAPE_FINGERPRINT>
10 15 15864073195761540854
10087517 78 18410576175796431468
10291535 26 18409456894744785515
10454371 7 18201726128444572516
10595046 47 18412540985694846951
10670039 82 18411696590955982728
10871710 139 18339078169564778765
10917259 128 18058159528578988984
11036077 4 10737289031016419461
11089746 13 18411135879233949380
11315181 36 18114184189630086132
11477941 20 17917136282547597773
14739800 52 18339063961490866896
14765038 42 18056778537020612873
14931854 50 18338790131540319861
15064981 113 17915163646796295791
15183329 4 18040435478279598318
15289351 153 18411411835911388704
15352257 5 10809333443900508024
155225 5 18268435629190152080
17913733 40 15719393910807366400
21033648 144 17894625933705158455
21033650 10 18129118743973834359
21150785 3 17275103972725694790
21236236 1 18411985736744251484
21756936 100 18410019823423960267
21774942 28 18343025455000026088
235170 7 17060333007665215581
23559900 14 18336260262220957352
2838139 119 18412829114213981540
312425 83 17915468190221739871
328310 18 17489036959042940617
328310 630 17968106364672156700
397830 11 11531059542182296310
4169191 19 18113336419173729222
445580 204 18411139126065960984
445580 37 18337686277858785012
44802255 64 17632579370453924782
5104073 3 17676492726759337658
531348 171 18059861601783798127
54039377 194 11959727204727273748
6009941 240 13190329158659998204
6299153 45 18114460047090254416
636775 72 18412545449147413400
6608658 132 18412536609471020533

> <PUBCHEM_SHAPE_MULTIPOLES>
477.84
18.72
3.16
1.37
39.94
3
-0.31
9.63
-5.35
-5.09
1.48
-1.22
-0.27
-2.07

> <PUBCHEM_SHAPE_SELFOVERLAP>
1005.948

> <PUBCHEM_SHAPE_VOLUME>
271.5

> <PUBCHEM_COORDINATE_TYPE>
2
5
10

$$$$
