28991064
  -OEChem-12032416163D

 68 70  0     1  0  0  0  0  0999 V2000
   -2.0821   -1.7746    2.2019 O   0  0  0  0  0  0  0  0  0  0  0  0
    2.2606   -2.5121    0.9880 N   0  0  2  0  0  0  0  0  0  0  0  0
    4.9655    0.5628   -0.5769 N   0  0  2  0  0  0  0  0  0  0  0  0
   -0.8293   -0.3750    0.8394 N   0  0  0  0  0  0  0  0  0  0  0  0
    3.8626    3.9509    0.5946 N   0  0  0  0  0  0  0  0  0  0  0  0
   -6.8242    1.0940   -0.9515 N   0  0  0  0  0  0  0  0  0  0  0  0
    2.4459   -2.1326   -1.5789 C   0  0  2  0  0  0  0  0  0  0  0  0
    3.6186   -1.4541   -0.8348 C   0  0  2  0  0  0  0  0  0  0  0  0
    0.9819   -1.9639    0.4604 C   0  0  2  0  0  0  0  0  0  0  0  0
    1.1127   -1.5891   -1.0327 C   0  0  0  0  0  0  0  0  0  0  0  0
    3.3801   -1.5875    0.6861 C   0  0  0  0  0  0  0  0  0  0  0  0
    2.5036   -3.6326   -1.2316 C   0  0  0  0  0  0  0  0  0  0  0  0
    2.5249   -3.7984    0.2983 C   0  0  0  0  0  0  0  0  0  0  0  0
    3.8316    0.0009   -1.2459 C   0  0  0  0  0  0  0  0  0  0  0  0
    0.4598   -0.7932    1.2966 C   0  0  0  0  0  0  0  0  0  0  0  0
    4.8892    2.0334   -0.5228 C   0  0  0  0  0  0  0  0  0  0  0  0
    6.2283    0.1661   -1.2244 C   0  0  0  0  0  0  0  0  0  0  0  0
    3.9308    2.4957    0.5649 C   0  0  0  0  0  0  0  0  0  0  0  0
   -2.0185   -0.9066    1.3354 C   0  0  0  0  0  0  0  0  0  0  0  0
   -3.2743   -0.3845    0.7375 C   0  0  0  0  0  0  0  0  0  0  0  0
    3.3223    4.4165    1.8734 C   0  0  0  0  0  0  0  0  0  0  0  0
    3.0469    4.4526   -0.5131 C   0  0  0  0  0  0  0  0  0  0  0  0
   -4.4211   -1.1784    0.7185 C   0  0  0  0  0  0  0  0  0  0  0  0
   -3.3066    0.9004    0.1957 C   0  0  0  0  0  0  0  0  0  0  0  0
   -5.6001   -0.6875    0.1576 C   0  0  0  0  0  0  0  0  0  0  0  0
   -4.4855    1.3915   -0.3651 C   0  0  0  0  0  0  0  0  0  0  0  0
   -5.6322    0.5976   -0.3841 C   0  0  0  0  0  0  0  0  0  0  0  0
   -8.0211    0.2769   -0.9764 C   0  0  0  0  0  0  0  0  0  0  0  0
   -6.8701    2.4307   -1.5102 C   0  0  0  0  0  0  0  0  0  0  0  0
    2.5158   -1.9843   -2.6615 H   0  0  0  0  0  0  0  0  0  0  0  0
    4.5185   -2.0294   -1.0902 H   0  0  0  0  0  0  0  0  0  0  0  0
    0.2266   -2.7598    0.5407 H   0  0  0  0  0  0  0  0  0  0  0  0
    1.0484   -0.5088   -1.1968 H   0  0  0  0  0  0  0  0  0  0  0  0
    0.2812   -2.0380   -1.5911 H   0  0  0  0  0  0  0  0  0  0  0  0
    4.2936   -1.9680    1.1623 H   0  0  0  0  0  0  0  0  0  0  0  0
    3.1989   -0.6200    1.1663 H   0  0  0  0  0  0  0  0  0  0  0  0
    3.3977   -4.0923   -1.6686 H   0  0  0  0  0  0  0  0  0  0  0  0
    1.6333   -4.1486   -1.6550 H   0  0  0  0  0  0  0  0  0  0  0  0
    1.7818   -4.5457    0.6030 H   0  0  0  0  0  0  0  0  0  0  0  0
    3.4936   -4.2004    0.6217 H   0  0  0  0  0  0  0  0  0  0  0  0
    2.9179    0.5549   -1.0108 H   0  0  0  0  0  0  0  0  0  0  0  0
    3.9328    0.0710   -2.3376 H   0  0  0  0  0  0  0  0  0  0  0  0
    1.1143    0.0817    1.2299 H   0  0  0  0  0  0  0  0  0  0  0  0
    0.3908   -1.0807    2.3522 H   0  0  0  0  0  0  0  0  0  0  0  0
   -0.8474    0.2969    0.0798 H   0  0  0  0  0  0  0  0  0  0  0  0
    4.6290    2.4227   -1.5141 H   0  0  0  0  0  0  0  0  0  0  0  0
    5.8782    2.4460   -0.2788 H   0  0  0  0  0  0  0  0  0  0  0  0
    7.0839    0.5661   -0.6679 H   0  0  0  0  0  0  0  0  0  0  0  0
    6.2907    0.5275   -2.2573 H   0  0  0  0  0  0  0  0  0  0  0  0
    6.3576   -0.9202   -1.2291 H   0  0  0  0  0  0  0  0  0  0  0  0
    4.3234    2.1237    1.5217 H   0  0  0  0  0  0  0  0  0  0  0  0
    2.9276    2.0658    0.4616 H   0  0  0  0  0  0  0  0  0  0  0  0
    3.9619    4.0954    2.7031 H   0  0  0  0  0  0  0  0  0  0  0  0
    2.3076    4.0428    2.0532 H   0  0  0  0  0  0  0  0  0  0  0  0
    3.2980    5.5115    1.9058 H   0  0  0  0  0  0  0  0  0  0  0  0
    3.4883    4.2210   -1.4866 H   0  0  0  0  0  0  0  0  0  0  0  0
    2.9817    5.5462   -0.4701 H   0  0  0  0  0  0  0  0  0  0  0  0
    2.0258    4.0540   -0.4904 H   0  0  0  0  0  0  0  0  0  0  0  0
   -4.4142   -2.1836    1.1318 H   0  0  0  0  0  0  0  0  0  0  0  0
   -2.4454    1.5615    0.2182 H   0  0  0  0  0  0  0  0  0  0  0  0
   -6.4646   -1.3440    0.1663 H   0  0  0  0  0  0  0  0  0  0  0  0
   -4.4616    2.3993   -0.7676 H   0  0  0  0  0  0  0  0  0  0  0  0
   -8.8590    0.8005   -1.4502 H   0  0  0  0  0  0  0  0  0  0  0  0
   -8.3473    0.0215    0.0380 H   0  0  0  0  0  0  0  0  0  0  0  0
   -7.8621   -0.6409   -1.5535 H   0  0  0  0  0  0  0  0  0  0  0  0
   -7.8622    2.6685   -1.9101 H   0  0  0  0  0  0  0  0  0  0  0  0
   -6.1658    2.5362   -2.3429 H   0  0  0  0  0  0  0  0  0  0  0  0
   -6.6529    3.1864   -0.7470 H   0  0  0  0  0  0  0  0  0  0  0  0
  1 19  2  0  0  0  0
  2  9  1  0  0  0  0
  2 11  1  0  0  0  0
  2 13  1  0  0  0  0
  3 14  1  0  0  0  0
  3 16  1  0  0  0  0
  3 17  1  0  0  0  0
  4 15  1  0  0  0  0
  4 19  1  0  0  0  0
  4 45  1  0  0  0  0
  5 18  1  0  0  0  0
  5 21  1  0  0  0  0
  5 22  1  0  0  0  0
  6 27  1  0  0  0  0
  6 28  1  0  0  0  0
  6 29  1  0  0  0  0
  7  8  1  0  0  0  0
  7 10  1  0  0  0  0
  7 12  1  0  0  0  0
  7 30  1  0  0  0  0
  8 11  1  0  0  0  0
  8 14  1  0  0  0  0
  8 31  1  0  0  0  0
  9 10  1  0  0  0  0
  9 15  1  0  0  0  0
  9 32  1  0  0  0  0
 10 33  1  0  0  0  0
 10 34  1  0  0  0  0
 11 35  1  0  0  0  0
 11 36  1  0  0  0  0
 12 13  1  0  0  0  0
 12 37  1  0  0  0  0
 12 38  1  0  0  0  0
 13 39  1  0  0  0  0
 13 40  1  0  0  0  0
 14 41  1  0  0  0  0
 14 42  1  0  0  0  0
 15 43  1  0  0  0  0
 15 44  1  0  0  0  0
 16 18  1  0  0  0  0
 16 46  1  0  0  0  0
 16 47  1  0  0  0  0
 17 48  1  0  0  0  0
 17 49  1  0  0  0  0
 17 50  1  0  0  0  0
 18 51  1  0  0  0  0
 18 52  1  0  0  0  0
 19 20  1  0  0  0  0
 20 23  2  0  0  0  0
 20 24  1  0  0  0  0
 21 53  1  0  0  0  0
 21 54  1  0  0  0  0
 21 55  1  0  0  0  0
 22 56  1  0  0  0  0
 22 57  1  0  0  0  0
 22 58  1  0  0  0  0
 23 25  1  0  0  0  0
 23 59  1  0  0  0  0
 24 26  2  0  0  0  0
 24 60  1  0  0  0  0
 25 27  2  0  0  0  0
 25 61  1  0  0  0  0
 26 27  1  0  0  0  0
 26 62  1  0  0  0  0
 28 63  1  0  0  0  0
 28 64  1  0  0  0  0
 28 65  1  0  0  0  0
 29 66  1  0  0  0  0
 29 67  1  0  0  0  0
 29 68  1  0  0  0  0
M  END
> <PUBCHEM_COMPOUND_CID>
28991064

> <PUBCHEM_CONFORMER_RMSD>
1

> <PUBCHEM_CONFORMER_DIVERSEORDER>
1
6
7
8
99
88
42
25
47
53
40
93
24
75
62
35
95
49
12
20
16
97
86
32
30
15
46
91
17
100
102
10
38
79
31
60
19
77
72
73
2
45
21
74
5
23
83
81
37
50
28
69
55
41
36
92
101
27
68
43
103
33
56
34
70
94
64
58
65
71
14
44
3
85
22
57
76
13
67
48
52
61
82
66
11
96
4
84
51
39
90
9
29
87
18
26
89
63
78
98
80
54
59

> <PUBCHEM_MMFF94_PARTIAL_CHARGES>
30
1 -0.57
11 0.27
13 0.27
14 0.27
15 0.3
16 0.27
17 0.27
18 0.27
19 0.54
2 -0.81
20 0.09
21 0.27
22 0.27
23 -0.15
24 -0.15
25 -0.15
26 -0.15
27 0.1
28 0.37
29 0.37
3 -0.81
4 -0.73
45 0.37
5 -0.81
59 0.15
6 -0.84
60 0.15
61 0.15
62 0.15
9 0.27

> <PUBCHEM_EFFECTIVE_ROTOR_COUNT>
11.2

> <PUBCHEM_PHARMACOPHORE_FEATURES>
8
1 1 acceptor
1 2 cation
1 3 cation
1 4 donor
1 5 cation
1 6 cation
6 20 23 24 25 26 27 rings
8 2 7 8 9 10 11 12 13 rings

> <PUBCHEM_HEAVY_ATOM_COUNT>
29

> <PUBCHEM_ATOM_DEF_STEREO_COUNT>
3

> <PUBCHEM_ATOM_UDEF_STEREO_COUNT>
0

> <PUBCHEM_BOND_DEF_STEREO_COUNT>
0

> <PUBCHEM_BOND_UDEF_STEREO_COUNT>
0

> <PUBCHEM_ISOTOPIC_ATOM_COUNT>
0

> <PUBCHEM_COMPONENT_COUNT>
1

> <PUBCHEM_CACTVS_TAUTO_COUNT>
2

> <PUBCHEM_CONFORMER_ID>
01BA5E5800000001

> <PUBCHEM_MMFF94_ENERGY>
91.2685

> <PUBCHEM_FEATURE_SELFOVERLAP>
40.597

> <PUBCHEM_SHAPE_FINGERPRINT>
10811444 77 18338797917936543644
10835480 77 18335702715810907895
10883706 89 11026335197735813599
11479125 193 18057595675648946628
12047536 79 12613295556846687039
12769317 202 18412269445588824128
13402501 40 18333736835991336796
13673619 4 11527948945644962906
14428016 6 18343299309982210313
14556957 393 17203341000522915697
14739800 52 17894619336740360929
15003188 100 18341619256341133844
15082195 135 18271524208759176833
1813 80 15338827630650418843
18335252 114 18342177748424483278
18681886 176 18270118981777035634
19304152 47 17180255920964344088
20554085 129 16950276317726016297
20737093 193 14541373016813073545
21033648 29 18190179177957732604
21049683 118 17822842195308551506
21133410 127 17543350913811415628
21304303 172 17615688428522165930
21344244 78 18120919622106566698
21388113 180 18192999437672293672
21403212 168 18334855009995929130
21475661 188 18263085577712994784
21968339 14 18411141290829809038
22864921 267 8430326787732911229
23522609 53 17489045790270946993
23559900 14 18333454248559762081
3298306 158 18196936788700395152
3459 39 16950269728966407757
34797466 226 18341618075563004007
376196 1 18263364853418855474
44317340 157 18411985763099286307
5109719 28 18189904291434597729
5312510 48 18410577296687885225
57091435 61 18408600387613226921
6086070 43 18412268354852351258

> <PUBCHEM_SHAPE_MULTIPOLES>
566.03
17.74
5.16
1.62
31.68
4.43
-0.24
10.46
7.67
-9.52
-0.73
-0.1
-0.03
3.02

> <PUBCHEM_SHAPE_SELFOVERLAP>
1163.441

> <PUBCHEM_SHAPE_VOLUME>
325.6

> <PUBCHEM_COORDINATE_TYPE>
2
5
10

$$$$
