71693219
  -OEChem-12032416233D

 42 44  0     1  0  0  0  0  0999 V2000
    2.7960    1.2638    1.6547 O   0  0  0  0  0  0  0  0  0  0  0  0
    4.1736   -0.2360    0.1194 O   0  0  0  0  0  0  0  0  0  0  0  0
    6.9238   -2.2972   -0.9076 O   0  0  0  0  0  0  0  0  0  0  0  0
    6.6148   -1.0758    0.9899 O   0  0  0  0  0  0  0  0  0  0  0  0
    1.0332    1.5412    0.1876 N   0  0  0  0  0  0  0  0  0  0  0  0
   -2.9218    0.1506   -1.2590 N   0  0  0  0  0  0  0  0  0  0  0  0
   -2.3521    0.5060    0.8598 N   0  0  0  0  0  0  0  0  0  0  0  0
   -1.0796    1.8362   -0.8680 C   0  0  1  0  0  0  0  0  0  0  0  0
   -0.8563    2.9515    0.1652 C   0  0  0  0  0  0  0  0  0  0  0  0
    0.3449    1.3045   -1.0801 C   0  0  0  0  0  0  0  0  0  0  0  0
    0.2536    2.4098    1.0559 C   0  0  0  0  0  0  0  0  0  0  0  0
   -2.1144    0.8316   -0.3911 C   0  0  0  0  0  0  0  0  0  0  0  0
    2.2617    1.0327    0.5688 C   0  0  0  0  0  0  0  0  0  0  0  0
   -3.7348   -0.6690   -0.5190 C   0  0  0  0  0  0  0  0  0  0  0  0
   -3.3599   -0.4289    0.8001 C   0  0  0  0  0  0  0  0  0  0  0  0
   -2.9222    0.2702   -2.6997 C   0  0  0  0  0  0  0  0  0  0  0  0
    2.9390    0.1410   -0.4405 C   0  0  0  0  0  0  0  0  0  0  0  0
   -4.7356   -1.5722   -0.8793 C   0  0  0  0  0  0  0  0  0  0  0  0
   -4.0115   -1.1222    1.8341 C   0  0  0  0  0  0  0  0  0  0  0  0
   -5.3732   -2.2535    0.1627 C   0  0  0  0  0  0  0  0  0  0  0  0
   -5.0193   -2.0340    1.4960 C   0  0  0  0  0  0  0  0  0  0  0  0
    4.9171   -1.0899   -0.7483 C   0  0  0  0  0  0  0  0  0  0  0  0
    6.2229   -1.4604   -0.1017 C   0  0  0  0  0  0  0  0  0  0  0  0
   -1.4459    2.2902   -1.7965 H   0  0  0  0  0  0  0  0  0  0  0  0
   -1.7491    3.2307    0.7332 H   0  0  0  0  0  0  0  0  0  0  0  0
   -0.4940    3.8505   -0.3501 H   0  0  0  0  0  0  0  0  0  0  0  0
    0.3743    0.2451   -1.3498 H   0  0  0  0  0  0  0  0  0  0  0  0
    0.8720    1.8834   -1.8468 H   0  0  0  0  0  0  0  0  0  0  0  0
    0.8838    3.1989    1.4774 H   0  0  0  0  0  0  0  0  0  0  0  0
   -0.1378    1.8013    1.8780 H   0  0  0  0  0  0  0  0  0  0  0  0
   -3.3946    1.2198   -2.9631 H   0  0  0  0  0  0  0  0  0  0  0  0
   -1.8901    0.2382   -3.0580 H   0  0  0  0  0  0  0  0  0  0  0  0
   -3.4743   -0.5577   -3.1483 H   0  0  0  0  0  0  0  0  0  0  0  0
    3.0958    0.6943   -1.3721 H   0  0  0  0  0  0  0  0  0  0  0  0
    2.3209   -0.7453   -0.6161 H   0  0  0  0  0  0  0  0  0  0  0  0
   -5.0179   -1.7465   -1.9110 H   0  0  0  0  0  0  0  0  0  0  0  0
   -3.7436   -0.9586    2.8731 H   0  0  0  0  0  0  0  0  0  0  0  0
   -6.1598   -2.9670   -0.0704 H   0  0  0  0  0  0  0  0  0  0  0  0
   -5.5333   -2.5785    2.2839 H   0  0  0  0  0  0  0  0  0  0  0  0
    4.3455   -2.0051   -0.9346 H   0  0  0  0  0  0  0  0  0  0  0  0
    5.1268   -0.5642   -1.6857 H   0  0  0  0  0  0  0  0  0  0  0  0
    7.7821   -2.5557   -0.5090 H   0  0  0  0  0  0  0  0  0  0  0  0
  1 13  2  0  0  0  0
  2 17  1  0  0  0  0
  2 22  1  0  0  0  0
  3 23  1  0  0  0  0
  3 42  1  0  0  0  0
  4 23  2  0  0  0  0
  5 10  1  0  0  0  0
  5 11  1  0  0  0  0
  5 13  1  0  0  0  0
  6 12  1  0  0  0  0
  6 14  1  0  0  0  0
  6 16  1  0  0  0  0
  7 12  2  0  0  0  0
  7 15  1  0  0  0  0
  8  9  1  0  0  0  0
  8 10  1  0  0  0  0
  8 12  1  0  0  0  0
  8 24  1  0  0  0  0
  9 11  1  0  0  0  0
  9 25  1  0  0  0  0
  9 26  1  0  0  0  0
 10 27  1  0  0  0  0
 10 28  1  0  0  0  0
 11 29  1  0  0  0  0
 11 30  1  0  0  0  0
 13 17  1  0  0  0  0
 14 15  1  0  0  0  0
 14 18  2  0  0  0  0
 15 19  2  0  0  0  0
 16 31  1  0  0  0  0
 16 32  1  0  0  0  0
 16 33  1  0  0  0  0
 17 34  1  0  0  0  0
 17 35  1  0  0  0  0
 18 20  1  0  0  0  0
 18 36  1  0  0  0  0
 19 21  1  0  0  0  0
 19 37  1  0  0  0  0
 20 21  2  0  0  0  0
 20 38  1  0  0  0  0
 21 39  1  0  0  0  0
 22 23  1  0  0  0  0
 22 40  1  0  0  0  0
 22 41  1  0  0  0  0
M  END
> <PUBCHEM_COMPOUND_CID>
71693219

> <PUBCHEM_CONFORMER_RMSD>
0.8

> <PUBCHEM_CONFORMER_DIVERSEORDER>
1
94
120
93
42
110
73
99
109
107
87
86
18
102
113
35
48
20
79
13
27
117
76
22
64
97
61
54
114
72
89
121
15
105
68
116
33
49
37
31
59
60
44
111
19
45
62
21
70
123
34
12
66
9
28
104
46
3
26
36
77
83
75
10
41
78
50
80
115
55
47
112
11
38
6
53
119
24
108
84
16
32
90
85
74
56
67
51
25
39
58
81
30
2
8
4
52
95
29
23
88
43
7
122
91
40
65
96
100
82
118
92
5
69
57
14
63
17
71
106
101
98
103

> <PUBCHEM_MMFF94_PARTIAL_CHARGES>
27
1 -0.57
10 0.3
11 0.3
12 0.01
13 0.57
14 -0.15
15 0.23
16 0.26
17 0.34
18 -0.15
19 -0.15
2 -0.56
20 -0.15
21 -0.15
22 0.34
23 0.66
3 -0.65
36 0.15
37 0.15
38 0.15
39 0.15
4 -0.57
42 0.5
5 -0.66
6 0.05
7 -0.57
8 0.18

> <PUBCHEM_EFFECTIVE_ROTOR_COUNT>
7

> <PUBCHEM_PHARMACOPHORE_FEATURES>
9
1 1 acceptor
1 2 acceptor
1 3 acceptor
1 4 acceptor
3 3 4 23 anion
3 6 7 12 cation
5 5 8 9 10 11 rings
5 6 7 12 14 15 rings
6 14 15 18 19 20 21 rings

> <PUBCHEM_HEAVY_ATOM_COUNT>
23

> <PUBCHEM_ATOM_DEF_STEREO_COUNT>
1

> <PUBCHEM_ATOM_UDEF_STEREO_COUNT>
0

> <PUBCHEM_BOND_DEF_STEREO_COUNT>
0

> <PUBCHEM_BOND_UDEF_STEREO_COUNT>
0

> <PUBCHEM_ISOTOPIC_ATOM_COUNT>
0

> <PUBCHEM_COMPONENT_COUNT>
1

> <PUBCHEM_CACTVS_TAUTO_COUNT>
1

> <PUBCHEM_CONFORMER_ID>
0445F3A300000001

> <PUBCHEM_MMFF94_ENERGY>
43.3302

> <PUBCHEM_FEATURE_SELFOVERLAP>
45.856

> <PUBCHEM_SHAPE_FINGERPRINT>
10319926 262 14189304801782986476
10692045 39 11887132967911798996
10928967 22 18201997725001686958
11809386 21 18188484658418384632
12403259 118 12967123956204692945
12633257 1 16056882463396211537
12760667 363 18409169909108879387
13103583 49 17489317394494841403
13402501 40 18408327695945155642
13533116 47 18054793051465216115
14123256 34 18412270532173877998
14211702 104 18192713350655250106
14251764 30 18411421734623978522
14341114 328 15697722626485703169
14739800 52 14188142678701984850
14950920 106 15913033352976668370
14951699 99 12823291334560335482
15183329 4 13117995575215362730
15238133 3 13326571900032925426
15510800 12 18115588304417983643
17780758 139 17704075062135872105
17870717 6 17458058279370869711
1813 80 18201173138177406773
193927 3 18334013916831121760
20281389 69 9727625108284775926
20871999 31 16732697251212573949
21033648 29 14835584470063275177
21033650 10 16588296151332599685
21307412 95 17822290249684210627
21401589 2 11095890375864444311
22393880 68 16950274114049045036
23379529 103 17460328878008737195
23559900 14 17604707923458701301
270888 7 9439414509914461323
2838139 119 8214148426066017946
2916195 48 9799692601425683917
329604 57 18261117374589793126
3737641 26 17702392749844223406
3862424 121 16807879782152147115
393628 194 8790881899834622522
445580 182 16702028538871502523
474113 269 17917424393966231935
484985 159 18336548214335209897
5104073 3 17988640771002810080
5486654 36 18412551989733310569
636775 8 18200043837943616030
6431902 208 18339922619842819006
77188 2 18339926016708769609
7808743 9 10015579489120589246
7918774 8 18412831283029911314
7970288 3 18411702122752884822
999808 66 18343305838701733014

> <PUBCHEM_SHAPE_MULTIPOLES>
434.91
14.96
2.77
1.72
22.72
0.61
-0.42
-17.29
0.35
0.11
0.4
-1.55
0.03
1.75

> <PUBCHEM_SHAPE_SELFOVERLAP>
928.615

> <PUBCHEM_SHAPE_VOLUME>
242.3

> <PUBCHEM_COORDINATE_TYPE>
2
5
10

$$$$
