28960863
  -OEChem-12032416283D

 57 60  0     1  0  0  0  0  0999 V2000
    4.1244    1.1468    0.4275 O   0  0  0  0  0  0  0  0  0  0  0  0
   -2.5614    2.2169    1.9208 O   0  0  0  0  0  0  0  0  0  0  0  0
    1.5826    3.2309   -0.8421 N   0  0  1  0  0  0  0  0  0  0  0  0
   -1.1616    2.3807    0.0777 N   0  0  0  0  0  0  0  0  0  0  0  0
   -3.0708    1.1104   -0.0555 N   0  0  0  0  0  0  0  0  0  0  0  0
    2.3217    0.1819   -0.4868 N   0  0  0  0  0  0  0  0  0  0  0  0
    4.5176   -0.1476    0.0643 N   0  0  0  0  0  0  0  0  0  0  0  0
   -0.1792    3.2473    0.6846 C   0  0  1  0  0  0  0  0  0  0  0  0
    2.1497    2.5851    0.3572 C   0  0  1  0  0  0  0  0  0  0  0  0
    0.9570    2.4491    1.3238 C   0  0  0  0  0  0  0  0  0  0  0  0
    0.5155    4.1117   -0.3568 C   0  0  0  0  0  0  0  0  0  0  0  0
   -4.3038    0.5003    0.3899 C   0  0  0  0  0  0  0  0  0  0  0  0
   -5.2986    0.3605   -0.7673 C   0  0  0  0  0  0  0  0  0  0  0  0
   -4.0388   -0.8517    1.0609 C   0  0  0  0  0  0  0  0  0  0  0  0
   -4.8860   -0.7210   -1.7658 C   0  0  0  0  0  0  0  0  0  0  0  0
   -3.6282   -1.9311    0.0593 C   0  0  0  0  0  0  0  0  0  0  0  0
   -4.6389   -2.0593   -1.0763 C   0  0  0  0  0  0  0  0  0  0  0  0
    2.8186    1.2581    0.0685 C   0  0  0  0  0  0  0  0  0  0  0  0
    2.5740    3.9581   -1.6256 C   0  0  0  0  0  0  0  0  0  0  0  0
   -2.2909    1.9288    0.7558 C   0  0  0  0  0  0  0  0  0  0  0  0
    3.4008   -0.6532   -0.4678 C   0  0  0  0  0  0  0  0  0  0  0  0
    3.3420   -2.0196   -0.9985 C   0  0  0  0  0  0  0  0  0  0  0  0
    2.2713   -2.9046   -0.3679 C   0  0  0  0  0  0  0  0  0  0  0  0
    2.5031   -3.5053    0.8695 C   0  0  0  0  0  0  0  0  0  0  0  0
    1.0607   -3.1131   -1.0288 C   0  0  0  0  0  0  0  0  0  0  0  0
    1.5241   -4.3146    1.4462 C   0  0  0  0  0  0  0  0  0  0  0  0
    0.0817   -3.9224   -0.4521 C   0  0  0  0  0  0  0  0  0  0  0  0
    0.3134   -4.5229    0.7855 C   0  0  0  0  0  0  0  0  0  0  0  0
   -0.6836    3.8677    1.4338 H   0  0  0  0  0  0  0  0  0  0  0  0
    2.8842    3.2524    0.8309 H   0  0  0  0  0  0  0  0  0  0  0  0
    0.6715    1.4088    1.5193 H   0  0  0  0  0  0  0  0  0  0  0  0
    1.2263    2.9027    2.2860 H   0  0  0  0  0  0  0  0  0  0  0  0
   -0.1550    4.4224   -1.1651 H   0  0  0  0  0  0  0  0  0  0  0  0
    0.9311    5.0080    0.1220 H   0  0  0  0  0  0  0  0  0  0  0  0
   -4.7443    1.1704    1.1387 H   0  0  0  0  0  0  0  0  0  0  0  0
   -5.4085    1.3169   -1.2926 H   0  0  0  0  0  0  0  0  0  0  0  0
   -6.2855    0.1059   -0.3602 H   0  0  0  0  0  0  0  0  0  0  0  0
   -4.9518   -1.1785    1.5749 H   0  0  0  0  0  0  0  0  0  0  0  0
   -3.2614   -0.7553    1.8282 H   0  0  0  0  0  0  0  0  0  0  0  0
   -3.9817   -0.4123   -2.3032 H   0  0  0  0  0  0  0  0  0  0  0  0
   -5.6727   -0.8391   -2.5199 H   0  0  0  0  0  0  0  0  0  0  0  0
   -3.5322   -2.8930    0.5758 H   0  0  0  0  0  0  0  0  0  0  0  0
   -2.6404   -1.6948   -0.3548 H   0  0  0  0  0  0  0  0  0  0  0  0
   -0.9873    2.0301   -0.8594 H   0  0  0  0  0  0  0  0  0  0  0  0
   -5.5860   -2.4444   -0.6788 H   0  0  0  0  0  0  0  0  0  0  0  0
   -4.2797   -2.7910   -1.8088 H   0  0  0  0  0  0  0  0  0  0  0  0
   -2.7166    0.8790   -0.9783 H   0  0  0  0  0  0  0  0  0  0  0  0
    3.3464    3.2780   -2.0001 H   0  0  0  0  0  0  0  0  0  0  0  0
    3.0640    4.7496   -1.0475 H   0  0  0  0  0  0  0  0  0  0  0  0
    2.1036    4.4157   -2.5028 H   0  0  0  0  0  0  0  0  0  0  0  0
    4.3104   -2.5247   -0.8827 H   0  0  0  0  0  0  0  0  0  0  0  0
    3.1743   -1.9718   -2.0825 H   0  0  0  0  0  0  0  0  0  0  0  0
    3.4424   -3.3498    1.3934 H   0  0  0  0  0  0  0  0  0  0  0  0
    0.8663   -2.6487   -1.9918 H   0  0  0  0  0  0  0  0  0  0  0  0
    1.7042   -4.7821    2.4098 H   0  0  0  0  0  0  0  0  0  0  0  0
   -0.8618   -4.0832   -0.9655 H   0  0  0  0  0  0  0  0  0  0  0  0
   -0.4494   -5.1521    1.2349 H   0  0  0  0  0  0  0  0  0  0  0  0
  1  7  1  0  0  0  0
  1 18  1  0  0  0  0
  2 20  2  0  0  0  0
  3  9  1  0  0  0  0
  3 11  1  0  0  0  0
  3 19  1  0  0  0  0
  4  8  1  0  0  0  0
  4 20  1  0  0  0  0
  4 44  1  0  0  0  0
  5 12  1  0  0  0  0
  5 20  1  0  0  0  0
  5 47  1  0  0  0  0
  6 18  2  0  0  0  0
  6 21  1  0  0  0  0
  7 21  2  0  0  0  0
  8 10  1  0  0  0  0
  8 11  1  0  0  0  0
  8 29  1  0  0  0  0
  9 10  1  0  0  0  0
  9 18  1  0  0  0  0
  9 30  1  0  0  0  0
 10 31  1  0  0  0  0
 10 32  1  0  0  0  0
 11 33  1  0  0  0  0
 11 34  1  0  0  0  0
 12 13  1  0  0  0  0
 12 14  1  0  0  0  0
 12 35  1  0  0  0  0
 13 15  1  0  0  0  0
 13 36  1  0  0  0  0
 13 37  1  0  0  0  0
 14 16  1  0  0  0  0
 14 38  1  0  0  0  0
 14 39  1  0  0  0  0
 15 17  1  0  0  0  0
 15 40  1  0  0  0  0
 15 41  1  0  0  0  0
 16 17  1  0  0  0  0
 16 42  1  0  0  0  0
 16 43  1  0  0  0  0
 17 45  1  0  0  0  0
 17 46  1  0  0  0  0
 19 48  1  0  0  0  0
 19 49  1  0  0  0  0
 19 50  1  0  0  0  0
 21 22  1  0  0  0  0
 22 23  1  0  0  0  0
 22 51  1  0  0  0  0
 22 52  1  0  0  0  0
 23 24  2  0  0  0  0
 23 25  1  0  0  0  0
 24 26  1  0  0  0  0
 24 53  1  0  0  0  0
 25 27  2  0  0  0  0
 25 54  1  0  0  0  0
 26 28  2  0  0  0  0
 26 55  1  0  0  0  0
 27 28  1  0  0  0  0
 27 56  1  0  0  0  0
 28 57  1  0  0  0  0
M  END
> <PUBCHEM_COMPOUND_CID>
28960863

> <PUBCHEM_CONFORMER_RMSD>
1.2

> <PUBCHEM_CONFORMER_DIVERSEORDER>
1
76
91
97
37
42
133
116
48
105
19
39
89
118
47
50
69
85
68
27
88
137
106
132
14
131
96
71
40
100
123
84
36
104
30
58
128
98
54
56
83
78
25
34
46
101
51
119
38
65
82
135
32
115
66
121
10
9
67
63
75
74
102
107
134
130
117
41
94
45
111
112
33
64
136
126
129
113
3
92
6
80
114
11
18
7
109
87
55
35
28
44
77
122
12
93
127
72
124
16
103
70
73
52
59
125
139
8
90
99
120
13
20
108
2
17
60
43
29
138
57
86
62
5
61
31
4
21
24
49
53
23
110
79
95
81
22
15
26

> <PUBCHEM_MMFF94_PARTIAL_CHARGES>
29
1 -0.02
11 0.27
12 0.3
18 0.3
19 0.27
2 -0.57
20 0.69
21 0.34
22 0.32
23 -0.14
24 -0.15
25 -0.15
26 -0.15
27 -0.15
28 -0.15
3 -0.81
4 -0.73
44 0.37
47 0.37
5 -0.73
53 0.15
54 0.15
55 0.15
56 0.15
57 0.15
6 -0.57
7 -0.41
8 0.3
9 0.45

> <PUBCHEM_EFFECTIVE_ROTOR_COUNT>
9.2

> <PUBCHEM_PHARMACOPHORE_FEATURES>
9
1 2 acceptor
1 3 cation
1 4 donor
1 5 donor
3 6 7 21 cation
5 1 6 7 18 21 rings
5 3 8 9 10 11 rings
6 12 13 14 15 16 17 rings
6 23 24 25 26 27 28 rings

> <PUBCHEM_HEAVY_ATOM_COUNT>
28

> <PUBCHEM_ATOM_DEF_STEREO_COUNT>
2

> <PUBCHEM_ATOM_UDEF_STEREO_COUNT>
0

> <PUBCHEM_BOND_DEF_STEREO_COUNT>
0

> <PUBCHEM_BOND_UDEF_STEREO_COUNT>
0

> <PUBCHEM_ISOTOPIC_ATOM_COUNT>
0

> <PUBCHEM_COMPONENT_COUNT>
1

> <PUBCHEM_CACTVS_TAUTO_COUNT>
3

> <PUBCHEM_CONFORMER_ID>
01B9E85F00000001

> <PUBCHEM_MMFF94_ENERGY>
42.1833

> <PUBCHEM_FEATURE_SELFOVERLAP>
45.723

> <PUBCHEM_SHAPE_FINGERPRINT>
11059048 146 17617384321231295149
114674 6 18413105086915450320
12038231 1 18340211803800236827
13122387 1 17474114202478598483
1361 2 18337950211708783281
14251757 5 17111853120181310877
152267 14 17619062828858406079
16114785 44 14898287728457931208
19026451 147 18266440045808394819
19930381 70 18410575085090671819
20764821 26 18337405862905540154
20775530 9 18120945996598046460
23559900 14 18340196467004805297
3246872 21 18339641131416645423
325973 47 18266743669646107443
3882209 13 17469286302824486147
4283 87 18342455894321549631
437795 70 18058192573762088598
4573279 73 17760103821922225542
463206 1 18339933605967722483
5309563 4 18339083670547089693
6433294 58 17834400012462861354
66674814 147 18410571820693662738

> <PUBCHEM_SHAPE_MULTIPOLES>
539.58
9.41
7.36
1.41
10.64
2.19
0
1.34
-2.3
-5.49
0.62
0.55
-0.06
-1.53

> <PUBCHEM_SHAPE_SELFOVERLAP>
1135.721

> <PUBCHEM_SHAPE_VOLUME>
303.7

> <PUBCHEM_COORDINATE_TYPE>
2
5
10

$$$$
