56773974
  -OEChem-12032416413D

 48 49  0     1  0  0  0  0  0999 V2000
    3.9168    1.0271    0.4866 O   0  0  0  0  0  0  0  0  0  0  0  0
    3.8487   -2.7073    0.4390 O   0  0  0  0  0  0  0  0  0  0  0  0
   -3.1062   -0.6880   -0.3450 N   0  0  0  0  0  0  0  0  0  0  0  0
    2.7596    1.7888    0.5956 N   0  0  0  0  0  0  0  0  0  0  0  0
   -1.9428    1.4260    0.2673 C   0  0  0  0  0  0  0  0  0  0  0  0
   -0.4396    1.1585    0.4900 C   0  0  1  0  0  0  0  0  0  0  0  0
   -2.1798   -0.0590    0.6123 C   0  0  2  0  0  0  0  0  0  0  0  0
   -0.7306   -0.3182    0.1505 C   0  0  0  0  0  0  0  0  0  0  0  0
    0.5283    1.8413   -0.4493 C   0  0  0  0  0  0  0  0  0  0  0  0
   -2.3462    1.7506   -1.1610 C   0  0  0  0  0  0  0  0  0  0  0  0
   -2.5232    2.4635    1.2045 C   0  0  0  0  0  0  0  0  0  0  0  0
   -4.4815   -0.4452    0.0882 C   0  0  0  0  0  0  0  0  0  0  0  0
   -2.8315   -2.1229   -0.4062 C   0  0  0  0  0  0  0  0  0  0  0  0
    1.9122    1.2588   -0.2910 C   0  0  0  0  0  0  0  0  0  0  0  0
   -5.4783   -1.0760   -0.8692 C   0  0  0  0  0  0  0  0  0  0  0  0
   -3.0156   -2.7755    0.9533 C   0  0  0  0  0  0  0  0  0  0  0  0
    2.4737    0.1711   -0.9819 C   0  0  0  0  0  0  0  0  0  0  0  0
    3.7342    0.0671   -0.4558 C   0  0  0  0  0  0  0  0  0  0  0  0
    4.8665   -0.8342   -0.7010 C   0  0  0  0  0  0  0  0  0  0  0  0
    5.0352   -1.9264    0.3731 C   0  0  0  0  0  0  0  0  0  0  0  0
   -0.1416    1.2849    1.5424 H   0  0  0  0  0  0  0  0  0  0  0  0
   -2.3571   -0.2387    1.6802 H   0  0  0  0  0  0  0  0  0  0  0  0
   -0.5785   -0.5560   -0.9102 H   0  0  0  0  0  0  0  0  0  0  0  0
   -0.1730   -1.0459    0.7491 H   0  0  0  0  0  0  0  0  0  0  0  0
    0.5585    2.9181   -0.2422 H   0  0  0  0  0  0  0  0  0  0  0  0
    0.2422    1.7310   -1.5014 H   0  0  0  0  0  0  0  0  0  0  0  0
   -3.4318    1.8191   -1.2870 H   0  0  0  0  0  0  0  0  0  0  0  0
   -1.9668    1.0424   -1.9062 H   0  0  0  0  0  0  0  0  0  0  0  0
   -1.9590    2.7360   -1.4503 H   0  0  0  0  0  0  0  0  0  0  0  0
   -3.6144    2.5113    1.1272 H   0  0  0  0  0  0  0  0  0  0  0  0
   -2.1280    3.4613    0.9841 H   0  0  0  0  0  0  0  0  0  0  0  0
   -2.2826    2.2396    2.2498 H   0  0  0  0  0  0  0  0  0  0  0  0
   -4.6828    0.6315    0.0823 H   0  0  0  0  0  0  0  0  0  0  0  0
   -4.6879   -0.7625    1.1167 H   0  0  0  0  0  0  0  0  0  0  0  0
   -1.8199   -2.3322   -0.7707 H   0  0  0  0  0  0  0  0  0  0  0  0
   -3.4665   -2.6189   -1.1485 H   0  0  0  0  0  0  0  0  0  0  0  0
   -6.4807   -0.6833   -0.6640 H   0  0  0  0  0  0  0  0  0  0  0  0
   -5.5401   -2.1626   -0.7580 H   0  0  0  0  0  0  0  0  0  0  0  0
   -5.2446   -0.8375   -1.9126 H   0  0  0  0  0  0  0  0  0  0  0  0
   -2.7698   -3.8407    0.8580 H   0  0  0  0  0  0  0  0  0  0  0  0
   -4.0447   -2.7459    1.3204 H   0  0  0  0  0  0  0  0  0  0  0  0
   -2.3468   -2.3883    1.7264 H   0  0  0  0  0  0  0  0  0  0  0  0
    2.0301   -0.4470   -1.7484 H   0  0  0  0  0  0  0  0  0  0  0  0
    5.7948   -0.2554   -0.7700 H   0  0  0  0  0  0  0  0  0  0  0  0
    4.7216   -1.3222   -1.6731 H   0  0  0  0  0  0  0  0  0  0  0  0
    5.2128   -1.4805    1.3573 H   0  0  0  0  0  0  0  0  0  0  0  0
    5.8748   -2.5803    0.1183 H   0  0  0  0  0  0  0  0  0  0  0  0
    3.9912   -3.3846    1.1220 H   0  0  0  0  0  0  0  0  0  0  0  0
  1  4  1  0  0  0  0
  1 18  1  0  0  0  0
  2 20  1  0  0  0  0
  2 48  1  0  0  0  0
  3  7  1  0  0  0  0
  3 12  1  0  0  0  0
  3 13  1  0  0  0  0
  4 14  2  0  0  0  0
  5  6  1  0  0  0  0
  5  7  1  0  0  0  0
  5 10  1  0  0  0  0
  5 11  1  0  0  0  0
  6  8  1  0  0  0  0
  6  9  1  0  0  0  0
  6 21  1  0  0  0  0
  7  8  1  0  0  0  0
  7 22  1  0  0  0  0
  8 23  1  0  0  0  0
  8 24  1  0  0  0  0
  9 14  1  0  0  0  0
  9 25  1  0  0  0  0
  9 26  1  0  0  0  0
 10 27  1  0  0  0  0
 10 28  1  0  0  0  0
 10 29  1  0  0  0  0
 11 30  1  0  0  0  0
 11 31  1  0  0  0  0
 11 32  1  0  0  0  0
 12 15  1  0  0  0  0
 12 33  1  0  0  0  0
 12 34  1  0  0  0  0
 13 16  1  0  0  0  0
 13 35  1  0  0  0  0
 13 36  1  0  0  0  0
 14 17  1  0  0  0  0
 15 37  1  0  0  0  0
 15 38  1  0  0  0  0
 15 39  1  0  0  0  0
 16 40  1  0  0  0  0
 16 41  1  0  0  0  0
 16 42  1  0  0  0  0
 17 18  2  0  0  0  0
 17 43  1  0  0  0  0
 18 19  1  0  0  0  0
 19 20  1  0  0  0  0
 19 44  1  0  0  0  0
 19 45  1  0  0  0  0
 20 46  1  0  0  0  0
 20 47  1  0  0  0  0
M  END
> <PUBCHEM_COMPOUND_CID>
56773974

> <PUBCHEM_CONFORMER_RMSD>
0.8

> <PUBCHEM_CONFORMER_DIVERSEORDER>
1
26
36
20
4
8
12
45
15
28
29
27
42
43
2
39
7
16
5
44
30
17
40
21
9
34
47
33
3
48
32
14
46
24
35
25
19
18
38
13
11
22
41
10
6
31
37
23

> <PUBCHEM_MMFF94_PARTIAL_CHARGES>
15
1 -0.02
12 0.27
13 0.27
14 0.11
17 -0.15
18 -0.04
19 0.18
2 -0.68
20 0.28
3 -0.75
4 -0.41
43 0.15
48 0.4
7 0.21
9 0.18

> <PUBCHEM_EFFECTIVE_ROTOR_COUNT>
7.8

> <PUBCHEM_PHARMACOPHORE_FEATURES>
7
1 2 acceptor
1 2 donor
1 3 cation
1 4 acceptor
3 5 10 11 hydrophobe
4 5 6 7 8 rings
5 1 4 14 17 18 rings

> <PUBCHEM_HEAVY_ATOM_COUNT>
20

> <PUBCHEM_ATOM_DEF_STEREO_COUNT>
2

> <PUBCHEM_ATOM_UDEF_STEREO_COUNT>
0

> <PUBCHEM_BOND_DEF_STEREO_COUNT>
0

> <PUBCHEM_BOND_UDEF_STEREO_COUNT>
0

> <PUBCHEM_ISOTOPIC_ATOM_COUNT>
0

> <PUBCHEM_COMPONENT_COUNT>
1

> <PUBCHEM_CACTVS_TAUTO_COUNT>
1

> <PUBCHEM_CONFORMER_ID>
03624D5600000001

> <PUBCHEM_MMFF94_ENERGY>
40.1987

> <PUBCHEM_FEATURE_SELFOVERLAP>
35.521

> <PUBCHEM_SHAPE_FINGERPRINT>
10062212 137 18336267825663601530
10616163 171 18412271622953087990
11405975 8 18343586209449849008
12555020 224 18264480685637116709
12633257 1 18059593372432915283
12760667 363 18342177773893749111
13167823 11 18411984637580432462
13533116 47 18342455975683153328
13544653 18 18270685405962398925
14251740 79 18408319965425249295
14866123 147 18341337674322602385
15352361 1 18410012135100346590
17492 89 18336830917325005002
17857418 61 18409727344371966674
18186145 218 11531296997496032941
19141452 34 18265056838415282336
200 152 18202562904053268085
20281475 54 18337397041733823356
20403669 9 18342181059237879806
20645477 70 18187643673525071280
21279426 13 18337102381212373333
21673915 165 18410292515129487114
22079108 93 12463568499976998597
221490 88 18336834216075626920
22646028 28 18411704287821791444
23402539 116 18273213093491226221
23402655 69 11241974785013065676
23503958 8 18411985749839792904
23557571 272 18343869917540547372
23559900 14 18337105795305633120
27216 239 10375869680014101429
2871803 45 18335136514008210542
3004659 81 18186517718063326198
312423 11 18337971059385462716
3286 77 18343582945343223564
339767 52 18335974333585057778
463206 1 18340763870333397671
5104073 3 18202566155427946816
559249 180 18264204716655524290
59755656 520 18265332794881679573
76465 3 18411134706465219340
9709674 26 18336828705342461864

> <PUBCHEM_SHAPE_MULTIPOLES>
389.89
10.93
2.94
1.03
5.63
0.94
0.03
6.79
1.04
-0.54
-0.68
-0.39
-0.14
-0.36

> <PUBCHEM_SHAPE_SELFOVERLAP>
793.474

> <PUBCHEM_SHAPE_VOLUME>
231.2

> <PUBCHEM_COORDINATE_TYPE>
2
5
10

$$$$
