25314446
  -OEChem-12032416213D

 43 45  0     1  0  0  0  0  0999 V2000
   -1.0152   -1.5093    1.6062 S   0  0  0  0  0  0  0  0  0  0  0  0
   -2.8384    1.0196    1.3525 O   0  0  0  0  0  0  0  0  0  0  0  0
   -4.1054    0.1567   -0.3909 O   0  0  0  0  0  0  0  0  0  0  0  0
   -1.6992   -0.3102   -2.0996 O   0  0  0  0  0  0  0  0  0  0  0  0
    1.2687    2.2861   -1.4214 O   0  0  0  0  0  0  0  0  0  0  0  0
   -0.1933    1.8639    0.3310 N   0  0  0  0  0  0  0  0  0  0  0  0
    1.9272    2.6087    0.7800 N   0  0  0  0  0  0  0  0  0  0  0  0
   -1.3224    1.4421   -0.4752 C   0  0  2  0  0  0  0  0  0  0  0  0
   -2.6349    1.8652    0.2173 C   0  0  1  0  0  0  0  0  0  0  0  0
   -1.2318   -0.0757   -0.7623 C   0  0  1  0  0  0  0  0  0  0  0  0
   -2.0541   -0.9546    0.2061 C   0  0  2  0  0  0  0  0  0  0  0  0
   -3.2803   -0.1961    0.7348 C   0  0  1  0  0  0  0  0  0  0  0  0
   -3.8873    1.5620   -0.5803 C   0  0  0  0  0  0  0  0  0  0  0  0
    1.0213    2.2546   -0.2166 C   0  0  0  0  0  0  0  0  0  0  0  0
    0.2772   -2.3875    0.7407 C   0  0  0  0  0  0  0  0  0  0  0  0
   -0.0403   -3.4842   -0.0605 C   0  0  0  0  0  0  0  0  0  0  0  0
    1.6041   -1.9767    0.8666 C   0  0  0  0  0  0  0  0  0  0  0  0
    3.2703    3.0550    0.4939 C   0  0  0  0  0  0  0  0  0  0  0  0
    0.9692   -4.1701   -0.7360 C   0  0  0  0  0  0  0  0  0  0  0  0
    2.6136   -2.6623    0.1912 C   0  0  0  0  0  0  0  0  0  0  0  0
    2.2962   -3.7592   -0.6101 C   0  0  0  0  0  0  0  0  0  0  0  0
    4.1798    1.8722    0.4567 C   0  0  0  0  0  0  0  0  0  0  0  0
    4.8749    1.4999   -0.6241 C   0  0  0  0  0  0  0  0  0  0  0  0
   -1.2574    1.9943   -1.4217 H   0  0  0  0  0  0  0  0  0  0  0  0
   -2.5951    2.9138    0.5304 H   0  0  0  0  0  0  0  0  0  0  0  0
   -0.1824   -0.3789   -0.8064 H   0  0  0  0  0  0  0  0  0  0  0  0
   -2.4146   -1.8414   -0.3288 H   0  0  0  0  0  0  0  0  0  0  0  0
   -3.8697   -0.7881    1.4425 H   0  0  0  0  0  0  0  0  0  0  0  0
   -4.7560    2.0824   -0.1628 H   0  0  0  0  0  0  0  0  0  0  0  0
   -3.8062    1.7982   -1.6447 H   0  0  0  0  0  0  0  0  0  0  0  0
   -0.2699    1.7965    1.3414 H   0  0  0  0  0  0  0  0  0  0  0  0
   -1.1235    0.1883   -2.7045 H   0  0  0  0  0  0  0  0  0  0  0  0
    1.6397    2.5321    1.7509 H   0  0  0  0  0  0  0  0  0  0  0  0
   -1.0656   -3.8292   -0.1666 H   0  0  0  0  0  0  0  0  0  0  0  0
    1.8702   -1.1224    1.4843 H   0  0  0  0  0  0  0  0  0  0  0  0
    3.2766    3.6108   -0.4498 H   0  0  0  0  0  0  0  0  0  0  0  0
    3.5733    3.7341    1.2968 H   0  0  0  0  0  0  0  0  0  0  0  0
    0.7225   -5.0252   -1.3584 H   0  0  0  0  0  0  0  0  0  0  0  0
    3.6467   -2.3413    0.2882 H   0  0  0  0  0  0  0  0  0  0  0  0
    3.0823   -4.2931   -1.1359 H   0  0  0  0  0  0  0  0  0  0  0  0
    4.2862    1.2892    1.3683 H   0  0  0  0  0  0  0  0  0  0  0  0
    5.5235    0.6315   -0.5875 H   0  0  0  0  0  0  0  0  0  0  0  0
    4.8089    2.0477   -1.5576 H   0  0  0  0  0  0  0  0  0  0  0  0
  1 11  1  0  0  0  0
  1 15  1  0  0  0  0
  2  9  1  0  0  0  0
  2 12  1  0  0  0  0
  3 12  1  0  0  0  0
  3 13  1  0  0  0  0
  4 10  1  0  0  0  0
  4 32  1  0  0  0  0
  5 14  2  0  0  0  0
  6  8  1  0  0  0  0
  6 14  1  0  0  0  0
  6 31  1  0  0  0  0
  7 14  1  0  0  0  0
  7 18  1  0  0  0  0
  7 33  1  0  0  0  0
  8  9  1  0  0  0  0
  8 10  1  0  0  0  0
  8 24  1  0  0  0  0
  9 13  1  0  0  0  0
  9 25  1  0  0  0  0
 10 11  1  0  0  0  0
 10 26  1  0  0  0  0
 11 12  1  0  0  0  0
 11 27  1  0  0  0  0
 12 28  1  0  0  0  0
 13 29  1  0  0  0  0
 13 30  1  0  0  0  0
 15 16  2  0  0  0  0
 15 17  1  0  0  0  0
 16 19  1  0  0  0  0
 16 34  1  0  0  0  0
 17 20  2  0  0  0  0
 17 35  1  0  0  0  0
 18 22  1  0  0  0  0
 18 36  1  0  0  0  0
 18 37  1  0  0  0  0
 19 21  2  0  0  0  0
 19 38  1  0  0  0  0
 20 21  1  0  0  0  0
 20 39  1  0  0  0  0
 21 40  1  0  0  0  0
 22 23  2  0  0  0  0
 22 41  1  0  0  0  0
 23 42  1  0  0  0  0
 23 43  1  0  0  0  0
M  END
> <PUBCHEM_COMPOUND_CID>
25314446

> <PUBCHEM_CONFORMER_RMSD>
0.8

> <PUBCHEM_CONFORMER_DIVERSEORDER>
1
124
95
22
29
43
96
75
47
135
99
63
92
26
134
143
86
38
116
18
104
9
72
25
128
112
44
5
16
64
138
98
105
7
107
114
122
80
85
79
34
127
60
55
129
12
67
48
91
19
57
132
119
69
20
31
82
136
66
68
84
103
76
113
94
6
33
46
142
131
102
121
101
89
73
88
117
126
17
65
14
118
59
141
36
125
123
137
23
37
52
74
10
115
83
61
27
21
71
140
49
78
108
58
139
87
15
97
28
35
11
70
100
32
51
4
40
45
30
77
110
120
62
56
81
13
111
3
133
53
8
130
39
106
93
41
54
109
24
42
90
50
2

> <PUBCHEM_MMFF94_PARTIAL_CHARGES>
34
1 -0.33
10 0.28
11 0.23
12 0.56
13 0.28
14 0.69
15 0.1
16 -0.15
17 -0.15
18 0.44
19 -0.15
2 -0.56
20 -0.15
21 -0.15
22 -0.29
23 -0.3
3 -0.56
31 0.37
32 0.4
33 0.37
34 0.15
35 0.15
38 0.15
39 0.15
4 -0.68
40 0.15
41 0.15
42 0.15
43 0.15
5 -0.57
6 -0.73
7 -0.73
8 0.3
9 0.28

> <PUBCHEM_EFFECTIVE_ROTOR_COUNT>
8.2

> <PUBCHEM_PHARMACOPHORE_FEATURES>
10
1 2 acceptor
1 23 hydrophobe
1 3 acceptor
1 4 acceptor
1 4 donor
1 5 acceptor
1 6 donor
1 7 donor
6 15 16 17 19 20 21 rings
8 2 3 8 9 10 11 12 13 rings

> <PUBCHEM_HEAVY_ATOM_COUNT>
23

> <PUBCHEM_ATOM_DEF_STEREO_COUNT>
5

> <PUBCHEM_ATOM_UDEF_STEREO_COUNT>
0

> <PUBCHEM_BOND_DEF_STEREO_COUNT>
0

> <PUBCHEM_BOND_UDEF_STEREO_COUNT>
0

> <PUBCHEM_ISOTOPIC_ATOM_COUNT>
0

> <PUBCHEM_COMPONENT_COUNT>
1

> <PUBCHEM_CACTVS_TAUTO_COUNT>
3

> <PUBCHEM_CONFORMER_ID>
0182448E00000001

> <PUBCHEM_MMFF94_ENERGY>
56.0499

> <PUBCHEM_FEATURE_SELFOVERLAP>
50.846

> <PUBCHEM_SHAPE_FINGERPRINT>
10498660 4 17398669000309595095
1100329 8 17474676044283387496
11370993 70 18338795740403676168
11763715 3 16842725302974774377
12422481 6 17829074317451446483
12788726 201 17254847888570416164
13402501 40 18409169879650665662
138480 1 18051130298585407602
14081887 123 17116342422000456888
14251757 5 17615431563660055932
14844126 61 17545025461445310608
14955137 171 17547595681860988505
15006816 218 18409731759613976480
15664445 248 17840596902957645575
19591789 44 18338801233740252418
19930381 70 18339080372107333834
20028762 73 17406571667742978307
21344244 246 18338784680978881799
23419403 2 17897430706299705461
23559900 14 18123458393547089978
23728640 28 18050002495765349568
3027735 51 18053942033022183247
3298306 158 18409164407277060660
5265222 85 18046926028499536684
532947 4 18410856516821992044
59755656 215 18262232330846027999
6287921 2 18200020755623315234
7364860 26 18339078190105464553
81228 2 17036683899541542200

> <PUBCHEM_SHAPE_MULTIPOLES>
443.74
6.81
5.43
1.27
1.72
3.88
0.11
-5.25
0.23
5.67
0.43
-0.38
0.14
0.57

> <PUBCHEM_SHAPE_SELFOVERLAP>
919.316

> <PUBCHEM_SHAPE_VOLUME>
253.6

> <PUBCHEM_COORDINATE_TYPE>
2
5
10

$$$$
