11867430
  -OEChem-12032416373D

 62 65  0     1  0  0  0  0  0999 V2000
   -1.0475    1.0600   -1.2483 O   0  0  0  0  0  0  0  0  0  0  0  0
   -0.5704    3.4918    0.5385 O   0  0  0  0  0  0  0  0  0  0  0  0
   -3.3402    1.2318    0.3109 O   0  0  0  0  0  0  0  0  0  0  0  0
   -3.3693   -0.3550    1.9711 O   0  0  0  0  0  0  0  0  0  0  0  0
    2.0297    1.2128   -0.7664 N   0  0  0  0  0  0  0  0  0  0  0  0
   -5.0491   -0.2521    0.3741 N   0  0  0  0  0  0  0  0  0  0  0  0
    7.3658   -2.1769    0.1769 N   0  0  0  0  0  0  0  0  0  0  0  0
    0.1397    2.2391    0.4280 C   0  0  1  0  0  0  0  0  0  0  0  0
   -0.9023    1.1674    0.1788 C   0  0  1  0  0  0  0  0  0  0  0  0
    0.9841    2.2326   -0.8280 C   0  0  2  0  0  0  0  0  0  0  0  0
   -2.1351    1.7555    0.8218 C   0  0  1  0  0  0  0  0  0  0  0  0
   -0.0412    1.8594   -1.8889 C   0  0  0  0  0  0  0  0  0  0  0  0
   -1.9812    3.2290    0.5185 C   0  0  0  0  0  0  0  0  0  0  0  0
   -5.8506   -1.3609    0.8423 C   0  0  0  0  0  0  0  0  0  0  0  0
   -5.3819   -2.6808    0.2206 C   0  0  0  0  0  0  0  0  0  0  0  0
   -7.3392   -1.1174    0.5722 C   0  0  0  0  0  0  0  0  0  0  0  0
    3.2262    1.7378   -0.1264 C   0  0  0  0  0  0  0  0  0  0  0  0
   -5.7357   -2.7867   -1.2629 C   0  0  0  0  0  0  0  0  0  0  0  0
   -7.6897   -1.2258   -0.9118 C   0  0  0  0  0  0  0  0  0  0  0  0
   -7.2235   -2.5518   -1.5051 C   0  0  0  0  0  0  0  0  0  0  0  0
   -3.8783    0.1550    0.9784 C   0  0  0  0  0  0  0  0  0  0  0  0
    4.3187    0.7049   -0.0463 C   0  0  0  0  0  0  0  0  0  0  0  0
    5.2426    0.5848   -1.0845 C   0  0  0  0  0  0  0  0  0  0  0  0
    4.4070   -0.1321    1.0661 C   0  0  0  0  0  0  0  0  0  0  0  0
    6.2545   -0.3722   -1.0103 C   0  0  0  0  0  0  0  0  0  0  0  0
    5.4190   -1.0891    1.1403 C   0  0  0  0  0  0  0  0  0  0  0  0
    6.3427   -1.2092    0.1021 C   0  0  0  0  0  0  0  0  0  0  0  0
    8.3305   -2.3098   -0.8965 C   0  0  0  0  0  0  0  0  0  0  0  0
    7.4744   -3.0421    1.3350 C   0  0  0  0  0  0  0  0  0  0  0  0
    0.6911    2.0992    1.3627 H   0  0  0  0  0  0  0  0  0  0  0  0
   -0.6327    0.1791    0.5622 H   0  0  0  0  0  0  0  0  0  0  0  0
    1.4049    3.2140   -1.0776 H   0  0  0  0  0  0  0  0  0  0  0  0
   -2.0694    1.6379    1.9123 H   0  0  0  0  0  0  0  0  0  0  0  0
    0.3680    1.3144   -2.7457 H   0  0  0  0  0  0  0  0  0  0  0  0
   -0.5373    2.7559   -2.2786 H   0  0  0  0  0  0  0  0  0  0  0  0
   -2.4827    3.8606    1.2579 H   0  0  0  0  0  0  0  0  0  0  0  0
   -2.3764    3.4944   -0.4685 H   0  0  0  0  0  0  0  0  0  0  0  0
    2.2732    0.9205   -1.7132 H   0  0  0  0  0  0  0  0  0  0  0  0
   -5.7061   -1.4269    1.9280 H   0  0  0  0  0  0  0  0  0  0  0  0
   -4.2991   -2.8018    0.3444 H   0  0  0  0  0  0  0  0  0  0  0  0
   -5.8564   -3.5138    0.7552 H   0  0  0  0  0  0  0  0  0  0  0  0
   -7.9281   -1.8579    1.1283 H   0  0  0  0  0  0  0  0  0  0  0  0
   -7.6372   -0.1298    0.9445 H   0  0  0  0  0  0  0  0  0  0  0  0
    3.6072    2.6102   -0.6740 H   0  0  0  0  0  0  0  0  0  0  0  0
    3.0045    2.0906    0.8886 H   0  0  0  0  0  0  0  0  0  0  0  0
   -5.1516   -2.0560   -1.8356 H   0  0  0  0  0  0  0  0  0  0  0  0
   -5.4553   -3.7782   -1.6363 H   0  0  0  0  0  0  0  0  0  0  0  0
   -8.7746   -1.1316   -1.0371 H   0  0  0  0  0  0  0  0  0  0  0  0
   -7.2376   -0.3959   -1.4673 H   0  0  0  0  0  0  0  0  0  0  0  0
   -7.7987   -3.3724   -1.0589 H   0  0  0  0  0  0  0  0  0  0  0  0
   -7.4291   -2.5670   -2.5814 H   0  0  0  0  0  0  0  0  0  0  0  0
   -5.3317    0.2337   -0.4715 H   0  0  0  0  0  0  0  0  0  0  0  0
    5.1829    1.2301   -1.9570 H   0  0  0  0  0  0  0  0  0  0  0  0
    3.6918   -0.0491    1.8803 H   0  0  0  0  0  0  0  0  0  0  0  0
    6.9482   -0.4262   -1.8435 H   0  0  0  0  0  0  0  0  0  0  0  0
    5.4444   -1.7165    2.0257 H   0  0  0  0  0  0  0  0  0  0  0  0
    8.9080   -1.3877   -1.0260 H   0  0  0  0  0  0  0  0  0  0  0  0
    9.0557   -3.1056   -0.6930 H   0  0  0  0  0  0  0  0  0  0  0  0
    7.8393   -2.5715   -1.8404 H   0  0  0  0  0  0  0  0  0  0  0  0
    8.3194   -3.7341    1.2456 H   0  0  0  0  0  0  0  0  0  0  0  0
    6.5775   -3.6604    1.4527 H   0  0  0  0  0  0  0  0  0  0  0  0
    7.6432   -2.4613    2.2487 H   0  0  0  0  0  0  0  0  0  0  0  0
  1  9  1  0  0  0  0
  1 12  1  0  0  0  0
  2  8  1  0  0  0  0
  2 13  1  0  0  0  0
  3 11  1  0  0  0  0
  3 21  1  0  0  0  0
  4 21  2  0  0  0  0
  5 10  1  0  0  0  0
  5 17  1  0  0  0  0
  5 38  1  0  0  0  0
  6 14  1  0  0  0  0
  6 21  1  0  0  0  0
  6 52  1  0  0  0  0
  7 27  1  0  0  0  0
  7 28  1  0  0  0  0
  7 29  1  0  0  0  0
  8  9  1  0  0  0  0
  8 10  1  0  0  0  0
  8 30  1  0  0  0  0
  9 11  1  0  0  0  0
  9 31  1  0  0  0  0
 10 12  1  0  0  0  0
 10 32  1  0  0  0  0
 11 13  1  0  0  0  0
 11 33  1  0  0  0  0
 12 34  1  0  0  0  0
 12 35  1  0  0  0  0
 13 36  1  0  0  0  0
 13 37  1  0  0  0  0
 14 15  1  0  0  0  0
 14 16  1  0  0  0  0
 14 39  1  0  0  0  0
 15 18  1  0  0  0  0
 15 40  1  0  0  0  0
 15 41  1  0  0  0  0
 16 19  1  0  0  0  0
 16 42  1  0  0  0  0
 16 43  1  0  0  0  0
 17 22  1  0  0  0  0
 17 44  1  0  0  0  0
 17 45  1  0  0  0  0
 18 20  1  0  0  0  0
 18 46  1  0  0  0  0
 18 47  1  0  0  0  0
 19 20  1  0  0  0  0
 19 48  1  0  0  0  0
 19 49  1  0  0  0  0
 20 50  1  0  0  0  0
 20 51  1  0  0  0  0
 22 23  2  0  0  0  0
 22 24  1  0  0  0  0
 23 25  1  0  0  0  0
 23 53  1  0  0  0  0
 24 26  2  0  0  0  0
 24 54  1  0  0  0  0
 25 27  2  0  0  0  0
 25 55  1  0  0  0  0
 26 27  1  0  0  0  0
 26 56  1  0  0  0  0
 28 57  1  0  0  0  0
 28 58  1  0  0  0  0
 28 59  1  0  0  0  0
 29 60  1  0  0  0  0
 29 61  1  0  0  0  0
 29 62  1  0  0  0  0
M  END
> <PUBCHEM_COMPOUND_CID>
11867430

> <PUBCHEM_CONFORMER_RMSD>
1

> <PUBCHEM_CONFORMER_DIVERSEORDER>
1
46
14
74
23
63
67
61
58
43
51
71
36
53
21
25
59
44
69
64
8
5
55
41
50
6
39
60
70
27
32
62
48
73
65
42
19
20
56
34
26
29
28
11
7
57
38
68
40
54
15
35
45
9
30
49
31
72
4
13
18
33
66
16
47
2
52
10
22
17
37
3
12
24

> <PUBCHEM_MMFF94_PARTIAL_CHARGES>
30
1 -0.56
10 0.27
11 0.28
12 0.28
13 0.28
14 0.3
17 0.41
2 -0.56
21 0.78
22 -0.14
23 -0.15
24 -0.15
25 -0.15
26 -0.15
27 0.1
28 0.37
29 0.37
3 -0.43
38 0.36
4 -0.57
5 -0.9
52 0.37
53 0.15
54 0.15
55 0.15
56 0.15
6 -0.73
7 -0.84
8 0.28
9 0.28

> <PUBCHEM_EFFECTIVE_ROTOR_COUNT>
10.4

> <PUBCHEM_PHARMACOPHORE_FEATURES>
11
1 1 acceptor
1 2 acceptor
1 4 acceptor
1 5 cation
1 5 donor
1 6 donor
1 7 cation
5 1 8 9 10 12 rings
5 2 8 9 11 13 rings
6 14 15 16 18 19 20 rings
6 22 23 24 25 26 27 rings

> <PUBCHEM_HEAVY_ATOM_COUNT>
29

> <PUBCHEM_ATOM_DEF_STEREO_COUNT>
4

> <PUBCHEM_ATOM_UDEF_STEREO_COUNT>
0

> <PUBCHEM_BOND_DEF_STEREO_COUNT>
0

> <PUBCHEM_BOND_UDEF_STEREO_COUNT>
0

> <PUBCHEM_ISOTOPIC_ATOM_COUNT>
0

> <PUBCHEM_COMPONENT_COUNT>
1

> <PUBCHEM_CACTVS_TAUTO_COUNT>
2

> <PUBCHEM_CONFORMER_ID>
00B5152600000001

> <PUBCHEM_MMFF94_ENERGY>
74.7824

> <PUBCHEM_FEATURE_SELFOVERLAP>
56.54

> <PUBCHEM_SHAPE_FINGERPRINT>
10 15 13901913323333849409
10049733 167 14188424119851908941
10577160 183 18273778251796231411
11103572 95 17845379847421438831
11497681 19 18334299777797759980
11963148 33 18191866730912544138
1200032 147 10952050061695977444
12760667 363 18334300863701740841
12895836 83 8502370014519742721
13533116 47 18336830913030206560
13782708 43 18131351912324858912
14068700 675 18412829087948585417
14344974 204 18272092656588112358
14428016 167 18410853218789113038
14849402 71 9007056868745577991
14931854 50 17458061560235358618
15183329 4 16443055119743268001
15188451 53 18272370879746383161
15519825 34 16056588911441067727
15685185 35 9222937197355476894
16126227 98 8934999278727576571
16993427 108 18342171168033308827
16994733 274 8646773283199855799
18393751 57 11167674200519366813
19301676 85 18335140933609745395
19841028 212 18410289254711168026
20028762 73 18343023306820332014
2026 5 18340485660370745055
21304304 249 18411985775367328327
21307412 95 17530971306250556027
21585483 132 18336252544049546147
21987483 16 17700966902105557611
22002106 203 18335692829092462554
23389318 12 18040443200920648366
23522609 53 18050325601945735880
23569943 247 18410295848504534251
24983565 74 18046619011410988842
255183 313 15985099726064900117
3014063 24 18410011044020176954
32027 91 18266461099927107259
3504750 166 18342741789263064169
397830 11 13542471994552117805
406291 66 18412261752881059659
4339292 15 18040431059059132282
474113 269 18271517659440550247
5085150 59 17632300107992422319
5104073 3 13614231560920276220
5718773 13 18412825797850044794
5776283 40 11314313862523012591
5874358 3 17916570055818882407
5937810 71 11746945265213642150
6201320 82 9654706657142211202
636775 72 8934413209287623510
6691757 9 18056202367421799841
6712543 237 16630532829978297023
96874 4 18412822521112323095
9689198 14 11169903966833851137
9896288 288 17844253925601922985

> <PUBCHEM_SHAPE_MULTIPOLES>
558.39
25.55
3.95
1.48
6.92
0.23
-0.15
-32.82
-1.79
-0.44
-0.1
-0.34
-0.28
-2.66

> <PUBCHEM_SHAPE_SELFOVERLAP>
1172.542

> <PUBCHEM_SHAPE_VOLUME>
315.3

> <PUBCHEM_COORDINATE_TYPE>
2
5
10

$$$$
