11884386
  -OEChem-12032416403D

 58 61  0     1  0  0  0  0  0999 V2000
   -1.0795   -2.9965    1.8611 O   0  0  0  0  0  0  0  0  0  0  0  0
    3.0763    0.3765    2.0352 O   0  0  0  0  0  0  0  0  0  0  0  0
    2.2787    2.4718    0.8672 O   0  0  0  0  0  0  0  0  0  0  0  0
   -3.6917   -0.0384   -0.9460 O   0  0  0  0  0  0  0  0  0  0  0  0
   -5.7252    1.3606    0.5054 O   0  0  0  0  0  0  0  0  0  0  0  0
    3.1822   -0.9662    0.1418 N   0  0  0  0  0  0  0  0  0  0  0  0
    0.5357   -2.7598    0.1891 N   0  0  0  0  0  0  0  0  0  0  0  0
   -3.0632   -1.8961    0.3103 N   0  0  0  0  0  0  0  0  0  0  0  0
    2.9844   -3.4269    0.5244 C   0  0  1  0  0  0  0  0  0  0  0  0
    2.2640   -2.4640   -1.6204 C   0  0  2  0  0  0  0  0  0  0  0  0
    2.9846   -3.6501   -0.9830 C   0  0  0  0  0  0  0  0  0  0  0  0
    3.7115   -2.1173    0.8758 C   0  0  0  0  0  0  0  0  0  0  0  0
    1.5358   -3.4346    1.0271 C   0  0  0  0  0  0  0  0  0  0  0  0
    3.0310   -1.1643   -1.3074 C   0  0  0  0  0  0  0  0  0  0  0  0
    0.8378   -2.3547   -1.1149 C   0  0  0  0  0  0  0  0  0  0  0  0
   -0.1231   -1.8455   -1.9041 C   0  0  0  0  0  0  0  0  0  0  0  0
   -0.7619   -2.6383    0.7261 C   0  0  0  0  0  0  0  0  0  0  0  0
    2.9435    0.2308    0.8173 C   0  0  0  0  0  0  0  0  0  0  0  0
   -1.7978   -2.0432   -0.1767 C   0  0  0  0  0  0  0  0  0  0  0  0
   -1.4661   -1.6867   -1.4221 C   0  0  0  0  0  0  0  0  0  0  0  0
    2.4888    1.3996   -0.0194 C   0  0  0  0  0  0  0  0  0  0  0  0
   -3.9375   -0.8987   -0.1043 C   0  0  0  0  0  0  0  0  0  0  0  0
   -5.2716   -0.9958    0.6206 C   0  0  0  0  0  0  0  0  0  0  0  0
    1.8038    3.6495    0.3344 C   0  0  0  0  0  0  0  0  0  0  0  0
   -6.2589    0.0799    0.1948 C   0  0  0  0  0  0  0  0  0  0  0  0
    1.5510    3.7442   -1.0342 C   0  0  0  0  0  0  0  0  0  0  0  0
    1.5761    4.7481    1.1633 C   0  0  0  0  0  0  0  0  0  0  0  0
    1.0708    4.9375   -1.5738 C   0  0  0  0  0  0  0  0  0  0  0  0
    1.0958    5.9413    0.6236 C   0  0  0  0  0  0  0  0  0  0  0  0
    0.8432    6.0359   -0.7451 C   0  0  0  0  0  0  0  0  0  0  0  0
   -6.6183    2.4015    0.1338 C   0  0  0  0  0  0  0  0  0  0  0  0
    3.5227   -4.2461    1.0171 H   0  0  0  0  0  0  0  0  0  0  0  0
    2.2609   -2.6106   -2.7084 H   0  0  0  0  0  0  0  0  0  0  0  0
    4.0121   -3.7229   -1.3596 H   0  0  0  0  0  0  0  0  0  0  0  0
    2.4822   -4.5925   -1.2346 H   0  0  0  0  0  0  0  0  0  0  0  0
    3.6705   -1.9405    1.9559 H   0  0  0  0  0  0  0  0  0  0  0  0
    4.7719   -2.1990    0.6065 H   0  0  0  0  0  0  0  0  0  0  0  0
    1.1981   -4.4770    1.1072 H   0  0  0  0  0  0  0  0  0  0  0  0
    1.4785   -3.0211    2.0419 H   0  0  0  0  0  0  0  0  0  0  0  0
    2.5404   -0.3137   -1.7859 H   0  0  0  0  0  0  0  0  0  0  0  0
    4.0445   -1.2177   -1.7243 H   0  0  0  0  0  0  0  0  0  0  0  0
    0.0883   -1.5174   -2.9165 H   0  0  0  0  0  0  0  0  0  0  0  0
   -2.1707   -1.3025   -2.1500 H   0  0  0  0  0  0  0  0  0  0  0  0
    3.2794    1.6339   -0.7412 H   0  0  0  0  0  0  0  0  0  0  0  0
    1.5464    1.1131   -0.5002 H   0  0  0  0  0  0  0  0  0  0  0  0
   -3.2875   -2.4025    1.1635 H   0  0  0  0  0  0  0  0  0  0  0  0
   -5.6986   -1.9871    0.4321 H   0  0  0  0  0  0  0  0  0  0  0  0
   -5.0694   -0.9026    1.6946 H   0  0  0  0  0  0  0  0  0  0  0  0
   -6.4488    0.0141   -0.8830 H   0  0  0  0  0  0  0  0  0  0  0  0
   -7.2052   -0.0622    0.7292 H   0  0  0  0  0  0  0  0  0  0  0  0
    1.7101    2.9297   -1.7328 H   0  0  0  0  0  0  0  0  0  0  0  0
    1.7714    4.6799    2.2300 H   0  0  0  0  0  0  0  0  0  0  0  0
    0.8746    5.0126   -2.6395 H   0  0  0  0  0  0  0  0  0  0  0  0
    0.9185    6.7967    1.2688 H   0  0  0  0  0  0  0  0  0  0  0  0
    0.4694    6.9650   -1.1652 H   0  0  0  0  0  0  0  0  0  0  0  0
   -6.7996    2.3843   -0.9452 H   0  0  0  0  0  0  0  0  0  0  0  0
   -7.5636    2.3083    0.6770 H   0  0  0  0  0  0  0  0  0  0  0  0
   -6.1588    3.3586    0.3948 H   0  0  0  0  0  0  0  0  0  0  0  0
  1 17  2  0  0  0  0
  2 18  2  0  0  0  0
  3 21  1  0  0  0  0
  3 24  1  0  0  0  0
  4 22  2  0  0  0  0
  5 25  1  0  0  0  0
  5 31  1  0  0  0  0
  6 12  1  0  0  0  0
  6 14  1  0  0  0  0
  6 18  1  0  0  0  0
  7 13  1  0  0  0  0
  7 15  1  0  0  0  0
  7 17  1  0  0  0  0
  8 19  1  0  0  0  0
  8 22  1  0  0  0  0
  8 46  1  0  0  0  0
  9 11  1  0  0  0  0
  9 12  1  0  0  0  0
  9 13  1  0  0  0  0
  9 32  1  0  0  0  0
 10 11  1  0  0  0  0
 10 14  1  0  0  0  0
 10 15  1  0  0  0  0
 10 33  1  0  0  0  0
 11 34  1  0  0  0  0
 11 35  1  0  0  0  0
 12 36  1  0  0  0  0
 12 37  1  0  0  0  0
 13 38  1  0  0  0  0
 13 39  1  0  0  0  0
 14 40  1  0  0  0  0
 14 41  1  0  0  0  0
 15 16  2  0  0  0  0
 16 20  1  0  0  0  0
 16 42  1  0  0  0  0
 17 19  1  0  0  0  0
 18 21  1  0  0  0  0
 19 20  2  0  0  0  0
 20 43  1  0  0  0  0
 21 44  1  0  0  0  0
 21 45  1  0  0  0  0
 22 23  1  0  0  0  0
 23 25  1  0  0  0  0
 23 47  1  0  0  0  0
 23 48  1  0  0  0  0
 24 26  2  0  0  0  0
 24 27  1  0  0  0  0
 25 49  1  0  0  0  0
 25 50  1  0  0  0  0
 26 28  1  0  0  0  0
 26 51  1  0  0  0  0
 27 29  2  0  0  0  0
 27 52  1  0  0  0  0
 28 30  2  0  0  0  0
 28 53  1  0  0  0  0
 29 30  1  0  0  0  0
 29 54  1  0  0  0  0
 30 55  1  0  0  0  0
 31 56  1  0  0  0  0
 31 57  1  0  0  0  0
 31 58  1  0  0  0  0
M  END
> <PUBCHEM_COMPOUND_CID>
11884386

> <PUBCHEM_CONFORMER_RMSD>
1

> <PUBCHEM_CONFORMER_DIVERSEORDER>
1
22
62
50
38
7
56
20
44
17
48
4
59
28
3
6
55
52
21
60
12
23
51
5
11
33
63
36
42
14
18
45
54
26
47
43
37
2
46
30
53
13
10
57
39
24
29
8
15
40
61
58
25
49
35
27
19
32
31
34
16
9
41

> <PUBCHEM_MMFF94_PARTIAL_CHARGES>
37
1 -0.57
10 0.14
12 0.3
13 0.3
14 0.3
15 -0.03
16 -0.15
17 0.62
18 0.57
19 0.12
2 -0.57
20 -0.15
21 0.34
22 0.57
23 0.06
24 0.08
25 0.28
26 -0.15
27 -0.15
28 -0.15
29 -0.15
3 -0.36
30 -0.15
31 0.28
4 -0.57
42 0.15
43 0.15
46 0.37
5 -0.56
51 0.15
52 0.15
53 0.15
54 0.15
55 0.15
6 -0.66
7 -0.47
8 -0.54

> <PUBCHEM_EFFECTIVE_ROTOR_COUNT>
10

> <PUBCHEM_PHARMACOPHORE_FEATURES>
10
1 1 acceptor
1 2 acceptor
1 3 acceptor
1 4 acceptor
1 5 acceptor
1 8 donor
6 24 26 27 28 29 30 rings
6 6 9 10 11 12 14 rings
6 7 15 16 17 19 20 rings
6 7 9 10 11 13 15 rings

> <PUBCHEM_HEAVY_ATOM_COUNT>
31

> <PUBCHEM_ATOM_DEF_STEREO_COUNT>
2

> <PUBCHEM_ATOM_UDEF_STEREO_COUNT>
0

> <PUBCHEM_BOND_DEF_STEREO_COUNT>
0

> <PUBCHEM_BOND_UDEF_STEREO_COUNT>
0

> <PUBCHEM_ISOTOPIC_ATOM_COUNT>
0

> <PUBCHEM_COMPONENT_COUNT>
1

> <PUBCHEM_CACTVS_TAUTO_COUNT>
2

> <PUBCHEM_CONFORMER_ID>
00B5576200000001

> <PUBCHEM_MMFF94_ENERGY>
88.2833

> <PUBCHEM_FEATURE_SELFOVERLAP>
52.33

> <PUBCHEM_SHAPE_FINGERPRINT>
10439779 11 18338507664146348528
10937287 8 17690840481185394716
11059048 146 17689157129036874229
11059845 2 17333062722398341792
12107183 9 17544170028999964768
12788726 201 18119532042521434686
13944108 23 18408612460808780189
14251764 38 18267584796426367551
14508693 111 14669397479513858364
151778 21 18122626316912054657
15210252 30 18336838558409038484
15264996 163 16100505914194683869
15320291 9 18337672040121911049
15419009 47 17473558314174813780
15475509 84 17613992989543448043
16988056 13 18412550902779400612
16993438 75 17183075643733698201
20764821 26 18048892788112696061
21033650 10 16242660655959176652
21475661 188 18411136986924555139
21591340 35 18267033940631860205
21860390 5 18342741810051936103
21987440 362 18121503724373312524
404807 78 16894019529695941144
6086070 43 18191286214536899823

> <PUBCHEM_SHAPE_MULTIPOLES>
593.68
9.84
9.21
1.59
24.82
19.05
0.17
-2.27
-1.8
-6.86
0.34
-0.97
-0.27
0.48

> <PUBCHEM_SHAPE_SELFOVERLAP>
1270.123

> <PUBCHEM_SHAPE_VOLUME>
320.6

> <PUBCHEM_COORDINATE_TYPE>
2
5
10

$$$$
