26743246
  -OEChem-12032416193D

 64 66  0     1  0  0  0  0  0999 V2000
   -2.8962   -2.0005   -1.0750 O   0  0  0  0  0  0  0  0  0  0  0  0
    4.7922    0.1851   -1.4339 O   0  0  0  0  0  0  0  0  0  0  0  0
    0.3942    2.8392    0.3476 N   0  0  0  0  0  0  0  0  0  0  0  0
    5.4063   -0.3904    0.7324 N   0  0  0  0  0  0  0  0  0  0  0  0
   -1.5343   -1.8040   -1.2687 N   0  0  0  0  0  0  0  0  0  0  0  0
    0.6517    0.4724   -0.3583 C   0  0  2  0  0  0  0  0  0  0  0  0
    2.1325    0.7151   -0.7356 C   0  0  1  0  0  0  0  0  0  0  0  0
    2.3329    2.2078   -1.0469 C   0  0  0  0  0  0  0  0  0  0  0  0
    0.1773    1.4448    0.7348 C   0  0  0  0  0  0  0  0  0  0  0  0
    0.3663   -0.9738    0.0486 C   0  0  0  0  0  0  0  0  0  0  0  0
   -5.5308   -0.6664   -0.0191 C   0  0  0  0  0  0  0  0  0  0  0  0
    3.1326    0.2401    0.3253 C   0  0  0  0  0  0  0  0  0  0  0  0
    1.8017    3.1119    0.0646 C   0  0  0  0  0  0  0  0  0  0  0  0
   -6.9968   -0.8931    0.3742 C   0  0  0  0  0  0  0  0  0  0  0  0
   -5.0506    0.7181    0.4363 C   0  0  0  0  0  0  0  0  0  0  0  0
   -4.6408   -1.7639    0.5612 C   0  0  0  0  0  0  0  0  0  0  0  0
   -7.8998    0.2211   -0.1500 C   0  0  0  0  0  0  0  0  0  0  0  0
   -5.9571    1.8297   -0.0878 C   0  0  0  0  0  0  0  0  0  0  0  0
   -7.4145    1.5964    0.2976 C   0  0  0  0  0  0  0  0  0  0  0  0
   -1.0882   -1.3099   -0.1102 C   0  0  0  0  0  0  0  0  0  0  0  0
   -3.2290   -1.6217    0.1854 C   0  0  0  0  0  0  0  0  0  0  0  0
    4.5156    0.0193   -0.2490 C   0  0  0  0  0  0  0  0  0  0  0  0
   -2.1132   -1.1740    0.8420 C   0  0  0  0  0  0  0  0  0  0  0  0
    6.7975   -0.6761    0.4658 C   0  0  0  0  0  0  0  0  0  0  0  0
    7.4862   -1.0998    1.7683 C   0  0  0  0  0  0  0  0  0  0  0  0
    6.8881   -1.8094   -0.5614 C   0  0  0  0  0  0  0  0  0  0  0  0
    7.4761    0.5820   -0.0882 C   0  0  0  0  0  0  0  0  0  0  0  0
    0.0662    0.6952   -1.2643 H   0  0  0  0  0  0  0  0  0  0  0  0
    2.3187    0.1548   -1.6623 H   0  0  0  0  0  0  0  0  0  0  0  0
    1.8046    2.4465   -1.9800 H   0  0  0  0  0  0  0  0  0  0  0  0
    3.3891    2.4363   -1.2282 H   0  0  0  0  0  0  0  0  0  0  0  0
   -0.8955    1.3260    0.9129 H   0  0  0  0  0  0  0  0  0  0  0  0
    0.6822    1.2392    1.6868 H   0  0  0  0  0  0  0  0  0  0  0  0
    0.6622   -1.1613    1.0880 H   0  0  0  0  0  0  0  0  0  0  0  0
    0.9489   -1.6635   -0.5762 H   0  0  0  0  0  0  0  0  0  0  0  0
   -5.4639   -0.7035   -1.1159 H   0  0  0  0  0  0  0  0  0  0  0  0
    3.2031    0.9381    1.1657 H   0  0  0  0  0  0  0  0  0  0  0  0
    2.8311   -0.7277    0.7397 H   0  0  0  0  0  0  0  0  0  0  0  0
    2.3996    3.0125    0.9772 H   0  0  0  0  0  0  0  0  0  0  0  0
    1.8953    4.1556   -0.2560 H   0  0  0  0  0  0  0  0  0  0  0  0
    0.0764    3.4513    1.0986 H   0  0  0  0  0  0  0  0  0  0  0  0
   -7.0871   -0.9453    1.4669 H   0  0  0  0  0  0  0  0  0  0  0  0
   -7.3455   -1.8553   -0.0196 H   0  0  0  0  0  0  0  0  0  0  0  0
   -4.0350    0.9209    0.0794 H   0  0  0  0  0  0  0  0  0  0  0  0
   -5.0213    0.7639    1.5327 H   0  0  0  0  0  0  0  0  0  0  0  0
   -4.7251   -1.7719    1.6558 H   0  0  0  0  0  0  0  0  0  0  0  0
   -5.0022   -2.7437    0.2236 H   0  0  0  0  0  0  0  0  0  0  0  0
   -8.9252    0.0599    0.2013 H   0  0  0  0  0  0  0  0  0  0  0  0
   -7.9277    0.1825   -1.2459 H   0  0  0  0  0  0  0  0  0  0  0  0
   -5.8725    1.8848   -1.1801 H   0  0  0  0  0  0  0  0  0  0  0  0
   -5.6220    2.7954    0.3073 H   0  0  0  0  0  0  0  0  0  0  0  0
   -8.0436    2.3736   -0.1507 H   0  0  0  0  0  0  0  0  0  0  0  0
   -7.5228    1.6852    1.3856 H   0  0  0  0  0  0  0  0  0  0  0  0
   -2.0529   -0.8079    1.8563 H   0  0  0  0  0  0  0  0  0  0  0  0
    5.0675   -0.4962    1.6848 H   0  0  0  0  0  0  0  0  0  0  0  0
    8.5458   -1.3261    1.6054 H   0  0  0  0  0  0  0  0  0  0  0  0
    7.0132   -1.9929    2.1930 H   0  0  0  0  0  0  0  0  0  0  0  0
    7.4237   -0.3083    2.5243 H   0  0  0  0  0  0  0  0  0  0  0  0
    6.5067   -1.5284   -1.5475 H   0  0  0  0  0  0  0  0  0  0  0  0
    6.3232   -2.6888   -0.2298 H   0  0  0  0  0  0  0  0  0  0  0  0
    7.9297   -2.1208   -0.7042 H   0  0  0  0  0  0  0  0  0  0  0  0
    7.0952    0.8784   -1.0700 H   0  0  0  0  0  0  0  0  0  0  0  0
    7.3379    1.4344    0.5874 H   0  0  0  0  0  0  0  0  0  0  0  0
    8.5547    0.4226   -0.2034 H   0  0  0  0  0  0  0  0  0  0  0  0
  1  5  1  0  0  0  0
  1 21  1  0  0  0  0
  2 22  2  0  0  0  0
  3  9  1  0  0  0  0
  3 13  1  0  0  0  0
  3 41  1  0  0  0  0
  4 22  1  0  0  0  0
  4 24  1  0  0  0  0
  4 55  1  0  0  0  0
  5 20  2  0  0  0  0
  6  7  1  0  0  0  0
  6  9  1  0  0  0  0
  6 10  1  0  0  0  0
  6 28  1  0  0  0  0
  7  8  1  0  0  0  0
  7 12  1  0  0  0  0
  7 29  1  0  0  0  0
  8 13  1  0  0  0  0
  8 30  1  0  0  0  0
  8 31  1  0  0  0  0
  9 32  1  0  0  0  0
  9 33  1  0  0  0  0
 10 20  1  0  0  0  0
 10 34  1  0  0  0  0
 10 35  1  0  0  0  0
 11 14  1  0  0  0  0
 11 15  1  0  0  0  0
 11 16  1  0  0  0  0
 11 36  1  0  0  0  0
 12 22  1  0  0  0  0
 12 37  1  0  0  0  0
 12 38  1  0  0  0  0
 13 39  1  0  0  0  0
 13 40  1  0  0  0  0
 14 17  1  0  0  0  0
 14 42  1  0  0  0  0
 14 43  1  0  0  0  0
 15 18  1  0  0  0  0
 15 44  1  0  0  0  0
 15 45  1  0  0  0  0
 16 21  1  0  0  0  0
 16 46  1  0  0  0  0
 16 47  1  0  0  0  0
 17 19  1  0  0  0  0
 17 48  1  0  0  0  0
 17 49  1  0  0  0  0
 18 19  1  0  0  0  0
 18 50  1  0  0  0  0
 18 51  1  0  0  0  0
 19 52  1  0  0  0  0
 19 53  1  0  0  0  0
 20 23  1  0  0  0  0
 21 23  2  0  0  0  0
 23 54  1  0  0  0  0
 24 25  1  0  0  0  0
 24 26  1  0  0  0  0
 24 27  1  0  0  0  0
 25 56  1  0  0  0  0
 25 57  1  0  0  0  0
 25 58  1  0  0  0  0
 26 59  1  0  0  0  0
 26 60  1  0  0  0  0
 26 61  1  0  0  0  0
 27 62  1  0  0  0  0
 27 63  1  0  0  0  0
 27 64  1  0  0  0  0
M  END
> <PUBCHEM_COMPOUND_CID>
26743246

> <PUBCHEM_CONFORMER_RMSD>
1.4

> <PUBCHEM_CONFORMER_DIVERSEORDER>
1
23
15
48
51
7
69
34
62
33
79
40
29
14
86
16
27
6
25
72
64
24
77
41
9
39
78
18
47
3
58
54
36
50
2
82
75
49
52
60
42
85
32
87
28
10
43
73
45
88
44
53
19
13
83
20
80
68
84
37
4
61
35
38
71
70
63
74
76
12
22
26
55
21
57
46
67
5
8
17
56
11
30
59
31
81
65
66

> <PUBCHEM_MMFF94_PARTIAL_CHARGES>
18
1 -0.02
10 0.18
12 0.06
13 0.27
16 0.18
2 -0.57
20 0.11
21 -0.04
22 0.57
23 -0.15
24 0.3
3 -0.9
4 -0.73
41 0.36
5 -0.41
54 0.15
55 0.37
9 0.27

> <PUBCHEM_EFFECTIVE_ROTOR_COUNT>
10.4

> <PUBCHEM_PHARMACOPHORE_FEATURES>
9
1 2 acceptor
1 3 cation
1 3 donor
1 4 donor
1 5 acceptor
4 24 25 26 27 hydrophobe
5 1 5 20 21 23 rings
6 11 14 15 17 18 19 rings
6 3 6 7 8 9 13 rings

> <PUBCHEM_HEAVY_ATOM_COUNT>
27

> <PUBCHEM_ATOM_DEF_STEREO_COUNT>
2

> <PUBCHEM_ATOM_UDEF_STEREO_COUNT>
0

> <PUBCHEM_BOND_DEF_STEREO_COUNT>
0

> <PUBCHEM_BOND_UDEF_STEREO_COUNT>
0

> <PUBCHEM_ISOTOPIC_ATOM_COUNT>
0

> <PUBCHEM_COMPONENT_COUNT>
1

> <PUBCHEM_CACTVS_TAUTO_COUNT>
2

> <PUBCHEM_CONFORMER_ID>
019811CE00000001

> <PUBCHEM_MMFF94_ENERGY>
35.1242

> <PUBCHEM_FEATURE_SELFOVERLAP>
45.671

> <PUBCHEM_SHAPE_FINGERPRINT>
10050765 1 18123469642298546521
100830 39 18334294245821970581
10299344 5 17458345242862344450
10670039 82 18408880716872893001
10674148 151 18186237325750599666
12107183 9 18410572902978162475
12144603 126 18259989301851420612
12592606 108 18408321116097306643
13914758 101 18413672396218537523
14117953 113 18201727236814699894
14123256 10 10087640403395083747
14251752 14 18334295365985060193
14251764 18 18260829310426459599
14347424 109 18341326765253454496
14675019 173 17675926495234936221
15142383 8 18334294271237963188
15183329 4 18409176514641889181
15238133 3 18334864930230309183
15276724 80 17676489479627087500
15301273 46 17704079491244049902
15461852 350 17131831014651151367
15537594 2 12107781960909964609
15849732 13 18202844348585360599
16087824 20 18338518517951529637
20105231 36 12901550122053678745
20832881 197 18334295405014267040
21150785 3 11887669580772215602
21298829 104 18130795512602947321
21521721 280 11097863994683008582
21774942 28 16773247175968720713
21792934 111 18411972569097215280
21859007 373 18272927207050398033
22224240 67 10735877266127533510
23522609 53 17604735333359736204
24893992 56 18334861641498709395
2838139 119 18412261758061782805
3009799 131 17203327810319139603
3103668 31 18042682810621265637
335352 9 18411138052144607365
34797466 226 14129061413848543978
4017518 198 17275111630732162094
4098825 35 17458627856527641452
4258327 124 11887371665409802178
4325135 7 11024108746207179251
437795 51 12396591757623931742
5104073 3 18056489580120649507
5207 217 9511461126020976118
559249 180 18411419522937412627
59755656 520 17530964713887511987
6081469 158 17632865201012847190
6138700 20 18410294697051715505
6328613 192 18188217605620665837
6371380 46 18334856147064679291

> <PUBCHEM_SHAPE_MULTIPOLES>
528.97
23.61
2.62
1.05
0.75
1.46
0.01
-3.53
3.6
-0.59
-0.1
1.16
-0.21
-0.78

> <PUBCHEM_SHAPE_SELFOVERLAP>
1080.673

> <PUBCHEM_SHAPE_VOLUME>
303.5

> <PUBCHEM_COORDINATE_TYPE>
2
5
10

$$$$
