45361366
  -OEChem-12032416343D

 68 70  0     1  0  0  0  0  0999 V2000
   -0.1210   -0.1280    2.1047 O   0  0  0  0  0  0  0  0  0  0  0  0
    3.7852    2.3033   -0.3925 O   0  0  0  0  0  0  0  0  0  0  0  0
   -6.0849   -2.3117   -0.5886 O   0  0  0  0  0  0  0  0  0  0  0  0
   -5.2564   -0.3737    0.3991 N   0  0  0  0  0  0  0  0  0  0  0  0
    4.2220    0.1875    0.4616 N   0  0  0  0  0  0  0  0  0  0  0  0
   -1.5346    1.0326   -1.2464 C   0  0  1  0  0  0  0  0  0  0  0  0
   -1.4608    0.2404    0.1011 C   0  0  2  0  0  0  0  0  0  0  0  0
   -2.8680    0.1896    0.7976 C   0  0  1  0  0  0  0  0  0  0  0  0
   -0.2921    0.7513    0.9922 C   0  0  2  0  0  0  0  0  0  0  0  0
   -0.1633    0.9669   -1.9594 C   0  0  0  0  0  0  0  0  0  0  0  0
    1.0592    0.7816    0.2408 C   0  0  1  0  0  0  0  0  0  0  0  0
   -2.5775    0.3612   -2.1696 C   0  0  0  0  0  0  0  0  0  0  0  0
   -3.9246   -0.4183   -0.1672 C   0  0  2  0  0  0  0  0  0  0  0  0
    0.9774    1.5029   -1.1044 C   0  0  0  0  0  0  0  0  0  0  0  0
   -3.9580    0.2595   -1.5368 C   0  0  0  0  0  0  0  0  0  0  0  0
   -1.9178    2.5201   -1.0408 C   0  0  0  0  0  0  0  0  0  0  0  0
    2.1697    1.4094    1.0921 C   0  0  2  0  0  0  0  0  0  0  0  0
   -2.8740   -0.6008    2.1170 C   0  0  0  0  0  0  0  0  0  0  0  0
    1.8414    2.8485    1.4459 C   0  0  0  0  0  0  0  0  0  0  0  0
    3.4627    1.3483    0.3187 C   0  0  0  0  0  0  0  0  0  0  0  0
   -6.2208   -1.3292    0.1358 C   0  0  0  0  0  0  0  0  0  0  0  0
    5.5089    0.0689   -0.2258 C   0  0  0  0  0  0  0  0  0  0  0  0
    3.8653   -0.9637    1.2990 C   0  0  0  0  0  0  0  0  0  0  0  0
    5.5580   -1.1983   -1.0761 C   0  0  0  0  0  0  0  0  0  0  0  0
    3.8814   -2.2540    0.4812 C   0  0  0  0  0  0  0  0  0  0  0  0
    5.2253   -2.4425   -0.2389 C   0  0  0  0  0  0  0  0  0  0  0  0
   -7.5056   -1.0564    0.8714 C   0  0  0  0  0  0  0  0  0  0  0  0
    5.2031   -3.6950   -1.1117 C   0  0  0  0  0  0  0  0  0  0  0  0
   -1.2189   -0.8061   -0.1450 H   0  0  0  0  0  0  0  0  0  0  0  0
   -3.1742    1.2120    1.0529 H   0  0  0  0  0  0  0  0  0  0  0  0
   -0.5696    1.7291    1.3911 H   0  0  0  0  0  0  0  0  0  0  0  0
   -0.1983    1.5263   -2.9032 H   0  0  0  0  0  0  0  0  0  0  0  0
    0.0624   -0.0737   -2.2295 H   0  0  0  0  0  0  0  0  0  0  0  0
    1.3414   -0.2597    0.0303 H   0  0  0  0  0  0  0  0  0  0  0  0
   -2.2412   -0.6512   -2.4308 H   0  0  0  0  0  0  0  0  0  0  0  0
   -2.6574    0.9111   -3.1160 H   0  0  0  0  0  0  0  0  0  0  0  0
   -3.6694   -1.4753   -0.3260 H   0  0  0  0  0  0  0  0  0  0  0  0
    1.8938    1.3502   -1.6854 H   0  0  0  0  0  0  0  0  0  0  0  0
    0.8514    2.5826   -1.0036 H   0  0  0  0  0  0  0  0  0  0  0  0
   -4.4093    1.2559   -1.4549 H   0  0  0  0  0  0  0  0  0  0  0  0
   -4.6158   -0.3020   -2.2129 H   0  0  0  0  0  0  0  0  0  0  0  0
   -1.2249    3.0427   -0.3755 H   0  0  0  0  0  0  0  0  0  0  0  0
   -2.9144    2.6461   -0.6100 H   0  0  0  0  0  0  0  0  0  0  0  0
   -1.9148    3.0543   -1.9982 H   0  0  0  0  0  0  0  0  0  0  0  0
    2.2729    0.9058    2.0554 H   0  0  0  0  0  0  0  0  0  0  0  0
   -2.3392   -0.0606    2.9031 H   0  0  0  0  0  0  0  0  0  0  0  0
   -3.8884   -0.7466    2.5022 H   0  0  0  0  0  0  0  0  0  0  0  0
   -2.4227   -1.5902    1.9897 H   0  0  0  0  0  0  0  0  0  0  0  0
   -5.5040    0.4302    0.9693 H   0  0  0  0  0  0  0  0  0  0  0  0
    0.0852   -1.0139    1.7608 H   0  0  0  0  0  0  0  0  0  0  0  0
    1.6973    3.5105    0.5888 H   0  0  0  0  0  0  0  0  0  0  0  0
    2.6766    3.2820    2.0120 H   0  0  0  0  0  0  0  0  0  0  0  0
    0.9679    2.9329    2.0978 H   0  0  0  0  0  0  0  0  0  0  0  0
    5.6967    0.9436   -0.8563 H   0  0  0  0  0  0  0  0  0  0  0  0
    6.2902    0.0458    0.5432 H   0  0  0  0  0  0  0  0  0  0  0  0
    4.6038   -1.0155    2.1078 H   0  0  0  0  0  0  0  0  0  0  0  0
    2.8852   -0.8808    1.7643 H   0  0  0  0  0  0  0  0  0  0  0  0
    4.8391   -1.1063   -1.9007 H   0  0  0  0  0  0  0  0  0  0  0  0
    6.5530   -1.3000   -1.5247 H   0  0  0  0  0  0  0  0  0  0  0  0
    3.6856   -3.1075    1.1408 H   0  0  0  0  0  0  0  0  0  0  0  0
    3.0695   -2.2235   -0.2570 H   0  0  0  0  0  0  0  0  0  0  0  0
    6.0098   -2.5708    0.5188 H   0  0  0  0  0  0  0  0  0  0  0  0
   -7.3393   -1.1488    1.9482 H   0  0  0  0  0  0  0  0  0  0  0  0
   -8.2676   -1.7777    0.5636 H   0  0  0  0  0  0  0  0  0  0  0  0
   -7.8620   -0.0481    0.6419 H   0  0  0  0  0  0  0  0  0  0  0  0
    4.4359   -3.6253   -1.8902 H   0  0  0  0  0  0  0  0  0  0  0  0
    4.9932   -4.5845   -0.5083 H   0  0  0  0  0  0  0  0  0  0  0  0
    6.1708   -3.8430   -1.6023 H   0  0  0  0  0  0  0  0  0  0  0  0
  1  9  1  0  0  0  0
  1 50  1  0  0  0  0
  2 20  2  0  0  0  0
  3 21  2  0  0  0  0
  4 13  1  0  0  0  0
  4 21  1  0  0  0  0
  4 49  1  0  0  0  0
  5 20  1  0  0  0  0
  5 22  1  0  0  0  0
  5 23  1  0  0  0  0
  6  7  1  0  0  0  0
  6 10  1  0  0  0  0
  6 12  1  0  0  0  0
  6 16  1  0  0  0  0
  7  8  1  0  0  0  0
  7  9  1  0  0  0  0
  7 29  1  0  0  0  0
  8 13  1  0  0  0  0
  8 18  1  0  0  0  0
  8 30  1  0  0  0  0
  9 11  1  0  0  0  0
  9 31  1  0  0  0  0
 10 14  1  0  0  0  0
 10 32  1  0  0  0  0
 10 33  1  0  0  0  0
 11 14  1  0  0  0  0
 11 17  1  0  0  0  0
 11 34  1  0  0  0  0
 12 15  1  0  0  0  0
 12 35  1  0  0  0  0
 12 36  1  0  0  0  0
 13 15  1  0  0  0  0
 13 37  1  0  0  0  0
 14 38  1  0  0  0  0
 14 39  1  0  0  0  0
 15 40  1  0  0  0  0
 15 41  1  0  0  0  0
 16 42  1  0  0  0  0
 16 43  1  0  0  0  0
 16 44  1  0  0  0  0
 17 19  1  0  0  0  0
 17 20  1  0  0  0  0
 17 45  1  0  0  0  0
 18 46  1  0  0  0  0
 18 47  1  0  0  0  0
 18 48  1  0  0  0  0
 19 51  1  0  0  0  0
 19 52  1  0  0  0  0
 19 53  1  0  0  0  0
 21 27  1  0  0  0  0
 22 24  1  0  0  0  0
 22 54  1  0  0  0  0
 22 55  1  0  0  0  0
 23 25  1  0  0  0  0
 23 56  1  0  0  0  0
 23 57  1  0  0  0  0
 24 26  1  0  0  0  0
 24 58  1  0  0  0  0
 24 59  1  0  0  0  0
 25 26  1  0  0  0  0
 25 60  1  0  0  0  0
 25 61  1  0  0  0  0
 26 28  1  0  0  0  0
 26 62  1  0  0  0  0
 27 63  1  0  0  0  0
 27 64  1  0  0  0  0
 27 65  1  0  0  0  0
 28 66  1  0  0  0  0
 28 67  1  0  0  0  0
 28 68  1  0  0  0  0
M  END
> <PUBCHEM_COMPOUND_CID>
45361366

> <PUBCHEM_CONFORMER_RMSD>
0.8

> <PUBCHEM_CONFORMER_DIVERSEORDER>
1
21
15
33
28
63
70
39
64
16
42
51
38
36
66
45
41
47
60
44
57
12
49
59
52
27
48
10
40
50
5
61
31
58
19
32
24
55
18
54
53
2
56
65
30
20
22
29
26
69
46
11
67
6
25
17
13
62
37
9
7
23
3
8
14
43
68
34
35
4

> <PUBCHEM_MMFF94_PARTIAL_CHARGES>
15
1 -0.68
13 0.3
17 0.06
2 -0.57
20 0.57
21 0.57
22 0.3
23 0.3
27 0.06
3 -0.57
4 -0.73
49 0.37
5 -0.66
50 0.4
9 0.28

> <PUBCHEM_EFFECTIVE_ROTOR_COUNT>
7.8

> <PUBCHEM_PHARMACOPHORE_FEATURES>
9
1 1 acceptor
1 1 donor
1 19 hydrophobe
1 2 acceptor
1 3 acceptor
1 4 donor
6 5 22 23 24 25 26 rings
6 6 7 8 12 13 15 rings
6 6 7 9 10 11 14 rings

> <PUBCHEM_HEAVY_ATOM_COUNT>
28

> <PUBCHEM_ATOM_DEF_STEREO_COUNT>
6

> <PUBCHEM_ATOM_UDEF_STEREO_COUNT>
1

> <PUBCHEM_BOND_DEF_STEREO_COUNT>
0

> <PUBCHEM_BOND_UDEF_STEREO_COUNT>
0

> <PUBCHEM_ISOTOPIC_ATOM_COUNT>
0

> <PUBCHEM_COMPONENT_COUNT>
1

> <PUBCHEM_CACTVS_TAUTO_COUNT>
2

> <PUBCHEM_CONFORMER_ID>
02B428D600000001

> <PUBCHEM_MMFF94_ENERGY>
76.5181

> <PUBCHEM_FEATURE_SELFOVERLAP>
45.685

> <PUBCHEM_SHAPE_FINGERPRINT>
10 15 15410897396409164587
10319926 262 13398623944883390724
10498660 4 16153702081947578452
10906281 52 14779541233135799905
10928967 22 17844518921496319510
11595378 159 16343702110590168616
117089 54 17913219663479907958
11961588 58 14129065824098877360
11991303 11 17833840365271797380
12236239 1 17417815066613739033
12422481 6 16056323800041633148
12596602 18 16916775332093163194
12623949 98 18412268358424515622
12633257 1 16988559156220273045
13140716 1 14476104761226562105
13533116 47 18342739654004415345
13617811 41 16153426160242320631
13673619 4 18407760322032344941
13782708 43 18408599279986301235
14251764 30 18412825767796167687
14347332 77 18114454570268603209
15131766 46 17413296216328615033
15475509 35 17988919011320598146
15475509 8 17531249414094245133
15510800 12 18334575699229204770
16728300 4 17702668722556137127
17349148 13 16773790403057739316
17492 54 14562540561240934542
1813 80 17703508805812318284
20505436 4 16915093182530379208
20554085 129 13614526225757207871
20645477 70 18408601474798621848
20715895 44 8502653710236943766
21150785 3 12685091510583640451
21267235 1 16950282949492949041
21344244 181 18187088373077937715
21641784 216 15430025540199975967
21792934 111 14979411569213522963
23559900 14 17241332519854086613
23569914 152 17472096650624356415
23569943 247 18188769440779351323
2838139 119 8646776586177951111
33382 64 18413670210101126614
3459 39 13829856755809261099
345986 75 17632010837327880762
3472631 163 12324250464074774498
34797466 226 17458632249967766916
3886686 26 16193710942991260559
4072396 5 15770063843337573377
46194498 28 18113336436158640820
465052 167 18131635586504238062
54039377 194 18200599086772781582
58260988 647 18410864221967441426
59755656 215 17821726143946269331
6608658 132 13984660304671247470
7970288 3 18201158724821205046
86090 222 18259704505963657618

> <PUBCHEM_SHAPE_MULTIPOLES>
548.66
15.48
2.93
1.85
9.69
0.97
-0.08
13.93
-0.24
-3.73
-0.39
0.79
-0.3
1.78

> <PUBCHEM_SHAPE_SELFOVERLAP>
1123.411

> <PUBCHEM_SHAPE_VOLUME>
313.6

> <PUBCHEM_COORDINATE_TYPE>
2
5
10

$$$$
