45784238
  -OEChem-12032416243D

 41 44  0     1  0  0  0  0  0999 V2000
    6.7873   -0.7488    0.4595 F   0  0  0  0  0  0  0  0  0  0  0  0
   -6.2819   -1.1271    0.1578 O   0  0  0  0  0  0  0  0  0  0  0  0
   -2.5154    0.7231    0.2861 N   0  0  1  0  0  0  0  0  0  0  0  0
    2.1868    0.6842    1.2066 N   0  0  0  0  0  0  0  0  0  0  0  0
    1.5141    0.0798   -0.8237 N   0  0  0  0  0  0  0  0  0  0  0  0
   -3.5908   -0.1566   -0.1654 C   0  0  0  0  0  0  0  0  0  0  0  0
   -0.2356    1.0932    0.6924 C   0  0  2  0  0  0  0  0  0  0  0  0
   -1.2964   -0.0138    0.6263 C   0  0  0  0  0  0  0  0  0  0  0  0
   -2.1048    1.6757   -0.7454 C   0  0  0  0  0  0  0  0  0  0  0  0
   -0.7876    2.2157   -0.2035 C   0  0  0  0  0  0  0  0  0  0  0  0
   -3.9834   -1.1323    0.9476 C   0  0  0  0  0  0  0  0  0  0  0  0
   -4.8140    0.6514   -0.6098 C   0  0  0  0  0  0  0  0  0  0  0  0
    1.1469    0.6074    0.3225 C   0  0  0  0  0  0  0  0  0  0  0  0
   -5.1861   -1.9669    0.5211 C   0  0  0  0  0  0  0  0  0  0  0  0
   -5.9706   -0.2821   -0.9500 C   0  0  0  0  0  0  0  0  0  0  0  0
    3.2992    0.1717    0.5899 C   0  0  0  0  0  0  0  0  0  0  0  0
    2.8535   -0.1984   -0.6759 C   0  0  0  0  0  0  0  0  0  0  0  0
    4.6168    0.0053    1.0176 C   0  0  0  0  0  0  0  0  0  0  0  0
    3.7627   -0.7700   -1.5820 C   0  0  0  0  0  0  0  0  0  0  0  0
    5.5082   -0.5650    0.1030 C   0  0  0  0  0  0  0  0  0  0  0  0
    5.0909   -0.9465   -1.1743 C   0  0  0  0  0  0  0  0  0  0  0  0
   -3.2495   -0.7468   -1.0289 H   0  0  0  0  0  0  0  0  0  0  0  0
   -0.2042    1.4816    1.7209 H   0  0  0  0  0  0  0  0  0  0  0  0
   -1.0457   -0.7608   -0.1386 H   0  0  0  0  0  0  0  0  0  0  0  0
   -1.3681   -0.5200    1.5948 H   0  0  0  0  0  0  0  0  0  0  0  0
   -2.8174    2.4950   -0.8815 H   0  0  0  0  0  0  0  0  0  0  0  0
   -1.9348    1.1856   -1.7128 H   0  0  0  0  0  0  0  0  0  0  0  0
   -0.9682    3.1108    0.4049 H   0  0  0  0  0  0  0  0  0  0  0  0
   -0.1087    2.4978   -1.0153 H   0  0  0  0  0  0  0  0  0  0  0  0
   -3.1651   -1.8139    1.2025 H   0  0  0  0  0  0  0  0  0  0  0  0
   -4.2459   -0.5698    1.8532 H   0  0  0  0  0  0  0  0  0  0  0  0
   -5.1261    1.3214    0.2021 H   0  0  0  0  0  0  0  0  0  0  0  0
   -4.6007    1.2672   -1.4899 H   0  0  0  0  0  0  0  0  0  0  0  0
   -5.5133   -2.5998    1.3522 H   0  0  0  0  0  0  0  0  0  0  0  0
   -4.9375   -2.6262   -0.3190 H   0  0  0  0  0  0  0  0  0  0  0  0
   -5.7414   -0.8995   -1.8266 H   0  0  0  0  0  0  0  0  0  0  0  0
   -6.8653    0.3038   -1.1834 H   0  0  0  0  0  0  0  0  0  0  0  0
    2.1470    1.0522    2.1479 H   0  0  0  0  0  0  0  0  0  0  0  0
    4.9386    0.3021    2.0092 H   0  0  0  0  0  0  0  0  0  0  0  0
    3.4482   -1.0697   -2.5766 H   0  0  0  0  0  0  0  0  0  0  0  0
    5.8071   -1.3872   -1.8629 H   0  0  0  0  0  0  0  0  0  0  0  0
  1 20  1  0  0  0  0
  2 14  1  0  0  0  0
  2 15  1  0  0  0  0
  3  6  1  0  0  0  0
  3  8  1  0  0  0  0
  3  9  1  0  0  0  0
  4 13  1  0  0  0  0
  4 16  1  0  0  0  0
  4 38  1  0  0  0  0
  5 13  2  0  0  0  0
  5 17  1  0  0  0  0
  6 11  1  0  0  0  0
  6 12  1  0  0  0  0
  6 22  1  0  0  0  0
  7  8  1  0  0  0  0
  7 10  1  0  0  0  0
  7 13  1  0  0  0  0
  7 23  1  0  0  0  0
  8 24  1  0  0  0  0
  8 25  1  0  0  0  0
  9 10  1  0  0  0  0
  9 26  1  0  0  0  0
  9 27  1  0  0  0  0
 10 28  1  0  0  0  0
 10 29  1  0  0  0  0
 11 14  1  0  0  0  0
 11 30  1  0  0  0  0
 11 31  1  0  0  0  0
 12 15  1  0  0  0  0
 12 32  1  0  0  0  0
 12 33  1  0  0  0  0
 14 34  1  0  0  0  0
 14 35  1  0  0  0  0
 15 36  1  0  0  0  0
 15 37  1  0  0  0  0
 16 17  2  0  0  0  0
 16 18  1  0  0  0  0
 17 19  1  0  0  0  0
 18 20  2  0  0  0  0
 18 39  1  0  0  0  0
 19 21  2  0  0  0  0
 19 40  1  0  0  0  0
 20 21  1  0  0  0  0
 21 41  1  0  0  0  0
M  END
> <PUBCHEM_COMPOUND_CID>
45784238

> <PUBCHEM_CONFORMER_RMSD>
0.6

> <PUBCHEM_CONFORMER_DIVERSEORDER>
1
56
37
12
55
38
36
54
44
51
18
58
34
33
52
30
8
26
53
40
23
57
49
24
39
43
10
15
47
41
35
27
11
50
5
13
45
48
46
22
4
21
25
14
28
6
16
9
32
2
42
7
29
19
20
31
3
17

> <PUBCHEM_MMFF94_PARTIAL_CHARGES>
22
1 -0.19
13 0.01
14 0.28
15 0.28
16 -0.15
17 0.23
18 -0.15
19 -0.15
2 -0.56
20 0.19
21 -0.15
3 -0.81
38 0.27
39 0.15
4 0.03
40 0.15
41 0.15
5 -0.57
6 0.27
7 0.18
8 0.27
9 0.27

> <PUBCHEM_EFFECTIVE_ROTOR_COUNT>
4.2

> <PUBCHEM_PHARMACOPHORE_FEATURES>
8
1 2 acceptor
1 3 cation
1 4 donor
3 4 5 13 cation
5 3 7 8 9 10 rings
5 4 5 13 16 17 rings
6 16 17 18 19 20 21 rings
6 2 6 11 12 14 15 rings

> <PUBCHEM_HEAVY_ATOM_COUNT>
21

> <PUBCHEM_ATOM_DEF_STEREO_COUNT>
1

> <PUBCHEM_ATOM_UDEF_STEREO_COUNT>
0

> <PUBCHEM_BOND_DEF_STEREO_COUNT>
0

> <PUBCHEM_BOND_UDEF_STEREO_COUNT>
0

> <PUBCHEM_ISOTOPIC_ATOM_COUNT>
0

> <PUBCHEM_COMPONENT_COUNT>
1

> <PUBCHEM_CACTVS_TAUTO_COUNT>
2

> <PUBCHEM_CONFORMER_ID>
02BA9CAE00000001

> <PUBCHEM_MMFF94_ENERGY>
33.5729

> <PUBCHEM_FEATURE_SELFOVERLAP>
40.704

> <PUBCHEM_SHAPE_FINGERPRINT>
10 15 18129930266177487528
10354089 29 14405185075723796458
106641 1 13398622888221338711
10693767 8 16298935443706319978
10803635 8 17894345584289181159
11089746 13 15213020453622152124
11128504 68 16443348697541881301
11315181 36 18410294718315763369
11796584 16 18408039602397071907
12166972 35 17240485822859706244
12236239 1 17167860850862270392
12403259 118 13182744753875667307
12516196 113 17561363993611683457
12633257 1 15913328022176912101
12788726 201 17677041340185998209
12969540 114 12035725457440029003
13288520 33 18335137596830553537
13402501 40 18272937123987589775
13533116 47 15698006206545314174
13544653 18 17846502538866223089
13685833 64 18272654575833018059
13862211 1 18409447011962103779
1420 363 18201721755750497215
14251752 14 17313375708898225053
14251764 18 14548734024096396061
14294032 229 17387965375442740437
14341114 176 16128661838253447356
14386348 63 18272088301126419295
14528608 73 15213020474622371015
14848160 23 18342737420574071723
14849402 71 14835541675236342570
15183329 4 15502370127857237779
17844677 252 18411704291922210145
17870717 6 18260550026795653919
1813 80 17274836760829556277
18222031 100 18410858775880188396
18681886 176 17822007648992772168
19141452 34 17775282811522721039
193927 3 18342468057769028761
19489759 90 18186519886968881245
200 152 16515686632395302037
20281389 69 9871746888766347766
20374829 77 18334857225491567945
21054139 6 17748825220179032634
21150785 3 17967258602921440710
21267235 1 18113901602816132147
21623969 137 17561084696252041758
22224240 67 16773788217478522118
22289505 5 12829206676984381686
23035841 295 18187085053346947491
23198884 109 15502093055765239991
23402539 116 17967531259470475341
23402655 69 14418135127427390568
23536379 177 16225763012868951479
23557571 272 18340201895210776461
23559900 14 18114460170785092657
239999 70 18342175587929144138
26918003 58 17561363989300748907
2838139 119 13551186693263957911
293599 30 8790886280715893417
29717793 49 17095244692460058086
3004659 81 17676485068405003240
312425 54 17203622479778794411
314173 85 18343026583959155681
3545911 37 11025799786194925769
4325135 7 18409731803075592788
465052 167 18202002127564178102
5104073 3 16988003757104493650
542803 24 15068339008241261849
56616090 284 18041001752089125537
5718773 13 18269556032029115310
5758199 1 15195275453116357874
59682541 35 17846769729430541186
59755656 215 18335420140758950322
7495541 125 18342176687451717688

> <PUBCHEM_SHAPE_MULTIPOLES>
404.08
15.95
1.56
1.19
0.49
0.28
0.16
-8.24
1.2
1.63
0.01
-0.72
-0.12
1.16

> <PUBCHEM_SHAPE_SELFOVERLAP>
877.592

> <PUBCHEM_SHAPE_VOLUME>
224.5

> <PUBCHEM_COORDINATE_TYPE>
2
5
10

$$$$
