71693881
  -OEChem-12032416293D

 46 48  0     1  0  0  0  0  0999 V2000
    0.6063    3.9122   -1.2532 O   0  0  0  0  0  0  0  0  0  0  0  0
    3.2416    3.2396   -0.8758 O   0  0  0  0  0  0  0  0  0  0  0  0
   -0.3684   -0.5972   -1.2704 O   0  0  0  0  0  0  0  0  0  0  0  0
    4.0845   -3.7872   -0.0502 O   0  0  0  0  0  0  0  0  0  0  0  0
   -0.5438    1.3242    0.0170 N   0  0  0  0  0  0  0  0  0  0  0  0
   -7.6848   -1.1700    0.4649 N   0  0  0  0  0  0  0  0  0  0  0  0
    1.7167    1.2450    1.0265 C   0  0  2  0  0  0  0  0  0  0  0  0
    0.8244    1.7523   -0.1288 C   0  0  2  0  0  0  0  0  0  0  0  0
    0.9590    3.2718   -0.0416 C   0  0  1  0  0  0  0  0  0  0  0  0
    2.7326    2.3825    1.3064 C   0  0  0  0  0  0  0  0  0  0  0  0
    2.4362    3.4704    0.2761 C   0  0  1  0  0  0  0  0  0  0  0  0
    2.3498   -0.1001    0.7393 C   0  0  0  0  0  0  0  0  0  0  0  0
    2.0918   -1.1858    1.5762 C   0  0  0  0  0  0  0  0  0  0  0  0
    3.1907   -0.2535   -0.3629 C   0  0  0  0  0  0  0  0  0  0  0  0
   -1.0324    0.1674   -0.5754 C   0  0  0  0  0  0  0  0  0  0  0  0
    2.6750   -2.4247    1.3111 C   0  0  0  0  0  0  0  0  0  0  0  0
    3.7739   -1.4924   -0.6281 C   0  0  0  0  0  0  0  0  0  0  0  0
    3.5162   -2.5781    0.2089 C   0  0  0  0  0  0  0  0  0  0  0  0
   -2.4723   -0.1212   -0.3510 C   0  0  0  0  0  0  0  0  0  0  0  0
   -3.1880   -0.8689   -1.2861 C   0  0  0  0  0  0  0  0  0  0  0  0
   -3.1081    0.3546    0.7958 C   0  0  0  0  0  0  0  0  0  0  0  0
   -4.5396   -1.1410   -1.0743 C   0  0  0  0  0  0  0  0  0  0  0  0
   -4.4597    0.0826    1.0075 C   0  0  0  0  0  0  0  0  0  0  0  0
   -5.1754   -0.6653    0.0726 C   0  0  0  0  0  0  0  0  0  0  0  0
    4.9340   -3.8736   -1.1935 C   0  0  0  0  0  0  0  0  0  0  0  0
   -6.5602   -0.9437    0.2890 C   0  0  0  0  0  0  0  0  0  0  0  0
    1.0995    1.1448    1.9316 H   0  0  0  0  0  0  0  0  0  0  0  0
    1.1739    1.4128   -1.1116 H   0  0  0  0  0  0  0  0  0  0  0  0
    0.3342    3.6759    0.7650 H   0  0  0  0  0  0  0  0  0  0  0  0
    2.5399    2.7774    2.3119 H   0  0  0  0  0  0  0  0  0  0  0  0
    3.7745    2.0465    1.2769 H   0  0  0  0  0  0  0  0  0  0  0  0
    2.6512    4.4792    0.6412 H   0  0  0  0  0  0  0  0  0  0  0  0
   -1.1566    1.9227    0.5596 H   0  0  0  0  0  0  0  0  0  0  0  0
    0.8068    4.8583   -1.1524 H   0  0  0  0  0  0  0  0  0  0  0  0
    4.1708    3.3403   -0.6075 H   0  0  0  0  0  0  0  0  0  0  0  0
    1.4380   -1.0830    2.4380 H   0  0  0  0  0  0  0  0  0  0  0  0
    3.4086    0.5775   -1.0265 H   0  0  0  0  0  0  0  0  0  0  0  0
    2.4700   -3.2670    1.9662 H   0  0  0  0  0  0  0  0  0  0  0  0
    4.4171   -1.5415   -1.5001 H   0  0  0  0  0  0  0  0  0  0  0  0
   -2.7115   -1.2446   -2.1877 H   0  0  0  0  0  0  0  0  0  0  0  0
   -2.5819    0.9108    1.5656 H   0  0  0  0  0  0  0  0  0  0  0  0
   -5.0845   -1.7244   -1.8127 H   0  0  0  0  0  0  0  0  0  0  0  0
   -4.9401    0.4538    1.9097 H   0  0  0  0  0  0  0  0  0  0  0  0
    5.2989   -4.9045   -1.2477 H   0  0  0  0  0  0  0  0  0  0  0  0
    5.8130   -3.2283   -1.0913 H   0  0  0  0  0  0  0  0  0  0  0  0
    4.3826   -3.6806   -2.1200 H   0  0  0  0  0  0  0  0  0  0  0  0
  1  9  1  0  0  0  0
  1 34  1  0  0  0  0
  2 11  1  0  0  0  0
  2 35  1  0  0  0  0
  3 15  2  0  0  0  0
  4 18  1  0  0  0  0
  4 25  1  0  0  0  0
  5  8  1  0  0  0  0
  5 15  1  0  0  0  0
  5 33  1  0  0  0  0
  6 26  3  0  0  0  0
  7  8  1  0  0  0  0
  7 10  1  0  0  0  0
  7 12  1  0  0  0  0
  7 27  1  0  0  0  0
  8  9  1  0  0  0  0
  8 28  1  0  0  0  0
  9 11  1  0  0  0  0
  9 29  1  0  0  0  0
 10 11  1  0  0  0  0
 10 30  1  0  0  0  0
 10 31  1  0  0  0  0
 11 32  1  0  0  0  0
 12 13  2  0  0  0  0
 12 14  1  0  0  0  0
 13 16  1  0  0  0  0
 13 36  1  0  0  0  0
 14 17  2  0  0  0  0
 14 37  1  0  0  0  0
 15 19  1  0  0  0  0
 16 18  2  0  0  0  0
 16 38  1  0  0  0  0
 17 18  1  0  0  0  0
 17 39  1  0  0  0  0
 19 20  2  0  0  0  0
 19 21  1  0  0  0  0
 20 22  1  0  0  0  0
 20 40  1  0  0  0  0
 21 23  2  0  0  0  0
 21 41  1  0  0  0  0
 22 24  2  0  0  0  0
 22 42  1  0  0  0  0
 23 24  1  0  0  0  0
 23 43  1  0  0  0  0
 24 26  1  0  0  0  0
 25 44  1  0  0  0  0
 25 45  1  0  0  0  0
 25 46  1  0  0  0  0
M  END
> <PUBCHEM_COMPOUND_CID>
71693881

> <PUBCHEM_CONFORMER_RMSD>
0.8

> <PUBCHEM_CONFORMER_DIVERSEORDER>
1
11
14
15
12
16
9
7
10
6
13
2
3
4
5
8

> <PUBCHEM_MMFF94_PARTIAL_CHARGES>
36
1 -0.68
11 0.28
12 -0.14
13 -0.15
14 -0.15
15 0.54
16 -0.15
17 -0.15
18 0.08
19 0.09
2 -0.68
20 -0.15
21 -0.15
22 -0.15
23 -0.15
24 0.07
25 0.28
26 0.48
3 -0.57
33 0.37
34 0.4
35 0.4
36 0.15
37 0.15
38 0.15
39 0.15
4 -0.36
40 0.15
41 0.15
42 0.15
43 0.15
5 -0.73
6 -0.56
7 0.14
8 0.3
9 0.28

> <PUBCHEM_EFFECTIVE_ROTOR_COUNT>
6

> <PUBCHEM_PHARMACOPHORE_FEATURES>
11
1 1 acceptor
1 1 donor
1 2 acceptor
1 2 donor
1 3 acceptor
1 4 acceptor
1 5 donor
1 6 acceptor
5 7 8 9 10 11 rings
6 12 13 14 16 17 18 rings
6 19 20 21 22 23 24 rings

> <PUBCHEM_HEAVY_ATOM_COUNT>
26

> <PUBCHEM_ATOM_DEF_STEREO_COUNT>
4

> <PUBCHEM_ATOM_UDEF_STEREO_COUNT>
0

> <PUBCHEM_BOND_DEF_STEREO_COUNT>
0

> <PUBCHEM_BOND_UDEF_STEREO_COUNT>
0

> <PUBCHEM_ISOTOPIC_ATOM_COUNT>
0

> <PUBCHEM_COMPONENT_COUNT>
1

> <PUBCHEM_CACTVS_TAUTO_COUNT>
2

> <PUBCHEM_CONFORMER_ID>
0445F63900000001

> <PUBCHEM_MMFF94_ENERGY>
81.4733

> <PUBCHEM_FEATURE_SELFOVERLAP>
55.834

> <PUBCHEM_SHAPE_FINGERPRINT>
10411042 1 18267023856391235050
10554248 39 18341600543880801789
11059845 2 16985484724346218883
114674 6 18186794798803385466
11954058 11 18412547600313663615
12107183 9 18127702522080410545
12403259 327 15410597195153912726
12553582 1 18338506431348647106
12788726 201 17612873695300990544
13009979 54 17917154883696840584
13533116 47 18411982503282379947
13692114 37 17764294438143350530
13785724 45 18270125599983229695
13911852 28 18268147552721606471
13955234 65 18270115845854050832
14251764 30 18268151954889193314
14863182 85 18266167513132689072
15250474 111 17984969643343359087
17349148 13 17632571661362109069
17492 89 18413106178333002475
17818456 19 17988648437482704865
17844677 252 18408322194861637041
1813 80 18270688554115502302
1979834 28 18338785840393347944
20505436 4 17629484360985813997
20645477 70 18262230122958667745
20775438 99 18192701452836399395
21049683 271 18410017628859098268
21344244 78 18201144525447945393
21365058 113 18336838493462276959
21421861 104 18340195388403550744
2255824 54 18338231686653949200
22950370 63 18268435637631652678
23559900 14 18411695504824966691
239999 70 17968371355084220225
255183 451 18412549777650826439
3421961 26 18412259536677324512
345986 75 17989203711812070993
34797466 226 16660932174876090111
4144715 1 18113902698159646473
4394409 98 14663888732732432094
4409770 3 17544193783630232268
4516262 110 18195520622572934661
46194498 28 17603587460415823405
465052 167 18343587317641146855
5104073 3 18130799984085876499
5309563 4 18266740177743211491
56633871 153 17845085178099928255
70251023 43 18337394842267099074
7970288 3 18267303127522910254
8272917 22 18263641934501525425

> <PUBCHEM_SHAPE_MULTIPOLES>
501.63
12.83
4.66
1.31
24.97
1.66
-0.07
-11.57
-0.56
-9.4
1.02
-0.36
-0.15
0.32

> <PUBCHEM_SHAPE_SELFOVERLAP>
1079.368

> <PUBCHEM_SHAPE_VOLUME>
274.7

> <PUBCHEM_COORDINATE_TYPE>
2
5
10

$$$$
