38026916
  -OEChem-12032416313D

 67 69  0     1  0  0  0  0  0999 V2000
    1.4224   -3.2670   -0.1640 O   0  0  0  0  0  0  0  0  0  0  0  0
   -3.7330    1.8969   -1.5634 O   0  0  0  0  0  0  0  0  0  0  0  0
    6.2011    2.0479   -0.0996 O   0  0  0  0  0  0  0  0  0  0  0  0
    2.5628   -1.2447   -0.2307 N   0  0  0  0  0  0  0  0  0  0  0  0
   -3.4233    0.9638    0.5388 N   0  0  0  0  0  0  0  0  0  0  0  0
    5.0880    0.0134    0.0267 N   0  0  0  0  0  0  0  0  0  0  0  0
   -1.3886    5.2159   -0.4721 N   0  0  0  0  0  0  0  0  0  0  0  0
   -0.2721    3.7338    1.0653 N   0  0  0  0  0  0  0  0  0  0  0  0
   -2.5564   -1.6787   -0.6054 C   0  0  1  0  0  0  0  0  0  0  0  0
   -3.5840   -1.4699    0.5350 C   0  0  1  0  0  0  0  0  0  0  0  0
   -1.5463   -2.7714   -0.2236 C   0  0  0  0  0  0  0  0  0  0  0  0
   -0.7793   -2.4301    1.0679 C   0  0  2  0  0  0  0  0  0  0  0  0
   -3.2400   -2.0431   -1.9271 C   0  0  0  0  0  0  0  0  0  0  0  0
   -1.7090   -1.9545    2.1658 C   0  0  0  0  0  0  0  0  0  0  0  0
   -2.9632   -1.5418    1.9104 C   0  0  0  0  0  0  0  0  0  0  0  0
    0.3243   -1.4011    0.7994 C   0  0  0  0  0  0  0  0  0  0  0  0
   -4.3222   -0.1357    0.3770 C   0  0  0  0  0  0  0  0  0  0  0  0
   -2.3518   -1.6636   -3.1078 C   0  0  0  0  0  0  0  0  0  0  0  0
   -3.5765   -3.5305   -1.9595 C   0  0  0  0  0  0  0  0  0  0  0  0
   -1.1790   -2.0071    3.5718 C   0  0  0  0  0  0  0  0  0  0  0  0
    1.4803   -2.0615    0.0915 C   0  0  0  0  0  0  0  0  0  0  0  0
    3.7271   -1.8107   -0.9166 C   0  0  0  0  0  0  0  0  0  0  0  0
    2.6312    0.2055   -0.0079 C   0  0  0  0  0  0  0  0  0  0  0  0
    5.0199   -1.4369   -0.1961 C   0  0  0  0  0  0  0  0  0  0  0  0
    3.9238    0.5790    0.7128 C   0  0  0  0  0  0  0  0  0  0  0  0
   -3.1945    1.9100   -0.4596 C   0  0  0  0  0  0  0  0  0  0  0  0
    6.1695    0.8308   -0.2976 C   0  0  0  0  0  0  0  0  0  0  0  0
   -2.2106    2.9776   -0.1447 C   0  0  0  0  0  0  0  0  0  0  0  0
    7.3587    0.1554   -0.9324 C   0  0  0  0  0  0  0  0  0  0  0  0
   -2.2648    4.2240   -0.7342 C   0  0  0  0  0  0  0  0  0  0  0  0
   -1.1826    2.7873    0.7561 C   0  0  0  0  0  0  0  0  0  0  0  0
   -0.4320    4.9070    0.4240 C   0  0  0  0  0  0  0  0  0  0  0  0
   -2.0034   -0.7443   -0.7557 H   0  0  0  0  0  0  0  0  0  0  0  0
   -4.3387   -2.2656    0.4986 H   0  0  0  0  0  0  0  0  0  0  0  0
   -0.8527   -2.9645   -1.0472 H   0  0  0  0  0  0  0  0  0  0  0  0
   -2.0610   -3.7192   -0.0192 H   0  0  0  0  0  0  0  0  0  0  0  0
   -0.3324   -3.3676    1.4281 H   0  0  0  0  0  0  0  0  0  0  0  0
   -4.1732   -1.4822   -2.0418 H   0  0  0  0  0  0  0  0  0  0  0  0
   -3.6021   -1.2557    2.7437 H   0  0  0  0  0  0  0  0  0  0  0  0
    0.7140   -0.9972    1.7403 H   0  0  0  0  0  0  0  0  0  0  0  0
   -0.0471   -0.5669    0.1969 H   0  0  0  0  0  0  0  0  0  0  0  0
   -5.0861   -0.0327    1.1574 H   0  0  0  0  0  0  0  0  0  0  0  0
   -4.8461   -0.0696   -0.5803 H   0  0  0  0  0  0  0  0  0  0  0  0
   -1.4005   -2.2045   -3.1047 H   0  0  0  0  0  0  0  0  0  0  0  0
   -2.1320   -0.5905   -3.1032 H   0  0  0  0  0  0  0  0  0  0  0  0
   -2.8558   -1.8910   -4.0537 H   0  0  0  0  0  0  0  0  0  0  0  0
   -2.6965   -4.1683   -2.0941 H   0  0  0  0  0  0  0  0  0  0  0  0
   -4.2251   -3.7336   -2.8206 H   0  0  0  0  0  0  0  0  0  0  0  0
   -4.1286   -3.8586   -1.0738 H   0  0  0  0  0  0  0  0  0  0  0  0
   -0.8288   -3.0171    3.8087 H   0  0  0  0  0  0  0  0  0  0  0  0
   -1.9454   -1.7457    4.3095 H   0  0  0  0  0  0  0  0  0  0  0  0
   -0.3471   -1.3097    3.7044 H   0  0  0  0  0  0  0  0  0  0  0  0
   -2.9996    1.0897    1.4524 H   0  0  0  0  0  0  0  0  0  0  0  0
    3.7270   -1.4032   -1.9348 H   0  0  0  0  0  0  0  0  0  0  0  0
    3.6450   -2.8992   -0.9949 H   0  0  0  0  0  0  0  0  0  0  0  0
    1.7788    0.5799    0.5608 H   0  0  0  0  0  0  0  0  0  0  0  0
    2.5983    0.6782   -0.9970 H   0  0  0  0  0  0  0  0  0  0  0  0
    5.0544   -1.9103    0.7924 H   0  0  0  0  0  0  0  0  0  0  0  0
    5.8738   -1.8054   -0.7670 H   0  0  0  0  0  0  0  0  0  0  0  0
    4.0058    1.6674    0.7928 H   0  0  0  0  0  0  0  0  0  0  0  0
    3.9234    0.1706    1.7306 H   0  0  0  0  0  0  0  0  0  0  0  0
    7.0788   -0.2677   -1.9007 H   0  0  0  0  0  0  0  0  0  0  0  0
    7.7510   -0.6226   -0.2721 H   0  0  0  0  0  0  0  0  0  0  0  0
    8.1507    0.8925   -1.0971 H   0  0  0  0  0  0  0  0  0  0  0  0
   -3.0346    4.4815   -1.4549 H   0  0  0  0  0  0  0  0  0  0  0  0
   -1.0205    1.8440    1.2670 H   0  0  0  0  0  0  0  0  0  0  0  0
    0.2855    5.6853    0.6534 H   0  0  0  0  0  0  0  0  0  0  0  0
  1 21  2  0  0  0  0
  2 26  2  0  0  0  0
  3 27  2  0  0  0  0
  4 21  1  0  0  0  0
  4 22  1  0  0  0  0
  4 23  1  0  0  0  0
  5 17  1  0  0  0  0
  5 26  1  0  0  0  0
  5 53  1  0  0  0  0
  6 24  1  0  0  0  0
  6 25  1  0  0  0  0
  6 27  1  0  0  0  0
  7 30  2  0  0  0  0
  7 32  1  0  0  0  0
  8 31  1  0  0  0  0
  8 32  2  0  0  0  0
  9 10  1  0  0  0  0
  9 11  1  0  0  0  0
  9 13  1  0  0  0  0
  9 33  1  0  0  0  0
 10 15  1  0  0  0  0
 10 17  1  0  0  0  0
 10 34  1  0  0  0  0
 11 12  1  0  0  0  0
 11 35  1  0  0  0  0
 11 36  1  0  0  0  0
 12 14  1  0  0  0  0
 12 16  1  0  0  0  0
 12 37  1  0  0  0  0
 13 18  1  0  0  0  0
 13 19  1  0  0  0  0
 13 38  1  0  0  0  0
 14 15  2  0  0  0  0
 14 20  1  0  0  0  0
 15 39  1  0  0  0  0
 16 21  1  0  0  0  0
 16 40  1  0  0  0  0
 16 41  1  0  0  0  0
 17 42  1  0  0  0  0
 17 43  1  0  0  0  0
 18 44  1  0  0  0  0
 18 45  1  0  0  0  0
 18 46  1  0  0  0  0
 19 47  1  0  0  0  0
 19 48  1  0  0  0  0
 19 49  1  0  0  0  0
 20 50  1  0  0  0  0
 20 51  1  0  0  0  0
 20 52  1  0  0  0  0
 22 24  1  0  0  0  0
 22 54  1  0  0  0  0
 22 55  1  0  0  0  0
 23 25  1  0  0  0  0
 23 56  1  0  0  0  0
 23 57  1  0  0  0  0
 24 58  1  0  0  0  0
 24 59  1  0  0  0  0
 25 60  1  0  0  0  0
 25 61  1  0  0  0  0
 26 28  1  0  0  0  0
 27 29  1  0  0  0  0
 28 30  1  0  0  0  0
 28 31  2  0  0  0  0
 29 62  1  0  0  0  0
 29 63  1  0  0  0  0
 29 64  1  0  0  0  0
 30 65  1  0  0  0  0
 31 66  1  0  0  0  0
 32 67  1  0  0  0  0
M  END
> <PUBCHEM_COMPOUND_CID>
38026916

> <PUBCHEM_CONFORMER_RMSD>
1

> <PUBCHEM_CONFORMER_DIVERSEORDER>
1
122
178
75
177
222
142
213
130
215
94
143
34
144
119
19
162
78
125
196
150
21
208
96
217
22
115
133
207
103
48
180
104
124
32
42
179
190
76
85
2
140
9
204
205
136
20
83
81
18
219
158
13
141
127
203
172
44
220
163
54
77
114
214
41
146
35
89
33
195
58
37
131
86
169
88
84
221
198
189
17
212
23
69
108
154
82
185
223
128
70
24
117
46
120
5
45
12
97
183
116
73
168
191
102
132
110
80
181
67
216
112
55
164
26
47
28
107
126
187
43
199
106
3
176
109
147
66
100
27
206
137
87
186
50
173
95
65
71
156
145
155
165
211
60
118
200
210
218
194
174
40
93
64
149
91
135
62
6
193
148
38
101
98
170
160
59
121
57
105
29
134
202
184
166
123
111
10
4
151
74
30
36
159
197
15
92
68
11
79
53
188
167
16
209
90
8
152
72
7
129
52
49
39
56
153
157
63
31
139
51
182
25
61
161
192
171
138
175
14
99
201
113

> <PUBCHEM_MMFF94_PARTIAL_CHARGES>
32
1 -0.57
10 0.14
12 0.14
14 -0.28
15 -0.29
16 0.06
17 0.3
2 -0.57
20 0.14
21 0.57
22 0.3
23 0.3
24 0.3
25 0.3
26 0.54
27 0.57
28 0.09
29 0.06
3 -0.57
30 0.16
31 0.16
32 0.47
39 0.15
4 -0.66
5 -0.73
53 0.37
6 -0.66
65 0.15
66 0.15
67 0.15
7 -0.62
8 -0.62

> <PUBCHEM_EFFECTIVE_ROTOR_COUNT>
11

> <PUBCHEM_PHARMACOPHORE_FEATURES>
10
1 1 acceptor
1 2 acceptor
1 3 acceptor
1 5 donor
1 7 acceptor
3 13 18 19 hydrophobe
3 7 8 32 cation
6 4 6 22 23 24 25 rings
6 7 8 28 30 31 32 rings
6 9 10 11 12 14 15 rings

> <PUBCHEM_HEAVY_ATOM_COUNT>
32

> <PUBCHEM_ATOM_DEF_STEREO_COUNT>
3

> <PUBCHEM_ATOM_UDEF_STEREO_COUNT>
0

> <PUBCHEM_BOND_DEF_STEREO_COUNT>
0

> <PUBCHEM_BOND_UDEF_STEREO_COUNT>
0

> <PUBCHEM_ISOTOPIC_ATOM_COUNT>
0

> <PUBCHEM_COMPONENT_COUNT>
1

> <PUBCHEM_CACTVS_TAUTO_COUNT>
2

> <PUBCHEM_CONFORMER_ID>
02443EA400000001

> <PUBCHEM_MMFF94_ENERGY>
74.1972

> <PUBCHEM_FEATURE_SELFOVERLAP>
50.747

> <PUBCHEM_SHAPE_FINGERPRINT>
10006869 2 18046343033991039673
100830 39 18408890612482609768
10291535 26 18333737935291779762
12788726 201 18334852801459222656
13402501 40 18410578417568594961
13761468 95 17914914053514556416
14114206 34 18114444734899341245
14114211 80 17843687647819038945
14279260 333 18120373151942860678
14363568 33 17470192687000127936
16067690 210 18115011013858742672
19930381 70 17546438346882836031
20764821 26 18266464385034412392
21033648 144 17985829461773434658
23419403 2 17319013128827834187
3493558 16 17823152279458078500
469060 322 18199471137417458287
497634 4 17274833488048412290
50150288 127 16556799451064957360
5171179 24 18057312001891411664
531348 171 18271528598585687470
550186 7 18270691878731199036
57527306 92 18260826004135208727
6036956 94 18334300867965852380
6201320 215 18341045239096254904
7288768 16 17750240214165575371

> <PUBCHEM_SHAPE_MULTIPOLES>
616.03
11.77
6.24
2.19
27.95
9.6
0.5
-0.33
-3.87
-5.56
-0.6
-2.79
-2.21
0.01

> <PUBCHEM_SHAPE_SELFOVERLAP>
1275.018

> <PUBCHEM_SHAPE_VOLUME>
346.7

> <PUBCHEM_COORDINATE_TYPE>
2
5
10

$$$$
