40467589
  -OEChem-12032416343D

 50 54  0     1  0  0  0  0  0999 V2000
    2.3315   -0.7748    1.4119 S   0  0  0  0  0  0  0  0  0  0  0  0
    2.9262   -2.0639    1.6949 O   0  0  0  0  0  0  0  0  0  0  0  0
    1.7688    0.0342    2.4725 O   0  0  0  0  0  0  0  0  0  0  0  0
   -2.7257   -3.9910    0.5680 O   0  0  0  0  0  0  0  0  0  0  0  0
    1.1674   -0.9549    0.1710 N   0  0  2  0  0  0  0  0  0  0  0  0
   -1.7430   -2.0563   -0.3144 N   0  0  0  0  0  0  0  0  0  0  0  0
   -3.5581    3.5013   -1.0160 N   0  0  0  0  0  0  0  0  0  0  0  0
    0.3209   -2.1702   -1.8317 C   0  0  1  0  0  0  0  0  0  0  0  0
   -0.6442    0.0076   -1.2380 C   0  0  2  0  0  0  0  0  0  0  0  0
   -0.2134   -0.8706   -2.4104 C   0  0  0  0  0  0  0  0  0  0  0  0
    1.5269   -1.9068   -0.9169 C   0  0  0  0  0  0  0  0  0  0  0  0
    0.5788    0.3128   -0.3512 C   0  0  0  0  0  0  0  0  0  0  0  0
   -0.8175   -2.8836   -1.1005 C   0  0  0  0  0  0  0  0  0  0  0  0
   -1.7578   -0.6513   -0.4190 C   0  0  0  0  0  0  0  0  0  0  0  0
   -2.7261    0.0637    0.2112 C   0  0  0  0  0  0  0  0  0  0  0  0
   -2.6841   -2.7656    0.4531 C   0  0  0  0  0  0  0  0  0  0  0  0
   -3.7117   -0.6335    1.0155 C   0  0  0  0  0  0  0  0  0  0  0  0
   -3.7067   -1.9588    1.1568 C   0  0  0  0  0  0  0  0  0  0  0  0
    3.5365    0.2011    0.5675 C   0  0  0  0  0  0  0  0  0  0  0  0
   -2.7572    1.5216    0.1172 C   0  0  0  0  0  0  0  0  0  0  0  0
    3.4589    1.5933    0.6071 C   0  0  0  0  0  0  0  0  0  0  0  0
    4.5658   -0.4200   -0.1398 C   0  0  0  0  0  0  0  0  0  0  0  0
   -2.0536    2.3131    1.0181 C   0  0  0  0  0  0  0  0  0  0  0  0
   -3.4879    2.1588   -0.8727 C   0  0  0  0  0  0  0  0  0  0  0  0
    4.4106    2.3643   -0.0606 C   0  0  0  0  0  0  0  0  0  0  0  0
    5.5176    0.3508   -0.8073 C   0  0  0  0  0  0  0  0  0  0  0  0
   -2.1015    3.6980    0.9033 C   0  0  0  0  0  0  0  0  0  0  0  0
    5.4398    1.7430   -0.7677 C   0  0  0  0  0  0  0  0  0  0  0  0
   -2.8612    4.2379   -0.1220 C   0  0  0  0  0  0  0  0  0  0  0  0
    0.6640   -2.8187   -2.6475 H   0  0  0  0  0  0  0  0  0  0  0  0
   -0.9921    0.9516   -1.6722 H   0  0  0  0  0  0  0  0  0  0  0  0
   -1.0580   -1.0626   -3.0839 H   0  0  0  0  0  0  0  0  0  0  0  0
    0.5610   -0.3682   -3.0030 H   0  0  0  0  0  0  0  0  0  0  0  0
    1.8619   -2.8574   -0.4888 H   0  0  0  0  0  0  0  0  0  0  0  0
    2.3438   -1.4945   -1.5185 H   0  0  0  0  0  0  0  0  0  0  0  0
    1.3166    0.8476   -0.9590 H   0  0  0  0  0  0  0  0  0  0  0  0
    0.2952    0.9563    0.4842 H   0  0  0  0  0  0  0  0  0  0  0  0
   -1.4427   -3.3946   -1.8460 H   0  0  0  0  0  0  0  0  0  0  0  0
   -0.4190   -3.6752   -0.4530 H   0  0  0  0  0  0  0  0  0  0  0  0
   -4.4677   -0.0438    1.5257 H   0  0  0  0  0  0  0  0  0  0  0  0
   -4.4435   -2.4707    1.7641 H   0  0  0  0  0  0  0  0  0  0  0  0
    2.6654    2.0991    1.1499 H   0  0  0  0  0  0  0  0  0  0  0  0
    4.6444   -1.5024   -0.1867 H   0  0  0  0  0  0  0  0  0  0  0  0
   -1.4727    1.8678    1.8218 H   0  0  0  0  0  0  0  0  0  0  0  0
   -4.0584    1.5981   -1.6075 H   0  0  0  0  0  0  0  0  0  0  0  0
    4.3498    3.4482   -0.0304 H   0  0  0  0  0  0  0  0  0  0  0  0
    6.3186   -0.1327   -1.3588 H   0  0  0  0  0  0  0  0  0  0  0  0
   -1.5628    4.3347    1.5956 H   0  0  0  0  0  0  0  0  0  0  0  0
    6.1806    2.3432   -1.2879 H   0  0  0  0  0  0  0  0  0  0  0  0
   -2.9314    5.3125   -0.2545 H   0  0  0  0  0  0  0  0  0  0  0  0
  1  2  2  0  0  0  0
  1  3  2  0  0  0  0
  1  5  1  0  0  0  0
  1 19  1  0  0  0  0
  4 16  2  0  0  0  0
  5 11  1  0  0  0  0
  5 12  1  0  0  0  0
  6 13  1  0  0  0  0
  6 14  1  0  0  0  0
  6 16  1  0  0  0  0
  7 24  1  0  0  0  0
  7 29  2  0  0  0  0
  8 10  1  0  0  0  0
  8 11  1  0  0  0  0
  8 13  1  0  0  0  0
  8 30  1  0  0  0  0
  9 10  1  0  0  0  0
  9 12  1  0  0  0  0
  9 14  1  0  0  0  0
  9 31  1  0  0  0  0
 10 32  1  0  0  0  0
 10 33  1  0  0  0  0
 11 34  1  0  0  0  0
 11 35  1  0  0  0  0
 12 36  1  0  0  0  0
 12 37  1  0  0  0  0
 13 38  1  0  0  0  0
 13 39  1  0  0  0  0
 14 15  2  0  0  0  0
 15 17  1  0  0  0  0
 15 20  1  0  0  0  0
 16 18  1  0  0  0  0
 17 18  2  0  0  0  0
 17 40  1  0  0  0  0
 18 41  1  0  0  0  0
 19 21  2  0  0  0  0
 19 22  1  0  0  0  0
 20 23  1  0  0  0  0
 20 24  2  0  0  0  0
 21 25  1  0  0  0  0
 21 42  1  0  0  0  0
 22 26  2  0  0  0  0
 22 43  1  0  0  0  0
 23 27  2  0  0  0  0
 23 44  1  0  0  0  0
 24 45  1  0  0  0  0
 25 28  2  0  0  0  0
 25 46  1  0  0  0  0
 26 28  1  0  0  0  0
 26 47  1  0  0  0  0
 27 29  1  0  0  0  0
 27 48  1  0  0  0  0
 28 49  1  0  0  0  0
 29 50  1  0  0  0  0
M  END
> <PUBCHEM_COMPOUND_CID>
40467589

> <PUBCHEM_CONFORMER_RMSD>
0.8

> <PUBCHEM_CONFORMER_DIVERSEORDER>
1
6
4
7
3
8
5
2

> <PUBCHEM_MMFF94_PARTIAL_CHARGES>
38
1 1.45
11 0.36
12 0.36
13 0.3
14 -0.03
15 -0.03
16 0.62
17 -0.15
18 -0.14
19 -0.01
2 -0.65
20 0.03
21 -0.15
22 -0.15
23 -0.15
24 0.16
25 -0.15
26 -0.15
27 -0.15
28 -0.15
29 0.16
3 -0.65
4 -0.57
40 0.15
41 0.15
42 0.15
43 0.15
44 0.15
45 0.15
46 0.15
47 0.15
48 0.15
49 0.15
5 -0.85
50 0.15
6 -0.47
7 -0.62
9 0.14

> <PUBCHEM_EFFECTIVE_ROTOR_COUNT>
4

> <PUBCHEM_PHARMACOPHORE_FEATURES>
9
1 2 acceptor
1 3 acceptor
1 4 acceptor
1 7 acceptor
6 19 21 22 25 26 28 rings
6 5 8 9 10 11 12 rings
6 6 14 15 16 17 18 rings
6 6 8 9 10 13 14 rings
6 7 20 23 24 27 29 rings

> <PUBCHEM_HEAVY_ATOM_COUNT>
29

> <PUBCHEM_ATOM_DEF_STEREO_COUNT>
2

> <PUBCHEM_ATOM_UDEF_STEREO_COUNT>
0

> <PUBCHEM_BOND_DEF_STEREO_COUNT>
0

> <PUBCHEM_BOND_UDEF_STEREO_COUNT>
0

> <PUBCHEM_ISOTOPIC_ATOM_COUNT>
0

> <PUBCHEM_COMPONENT_COUNT>
1

> <PUBCHEM_CACTVS_TAUTO_COUNT>
3

> <PUBCHEM_CONFORMER_ID>
02697C8500000001

> <PUBCHEM_MMFF94_ENERGY>
74.8007

> <PUBCHEM_FEATURE_SELFOVERLAP>
47.275

> <PUBCHEM_SHAPE_FINGERPRINT>
10366900 7 18131062745177973451
10670039 82 18340212989839055796
10906281 52 18341902870654974701
11552529 35 18261384580994537218
11578080 2 17843428214503260569
11763715 3 17979635959396535918
12107183 9 17900813860855669402
12156800 1 15546354003309585321
12633257 1 17755571655717133058
12788726 201 18337093645112152139
13224815 77 15502640612503345810
13726171 33 18271258161543182808
13965767 371 17462295625048172861
13994607 96 18342168960589242293
14251751 93 18413393154946547880
14251757 17 17630633179301982036
14466204 15 17256237151481923706
14713325 29 18342188790352650338
14787075 74 17682116921866202762
14950920 106 17676761011880523466
14955137 171 17761786456162341119
15163728 17 18125162632555198313
15575132 122 18410015467652285085
17921350 177 17538271844563583044
17980427 26 17689141315399008717
19315092 285 16881287558866192818
19930381 70 16179315604658784364
21860390 5 17264679223245367709
21864079 5 18341319055423141564
22907989 373 18270386287228544037
22956985 138 16747632218337711867
23559900 14 17982172214788745966
23598288 3 18340193163874098918
238 59 17201900549679035301
392239 28 17971199363610418634
4098825 35 18267318680843369820
474 4 17909540658654249853
7808743 9 18410857646504223704
9981440 41 18199172998077694691

> <PUBCHEM_SHAPE_MULTIPOLES>
568.1
9.43
4.72
1.69
11.28
2.27
-0.02
4.71
0.55
-5.83
-0.13
0.25
-0.63
0.5

> <PUBCHEM_SHAPE_SELFOVERLAP>
1241.921

> <PUBCHEM_SHAPE_VOLUME>
307.1

> <PUBCHEM_COORDINATE_TYPE>
2
5
10

$$$$
