7143919
  -OEChem-12032416233D

 54 57  0     1  0  0  0  0  0999 V2000
    9.2307    1.4272   -0.6628 Cl  0  0  0  0  0  0  0  0  0  0  0  0
   -4.0918    1.6805   -0.5482 S   0  0  0  0  0  0  0  0  0  0  0  0
   -4.1737    1.8635   -1.9810 O   0  0  0  0  0  0  0  0  0  0  0  0
   -3.3784    2.6126    0.2977 O   0  0  0  0  0  0  0  0  0  0  0  0
    0.8511   -1.6302   -1.8465 O   0  0  0  0  0  0  0  0  0  0  0  0
   -3.5246    0.0983   -0.2261 N   0  0  2  0  0  0  0  0  0  0  0  0
   -0.8852   -1.6404   -0.2911 N   0  0  0  0  0  0  0  0  0  0  0  0
   -3.2843   -2.2907   -0.9110 C   0  0  1  0  0  0  0  0  0  0  0  0
   -2.7580   -1.6256    1.3936 C   0  0  2  0  0  0  0  0  0  0  0  0
   -3.3926   -2.7238    0.5449 C   0  0  0  0  0  0  0  0  0  0  0  0
   -4.0321   -0.9666   -1.1378 C   0  0  0  0  0  0  0  0  0  0  0  0
   -3.5427   -0.3139    1.2093 C   0  0  0  0  0  0  0  0  0  0  0  0
   -1.8021   -2.1991   -1.2946 C   0  0  0  0  0  0  0  0  0  0  0  0
   -1.2998   -1.4253    1.0251 C   0  0  0  0  0  0  0  0  0  0  0  0
   -0.4155   -1.0227    1.9513 C   0  0  0  0  0  0  0  0  0  0  0  0
    0.4484   -1.4324   -0.6985 C   0  0  0  0  0  0  0  0  0  0  0  0
   -5.7439    1.5239    0.0797 C   0  0  0  0  0  0  0  0  0  0  0  0
    1.4106   -0.9548    0.3561 C   0  0  0  0  0  0  0  0  0  0  0  0
    0.9568   -0.7842    1.6056 C   0  0  0  0  0  0  0  0  0  0  0  0
   -6.5202    2.8211   -0.0758 C   0  0  0  0  0  0  0  0  0  0  0  0
    2.7876   -0.7035    0.0131 C   0  0  0  0  0  0  0  0  0  0  0  0
   -7.9292    2.6957    0.4792 C   0  0  0  0  0  0  0  0  0  0  0  0
    3.5355    0.2167    0.6345 C   0  0  0  0  0  0  0  0  0  0  0  0
    4.9420    0.5158    0.3136 C   0  0  0  0  0  0  0  0  0  0  0  0
    5.6950   -0.4212   -0.3755 C   0  0  0  0  0  0  0  0  0  0  0  0
    5.4850    1.7282    0.7077 C   0  0  0  0  0  0  0  0  0  0  0  0
    7.0269   -0.1382   -0.6785 C   0  0  0  0  0  0  0  0  0  0  0  0
    6.8168    2.0111    0.4045 C   0  0  0  0  0  0  0  0  0  0  0  0
    7.5878    1.0779   -0.2885 C   0  0  0  0  0  0  0  0  0  0  0  0
   -3.7556   -3.0467   -1.5516 H   0  0  0  0  0  0  0  0  0  0  0  0
   -2.8324   -1.9258    2.4472 H   0  0  0  0  0  0  0  0  0  0  0  0
   -2.8825   -3.6825    0.7024 H   0  0  0  0  0  0  0  0  0  0  0  0
   -4.4429   -2.8693    0.8255 H   0  0  0  0  0  0  0  0  0  0  0  0
   -5.1016   -1.1261   -0.9634 H   0  0  0  0  0  0  0  0  0  0  0  0
   -3.8987   -0.6604   -2.1808 H   0  0  0  0  0  0  0  0  0  0  0  0
   -3.0993    0.4731    1.8292 H   0  0  0  0  0  0  0  0  0  0  0  0
   -4.5718   -0.4792    1.5445 H   0  0  0  0  0  0  0  0  0  0  0  0
   -1.6800   -1.6391   -2.2302 H   0  0  0  0  0  0  0  0  0  0  0  0
   -1.4311   -3.2128   -1.5001 H   0  0  0  0  0  0  0  0  0  0  0  0
   -0.7120   -0.8423    2.9793 H   0  0  0  0  0  0  0  0  0  0  0  0
   -5.6916    1.2777    1.1424 H   0  0  0  0  0  0  0  0  0  0  0  0
   -6.2494    0.7215   -0.4630 H   0  0  0  0  0  0  0  0  0  0  0  0
    1.5928   -0.4694    2.4271 H   0  0  0  0  0  0  0  0  0  0  0  0
   -6.0014    3.6366    0.4417 H   0  0  0  0  0  0  0  0  0  0  0  0
   -6.5735    3.1036   -1.1338 H   0  0  0  0  0  0  0  0  0  0  0  0
    3.1782   -1.3002   -0.8049 H   0  0  0  0  0  0  0  0  0  0  0  0
   -8.4707    3.6387    0.3554 H   0  0  0  0  0  0  0  0  0  0  0  0
   -8.4882    1.9123   -0.0425 H   0  0  0  0  0  0  0  0  0  0  0  0
   -7.9108    2.4525    1.5464 H   0  0  0  0  0  0  0  0  0  0  0  0
    3.1140    0.8397    1.4203 H   0  0  0  0  0  0  0  0  0  0  0  0
    5.3086   -1.3890   -0.6787 H   0  0  0  0  0  0  0  0  0  0  0  0
    4.8974    2.4663    1.2470 H   0  0  0  0  0  0  0  0  0  0  0  0
    7.6177   -0.8764   -1.2149 H   0  0  0  0  0  0  0  0  0  0  0  0
    7.2405    2.9630    0.7142 H   0  0  0  0  0  0  0  0  0  0  0  0
  1 29  1  0  0  0  0
  2  3  2  0  0  0  0
  2  4  2  0  0  0  0
  2  6  1  0  0  0  0
  2 17  1  0  0  0  0
  5 16  2  0  0  0  0
  6 11  1  0  0  0  0
  6 12  1  0  0  0  0
  7 13  1  0  0  0  0
  7 14  1  0  0  0  0
  7 16  1  0  0  0  0
  8 10  1  0  0  0  0
  8 11  1  0  0  0  0
  8 13  1  0  0  0  0
  8 30  1  0  0  0  0
  9 10  1  0  0  0  0
  9 12  1  0  0  0  0
  9 14  1  0  0  0  0
  9 31  1  0  0  0  0
 10 32  1  0  0  0  0
 10 33  1  0  0  0  0
 11 34  1  0  0  0  0
 11 35  1  0  0  0  0
 12 36  1  0  0  0  0
 12 37  1  0  0  0  0
 13 38  1  0  0  0  0
 13 39  1  0  0  0  0
 14 15  2  0  0  0  0
 15 19  1  0  0  0  0
 15 40  1  0  0  0  0
 16 18  1  0  0  0  0
 17 20  1  0  0  0  0
 17 41  1  0  0  0  0
 17 42  1  0  0  0  0
 18 19  2  0  0  0  0
 18 21  1  0  0  0  0
 19 43  1  0  0  0  0
 20 22  1  0  0  0  0
 20 44  1  0  0  0  0
 20 45  1  0  0  0  0
 21 23  2  0  0  0  0
 21 46  1  0  0  0  0
 22 47  1  0  0  0  0
 22 48  1  0  0  0  0
 22 49  1  0  0  0  0
 23 24  1  0  0  0  0
 23 50  1  0  0  0  0
 24 25  2  0  0  0  0
 24 26  1  0  0  0  0
 25 27  1  0  0  0  0
 25 51  1  0  0  0  0
 26 28  2  0  0  0  0
 26 52  1  0  0  0  0
 27 29  2  0  0  0  0
 27 53  1  0  0  0  0
 28 29  1  0  0  0  0
 28 54  1  0  0  0  0
M  END
> <PUBCHEM_COMPOUND_CID>
7143919

> <PUBCHEM_CONFORMER_RMSD>
0.8

> <PUBCHEM_CONFORMER_DIVERSEORDER>
1
19
5
16
12
15
13
17
7
18
9
6
3
10
8
11
4
14
2

> <PUBCHEM_MMFF94_PARTIAL_CHARGES>
33
1 -0.18
11 0.36
12 0.36
13 0.3
14 -0.03
15 -0.15
16 0.62
17 0.11
18 0.01
19 -0.15
2 1.33
21 -0.15
23 -0.18
24 0.03
25 -0.15
26 -0.15
27 -0.15
28 -0.15
29 0.18
3 -0.65
4 -0.65
40 0.15
43 0.15
46 0.15
5 -0.57
50 0.15
51 0.15
52 0.15
53 0.15
54 0.15
6 -0.85
7 -0.47
9 0.14

> <PUBCHEM_EFFECTIVE_ROTOR_COUNT>
6

> <PUBCHEM_PHARMACOPHORE_FEATURES>
8
1 22 hydrophobe
1 3 acceptor
1 4 acceptor
1 5 acceptor
6 24 25 26 27 28 29 rings
6 6 8 9 10 11 12 rings
6 7 14 15 16 18 19 rings
6 7 8 9 10 13 14 rings

> <PUBCHEM_HEAVY_ATOM_COUNT>
29

> <PUBCHEM_ATOM_DEF_STEREO_COUNT>
2

> <PUBCHEM_ATOM_UDEF_STEREO_COUNT>
0

> <PUBCHEM_BOND_DEF_STEREO_COUNT>
1

> <PUBCHEM_BOND_UDEF_STEREO_COUNT>
0

> <PUBCHEM_ISOTOPIC_ATOM_COUNT>
0

> <PUBCHEM_COMPONENT_COUNT>
1

> <PUBCHEM_CACTVS_TAUTO_COUNT>
1

> <PUBCHEM_CONFORMER_ID>
006D01EF00000001

> <PUBCHEM_MMFF94_ENERGY>
66.3508

> <PUBCHEM_FEATURE_SELFOVERLAP>
42.198

> <PUBCHEM_SHAPE_FINGERPRINT>
10 15 17458347407837163113
10165383 225 17846505842308263427
10369192 42 18340205199037256765
10763959 59 18341049722709659176
11315181 36 17241324810640965046
11393246 34 10015866487478327969
11578080 2 18342740680686832823
12236239 1 17774450494590861778
12633257 1 13912906184975312297
12895836 83 18342171142849041329
12895837 130 18410294739695732221
13690498 29 17558819826547628238
13911987 19 17132116831555260151
14251751 18 9727633921272700658
14347329 18 18272360950035111984
14359421 15 12319442261510525309
14950920 106 13912620341642672869
15183329 4 17917997196384043274
15604295 49 18269831094946947648
15778101 99 18408886243482550451
16126227 98 18409168784350057633
17780758 139 8214152858045064519
17844677 252 18263648523387188646
17980427 23 17822294616842414222
19438510 23 18335140847909826593
19958102 18 16702034075885934156
2026 5 10592047942401627892
20505436 4 18261106340703434779
21033648 29 18270107024682165448
21307412 95 11959429195213481733
21424621 283 18259704480029861962
21623969 137 12107779706078585896
21756936 100 18113618997619684883
21859007 373 18058997442306999272
23559900 14 16056033697167020466
23569943 247 9581038227156487020
24771293 8 18262239920613241045
2838139 119 18339070510746436116
3004659 81 17489315243908443490
4015057 19 14907611380966175530
4098825 35 18201718414857135687
44802255 64 18131073766022247350
4516262 110 18040988506404768231
474113 269 11242260671401569273
5104073 3 12324503347902244124
531348 171 18343862225697420422
5718773 13 8574414432078119417
57527585 21 17839718411027871309
5776283 40 17988637476478414785
5937810 71 18041006193734786644
6327066 14 18339640045470180773
6376802 90 18342184379174363894
7808743 9 18339071610864381105

> <PUBCHEM_SHAPE_MULTIPOLES>
574.96
22.43
3.16
1.46
33.89
1
0.01
22.69
-2.97
-5.98
-0.25
-0.83
-0.53
0.3

> <PUBCHEM_SHAPE_SELFOVERLAP>
1211.063

> <PUBCHEM_SHAPE_VOLUME>
324.7

> <PUBCHEM_COORDINATE_TYPE>
2
5
10

$$$$
