26744106
  -OEChem-12032416353D

 49 52  0     1  0  0  0  0  0999 V2000
    5.7313   -1.3050    1.2480 O   0  0  0  0  0  0  0  0  0  0  0  0
    1.0388   -0.4768   -2.2483 O   0  0  0  0  0  0  0  0  0  0  0  0
    2.7550    0.5749    0.6324 N   0  0  1  0  0  0  0  0  0  0  0  0
    0.6647   -1.5665   -0.3275 N   0  0  0  0  0  0  0  0  0  0  0  0
   -0.2058   -1.1032   -2.3919 N   0  0  0  0  0  0  0  0  0  0  0  0
    2.8273   -0.2367   -0.5995 C   0  0  1  0  0  0  0  0  0  0  0  0
    3.8637   -1.3326   -0.2888 C   0  0  0  0  0  0  0  0  0  0  0  0
    4.3504   -1.0267    1.1222 C   0  0  2  0  0  0  0  0  0  0  0  0
    4.0568    0.4525    1.2857 C   0  0  0  0  0  0  0  0  0  0  0  0
    2.3945    1.9647    0.3844 C   0  0  0  0  0  0  0  0  0  0  0  0
    1.4821   -0.8011   -1.0055 C   0  0  0  0  0  0  0  0  0  0  0  0
    0.9129    2.1305    0.1738 C   0  0  0  0  0  0  0  0  0  0  0  0
    0.4348    2.6777   -1.0170 C   0  0  0  0  0  0  0  0  0  0  0  0
    0.0186    1.7398    1.1705 C   0  0  0  0  0  0  0  0  0  0  0  0
   -0.3563   -1.7252   -1.2187 C   0  0  0  0  0  0  0  0  0  0  0  0
   -1.5461   -2.5264   -0.9108 C   0  0  0  0  0  0  0  0  0  0  0  0
   -0.9375    2.8341   -1.2110 C   0  0  0  0  0  0  0  0  0  0  0  0
   -1.3538    1.8963    0.9763 C   0  0  0  0  0  0  0  0  0  0  0  0
   -1.8319    2.4433   -0.2145 C   0  0  0  0  0  0  0  0  0  0  0  0
   -2.5666   -1.8357   -0.0116 C   0  0  0  0  0  0  0  0  0  0  0  0
   -3.2993    2.6111   -0.4223 C   0  0  0  0  0  0  0  0  0  0  0  0
   -2.3652   -1.7929    1.3681 C   0  0  0  0  0  0  0  0  0  0  0  0
   -3.7014   -1.2469   -0.5692 C   0  0  0  0  0  0  0  0  0  0  0  0
   -3.2987   -1.1614    2.1901 C   0  0  0  0  0  0  0  0  0  0  0  0
   -4.6348   -0.6152    0.2527 C   0  0  0  0  0  0  0  0  0  0  0  0
   -4.4335   -0.5726    1.6323 C   0  0  0  0  0  0  0  0  0  0  0  0
    3.2254    0.3587   -1.4333 H   0  0  0  0  0  0  0  0  0  0  0  0
    4.6927   -1.2840   -1.0061 H   0  0  0  0  0  0  0  0  0  0  0  0
    3.4548   -2.3483   -0.3378 H   0  0  0  0  0  0  0  0  0  0  0  0
    3.7951   -1.6177    1.8608 H   0  0  0  0  0  0  0  0  0  0  0  0
    4.0188    0.7354    2.3430 H   0  0  0  0  0  0  0  0  0  0  0  0
    4.8310    1.0607    0.7992 H   0  0  0  0  0  0  0  0  0  0  0  0
    2.6464    2.5776    1.2614 H   0  0  0  0  0  0  0  0  0  0  0  0
    2.9702    2.3918   -0.4473 H   0  0  0  0  0  0  0  0  0  0  0  0
    5.8573   -2.2501    1.0575 H   0  0  0  0  0  0  0  0  0  0  0  0
    1.1198    2.9847   -1.8027 H   0  0  0  0  0  0  0  0  0  0  0  0
    0.3760    1.3187    2.1065 H   0  0  0  0  0  0  0  0  0  0  0  0
   -1.2387   -3.4616   -0.4240 H   0  0  0  0  0  0  0  0  0  0  0  0
   -2.0428   -2.8432   -1.8376 H   0  0  0  0  0  0  0  0  0  0  0  0
   -1.3001    3.2598   -2.1429 H   0  0  0  0  0  0  0  0  0  0  0  0
   -2.0368    1.5993    1.7665 H   0  0  0  0  0  0  0  0  0  0  0  0
   -3.6500    1.9361   -1.2088 H   0  0  0  0  0  0  0  0  0  0  0  0
   -3.5243    3.6418   -0.7164 H   0  0  0  0  0  0  0  0  0  0  0  0
   -3.8677    2.4049    0.4902 H   0  0  0  0  0  0  0  0  0  0  0  0
   -1.4848   -2.2476    1.8143 H   0  0  0  0  0  0  0  0  0  0  0  0
   -3.8684   -1.2701   -1.6427 H   0  0  0  0  0  0  0  0  0  0  0  0
   -3.1412   -1.1267    3.2641 H   0  0  0  0  0  0  0  0  0  0  0  0
   -5.5173   -0.1548   -0.1816 H   0  0  0  0  0  0  0  0  0  0  0  0
   -5.1593   -0.0790    2.2718 H   0  0  0  0  0  0  0  0  0  0  0  0
  1  8  1  0  0  0  0
  1 35  1  0  0  0  0
  2  5  1  0  0  0  0
  2 11  1  0  0  0  0
  3  6  1  0  0  0  0
  3  9  1  0  0  0  0
  3 10  1  0  0  0  0
  4 11  2  0  0  0  0
  4 15  1  0  0  0  0
  5 15  2  0  0  0  0
  6  7  1  0  0  0  0
  6 11  1  0  0  0  0
  6 27  1  0  0  0  0
  7  8  1  0  0  0  0
  7 28  1  0  0  0  0
  7 29  1  0  0  0  0
  8  9  1  0  0  0  0
  8 30  1  0  0  0  0
  9 31  1  0  0  0  0
  9 32  1  0  0  0  0
 10 12  1  0  0  0  0
 10 33  1  0  0  0  0
 10 34  1  0  0  0  0
 12 13  2  0  0  0  0
 12 14  1  0  0  0  0
 13 17  1  0  0  0  0
 13 36  1  0  0  0  0
 14 18  2  0  0  0  0
 14 37  1  0  0  0  0
 15 16  1  0  0  0  0
 16 20  1  0  0  0  0
 16 38  1  0  0  0  0
 16 39  1  0  0  0  0
 17 19  2  0  0  0  0
 17 40  1  0  0  0  0
 18 19  1  0  0  0  0
 18 41  1  0  0  0  0
 19 21  1  0  0  0  0
 20 22  2  0  0  0  0
 20 23  1  0  0  0  0
 21 42  1  0  0  0  0
 21 43  1  0  0  0  0
 21 44  1  0  0  0  0
 22 24  1  0  0  0  0
 22 45  1  0  0  0  0
 23 25  2  0  0  0  0
 23 46  1  0  0  0  0
 24 26  2  0  0  0  0
 24 47  1  0  0  0  0
 25 26  1  0  0  0  0
 25 48  1  0  0  0  0
 26 49  1  0  0  0  0
M  END
> <PUBCHEM_COMPOUND_CID>
26744106

> <PUBCHEM_CONFORMER_RMSD>
0.8

> <PUBCHEM_CONFORMER_DIVERSEORDER>
1
92
250
56
9
177
220
3
133
68
173
205
224
239
24
233
223
248
23
163
79
198
242
108
109
243
89
12
267
236
16
213
167
59
110
181
226
148
149
249
255
237
122
94
101
165
200
80
190
42
11
159
203
195
41
225
91
136
178
199
193
170
227
131
128
17
257
265
254
8
72
184
197
208
5
151
138
69
126
20
161
117
179
171
61
53
49
73
144
234
210
262
264
270
2
241
65
129
47
118
246
230
219
86
214
4
196
77
155
75
25
33
70
51
15
261
244
180
104
152
164
189
116
105
247
88
232
240
228
187
168
83
186
120
268
183
204
201
174
192
90
10
140
147
135
172
106
102
34
269
50
125
67
52
7
62
221
188
252
207
215
100
266
82
142
127
46
87
137
150
44
58
212
36
253
182
146
156
21
19
154
185
99
235
107
22
157
134
43
143
114
202
229
209
218
259
35
39
113
57
60
63
175
153
191
38
194
123
112
48
71
260
29
95
124
158
18
245
145
263
55
162
256
84
6
222
97
78
217
64
66
258
176
119
74
132
85
26
216
139
37
96
13
238
93
231
251
206
166
81
31
103
111
54
28
115
76
98
211
40
14
32
27
141
121
130
45
30
160
169

> <PUBCHEM_MMFF94_PARTIAL_CHARGES>
35
1 -0.68
10 0.41
11 0.3
12 -0.14
13 -0.15
14 -0.15
15 0.34
16 0.32
17 -0.15
18 -0.15
19 -0.14
2 -0.02
20 -0.14
21 0.14
22 -0.15
23 -0.15
24 -0.15
25 -0.15
26 -0.15
3 -0.81
35 0.4
36 0.15
37 0.15
4 -0.57
40 0.15
41 0.15
45 0.15
46 0.15
47 0.15
48 0.15
49 0.15
5 -0.41
6 0.45
8 0.28
9 0.27

> <PUBCHEM_EFFECTIVE_ROTOR_COUNT>
6

> <PUBCHEM_PHARMACOPHORE_FEATURES>
8
1 1 acceptor
1 1 donor
1 3 cation
3 4 5 15 cation
5 2 4 5 11 15 rings
5 3 6 7 8 9 rings
6 12 13 14 17 18 19 rings
6 20 22 23 24 25 26 rings

> <PUBCHEM_HEAVY_ATOM_COUNT>
26

> <PUBCHEM_ATOM_DEF_STEREO_COUNT>
2

> <PUBCHEM_ATOM_UDEF_STEREO_COUNT>
0

> <PUBCHEM_BOND_DEF_STEREO_COUNT>
0

> <PUBCHEM_BOND_UDEF_STEREO_COUNT>
0

> <PUBCHEM_ISOTOPIC_ATOM_COUNT>
0

> <PUBCHEM_COMPONENT_COUNT>
1

> <PUBCHEM_CACTVS_TAUTO_COUNT>
1

> <PUBCHEM_CONFORMER_ID>
0198152A00000001

> <PUBCHEM_MMFF94_ENERGY>
55.7536

> <PUBCHEM_FEATURE_SELFOVERLAP>
40.597

> <PUBCHEM_SHAPE_FINGERPRINT>
10382601 240 17907315581863238672
10674148 151 13696136372031760246
10675989 125 16753521691942275380
10759866 29 18116161141359512404
11387372 6 17397527729375028530
12035758 1 18265348222477748441
12422481 6 18269015123667775593
12633257 1 18130797788418545523
13140716 1 18198341955870407715
13402501 40 18340204090624522661
13726171 33 17976298778049864044
13965767 371 17915194613351925298
14178342 30 18056494849850589481
14790565 3 17473542933401073168
14840074 17 18196097870150483772
16728300 4 17898555506574464931
17357779 13 18342449353191729781
20600515 1 18340784709603764931
20775438 99 12977289100302357217
2132832 1 17270297027695033895
22182313 1 17987808384586141310
23419403 2 15118669260192319990
24893992 56 18113332021776265807
3052486 1 18262533493446571012
3472631 163 14907362771142394251
35225 105 17901072297105278409
4340502 62 18055917581035534473
513202 73 18265332807682081514
57091435 65 17974302206778026037
5951187 136 14256613386621506771
7064713 232 17632028493569175955
7097593 13 17904765827214756243
8509985 295 18261964054198621659

> <PUBCHEM_SHAPE_MULTIPOLES>
508.39
8.48
3.46
1.86
3.99
2.13
-0.14
-4.16
4.54
-1.48
-0.68
-0.3
-0.57
0.39

> <PUBCHEM_SHAPE_SELFOVERLAP>
1098.304

> <PUBCHEM_SHAPE_VOLUME>
281.5

> <PUBCHEM_COORDINATE_TYPE>
2
5
10

$$$$
