45784127
  -OEChem-12032416283D

 54 56  0     1  0  0  0  0  0999 V2000
   -7.5747   -1.6506    0.3604 F   0  0  0  0  0  0  0  0  0  0  0  0
    5.5026   -3.0372    1.3134 O   0  0  0  0  0  0  0  0  0  0  0  0
    0.0682    1.6288    0.7094 O   0  0  0  0  0  0  0  0  0  0  0  0
   -2.5862    0.5719   -0.2562 O   0  0  0  0  0  0  0  0  0  0  0  0
    0.7386    3.3510   -0.5510 N   0  0  0  0  0  0  0  0  0  0  0  0
   -0.6425    3.3054   -0.5898 N   0  0  0  0  0  0  0  0  0  0  0  0
    2.4868   -1.2312   -0.0345 C   0  0  2  0  0  0  0  0  0  0  0  0
    2.3660   -0.0342   -0.9900 C   0  0  0  0  0  0  0  0  0  0  0  0
    3.9661   -1.6721    0.0954 C   0  0  1  0  0  0  0  0  0  0  0  0
    3.1959    1.1744   -0.5176 C   0  0  2  0  0  0  0  0  0  0  0  0
    1.5928   -2.3758   -0.5215 C   0  0  0  0  0  0  0  0  0  0  0  0
    4.5992    0.7704   -0.1130 C   0  0  0  0  0  0  0  0  0  0  0  0
    4.9279   -0.5082    0.1439 C   0  0  0  0  0  0  0  0  0  0  0  0
    2.4893    1.9184    0.6210 C   0  0  0  0  0  0  0  0  0  0  0  0
    4.1732   -2.5573    1.3298 C   0  0  0  0  0  0  0  0  0  0  0  0
    1.6837   -2.5137   -2.0379 C   0  0  0  0  0  0  0  0  0  0  0  0
    0.1493   -2.1464   -0.0848 C   0  0  0  0  0  0  0  0  0  0  0  0
    5.6285    1.8646   -0.0547 C   0  0  0  0  0  0  0  0  0  0  0  0
    1.1097    2.3545    0.2185 C   0  0  0  0  0  0  0  0  0  0  0  0
   -0.9897    2.2851    0.1593 C   0  0  0  0  0  0  0  0  0  0  0  0
   -2.3276    1.7713    0.4785 C   0  0  0  0  0  0  0  0  0  0  0  0
   -3.8268    0.0192   -0.1029 C   0  0  0  0  0  0  0  0  0  0  0  0
   -4.7617    0.6257    0.7360 C   0  0  0  0  0  0  0  0  0  0  0  0
   -4.1581   -1.1513   -0.7855 C   0  0  0  0  0  0  0  0  0  0  0  0
   -6.0277    0.0617    0.8926 C   0  0  0  0  0  0  0  0  0  0  0  0
   -5.4241   -1.7154   -0.6289 C   0  0  0  0  0  0  0  0  0  0  0  0
   -6.3589   -1.1089    0.2101 C   0  0  0  0  0  0  0  0  0  0  0  0
    2.1431   -0.9207    0.9616 H   0  0  0  0  0  0  0  0  0  0  0  0
    2.7777   -0.2968   -1.9743 H   0  0  0  0  0  0  0  0  0  0  0  0
    1.3232    0.2394   -1.1711 H   0  0  0  0  0  0  0  0  0  0  0  0
    4.2612   -2.2545   -0.7875 H   0  0  0  0  0  0  0  0  0  0  0  0
    3.2727    1.8540   -1.3787 H   0  0  0  0  0  0  0  0  0  0  0  0
    1.9100   -3.3246   -0.0770 H   0  0  0  0  0  0  0  0  0  0  0  0
    5.9657   -0.7355    0.3781 H   0  0  0  0  0  0  0  0  0  0  0  0
    2.4313    1.3025    1.5264 H   0  0  0  0  0  0  0  0  0  0  0  0
    3.0516    2.8190    0.8959 H   0  0  0  0  0  0  0  0  0  0  0  0
    4.0142   -1.9933    2.2560 H   0  0  0  0  0  0  0  0  0  0  0  0
    3.5067   -3.4231    1.3334 H   0  0  0  0  0  0  0  0  0  0  0  0
    1.1675   -1.7115   -2.5756 H   0  0  0  0  0  0  0  0  0  0  0  0
    1.1885   -3.4435   -2.3445 H   0  0  0  0  0  0  0  0  0  0  0  0
    2.7157   -2.5820   -2.3946 H   0  0  0  0  0  0  0  0  0  0  0  0
   -0.2759   -1.2374   -0.5204 H   0  0  0  0  0  0  0  0  0  0  0  0
    0.0764   -2.0666    1.0051 H   0  0  0  0  0  0  0  0  0  0  0  0
   -0.4827   -2.9855   -0.3960 H   0  0  0  0  0  0  0  0  0  0  0  0
    5.6777    2.3913   -1.0133 H   0  0  0  0  0  0  0  0  0  0  0  0
    6.6306    1.4778    0.1592 H   0  0  0  0  0  0  0  0  0  0  0  0
    5.3818    2.5877    0.7283 H   0  0  0  0  0  0  0  0  0  0  0  0
    5.6199   -3.5878    2.1062 H   0  0  0  0  0  0  0  0  0  0  0  0
   -3.0483    2.5510    0.2013 H   0  0  0  0  0  0  0  0  0  0  0  0
   -2.3756    1.5752    1.5569 H   0  0  0  0  0  0  0  0  0  0  0  0
   -4.5755    1.5313    1.3025 H   0  0  0  0  0  0  0  0  0  0  0  0
   -3.4334   -1.6283   -1.4397 H   0  0  0  0  0  0  0  0  0  0  0  0
   -6.7564    0.5320    1.5464 H   0  0  0  0  0  0  0  0  0  0  0  0
   -5.6823   -2.6268   -1.1600 H   0  0  0  0  0  0  0  0  0  0  0  0
  1 27  1  0  0  0  0
  2 15  1  0  0  0  0
  2 48  1  0  0  0  0
  3 19  1  0  0  0  0
  3 20  1  0  0  0  0
  4 21  1  0  0  0  0
  4 22  1  0  0  0  0
  5  6  1  0  0  0  0
  5 19  2  0  0  0  0
  6 20  2  0  0  0  0
  7  8  1  0  0  0  0
  7  9  1  0  0  0  0
  7 11  1  0  0  0  0
  7 28  1  0  0  0  0
  8 10  1  0  0  0  0
  8 29  1  0  0  0  0
  8 30  1  0  0  0  0
  9 13  1  0  0  0  0
  9 15  1  0  0  0  0
  9 31  1  0  0  0  0
 10 12  1  0  0  0  0
 10 14  1  0  0  0  0
 10 32  1  0  0  0  0
 11 16  1  0  0  0  0
 11 17  1  0  0  0  0
 11 33  1  0  0  0  0
 12 13  2  0  0  0  0
 12 18  1  0  0  0  0
 13 34  1  0  0  0  0
 14 19  1  0  0  0  0
 14 35  1  0  0  0  0
 14 36  1  0  0  0  0
 15 37  1  0  0  0  0
 15 38  1  0  0  0  0
 16 39  1  0  0  0  0
 16 40  1  0  0  0  0
 16 41  1  0  0  0  0
 17 42  1  0  0  0  0
 17 43  1  0  0  0  0
 17 44  1  0  0  0  0
 18 45  1  0  0  0  0
 18 46  1  0  0  0  0
 18 47  1  0  0  0  0
 20 21  1  0  0  0  0
 21 49  1  0  0  0  0
 21 50  1  0  0  0  0
 22 23  2  0  0  0  0
 22 24  1  0  0  0  0
 23 25  1  0  0  0  0
 23 51  1  0  0  0  0
 24 26  2  0  0  0  0
 24 52  1  0  0  0  0
 25 27  2  0  0  0  0
 25 53  1  0  0  0  0
 26 27  1  0  0  0  0
 26 54  1  0  0  0  0
M  END
> <PUBCHEM_COMPOUND_CID>
45784127

> <PUBCHEM_CONFORMER_RMSD>
1

> <PUBCHEM_CONFORMER_DIVERSEORDER>
1
52
83
135
61
99
144
19
207
171
37
169
120
211
226
26
77
127
143
145
38
158
212
175
70
182
103
23
86
115
14
183
75
66
106
4
201
32
13
213
140
48
54
76
28
18
224
68
27
168
159
112
219
142
21
91
33
166
41
214
146
95
173
225
136
147
133
195
150
100
154
88
174
84
24
114
164
176
72
162
188
65
155
119
102
5
181
192
60
51
206
123
74
2
122
34
6
40
200
189
153
138
184
57
151
67
17
80
215
64
129
187
92
186
109
208
121
3
148
180
205
59
50
87
94
71
11
73
108
31
157
196
209
191
160
217
8
111
125
113
9
97
170
12
131
107
110
98
190
141
81
220
96
134
124
93
10
90
172
39
56
198
216
15
22
30
44
179
85
130
78
42
177
105
82
53
36
7
128
210
204
104
101
149
43
20
152
45
46
132
139
62
202
218
79
16
137
89
197
222
126
58
49
223
63
55
116
29
178
199
221
69
167
165
25
163
185
35
194
203
47
161
193
118
156
117

> <PUBCHEM_MMFF94_PARTIAL_CHARGES>
28
1 -0.19
10 0.14
12 -0.28
13 -0.29
14 0.18
15 0.28
18 0.14
19 0.3
2 -0.68
20 0.3
21 0.46
22 0.08
23 -0.15
24 -0.15
25 -0.15
26 -0.15
27 0.19
3 -0.28
34 0.15
4 -0.36
48 0.4
5 -0.34
51 0.15
52 0.15
53 0.15
54 0.15
6 -0.34
9 0.14

> <PUBCHEM_EFFECTIVE_ROTOR_COUNT>
7.8

> <PUBCHEM_PHARMACOPHORE_FEATURES>
7
1 2 acceptor
1 2 donor
1 4 acceptor
3 11 16 17 hydrophobe
5 3 5 6 19 20 rings
6 22 23 24 25 26 27 rings
6 7 8 9 10 12 13 rings

> <PUBCHEM_HEAVY_ATOM_COUNT>
27

> <PUBCHEM_ATOM_DEF_STEREO_COUNT>
3

> <PUBCHEM_ATOM_UDEF_STEREO_COUNT>
0

> <PUBCHEM_BOND_DEF_STEREO_COUNT>
0

> <PUBCHEM_BOND_UDEF_STEREO_COUNT>
0

> <PUBCHEM_ISOTOPIC_ATOM_COUNT>
0

> <PUBCHEM_COMPONENT_COUNT>
1

> <PUBCHEM_CACTVS_TAUTO_COUNT>
1

> <PUBCHEM_CONFORMER_ID>
02BA9C3F00000001

> <PUBCHEM_MMFF94_ENERGY>
57.64

> <PUBCHEM_FEATURE_SELFOVERLAP>
35.522

> <PUBCHEM_SHAPE_FINGERPRINT>
10688039 33 18113898238849469901
11578080 2 13624677045985458228
11963148 33 18262793089971327794
12107183 9 18342188726672803969
12166972 35 17749394736704913342
12422481 6 17988074491779690655
12596602 18 16988570134220030737
12838862 33 18269821159552811949
13402501 40 18409169943526639891
1361 2 18264210390819804872
14341114 328 18202285792647272671
14394314 77 18342182172020012169
1454969 45 18336834194960201372
14840074 17 18202283627909818269
15721738 202 18060147552490685443
15927050 60 17552636267837227796
17492 54 18190197835031909684
17492 89 18193274083909278122
17857418 61 18343303687001868293
17909252 39 17701557103700683166
1979834 28 17703794699724937879
20028762 73 18060139872683114622
21197605 99 18270403909300154102
21344244 181 17560260093181329636
23559900 14 18338509850928416569
338550 245 18196092372760546253
3680242 22 18410299094676441427
4073 2 18120376707684470241
439807 62 18261111868552560827
46194498 28 17386002944275139981
463206 1 18128535067019978103
5104073 3 18272083838824704728
6823239 73 17559134093725477788

> <PUBCHEM_SHAPE_MULTIPOLES>
520.8
15.47
3.91
1.1
20.68
0.72
0.13
-7.71
-3.39
-3.14
0.14
-0.56
-0.66
-1.27

> <PUBCHEM_SHAPE_SELFOVERLAP>
1093.779

> <PUBCHEM_SHAPE_VOLUME>
296.6

> <PUBCHEM_COORDINATE_TYPE>
2
5
10

$$$$
