75536703
  -OEChem-12032416313D

 52 53  0     1  0  0  0  0  0999 V2000
    3.3321    1.9161    0.0147 S   0  0  0  0  0  0  0  0  0  0  0  0
   -0.9870    1.2143   -1.2971 O   0  0  0  0  0  0  0  0  0  0  0  0
   -1.7240    0.8194    2.1967 O   0  0  0  0  0  0  0  0  0  0  0  0
    3.3095    2.3716    1.3917 O   0  0  0  0  0  0  0  0  0  0  0  0
    4.0559    2.6699   -0.9911 O   0  0  0  0  0  0  0  0  0  0  0  0
   -3.9125   -0.3044    0.2412 N   0  0  0  0  0  0  0  0  0  0  0  0
    1.7373    1.6660   -0.5223 N   0  0  0  0  0  0  0  0  0  0  0  0
   -2.8752    0.6957    0.0473 C   0  0  1  0  0  0  0  0  0  0  0  0
   -1.6118    0.4249    0.8431 C   0  0  1  0  0  0  0  0  0  0  0  0
   -0.6005    1.2750    0.0860 C   0  0  1  0  0  0  0  0  0  0  0  0
   -2.3361    0.7212   -1.3735 C   0  0  0  0  0  0  0  0  0  0  0  0
   -6.3399   -0.8746   -0.1519 C   0  0  0  0  0  0  0  0  0  0  0  0
   -5.1971    0.1669   -0.2624 C   0  0  0  0  0  0  0  0  0  0  0  0
    0.8292    0.7879    0.2412 C   0  0  0  0  0  0  0  0  0  0  0  0
   -6.5716   -1.1814    1.3399 C   0  0  0  0  0  0  0  0  0  0  0  0
   -7.6456   -0.3204   -0.7485 C   0  0  0  0  0  0  0  0  0  0  0  0
   -5.9714   -2.1856   -0.8690 C   0  0  0  0  0  0  0  0  0  0  0  0
    3.9824    0.2725   -0.0048 C   0  0  0  0  0  0  0  0  0  0  0  0
    4.5990   -0.2194   -1.1553 C   0  0  0  0  0  0  0  0  0  0  0  0
    3.8764   -0.5333    1.1288 C   0  0  0  0  0  0  0  0  0  0  0  0
    5.1097   -1.5172   -1.1720 C   0  0  0  0  0  0  0  0  0  0  0  0
    4.3870   -1.8312    1.1120 C   0  0  0  0  0  0  0  0  0  0  0  0
    5.0039   -2.3232   -0.0384 C   0  0  0  0  0  0  0  0  0  0  0  0
    5.5500   -3.7109   -0.0564 C   0  0  0  0  0  0  0  0  0  0  0  0
   -3.2487    1.6898    0.3313 H   0  0  0  0  0  0  0  0  0  0  0  0
   -1.3420   -0.6380    0.8059 H   0  0  0  0  0  0  0  0  0  0  0  0
   -0.6625    2.3261    0.3974 H   0  0  0  0  0  0  0  0  0  0  0  0
   -2.2892   -0.2791   -1.8194 H   0  0  0  0  0  0  0  0  0  0  0  0
   -2.9199    1.3671   -2.0361 H   0  0  0  0  0  0  0  0  0  0  0  0
   -3.9943   -0.5077    1.2365 H   0  0  0  0  0  0  0  0  0  0  0  0
   -5.0965    0.4397   -1.3208 H   0  0  0  0  0  0  0  0  0  0  0  0
   -5.4936    1.0794    0.2721 H   0  0  0  0  0  0  0  0  0  0  0  0
    0.9306   -0.2262   -0.1613 H   0  0  0  0  0  0  0  0  0  0  0  0
    1.1003    0.7817    1.3012 H   0  0  0  0  0  0  0  0  0  0  0  0
   -1.9641    1.7612    2.2218 H   0  0  0  0  0  0  0  0  0  0  0  0
   -6.7684   -0.2655    1.9085 H   0  0  0  0  0  0  0  0  0  0  0  0
   -7.4381   -1.8405    1.4711 H   0  0  0  0  0  0  0  0  0  0  0  0
   -5.7168   -1.6889    1.7991 H   0  0  0  0  0  0  0  0  0  0  0  0
   -7.5231   -0.0913   -1.8129 H   0  0  0  0  0  0  0  0  0  0  0  0
   -7.9501    0.6019   -0.2415 H   0  0  0  0  0  0  0  0  0  0  0  0
   -8.4658   -1.0408   -0.6538 H   0  0  0  0  0  0  0  0  0  0  0  0
   -5.7571   -2.0040   -1.9281 H   0  0  0  0  0  0  0  0  0  0  0  0
   -6.7939   -2.9081   -0.8153 H   0  0  0  0  0  0  0  0  0  0  0  0
   -5.0905   -2.6623   -0.4257 H   0  0  0  0  0  0  0  0  0  0  0  0
    1.5423    1.7428   -1.5284 H   0  0  0  0  0  0  0  0  0  0  0  0
    4.6859    0.3880   -2.0516 H   0  0  0  0  0  0  0  0  0  0  0  0
    3.3981   -0.1715    2.0344 H   0  0  0  0  0  0  0  0  0  0  0  0
    5.5881   -1.8893   -2.0742 H   0  0  0  0  0  0  0  0  0  0  0  0
    4.2994   -2.4491    2.0017 H   0  0  0  0  0  0  0  0  0  0  0  0
    6.5934   -3.7082    0.2739 H   0  0  0  0  0  0  0  0  0  0  0  0
    4.9749   -4.3704    0.6024 H   0  0  0  0  0  0  0  0  0  0  0  0
    5.5012   -4.1417   -1.0622 H   0  0  0  0  0  0  0  0  0  0  0  0
  1  4  2  0  0  0  0
  1  5  2  0  0  0  0
  1  7  1  0  0  0  0
  1 18  1  0  0  0  0
  2 10  1  0  0  0  0
  2 11  1  0  0  0  0
  3  9  1  0  0  0  0
  3 35  1  0  0  0  0
  6  8  1  0  0  0  0
  6 13  1  0  0  0  0
  6 30  1  0  0  0  0
  7 14  1  0  0  0  0
  7 45  1  0  0  0  0
  8  9  1  0  0  0  0
  8 11  1  0  0  0  0
  8 25  1  0  0  0  0
  9 10  1  0  0  0  0
  9 26  1  0  0  0  0
 10 14  1  0  0  0  0
 10 27  1  0  0  0  0
 11 28  1  0  0  0  0
 11 29  1  0  0  0  0
 12 13  1  0  0  0  0
 12 15  1  0  0  0  0
 12 16  1  0  0  0  0
 12 17  1  0  0  0  0
 13 31  1  0  0  0  0
 13 32  1  0  0  0  0
 14 33  1  0  0  0  0
 14 34  1  0  0  0  0
 15 36  1  0  0  0  0
 15 37  1  0  0  0  0
 15 38  1  0  0  0  0
 16 39  1  0  0  0  0
 16 40  1  0  0  0  0
 16 41  1  0  0  0  0
 17 42  1  0  0  0  0
 17 43  1  0  0  0  0
 17 44  1  0  0  0  0
 18 19  2  0  0  0  0
 18 20  1  0  0  0  0
 19 21  1  0  0  0  0
 19 46  1  0  0  0  0
 20 22  2  0  0  0  0
 20 47  1  0  0  0  0
 21 23  2  0  0  0  0
 21 48  1  0  0  0  0
 22 23  1  0  0  0  0
 22 49  1  0  0  0  0
 23 24  1  0  0  0  0
 24 50  1  0  0  0  0
 24 51  1  0  0  0  0
 24 52  1  0  0  0  0
M  END
> <PUBCHEM_COMPOUND_CID>
75536703

> <PUBCHEM_CONFORMER_RMSD>
0.8

> <PUBCHEM_CONFORMER_DIVERSEORDER>
1
244
326
293
206
131
6
214
278
109
75
306
248
99
85
314
181
304
232
223
114
242
193
279
285
162
95
66
330
243
313
126
188
185
191
106
215
291
46
134
199
14
49
163
317
107
269
226
294
228
318
207
37
289
225
200
18
321
284
262
173
88
178
119
211
221
74
96
113
59
21
194
302
247
32
256
280
219
299
272
115
308
201
249
245
35
98
320
267
133
112
240
143
141
265
38
310
325
204
266
12
84
220
83
142
127
70
271
315
40
227
76
146
104
268
196
205
239
305
68
13
309
148
277
261
47
156
158
172
36
254
233
136
295
298
224
241
327
86
154
57
175
187
26
319
140
97
208
301
250
328
69
281
125
61
102
263
25
30
90
161
218
60
169
58
287
184
155
139
297
168
52
130
44
300
4
190
8
45
51
41
108
238
144
151
259
129
234
323
19
235
77
229
179
253
186
217
81
312
9
82
159
197
122
29
39
100
167
7
147
275
230
78
329
164
170
48
138
64
132
153
252
283
246
236
24
264
105
2
192
255
257
292
157
16
231
111
166
209
274
212
149
56
55
195
73
103
251
67
290
62
303
121
322
222
94
150
101
258
282
316
3
27
165
286
92
20
65
72
203
110
307
145
183
324
53
117
79
135
180
273
5
42
311
177
120
182
123
210
50
124
89
270
276
152
137
43
91
128
171
11
198
17
118
31
93
160
10
216
34
176
28
174
288
63
296
213
80
237
33
116
54
71
260
23
22
15
202
189
87

> <PUBCHEM_MMFF94_PARTIAL_CHARGES>
27
1 1.45
10 0.28
11 0.28
13 0.27
14 0.36
18 -0.01
19 -0.15
2 -0.56
20 -0.15
21 -0.15
22 -0.15
23 -0.14
24 0.14
3 -0.68
30 0.36
35 0.4
4 -0.65
45 0.42
46 0.15
47 0.15
48 0.15
49 0.15
5 -0.65
6 -0.9
7 -0.91
8 0.27
9 0.28

> <PUBCHEM_EFFECTIVE_ROTOR_COUNT>
8

> <PUBCHEM_PHARMACOPHORE_FEATURES>
11
1 2 acceptor
1 3 acceptor
1 3 donor
1 4 acceptor
1 5 acceptor
1 6 cation
1 6 donor
1 7 donor
4 12 15 16 17 hydrophobe
5 2 8 9 10 11 rings
6 18 19 20 21 22 23 rings

> <PUBCHEM_HEAVY_ATOM_COUNT>
24

> <PUBCHEM_ATOM_DEF_STEREO_COUNT>
3

> <PUBCHEM_ATOM_UDEF_STEREO_COUNT>
0

> <PUBCHEM_BOND_DEF_STEREO_COUNT>
0

> <PUBCHEM_BOND_UDEF_STEREO_COUNT>
0

> <PUBCHEM_ISOTOPIC_ATOM_COUNT>
0

> <PUBCHEM_COMPONENT_COUNT>
1

> <PUBCHEM_CACTVS_TAUTO_COUNT>
1

> <PUBCHEM_CONFORMER_ID>
0480993F00000001

> <PUBCHEM_MMFF94_ENERGY>
41.2866

> <PUBCHEM_FEATURE_SELFOVERLAP>
55.839

> <PUBCHEM_SHAPE_FINGERPRINT>
10 15 13326850054799637631
10906281 52 13118274812545955573
117089 54 18053110523518373982
11719270 70 17632860819982890095
125118 31 10015597107815487299
12616971 3 17632569457558830133
13073987 5 18272650134346763096
13533116 47 18342459265712628192
1361 2 18261392281907640330
1361 4 18266177412942849871
13782708 43 18411696604436678279
13955234 65 18270396217647028832
14211702 104 18265336286674195299
14251740 57 18410288108271086114
14251764 75 10230881484412936498
14347332 77 18334289825857394405
15183329 4 15068337913409879647
15188451 53 17917988334917153891
15475509 8 17240763944042049589
15840311 113 9511196165890084971
17492 89 18339640036722055460
20028762 73 18272931596454727486
20281389 69 10519996963292869095
20567600 234 12031783695596461715
20645477 70 18333449842224061796
20775438 99 18190169264873020714
21150785 3 12829494779242959507
21344244 181 18113059354881162163
21344244 78 17346589756324507416
21641784 216 15068610562043947607
21682296 61 18409451350016144759
21792934 111 15195296274954083817
220451 1 18200038472837826973
22061861 79 18260263053886167303
2215653 11 17749111084364009785
22849339 104 15864650447755591915
2303208 19 17821733862255285329
23081809 10 18130511911807471793
23522609 53 18122660251375476501
23559900 14 16878237431990564420
23569943 247 18115587024813122347
270888 7 9006468625819317230
2748736 6 9439402406902531399
2838139 119 8574444114475665699
3004659 81 18412263947439906326
3014965 18 18411134740925236637
328310 630 11458415822574220135
3472631 163 11314322636998474154
34797466 226 16588029047416162237
3886686 26 16336977303869157775
397830 11 10735867418300638117
46194498 28 17821446881020043724
465052 167 18342178843329965830
5104073 3 17703791392389084825
531348 171 18412260619979624541
5718773 13 18263360288043036962
59682541 52 18259983782006113831
6025842 7 18334861671147190708
7970288 3 18268710498738899590
960060 61 17749116573680328332

> <PUBCHEM_SHAPE_MULTIPOLES>
464.32
19.42
2.93
1.4
24.54
1.3
0.29
14.05
-1.89
-5.65
-0.13
0.1
-0.14
-0.11

> <PUBCHEM_SHAPE_SELFOVERLAP>
933.869

> <PUBCHEM_SHAPE_VOLUME>
275.7

> <PUBCHEM_COORDINATE_TYPE>
2
5
10

$$$$
