11883119
  -OEChem-12032416333D

 68 71  0     1  0  0  0  0  0999 V2000
    0.1829    2.4629    0.5879 S   0  0  0  0  0  0  0  0  0  0  0  0
    8.2240    0.4694   -1.4379 F   0  0  0  0  0  0  0  0  0  0  0  0
   -7.3373    0.7022   -0.8163 O   0  0  0  0  0  0  0  0  0  0  0  0
   -6.9424    2.0535    1.1234 O   0  0  0  0  0  0  0  0  0  0  0  0
    0.3532   -2.0123   -2.0349 O   0  0  0  0  0  0  0  0  0  0  0  0
    3.4288   -0.6641   -0.5779 O   0  0  0  0  0  0  0  0  0  0  0  0
    0.5758    0.0591   -0.2837 N   0  0  0  0  0  0  0  0  0  0  0  0
    0.9457   -3.3884   -0.2643 N   0  0  0  0  0  0  0  0  0  0  0  0
    2.5367    1.3839    0.1738 N   0  0  0  0  0  0  0  0  0  0  0  0
   -3.2277   -0.5181   -0.0225 C   0  0  2  0  0  0  0  0  0  0  0  0
   -3.5597    1.0093   -0.3261 C   0  0  1  0  0  0  0  0  0  0  0  0
   -5.0729    1.4450   -0.2337 C   0  0  1  0  0  0  0  0  0  0  0  0
   -1.7661   -0.8271   -0.5898 C   0  0  1  0  0  0  0  0  0  0  0  0
   -4.2424   -1.4243   -0.7669 C   0  0  0  0  0  0  0  0  0  0  0  0
   -5.9514    0.4083   -0.9896 C   0  0  1  0  0  0  0  0  0  0  0  0
   -2.5857    1.9632    0.4250 C   0  0  0  0  0  0  0  0  0  0  0  0
   -5.6964   -1.0294   -0.5505 C   0  0  0  0  0  0  0  0  0  0  0  0
   -3.2754   -0.8552    1.4882 C   0  0  0  0  0  0  0  0  0  0  0  0
   -0.7903    0.2493   -0.1888 C   0  0  0  0  0  0  0  0  0  0  0  0
   -5.5908    1.6606    1.2055 C   0  0  0  0  0  0  0  0  0  0  0  0
   -5.2513    2.8129   -0.9514 C   0  0  0  0  0  0  0  0  0  0  0  0
   -1.1794    1.4999    0.2463 C   0  0  0  0  0  0  0  0  0  0  0  0
   -1.2319   -2.2248   -0.2492 C   0  0  0  0  0  0  0  0  0  0  0  0
    0.0843   -2.5199   -0.9430 C   0  0  0  0  0  0  0  0  0  0  0  0
    1.1878    1.1560    0.1066 C   0  0  0  0  0  0  0  0  0  0  0  0
    0.6052   -3.9775    1.0287 C   0  0  0  0  0  0  0  0  0  0  0  0
    2.2481   -3.7708   -0.7960 C   0  0  0  0  0  0  0  0  0  0  0  0
    3.5592    0.4827   -0.1642 C   0  0  0  0  0  0  0  0  0  0  0  0
    1.0539   -3.1264    2.1301 C   0  0  0  0  0  0  0  0  0  0  0  0
    4.9431    1.0082   -0.0233 C   0  0  0  0  0  0  0  0  0  0  0  0
    5.9396    0.4762   -0.8139 C   0  0  0  0  0  0  0  0  0  0  0  0
    5.1836    2.0103    0.8927 C   0  0  0  0  0  0  0  0  0  0  0  0
    1.4212   -2.4307    3.0372 C   0  0  0  0  0  0  0  0  0  0  0  0
    7.2376    0.9696   -0.6824 C   0  0  0  0  0  0  0  0  0  0  0  0
    6.4817    2.5035    1.0241 C   0  0  0  0  0  0  0  0  0  0  0  0
    7.5087    1.9832    0.2367 C   0  0  0  0  0  0  0  0  0  0  0  0
   -3.3132    1.1254   -1.3959 H   0  0  0  0  0  0  0  0  0  0  0  0
   -1.8335   -0.7555   -1.6863 H   0  0  0  0  0  0  0  0  0  0  0  0
   -4.1208   -2.4704   -0.4624 H   0  0  0  0  0  0  0  0  0  0  0  0
   -4.0380   -1.3946   -1.8455 H   0  0  0  0  0  0  0  0  0  0  0  0
   -5.7458    0.4703   -2.0668 H   0  0  0  0  0  0  0  0  0  0  0  0
   -2.8167    1.9929    1.4952 H   0  0  0  0  0  0  0  0  0  0  0  0
   -2.6810    2.9828    0.0372 H   0  0  0  0  0  0  0  0  0  0  0  0
   -6.3447   -1.7012   -1.1277 H   0  0  0  0  0  0  0  0  0  0  0  0
   -5.9958   -1.1756    0.4933 H   0  0  0  0  0  0  0  0  0  0  0  0
   -2.5293   -0.3020    2.0657 H   0  0  0  0  0  0  0  0  0  0  0  0
   -4.2465   -0.6635    1.9372 H   0  0  0  0  0  0  0  0  0  0  0  0
   -3.0930   -1.9213    1.6628 H   0  0  0  0  0  0  0  0  0  0  0  0
   -5.0319    2.4306    1.7464 H   0  0  0  0  0  0  0  0  0  0  0  0
   -5.5748    0.7536    1.8029 H   0  0  0  0  0  0  0  0  0  0  0  0
   -6.2981    3.1079   -1.0722 H   0  0  0  0  0  0  0  0  0  0  0  0
   -4.8182    2.7834   -1.9581 H   0  0  0  0  0  0  0  0  0  0  0  0
   -4.7570    3.6231   -0.4049 H   0  0  0  0  0  0  0  0  0  0  0  0
   -1.1086   -2.2575    0.8328 H   0  0  0  0  0  0  0  0  0  0  0  0
   -1.9359   -3.0074   -0.5480 H   0  0  0  0  0  0  0  0  0  0  0  0
   -7.5564    1.4620   -1.3803 H   0  0  0  0  0  0  0  0  0  0  0  0
   -6.9700    3.0204    1.0268 H   0  0  0  0  0  0  0  0  0  0  0  0
    2.7709    2.3285    0.4622 H   0  0  0  0  0  0  0  0  0  0  0  0
   -0.4664   -4.1867    1.0953 H   0  0  0  0  0  0  0  0  0  0  0  0
    1.0936   -4.9574    1.0959 H   0  0  0  0  0  0  0  0  0  0  0  0
    2.2552   -4.8504   -0.9723 H   0  0  0  0  0  0  0  0  0  0  0  0
    2.4514   -3.2579   -1.7395 H   0  0  0  0  0  0  0  0  0  0  0  0
    3.0252   -3.5089   -0.0726 H   0  0  0  0  0  0  0  0  0  0  0  0
    5.7462   -0.3090   -1.5385 H   0  0  0  0  0  0  0  0  0  0  0  0
    4.4253    2.4156    1.5539 H   0  0  0  0  0  0  0  0  0  0  0  0
    1.7468   -1.8118    3.8402 H   0  0  0  0  0  0  0  0  0  0  0  0
    6.6954    3.2862    1.7463 H   0  0  0  0  0  0  0  0  0  0  0  0
    8.5199    2.3655    0.3406 H   0  0  0  0  0  0  0  0  0  0  0  0
  1 22  1  0  0  0  0
  1 25  1  0  0  0  0
  2 34  1  0  0  0  0
  3 15  1  0  0  0  0
  3 56  1  0  0  0  0
  4 20  1  0  0  0  0
  4 57  1  0  0  0  0
  5 24  2  0  0  0  0
  6 28  2  0  0  0  0
  7 19  1  0  0  0  0
  7 25  2  0  0  0  0
  8 24  1  0  0  0  0
  8 26  1  0  0  0  0
  8 27  1  0  0  0  0
  9 25  1  0  0  0  0
  9 28  1  0  0  0  0
  9 58  1  0  0  0  0
 10 11  1  0  0  0  0
 10 13  1  0  0  0  0
 10 14  1  0  0  0  0
 10 18  1  0  0  0  0
 11 12  1  0  0  0  0
 11 16  1  0  0  0  0
 11 37  1  0  0  0  0
 12 15  1  0  0  0  0
 12 20  1  0  0  0  0
 12 21  1  0  0  0  0
 13 19  1  0  0  0  0
 13 23  1  0  0  0  0
 13 38  1  0  0  0  0
 14 17  1  0  0  0  0
 14 39  1  0  0  0  0
 14 40  1  0  0  0  0
 15 17  1  0  0  0  0
 15 41  1  0  0  0  0
 16 22  1  0  0  0  0
 16 42  1  0  0  0  0
 16 43  1  0  0  0  0
 17 44  1  0  0  0  0
 17 45  1  0  0  0  0
 18 46  1  0  0  0  0
 18 47  1  0  0  0  0
 18 48  1  0  0  0  0
 19 22  2  0  0  0  0
 20 49  1  0  0  0  0
 20 50  1  0  0  0  0
 21 51  1  0  0  0  0
 21 52  1  0  0  0  0
 21 53  1  0  0  0  0
 23 24  1  0  0  0  0
 23 54  1  0  0  0  0
 23 55  1  0  0  0  0
 26 29  1  0  0  0  0
 26 59  1  0  0  0  0
 26 60  1  0  0  0  0
 27 61  1  0  0  0  0
 27 62  1  0  0  0  0
 27 63  1  0  0  0  0
 28 30  1  0  0  0  0
 29 33  3  0  0  0  0
 30 31  2  0  0  0  0
 30 32  1  0  0  0  0
 31 34  1  0  0  0  0
 31 64  1  0  0  0  0
 32 35  2  0  0  0  0
 32 65  1  0  0  0  0
 33 66  1  0  0  0  0
 34 36  2  0  0  0  0
 35 36  1  0  0  0  0
 35 67  1  0  0  0  0
 36 68  1  0  0  0  0
M  END
> <PUBCHEM_COMPOUND_CID>
11883119

> <PUBCHEM_CONFORMER_RMSD>
1

> <PUBCHEM_CONFORMER_DIVERSEORDER>
1
40
21
39
29
33
25
34
38
17
20
31
24
36
42
22
43
41
19
12
8
45
18
23
13
10
37
26
15
28
32
9
44
14
30
35
16
27
7
3
11
5
4
6
2

> <PUBCHEM_MMFF94_PARTIAL_CHARGES>
37
1 -0.08
13 0.18
15 0.28
16 0.18
19 0.05
2 -0.19
20 0.28
22 -0.14
23 0.06
24 0.57
25 0.44
26 0.5
27 0.3
28 0.54
29 -0.2
3 -0.68
30 0.09
31 -0.15
32 -0.15
33 -0.18
34 0.19
35 -0.15
36 -0.15
4 -0.68
5 -0.57
56 0.4
57 0.4
58 0.37
6 -0.57
64 0.15
65 0.15
66 0.18
67 0.15
68 0.15
7 -0.57
8 -0.66
9 -0.49

> <PUBCHEM_EFFECTIVE_ROTOR_COUNT>
9.2

> <PUBCHEM_PHARMACOPHORE_FEATURES>
12
1 3 acceptor
1 3 donor
1 33 hydrophobe
1 4 acceptor
1 4 donor
1 5 acceptor
1 6 acceptor
1 9 donor
5 1 7 19 22 25 rings
6 10 11 12 14 15 17 rings
6 10 11 13 16 19 22 rings
6 30 31 32 34 35 36 rings

> <PUBCHEM_HEAVY_ATOM_COUNT>
36

> <PUBCHEM_ATOM_DEF_STEREO_COUNT>
5

> <PUBCHEM_ATOM_UDEF_STEREO_COUNT>
0

> <PUBCHEM_BOND_DEF_STEREO_COUNT>
0

> <PUBCHEM_BOND_UDEF_STEREO_COUNT>
0

> <PUBCHEM_ISOTOPIC_ATOM_COUNT>
0

> <PUBCHEM_COMPONENT_COUNT>
1

> <PUBCHEM_CACTVS_TAUTO_COUNT>
3

> <PUBCHEM_CONFORMER_ID>
00B5526F00000001

> <PUBCHEM_MMFF94_ENERGY>
116.9771

> <PUBCHEM_FEATURE_SELFOVERLAP>
61.042

> <PUBCHEM_SHAPE_FINGERPRINT>
102385 1 17684359556220419052
10674148 151 18411696609206288880
11007060 377 18269556202998735866
11135926 11 18413106135246407021
11315181 36 18272653484896007321
11578080 2 17460579343637705359
12166972 35 11095882696325853522
12838862 33 18269818926486238252
13150687 139 18413393129424865822
14190465 44 18191865850370194012
14394314 77 18342462529999192633
14790565 3 18411699928114150437
14856354 85 16732984270860019657
15183329 4 18411133640907713136
15361156 5 18051978310409577860
15927050 60 18341889727401493302
18608769 82 18269274737213917751
18681886 176 17917702552589424665
20554085 129 18129925845970454696
21133665 82 18410293636680343462
21360443 120 18334296461856238222
21421861 104 18191304871468502227
23559900 14 17845644979610070001
249057 3 18336830883746131556
3383291 50 18265614479889684394
3411729 13 18335136440835790331
4073 2 18265613381306074952
4258327 124 17897178016732616604
5219985 9 10375872970196303418
5265222 85 18265054806990963412
5385378 56 18339649936410448945
59755656 215 18342740706535088636
6669772 16 18041561343610665531
7288768 16 18113897195689764594

> <PUBCHEM_SHAPE_MULTIPOLES>
699.02
18.52
4.25
1.57
14.26
4.01
-0.84
-16.9
3.2
1.19
-1.04
0.36
1.17
-0.1

> <PUBCHEM_SHAPE_SELFOVERLAP>
1480.806

> <PUBCHEM_SHAPE_VOLUME>
394.3

> <PUBCHEM_COORDINATE_TYPE>
2
5
10

$$$$
