11884018
  -OEChem-12032416373D

 62 66  0     1  0  0  0  0  0999 V2000
   -1.9904    1.9692    0.9193 O   0  0  0  0  0  0  0  0  0  0  0  0
   -2.5398    3.5592   -1.6447 O   0  0  0  0  0  0  0  0  0  0  0  0
    0.5276    2.5355   -0.1032 O   0  0  0  0  0  0  0  0  0  0  0  0
   -6.7563    1.7927    0.5217 O   0  0  0  0  0  0  0  0  0  0  0  0
    1.4730    0.7072   -1.1000 O   0  0  0  0  0  0  0  0  0  0  0  0
   -8.1666   -4.3665    0.1903 O   0  0  0  0  0  0  0  0  0  0  0  0
    7.1678   -1.1274    1.4986 O   0  0  0  0  0  0  0  0  0  0  0  0
   -4.7222    0.9728   -0.2327 N   0  0  0  0  0  0  0  0  0  0  0  0
    2.5022    1.7968    0.6983 N   0  0  0  0  0  0  0  0  0  0  0  0
   -2.8921    2.2138   -1.2602 C   0  0  1  0  0  0  0  0  0  0  0  0
   -1.7269    1.6660   -0.4608 C   0  0  1  0  0  0  0  0  0  0  0  0
   -4.0318    2.2390   -0.2687 C   0  0  2  0  0  0  0  0  0  0  0  0
   -0.5610    2.4622   -0.9959 C   0  0  1  0  0  0  0  0  0  0  0  0
   -3.3133    2.5142    1.0410 C   0  0  0  0  0  0  0  0  0  0  0  0
   -1.1862    3.8166   -1.2433 C   0  0  0  0  0  0  0  0  0  0  0  0
   -6.0464    0.8558    0.1656 C   0  0  0  0  0  0  0  0  0  0  0  0
    1.5164    1.5841   -0.2458 C   0  0  0  0  0  0  0  0  0  0  0  0
   -6.6043   -0.5210    0.1728 C   0  0  0  0  0  0  0  0  0  0  0  0
   -6.0831   -1.4896   -0.6851 C   0  0  0  0  0  0  0  0  0  0  0  0
   -7.6504   -0.8450    1.0370 C   0  0  0  0  0  0  0  0  0  0  0  0
    3.6882    1.0548    0.9006 C   0  0  0  0  0  0  0  0  0  0  0  0
   -6.6077   -2.7820   -0.6786 C   0  0  0  0  0  0  0  0  0  0  0  0
   -8.1749   -2.1374    1.0435 C   0  0  0  0  0  0  0  0  0  0  0  0
   -7.6534   -3.1060    0.1856 C   0  0  0  0  0  0  0  0  0  0  0  0
    3.9707   -0.0436    0.0888 C   0  0  0  0  0  0  0  0  0  0  0  0
    4.5753    1.4203    1.9131 C   0  0  0  0  0  0  0  0  0  0  0  0
    5.1405   -0.7765    0.2891 C   0  0  0  0  0  0  0  0  0  0  0  0
    5.7451    0.6874    2.1137 C   0  0  0  0  0  0  0  0  0  0  0  0
    6.0276   -0.4110    1.3015 C   0  0  0  0  0  0  0  0  0  0  0  0
   -7.5865   -5.3072   -0.7121 C   0  0  0  0  0  0  0  0  0  0  0  0
    7.9115   -1.4735    0.3828 C   0  0  0  0  0  0  0  0  0  0  0  0
    8.1627   -0.5259   -0.6095 C   0  0  0  0  0  0  0  0  0  0  0  0
    8.4085   -2.7700    0.2506 C   0  0  0  0  0  0  0  0  0  0  0  0
    8.9110   -0.8748   -1.7339 C   0  0  0  0  0  0  0  0  0  0  0  0
    9.1569   -3.1190   -0.8736 C   0  0  0  0  0  0  0  0  0  0  0  0
    9.4080   -2.1713   -1.8659 C   0  0  0  0  0  0  0  0  0  0  0  0
   -3.0953    1.6487   -2.1754 H   0  0  0  0  0  0  0  0  0  0  0  0
   -1.5952    0.5834   -0.5442 H   0  0  0  0  0  0  0  0  0  0  0  0
   -4.7592    3.0313   -0.4761 H   0  0  0  0  0  0  0  0  0  0  0  0
   -0.2617    2.0587   -1.9731 H   0  0  0  0  0  0  0  0  0  0  0  0
   -3.2039    3.5914    1.2079 H   0  0  0  0  0  0  0  0  0  0  0  0
   -3.8040    2.0790    1.9170 H   0  0  0  0  0  0  0  0  0  0  0  0
   -1.1967    4.4410   -0.3429 H   0  0  0  0  0  0  0  0  0  0  0  0
   -0.6701    4.3760   -2.0295 H   0  0  0  0  0  0  0  0  0  0  0  0
   -4.1688    0.1409   -0.4097 H   0  0  0  0  0  0  0  0  0  0  0  0
    2.3604    2.5836    1.3270 H   0  0  0  0  0  0  0  0  0  0  0  0
   -5.2905   -1.2697   -1.3943 H   0  0  0  0  0  0  0  0  0  0  0  0
   -8.0672   -0.1058    1.7159 H   0  0  0  0  0  0  0  0  0  0  0  0
   -6.1611   -3.4834   -1.3752 H   0  0  0  0  0  0  0  0  0  0  0  0
   -8.9891   -2.3843    1.7193 H   0  0  0  0  0  0  0  0  0  0  0  0
    3.3290   -0.3889   -0.7099 H   0  0  0  0  0  0  0  0  0  0  0  0
    4.3670    2.2740    2.5529 H   0  0  0  0  0  0  0  0  0  0  0  0
    5.3241   -1.6419   -0.3424 H   0  0  0  0  0  0  0  0  0  0  0  0
    6.4325    0.9767    2.9039 H   0  0  0  0  0  0  0  0  0  0  0  0
   -8.1137   -6.2566   -0.5724 H   0  0  0  0  0  0  0  0  0  0  0  0
   -6.5318   -5.4901   -0.4799 H   0  0  0  0  0  0  0  0  0  0  0  0
   -7.7363   -5.0090   -1.7553 H   0  0  0  0  0  0  0  0  0  0  0  0
    7.8064    0.4970   -0.5218 H   0  0  0  0  0  0  0  0  0  0  0  0
    8.2154   -3.5122    1.0202 H   0  0  0  0  0  0  0  0  0  0  0  0
    9.1109   -0.1357   -2.5042 H   0  0  0  0  0  0  0  0  0  0  0  0
    9.5441   -4.1285   -0.9765 H   0  0  0  0  0  0  0  0  0  0  0  0
    9.9916   -2.4427   -2.7407 H   0  0  0  0  0  0  0  0  0  0  0  0
  1 11  1  0  0  0  0
  1 14  1  0  0  0  0
  2 10  1  0  0  0  0
  2 15  1  0  0  0  0
  3 13  1  0  0  0  0
  3 17  1  0  0  0  0
  4 16  2  0  0  0  0
  5 17  2  0  0  0  0
  6 24  1  0  0  0  0
  6 30  1  0  0  0  0
  7 29  1  0  0  0  0
  7 31  1  0  0  0  0
  8 12  1  0  0  0  0
  8 16  1  0  0  0  0
  8 45  1  0  0  0  0
  9 17  1  0  0  0  0
  9 21  1  0  0  0  0
  9 46  1  0  0  0  0
 10 11  1  0  0  0  0
 10 12  1  0  0  0  0
 10 37  1  0  0  0  0
 11 13  1  0  0  0  0
 11 38  1  0  0  0  0
 12 14  1  0  0  0  0
 12 39  1  0  0  0  0
 13 15  1  0  0  0  0
 13 40  1  0  0  0  0
 14 41  1  0  0  0  0
 14 42  1  0  0  0  0
 15 43  1  0  0  0  0
 15 44  1  0  0  0  0
 16 18  1  0  0  0  0
 18 19  2  0  0  0  0
 18 20  1  0  0  0  0
 19 22  1  0  0  0  0
 19 47  1  0  0  0  0
 20 23  2  0  0  0  0
 20 48  1  0  0  0  0
 21 25  2  0  0  0  0
 21 26  1  0  0  0  0
 22 24  2  0  0  0  0
 22 49  1  0  0  0  0
 23 24  1  0  0  0  0
 23 50  1  0  0  0  0
 25 27  1  0  0  0  0
 25 51  1  0  0  0  0
 26 28  2  0  0  0  0
 26 52  1  0  0  0  0
 27 29  2  0  0  0  0
 27 53  1  0  0  0  0
 28 29  1  0  0  0  0
 28 54  1  0  0  0  0
 30 55  1  0  0  0  0
 30 56  1  0  0  0  0
 30 57  1  0  0  0  0
 31 32  2  0  0  0  0
 31 33  1  0  0  0  0
 32 34  1  0  0  0  0
 32 58  1  0  0  0  0
 33 35  2  0  0  0  0
 33 59  1  0  0  0  0
 34 36  2  0  0  0  0
 34 60  1  0  0  0  0
 35 36  1  0  0  0  0
 35 61  1  0  0  0  0
 36 62  1  0  0  0  0
M  END
> <PUBCHEM_COMPOUND_CID>
11884018

> <PUBCHEM_CONFORMER_RMSD>
1.2

> <PUBCHEM_CONFORMER_DIVERSEORDER>
1
45
27
56
11
55
3
7
57
46
53
38
34
19
51
29
24
25
37
20
41
16
17
36
39
47
58
9
15
43
33
44
6
49
35
50
40
26
10
23
54
18
32
22
30
8
13
31
48
12
42
2
21
5
28
4
52
14

> <PUBCHEM_MMFF94_PARTIAL_CHARGES>
51
1 -0.56
10 0.28
11 0.28
12 0.3
13 0.28
14 0.28
15 0.28
16 0.54
17 0.78
18 0.09
19 -0.15
2 -0.56
20 -0.15
21 0.12
22 -0.15
23 -0.15
24 0.08
25 -0.15
26 -0.15
27 -0.15
28 -0.15
29 0.08
3 -0.43
30 0.28
31 0.08
32 -0.15
33 -0.15
34 -0.15
35 -0.15
36 -0.15
4 -0.57
45 0.37
46 0.37
47 0.15
48 0.15
49 0.15
5 -0.57
50 0.15
51 0.15
52 0.15
53 0.15
54 0.15
58 0.15
59 0.15
6 -0.36
60 0.15
61 0.15
62 0.15
7 -0.17
8 -0.73
9 -0.55

> <PUBCHEM_EFFECTIVE_ROTOR_COUNT>
11.2

> <PUBCHEM_PHARMACOPHORE_FEATURES>
13
1 1 acceptor
1 2 acceptor
1 4 acceptor
1 5 acceptor
1 6 acceptor
1 7 acceptor
1 8 donor
1 9 donor
5 1 10 11 12 14 rings
5 2 10 11 13 15 rings
6 18 19 20 22 23 24 rings
6 21 25 26 27 28 29 rings
6 31 32 33 34 35 36 rings

> <PUBCHEM_HEAVY_ATOM_COUNT>
36

> <PUBCHEM_ATOM_DEF_STEREO_COUNT>
4

> <PUBCHEM_ATOM_UDEF_STEREO_COUNT>
0

> <PUBCHEM_BOND_DEF_STEREO_COUNT>
0

> <PUBCHEM_BOND_UDEF_STEREO_COUNT>
0

> <PUBCHEM_ISOTOPIC_ATOM_COUNT>
0

> <PUBCHEM_COMPONENT_COUNT>
1

> <PUBCHEM_CACTVS_TAUTO_COUNT>
4

> <PUBCHEM_CONFORMER_ID>
00B555F200000001

> <PUBCHEM_MMFF94_ENERGY>
126.6554

> <PUBCHEM_FEATURE_SELFOVERLAP>
66.693

> <PUBCHEM_SHAPE_FINGERPRINT>
10258705 36 18271249309895368150
10280341 67 10015590484564408563
10533779 47 16917078737263175286
10625338 131 10879986956872513014
10952577 141 15359078380635424527
11181472 205 11887947771264418554
11475781 23 9079115596601774016
11497681 19 18333450958599541700
11621639 254 13695863685254197775
11621639 307 9943261286012201739
11672396 43 18202285801411105344
11761917 116 18334575742067795822
11761917 87 17060061394418888854
11828042 74 17895461546137301381
11963148 33 18187353286291359699
12522641 68 17464799192352519725
12717326 120 18341620351531830222
13782708 43 18409720790436873081
14344974 204 18412541050583749135
14671636 106 18408322207393007024
14965480 1 18201449030594146726
15152005 1 18266176326585552407
15350500 55 7997965778507119304
15392192 29 17749405728217515225
16067689 68 18201167607282416099
16728433 281 11747201451976782551
16989713 51 18187359896667768029
16991971 28 18113622291754228996
16992779 147 16771526629176499280
16993089 31 18342734083933154932
1818759 1 18334300850668827546
18608769 82 18411136896972542966
20609170 94 18263649632217083060
20982279 24 17274272639241302326
21424621 283 10591769809431296861
21585481 151 18412547609013978235
21774942 28 9799688208344215656
21781051 124 18272091570472212190
23729417 116 18114460067822722220
25242607 90 18336819892544331177
255183 451 18187366545420060676
2747138 104 18130499748381248032
306946 40 12540705851374579798
3504750 166 18409164425359431945
3711267 37 10663818589637125366
397638 5 9943805574084353582
406291 66 18262513805954997451
44802255 64 12685099181237587097
4516262 110 10735612263321445097
45377200 153 18411703175721388618
4625314 4 18409165489314043828
4760202 70 18042132101978252404
5028188 123 18336268942798736308
54076057 127 18130781292578712472
5718773 13 18261948657052024065
5937810 71 11458415813952637023
636775 8 18338520738522526668
6698420 124 11095892578740406485
9962374 69 18040437707040875900

> <PUBCHEM_SHAPE_MULTIPOLES>
689.82
36.1
5.44
1.59
26.06
4.05
-0.12
48.72
1.26
-11.76
1.8
2.68
-0.41
2.52

> <PUBCHEM_SHAPE_SELFOVERLAP>
1507.115

> <PUBCHEM_SHAPE_VOLUME>
373.4

> <PUBCHEM_COORDINATE_TYPE>
2
5
10

$$$$
