11912250
  -OEChem-12032416133D

 65 68  0     1  0  0  0  0  0999 V2000
    2.5992   -0.4706   -1.6615 S   0  0  0  0  0  0  0  0  0  0  0  0
    5.3663   -3.9222    2.2344 F   0  0  0  0  0  0  0  0  0  0  0  0
   -3.0813   -0.4498    1.8236 O   0  0  0  0  0  0  0  0  0  0  0  0
    3.0561    0.8870   -1.4518 O   0  0  0  0  0  0  0  0  0  0  0  0
    2.7003   -1.0978   -2.9622 O   0  0  0  0  0  0  0  0  0  0  0  0
   -0.6343    1.4171   -1.5714 O   0  0  0  0  0  0  0  0  0  0  0  0
    2.1385    4.6129    0.1552 O   0  0  0  0  0  0  0  0  0  0  0  0
   -1.4531   -1.1442    0.3142 N   0  0  0  0  0  0  0  0  0  0  0  0
    0.9906   -0.6128   -1.0985 N   0  0  2  0  0  0  0  0  0  0  0  0
    0.2973    2.5938    0.2082 N   0  0  0  0  0  0  0  0  0  0  0  0
    0.5184    6.1803    0.5243 N   0  0  0  0  0  0  0  0  0  0  0  0
   -3.7949   -1.8386    0.0458 C   0  0  0  0  0  0  0  0  0  0  0  0
    0.6152    0.2269    0.0736 C   0  0  2  0  0  0  0  0  0  0  0  0
   -5.1466   -1.1297    0.1553 C   0  0  0  0  0  0  0  0  0  0  0  0
   -3.8742   -3.2780    0.5592 C   0  0  0  0  0  0  0  0  0  0  0  0
   -0.3659   -0.4626    1.0185 C   0  0  0  0  0  0  0  0  0  0  0  0
   -1.0864   -1.8975   -0.8879 C   0  0  0  0  0  0  0  0  0  0  0  0
   -2.7552   -1.0783    0.8142 C   0  0  0  0  0  0  0  0  0  0  0  0
    0.4204   -1.9848   -1.0885 C   0  0  0  0  0  0  0  0  0  0  0  0
   -6.2555   -1.9197   -0.5348 C   0  0  0  0  0  0  0  0  0  0  0  0
   -4.9859   -4.0629   -0.1321 C   0  0  0  0  0  0  0  0  0  0  0  0
   -6.3314   -3.3530   -0.0173 C   0  0  0  0  0  0  0  0  0  0  0  0
    0.0137    1.4566   -0.5287 C   0  0  0  0  0  0  0  0  0  0  0  0
   -0.1473    3.9096   -0.1714 C   0  0  1  0  0  0  0  0  0  0  0  0
   -1.5145    4.2132    0.4257 C   0  0  0  0  0  0  0  0  0  0  0  0
    3.4279   -1.5043   -0.4945 C   0  0  0  0  0  0  0  0  0  0  0  0
   -1.8776    5.6645    0.1563 C   0  0  0  0  0  0  0  0  0  0  0  0
    0.9421    4.9035    0.2162 C   0  0  0  0  0  0  0  0  0  0  0  0
   -0.8502    6.5636    0.8176 C   0  0  0  0  0  0  0  0  0  0  0  0
    3.5862   -2.8651   -0.7574 C   0  0  0  0  0  0  0  0  0  0  0  0
    3.9243   -0.9604    0.6901 C   0  0  0  0  0  0  0  0  0  0  0  0
    4.2410   -3.6817    0.1645 C   0  0  0  0  0  0  0  0  0  0  0  0
    4.5790   -1.7771    1.6119 C   0  0  0  0  0  0  0  0  0  0  0  0
    4.7375   -3.1378    1.3491 C   0  0  0  0  0  0  0  0  0  0  0  0
   -3.5512   -1.8535   -1.0213 H   0  0  0  0  0  0  0  0  0  0  0  0
    1.5010    0.4973    0.6553 H   0  0  0  0  0  0  0  0  0  0  0  0
    0.1549   -1.2346    1.5989 H   0  0  0  0  0  0  0  0  0  0  0  0
   -0.7742    0.2534    1.7404 H   0  0  0  0  0  0  0  0  0  0  0  0
   -5.0827   -0.1266   -0.2845 H   0  0  0  0  0  0  0  0  0  0  0  0
   -5.4264   -0.9897    1.2077 H   0  0  0  0  0  0  0  0  0  0  0  0
   -4.0644   -3.2708    1.6412 H   0  0  0  0  0  0  0  0  0  0  0  0
   -2.9256   -3.8083    0.4314 H   0  0  0  0  0  0  0  0  0  0  0  0
   -1.5001   -2.9063   -0.8446 H   0  0  0  0  0  0  0  0  0  0  0  0
   -1.5403   -1.3814   -1.7425 H   0  0  0  0  0  0  0  0  0  0  0  0
    0.6195   -2.4852   -2.0416 H   0  0  0  0  0  0  0  0  0  0  0  0
    0.8595   -2.5785   -0.2805 H   0  0  0  0  0  0  0  0  0  0  0  0
   -7.2176   -1.4194   -0.3772 H   0  0  0  0  0  0  0  0  0  0  0  0
   -6.0757   -1.9315   -1.6169 H   0  0  0  0  0  0  0  0  0  0  0  0
   -4.7323   -4.1982   -1.1907 H   0  0  0  0  0  0  0  0  0  0  0  0
   -5.0596   -5.0633    0.3091 H   0  0  0  0  0  0  0  0  0  0  0  0
   -6.6519   -3.3456    1.0318 H   0  0  0  0  0  0  0  0  0  0  0  0
   -7.0906   -3.9083   -0.5794 H   0  0  0  0  0  0  0  0  0  0  0  0
   -0.2225    3.9482   -1.2661 H   0  0  0  0  0  0  0  0  0  0  0  0
    0.8182    2.5031    1.0761 H   0  0  0  0  0  0  0  0  0  0  0  0
   -2.2729    3.5511   -0.0088 H   0  0  0  0  0  0  0  0  0  0  0  0
   -1.5137    4.0244    1.5072 H   0  0  0  0  0  0  0  0  0  0  0  0
   -2.8772    5.8881    0.5441 H   0  0  0  0  0  0  0  0  0  0  0  0
   -1.8977    5.8474   -0.9250 H   0  0  0  0  0  0  0  0  0  0  0  0
   -0.9586    6.5304    1.9074 H   0  0  0  0  0  0  0  0  0  0  0  0
   -0.9809    7.6027    0.4998 H   0  0  0  0  0  0  0  0  0  0  0  0
    1.2392    6.8659    0.7277 H   0  0  0  0  0  0  0  0  0  0  0  0
    3.2064   -3.3111   -1.6721 H   0  0  0  0  0  0  0  0  0  0  0  0
    3.8185    0.0966    0.9157 H   0  0  0  0  0  0  0  0  0  0  0  0
    4.3640   -4.7413   -0.0394 H   0  0  0  0  0  0  0  0  0  0  0  0
    4.9666   -1.3539    2.5340 H   0  0  0  0  0  0  0  0  0  0  0  0
  1  4  2  0  0  0  0
  1  5  2  0  0  0  0
  1  9  1  0  0  0  0
  1 26  1  0  0  0  0
  2 34  1  0  0  0  0
  3 18  2  0  0  0  0
  6 23  2  0  0  0  0
  7 28  2  0  0  0  0
  8 16  1  0  0  0  0
  8 17  1  0  0  0  0
  8 18  1  0  0  0  0
  9 13  1  0  0  0  0
  9 19  1  0  0  0  0
 10 23  1  0  0  0  0
 10 24  1  0  0  0  0
 10 54  1  0  0  0  0
 11 28  1  0  0  0  0
 11 29  1  0  0  0  0
 11 61  1  0  0  0  0
 12 14  1  0  0  0  0
 12 15  1  0  0  0  0
 12 18  1  0  0  0  0
 12 35  1  0  0  0  0
 13 16  1  0  0  0  0
 13 23  1  0  0  0  0
 13 36  1  0  0  0  0
 14 20  1  0  0  0  0
 14 39  1  0  0  0  0
 14 40  1  0  0  0  0
 15 21  1  0  0  0  0
 15 41  1  0  0  0  0
 15 42  1  0  0  0  0
 16 37  1  0  0  0  0
 16 38  1  0  0  0  0
 17 19  1  0  0  0  0
 17 43  1  0  0  0  0
 17 44  1  0  0  0  0
 19 45  1  0  0  0  0
 19 46  1  0  0  0  0
 20 22  1  0  0  0  0
 20 47  1  0  0  0  0
 20 48  1  0  0  0  0
 21 22  1  0  0  0  0
 21 49  1  0  0  0  0
 21 50  1  0  0  0  0
 22 51  1  0  0  0  0
 22 52  1  0  0  0  0
 24 25  1  0  0  0  0
 24 28  1  0  0  0  0
 24 53  1  0  0  0  0
 25 27  1  0  0  0  0
 25 55  1  0  0  0  0
 25 56  1  0  0  0  0
 26 30  2  0  0  0  0
 26 31  1  0  0  0  0
 27 29  1  0  0  0  0
 27 57  1  0  0  0  0
 27 58  1  0  0  0  0
 29 59  1  0  0  0  0
 29 60  1  0  0  0  0
 30 32  1  0  0  0  0
 30 62  1  0  0  0  0
 31 33  2  0  0  0  0
 31 63  1  0  0  0  0
 32 34  2  0  0  0  0
 32 64  1  0  0  0  0
 33 34  1  0  0  0  0
 33 65  1  0  0  0  0
M  END
> <PUBCHEM_COMPOUND_CID>
11912250

> <PUBCHEM_CONFORMER_RMSD>
1.2

> <PUBCHEM_CONFORMER_DIVERSEORDER>
1
19
46
78
115
48
15
119
68
42
101
52
49
106
89
21
86
64
117
104
83
23
92
45
59
29
121
11
97
105
72
99
30
43
24
82
53
63
73
100
113
70
81
65
20
51
16
69
103
38
79
54
84
2
118
85
77
47
116
108
27
36
94
55
66
33
50
93
71
88
39
41
44
18
80
90
32
96
61
10
37
110
40
87
4
122
28
60
13
26
22
111
74
34
114
9
58
91
95
8
120
112
67
98
109
76
56
17
102
62
31
25
107
6
14
7
5
75
57
3
35
12

> <PUBCHEM_MMFF94_PARTIAL_CHARGES>
33
1 1.45
10 -0.73
11 -0.73
12 0.06
13 0.42
16 0.3
17 0.3
18 0.57
19 0.36
2 -0.19
23 0.57
24 0.36
26 -0.01
28 0.57
29 0.3
3 -0.57
30 -0.15
31 -0.15
32 -0.15
33 -0.15
34 0.19
4 -0.65
5 -0.65
54 0.37
6 -0.57
61 0.37
62 0.15
63 0.15
64 0.15
65 0.15
7 -0.57
8 -0.66
9 -0.85

> <PUBCHEM_EFFECTIVE_ROTOR_COUNT>
10.4

> <PUBCHEM_PHARMACOPHORE_FEATURES>
11
1 10 donor
1 11 donor
1 3 acceptor
1 4 acceptor
1 5 acceptor
1 6 acceptor
1 7 acceptor
6 11 24 25 27 28 29 rings
6 12 14 15 20 21 22 rings
6 26 30 31 32 33 34 rings
6 8 9 13 16 17 19 rings

> <PUBCHEM_HEAVY_ATOM_COUNT>
34

> <PUBCHEM_ATOM_DEF_STEREO_COUNT>
2

> <PUBCHEM_ATOM_UDEF_STEREO_COUNT>
0

> <PUBCHEM_BOND_DEF_STEREO_COUNT>
0

> <PUBCHEM_BOND_UDEF_STEREO_COUNT>
0

> <PUBCHEM_ISOTOPIC_ATOM_COUNT>
0

> <PUBCHEM_COMPONENT_COUNT>
1

> <PUBCHEM_CACTVS_TAUTO_COUNT>
4

> <PUBCHEM_CONFORMER_ID>
00B5C43A00000001

> <PUBCHEM_MMFF94_ENERGY>
62.4404

> <PUBCHEM_FEATURE_SELFOVERLAP>
55.842

> <PUBCHEM_SHAPE_FINGERPRINT>
10074138 170 17977929199311137520
12160290 23 17755045011185574797
12293681 160 17686662256023508076
12788726 201 18190483579105664490
13540713 5 17825407197618370430
13692114 37 17617944630286503769
13955234 65 17977391860685935131
14068700 675 18187923933464627802
14150023 79 17761493999196243733
14705955 166 18194097669842655386
15439362 3 17331968729513311844
15484559 13 17765448921142054796
15664445 248 18198074774998214342
17818456 19 18046354037016970910
18681886 176 18057342762684504334
19304671 126 17468985282453835431
21304303 282 17690262825691233093
21344244 78 18336251419331727170
21703447 108 17688596374117968979
23559900 14 18337100294149242635
345986 75 18041547053806325642
376196 1 17120307247770644924
4058900 60 17330559160011109665
463206 1 18259704514606891667
563151 97 17186708967328763311
6058803 2 17898590695821081030
6371380 46 17474397249720022412
653340 110 17979356361104079459
6691757 9 17397244055300519970
6695519 79 17040380458061874635
6697151 62 18266155375523696351
79837 15 17762053237939225036
9658208 31 17405435403636218182
9777508 108 17764029068977267466
9896288 288 18050554154730921554
9981440 41 17184196041539807361

> <PUBCHEM_SHAPE_MULTIPOLES>
647.01
11.08
9.87
1.58
13.05
22.51
0.35
-20.56
-2.25
-3.16
-3.01
-1.87
-1.16
-1.63

> <PUBCHEM_SHAPE_SELFOVERLAP>
1351.31

> <PUBCHEM_SHAPE_VOLUME>
366.3

> <PUBCHEM_COORDINATE_TYPE>
2
5
10

$$$$
