51137943
  -OEChem-12032416253D

 40 43  0     1  0  0  0  0  0999 V2000
    5.3933    2.3639    0.6728 F   0  0  0  0  0  0  0  0  0  0  0  0
    3.5560    2.2192    1.8266 F   0  0  0  0  0  0  0  0  0  0  0  0
    5.0717    0.6786    2.0086 F   0  0  0  0  0  0  0  0  0  0  0  0
   -5.6063    0.4685    0.4508 F   0  0  0  0  0  0  0  0  0  0  0  0
   -1.6656   -0.8496    0.2762 O   0  0  0  0  0  0  0  0  0  0  0  0
    1.3419   -1.7522   -0.4427 N   0  0  0  0  0  0  0  0  0  0  0  0
   -2.9152   -2.5667    0.9791 N   0  0  0  0  0  0  0  0  0  0  0  0
    2.8628   -0.1691    0.3012 N   0  0  0  0  0  0  0  0  0  0  0  0
    2.6280   -0.6760   -2.0431 N   0  0  0  0  0  0  0  0  0  0  0  0
   -3.7518   -1.4856    0.7736 N   0  0  0  0  0  0  0  0  0  0  0  0
   -0.3877   -2.9010    0.7112 C   0  0  1  0  0  0  0  0  0  0  0  0
   -0.1029   -3.6028   -0.6202 C   0  0  0  0  0  0  0  0  0  0  0  0
    0.8833   -2.0542    0.9137 C   0  0  0  0  0  0  0  0  0  0  0  0
    0.6455   -2.5549   -1.4438 C   0  0  0  0  0  0  0  0  0  0  0  0
   -1.7081   -2.1498    0.6762 C   0  0  0  0  0  0  0  0  0  0  0  0
    2.3191   -0.8264   -0.7408 C   0  0  0  0  0  0  0  0  0  0  0  0
   -2.9797   -0.5063    0.3642 C   0  0  0  0  0  0  0  0  0  0  0  0
    3.8154    0.7286   -0.0263 C   0  0  0  0  0  0  0  0  0  0  0  0
   -3.3013    0.8436    0.0018 C   0  0  0  0  0  0  0  0  0  0  0  0
    3.5880    0.2370   -2.2986 C   0  0  0  0  0  0  0  0  0  0  0  0
    4.2228    0.9760   -1.3213 C   0  0  0  0  0  0  0  0  0  0  0  0
    4.4443    1.4804    1.0984 C   0  0  0  0  0  0  0  0  0  0  0  0
   -4.6215    1.2898    0.0579 C   0  0  0  0  0  0  0  0  0  0  0  0
   -2.2888    1.7108   -0.4086 C   0  0  0  0  0  0  0  0  0  0  0  0
   -4.9295    2.6032   -0.2965 C   0  0  0  0  0  0  0  0  0  0  0  0
   -2.5967    3.0243   -0.7632 C   0  0  0  0  0  0  0  0  0  0  0  0
   -3.9171    3.4706   -0.7071 C   0  0  0  0  0  0  0  0  0  0  0  0
   -0.4721   -3.6369    1.5202 H   0  0  0  0  0  0  0  0  0  0  0  0
    0.5580   -4.4611   -0.4435 H   0  0  0  0  0  0  0  0  0  0  0  0
   -0.9975   -3.9678   -1.1347 H   0  0  0  0  0  0  0  0  0  0  0  0
    1.6521   -2.6417    1.4294 H   0  0  0  0  0  0  0  0  0  0  0  0
    0.6795   -1.1490    1.4964 H   0  0  0  0  0  0  0  0  0  0  0  0
    1.3340   -3.0400   -2.1441 H   0  0  0  0  0  0  0  0  0  0  0  0
   -0.0546   -1.9277   -2.0070 H   0  0  0  0  0  0  0  0  0  0  0  0
    3.8411    0.3624   -3.3460 H   0  0  0  0  0  0  0  0  0  0  0  0
    4.9877    1.6977   -1.5766 H   0  0  0  0  0  0  0  0  0  0  0  0
   -1.2483    1.4008   -0.4658 H   0  0  0  0  0  0  0  0  0  0  0  0
   -5.9576    2.9505   -0.2527 H   0  0  0  0  0  0  0  0  0  0  0  0
   -1.8087    3.7000   -1.0830 H   0  0  0  0  0  0  0  0  0  0  0  0
   -4.1569    4.4933   -0.9830 H   0  0  0  0  0  0  0  0  0  0  0  0
  1 22  1  0  0  0  0
  2 22  1  0  0  0  0
  3 22  1  0  0  0  0
  4 23  1  0  0  0  0
  5 15  1  0  0  0  0
  5 17  1  0  0  0  0
  6 13  1  0  0  0  0
  6 14  1  0  0  0  0
  6 16  1  0  0  0  0
  7 10  1  0  0  0  0
  7 15  2  0  0  0  0
  8 16  1  0  0  0  0
  8 18  2  0  0  0  0
  9 16  2  0  0  0  0
  9 20  1  0  0  0  0
 10 17  2  0  0  0  0
 11 12  1  0  0  0  0
 11 13  1  0  0  0  0
 11 15  1  0  0  0  0
 11 28  1  0  0  0  0
 12 14  1  0  0  0  0
 12 29  1  0  0  0  0
 12 30  1  0  0  0  0
 13 31  1  0  0  0  0
 13 32  1  0  0  0  0
 14 33  1  0  0  0  0
 14 34  1  0  0  0  0
 17 19  1  0  0  0  0
 18 21  1  0  0  0  0
 18 22  1  0  0  0  0
 19 23  1  0  0  0  0
 19 24  2  0  0  0  0
 20 21  2  0  0  0  0
 20 35  1  0  0  0  0
 21 36  1  0  0  0  0
 23 25  2  0  0  0  0
 24 26  1  0  0  0  0
 24 37  1  0  0  0  0
 25 27  1  0  0  0  0
 25 38  1  0  0  0  0
 26 27  2  0  0  0  0
 26 39  1  0  0  0  0
 27 40  1  0  0  0  0
M  END
> <PUBCHEM_COMPOUND_CID>
51137943

> <PUBCHEM_CONFORMER_RMSD>
0.8

> <PUBCHEM_CONFORMER_DIVERSEORDER>
1
63
87
145
80
50
53
111
105
42
82
38
131
79
144
83
141
136
7
125
22
34
57
25
17
28
127
4
91
146
13
75
66
157
27
81
74
67
92
95
78
123
114
73
49
154
116
100
156
43
152
96
108
36
155
102
44
126
150
55
69
19
58
39
2
134
16
40
151
24
35
59
8
51
12
23
104
112
90
142
71
139
89
128
72
120
64
37
5
85
97
9
133
129
121
119
29
148
31
26
65
45
135
77
62
56
47
106
60
3
98
70
88
20
48
41
124
115
109
147
103
15
52
33
86
18
54
10
21
14
110
99
140
61
122
32
93
101
137
94
84
117
130
149
6
132
68
30
11
107
143
118
46
138
76
113
153

> <PUBCHEM_MMFF94_PARTIAL_CHARGES>
32
1 -0.34
10 -0.34
11 0.18
13 0.37
14 0.37
15 0.3
16 0.72
17 0.43
18 0.17
19 0.05
2 -0.34
20 0.16
21 -0.15
22 1.16
23 0.19
24 -0.15
25 -0.15
26 -0.15
27 -0.15
3 -0.34
35 0.15
36 0.15
37 0.15
38 0.15
39 0.15
4 -0.19
40 0.15
5 -0.28
6 -0.84
7 -0.34
8 -0.62
9 -0.62

> <PUBCHEM_EFFECTIVE_ROTOR_COUNT>
5

> <PUBCHEM_PHARMACOPHORE_FEATURES>
6
1 8 acceptor
4 6 8 9 16 cation
5 5 7 10 15 17 rings
5 6 11 12 13 14 rings
6 19 23 24 25 26 27 rings
6 8 9 16 18 20 21 rings

> <PUBCHEM_HEAVY_ATOM_COUNT>
27

> <PUBCHEM_ATOM_DEF_STEREO_COUNT>
1

> <PUBCHEM_ATOM_UDEF_STEREO_COUNT>
0

> <PUBCHEM_BOND_DEF_STEREO_COUNT>
0

> <PUBCHEM_BOND_UDEF_STEREO_COUNT>
0

> <PUBCHEM_ISOTOPIC_ATOM_COUNT>
0

> <PUBCHEM_COMPONENT_COUNT>
1

> <PUBCHEM_CACTVS_TAUTO_COUNT>
1

> <PUBCHEM_CONFORMER_ID>
030C4D9700000001

> <PUBCHEM_MMFF94_ENERGY>
59.8561

> <PUBCHEM_FEATURE_SELFOVERLAP>
30.448

> <PUBCHEM_SHAPE_FINGERPRINT>
10498660 4 18411145710013202029
10577160 103 10303237132644149842
10670039 82 18115325443802556046
10764073 3 18047169875441729458
10928967 22 11095878272441383045
11112241 14 17274527849628035953
11370993 70 18337389348903973325
11595378 159 18042681891945597378
11720765 8 17411907172095760606
11725454 13 18060132193698345998
12107183 9 18188755160197110618
12403259 415 18270977820305435918
12422481 6 17313657127581665492
12596602 18 16298963080918457152
12633257 1 15936129677065484786
12769317 202 18201711804406335168
12788726 201 17317066936472872002
12925494 130 17613438844832834733
12978246 48 18187372029729027653
13402501 40 18271525389712088160
13617811 41 18187645783130370693
13726171 33 18046093654783757612
13965767 371 17678168300437501134
14347329 18 18262539051598553860
14468879 13 18114760230591163089
14739800 52 18334847320922626026
14790565 3 17690849956933789353
15297060 5 18120971388729797692
15322535 138 17972591096176490357
15961568 22 17403177496416136356
21033648 29 18272090539210627328
21049683 118 16808710725659510665
21223535 225 16915682301566139344
21304303 282 17842807123130083134
21591340 35 17836084468371784296
21859007 373 18412827980606015646
21860390 5 17620470212579548271
23559900 14 17908139885299077663
238 59 17703516471764433094
2838139 119 18341043055991702086
3298306 158 18341045225156038157
341906 21 18261678163836943902
376196 1 18339642239634388731
4371632 12 15336560613466592730
469060 322 18044402601889237747
474144 1 17314530307255028564
50677037 204 14381788979560649904
508180 173 17400377649884606667
508706 21 18341330114457344652
5252454 2 18121809177755881169
574716 61 14333131913896868162
5895379 119 18188223108016818356
7064713 232 18187085031197228924
7808743 9 18261407683976719364
9849439 229 18261675883204515733
9981440 41 18259705584337929091

> <PUBCHEM_SHAPE_MULTIPOLES>
495.78
11.52
4.37
1.58
0.28
0.93
0.23
-11.36
-1.66
-2.4
-0.07
2.59
-0.21
2.42

> <PUBCHEM_SHAPE_SELFOVERLAP>
1093.853

> <PUBCHEM_SHAPE_VOLUME>
268.3

> <PUBCHEM_COORDINATE_TYPE>
2
5
10

$$$$
