75536638
  -OEChem-12032416303D

 45 47  0     1  0  0  0  0  0999 V2000
    8.3208   -1.7021   -0.6540 F   0  0  0  0  0  0  0  0  0  0  0  0
    0.0800   -0.8389    0.1252 O   0  0  0  0  0  0  0  0  0  0  0  0
   -1.2463    2.4997    0.1328 O   0  0  0  0  0  0  0  0  0  0  0  0
    3.3780    2.1743   -0.0985 O   0  0  0  0  0  0  0  0  0  0  0  0
   -3.4020    0.2131    0.1135 N   0  0  0  0  0  0  0  0  0  0  0  0
    2.5440    0.3311    1.0372 N   0  0  0  0  0  0  0  0  0  0  0  0
   -6.5044    0.4545   -1.0820 N   0  0  0  0  0  0  0  0  0  0  0  0
   -2.0057    0.2186   -0.2913 C   0  0  1  0  0  0  0  0  0  0  0  0
   -1.1358    1.1481    0.5345 C   0  0  1  0  0  0  0  0  0  0  0  0
    0.2494    0.5829    0.2506 C   0  0  1  0  0  0  0  0  0  0  0  0
   -1.3184   -1.1178   -0.0637 C   0  0  0  0  0  0  0  0  0  0  0  0
    1.2572    0.8852    1.3452 C   0  0  0  0  0  0  0  0  0  0  0  0
   -4.2401   -0.4167   -0.8998 C   0  0  0  0  0  0  0  0  0  0  0  0
   -5.6885   -0.4463   -0.4900 C   0  0  0  0  0  0  0  0  0  0  0  0
    3.5160    1.0313    0.3291 C   0  0  0  0  0  0  0  0  0  0  0  0
   -6.1087   -1.3727    0.4508 C   0  0  0  0  0  0  0  0  0  0  0  0
    4.7871    0.3076    0.0687 C   0  0  0  0  0  0  0  0  0  0  0  0
   -7.4527   -1.3749    0.8067 C   0  0  0  0  0  0  0  0  0  0  0  0
    5.5632    0.6390   -1.0420 C   0  0  0  0  0  0  0  0  0  0  0  0
    5.2048   -0.7027    0.9350 C   0  0  0  0  0  0  0  0  0  0  0  0
   -7.8041    0.4224   -0.7109 C   0  0  0  0  0  0  0  0  0  0  0  0
   -8.3233   -0.4635    0.2193 C   0  0  0  0  0  0  0  0  0  0  0  0
    6.7567   -0.0400   -1.2866 C   0  0  0  0  0  0  0  0  0  0  0  0
    6.3984   -1.3817    0.6905 C   0  0  0  0  0  0  0  0  0  0  0  0
    7.1743   -1.0504   -0.4203 C   0  0  0  0  0  0  0  0  0  0  0  0
   -1.9174    0.5179   -1.3454 H   0  0  0  0  0  0  0  0  0  0  0  0
   -1.3818    1.0751    1.6013 H   0  0  0  0  0  0  0  0  0  0  0  0
    0.6299    0.9524   -0.7108 H   0  0  0  0  0  0  0  0  0  0  0  0
   -1.6728   -1.6194    0.8443 H   0  0  0  0  0  0  0  0  0  0  0  0
   -1.4399   -1.8047   -0.9067 H   0  0  0  0  0  0  0  0  0  0  0  0
    0.9457    0.4297    2.2916 H   0  0  0  0  0  0  0  0  0  0  0  0
    1.3528    1.9660    1.4947 H   0  0  0  0  0  0  0  0  0  0  0  0
   -3.7140    1.1752    0.2486 H   0  0  0  0  0  0  0  0  0  0  0  0
   -3.9175   -1.4471   -1.0947 H   0  0  0  0  0  0  0  0  0  0  0  0
   -4.1574    0.1262   -1.8502 H   0  0  0  0  0  0  0  0  0  0  0  0
   -1.0280    2.5565   -0.8129 H   0  0  0  0  0  0  0  0  0  0  0  0
    2.6969   -0.6364    1.3006 H   0  0  0  0  0  0  0  0  0  0  0  0
   -5.4218   -2.0803    0.9028 H   0  0  0  0  0  0  0  0  0  0  0  0
   -7.8213   -2.0856    1.5403 H   0  0  0  0  0  0  0  0  0  0  0  0
    5.2528    1.4201   -1.7311 H   0  0  0  0  0  0  0  0  0  0  0  0
    4.6468   -0.9706    1.8272 H   0  0  0  0  0  0  0  0  0  0  0  0
   -8.4413    1.1533   -1.1978 H   0  0  0  0  0  0  0  0  0  0  0  0
   -9.3749   -0.4471    0.4815 H   0  0  0  0  0  0  0  0  0  0  0  0
    7.3609    0.2170   -2.1516 H   0  0  0  0  0  0  0  0  0  0  0  0
    6.7279   -2.1638    1.3682 H   0  0  0  0  0  0  0  0  0  0  0  0
  1 25  1  0  0  0  0
  2 10  1  0  0  0  0
  2 11  1  0  0  0  0
  3  9  1  0  0  0  0
  3 36  1  0  0  0  0
  4 15  2  0  0  0  0
  5  8  1  0  0  0  0
  5 13  1  0  0  0  0
  5 33  1  0  0  0  0
  6 12  1  0  0  0  0
  6 15  1  0  0  0  0
  6 37  1  0  0  0  0
  7 14  1  0  0  0  0
  7 21  2  0  0  0  0
  8  9  1  0  0  0  0
  8 11  1  0  0  0  0
  8 26  1  0  0  0  0
  9 10  1  0  0  0  0
  9 27  1  0  0  0  0
 10 12  1  0  0  0  0
 10 28  1  0  0  0  0
 11 29  1  0  0  0  0
 11 30  1  0  0  0  0
 12 31  1  0  0  0  0
 12 32  1  0  0  0  0
 13 14  1  0  0  0  0
 13 34  1  0  0  0  0
 13 35  1  0  0  0  0
 14 16  2  0  0  0  0
 15 17  1  0  0  0  0
 16 18  1  0  0  0  0
 16 38  1  0  0  0  0
 17 19  2  0  0  0  0
 17 20  1  0  0  0  0
 18 22  2  0  0  0  0
 18 39  1  0  0  0  0
 19 23  1  0  0  0  0
 19 40  1  0  0  0  0
 20 24  2  0  0  0  0
 20 41  1  0  0  0  0
 21 22  1  0  0  0  0
 21 42  1  0  0  0  0
 22 43  1  0  0  0  0
 23 25  2  0  0  0  0
 23 44  1  0  0  0  0
 24 25  1  0  0  0  0
 24 45  1  0  0  0  0
M  END
> <PUBCHEM_COMPOUND_CID>
75536638

> <PUBCHEM_CONFORMER_RMSD>
1

> <PUBCHEM_CONFORMER_DIVERSEORDER>
1
166
41
111
139
38
55
170
167
135
154
103
92
157
101
83
110
155
29
58
147
39
31
153
133
57
126
94
19
99
44
75
24
65
6
125
46
118
128
66
168
108
10
84
116
23
138
129
149
144
95
98
158
18
119
28
88
37
35
81
143
48
12
106
27
132
85
8
61
15
115
49
105
16
50
162
109
40
5
64
89
87
3
174
165
86
130
30
34
142
32
148
169
97
140
121
152
33
93
100
53
146
54
156
141
159
122
145
117
42
114
62
136
113
123
36
137
72
80
163
91
104
173
77
102
78
82
134
4
47
131
51
74
52
112
90
43
120
56
45
11
9
14
25
21
151
17
171
60
13
127
161
59
26
172
68
160
2
73
22
124
7
150
63
96
69
20
107
79
67
76
164
71
70

> <PUBCHEM_MMFF94_PARTIAL_CHARGES>
36
1 -0.19
10 0.28
11 0.28
12 0.3
13 0.41
14 0.17
15 0.54
16 -0.15
17 0.09
18 -0.15
19 -0.15
2 -0.56
20 -0.15
21 0.16
22 -0.15
23 -0.15
24 -0.15
25 0.19
3 -0.68
33 0.36
36 0.4
37 0.37
38 0.15
39 0.15
4 -0.57
40 0.15
41 0.15
42 0.15
43 0.15
44 0.15
45 0.15
5 -0.9
6 -0.73
7 -0.62
8 0.27
9 0.28

> <PUBCHEM_EFFECTIVE_ROTOR_COUNT>
8

> <PUBCHEM_PHARMACOPHORE_FEATURES>
11
1 2 acceptor
1 3 acceptor
1 3 donor
1 4 acceptor
1 5 cation
1 5 donor
1 6 donor
1 7 acceptor
5 2 8 9 10 11 rings
6 17 19 20 23 24 25 rings
6 7 14 16 18 21 22 rings

> <PUBCHEM_HEAVY_ATOM_COUNT>
25

> <PUBCHEM_ATOM_DEF_STEREO_COUNT>
3

> <PUBCHEM_ATOM_UDEF_STEREO_COUNT>
0

> <PUBCHEM_BOND_DEF_STEREO_COUNT>
0

> <PUBCHEM_BOND_UDEF_STEREO_COUNT>
0

> <PUBCHEM_ISOTOPIC_ATOM_COUNT>
0

> <PUBCHEM_COMPONENT_COUNT>
1

> <PUBCHEM_CACTVS_TAUTO_COUNT>
2

> <PUBCHEM_CONFORMER_ID>
048098FE00000001

> <PUBCHEM_MMFF94_ENERGY>
56.9383

> <PUBCHEM_FEATURE_SELFOVERLAP>
55.822

> <PUBCHEM_SHAPE_FINGERPRINT>
10 15 10447928373320953348
10162869 55 9511168630548418729
10299344 5 18113617885196664283
106641 1 9367339349765962349
11135609 127 16733558238580916812
11315181 36 11746932085034592151
11524674 6 17346597504393060591
11638347 137 12823303390375130388
12166972 35 17967534596650106477
125118 31 10807943673222679435
12592606 108 18130503119740463287
13533116 47 12901809607019756424
13673619 4 18060698385830018832
13685833 64 17917992780767208096
13885169 127 17274825718858613161
14216079 64 17918276428897358286
14251764 18 16343705451774089896
14251764 46 17275386504106188966
14347424 109 16056873663456394898
14428016 86 12035447229938615672
14856354 85 17749391495075359607
14933364 13 17894628167298629125
15183329 4 18412544301403798505
15849732 13 17530965799881033703
16090146 7 16588320349141032513
1754911 235 15647050469669221607
18365409 1 14996579437715755539
20157964 124 8070037674675717264
21150785 3 16660363679555503598
21267235 1 18411702084097549137
21344244 246 18116151078889922266
21365058 27 15719109159155607675
21781051 124 18335988656900251930
21792961 116 18410288078654863933
220451 1 16588013624684260033
221357 26 17603864495114222716
22224240 67 12607404390376863933
23035841 295 18343018913411107611
23081809 10 14346057712743398665
232437 2 18408323312033311803
23559900 14 18268705177105231656
246663 6 18343303664772742347
24771293 8 11314305027722575463
249057 25 14836131008973195027
28498 318 18202844340053285815
3004659 81 18409445895549986856
328311 84 18410857681122307923
34797466 226 16225765220371488910
4107672 100 17894905201595920653
439807 62 18410857638199190590
444769 64 17917991698673326863
5470011 282 18113622296391743798
5758199 1 13479129078183703097
59682541 35 10447921776256578862
59755656 215 18342737399210239231
6394761 36 17989207049508054891
6438161 24 18335133177641717098

> <PUBCHEM_SHAPE_MULTIPOLES>
474.66
27.17
1.62
1.07
10.83
0.37
0.02
-11.19
5.23
-0.94
-0.17
-0.55
0.01
0.61

> <PUBCHEM_SHAPE_SELFOVERLAP>
1008.431

> <PUBCHEM_SHAPE_VOLUME>
265.3

> <PUBCHEM_COORDINATE_TYPE>
2
5
10

$$$$
