26743452
  -OEChem-12032416293D

 54 57  0     1  0  0  0  0  0999 V2000
    2.2995   -0.1324   -0.3381 S   0  0  0  0  0  0  0  0  0  0  0  0
    8.0144   -0.0091    1.1062 F   0  0  0  0  0  0  0  0  0  0  0  0
   -5.5846    3.0324    1.5784 O   0  0  0  0  0  0  0  0  0  0  0  0
   -1.2965    2.0077   -2.0353 O   0  0  0  0  0  0  0  0  0  0  0  0
    2.1851   -0.6799   -1.6770 O   0  0  0  0  0  0  0  0  0  0  0  0
    1.5916   -0.7442    0.7706 O   0  0  0  0  0  0  0  0  0  0  0  0
   -3.3661    0.4237    0.5566 N   0  0  1  0  0  0  0  0  0  0  0  0
   -2.4971   -3.6919   -0.0520 N   0  0  0  0  0  0  0  0  0  0  0  0
   -0.5899    1.3647   -0.0095 N   0  0  0  0  0  0  0  0  0  0  0  0
    0.1024    2.0665   -2.0740 N   0  0  0  0  0  0  0  0  0  0  0  0
   -3.4714   -0.9337    0.0261 C   0  0  0  0  0  0  0  0  0  0  0  0
   -3.0974    1.4366   -0.4845 C   0  0  1  0  0  0  0  0  0  0  0  0
   -4.5889    0.8446    1.2378 C   0  0  0  0  0  0  0  0  0  0  0  0
   -3.7298    2.7331    0.0551 C   0  0  0  0  0  0  0  0  0  0  0  0
   -4.3682    2.3384    1.3810 C   0  0  1  0  0  0  0  0  0  0  0  0
   -2.1968   -1.3290   -0.7252 C   0  0  0  0  0  0  0  0  0  0  0  0
   -3.7381   -1.9265    1.1604 C   0  0  0  0  0  0  0  0  0  0  0  0
   -2.2618   -2.7874   -1.1861 C   0  0  0  0  0  0  0  0  0  0  0  0
   -3.7530   -3.3655    0.6377 C   0  0  0  0  0  0  0  0  0  0  0  0
   -1.6210    1.5861   -0.7850 C   0  0  0  0  0  0  0  0  0  0  0  0
   -2.5065   -5.0839   -0.5009 C   0  0  0  0  0  0  0  0  0  0  0  0
    0.4451    1.6729   -0.8438 C   0  0  0  0  0  0  0  0  0  0  0  0
    1.8464    1.5781   -0.4201 C   0  0  0  0  0  0  0  0  0  0  0  0
    4.0117   -0.0960    0.0952 C   0  0  0  0  0  0  0  0  0  0  0  0
    4.3922   -0.1039    1.4372 C   0  0  0  0  0  0  0  0  0  0  0  0
    4.9832   -0.0590   -0.9051 C   0  0  0  0  0  0  0  0  0  0  0  0
    5.7442   -0.0748    1.7789 C   0  0  0  0  0  0  0  0  0  0  0  0
    6.3352   -0.0298   -0.5633 C   0  0  0  0  0  0  0  0  0  0  0  0
    6.7158   -0.0379    0.7786 C   0  0  0  0  0  0  0  0  0  0  0  0
   -4.3120   -0.9907   -0.6811 H   0  0  0  0  0  0  0  0  0  0  0  0
   -3.6212    1.1803   -1.4164 H   0  0  0  0  0  0  0  0  0  0  0  0
   -4.7082    0.3934    2.2282 H   0  0  0  0  0  0  0  0  0  0  0  0
   -5.4959    0.6391    0.6541 H   0  0  0  0  0  0  0  0  0  0  0  0
   -3.0031    3.5392    0.2088 H   0  0  0  0  0  0  0  0  0  0  0  0
   -4.4856    3.1075   -0.6466 H   0  0  0  0  0  0  0  0  0  0  0  0
   -3.6911    2.5542    2.2166 H   0  0  0  0  0  0  0  0  0  0  0  0
   -1.3139   -1.2049   -0.0857 H   0  0  0  0  0  0  0  0  0  0  0  0
   -2.0571   -0.7341   -1.6323 H   0  0  0  0  0  0  0  0  0  0  0  0
   -4.7072   -1.7412    1.6372 H   0  0  0  0  0  0  0  0  0  0  0  0
   -2.9701   -1.8315    1.9401 H   0  0  0  0  0  0  0  0  0  0  0  0
   -3.0473   -2.9002   -1.9452 H   0  0  0  0  0  0  0  0  0  0  0  0
   -1.3072   -3.0364   -1.6660 H   0  0  0  0  0  0  0  0  0  0  0  0
   -3.8907   -4.0377    1.4935 H   0  0  0  0  0  0  0  0  0  0  0  0
   -4.6138   -3.5068   -0.0292 H   0  0  0  0  0  0  0  0  0  0  0  0
   -5.3808    3.9832    1.5847 H   0  0  0  0  0  0  0  0  0  0  0  0
   -1.5511   -5.3433   -0.9703 H   0  0  0  0  0  0  0  0  0  0  0  0
   -3.3095   -5.2819   -1.2202 H   0  0  0  0  0  0  0  0  0  0  0  0
   -2.6311   -5.7621    0.3505 H   0  0  0  0  0  0  0  0  0  0  0  0
    1.9859    2.0158    0.5725 H   0  0  0  0  0  0  0  0  0  0  0  0
    2.5181    2.0733   -1.1280 H   0  0  0  0  0  0  0  0  0  0  0  0
    3.6523   -0.1250    2.2323 H   0  0  0  0  0  0  0  0  0  0  0  0
    4.7084   -0.0455   -1.9560 H   0  0  0  0  0  0  0  0  0  0  0  0
    6.0411   -0.0791    2.8235 H   0  0  0  0  0  0  0  0  0  0  0  0
    7.0921    0.0007   -1.3416 H   0  0  0  0  0  0  0  0  0  0  0  0
  1  5  2  0  0  0  0
  1  6  2  0  0  0  0
  1 23  1  0  0  0  0
  1 24  1  0  0  0  0
  2 29  1  0  0  0  0
  3 15  1  0  0  0  0
  3 45  1  0  0  0  0
  4 10  1  0  0  0  0
  4 20  1  0  0  0  0
  7 11  1  0  0  0  0
  7 12  1  0  0  0  0
  7 13  1  0  0  0  0
  8 18  1  0  0  0  0
  8 19  1  0  0  0  0
  8 21  1  0  0  0  0
  9 20  2  0  0  0  0
  9 22  1  0  0  0  0
 10 22  2  0  0  0  0
 11 16  1  0  0  0  0
 11 17  1  0  0  0  0
 11 30  1  0  0  0  0
 12 14  1  0  0  0  0
 12 20  1  0  0  0  0
 12 31  1  0  0  0  0
 13 15  1  0  0  0  0
 13 32  1  0  0  0  0
 13 33  1  0  0  0  0
 14 15  1  0  0  0  0
 14 34  1  0  0  0  0
 14 35  1  0  0  0  0
 15 36  1  0  0  0  0
 16 18  1  0  0  0  0
 16 37  1  0  0  0  0
 16 38  1  0  0  0  0
 17 19  1  0  0  0  0
 17 39  1  0  0  0  0
 17 40  1  0  0  0  0
 18 41  1  0  0  0  0
 18 42  1  0  0  0  0
 19 43  1  0  0  0  0
 19 44  1  0  0  0  0
 21 46  1  0  0  0  0
 21 47  1  0  0  0  0
 21 48  1  0  0  0  0
 22 23  1  0  0  0  0
 23 49  1  0  0  0  0
 23 50  1  0  0  0  0
 24 25  2  0  0  0  0
 24 26  1  0  0  0  0
 25 27  1  0  0  0  0
 25 51  1  0  0  0  0
 26 28  2  0  0  0  0
 26 52  1  0  0  0  0
 27 29  2  0  0  0  0
 27 53  1  0  0  0  0
 28 29  1  0  0  0  0
 28 54  1  0  0  0  0
M  END
> <PUBCHEM_COMPOUND_CID>
26743452

> <PUBCHEM_CONFORMER_RMSD>
1

> <PUBCHEM_CONFORMER_DIVERSEORDER>
1
36
157
67
84
62
52
182
108
139
44
132
126
165
164
11
83
73
32
178
174
114
72
125
23
80
149
31
163
121
59
120
96
89
48
166
137
154
46
119
181
169
117
70
111
118
4
43
92
91
168
175
167
6
57
159
78
39
3
122
55
29
13
19
116
33
133
162
30
86
176
71
65
38
60
61
2
148
102
173
160
153
79
45
58
49
18
161
109
127
64
12
63
158
69
99
34
9
155
7
98
66
152
124
147
93
77
26
177
15
85
104
101
145
106
17
146
56
54
87
143
5
112
50
22
115
151
95
128
179
51
172
14
68
40
171
53
27
142
28
141
156
100
123
138
37
8
105
41
47
74
144
94
16
88
136
42
107
20
76
129
130
140
21
75
81
97
170
150
103
180
25
24
35
10
90
131
135
113
134
110
82

> <PUBCHEM_MMFF94_PARTIAL_CHARGES>
31
1 1.2
10 -0.41
11 0.27
12 0.45
13 0.27
15 0.28
18 0.27
19 0.27
2 -0.19
20 0.3
21 0.27
22 0.34
23 0.29
24 -0.01
25 -0.15
26 -0.15
27 -0.15
28 -0.15
29 0.19
3 -0.68
4 -0.02
45 0.4
5 -0.65
51 0.15
52 0.15
53 0.15
54 0.15
6 -0.65
7 -0.81
8 -0.81
9 -0.57

> <PUBCHEM_EFFECTIVE_ROTOR_COUNT>
7.2

> <PUBCHEM_PHARMACOPHORE_FEATURES>
11
1 3 acceptor
1 3 donor
1 5 acceptor
1 6 acceptor
1 7 cation
1 8 cation
3 9 10 22 cation
5 4 9 10 20 22 rings
5 7 12 13 14 15 rings
6 24 25 26 27 28 29 rings
6 8 11 16 17 18 19 rings

> <PUBCHEM_HEAVY_ATOM_COUNT>
29

> <PUBCHEM_ATOM_DEF_STEREO_COUNT>
2

> <PUBCHEM_ATOM_UDEF_STEREO_COUNT>
0

> <PUBCHEM_BOND_DEF_STEREO_COUNT>
0

> <PUBCHEM_BOND_UDEF_STEREO_COUNT>
0

> <PUBCHEM_ISOTOPIC_ATOM_COUNT>
0

> <PUBCHEM_COMPONENT_COUNT>
1

> <PUBCHEM_CACTVS_TAUTO_COUNT>
1

> <PUBCHEM_CONFORMER_ID>
0198129C00000001

> <PUBCHEM_MMFF94_ENERGY>
38.5029

> <PUBCHEM_FEATURE_SELFOVERLAP>
55.84

> <PUBCHEM_SHAPE_FINGERPRINT>
10290309 65 18047471127819133150
10305334 12 17458921353434124001
10319688 45 18261387866686788372
10622 236 17972879434589781663
11014199 57 18049726522521270007
11045977 3 17917706903380811264
11112241 14 17346319245897961085
11370993 144 18060419071585263438
11445158 3 15141548911623885879
11524674 6 18202279165475675575
11552529 35 18341044215638081762
12422481 6 18189621540277287858
12616971 3 17603872195927014476
12633257 1 18410576179970001468
13004483 165 18053668251075438095
13009979 54 18192716871863021295
13103583 49 18333453157474330894
13540713 5 18116165543410918613
13583140 156 16845569846512989594
14068700 675 18126271172510270767
14114206 34 16515949454513669005
14705955 166 17489320667882264755
14844126 61 18409449223944121211
14856354 85 18343302574336632060
15348495 7 18201996651586669968
15484559 13 15008613257342114006
15537594 2 17822011978161505704
16110190 28 18334299729872364538
16994733 274 15697161713380963881
17349148 13 16587743119075290712
17780758 139 18412260657463530097
21033648 29 18200890465326300337
21795232 338 18340494464688685048
23402539 116 16298386821294370124
23522609 53 17969811673053405356
244849 19 17130732529415025430
25147074 1 18042136495418377660
312425 54 18341892953316538546
3383291 50 18341052995411610539
3882209 13 17625526166571518607
397830 11 18129653240576217256
4017518 198 18341050714425280839
4073 2 18273214193144979722
484985 159 18261943142040067023
5080951 261 18263059120477107190
5104073 3 18410854404199885792
5364581 5 18128806629144274040
5486654 36 18334298712018038377
58260988 114 17095819814445638995
6009941 240 17917711275720672928
6691757 9 18342181051280785505
68570916 9 18334856165331374368
9953998 17 18410848855281182056

> <PUBCHEM_SHAPE_MULTIPOLES>
549.98
15.37
4.33
1.63
28.69
4.97
0.08
-0.92
-7.76
-10.26
0.42
0.31
-0.58
-1.29

> <PUBCHEM_SHAPE_SELFOVERLAP>
1158.128

> <PUBCHEM_SHAPE_VOLUME>
312.4

> <PUBCHEM_COORDINATE_TYPE>
2
5
10

$$$$
