26745445
  -OEChem-12032416373D

 50 53  0     1  0  0  0  0  0999 V2000
    2.2883   -1.9042    0.0539 S   0  0  0  0  0  0  0  0  0  0  0  0
    2.6849   -1.8998    1.4454 O   0  0  0  0  0  0  0  0  0  0  0  0
    3.2011   -2.3393   -0.9809 O   0  0  0  0  0  0  0  0  0  0  0  0
    4.4362    2.0168   -0.1157 O   0  0  0  0  0  0  0  0  0  0  0  0
    3.2925    0.7941    1.4760 O   0  0  0  0  0  0  0  0  0  0  0  0
    1.6787   -0.3568   -0.3578 N   0  0  2  0  0  0  0  0  0  0  0  0
   -0.9782    2.1728    0.3718 N   0  0  0  0  0  0  0  0  0  0  0  0
    0.0665    3.3861   -1.1865 N   0  0  0  0  0  0  0  0  0  0  0  0
    2.6835    0.6557   -0.8461 C   0  0  1  0  0  0  0  0  0  0  0  0
    0.5854    0.1659    0.5417 C   0  0  0  0  0  0  0  0  0  0  0  0
    2.0070    1.8145   -1.6101 C   0  0  0  0  0  0  0  0  0  0  0  0
    0.1294    1.4652    0.0119 C   0  0  0  0  0  0  0  0  0  0  0  0
    0.7550    2.2312   -0.9405 C   0  0  0  0  0  0  0  0  0  0  0  0
    3.4841    1.1431    0.3190 C   0  0  0  0  0  0  0  0  0  0  0  0
   -1.9692    1.8045    1.3534 C   0  0  0  0  0  0  0  0  0  0  0  0
   -0.9730    3.3220   -0.3784 C   0  0  0  0  0  0  0  0  0  0  0  0
    0.8126   -2.8630   -0.0847 C   0  0  0  0  0  0  0  0  0  0  0  0
   -3.2437    1.2733    0.7460 C   0  0  0  0  0  0  0  0  0  0  0  0
    0.2077   -3.3816    1.0600 C   0  0  0  0  0  0  0  0  0  0  0  0
    0.2518   -3.1024   -1.3392 C   0  0  0  0  0  0  0  0  0  0  0  0
   -4.1770    2.1548    0.2002 C   0  0  0  0  0  0  0  0  0  0  0  0
   -3.4890   -0.0996    0.7303 C   0  0  0  0  0  0  0  0  0  0  0  0
   -0.9581   -4.1398    0.9505 C   0  0  0  0  0  0  0  0  0  0  0  0
   -0.9140   -3.8603   -1.4488 C   0  0  0  0  0  0  0  0  0  0  0  0
    5.2798    2.5637    0.9027 C   0  0  0  0  0  0  0  0  0  0  0  0
   -1.5188   -4.3791   -0.3040 C   0  0  0  0  0  0  0  0  0  0  0  0
   -5.3555    1.6632   -0.3614 C   0  0  0  0  0  0  0  0  0  0  0  0
   -4.6674   -0.5913    0.1686 C   0  0  0  0  0  0  0  0  0  0  0  0
   -5.6007    0.2903   -0.3770 C   0  0  0  0  0  0  0  0  0  0  0  0
    3.3766    0.1576   -1.5349 H   0  0  0  0  0  0  0  0  0  0  0  0
    0.9318    0.2663    1.5735 H   0  0  0  0  0  0  0  0  0  0  0  0
   -0.2591   -0.5277    0.5237 H   0  0  0  0  0  0  0  0  0  0  0  0
    1.7450    1.4650   -2.6169 H   0  0  0  0  0  0  0  0  0  0  0  0
    2.6737    2.6744   -1.7322 H   0  0  0  0  0  0  0  0  0  0  0  0
   -2.1855    2.6965    1.9550 H   0  0  0  0  0  0  0  0  0  0  0  0
   -1.5287    1.0757    2.0434 H   0  0  0  0  0  0  0  0  0  0  0  0
   -1.7410    4.0780   -0.2895 H   0  0  0  0  0  0  0  0  0  0  0  0
    0.6210   -3.2082    2.0491 H   0  0  0  0  0  0  0  0  0  0  0  0
    0.7096   -2.7023   -2.2398 H   0  0  0  0  0  0  0  0  0  0  0  0
   -4.0066    3.2275    0.2137 H   0  0  0  0  0  0  0  0  0  0  0  0
   -2.7707   -0.7980    1.1512 H   0  0  0  0  0  0  0  0  0  0  0  0
   -1.4301   -4.5426    1.8418 H   0  0  0  0  0  0  0  0  0  0  0  0
   -1.3516   -4.0457   -2.4254 H   0  0  0  0  0  0  0  0  0  0  0  0
    5.9930    3.2413    0.4259 H   0  0  0  0  0  0  0  0  0  0  0  0
    5.8349    1.7651    1.4039 H   0  0  0  0  0  0  0  0  0  0  0  0
    4.6834    3.1315    1.6233 H   0  0  0  0  0  0  0  0  0  0  0  0
   -2.4271   -4.9685   -0.3893 H   0  0  0  0  0  0  0  0  0  0  0  0
   -6.0832    2.3496   -0.7842 H   0  0  0  0  0  0  0  0  0  0  0  0
   -4.8579   -1.6605    0.1559 H   0  0  0  0  0  0  0  0  0  0  0  0
   -6.5184   -0.0925   -0.8139 H   0  0  0  0  0  0  0  0  0  0  0  0
  1  2  2  0  0  0  0
  1  3  2  0  0  0  0
  1  6  1  0  0  0  0
  1 17  1  0  0  0  0
  4 14  1  0  0  0  0
  4 25  1  0  0  0  0
  5 14  2  0  0  0  0
  6  9  1  0  0  0  0
  6 10  1  0  0  0  0
  7 12  1  0  0  0  0
  7 15  1  0  0  0  0
  7 16  1  0  0  0  0
  8 13  1  0  0  0  0
  8 16  2  0  0  0  0
  9 11  1  0  0  0  0
  9 14  1  0  0  0  0
  9 30  1  0  0  0  0
 10 12  1  0  0  0  0
 10 31  1  0  0  0  0
 10 32  1  0  0  0  0
 11 13  1  0  0  0  0
 11 33  1  0  0  0  0
 11 34  1  0  0  0  0
 12 13  2  0  0  0  0
 15 18  1  0  0  0  0
 15 35  1  0  0  0  0
 15 36  1  0  0  0  0
 16 37  1  0  0  0  0
 17 19  2  0  0  0  0
 17 20  1  0  0  0  0
 18 21  2  0  0  0  0
 18 22  1  0  0  0  0
 19 23  1  0  0  0  0
 19 38  1  0  0  0  0
 20 24  2  0  0  0  0
 20 39  1  0  0  0  0
 21 27  1  0  0  0  0
 21 40  1  0  0  0  0
 22 28  2  0  0  0  0
 22 41  1  0  0  0  0
 23 26  2  0  0  0  0
 23 42  1  0  0  0  0
 24 26  1  0  0  0  0
 24 43  1  0  0  0  0
 25 44  1  0  0  0  0
 25 45  1  0  0  0  0
 25 46  1  0  0  0  0
 26 47  1  0  0  0  0
 27 29  2  0  0  0  0
 27 48  1  0  0  0  0
 28 29  1  0  0  0  0
 28 49  1  0  0  0  0
 29 50  1  0  0  0  0
M  END
> <PUBCHEM_COMPOUND_CID>
26745445

> <PUBCHEM_CONFORMER_RMSD>
0.8

> <PUBCHEM_CONFORMER_DIVERSEORDER>
1
14
25
50
61
85
69
52
104
13
75
65
108
60
93
112
63
79
111
123
95
80
106
125
83
34
105
88
27
3
44
127
72
73
57
115
89
40
45
124
120
99
58
43
6
33
48
37
98
82
128
119
42
64
109
96
2
22
49
30
113
117
100
116
94
97
131
20
76
92
16
28
71
130
121
56
46
70
32
39
118
78
35
4
23
51
91
81
5
41
36
12
102
74
68
77
90
38
103
110
10
126
31
11
66
62
114
101
26
107
122
87
84
67
24
47
129
19
54
15
86
29
59
9
18
21
8
53
55
7
17

> <PUBCHEM_MMFF94_PARTIAL_CHARGES>
40
1 1.45
10 0.54
11 0.18
12 -0.33
13 0.05
14 0.66
15 0.4
16 0.04
17 -0.01
18 -0.14
19 -0.15
2 -0.65
20 -0.15
21 -0.15
22 -0.15
23 -0.15
24 -0.15
25 0.28
26 -0.15
27 -0.15
28 -0.15
29 -0.15
3 -0.65
37 0.15
38 0.15
39 0.15
4 -0.43
40 0.15
41 0.15
42 0.15
43 0.15
47 0.15
48 0.15
49 0.15
5 -0.57
50 0.15
6 -0.85
7 0.05
8 -0.57
9 0.42

> <PUBCHEM_EFFECTIVE_ROTOR_COUNT>
6.8

> <PUBCHEM_PHARMACOPHORE_FEATURES>
8
1 2 acceptor
1 3 acceptor
1 5 acceptor
3 7 8 16 cation
5 7 8 12 13 16 rings
6 17 19 20 23 24 26 rings
6 18 21 22 27 28 29 rings
6 6 9 10 11 12 13 rings

> <PUBCHEM_HEAVY_ATOM_COUNT>
29

> <PUBCHEM_ATOM_DEF_STEREO_COUNT>
1

> <PUBCHEM_ATOM_UDEF_STEREO_COUNT>
0

> <PUBCHEM_BOND_DEF_STEREO_COUNT>
0

> <PUBCHEM_BOND_UDEF_STEREO_COUNT>
0

> <PUBCHEM_ISOTOPIC_ATOM_COUNT>
0

> <PUBCHEM_COMPONENT_COUNT>
1

> <PUBCHEM_CACTVS_TAUTO_COUNT>
1

> <PUBCHEM_CONFORMER_ID>
01981A6500000001

> <PUBCHEM_MMFF94_ENERGY>
62.9222

> <PUBCHEM_FEATURE_SELFOVERLAP>
40.723

> <PUBCHEM_SHAPE_FINGERPRINT>
10032420 55 17609791794083759846
10074138 170 18050257531361249568
10675989 125 18047465622478648693
1100329 8 18122343746549858945
11513181 2 18202848763938978839
12156800 1 17838585079845717306
12788726 201 17545050754444217916
12978246 48 18264776630875689955
13122387 1 16896244907503622359
13140716 1 18337957770671895795
1361 2 18409166598105637081
14117953 113 18122339074094913847
14787075 74 17845934151126035392
14863182 85 18335435529615884917
15338160 23 17622696015399601680
16114785 44 16982625229826352752
17093844 170 18409732824428145162
17138139 8 17843659279480616327
17492 54 18045530554664223702
18681886 176 18335144228092072036
20028762 73 18200025123457589766
20775530 9 17187008592657866259
21133410 62 18190717878942877447
21133410 90 16770433757852810571
22113638 7 18264489653724119733
23559900 14 18051124787784190457
3052486 1 18121778602147334672
350125 39 18339078182175016800
46194498 28 17748830731097041741
463206 1 18343294865376529767
5486654 2 18340208591402517924
6287921 2 18055926398275839059
7226269 152 16103322866979748260

> <PUBCHEM_SHAPE_MULTIPOLES>
562.24
8.9
6.07
1.32
5.4
6.12
-0.07
-6.93
1.14
-0.18
-0.8
-0.53
0.23
0.01

> <PUBCHEM_SHAPE_SELFOVERLAP>
1208.752

> <PUBCHEM_SHAPE_VOLUME>
309.6

> <PUBCHEM_COORDINATE_TYPE>
2
5
10

$$$$
