26744606
  -OEChem-12032416293D

 53 56  0     1  0  0  0  0  0999 V2000
   -2.9840   -1.0393   -2.2753 Cl  0  0  0  0  0  0  0  0  0  0  0  0
   -4.2918   -1.8319    2.5435 F   0  0  0  0  0  0  0  0  0  0  0  0
    6.6732   -0.7516    0.8153 O   0  0  0  0  0  0  0  0  0  0  0  0
    1.6986    0.1663   -2.2410 O   0  0  0  0  0  0  0  0  0  0  0  0
   -3.3206    3.2709   -1.3441 O   0  0  0  0  0  0  0  0  0  0  0  0
    3.3930    0.6665    0.7969 N   0  0  1  0  0  0  0  0  0  0  0  0
    1.6321   -1.4608   -0.7032 N   0  0  0  0  0  0  0  0  0  0  0  0
    0.5691   -0.6062   -2.5399 N   0  0  0  0  0  0  0  0  0  0  0  0
   -2.8734    1.8063    0.4487 N   0  0  0  0  0  0  0  0  0  0  0  0
    3.5220    0.2538   -0.6154 C   0  0  1  0  0  0  0  0  0  0  0  0
    4.7437   -0.6835   -0.6417 C   0  0  0  0  0  0  0  0  0  0  0  0
    5.2601   -0.6988    0.7916 C   0  0  2  0  0  0  0  0  0  0  0  0
    4.7353    0.6009    1.3716 C   0  0  0  0  0  0  0  0  0  0  0  0
    2.7914    1.9838    0.9577 C   0  0  0  0  0  0  0  0  0  0  0  0
    2.2667   -0.4054   -1.1470 C   0  0  0  0  0  0  0  0  0  0  0  0
    1.2926    1.9360    0.8223 C   0  0  0  0  0  0  0  0  0  0  0  0
    0.5980   -1.5451   -1.5894 C   0  0  0  0  0  0  0  0  0  0  0  0
    0.6562    2.6974   -0.1580 C   0  0  0  0  0  0  0  0  0  0  0  0
    0.5403    1.1313    1.6779 C   0  0  0  0  0  0  0  0  0  0  0  0
   -0.4203   -2.5979   -1.5056 C   0  0  0  0  0  0  0  0  0  0  0  0
   -0.7322    2.6543   -0.2826 C   0  0  0  0  0  0  0  0  0  0  0  0
   -0.8483    1.0881    1.5534 C   0  0  0  0  0  0  0  0  0  0  0  0
   -1.4846    1.8496    0.5732 C   0  0  0  0  0  0  0  0  0  0  0  0
   -1.4831   -2.3755   -0.4342 C   0  0  0  0  0  0  0  0  0  0  0  0
   -2.6631   -1.6833   -0.7064 C   0  0  0  0  0  0  0  0  0  0  0  0
   -1.2521   -2.8840    0.8441 C   0  0  0  0  0  0  0  0  0  0  0  0
   -3.6121   -1.5000    0.2993 C   0  0  0  0  0  0  0  0  0  0  0  0
   -2.2009   -2.7008    1.8497 C   0  0  0  0  0  0  0  0  0  0  0  0
   -3.6820    2.4940   -0.4663 C   0  0  0  0  0  0  0  0  0  0  0  0
   -3.3810   -2.0087    1.5773 C   0  0  0  0  0  0  0  0  0  0  0  0
   -5.1430    2.1735   -0.2723 C   0  0  0  0  0  0  0  0  0  0  0  0
    3.7624    1.1175   -1.2514 H   0  0  0  0  0  0  0  0  0  0  0  0
    4.5072   -1.7017   -0.9712 H   0  0  0  0  0  0  0  0  0  0  0  0
    5.5065   -0.2920   -1.3266 H   0  0  0  0  0  0  0  0  0  0  0  0
    4.8583   -1.5599    1.3396 H   0  0  0  0  0  0  0  0  0  0  0  0
    4.7171    0.5687    2.4660 H   0  0  0  0  0  0  0  0  0  0  0  0
    5.3655    1.4472    1.0674 H   0  0  0  0  0  0  0  0  0  0  0  0
    3.2348    2.7194    0.2738 H   0  0  0  0  0  0  0  0  0  0  0  0
    2.9922    2.3645    1.9691 H   0  0  0  0  0  0  0  0  0  0  0  0
    6.9426   -1.5692    0.3630 H   0  0  0  0  0  0  0  0  0  0  0  0
    1.2310    3.3268   -0.8323 H   0  0  0  0  0  0  0  0  0  0  0  0
    1.0209    0.5368    2.4503 H   0  0  0  0  0  0  0  0  0  0  0  0
    0.0840   -3.5513   -1.2925 H   0  0  0  0  0  0  0  0  0  0  0  0
   -0.8912   -2.7711   -2.4807 H   0  0  0  0  0  0  0  0  0  0  0  0
   -1.1529    3.2698   -1.0654 H   0  0  0  0  0  0  0  0  0  0  0  0
   -1.4214    0.4626    2.2322 H   0  0  0  0  0  0  0  0  0  0  0  0
   -3.3467    1.2004    1.1151 H   0  0  0  0  0  0  0  0  0  0  0  0
   -0.3363   -3.4228    1.0725 H   0  0  0  0  0  0  0  0  0  0  0  0
   -4.5389   -0.9675    0.1034 H   0  0  0  0  0  0  0  0  0  0  0  0
   -2.0208   -3.0952    2.8452 H   0  0  0  0  0  0  0  0  0  0  0  0
   -5.7471    3.0253   -0.5976 H   0  0  0  0  0  0  0  0  0  0  0  0
   -5.3711    1.9732    0.7783 H   0  0  0  0  0  0  0  0  0  0  0  0
   -5.4006    1.2975   -0.8731 H   0  0  0  0  0  0  0  0  0  0  0  0
  1 25  1  0  0  0  0
  2 30  1  0  0  0  0
  3 12  1  0  0  0  0
  3 40  1  0  0  0  0
  4  8  1  0  0  0  0
  4 15  1  0  0  0  0
  5 29  2  0  0  0  0
  6 10  1  0  0  0  0
  6 13  1  0  0  0  0
  6 14  1  0  0  0  0
  7 15  2  0  0  0  0
  7 17  1  0  0  0  0
  8 17  2  0  0  0  0
  9 23  1  0  0  0  0
  9 29  1  0  0  0  0
  9 47  1  0  0  0  0
 10 11  1  0  0  0  0
 10 15  1  0  0  0  0
 10 32  1  0  0  0  0
 11 12  1  0  0  0  0
 11 33  1  0  0  0  0
 11 34  1  0  0  0  0
 12 13  1  0  0  0  0
 12 35  1  0  0  0  0
 13 36  1  0  0  0  0
 13 37  1  0  0  0  0
 14 16  1  0  0  0  0
 14 38  1  0  0  0  0
 14 39  1  0  0  0  0
 16 18  2  0  0  0  0
 16 19  1  0  0  0  0
 17 20  1  0  0  0  0
 18 21  1  0  0  0  0
 18 41  1  0  0  0  0
 19 22  2  0  0  0  0
 19 42  1  0  0  0  0
 20 24  1  0  0  0  0
 20 43  1  0  0  0  0
 20 44  1  0  0  0  0
 21 23  2  0  0  0  0
 21 45  1  0  0  0  0
 22 23  1  0  0  0  0
 22 46  1  0  0  0  0
 24 25  2  0  0  0  0
 24 26  1  0  0  0  0
 25 27  1  0  0  0  0
 26 28  2  0  0  0  0
 26 48  1  0  0  0  0
 27 30  2  0  0  0  0
 27 49  1  0  0  0  0
 28 30  1  0  0  0  0
 28 50  1  0  0  0  0
 29 31  1  0  0  0  0
 31 51  1  0  0  0  0
 31 52  1  0  0  0  0
 31 53  1  0  0  0  0
M  END
> <PUBCHEM_COMPOUND_CID>
26744606

> <PUBCHEM_CONFORMER_RMSD>
1.4

> <PUBCHEM_CONFORMER_DIVERSEORDER>
1
66
58
82
71
39
81
4
13
62
10
50
27
83
22
23
32
53
52
59
31
44
24
72
18
54
2
75
49
42
60
21
73
35
14
74
20
70
84
33
79
48
38
76
29
5
36
43
45
55
16
56
8
6
40
51
28
57
15
77
7
47
17
68
63
78
30
61
11
19
67
41
85
26
46
80
34
65
9
69
3
37
12
64
25

> <PUBCHEM_MMFF94_PARTIAL_CHARGES>
39
1 -0.18
10 0.45
12 0.28
13 0.27
14 0.41
15 0.3
16 -0.14
17 0.34
18 -0.15
19 -0.15
2 -0.19
20 0.32
21 -0.15
22 -0.15
23 0.12
24 -0.14
25 0.18
26 -0.15
27 -0.15
28 -0.15
29 0.57
3 -0.68
30 0.19
31 0.06
4 -0.02
40 0.4
41 0.15
42 0.15
45 0.15
46 0.15
47 0.37
48 0.15
49 0.15
5 -0.57
50 0.15
6 -0.81
7 -0.57
8 -0.41
9 -0.55

> <PUBCHEM_EFFECTIVE_ROTOR_COUNT>
8

> <PUBCHEM_PHARMACOPHORE_FEATURES>
10
1 3 acceptor
1 3 donor
1 5 acceptor
1 6 cation
1 9 donor
3 7 8 17 cation
5 4 7 8 15 17 rings
5 6 10 11 12 13 rings
6 16 18 19 21 22 23 rings
6 24 25 26 27 28 30 rings

> <PUBCHEM_HEAVY_ATOM_COUNT>
31

> <PUBCHEM_ATOM_DEF_STEREO_COUNT>
2

> <PUBCHEM_ATOM_UDEF_STEREO_COUNT>
0

> <PUBCHEM_BOND_DEF_STEREO_COUNT>
0

> <PUBCHEM_BOND_UDEF_STEREO_COUNT>
0

> <PUBCHEM_ISOTOPIC_ATOM_COUNT>
0

> <PUBCHEM_COMPONENT_COUNT>
1

> <PUBCHEM_CACTVS_TAUTO_COUNT>
2

> <PUBCHEM_CONFORMER_ID>
0198171E00000001

> <PUBCHEM_MMFF94_ENERGY>
68.476

> <PUBCHEM_FEATURE_SELFOVERLAP>
50.747

> <PUBCHEM_SHAPE_FINGERPRINT>
107951 10 18261105224006019579
11387372 6 17832407719644563962
11421498 54 17247825243527124764
11828532 37 17607533720293812699
12035758 1 18340223907703756409
12156800 1 17970375696383886879
12422481 6 18200053818486989883
12633257 1 17702676590951891674
13402501 40 18343301444786366213
13726171 33 18050041979400688964
144659 39 18263934245632881689
14725015 67 18338791329883564019
14790565 3 17118032371541471960
15721738 202 15286212838376170379
16728300 4 18262507096768461418
20567600 347 18194961838320415613
20764821 26 18342742965983655701
22182313 1 17916323679024354454
23569943 247 15122118201611567180
24893992 56 18261106440289561155
3052486 1 18408330981837073940
3298306 158 18193830449704149857
3380486 145 17917716798779453367
35225 105 17682633546407851887
392239 28 17203606000046717874
508706 21 18413387657145712143
57527573 199 18268148647774496581
6669772 16 18193269694315181523
7064713 232 16988300766471511698
9981440 41 18340764841344029807

> <PUBCHEM_SHAPE_MULTIPOLES>
595.03
9.77
3.92
2.16
9.61
0.9
-0.18
0.02
2.45
-4.37
0.09
-1.06
-1.05
1.9

> <PUBCHEM_SHAPE_SELFOVERLAP>
1274.804

> <PUBCHEM_SHAPE_VOLUME>
332.2

> <PUBCHEM_COORDINATE_TYPE>
2
5
10

$$$$
