25313526
  -OEChem-12032416193D

 64 67  0     1  0  0  0  0  0999 V2000
   -5.1404   -2.5774    1.7406 F   0  0  0  0  0  0  0  0  0  0  0  0
    3.2960    3.1486    0.8636 O   0  0  0  0  0  0  0  0  0  0  0  0
   -0.1911   -1.3790   -1.9208 O   0  0  0  0  0  0  0  0  0  0  0  0
   -3.4833    1.5412    1.7614 O   0  0  0  0  0  0  0  0  0  0  0  0
   -4.5532    1.0412   -0.7550 O   0  0  0  0  0  0  0  0  0  0  0  0
    6.2769   -1.3326    0.9569 N   0  0  0  0  0  0  0  0  0  0  0  0
    1.6605    2.2603   -0.5280 N   0  0  0  0  0  0  0  0  0  0  0  0
    1.1124   -1.2502   -2.3850 N   0  0  0  0  0  0  0  0  0  0  0  0
    3.6429   -0.0835    0.5005 C   0  0  1  0  0  0  0  0  0  0  0  0
    4.0669   -1.4107   -0.1726 C   0  0  2  0  0  0  0  0  0  0  0  0
    4.4498    0.1021    1.7965 C   0  0  0  0  0  0  0  0  0  0  0  0
    5.5942   -1.5075   -0.3255 C   0  0  0  0  0  0  0  0  0  0  0  0
    5.9540   -0.0477    1.5736 C   0  0  0  0  0  0  0  0  0  0  0  0
    3.3763   -1.6486   -1.5161 C   0  0  0  0  0  0  0  0  0  0  0  0
    3.7763    1.1461   -0.4060 C   0  0  0  0  0  0  0  0  0  0  0  0
    1.8821   -1.6529   -1.3699 C   0  0  0  0  0  0  0  0  0  0  0  0
    2.9150    2.2995    0.0625 C   0  0  0  0  0  0  0  0  0  0  0  0
    1.1275   -2.0435   -0.2502 C   0  0  0  0  0  0  0  0  0  0  0  0
   -0.1691   -1.8522   -0.6486 C   0  0  0  0  0  0  0  0  0  0  0  0
    0.6317    3.2394   -0.2611 C   0  0  0  0  0  0  0  0  0  0  0  0
   -1.4507   -2.0381   -0.0328 C   0  0  0  0  0  0  0  0  0  0  0  0
   -0.7458    2.6562   -0.3892 C   0  0  0  0  0  0  0  0  0  0  0  0
   -1.4882    2.3640    0.7549 C   0  0  0  0  0  0  0  0  0  0  0  0
   -1.5872   -1.9020    1.3488 C   0  0  0  0  0  0  0  0  0  0  0  0
   -2.5609   -2.3559   -0.8152 C   0  0  0  0  0  0  0  0  0  0  0  0
   -1.2831    2.4060   -1.6520 C   0  0  0  0  0  0  0  0  0  0  0  0
   -2.7680    1.8220    0.6365 C   0  0  0  0  0  0  0  0  0  0  0  0
   -2.5628    1.8639   -1.7705 C   0  0  0  0  0  0  0  0  0  0  0  0
   -2.8334   -2.0840    1.9479 C   0  0  0  0  0  0  0  0  0  0  0  0
   -3.8072   -2.5381   -0.2161 C   0  0  0  0  0  0  0  0  0  0  0  0
   -3.3053    1.5720   -0.6263 C   0  0  0  0  0  0  0  0  0  0  0  0
   -3.9435   -2.4021    1.1654 C   0  0  0  0  0  0  0  0  0  0  0  0
   -2.8612    1.8267    3.0128 C   0  0  0  0  0  0  0  0  0  0  0  0
   -5.0281    0.8165   -2.0810 C   0  0  0  0  0  0  0  0  0  0  0  0
    2.5952   -0.1516    0.8140 H   0  0  0  0  0  0  0  0  0  0  0  0
    3.7806   -2.2255    0.5097 H   0  0  0  0  0  0  0  0  0  0  0  0
    4.1241   -0.6541    2.5239 H   0  0  0  0  0  0  0  0  0  0  0  0
    4.2410    1.0739    2.2568 H   0  0  0  0  0  0  0  0  0  0  0  0
    5.8588   -2.4946   -0.7222 H   0  0  0  0  0  0  0  0  0  0  0  0
    5.9602   -0.7676   -1.0482 H   0  0  0  0  0  0  0  0  0  0  0  0
    6.3503    0.7751    0.9686 H   0  0  0  0  0  0  0  0  0  0  0  0
    6.4605    0.0085    2.5437 H   0  0  0  0  0  0  0  0  0  0  0  0
    3.6693   -2.6368   -1.8962 H   0  0  0  0  0  0  0  0  0  0  0  0
    3.6974   -0.9337   -2.2808 H   0  0  0  0  0  0  0  0  0  0  0  0
    3.4934    0.9351   -1.4402 H   0  0  0  0  0  0  0  0  0  0  0  0
    4.8092    1.5061   -0.4612 H   0  0  0  0  0  0  0  0  0  0  0  0
    7.2845   -1.3945    0.8137 H   0  0  0  0  0  0  0  0  0  0  0  0
    1.4636   -2.4206    0.7046 H   0  0  0  0  0  0  0  0  0  0  0  0
    1.4599    1.5376   -1.2137 H   0  0  0  0  0  0  0  0  0  0  0  0
    0.7604    4.0556   -0.9818 H   0  0  0  0  0  0  0  0  0  0  0  0
    0.7883    3.6743    0.7327 H   0  0  0  0  0  0  0  0  0  0  0  0
   -1.0183    2.5758    1.7094 H   0  0  0  0  0  0  0  0  0  0  0  0
   -0.7125    2.6287   -2.5499 H   0  0  0  0  0  0  0  0  0  0  0  0
   -0.7380   -1.6482    1.9788 H   0  0  0  0  0  0  0  0  0  0  0  0
   -2.4830   -2.4736   -1.8933 H   0  0  0  0  0  0  0  0  0  0  0  0
   -2.9147    1.6950   -2.7823 H   0  0  0  0  0  0  0  0  0  0  0  0
   -2.9407   -1.9752    3.0231 H   0  0  0  0  0  0  0  0  0  0  0  0
   -4.6719   -2.7853   -0.8248 H   0  0  0  0  0  0  0  0  0  0  0  0
   -3.5702    1.5408    3.7968 H   0  0  0  0  0  0  0  0  0  0  0  0
   -2.6694    2.8983    3.1335 H   0  0  0  0  0  0  0  0  0  0  0  0
   -1.9611    1.2210    3.1639 H   0  0  0  0  0  0  0  0  0  0  0  0
   -6.0332    0.3906   -1.9951 H   0  0  0  0  0  0  0  0  0  0  0  0
   -4.4150    0.0787   -2.6098 H   0  0  0  0  0  0  0  0  0  0  0  0
   -5.1262    1.7540   -2.6389 H   0  0  0  0  0  0  0  0  0  0  0  0
  1 32  1  0  0  0  0
  2 17  2  0  0  0  0
  3  8  1  0  0  0  0
  3 19  1  0  0  0  0
  4 27  1  0  0  0  0
  4 33  1  0  0  0  0
  5 31  1  0  0  0  0
  5 34  1  0  0  0  0
  6 12  1  0  0  0  0
  6 13  1  0  0  0  0
  6 47  1  0  0  0  0
  7 17  1  0  0  0  0
  7 20  1  0  0  0  0
  7 49  1  0  0  0  0
  8 16  2  0  0  0  0
  9 10  1  0  0  0  0
  9 11  1  0  0  0  0
  9 15  1  0  0  0  0
  9 35  1  0  0  0  0
 10 12  1  0  0  0  0
 10 14  1  0  0  0  0
 10 36  1  0  0  0  0
 11 13  1  0  0  0  0
 11 37  1  0  0  0  0
 11 38  1  0  0  0  0
 12 39  1  0  0  0  0
 12 40  1  0  0  0  0
 13 41  1  0  0  0  0
 13 42  1  0  0  0  0
 14 16  1  0  0  0  0
 14 43  1  0  0  0  0
 14 44  1  0  0  0  0
 15 17  1  0  0  0  0
 15 45  1  0  0  0  0
 15 46  1  0  0  0  0
 16 18  1  0  0  0  0
 18 19  2  0  0  0  0
 18 48  1  0  0  0  0
 19 21  1  0  0  0  0
 20 22  1  0  0  0  0
 20 50  1  0  0  0  0
 20 51  1  0  0  0  0
 21 24  2  0  0  0  0
 21 25  1  0  0  0  0
 22 23  2  0  0  0  0
 22 26  1  0  0  0  0
 23 27  1  0  0  0  0
 23 52  1  0  0  0  0
 24 29  1  0  0  0  0
 24 54  1  0  0  0  0
 25 30  2  0  0  0  0
 25 55  1  0  0  0  0
 26 28  2  0  0  0  0
 26 53  1  0  0  0  0
 27 31  2  0  0  0  0
 28 31  1  0  0  0  0
 28 56  1  0  0  0  0
 29 32  2  0  0  0  0
 29 57  1  0  0  0  0
 30 32  1  0  0  0  0
 30 58  1  0  0  0  0
 33 59  1  0  0  0  0
 33 60  1  0  0  0  0
 33 61  1  0  0  0  0
 34 62  1  0  0  0  0
 34 63  1  0  0  0  0
 34 64  1  0  0  0  0
M  END
> <PUBCHEM_COMPOUND_CID>
25313526

> <PUBCHEM_CONFORMER_RMSD>
1.2

> <PUBCHEM_CONFORMER_DIVERSEORDER>
2
35
178
127
168
66
119
58
63
123
136
95
139
73
69
3
19
202
196
143
85
13
182
131
188
169
185
81
24
113
154
129
71
209
172
148
79
100
68
176
161
4
167
31
197
184
142
18
107
28
14
137
37
80
98
138
151
192
174
11
189
117
77
29
190
146
5
145
208
183
163
200
83
109
27
92
186
181
120
210
1
60
175
49
150
101
201
72
82
194
147
51
6
115
7
206
122
26
118
48
155
132
124
157
204
135
99
205
64
103
153
54
126
15
179
191
108
130
177
187
34
53
22
44
93
21
8
96
149
41
65
133
90
173
36
140
164
195
42
50
193
9
152
25
159
165
198
62
39
23
30
180
141
162
61
104
16
134
156
203
10
20
52
87
67
111
158
160
94
110
114
89
46
32
47
76
55
121
40
166
199
102
125
56
128
112
17
105
70
12
91
78
144
38
57
84
88
33
116
74
170
45
86
97
171
207
75
43
59
106

> <PUBCHEM_MMFF94_PARTIAL_CHARGES>
41
1 -0.19
12 0.27
13 0.27
14 0.18
15 0.06
16 0.11
17 0.57
18 -0.15
19 0.09
2 -0.57
20 0.44
21 0.05
22 -0.14
23 -0.15
24 -0.15
25 -0.15
26 -0.15
27 0.08
28 -0.15
29 -0.15
3 -0.02
30 -0.15
31 0.08
32 0.19
33 0.28
34 0.28
4 -0.36
47 0.36
48 0.15
49 0.37
5 -0.36
52 0.15
53 0.15
54 0.15
55 0.15
56 0.15
57 0.15
58 0.15
6 -0.9
7 -0.73
8 -0.41

> <PUBCHEM_EFFECTIVE_ROTOR_COUNT>
11.2

> <PUBCHEM_PHARMACOPHORE_FEATURES>
11
1 2 acceptor
1 4 acceptor
1 5 acceptor
1 6 cation
1 6 donor
1 7 donor
1 8 acceptor
5 3 8 16 18 19 rings
6 21 24 25 29 30 32 rings
6 22 23 26 27 28 31 rings
6 6 9 10 11 12 13 rings

> <PUBCHEM_HEAVY_ATOM_COUNT>
34

> <PUBCHEM_ATOM_DEF_STEREO_COUNT>
2

> <PUBCHEM_ATOM_UDEF_STEREO_COUNT>
0

> <PUBCHEM_BOND_DEF_STEREO_COUNT>
0

> <PUBCHEM_BOND_UDEF_STEREO_COUNT>
0

> <PUBCHEM_ISOTOPIC_ATOM_COUNT>
0

> <PUBCHEM_COMPONENT_COUNT>
1

> <PUBCHEM_CACTVS_TAUTO_COUNT>
2

> <PUBCHEM_CONFORMER_ID>
018240F600000002

> <PUBCHEM_MMFF94_ENERGY>
81.4821

> <PUBCHEM_FEATURE_SELFOVERLAP>
55.827

> <PUBCHEM_SHAPE_FINGERPRINT>
12107698 1 18337669827754304626
12422481 6 18339940302312237219
12633257 1 18337682922930170448
13140716 1 18410862061778115648
13402501 40 18341039723418859908
13583140 156 17386011611233961824
14004853 49 17255121667088208029
14251764 38 18343865511014481664
14395042 70 14859142468887879071
17627616 140 17680977509750141594
20764821 26 18338535087238187804
21033648 29 17631997699139460530
24893992 56 17822010957130966147
24941158 1 15696620778749211652
3052486 1 18334020480153047350
3459 110 18410583889462132474
35225 105 17459462256502742680
392239 28 18410299086233959275
460360 51 18260834842407711980
469060 322 17968676959709575603
5081480 168 16413823443551202356
508706 21 18337956658264985508
56638632 10 16700315650527546448
57527585 103 18189071900754830955
6287921 2 17344917304121780589

> <PUBCHEM_SHAPE_MULTIPOLES>
654.01
11.59
4.29
2.24
10.31
1.13
0.55
-3.29
3.27
-2.51
0.21
-1.63
0.05
1.67

> <PUBCHEM_SHAPE_SELFOVERLAP>
1397.734

> <PUBCHEM_SHAPE_VOLUME>
364.3

> <PUBCHEM_COORDINATE_TYPE>
2
5
10

$$$$
