7155616
  -OEChem-12032416413D

 55 59  0     1  0  0  0  0  0999 V2000
    0.3227   -5.9457    0.2595 F   0  0  0  0  0  0  0  0  0  0  0  0
    0.5357    2.2506    1.8571 O   0  0  0  0  0  0  0  0  0  0  0  0
   -3.5477   -1.0086    1.8398 O   0  0  0  0  0  0  0  0  0  0  0  0
    2.8698   -0.1519   -1.6476 O   0  0  0  0  0  0  0  0  0  0  0  0
   -3.8648    0.5548    0.1637 N   0  0  0  0  0  0  0  0  0  0  0  0
   -1.2069    2.3146    0.3017 N   0  0  0  0  0  0  0  0  0  0  0  0
   -3.0693   -1.6069   -0.3484 N   0  0  0  0  0  0  0  0  0  0  0  0
    2.3738    1.4248   -0.0109 N   0  0  0  0  0  0  0  0  0  0  0  0
    7.1688    0.2222    0.8013 N   0  0  0  0  0  0  0  0  0  0  0  0
   -3.6110    2.9177    0.9392 C   0  0  1  0  0  0  0  0  0  0  0  0
   -3.0767    2.3362   -1.3879 C   0  0  2  0  0  0  0  0  0  0  0  0
   -3.7277    3.3954   -0.5027 C   0  0  0  0  0  0  0  0  0  0  0  0
   -4.3282    1.5688    1.1155 C   0  0  0  0  0  0  0  0  0  0  0  0
   -2.1282    2.8372    1.3194 C   0  0  0  0  0  0  0  0  0  0  0  0
   -3.8298    0.9969   -1.2423 C   0  0  0  0  0  0  0  0  0  0  0  0
   -1.6158    2.1421   -1.0245 C   0  0  0  0  0  0  0  0  0  0  0  0
   -0.7273    1.7741   -1.9630 C   0  0  0  0  0  0  0  0  0  0  0  0
    0.1257    2.0964    0.7058 C   0  0  0  0  0  0  0  0  0  0  0  0
   -3.4877   -0.7195    0.6419 C   0  0  0  0  0  0  0  0  0  0  0  0
    1.0783    1.6621   -0.3646 C   0  0  0  0  0  0  0  0  0  0  0  0
    0.6457    1.5287   -1.6229 C   0  0  0  0  0  0  0  0  0  0  0  0
   -2.2015   -2.7159   -0.1932 C   0  0  0  0  0  0  0  0  0  0  0  0
    3.1968    0.5271   -0.6772 C   0  0  0  0  0  0  0  0  0  0  0  0
   -1.9602   -3.5621   -1.2719 C   0  0  0  0  0  0  0  0  0  0  0  0
   -1.5956   -2.9537    1.0375 C   0  0  0  0  0  0  0  0  0  0  0  0
    4.5859    0.4202   -0.1600 C   0  0  0  0  0  0  0  0  0  0  0  0
   -1.1068   -4.6548   -1.1188 C   0  0  0  0  0  0  0  0  0  0  0  0
   -0.7421   -4.0462    1.1909 C   0  0  0  0  0  0  0  0  0  0  0  0
   -0.4976   -4.8968    0.1126 C   0  0  0  0  0  0  0  0  0  0  0  0
    5.5886    0.0377   -1.0190 C   0  0  0  0  0  0  0  0  0  0  0  0
    4.8280    0.7075    1.1623 C   0  0  0  0  0  0  0  0  0  0  0  0
    6.8659   -0.0465   -0.4885 C   0  0  0  0  0  0  0  0  0  0  0  0
    6.1392    0.5933    1.5952 C   0  0  0  0  0  0  0  0  0  0  0  0
   -4.0978    3.6406    1.6056 H   0  0  0  0  0  0  0  0  0  0  0  0
   -3.1576    2.6665   -2.4317 H   0  0  0  0  0  0  0  0  0  0  0  0
   -4.7807    3.5313   -0.7779 H   0  0  0  0  0  0  0  0  0  0  0  0
   -3.2339    4.3670   -0.6295 H   0  0  0  0  0  0  0  0  0  0  0  0
   -4.2177    1.2190    2.1471 H   0  0  0  0  0  0  0  0  0  0  0  0
   -5.4031    1.6957    0.9366 H   0  0  0  0  0  0  0  0  0  0  0  0
   -1.7695    3.8498    1.5494 H   0  0  0  0  0  0  0  0  0  0  0  0
   -1.9984    2.2555    2.2409 H   0  0  0  0  0  0  0  0  0  0  0  0
   -3.3729    0.2595   -1.9037 H   0  0  0  0  0  0  0  0  0  0  0  0
   -4.8724    1.1142   -1.5622 H   0  0  0  0  0  0  0  0  0  0  0  0
   -1.0222    1.6256   -2.9966 H   0  0  0  0  0  0  0  0  0  0  0  0
    1.2822    1.2778   -2.4627 H   0  0  0  0  0  0  0  0  0  0  0  0
   -3.4400   -1.4917   -1.2852 H   0  0  0  0  0  0  0  0  0  0  0  0
    2.6628    1.8353    0.8704 H   0  0  0  0  0  0  0  0  0  0  0  0
   -2.4286   -3.3843   -2.2363 H   0  0  0  0  0  0  0  0  0  0  0  0
   -1.7161   -2.3112    1.9007 H   0  0  0  0  0  0  0  0  0  0  0  0
   -0.9160   -5.3172   -1.9579 H   0  0  0  0  0  0  0  0  0  0  0  0
   -0.2608   -4.2311    2.1468 H   0  0  0  0  0  0  0  0  0  0  0  0
    5.4165   -0.1875   -2.0650 H   0  0  0  0  0  0  0  0  0  0  0  0
    4.0695    0.9727    1.8872 H   0  0  0  0  0  0  0  0  0  0  0  0
    7.7065   -0.3406   -1.1083 H   0  0  0  0  0  0  0  0  0  0  0  0
    6.4030    0.7944    2.6283 H   0  0  0  0  0  0  0  0  0  0  0  0
  1 29  1  0  0  0  0
  2 18  2  0  0  0  0
  3 19  2  0  0  0  0
  4 23  2  0  0  0  0
  5 13  1  0  0  0  0
  5 15  1  0  0  0  0
  5 19  1  0  0  0  0
  6 14  1  0  0  0  0
  6 16  1  0  0  0  0
  6 18  1  0  0  0  0
  7 19  1  0  0  0  0
  7 22  1  0  0  0  0
  7 46  1  0  0  0  0
  8 20  1  0  0  0  0
  8 23  1  0  0  0  0
  8 47  1  0  0  0  0
  9 32  2  0  0  0  0
  9 33  1  0  0  0  0
 10 12  1  0  0  0  0
 10 13  1  0  0  0  0
 10 14  1  0  0  0  0
 10 34  1  0  0  0  0
 11 12  1  0  0  0  0
 11 15  1  0  0  0  0
 11 16  1  0  0  0  0
 11 35  1  0  0  0  0
 12 36  1  0  0  0  0
 12 37  1  0  0  0  0
 13 38  1  0  0  0  0
 13 39  1  0  0  0  0
 14 40  1  0  0  0  0
 14 41  1  0  0  0  0
 15 42  1  0  0  0  0
 15 43  1  0  0  0  0
 16 17  2  0  0  0  0
 17 21  1  0  0  0  0
 17 44  1  0  0  0  0
 18 20  1  0  0  0  0
 20 21  2  0  0  0  0
 21 45  1  0  0  0  0
 22 24  2  0  0  0  0
 22 25  1  0  0  0  0
 23 26  1  0  0  0  0
 24 27  1  0  0  0  0
 24 48  1  0  0  0  0
 25 28  2  0  0  0  0
 25 49  1  0  0  0  0
 26 30  2  0  0  0  0
 26 31  1  0  0  0  0
 27 29  2  0  0  0  0
 27 50  1  0  0  0  0
 28 29  1  0  0  0  0
 28 51  1  0  0  0  0
 30 32  1  0  0  0  0
 30 52  1  0  0  0  0
 31 33  2  0  0  0  0
 31 53  1  0  0  0  0
 32 54  1  0  0  0  0
 33 55  1  0  0  0  0
M  END
> <PUBCHEM_COMPOUND_CID>
7155616

> <PUBCHEM_CONFORMER_RMSD>
1

> <PUBCHEM_CONFORMER_DIVERSEORDER>
1
10
4
13
14
8
6
12
9
3
5
7
15
11
2

> <PUBCHEM_MMFF94_PARTIAL_CHARGES>
43
1 -0.19
11 0.14
13 0.3
14 0.3
15 0.3
16 -0.03
17 -0.15
18 0.62
19 0.69
2 -0.57
20 0.12
21 -0.15
22 0.12
23 0.54
24 -0.15
25 -0.15
26 0.09
27 -0.15
28 -0.15
29 0.19
3 -0.57
30 -0.15
31 -0.15
32 0.16
33 0.16
4 -0.57
44 0.15
45 0.15
46 0.37
47 0.37
48 0.15
49 0.15
5 -0.66
50 0.15
51 0.15
52 0.15
53 0.15
54 0.15
55 0.15
6 -0.47
7 -0.55
8 -0.54
9 -0.62

> <PUBCHEM_EFFECTIVE_ROTOR_COUNT>
7

> <PUBCHEM_PHARMACOPHORE_FEATURES>
11
1 2 acceptor
1 3 acceptor
1 4 acceptor
1 7 donor
1 8 donor
1 9 acceptor
6 22 24 25 27 28 29 rings
6 5 10 11 12 13 15 rings
6 6 10 11 12 14 16 rings
6 6 16 17 18 20 21 rings
6 9 26 30 31 32 33 rings

> <PUBCHEM_HEAVY_ATOM_COUNT>
33

> <PUBCHEM_ATOM_DEF_STEREO_COUNT>
2

> <PUBCHEM_ATOM_UDEF_STEREO_COUNT>
0

> <PUBCHEM_BOND_DEF_STEREO_COUNT>
0

> <PUBCHEM_BOND_UDEF_STEREO_COUNT>
0

> <PUBCHEM_ISOTOPIC_ATOM_COUNT>
0

> <PUBCHEM_COMPONENT_COUNT>
1

> <PUBCHEM_CACTVS_TAUTO_COUNT>
4

> <PUBCHEM_CONFORMER_ID>
006D2FA000000001

> <PUBCHEM_MMFF94_ENERGY>
102.2661

> <PUBCHEM_FEATURE_SELFOVERLAP>
57.392

> <PUBCHEM_SHAPE_FINGERPRINT>
10483366 6 18266155397388799975
11014199 57 17832708250626015210
11513181 2 18271805662124804214
11524674 6 18411978027372679957
12608794 3 18198084627526578409
12712778 12 18338512049397498298
14020679 6 17918001542153034665
14028597 1 17630340649348879977
14114207 22 17823679885861974319
14251757 5 18336549425368579994
14659021 117 18195795491430377954
14674994 50 18340771549665734018
14725015 67 18268708480114501531
14844126 61 18337670931133450019
14856354 85 17023194828951559816
15320294 125 18040149622046219130
15927050 60 18197214755389808301
16120349 306 18336543798628911723
16719943 64 18410014329554471218
16993438 75 18129934685134858854
17627616 140 18265890263807906543
19611394 137 18129375060119283416
19958102 18 18336262354292004510
20511986 3 17531515530320918928
20578428 11 16161262169751044893
20609170 109 16608783571153110866
20764821 26 18194951959970027006
20771845 165 17464251626465296973
20775530 9 17618516814076707335
229767 44 18335424573286233370
23516275 137 17901971659542778674
23569943 247 14691468114305559020
238918 7 18342751705889065086
3383291 50 18340205297394639083
3882209 13 17478870032677177046
4073 2 18343860018832673204
4403749 210 18334849520447508676
5080951 261 17969478525324603656
5085150 59 18336254674579184079
5265222 85 18335995211083662205
6201320 77 15977013926534398230

> <PUBCHEM_SHAPE_MULTIPOLES>
629.34
12.14
6.54
1.73
27.59
12.53
0.02
-5.76
-2.18
-7.09
-0.14
-0.14
-0.46
0.22

> <PUBCHEM_SHAPE_SELFOVERLAP>
1388.183

> <PUBCHEM_SHAPE_VOLUME>
333.8

> <PUBCHEM_COORDINATE_TYPE>
2
5
10

$$$$
