11885232
  -OEChem-12032416113D

 61 65  0     1  0  0  0  0  0999 V2000
    3.9075   -4.3970    1.2615 F   0  0  0  0  0  0  0  0  0  0  0  0
   -1.7444    1.0240   -1.5831 O   0  0  0  0  0  0  0  0  0  0  0  0
    3.2551    0.5343   -2.4925 O   0  0  0  0  0  0  0  0  0  0  0  0
    3.0533    1.6753   -0.4600 N   0  0  0  0  0  0  0  0  0  0  0  0
   -0.0816    1.6650   -0.0785 N   0  0  0  0  0  0  0  0  0  0  0  0
   -4.6940    1.2782    0.1950 N   0  0  0  0  0  0  0  0  0  0  0  0
    1.5086    3.6221   -0.5342 C   0  0  1  0  0  0  0  0  0  0  0  0
    1.7325    2.3173    1.5418 C   0  0  2  0  0  0  0  0  0  0  0  0
    1.5829    3.7322    0.9850 C   0  0  0  0  0  0  0  0  0  0  0  0
    2.7887    2.9696   -1.0878 C   0  0  0  0  0  0  0  0  0  0  0  0
    0.2483    2.8321   -0.9100 C   0  0  0  0  0  0  0  0  0  0  0  0
    3.0376    1.6884    1.0121 C   0  0  0  0  0  0  0  0  0  0  0  0
    0.5545    1.4476    1.1463 C   0  0  0  0  0  0  0  0  0  0  0  0
    0.1533    0.4472    1.9469 C   0  0  0  0  0  0  0  0  0  0  0  0
   -1.1359    0.8455   -0.5265 C   0  0  0  0  0  0  0  0  0  0  0  0
    3.2416    0.5475   -1.2626 C   0  0  0  0  0  0  0  0  0  0  0  0
   -1.5312   -0.2960    0.3708 C   0  0  0  0  0  0  0  0  0  0  0  0
   -0.9024   -0.4388    1.5470 C   0  0  0  0  0  0  0  0  0  0  0  0
    3.4162   -0.7492   -0.5996 C   0  0  0  0  0  0  0  0  0  0  0  0
   -2.5742   -1.2548   -0.0302 C   0  0  0  0  0  0  0  0  0  0  0  0
   -3.9165   -1.0491    0.2958 C   0  0  0  0  0  0  0  0  0  0  0  0
    2.3042   -1.5386   -0.3179 C   0  0  0  0  0  0  0  0  0  0  0  0
    4.6934   -1.1855   -0.2560 C   0  0  0  0  0  0  0  0  0  0  0  0
   -2.2024   -2.3911   -0.7519 C   0  0  0  0  0  0  0  0  0  0  0  0
   -4.3541    0.1544    1.0672 C   0  0  0  0  0  0  0  0  0  0  0  0
   -4.8823   -1.9753   -0.0980 C   0  0  0  0  0  0  0  0  0  0  0  0
   -3.1682   -3.3174   -1.1455 C   0  0  0  0  0  0  0  0  0  0  0  0
    2.4703   -2.7723    0.3114 C   0  0  0  0  0  0  0  0  0  0  0  0
    4.8595   -2.4193    0.3731 C   0  0  0  0  0  0  0  0  0  0  0  0
   -4.5081   -3.1096   -0.8186 C   0  0  0  0  0  0  0  0  0  0  0  0
    3.7479   -3.2127    0.6569 C   0  0  0  0  0  0  0  0  0  0  0  0
   -5.1156    2.4317    0.9889 C   0  0  0  0  0  0  0  0  0  0  0  0
   -5.7446    0.8943   -0.7471 C   0  0  0  0  0  0  0  0  0  0  0  0
    1.4312    4.6248   -0.9723 H   0  0  0  0  0  0  0  0  0  0  0  0
    1.7969    2.3834    2.6356 H   0  0  0  0  0  0  0  0  0  0  0  0
    0.6805    4.2137    1.3823 H   0  0  0  0  0  0  0  0  0  0  0  0
    2.4364    4.3535    1.2825 H   0  0  0  0  0  0  0  0  0  0  0  0
    2.7202    2.8666   -2.1759 H   0  0  0  0  0  0  0  0  0  0  0  0
    3.6549    3.6087   -0.8776 H   0  0  0  0  0  0  0  0  0  0  0  0
   -0.6202    3.5009   -0.8361 H   0  0  0  0  0  0  0  0  0  0  0  0
    0.2945    2.5131   -1.9589 H   0  0  0  0  0  0  0  0  0  0  0  0
    3.8996    2.2865    1.3326 H   0  0  0  0  0  0  0  0  0  0  0  0
    3.1754    0.6875    1.4286 H   0  0  0  0  0  0  0  0  0  0  0  0
    0.6407    0.2481    2.8955 H   0  0  0  0  0  0  0  0  0  0  0  0
   -1.1472   -1.2478    2.2289 H   0  0  0  0  0  0  0  0  0  0  0  0
    1.3079   -1.2133   -0.6000 H   0  0  0  0  0  0  0  0  0  0  0  0
    5.5657   -0.5745   -0.4724 H   0  0  0  0  0  0  0  0  0  0  0  0
   -1.1625   -2.5690   -1.0160 H   0  0  0  0  0  0  0  0  0  0  0  0
   -5.2146   -0.1191    1.6961 H   0  0  0  0  0  0  0  0  0  0  0  0
   -3.5824    0.4539    1.7858 H   0  0  0  0  0  0  0  0  0  0  0  0
   -5.9295   -1.8421    0.1598 H   0  0  0  0  0  0  0  0  0  0  0  0
   -2.8768   -4.2009   -1.7059 H   0  0  0  0  0  0  0  0  0  0  0  0
    1.6048   -3.3913    0.5289 H   0  0  0  0  0  0  0  0  0  0  0  0
    5.8539   -2.7623    0.6425 H   0  0  0  0  0  0  0  0  0  0  0  0
   -5.2593   -3.8328   -1.1221 H   0  0  0  0  0  0  0  0  0  0  0  0
   -4.3181    2.7392    1.6746 H   0  0  0  0  0  0  0  0  0  0  0  0
   -6.0165    2.2234    1.5776 H   0  0  0  0  0  0  0  0  0  0  0  0
   -5.3179    3.2922    0.3414 H   0  0  0  0  0  0  0  0  0  0  0  0
   -6.6265    0.4719   -0.2519 H   0  0  0  0  0  0  0  0  0  0  0  0
   -5.3810    0.2067   -1.5166 H   0  0  0  0  0  0  0  0  0  0  0  0
   -6.0824    1.7754   -1.3075 H   0  0  0  0  0  0  0  0  0  0  0  0
  1 31  1  0  0  0  0
  2 15  2  0  0  0  0
  3 16  2  0  0  0  0
  4 10  1  0  0  0  0
  4 12  1  0  0  0  0
  4 16  1  0  0  0  0
  5 11  1  0  0  0  0
  5 13  1  0  0  0  0
  5 15  1  0  0  0  0
  6 25  1  0  0  0  0
  6 32  1  0  0  0  0
  6 33  1  0  0  0  0
  7  9  1  0  0  0  0
  7 10  1  0  0  0  0
  7 11  1  0  0  0  0
  7 34  1  0  0  0  0
  8  9  1  0  0  0  0
  8 12  1  0  0  0  0
  8 13  1  0  0  0  0
  8 35  1  0  0  0  0
  9 36  1  0  0  0  0
  9 37  1  0  0  0  0
 10 38  1  0  0  0  0
 10 39  1  0  0  0  0
 11 40  1  0  0  0  0
 11 41  1  0  0  0  0
 12 42  1  0  0  0  0
 12 43  1  0  0  0  0
 13 14  2  0  0  0  0
 14 18  1  0  0  0  0
 14 44  1  0  0  0  0
 15 17  1  0  0  0  0
 16 19  1  0  0  0  0
 17 18  2  0  0  0  0
 17 20  1  0  0  0  0
 18 45  1  0  0  0  0
 19 22  2  0  0  0  0
 19 23  1  0  0  0  0
 20 21  1  0  0  0  0
 20 24  2  0  0  0  0
 21 25  1  0  0  0  0
 21 26  2  0  0  0  0
 22 28  1  0  0  0  0
 22 46  1  0  0  0  0
 23 29  2  0  0  0  0
 23 47  1  0  0  0  0
 24 27  1  0  0  0  0
 24 48  1  0  0  0  0
 25 49  1  0  0  0  0
 25 50  1  0  0  0  0
 26 30  1  0  0  0  0
 26 51  1  0  0  0  0
 27 30  2  0  0  0  0
 27 52  1  0  0  0  0
 28 31  2  0  0  0  0
 28 53  1  0  0  0  0
 29 31  1  0  0  0  0
 29 54  1  0  0  0  0
 30 55  1  0  0  0  0
 32 56  1  0  0  0  0
 32 57  1  0  0  0  0
 32 58  1  0  0  0  0
 33 59  1  0  0  0  0
 33 60  1  0  0  0  0
 33 61  1  0  0  0  0
M  END
> <PUBCHEM_COMPOUND_CID>
11885232

> <PUBCHEM_CONFORMER_RMSD>
0.8

> <PUBCHEM_CONFORMER_DIVERSEORDER>
1
3
11
10
8
4
2
6
9
5
7

> <PUBCHEM_MMFF94_PARTIAL_CHARGES>
41
1 -0.19
10 0.3
11 0.3
12 0.3
13 -0.03
14 -0.15
15 0.62
16 0.54
17 -0.01
18 -0.15
19 0.09
2 -0.57
20 0.03
21 -0.14
22 -0.15
23 -0.15
24 -0.15
25 0.41
26 -0.15
27 -0.15
28 -0.15
29 -0.15
3 -0.57
30 -0.15
31 0.19
32 0.27
33 0.27
4 -0.66
44 0.15
45 0.15
46 0.15
47 0.15
48 0.15
5 -0.47
51 0.15
52 0.15
53 0.15
54 0.15
55 0.15
6 -0.81
8 0.14

> <PUBCHEM_EFFECTIVE_ROTOR_COUNT>
6

> <PUBCHEM_PHARMACOPHORE_FEATURES>
8
1 2 acceptor
1 3 acceptor
1 6 cation
6 19 22 23 28 29 31 rings
6 20 21 24 26 27 30 rings
6 4 7 8 9 10 12 rings
6 5 13 14 15 17 18 rings
6 5 7 8 9 11 13 rings

> <PUBCHEM_HEAVY_ATOM_COUNT>
33

> <PUBCHEM_ATOM_DEF_STEREO_COUNT>
2

> <PUBCHEM_ATOM_UDEF_STEREO_COUNT>
0

> <PUBCHEM_BOND_DEF_STEREO_COUNT>
0

> <PUBCHEM_BOND_UDEF_STEREO_COUNT>
0

> <PUBCHEM_ISOTOPIC_ATOM_COUNT>
0

> <PUBCHEM_COMPONENT_COUNT>
1

> <PUBCHEM_CACTVS_TAUTO_COUNT>
1

> <PUBCHEM_CONFORMER_ID>
00B55AB000000001

> <PUBCHEM_MMFF94_ENERGY>
101.4537

> <PUBCHEM_FEATURE_SELFOVERLAP>
42.191

> <PUBCHEM_SHAPE_FINGERPRINT>
10675989 125 17838052963821235313
12107183 9 18269000799888669457
12788726 201 18121232982445072322
13004483 165 18120649133265574738
13165053 137 14364893072523922595
13533116 47 18198061581069872175
13617811 41 17906161104035280215
14117953 113 18054513508512100199
14347332 77 18271241738030957487
14394314 77 18410575046636244530
17349148 13 15841008740298483321
17492 89 18267582593124300387
17818456 19 18201447943549707873
19958102 18 18338219575595352495
20691752 17 17822003259166819883
20775530 9 18262515880276748362
21703447 108 17914323834887560913
22393880 68 18200042883167827572
23559900 14 18343293795370322137
238 59 18119541083284726338
249057 3 18340206293852671931
340366 18 18340767053272669107
4058900 60 18045232784697610300
460360 51 18335123311705952111
463206 1 18335706035568160738
563151 97 18120385503704399220

> <PUBCHEM_SHAPE_MULTIPOLES>
645.17
10.99
5.14
1.56
8.87
1.13
-0.06
5.25
-0.78
-3.08
0.29
-0.61
-0.41
-1.93

> <PUBCHEM_SHAPE_SELFOVERLAP>
1416.807

> <PUBCHEM_SHAPE_VOLUME>
349

> <PUBCHEM_COORDINATE_TYPE>
2
5
10

$$$$
