75537129
  -OEChem-12032416313D

 57 60  0     1  0  0  0  0  0999 V2000
    3.2546    2.6480    0.2019 O   0  0  0  0  0  0  0  0  0  0  0  0
   -6.8794   -2.0792   -0.7091 O   0  0  0  0  0  0  0  0  0  0  0  0
    1.2900    1.4649   -0.3077 N   0  0  0  0  0  0  0  0  0  0  0  0
   -1.3976    0.6500   -0.1548 N   0  0  1  0  0  0  0  0  0  0  0  0
    3.2178    0.3201   -0.1769 N   0  0  0  0  0  0  0  0  0  0  0  0
   -5.4023   -0.6128    0.3231 N   0  0  0  0  0  0  0  0  0  0  0  0
    0.9407    0.1182   -0.7092 C   0  0  2  0  0  0  0  0  0  0  0  0
   -0.3197   -0.3444    0.0210 C   0  0  0  0  0  0  0  0  0  0  0  0
    2.1977   -0.6910   -0.3960 C   0  0  0  0  0  0  0  0  0  0  0  0
    4.6013   -0.0250    0.0446 C   0  0  0  0  0  0  0  0  0  0  0  0
   -2.6252    0.1885    0.4886 C   0  0  0  0  0  0  0  0  0  0  0  0
    0.2673    2.4900   -0.2998 C   0  0  0  0  0  0  0  0  0  0  0  0
   -0.9955    1.9638    0.3868 C   0  0  0  0  0  0  0  0  0  0  0  0
    2.6625    1.6105   -0.0648 C   0  0  0  0  0  0  0  0  0  0  0  0
    4.7341   -1.0134    1.2061 C   0  0  0  0  0  0  0  0  0  0  0  0
    5.2267   -0.5832   -1.2361 C   0  0  0  0  0  0  0  0  0  0  0  0
   -3.0363   -1.1762   -0.0791 C   0  0  0  0  0  0  0  0  0  0  0  0
   -3.7465    1.2150    0.2816 C   0  0  0  0  0  0  0  0  0  0  0  0
    6.1853   -1.4341    1.4231 C   0  0  0  0  0  0  0  0  0  0  0  0
    6.6768   -1.0060   -1.0161 C   0  0  0  0  0  0  0  0  0  0  0  0
    6.8073   -1.9883    0.1445 C   0  0  0  0  0  0  0  0  0  0  0  0
   -4.3691   -1.6332    0.5112 C   0  0  0  0  0  0  0  0  0  0  0  0
   -5.0664    0.7102    0.8643 C   0  0  0  0  0  0  0  0  0  0  0  0
   -6.6065   -0.9498   -0.2943 C   0  0  0  0  0  0  0  0  0  0  0  0
   -7.6175    0.1574   -0.4530 C   0  0  0  0  0  0  0  0  0  0  0  0
    0.7702    0.1428   -1.7937 H   0  0  0  0  0  0  0  0  0  0  0  0
   -0.5621   -1.3130   -0.4233 H   0  0  0  0  0  0  0  0  0  0  0  0
   -0.1143   -0.5000    1.0885 H   0  0  0  0  0  0  0  0  0  0  0  0
    2.0766   -1.2800    0.5182 H   0  0  0  0  0  0  0  0  0  0  0  0
    2.4649   -1.3509   -1.2251 H   0  0  0  0  0  0  0  0  0  0  0  0
   -2.4614    0.0734    1.5703 H   0  0  0  0  0  0  0  0  0  0  0  0
    5.1364    0.8954    0.3120 H   0  0  0  0  0  0  0  0  0  0  0  0
    0.0599    2.7494   -1.3445 H   0  0  0  0  0  0  0  0  0  0  0  0
    0.6494    3.3846    0.2022 H   0  0  0  0  0  0  0  0  0  0  0  0
   -0.8222    1.8955    1.4689 H   0  0  0  0  0  0  0  0  0  0  0  0
   -1.7479    2.7368    0.2125 H   0  0  0  0  0  0  0  0  0  0  0  0
    4.1465   -1.9201    1.0171 H   0  0  0  0  0  0  0  0  0  0  0  0
    4.3375   -0.5689    2.1270 H   0  0  0  0  0  0  0  0  0  0  0  0
    5.1806    0.1679   -2.0342 H   0  0  0  0  0  0  0  0  0  0  0  0
    4.6643   -1.4528   -1.5968 H   0  0  0  0  0  0  0  0  0  0  0  0
   -2.3205   -1.9664    0.1652 H   0  0  0  0  0  0  0  0  0  0  0  0
   -3.1230   -1.1237   -1.1723 H   0  0  0  0  0  0  0  0  0  0  0  0
   -3.5446    2.1642    0.7862 H   0  0  0  0  0  0  0  0  0  0  0  0
   -3.8795    1.4228   -0.7883 H   0  0  0  0  0  0  0  0  0  0  0  0
    6.2362   -2.1896    2.2153 H   0  0  0  0  0  0  0  0  0  0  0  0
    6.7674   -0.5705    1.7676 H   0  0  0  0  0  0  0  0  0  0  0  0
    7.2882   -0.1182   -0.8129 H   0  0  0  0  0  0  0  0  0  0  0  0
    7.0712   -1.4620   -1.9312 H   0  0  0  0  0  0  0  0  0  0  0  0
    7.8651   -2.2160    0.3177 H   0  0  0  0  0  0  0  0  0  0  0  0
    6.3160   -2.9327   -0.1203 H   0  0  0  0  0  0  0  0  0  0  0  0
   -4.6698   -2.5811    0.0535 H   0  0  0  0  0  0  0  0  0  0  0  0
   -4.2735   -1.8065    1.5898 H   0  0  0  0  0  0  0  0  0  0  0  0
   -4.9873    0.6025    1.9528 H   0  0  0  0  0  0  0  0  0  0  0  0
   -5.8517    1.4428    0.6702 H   0  0  0  0  0  0  0  0  0  0  0  0
   -7.2044    0.9615   -1.0678 H   0  0  0  0  0  0  0  0  0  0  0  0
   -7.9187    0.5380    0.5265 H   0  0  0  0  0  0  0  0  0  0  0  0
   -8.5081   -0.2324   -0.9558 H   0  0  0  0  0  0  0  0  0  0  0  0
  1 14  2  0  0  0  0
  2 24  2  0  0  0  0
  3  7  1  0  0  0  0
  3 12  1  0  0  0  0
  3 14  1  0  0  0  0
  4  8  1  0  0  0  0
  4 11  1  0  0  0  0
  4 13  1  0  0  0  0
  5  9  1  0  0  0  0
  5 10  1  0  0  0  0
  5 14  1  0  0  0  0
  6 22  1  0  0  0  0
  6 23  1  0  0  0  0
  6 24  1  0  0  0  0
  7  8  1  0  0  0  0
  7  9  1  0  0  0  0
  7 26  1  0  0  0  0
  8 27  1  0  0  0  0
  8 28  1  0  0  0  0
  9 29  1  0  0  0  0
  9 30  1  0  0  0  0
 10 15  1  0  0  0  0
 10 16  1  0  0  0  0
 10 32  1  0  0  0  0
 11 17  1  0  0  0  0
 11 18  1  0  0  0  0
 11 31  1  0  0  0  0
 12 13  1  0  0  0  0
 12 33  1  0  0  0  0
 12 34  1  0  0  0  0
 13 35  1  0  0  0  0
 13 36  1  0  0  0  0
 15 19  1  0  0  0  0
 15 37  1  0  0  0  0
 15 38  1  0  0  0  0
 16 20  1  0  0  0  0
 16 39  1  0  0  0  0
 16 40  1  0  0  0  0
 17 22  1  0  0  0  0
 17 41  1  0  0  0  0
 17 42  1  0  0  0  0
 18 23  1  0  0  0  0
 18 43  1  0  0  0  0
 18 44  1  0  0  0  0
 19 21  1  0  0  0  0
 19 45  1  0  0  0  0
 19 46  1  0  0  0  0
 20 21  1  0  0  0  0
 20 47  1  0  0  0  0
 20 48  1  0  0  0  0
 21 49  1  0  0  0  0
 21 50  1  0  0  0  0
 22 51  1  0  0  0  0
 22 52  1  0  0  0  0
 23 53  1  0  0  0  0
 23 54  1  0  0  0  0
 24 25  1  0  0  0  0
 25 55  1  0  0  0  0
 25 56  1  0  0  0  0
 25 57  1  0  0  0  0
M  END
> <PUBCHEM_COMPOUND_CID>
75537129

> <PUBCHEM_CONFORMER_RMSD>
0.8

> <PUBCHEM_CONFORMER_DIVERSEORDER>
1
96
68
75
27
66
24
55
104
35
59
45
70
95
102
93
44
65
64
63
21
86
13
22
20
88
85
46
100
32
7
58
25
71
106
37
83
19
61
80
87
48
91
69
40
53
90
28
97
14
15
12
43
31
39
78
38
51
30
72
54
2
99
62
101
84
10
56
105
57
3
47
6
9
50
76
92
79
41
8
77
82
34
107
4
23
81
52
33
67
18
5
16
89
26
103
49
98
73
60
74
17
29
94
36
11
42

> <PUBCHEM_MMFF94_PARTIAL_CHARGES>
18
1 -0.57
10 0.3
11 0.27
12 0.3
13 0.27
14 0.69
2 -0.57
22 0.3
23 0.3
24 0.57
25 0.06
3 -0.66
4 -0.81
5 -0.66
6 -0.66
7 0.3
8 0.27
9 0.3

> <PUBCHEM_EFFECTIVE_ROTOR_COUNT>
6.6

> <PUBCHEM_PHARMACOPHORE_FEATURES>
7
1 1 acceptor
1 2 acceptor
1 4 cation
5 3 5 7 9 14 rings
6 10 15 16 19 20 21 rings
6 3 4 7 8 12 13 rings
6 6 11 17 18 22 23 rings

> <PUBCHEM_HEAVY_ATOM_COUNT>
25

> <PUBCHEM_ATOM_DEF_STEREO_COUNT>
1

> <PUBCHEM_ATOM_UDEF_STEREO_COUNT>
0

> <PUBCHEM_BOND_DEF_STEREO_COUNT>
0

> <PUBCHEM_BOND_UDEF_STEREO_COUNT>
0

> <PUBCHEM_ISOTOPIC_ATOM_COUNT>
0

> <PUBCHEM_COMPONENT_COUNT>
1

> <PUBCHEM_CACTVS_TAUTO_COUNT>
1

> <PUBCHEM_CONFORMER_ID>
04809AE900000001

> <PUBCHEM_MMFF94_ENERGY>
45.6223

> <PUBCHEM_FEATURE_SELFOVERLAP>
35.618

> <PUBCHEM_SHAPE_FINGERPRINT>
10 15 12031785877255244871
106641 1 10375868603000508319
11315181 36 18272938228516260641
11456790 92 18059588992579124209
11524674 6 17275102825653396983
11719270 70 18131353003030859159
11796584 16 16660645201776783984
12166972 35 18259988197264740477
12236239 1 18201722894718664477
12293681 160 11891335340002297412
12516196 113 18272933812535610144
12592606 108 18408602587417210547
12616971 3 17775279499749566453
12760667 363 18408040697892917409
13533116 47 18338797917909910280
13685833 64 18410857663456940650
13782708 43 18333168379725928231
13862211 1 18410012130420101491
13914758 101 18334292042524476289
14117953 113 18343303648025585431
14216079 64 18411981342950470671
14251752 14 17530961354610591415
14251764 18 18412829096854523952
14461889 52 11815892383800762869
15048467 5 9223229641519736666
15183329 4 18187085044145421123
15188451 53 18130785646424569928
15348495 7 17060329760585998434
15927050 60 17909269427685859980
17492 89 18048884284182886627
17857418 61 18408322194291814435
18006028 8 18411700980306765269
18222031 100 18409736157913772896
20028762 73 18272652350623831830
21033648 29 16844430641193103432
21130935 74 18060140890928142074
21150785 3 14923948954916692475
21267235 1 18411145740141263631
21304304 249 18413671318008017342
21344244 78 17774996895782253728
21792934 111 17703787012392783329
22224240 67 15410891855853873727
22956985 138 17909838626712241982
23198884 109 15068621574424541463
23522609 53 18047506419904073460
23559900 14 18263081179534764545
3004659 81 18260830414275272028
335352 9 18408605868671621463
3383291 50 18342458175398447339
3411729 13 18198338645516493040
351380 3 18333450924360583234
397830 11 16629950135933543298
4073 2 17969788681670657960
4098825 35 16515678888801233479
4340502 62 14764633010186823092
465052 167 18411705383339262302
5104073 3 18342748454645918313
543368 44 8718829782554080507
559249 180 18410855439481474433
5718773 13 18411697703584633799
5758199 1 9079116665969048087
59682541 35 17775558750571514658
59682541 52 13984655916015939224
59755656 215 18334296439790830847
6138700 20 18408604751964481843
8863177 126 17897461685624862243

> <PUBCHEM_SHAPE_MULTIPOLES>
482.83
20.41
2.25
0.99
8.35
0.92
-0.07
-13.14
0.79
-0.44
-0.09
-1.02
-0.25
-0.84

> <PUBCHEM_SHAPE_SELFOVERLAP>
1002.499

> <PUBCHEM_SHAPE_VOLUME>
273.1

> <PUBCHEM_COORDINATE_TYPE>
2
5
10

$$$$
