75537071
  -OEChem-12032416343D

 36 38  0     1  0  0  0  0  0999 V2000
   -0.1738    2.4747    0.6819 O   0  0  0  0  0  0  0  0  0  0  0  0
   -1.7750    0.9153   -0.0418 N   0  0  0  0  0  0  0  0  0  0  0  0
    0.2741    0.8393   -0.9580 N   0  0  0  0  0  0  0  0  0  0  0  0
   -3.8421   -0.9861    0.1078 N   0  0  2  0  0  0  0  0  0  0  0  0
    3.1707   -0.8030   -1.0159 N   0  0  0  0  0  0  0  0  0  0  0  0
   -1.8760   -0.0947   -1.0744 C   0  0  1  0  0  0  0  0  0  0  0  0
   -0.4312   -0.2963   -1.5269 C   0  0  0  0  0  0  0  0  0  0  0  0
   -2.5588   -1.3479   -0.5276 C   0  0  0  0  0  0  0  0  0  0  0  0
   -2.9446    1.2420    0.7470 C   0  0  0  0  0  0  0  0  0  0  0  0
   -3.6296   -0.0414    1.2231 C   0  0  0  0  0  0  0  0  0  0  0  0
   -0.5170    1.5323   -0.0196 C   0  0  0  0  0  0  0  0  0  0  0  0
    1.6697    1.0939   -1.2391 C   0  0  0  0  0  0  0  0  0  0  0  0
   -4.5321   -2.1859    0.5810 C   0  0  0  0  0  0  0  0  0  0  0  0
    2.5767    0.2426   -0.3985 C   0  0  0  0  0  0  0  0  0  0  0  0
    2.7593    0.5602    0.9378 C   0  0  0  0  0  0  0  0  0  0  0  0
    3.6065   -0.2473    1.6886 C   0  0  0  0  0  0  0  0  0  0  0  0
    3.9871   -1.5654   -0.2542 C   0  0  0  0  0  0  0  0  0  0  0  0
    4.2360   -1.3323    1.0887 C   0  0  0  0  0  0  0  0  0  0  0  0
   -2.4683    0.3397   -1.8906 H   0  0  0  0  0  0  0  0  0  0  0  0
   -0.3383   -0.2881   -2.6170 H   0  0  0  0  0  0  0  0  0  0  0  0
    0.0115   -1.2150   -1.1286 H   0  0  0  0  0  0  0  0  0  0  0  0
   -2.7297   -2.0454   -1.3565 H   0  0  0  0  0  0  0  0  0  0  0  0
   -1.9079   -1.8525    0.1994 H   0  0  0  0  0  0  0  0  0  0  0  0
   -3.6174    1.8230    0.1059 H   0  0  0  0  0  0  0  0  0  0  0  0
   -2.6526    1.8731    1.5923 H   0  0  0  0  0  0  0  0  0  0  0  0
   -3.0164   -0.5113    2.0038 H   0  0  0  0  0  0  0  0  0  0  0  0
   -4.5906    0.2275    1.6777 H   0  0  0  0  0  0  0  0  0  0  0  0
    1.8828    2.1510   -1.0408 H   0  0  0  0  0  0  0  0  0  0  0  0
    1.8458    0.9195   -2.3065 H   0  0  0  0  0  0  0  0  0  0  0  0
   -4.7319   -2.8681   -0.2527 H   0  0  0  0  0  0  0  0  0  0  0  0
   -5.5048   -1.9248    1.0124 H   0  0  0  0  0  0  0  0  0  0  0  0
   -3.9525   -2.7263    1.3380 H   0  0  0  0  0  0  0  0  0  0  0  0
    2.2716    1.4115    1.3990 H   0  0  0  0  0  0  0  0  0  0  0  0
    3.7771   -0.0306    2.7388 H   0  0  0  0  0  0  0  0  0  0  0  0
    4.4535   -2.3989   -0.7691 H   0  0  0  0  0  0  0  0  0  0  0  0
    4.9006   -1.9751    1.6545 H   0  0  0  0  0  0  0  0  0  0  0  0
  1 11  2  0  0  0  0
  2  6  1  0  0  0  0
  2  9  1  0  0  0  0
  2 11  1  0  0  0  0
  3  7  1  0  0  0  0
  3 11  1  0  0  0  0
  3 12  1  0  0  0  0
  4  8  1  0  0  0  0
  4 10  1  0  0  0  0
  4 13  1  0  0  0  0
  5 14  1  0  0  0  0
  5 17  2  0  0  0  0
  6  7  1  0  0  0  0
  6  8  1  0  0  0  0
  6 19  1  0  0  0  0
  7 20  1  0  0  0  0
  7 21  1  0  0  0  0
  8 22  1  0  0  0  0
  8 23  1  0  0  0  0
  9 10  1  0  0  0  0
  9 24  1  0  0  0  0
  9 25  1  0  0  0  0
 10 26  1  0  0  0  0
 10 27  1  0  0  0  0
 12 14  1  0  0  0  0
 12 28  1  0  0  0  0
 12 29  1  0  0  0  0
 13 30  1  0  0  0  0
 13 31  1  0  0  0  0
 13 32  1  0  0  0  0
 14 15  2  0  0  0  0
 15 16  1  0  0  0  0
 15 33  1  0  0  0  0
 16 18  2  0  0  0  0
 16 34  1  0  0  0  0
 17 18  1  0  0  0  0
 17 35  1  0  0  0  0
 18 36  1  0  0  0  0
M  END
> <PUBCHEM_COMPOUND_CID>
75537071

> <PUBCHEM_CONFORMER_RMSD>
0.6

> <PUBCHEM_CONFORMER_DIVERSEORDER>
1
29
3
27
25
12
4
2
9
17
7
13
20
22
10
28
21
23
18
16
19
5
11
8
6
30
15
26
14
24

> <PUBCHEM_MMFF94_PARTIAL_CHARGES>
22
1 -0.57
10 0.27
11 0.69
12 0.44
13 0.27
14 0.17
15 -0.15
16 -0.15
17 0.16
18 -0.15
2 -0.66
3 -0.66
33 0.15
34 0.15
35 0.15
36 0.15
4 -0.81
5 -0.62
6 0.3
7 0.3
8 0.27
9 0.3

> <PUBCHEM_EFFECTIVE_ROTOR_COUNT>
3.2

> <PUBCHEM_PHARMACOPHORE_FEATURES>
6
1 1 acceptor
1 4 cation
1 5 acceptor
5 2 3 6 7 11 rings
6 2 4 6 8 9 10 rings
6 5 14 15 16 17 18 rings

> <PUBCHEM_HEAVY_ATOM_COUNT>
18

> <PUBCHEM_ATOM_DEF_STEREO_COUNT>
1

> <PUBCHEM_ATOM_UDEF_STEREO_COUNT>
0

> <PUBCHEM_BOND_DEF_STEREO_COUNT>
0

> <PUBCHEM_BOND_UDEF_STEREO_COUNT>
0

> <PUBCHEM_ISOTOPIC_ATOM_COUNT>
0

> <PUBCHEM_COMPONENT_COUNT>
1

> <PUBCHEM_CACTVS_TAUTO_COUNT>
1

> <PUBCHEM_CONFORMER_ID>
04809AAF00000001

> <PUBCHEM_MMFF94_ENERGY>
40.6829

> <PUBCHEM_FEATURE_SELFOVERLAP>
30.542

> <PUBCHEM_SHAPE_FINGERPRINT>
10610426 29 17967810574295102485
10618630 7 18408040702024341284
11543360 7 13190345660082779778
11578080 2 18041825290309441876
11640471 11 11671771651032727972
11769659 78 18040436607133206613
11796584 16 17895471544410247899
12173636 292 9799690377054949217
12251169 10 17346591993575043780
12346177 29 18189043231647423389
12553582 1 18200313345811448695
12633257 1 16702008803744865770
12670546 177 12468646048810805659
12824470 246 18040431096642595611
12892183 10 17775283871857286618
13296908 3 17894621544184947172
13533116 47 18190466150434449691
13675066 3 17988926639023759853
14123260 362 11239997875574423555
1420 369 18334297604027479755
14251764 38 12965477880119604603
14420673 8 17768258912185987726
14848178 5 18114454669296022571
15163728 17 9871198300930227219
15239191 94 17894914014151237298
15342168 16 13182743675411490819
15375462 189 18267868456950549412
15775835 57 10807934868718511662
15885798 251 18410013247475608325
17780758 139 18194667182469012202
1813 80 18040442074626418894
18186145 218 11963390721704604508
193927 3 18113626685120690067
19862831 5 12179838398862931836
19868273 293 8718823202173553204
200 152 16153708683243493392
20281475 54 18260553359067673069
20291156 8 18260267430157102802
20361792 2 17531245020237108908
20645477 70 17240760747889879799
20671657 53 17313099765354212036
20871999 31 12035741915691585401
21065199 12 17989484100299218226
21713013 43 14057018095532205104
21864079 5 12678879308119691698
22620623 9 16660909003332479495
22646028 28 18113053831157059978
23382010 3 11674883307293320596
23402539 116 11169912818777402398
23503958 8 18265329508935643042
235170 7 13551194376855208674
23559900 14 18058748904648394116
2748010 2 17558296274961585517
3323516 105 14779271933652726489
3472631 163 9583519815402568419
4072396 5 18130795560058454031
474 4 13183025120101884055
49207404 50 17275110521944289590
5262128 65 14201684113348642534
633830 44 12973875971253717591
76465 3 17748820825957860058
7970288 3 18186519878284982570
90316 7 18341900649539944657
960060 61 15936407870550329847

> <PUBCHEM_SHAPE_MULTIPOLES>
344.64
8.84
1.98
1.47
0.19
0.01
0.03
-5.9
3.09
-0.86
0.29
0.56
0.01
-0.28

> <PUBCHEM_SHAPE_SELFOVERLAP>
727.908

> <PUBCHEM_SHAPE_VOLUME>
194.4

> <PUBCHEM_COORDINATE_TYPE>
2
5
10

$$$$
