7049398
  -OEChem-12032416363D

 64 67  0     1  0  0  0  0  0999 V2000
   -4.8982   -1.2635    0.2216 O   0  0  0  0  0  0  0  0  0  0  0  0
   -1.8776   -0.9951    0.9638 O   0  0  0  0  0  0  0  0  0  0  0  0
    0.7190    3.2380   -1.5873 O   0  0  0  0  0  0  0  0  0  0  0  0
   -1.2740   -4.5664   -0.6931 O   0  0  0  0  0  0  0  0  0  0  0  0
   -3.5306    0.4812   -0.4624 N   0  0  0  0  0  0  0  0  0  0  0  0
   -0.8015    2.0981   -0.2526 N   0  0  0  0  0  0  0  0  0  0  0  0
   -0.7817   -1.8696   -0.8945 N   0  0  0  0  0  0  0  0  0  0  0  0
    1.2483    2.6986    0.6064 N   0  0  0  0  0  0  0  0  0  0  0  0
    3.3866    0.2404   -1.3606 N   0  0  0  0  0  0  0  0  0  0  0  0
   -0.0620   -4.6058    1.2576 N   0  0  0  0  0  0  0  0  0  0  0  0
   -5.6293    0.9090    0.7280 C   0  0  0  0  0  0  0  0  0  0  0  0
   -6.5150    0.4618    1.8536 C   0  0  0  0  0  0  0  0  0  0  0  0
   -5.3927    1.4222    2.1182 C   0  0  0  0  0  0  0  0  0  0  0  0
   -2.5852   -0.3273   -1.2160 C   0  0  1  0  0  0  0  0  0  0  0  0
   -1.8532    1.9791   -1.2308 C   0  0  2  0  0  0  0  0  0  0  0  0
   -4.6597   -0.0623    0.1361 C   0  0  0  0  0  0  0  0  0  0  0  0
   -3.2279    1.9067   -0.5746 C   0  0  0  0  0  0  0  0  0  0  0  0
   -1.7636    0.6732   -2.0264 C   0  0  0  0  0  0  0  0  0  0  0  0
   -1.7302   -1.0928   -0.2517 C   0  0  0  0  0  0  0  0  0  0  0  0
    0.1808   -2.6858   -0.1905 C   0  0  2  0  0  0  0  0  0  0  0  0
    0.4169    2.7254   -0.5105 C   0  0  0  0  0  0  0  0  0  0  0  0
    1.4755   -2.8777   -0.9904 C   0  0  0  0  0  0  0  0  0  0  0  0
    2.3984   -1.6954   -0.9100 C   0  0  0  0  0  0  0  0  0  0  0  0
   -0.4827   -4.0288    0.0779 C   0  0  0  0  0  0  0  0  0  0  0  0
    3.4213   -1.4827    0.0561 C   0  0  0  0  0  0  0  0  0  0  0  0
    2.4016   -0.6191   -1.7671 C   0  0  0  0  0  0  0  0  0  0  0  0
    2.5704    3.2790    0.6118 C   0  0  0  0  0  0  0  0  0  0  0  0
    4.0258   -0.2613   -0.2493 C   0  0  0  0  0  0  0  0  0  0  0  0
    3.8925   -2.2142    1.1644 C   0  0  0  0  0  0  0  0  0  0  0  0
    5.0821    0.2672    0.5013 C   0  0  0  0  0  0  0  0  0  0  0  0
    2.4758    4.7038    1.0459 C   0  0  0  0  0  0  0  0  0  0  0  0
    4.9483   -1.6979    1.9244 C   0  0  0  0  0  0  0  0  0  0  0  0
    5.5325   -0.4761    1.5961 C   0  0  0  0  0  0  0  0  0  0  0  0
    2.8888    5.7382    0.3046 C   0  0  0  0  0  0  0  0  0  0  0  0
   -6.0781    1.5956    0.0163 H   0  0  0  0  0  0  0  0  0  0  0  0
   -6.4140   -0.5417    2.2479 H   0  0  0  0  0  0  0  0  0  0  0  0
   -7.5264    0.8494    1.8834 H   0  0  0  0  0  0  0  0  0  0  0  0
   -5.6485    2.4542    2.3246 H   0  0  0  0  0  0  0  0  0  0  0  0
   -4.5348    1.0548    2.6681 H   0  0  0  0  0  0  0  0  0  0  0  0
   -3.1236   -1.0388   -1.8524 H   0  0  0  0  0  0  0  0  0  0  0  0
   -1.7878    2.8460   -1.8975 H   0  0  0  0  0  0  0  0  0  0  0  0
   -3.2795    2.3898    0.4056 H   0  0  0  0  0  0  0  0  0  0  0  0
   -3.9923    2.3465   -1.2252 H   0  0  0  0  0  0  0  0  0  0  0  0
   -2.2589    0.8232   -2.9947 H   0  0  0  0  0  0  0  0  0  0  0  0
   -0.7325    0.3699   -2.2291 H   0  0  0  0  0  0  0  0  0  0  0  0
   -0.9255    1.6464    0.6485 H   0  0  0  0  0  0  0  0  0  0  0  0
   -0.8083   -1.9379   -1.9081 H   0  0  0  0  0  0  0  0  0  0  0  0
    0.3933   -2.2039    0.7727 H   0  0  0  0  0  0  0  0  0  0  0  0
    1.2458   -3.0891   -2.0436 H   0  0  0  0  0  0  0  0  0  0  0  0
    2.0144   -3.7614   -0.6241 H   0  0  0  0  0  0  0  0  0  0  0  0
    0.9055    2.2680    1.4597 H   0  0  0  0  0  0  0  0  0  0  0  0
    1.7925   -0.3860   -2.6293 H   0  0  0  0  0  0  0  0  0  0  0  0
    3.0178    3.1806   -0.3826 H   0  0  0  0  0  0  0  0  0  0  0  0
    3.1769    2.7134    1.3253 H   0  0  0  0  0  0  0  0  0  0  0  0
    3.6122    1.1169   -1.8104 H   0  0  0  0  0  0  0  0  0  0  0  0
   -0.4167   -5.5103    1.5501 H   0  0  0  0  0  0  0  0  0  0  0  0
    0.6114   -4.1607    1.8730 H   0  0  0  0  0  0  0  0  0  0  0  0
    3.4472   -3.1674    1.4352 H   0  0  0  0  0  0  0  0  0  0  0  0
    5.5366    1.2188    0.2470 H   0  0  0  0  0  0  0  0  0  0  0  0
    5.3153   -2.2575    2.7807 H   0  0  0  0  0  0  0  0  0  0  0  0
    2.0597    4.9048    2.0301 H   0  0  0  0  0  0  0  0  0  0  0  0
    6.3511   -0.0936    2.2005 H   0  0  0  0  0  0  0  0  0  0  0  0
    2.8003    6.7522    0.6789 H   0  0  0  0  0  0  0  0  0  0  0  0
    3.3180    5.5943   -0.6807 H   0  0  0  0  0  0  0  0  0  0  0  0
  1 16  2  0  0  0  0
  2 19  2  0  0  0  0
  3 21  2  0  0  0  0
  4 24  2  0  0  0  0
  5 14  1  0  0  0  0
  5 16  1  0  0  0  0
  5 17  1  0  0  0  0
  6 15  1  0  0  0  0
  6 21  1  0  0  0  0
  6 46  1  0  0  0  0
  7 19  1  0  0  0  0
  7 20  1  0  0  0  0
  7 47  1  0  0  0  0
  8 21  1  0  0  0  0
  8 27  1  0  0  0  0
  8 51  1  0  0  0  0
  9 26  1  0  0  0  0
  9 28  1  0  0  0  0
  9 55  1  0  0  0  0
 10 24  1  0  0  0  0
 10 56  1  0  0  0  0
 10 57  1  0  0  0  0
 11 12  1  0  0  0  0
 11 13  1  0  0  0  0
 11 16  1  0  0  0  0
 11 35  1  0  0  0  0
 12 13  1  0  0  0  0
 12 36  1  0  0  0  0
 12 37  1  0  0  0  0
 13 38  1  0  0  0  0
 13 39  1  0  0  0  0
 14 18  1  0  0  0  0
 14 19  1  0  0  0  0
 14 40  1  0  0  0  0
 15 17  1  0  0  0  0
 15 18  1  0  0  0  0
 15 41  1  0  0  0  0
 17 42  1  0  0  0  0
 17 43  1  0  0  0  0
 18 44  1  0  0  0  0
 18 45  1  0  0  0  0
 20 22  1  0  0  0  0
 20 24  1  0  0  0  0
 20 48  1  0  0  0  0
 22 23  1  0  0  0  0
 22 49  1  0  0  0  0
 22 50  1  0  0  0  0
 23 25  1  0  0  0  0
 23 26  2  0  0  0  0
 25 28  1  0  0  0  0
 25 29  2  0  0  0  0
 26 52  1  0  0  0  0
 27 31  1  0  0  0  0
 27 53  1  0  0  0  0
 27 54  1  0  0  0  0
 28 30  2  0  0  0  0
 29 32  1  0  0  0  0
 29 58  1  0  0  0  0
 30 33  1  0  0  0  0
 30 59  1  0  0  0  0
 31 34  2  0  0  0  0
 31 61  1  0  0  0  0
 32 33  2  0  0  0  0
 32 60  1  0  0  0  0
 33 62  1  0  0  0  0
 34 63  1  0  0  0  0
 34 64  1  0  0  0  0
M  END
> <PUBCHEM_COMPOUND_CID>
7049398

> <PUBCHEM_CONFORMER_RMSD>
1.2

> <PUBCHEM_CONFORMER_DIVERSEORDER>
1
34
9
21
7
25
19
17
22
23
24
35
31
13
37
41
26
40
29
27
36
2
15
33
6
32
8
11
42
28
20
14
10
39
5
3
43
30
38
4
12
18
16

> <PUBCHEM_MMFF94_PARTIAL_CHARGES>
51
1 -0.57
10 -0.8
11 -0.1
12 -0.2
13 -0.2
14 0.36
15 0.3
16 0.63
17 0.3
19 0.57
2 -0.57
20 0.36
21 0.69
22 0.18
23 -0.18
24 0.57
26 -0.3
27 0.44
28 -0.15
29 -0.15
3 -0.57
30 -0.15
31 -0.29
32 -0.15
33 -0.15
34 -0.3
35 0.1
36 0.1
37 0.1
38 0.1
39 0.1
4 -0.57
46 0.37
47 0.37
5 -0.66
51 0.37
52 0.15
55 0.27
56 0.37
57 0.37
58 0.15
59 0.15
6 -0.73
60 0.15
61 0.15
62 0.15
63 0.15
64 0.15
7 -0.73
8 -0.73
9 0.03

> <PUBCHEM_EFFECTIVE_ROTOR_COUNT>
14.6

> <PUBCHEM_PHARMACOPHORE_FEATURES>
14
1 1 acceptor
1 10 donor
1 2 acceptor
1 3 acceptor
1 34 hydrophobe
1 4 acceptor
1 6 donor
1 7 donor
1 8 donor
1 9 cation
1 9 donor
5 5 14 15 17 18 rings
5 9 23 25 26 28 rings
6 25 28 29 30 32 33 rings

> <PUBCHEM_HEAVY_ATOM_COUNT>
34

> <PUBCHEM_ATOM_DEF_STEREO_COUNT>
3

> <PUBCHEM_ATOM_UDEF_STEREO_COUNT>
0

> <PUBCHEM_BOND_DEF_STEREO_COUNT>
0

> <PUBCHEM_BOND_UDEF_STEREO_COUNT>
0

> <PUBCHEM_ISOTOPIC_ATOM_COUNT>
0

> <PUBCHEM_COMPONENT_COUNT>
1

> <PUBCHEM_CACTVS_TAUTO_COUNT>
12

> <PUBCHEM_CONFORMER_ID>
006B90B600000001

> <PUBCHEM_MMFF94_ENERGY>
62.7027

> <PUBCHEM_FEATURE_SELFOVERLAP>
71.19

> <PUBCHEM_SHAPE_FINGERPRINT>
10006869 2 17694218864386179277
12035758 1 18409729560342684481
12422481 6 18194685865175718809
12633257 1 18412256259696398990
13140716 1 18194962083181044054
14020679 6 18115020930784975330
14725015 67 18335405864260706489
15081414 286 18272094833692600924
15840311 113 17273146696273834817
15927050 60 18053671557519586053
16112460 7 18271811250235549584
16728300 4 17460573845642443930
17349148 13 12758016546023268839
18785283 64 18411423942253285161
19319366 153 17821446872456645130
20642791 268 18059020471794675333
20764821 26 18264478667071020238
22223350 30 17750527337177443603
3680242 22 18410573951150513098
392239 28 18411130303876119879
4149490 64 18262808484478860379
469060 322 18192727647709296065
57527358 35 15792014411885699572

> <PUBCHEM_SHAPE_MULTIPOLES>
646.34
11.81
6.41
1.77
8.75
4.01
-0.2
1.22
-7.74
-5.26
-0.82
0.34
0.05
-0.37

> <PUBCHEM_SHAPE_SELFOVERLAP>
1371.554

> <PUBCHEM_SHAPE_VOLUME>
361

> <PUBCHEM_COORDINATE_TYPE>
2
5
10

$$$$
