11866028
  -OEChem-12032416153D

 52 55  0     1  0  0  0  0  0999 V2000
    6.1151    0.0165    0.3867 F   0  0  0  0  0  0  0  0  0  0  0  0
   -1.0492    3.7919   -1.7244 O   0  0  0  0  0  0  0  0  0  0  0  0
    1.6774    1.8035    2.3217 O   0  0  0  0  0  0  0  0  0  0  0  0
   -4.2065    0.6490   -1.1848 O   0  0  0  0  0  0  0  0  0  0  0  0
   -5.4606   -1.4308   -0.0236 O   0  0  0  0  0  0  0  0  0  0  0  0
   -7.5123   -4.3339    0.4442 O   0  0  0  0  0  0  0  0  0  0  0  0
   -7.1347   -3.0698   -1.4125 O   0  0  0  0  0  0  0  0  0  0  0  0
   -0.1859    2.2188    1.0392 N   0  0  0  0  0  0  0  0  0  0  0  0
   -3.1583    1.2516    0.8023 N   0  0  0  0  0  0  0  0  0  0  0  0
    0.8097    2.4759   -1.7173 N   0  0  0  0  0  0  0  0  0  0  0  0
   -2.4246    2.3889    0.2959 C   0  0  2  0  0  0  0  0  0  0  0  0
   -1.0082    1.9814   -0.1327 C   0  0  1  0  0  0  0  0  0  0  0  0
   -2.1802    3.4241    1.3957 C   0  0  0  0  0  0  0  0  0  0  0  0
   -0.9227    2.9160    2.0833 C   0  0  0  0  0  0  0  0  0  0  0  0
   -0.4221    2.8552   -1.2262 C   0  0  0  0  0  0  0  0  0  0  0  0
    1.0799    1.7151    1.2491 C   0  0  0  0  0  0  0  0  0  0  0  0
    1.7670    1.0518    0.1104 C   0  0  0  0  0  0  0  0  0  0  0  0
    1.6864    1.4853   -1.2239 C   0  0  0  0  0  0  0  0  0  0  0  0
   -3.9912    0.4755    0.0117 C   0  0  0  0  0  0  0  0  0  0  0  0
    2.6763    0.0346    0.4532 C   0  0  0  0  0  0  0  0  0  0  0  0
    2.5678    0.9333   -2.1701 C   0  0  0  0  0  0  0  0  0  0  0  0
    3.5093   -0.5343   -0.5090 C   0  0  0  0  0  0  0  0  0  0  0  0
   -4.6281   -0.6463    0.8038 C   0  0  0  0  0  0  0  0  0  0  0  0
    3.4641   -0.0758   -1.8192 C   0  0  0  0  0  0  0  0  0  0  0  0
    4.4351   -1.5828   -0.1393 C   0  0  0  0  0  0  0  0  0  0  0  0
    5.7202   -1.2620    0.2982 C   0  0  0  0  0  0  0  0  0  0  0  0
    4.0404   -2.9179   -0.2247 C   0  0  0  0  0  0  0  0  0  0  0  0
   -6.0742   -2.4958    0.6968 C   0  0  0  0  0  0  0  0  0  0  0  0
    6.6105   -2.2764    0.6502 C   0  0  0  0  0  0  0  0  0  0  0  0
    4.9309   -3.9323    0.1274 C   0  0  0  0  0  0  0  0  0  0  0  0
    6.2159   -3.6116    0.5648 C   0  0  0  0  0  0  0  0  0  0  0  0
   -6.9475   -3.2985   -0.2269 C   0  0  0  0  0  0  0  0  0  0  0  0
   -3.0069    2.8215   -0.5246 H   0  0  0  0  0  0  0  0  0  0  0  0
   -0.9532    0.9308   -0.4416 H   0  0  0  0  0  0  0  0  0  0  0  0
   -1.9767    4.4018    0.9423 H   0  0  0  0  0  0  0  0  0  0  0  0
   -3.0166    3.5397    2.0918 H   0  0  0  0  0  0  0  0  0  0  0  0
   -1.1556    2.1925    2.8725 H   0  0  0  0  0  0  0  0  0  0  0  0
   -0.3135    3.7172    2.5126 H   0  0  0  0  0  0  0  0  0  0  0  0
   -3.0154    0.9830    1.7720 H   0  0  0  0  0  0  0  0  0  0  0  0
    1.0820    2.9121   -2.5951 H   0  0  0  0  0  0  0  0  0  0  0  0
    2.7461   -0.3084    1.4848 H   0  0  0  0  0  0  0  0  0  0  0  0
    2.5452    1.2686   -3.2055 H   0  0  0  0  0  0  0  0  0  0  0  0
   -5.2172   -0.2053    1.6163 H   0  0  0  0  0  0  0  0  0  0  0  0
   -3.8305   -1.2680    1.2273 H   0  0  0  0  0  0  0  0  0  0  0  0
    4.1162   -0.4928   -2.5830 H   0  0  0  0  0  0  0  0  0  0  0  0
    3.0426   -3.1858   -0.5641 H   0  0  0  0  0  0  0  0  0  0  0  0
   -6.6974   -2.0845    1.4978 H   0  0  0  0  0  0  0  0  0  0  0  0
   -5.2993   -3.1531    1.1053 H   0  0  0  0  0  0  0  0  0  0  0  0
    7.6110   -2.0265    0.9910 H   0  0  0  0  0  0  0  0  0  0  0  0
    4.6237   -4.9719    0.0608 H   0  0  0  0  0  0  0  0  0  0  0  0
    6.9092   -4.4014    0.8390 H   0  0  0  0  0  0  0  0  0  0  0  0
   -8.0883   -4.8757   -0.1363 H   0  0  0  0  0  0  0  0  0  0  0  0
  1 26  1  0  0  0  0
  2 15  2  0  0  0  0
  3 16  2  0  0  0  0
  4 19  2  0  0  0  0
  5 23  1  0  0  0  0
  5 28  1  0  0  0  0
  6 32  1  0  0  0  0
  6 52  1  0  0  0  0
  7 32  2  0  0  0  0
  8 12  1  0  0  0  0
  8 14  1  0  0  0  0
  8 16  1  0  0  0  0
  9 11  1  0  0  0  0
  9 19  1  0  0  0  0
  9 39  1  0  0  0  0
 10 15  1  0  0  0  0
 10 18  1  0  0  0  0
 10 40  1  0  0  0  0
 11 12  1  0  0  0  0
 11 13  1  0  0  0  0
 11 33  1  0  0  0  0
 12 15  1  0  0  0  0
 12 34  1  0  0  0  0
 13 14  1  0  0  0  0
 13 35  1  0  0  0  0
 13 36  1  0  0  0  0
 14 37  1  0  0  0  0
 14 38  1  0  0  0  0
 16 17  1  0  0  0  0
 17 18  2  0  0  0  0
 17 20  1  0  0  0  0
 18 21  1  0  0  0  0
 19 23  1  0  0  0  0
 20 22  2  0  0  0  0
 20 41  1  0  0  0  0
 21 24  2  0  0  0  0
 21 42  1  0  0  0  0
 22 24  1  0  0  0  0
 22 25  1  0  0  0  0
 23 43  1  0  0  0  0
 23 44  1  0  0  0  0
 24 45  1  0  0  0  0
 25 26  1  0  0  0  0
 25 27  2  0  0  0  0
 26 29  2  0  0  0  0
 27 30  1  0  0  0  0
 27 46  1  0  0  0  0
 28 32  1  0  0  0  0
 28 47  1  0  0  0  0
 28 48  1  0  0  0  0
 29 31  1  0  0  0  0
 29 49  1  0  0  0  0
 30 31  2  0  0  0  0
 30 50  1  0  0  0  0
 31 51  1  0  0  0  0
M  END
> <PUBCHEM_COMPOUND_CID>
11866028

> <PUBCHEM_CONFORMER_RMSD>
1

> <PUBCHEM_CONFORMER_DIVERSEORDER>
1
29
35
9
44
22
13
3
30
38
14
28
34
8
5
49
20
4
48
19
40
31
26
7
6
41
16
21
32
37
15
11
36
2
33
45
24
10
43
17
39
27
25
18
47
23
46
12
42

> <PUBCHEM_MMFF94_PARTIAL_CHARGES>
39
1 -0.19
10 -0.55
11 0.3
12 0.36
14 0.3
15 0.57
16 0.54
17 0.09
18 0.12
19 0.57
2 -0.57
20 -0.15
21 -0.15
23 0.34
24 -0.15
26 0.19
27 -0.15
28 0.34
29 -0.15
3 -0.57
30 -0.15
31 -0.15
32 0.66
39 0.37
4 -0.57
40 0.37
41 0.15
42 0.15
45 0.15
46 0.15
49 0.15
5 -0.56
50 0.15
51 0.15
52 0.5
6 -0.65
7 -0.57
8 -0.66
9 -0.73

> <PUBCHEM_EFFECTIVE_ROTOR_COUNT>
7.8

> <PUBCHEM_PHARMACOPHORE_FEATURES>
13
1 10 donor
1 2 acceptor
1 3 acceptor
1 4 acceptor
1 5 acceptor
1 6 acceptor
1 7 acceptor
1 9 donor
3 6 7 32 anion
5 8 11 12 13 14 rings
6 17 18 20 21 22 24 rings
6 25 26 27 29 30 31 rings
7 8 10 12 15 16 17 18 rings

> <PUBCHEM_HEAVY_ATOM_COUNT>
32

> <PUBCHEM_ATOM_DEF_STEREO_COUNT>
2

> <PUBCHEM_ATOM_UDEF_STEREO_COUNT>
0

> <PUBCHEM_BOND_DEF_STEREO_COUNT>
0

> <PUBCHEM_BOND_UDEF_STEREO_COUNT>
0

> <PUBCHEM_ISOTOPIC_ATOM_COUNT>
0

> <PUBCHEM_COMPONENT_COUNT>
1

> <PUBCHEM_CACTVS_TAUTO_COUNT>
6

> <PUBCHEM_CONFORMER_ID>
00B50FAC00000001

> <PUBCHEM_MMFF94_ENERGY>
97.1199

> <PUBCHEM_FEATURE_SELFOVERLAP>
66.101

> <PUBCHEM_SHAPE_FINGERPRINT>
10319688 140 18120658191341000149
10622 236 18334579023174799135
11497681 19 18410297974354700030
11607047 403 18195521726395217696
117089 54 18336272322864450723
11796584 16 18050567344447860296
12104220 4 11311770717702799442
12390115 104 12822136782990029428
12633257 1 16559026116893172325
131258 38 17978779435617636975
1361 4 18339644439095598290
13782708 43 18192428577074480394
14344974 204 18266459815659396550
14848178 5 18337110064423607812
15510800 12 18339344345487932755
15803439 3 16812049907770385093
19315092 285 17988932214181422219
19319366 153 17835809964279852813
20775438 99 17824548710078808507
20843269 155 18411140207907381978
21756936 100 10447341217296290596
21792965 106 9004189325600101070
21796203 349 16486963004296620706
23523788 1 18123723573417906656
23569914 2 10710481206227716846
25025965 108 16954211298418487602
2748736 6 8574438582637026779
439807 62 18408606981137027951
4408954 87 18059278972913406958
5718773 13 18411416233056001195
6058803 2 18193024601886187877
6201460 15 18191020093394137203
636775 72 9510016351106476734
6431902 208 18341889641269570727
66674814 147 17895202056333865442
7970288 3 18409169943738032711

> <PUBCHEM_SHAPE_MULTIPOLES>
601.11
17.75
5.82
1.74
12.48
3.71
-0.21
32.43
0.86
6.43
0.39
-0.12
-1.6
-1.73

> <PUBCHEM_SHAPE_SELFOVERLAP>
1310.997

> <PUBCHEM_SHAPE_VOLUME>
324.9

> <PUBCHEM_COORDINATE_TYPE>
2
5
10

$$$$
