7051670
  -OEChem-12032416223D

 62 67  0     1  0  0  0  0  0999 V2000
   -1.4651    2.5328   -1.4376 O   0  0  0  0  0  0  0  0  0  0  0  0
   -3.0203   -1.1931    1.2457 O   0  0  0  0  0  0  0  0  0  0  0  0
    3.3079    1.2491   -0.6012 N   0  0  2  0  0  0  0  0  0  0  0  0
    0.4005    2.4359   -0.0344 N   0  0  0  0  0  0  0  0  0  0  0  0
    4.1825   -3.1305    0.1362 N   0  0  0  0  0  0  0  0  0  0  0  0
   -2.9476    0.8680    0.1699 N   0  0  0  0  0  0  0  0  0  0  0  0
    2.5959    3.6525   -0.5510 C   0  0  1  0  0  0  0  0  0  0  0  0
    2.4072    2.2978    1.4803 C   0  0  2  0  0  0  0  0  0  0  0  0
    2.7589    3.6898    0.9627 C   0  0  0  0  0  0  0  0  0  0  0  0
    3.5350    2.5886   -1.1578 C   0  0  0  0  0  0  0  0  0  0  0  0
    3.3746    1.2593    0.8679 C   0  0  0  0  0  0  0  0  0  0  0  0
    1.1201    3.3948   -0.8842 C   0  0  0  0  0  0  0  0  0  0  0  0
    0.9692    1.9463    1.1458 C   0  0  0  0  0  0  0  0  0  0  0  0
    4.2494    0.2825   -1.1608 C   0  0  0  0  0  0  0  0  0  0  0  0
    0.2540    1.1566    1.9641 C   0  0  0  0  0  0  0  0  0  0  0  0
   -0.9174    2.1141   -0.4167 C   0  0  0  0  0  0  0  0  0  0  0  0
    3.9376   -1.1034   -0.6680 C   0  0  0  0  0  0  0  0  0  0  0  0
   -1.6730    1.2130    0.5104 C   0  0  0  0  0  0  0  0  0  0  0  0
   -1.0931    0.7830    1.6361 C   0  0  0  0  0  0  0  0  0  0  0  0
    2.6557   -1.6805   -0.6012 C   0  0  0  0  0  0  0  0  0  0  0  0
    4.8608   -1.9948   -0.2164 C   0  0  0  0  0  0  0  0  0  0  0  0
    2.8340   -2.9671   -0.0881 C   0  0  0  0  0  0  0  0  0  0  0  0
    1.3519   -1.2527   -0.9213 C   0  0  0  0  0  0  0  0  0  0  0  0
    1.7693   -3.8507    0.1220 C   0  0  0  0  0  0  0  0  0  0  0  0
    4.8080   -4.3222    0.6684 C   0  0  0  0  0  0  0  0  0  0  0  0
    0.2773   -2.1259   -0.7165 C   0  0  0  0  0  0  0  0  0  0  0  0
   -3.5485   -0.3211    0.5601 C   0  0  0  0  0  0  0  0  0  0  0  0
    0.4851   -3.4045   -0.2028 C   0  0  0  0  0  0  0  0  0  0  0  0
   -4.9525   -0.5112    0.1114 C   0  0  0  0  0  0  0  0  0  0  0  0
   -5.7883   -1.3122    0.8611 C   0  0  0  0  0  0  0  0  0  0  0  0
   -5.3740    0.1195   -1.0404 C   0  0  0  0  0  0  0  0  0  0  0  0
   -7.1059   -1.4907    0.4396 C   0  0  0  0  0  0  0  0  0  0  0  0
   -6.6916   -0.0589   -1.4617 C   0  0  0  0  0  0  0  0  0  0  0  0
   -7.5576   -0.8641   -0.7218 C   0  0  0  0  0  0  0  0  0  0  0  0
    2.8802    4.6239   -0.9745 H   0  0  0  0  0  0  0  0  0  0  0  0
    2.5438    2.2964    2.5698 H   0  0  0  0  0  0  0  0  0  0  0  0
    3.7896    3.9510    1.2319 H   0  0  0  0  0  0  0  0  0  0  0  0
    2.1066    4.4519    1.4071 H   0  0  0  0  0  0  0  0  0  0  0  0
    4.5749    2.8997   -0.9883 H   0  0  0  0  0  0  0  0  0  0  0  0
    3.3821    2.5641   -2.2439 H   0  0  0  0  0  0  0  0  0  0  0  0
    4.3966    1.4919    1.1992 H   0  0  0  0  0  0  0  0  0  0  0  0
    3.1212    0.2853    1.3007 H   0  0  0  0  0  0  0  0  0  0  0  0
    0.5706    4.3416   -0.7907 H   0  0  0  0  0  0  0  0  0  0  0  0
    1.0091    3.0849   -1.9310 H   0  0  0  0  0  0  0  0  0  0  0  0
    4.1687    0.2708   -2.2556 H   0  0  0  0  0  0  0  0  0  0  0  0
    5.2855    0.5495   -0.9139 H   0  0  0  0  0  0  0  0  0  0  0  0
    0.6750    0.7608    2.8824 H   0  0  0  0  0  0  0  0  0  0  0  0
   -1.5903    0.1793    2.3854 H   0  0  0  0  0  0  0  0  0  0  0  0
    5.9356   -1.9262   -0.1132 H   0  0  0  0  0  0  0  0  0  0  0  0
   -3.3881    1.4706   -0.5166 H   0  0  0  0  0  0  0  0  0  0  0  0
    1.1630   -0.2697   -1.3408 H   0  0  0  0  0  0  0  0  0  0  0  0
    1.9243   -4.8473    0.5214 H   0  0  0  0  0  0  0  0  0  0  0  0
    4.3948   -4.5140    1.6619 H   0  0  0  0  0  0  0  0  0  0  0  0
    5.8879   -4.1696    0.7399 H   0  0  0  0  0  0  0  0  0  0  0  0
    4.5957   -5.1542   -0.0078 H   0  0  0  0  0  0  0  0  0  0  0  0
   -0.7300   -1.8030   -0.9659 H   0  0  0  0  0  0  0  0  0  0  0  0
   -0.3642   -4.0662   -0.0525 H   0  0  0  0  0  0  0  0  0  0  0  0
   -5.4540   -1.8028    1.7703 H   0  0  0  0  0  0  0  0  0  0  0  0
   -4.7295    0.7182   -1.6739 H   0  0  0  0  0  0  0  0  0  0  0  0
   -7.7806   -2.1170    1.0161 H   0  0  0  0  0  0  0  0  0  0  0  0
   -7.0413    0.4206   -2.3715 H   0  0  0  0  0  0  0  0  0  0  0  0
   -8.5829   -1.0047   -1.0511 H   0  0  0  0  0  0  0  0  0  0  0  0
  1 16  2  0  0  0  0
  2 27  2  0  0  0  0
  3 10  1  0  0  0  0
  3 11  1  0  0  0  0
  3 14  1  0  0  0  0
  4 12  1  0  0  0  0
  4 13  1  0  0  0  0
  4 16  1  0  0  0  0
  5 21  1  0  0  0  0
  5 22  1  0  0  0  0
  5 25  1  0  0  0  0
  6 18  1  0  0  0  0
  6 27  1  0  0  0  0
  6 50  1  0  0  0  0
  7  9  1  0  0  0  0
  7 10  1  0  0  0  0
  7 12  1  0  0  0  0
  7 35  1  0  0  0  0
  8  9  1  0  0  0  0
  8 11  1  0  0  0  0
  8 13  1  0  0  0  0
  8 36  1  0  0  0  0
  9 37  1  0  0  0  0
  9 38  1  0  0  0  0
 10 39  1  0  0  0  0
 10 40  1  0  0  0  0
 11 41  1  0  0  0  0
 11 42  1  0  0  0  0
 12 43  1  0  0  0  0
 12 44  1  0  0  0  0
 13 15  2  0  0  0  0
 14 17  1  0  0  0  0
 14 45  1  0  0  0  0
 14 46  1  0  0  0  0
 15 19  1  0  0  0  0
 15 47  1  0  0  0  0
 16 18  1  0  0  0  0
 17 20  1  0  0  0  0
 17 21  2  0  0  0  0
 18 19  2  0  0  0  0
 19 48  1  0  0  0  0
 20 22  1  0  0  0  0
 20 23  2  0  0  0  0
 21 49  1  0  0  0  0
 22 24  2  0  0  0  0
 23 26  1  0  0  0  0
 23 51  1  0  0  0  0
 24 28  1  0  0  0  0
 24 52  1  0  0  0  0
 25 53  1  0  0  0  0
 25 54  1  0  0  0  0
 25 55  1  0  0  0  0
 26 28  2  0  0  0  0
 26 56  1  0  0  0  0
 27 29  1  0  0  0  0
 28 57  1  0  0  0  0
 29 30  2  0  0  0  0
 29 31  1  0  0  0  0
 30 32  1  0  0  0  0
 30 58  1  0  0  0  0
 31 33  2  0  0  0  0
 31 59  1  0  0  0  0
 32 34  2  0  0  0  0
 32 60  1  0  0  0  0
 33 34  1  0  0  0  0
 33 61  1  0  0  0  0
 34 62  1  0  0  0  0
M  END
> <PUBCHEM_COMPOUND_CID>
7051670

> <PUBCHEM_CONFORMER_RMSD>
0.8

> <PUBCHEM_CONFORMER_DIVERSEORDER>
1
29
16
9
24
13
25
22
8
2
28
6
26
27
30
21
10
5
11
23
12
20
3
18
4
17
7
14
15
19

> <PUBCHEM_MMFF94_PARTIAL_CHARGES>
44
1 -0.57
10 0.27
11 0.27
12 0.3
13 -0.03
14 0.45
15 -0.15
16 0.62
17 -0.18
18 0.12
19 -0.15
2 -0.57
21 -0.3
22 -0.15
23 -0.15
24 -0.15
25 0.26
26 -0.15
27 0.54
28 -0.15
29 0.09
3 -0.81
30 -0.15
31 -0.15
32 -0.15
33 -0.15
34 -0.15
4 -0.47
47 0.15
48 0.15
49 0.15
5 0.05
50 0.37
51 0.15
52 0.15
56 0.15
57 0.15
58 0.15
59 0.15
6 -0.54
60 0.15
61 0.15
62 0.15
8 0.14

> <PUBCHEM_EFFECTIVE_ROTOR_COUNT>
6

> <PUBCHEM_PHARMACOPHORE_FEATURES>
11
1 1 acceptor
1 2 acceptor
1 3 cation
1 5 cation
1 6 donor
5 5 17 20 21 22 rings
6 20 22 23 24 26 28 rings
6 29 30 31 32 33 34 rings
6 3 7 8 9 10 11 rings
6 4 13 15 16 18 19 rings
6 4 7 8 9 12 13 rings

> <PUBCHEM_HEAVY_ATOM_COUNT>
34

> <PUBCHEM_ATOM_DEF_STEREO_COUNT>
2

> <PUBCHEM_ATOM_UDEF_STEREO_COUNT>
0

> <PUBCHEM_BOND_DEF_STEREO_COUNT>
0

> <PUBCHEM_BOND_UDEF_STEREO_COUNT>
0

> <PUBCHEM_ISOTOPIC_ATOM_COUNT>
0

> <PUBCHEM_COMPONENT_COUNT>
1

> <PUBCHEM_CACTVS_TAUTO_COUNT>
2

> <PUBCHEM_CONFORMER_ID>
006B999600000001

> <PUBCHEM_MMFF94_ENERGY>
93.9229

> <PUBCHEM_FEATURE_SELFOVERLAP>
57.466

> <PUBCHEM_SHAPE_FINGERPRINT>
10675989 125 18057888145863209697
11204353 107 18266186212861880155
11828532 37 17095813225796956067
11963148 33 18053095414060556399
11973864 48 18114743855131992695
12166972 35 18188216390118592822
12522641 33 18267861864244802432
12645989 146 18198348359852074838
12717326 68 17685759243360907138
13533116 47 18201722898802927705
1361 2 18265336281824963221
14068700 675 18130223744422206410
14931854 50 18269293342979953156
15001296 14 17846212332415977463
15927050 60 18055351607039716446
17138139 8 17343494798179011805
17492 54 18263664973027530028
17909252 39 18408885127076390177
19315092 285 18060700580679308209
19319366 153 18200870811107405036
20771845 171 18041846237122426149
20775438 99 18264756843592845859
20775530 9 18120674434885935562
21033650 10 16588585284910979021
21133410 171 17174583110109902563
21703447 108 18202560700345389720
23559900 14 18334574646977359083
23569914 152 17759772903349295829
27425 322 16952811924145674185
3298306 158 18196655314055629891
3380486 145 17833290630831791784
345986 75 17632581522026993209
3882209 13 17467887711249611499
397830 11 10087634945256892829
4015057 19 18335991895869491627
439807 62 18410013196431937943
46194498 28 18040712610427590917
463206 1 18058728138760962231
469060 322 18125171428690438674
484989 97 18266475371592514438
513532 50 17603581971342363596
5265222 85 17616542095520227181
5309563 4 18340207371636431100
5951187 136 15575003909064225790
6086070 43 16917348126760987185
6669772 16 18269831089743664016

> <PUBCHEM_SHAPE_MULTIPOLES>
668.04
14.16
5.41
1.42
31.77
1.34
0.22
8.48
-2.6
-9.32
0.11
0.23
-0.7
0.2

> <PUBCHEM_SHAPE_SELFOVERLAP>
1490.802

> <PUBCHEM_SHAPE_VOLUME>
348.7

> <PUBCHEM_COORDINATE_TYPE>
2
5
10

$$$$
