75367733
  -OEChem-12032416403D

 35 36  0     1  0  0  0  0  0999 V2000
   -4.2776    2.1855   -0.3542 Cl  0  0  0  0  0  0  0  0  0  0  0  0
    3.8134   -0.9913    0.5109 O   0  0  0  0  0  0  0  0  0  0  0  0
    2.3909    2.3117    0.6633 O   0  0  0  0  0  0  0  0  0  0  0  0
    0.8632   -0.8881   -0.4950 N   0  0  2  0  0  0  0  0  0  0  0  0
    1.1008    0.5510   -0.3381 C   0  0  0  0  0  0  0  0  0  0  0  0
    2.5021    1.0024    0.1035 C   0  0  2  0  0  0  0  0  0  0  0  0
    1.9997   -1.6317   -1.0407 C   0  0  0  0  0  0  0  0  0  0  0  0
   -0.3515   -1.1147   -1.2790 C   0  0  0  0  0  0  0  0  0  0  0  0
    3.1538    0.1006    1.1431 C   0  0  0  0  0  0  0  0  0  0  0  0
    2.9486   -2.0364    0.0881 C   0  0  0  0  0  0  0  0  0  0  0  0
   -1.5938   -0.7772   -0.4981 C   0  0  0  0  0  0  0  0  0  0  0  0
   -2.2802    0.4090   -0.7578 C   0  0  0  0  0  0  0  0  0  0  0  0
   -2.0587   -1.6514    0.4846 C   0  0  0  0  0  0  0  0  0  0  0  0
    2.3279    3.3017   -0.3509 C   0  0  0  0  0  0  0  0  0  0  0  0
   -3.4317    0.7211   -0.0349 C   0  0  0  0  0  0  0  0  0  0  0  0
   -3.2101   -1.3392    1.2075 C   0  0  0  0  0  0  0  0  0  0  0  0
   -3.8967   -0.1530    0.9477 C   0  0  0  0  0  0  0  0  0  0  0  0
    0.3780    0.9448    0.3885 H   0  0  0  0  0  0  0  0  0  0  0  0
    0.8846    1.0676   -1.2832 H   0  0  0  0  0  0  0  0  0  0  0  0
    3.1641    1.0301   -0.7735 H   0  0  0  0  0  0  0  0  0  0  0  0
    2.5144   -1.0685   -1.8281 H   0  0  0  0  0  0  0  0  0  0  0  0
    1.6542   -2.5698   -1.4930 H   0  0  0  0  0  0  0  0  0  0  0  0
   -0.4451   -2.1759   -1.5496 H   0  0  0  0  0  0  0  0  0  0  0  0
   -0.3258   -0.5791   -2.2377 H   0  0  0  0  0  0  0  0  0  0  0  0
    3.9267    0.6623    1.6804 H   0  0  0  0  0  0  0  0  0  0  0  0
    2.4446   -0.2488    1.9033 H   0  0  0  0  0  0  0  0  0  0  0  0
    3.5986   -2.8381   -0.2805 H   0  0  0  0  0  0  0  0  0  0  0  0
    2.4090   -2.4476    0.9505 H   0  0  0  0  0  0  0  0  0  0  0  0
   -1.9167    1.0905   -1.5236 H   0  0  0  0  0  0  0  0  0  0  0  0
   -1.5326   -2.5785    0.6965 H   0  0  0  0  0  0  0  0  0  0  0  0
    2.3122    4.2814    0.1353 H   0  0  0  0  0  0  0  0  0  0  0  0
    1.4150    3.2098   -0.9453 H   0  0  0  0  0  0  0  0  0  0  0  0
    3.2101    3.2595   -0.9975 H   0  0  0  0  0  0  0  0  0  0  0  0
   -3.5719   -2.0196    1.9728 H   0  0  0  0  0  0  0  0  0  0  0  0
   -4.7923    0.0772    1.5190 H   0  0  0  0  0  0  0  0  0  0  0  0
  1 15  1  0  0  0  0
  2  9  1  0  0  0  0
  2 10  1  0  0  0  0
  3  6  1  0  0  0  0
  3 14  1  0  0  0  0
  4  5  1  0  0  0  0
  4  7  1  0  0  0  0
  4  8  1  0  0  0  0
  5  6  1  0  0  0  0
  5 18  1  0  0  0  0
  5 19  1  0  0  0  0
  6  9  1  0  0  0  0
  6 20  1  0  0  0  0
  7 10  1  0  0  0  0
  7 21  1  0  0  0  0
  7 22  1  0  0  0  0
  8 11  1  0  0  0  0
  8 23  1  0  0  0  0
  8 24  1  0  0  0  0
  9 25  1  0  0  0  0
  9 26  1  0  0  0  0
 10 27  1  0  0  0  0
 10 28  1  0  0  0  0
 11 12  2  0  0  0  0
 11 13  1  0  0  0  0
 12 15  1  0  0  0  0
 12 29  1  0  0  0  0
 13 16  2  0  0  0  0
 13 30  1  0  0  0  0
 14 31  1  0  0  0  0
 14 32  1  0  0  0  0
 14 33  1  0  0  0  0
 15 17  2  0  0  0  0
 16 17  1  0  0  0  0
 16 34  1  0  0  0  0
 17 35  1  0  0  0  0
M  END
> <PUBCHEM_COMPOUND_CID>
75367733

> <PUBCHEM_CONFORMER_RMSD>
0.6

> <PUBCHEM_CONFORMER_DIVERSEORDER>
1
120
95
96
12
65
87
10
60
91
84
41
42
49
57
122
123
94
115
72
99
43
34
78
108
74
112
28
92
102
97
88
14
77
56
70
105
124
19
39
107
81
46
22
44
86
90
29
100
93
127
47
17
121
6
73
38
67
118
117
45
61
32
64
59
76
58
111
30
25
69
8
125
83
54
13
79
110
52
48
24
114
68
23
18
113
63
35
20
16
126
119
33
4
104
2
62
101
116
85
36
53
82
106
3
50
66
55
15
103
89
5
9
37
21
71
98
31
7
109
11
40
27
51
80
75
26

> <PUBCHEM_MMFF94_PARTIAL_CHARGES>
21
1 -0.18
10 0.28
11 -0.14
12 -0.15
13 -0.15
14 0.28
15 0.18
16 -0.15
17 -0.15
2 -0.56
29 0.15
3 -0.56
30 0.15
34 0.15
35 0.15
4 -0.81
5 0.27
6 0.28
7 0.27
8 0.41
9 0.28

> <PUBCHEM_EFFECTIVE_ROTOR_COUNT>
4.4

> <PUBCHEM_PHARMACOPHORE_FEATURES>
5
1 2 acceptor
1 3 acceptor
1 4 cation
6 11 12 13 15 16 17 rings
7 2 4 5 6 7 9 10 rings

> <PUBCHEM_HEAVY_ATOM_COUNT>
17

> <PUBCHEM_ATOM_DEF_STEREO_COUNT>
1

> <PUBCHEM_ATOM_UDEF_STEREO_COUNT>
0

> <PUBCHEM_BOND_DEF_STEREO_COUNT>
0

> <PUBCHEM_BOND_UDEF_STEREO_COUNT>
0

> <PUBCHEM_ISOTOPIC_ATOM_COUNT>
0

> <PUBCHEM_COMPONENT_COUNT>
1

> <PUBCHEM_CACTVS_TAUTO_COUNT>
1

> <PUBCHEM_CONFORMER_ID>
047E053500000001

> <PUBCHEM_MMFF94_ENERGY>
51.5197

> <PUBCHEM_FEATURE_SELFOVERLAP>
25.372

> <PUBCHEM_SHAPE_FINGERPRINT>
10366900 7 18189623919678548987
10608611 8 18410013243212237645
11640471 11 16988553615316913047
12077114 3 18411134706407235951
12251169 10 18411135852784001207
12403260 363 18341323427805136079
12507557 5 18342175535972824745
12507560 40 18408605868191527739
12633257 1 18114165415869314120
13583140 156 18334011666722153571
13922767 16 18341610356804932079
14026960 21 18339928237379817543
14223421 5 18263086689613678363
14251764 38 18412260602368017997
14289901 80 18338516464413161395
14790565 3 18192713578151392596
14866123 147 16392119886466631635
15003188 100 18264473006964274213
15238133 3 18262523568077869164
15295992 7 18336554802926032457
15653759 3 18187368709713617059
15806764 133 18126312807653803263
1601671 61 18412829080028154300
17804303 29 18187937118581177191
18186145 218 17846509105739349999
19049666 15 18118683206147959551
20361792 2 14634868682226232247
20681677 76 18409445916840025151
21065198 57 18408324380414519251
21065199 12 18334579070313671803
21475661 188 18265046921694732589
21524375 3 17769376359459060588
22169311 14 18259704471608647531
23559900 14 18337956692587865431
2637199 183 18049457121346039948
2748010 2 17984415235936652542
351380 180 18339355267631866973
474 4 18271523083836603413
49207404 50 18263933313403535915
7097593 13 18261099760449306250
7615 1 17916288614557935110
81228 2 17623023291558525582
9709674 26 18410856564362336655

> <PUBCHEM_SHAPE_MULTIPOLES>
335
7.95
2.84
1.13
3.09
2.22
-0.02
1.63
-1.93
-1.54
0.13
0.11
-0.29
0.85

> <PUBCHEM_SHAPE_SELFOVERLAP>
677.368

> <PUBCHEM_SHAPE_VOLUME>
195.6

> <PUBCHEM_COORDINATE_TYPE>
2
5
10

$$$$
