11941407
  -OEChem-12032416363D

 53 56  0     1  0  0  0  0  0999 V2000
   -6.6149    3.5615    0.6670 S   0  0  0  0  0  0  0  0  0  0  0  0
    7.9206    2.3005    0.3697 S   0  0  0  0  0  0  0  0  0  0  0  0
   -3.1681   -3.2514    0.3109 O   0  0  0  0  0  0  0  0  0  0  0  0
   -0.1705    0.0393   -2.5078 O   0  0  0  0  0  0  0  0  0  0  0  0
   -6.3840    0.5098    1.2179 O   0  0  0  0  0  0  0  0  0  0  0  0
   -1.9271   -0.5747   -1.1563 N   0  0  0  0  0  0  0  0  0  0  0  0
   -4.1677    0.7759    0.5708 N   0  0  0  0  0  0  0  0  0  0  0  0
   -0.9307   -2.8428    0.4306 N   0  0  0  0  0  0  0  0  0  0  0  0
   -3.9575   -0.5581    0.0564 C   0  0  2  0  0  0  0  0  0  0  0  0
   -2.4751   -0.9488    0.1342 C   0  0  1  0  0  0  0  0  0  0  0  0
   -4.2667   -0.6292   -1.4403 C   0  0  0  0  0  0  0  0  0  0  0  0
   -2.9696   -0.1721   -2.0892 C   0  0  0  0  0  0  0  0  0  0  0  0
   -2.2396   -2.4427    0.2600 C   0  0  0  0  0  0  0  0  0  0  0  0
   -0.5880   -0.4367   -1.4522 C   0  0  0  0  0  0  0  0  0  0  0  0
    0.4025   -0.9114   -0.4510 C   0  0  0  0  0  0  0  0  0  0  0  0
    0.2460   -2.0690    0.3302 C   0  0  0  0  0  0  0  0  0  0  0  0
   -5.3709    1.1990    1.1113 C   0  0  0  0  0  0  0  0  0  0  0  0
    1.6315   -0.2269   -0.4342 C   0  0  0  0  0  0  0  0  0  0  0  0
    1.3486   -2.5494    1.0583 C   0  0  0  0  0  0  0  0  0  0  0  0
    2.6991   -0.6925    0.3318 C   0  0  0  0  0  0  0  0  0  0  0  0
   -5.3403    2.6408    1.5609 C   0  0  0  0  0  0  0  0  0  0  0  0
    2.5619   -1.8617    1.0687 C   0  0  0  0  0  0  0  0  0  0  0  0
    3.9543    0.0269    0.3406 C   0  0  0  0  0  0  0  0  0  0  0  0
    5.1532   -0.6645    0.5146 C   0  0  0  0  0  0  0  0  0  0  0  0
    3.9654    1.4119    0.1754 C   0  0  0  0  0  0  0  0  0  0  0  0
    6.3633    0.0294    0.5233 C   0  0  0  0  0  0  0  0  0  0  0  0
    5.1756    2.1056    0.1841 C   0  0  0  0  0  0  0  0  0  0  0  0
   -6.0197    3.2794   -1.0171 C   0  0  0  0  0  0  0  0  0  0  0  0
    6.3745    1.4143    0.3581 C   0  0  0  0  0  0  0  0  0  0  0  0
    8.7940    1.5378   -1.0267 C   0  0  0  0  0  0  0  0  0  0  0  0
   -4.6069   -1.2376    0.6186 H   0  0  0  0  0  0  0  0  0  0  0  0
   -1.9516   -0.4317    0.9472 H   0  0  0  0  0  0  0  0  0  0  0  0
   -5.1223   -0.0229   -1.7511 H   0  0  0  0  0  0  0  0  0  0  0  0
   -4.4674   -1.6694   -1.7247 H   0  0  0  0  0  0  0  0  0  0  0  0
   -2.7986   -0.6194   -3.0729 H   0  0  0  0  0  0  0  0  0  0  0  0
   -2.9304    0.9186   -2.1879 H   0  0  0  0  0  0  0  0  0  0  0  0
   -3.4093    1.4445    0.4705 H   0  0  0  0  0  0  0  0  0  0  0  0
   -0.8058   -3.8010    0.7492 H   0  0  0  0  0  0  0  0  0  0  0  0
    1.7459    0.6508   -1.0671 H   0  0  0  0  0  0  0  0  0  0  0  0
    1.2610   -3.4546    1.6568 H   0  0  0  0  0  0  0  0  0  0  0  0
   -4.3649    3.1088    1.4005 H   0  0  0  0  0  0  0  0  0  0  0  0
   -5.5541    2.6706    2.6337 H   0  0  0  0  0  0  0  0  0  0  0  0
    3.3568   -2.2601    1.6929 H   0  0  0  0  0  0  0  0  0  0  0  0
    5.1961   -1.7452    0.6178 H   0  0  0  0  0  0  0  0  0  0  0  0
    3.0549    1.9951    0.0677 H   0  0  0  0  0  0  0  0  0  0  0  0
    7.2853   -0.5299    0.6612 H   0  0  0  0  0  0  0  0  0  0  0  0
    5.1646    3.1858    0.0603 H   0  0  0  0  0  0  0  0  0  0  0  0
   -6.5785    3.9240   -1.7014 H   0  0  0  0  0  0  0  0  0  0  0  0
   -6.1846    2.2435   -1.3221 H   0  0  0  0  0  0  0  0  0  0  0  0
   -4.9588    3.5294   -1.1018 H   0  0  0  0  0  0  0  0  0  0  0  0
    9.7378    2.0649   -1.1891 H   0  0  0  0  0  0  0  0  0  0  0  0
    8.1923    1.6099   -1.9368 H   0  0  0  0  0  0  0  0  0  0  0  0
    9.0151    0.4879   -0.8188 H   0  0  0  0  0  0  0  0  0  0  0  0
  1 21  1  0  0  0  0
  1 28  1  0  0  0  0
  2 29  1  0  0  0  0
  2 30  1  0  0  0  0
  3 13  2  0  0  0  0
  4 14  2  0  0  0  0
  5 17  2  0  0  0  0
  6 10  1  0  0  0  0
  6 12  1  0  0  0  0
  6 14  1  0  0  0  0
  7  9  1  0  0  0  0
  7 17  1  0  0  0  0
  7 37  1  0  0  0  0
  8 13  1  0  0  0  0
  8 16  1  0  0  0  0
  8 38  1  0  0  0  0
  9 10  1  0  0  0  0
  9 11  1  0  0  0  0
  9 31  1  0  0  0  0
 10 13  1  0  0  0  0
 10 32  1  0  0  0  0
 11 12  1  0  0  0  0
 11 33  1  0  0  0  0
 11 34  1  0  0  0  0
 12 35  1  0  0  0  0
 12 36  1  0  0  0  0
 14 15  1  0  0  0  0
 15 16  2  0  0  0  0
 15 18  1  0  0  0  0
 16 19  1  0  0  0  0
 17 21  1  0  0  0  0
 18 20  2  0  0  0  0
 18 39  1  0  0  0  0
 19 22  2  0  0  0  0
 19 40  1  0  0  0  0
 20 22  1  0  0  0  0
 20 23  1  0  0  0  0
 21 41  1  0  0  0  0
 21 42  1  0  0  0  0
 22 43  1  0  0  0  0
 23 24  2  0  0  0  0
 23 25  1  0  0  0  0
 24 26  1  0  0  0  0
 24 44  1  0  0  0  0
 25 27  2  0  0  0  0
 25 45  1  0  0  0  0
 26 29  2  0  0  0  0
 26 46  1  0  0  0  0
 27 29  1  0  0  0  0
 27 47  1  0  0  0  0
 28 48  1  0  0  0  0
 28 49  1  0  0  0  0
 28 50  1  0  0  0  0
 30 51  1  0  0  0  0
 30 52  1  0  0  0  0
 30 53  1  0  0  0  0
M  END
> <PUBCHEM_COMPOUND_CID>
11941407

> <PUBCHEM_CONFORMER_RMSD>
0.8

> <PUBCHEM_CONFORMER_DIVERSEORDER>
1
23
5
19
24
9
13
12
4
16
14
2
15
18
21
17
6
20
3
22
11
7
8
10

> <PUBCHEM_MMFF94_PARTIAL_CHARGES>
36
1 -0.46
10 0.36
12 0.3
13 0.57
14 0.54
15 0.09
16 0.12
17 0.57
18 -0.15
19 -0.15
2 -0.33
21 0.29
22 -0.15
24 -0.15
25 -0.15
26 -0.15
27 -0.15
28 0.23
29 0.1
3 -0.57
30 0.23
37 0.37
38 0.37
39 0.15
4 -0.57
40 0.15
43 0.15
44 0.15
45 0.15
46 0.15
47 0.15
5 -0.57
6 -0.66
7 -0.73
8 -0.55
9 0.3

> <PUBCHEM_EFFECTIVE_ROTOR_COUNT>
6.8

> <PUBCHEM_PHARMACOPHORE_FEATURES>
11
1 28 hydrophobe
1 3 acceptor
1 30 hydrophobe
1 4 acceptor
1 5 acceptor
1 7 donor
1 8 donor
5 6 9 10 11 12 rings
6 15 16 18 19 20 22 rings
6 23 24 25 26 27 29 rings
7 6 8 10 13 14 15 16 rings

> <PUBCHEM_HEAVY_ATOM_COUNT>
30

> <PUBCHEM_ATOM_DEF_STEREO_COUNT>
2

> <PUBCHEM_ATOM_UDEF_STEREO_COUNT>
0

> <PUBCHEM_BOND_DEF_STEREO_COUNT>
0

> <PUBCHEM_BOND_UDEF_STEREO_COUNT>
0

> <PUBCHEM_ISOTOPIC_ATOM_COUNT>
0

> <PUBCHEM_COMPONENT_COUNT>
1

> <PUBCHEM_CACTVS_TAUTO_COUNT>
6

> <PUBCHEM_CONFORMER_ID>
00B6361F00000001

> <PUBCHEM_MMFF94_ENERGY>
103.542

> <PUBCHEM_FEATURE_SELFOVERLAP>
55.879

> <PUBCHEM_SHAPE_FINGERPRINT>
10 15 17167854292732065478
10554248 39 16987997172470917916
10674148 151 18343304787057101032
11410812 94 14692300478592366352
1200032 147 16772971194471368363
12013929 29 18339929311771637740
12390115 104 18262237828304381710
12422481 6 17241051994497379485
12788726 201 17559959827058242649
13782708 43 10809340044979781660
14765038 42 18259705605701462474
14951699 99 18263088734261295605
15064981 113 16414920712705506380
15163728 17 17346328046692242535
15183329 4 15267071354496130142
1577012 14 18343298172116017888
15840311 113 18266183816933805821
19303781 99 9367049022466763145
20642791 268 18187090542104246655
20775438 99 9436253358508908601
21033648 29 17168417165255087887
21223535 225 18202278126547945776
21236236 1 18115860979106937294
21424621 283 18413108364239065986
21585482 111 18335421210179758220
21756936 100 18272087231632265135
21796203 349 16588606278215522980
22122407 14 18271250520305427761
22393880 68 12175327047679435243
23522609 53 17749966582527336204
23569914 2 17199062843375738256
2838139 119 18059852900111126936
3711267 37 18113904905478100740
392239 28 17967806193649883116
44802255 64 16916787430852662284
50009960 94 15648772374114839145
5104073 3 16951674801473274600
5385378 56 18260544516490056026
56638632 10 18335414678072233717
5718773 13 9079114453902946824
6036956 94 17982452590798044665
636775 72 18270676593033153056
7970288 3 8573839374696423409
9689198 14 18342184358052116776
9896288 288 18263087780378097474

> <PUBCHEM_SHAPE_MULTIPOLES>
592.53
21.03
3.71
1.5
20.84
1.01
-0.71
24.91
2.56
-4.44
1.02
-1.58
0.14
-1.57

> <PUBCHEM_SHAPE_SELFOVERLAP>
1256.024

> <PUBCHEM_SHAPE_VOLUME>
334.3

> <PUBCHEM_COORDINATE_TYPE>
2
5
10

$$$$
