75536874
  -OEChem-12032416303D

 45 46  0     1  0  0  0  0  0999 V2000
    5.4005   -1.8245   -0.8050 F   0  0  0  0  0  0  0  0  0  0  0  0
    4.6752   -2.1446    1.2136 F   0  0  0  0  0  0  0  0  0  0  0  0
    5.9867   -0.4637    0.7863 F   0  0  0  0  0  0  0  0  0  0  0  0
   -2.2812    2.8162    1.5569 O   0  0  0  0  0  0  0  0  0  0  0  0
    0.4588    2.1168   -0.7933 O   0  0  0  0  0  0  0  0  0  0  0  0
   -2.2530   -1.2647   -1.6936 O   0  0  0  0  0  0  0  0  0  0  0  0
   -2.8953    0.6488   -0.5263 N   0  0  0  0  0  0  0  0  0  0  0  0
   -4.0487   -1.4020   -0.2611 N   0  0  0  0  0  0  0  0  0  0  0  0
   -0.7433    1.8153   -0.0864 C   0  0  2  0  0  0  0  0  0  0  0  0
   -1.8093    1.4378   -1.1146 C   0  0  0  0  0  0  0  0  0  0  0  0
   -3.8010    1.2957    0.4360 C   0  0  0  0  0  0  0  0  0  0  0  0
   -1.1269    3.0293    0.7556 C   0  0  0  0  0  0  0  0  0  0  0  0
   -3.4899    2.7395    0.8082 C   0  0  0  0  0  0  0  0  0  0  0  0
   -3.0099   -0.7161   -0.8868 C   0  0  0  0  0  0  0  0  0  0  0  0
    1.5403    1.3216   -0.5293 C   0  0  0  0  0  0  0  0  0  0  0  0
   -4.3311   -2.8015   -0.4970 C   0  0  0  0  0  0  0  0  0  0  0  0
   -3.5773   -3.7154    0.4616 C   0  0  0  0  0  0  0  0  0  0  0  0
    2.7110    1.8832   -0.0193 C   0  0  0  0  0  0  0  0  0  0  0  0
    1.4728   -0.0505   -0.7711 C   0  0  0  0  0  0  0  0  0  0  0  0
    3.7464   -0.2995    0.0072 C   0  0  0  0  0  0  0  0  0  0  0  0
    3.8139    1.0726    0.2489 C   0  0  0  0  0  0  0  0  0  0  0  0
    2.5759   -0.8609   -0.5029 C   0  0  0  0  0  0  0  0  0  0  0  0
   -3.9398   -3.4669    1.9189 C   0  0  0  0  0  0  0  0  0  0  0  0
    4.9253   -1.1664    0.2936 C   0  0  0  0  0  0  0  0  0  0  0  0
   -0.6019    0.9680    0.6003 H   0  0  0  0  0  0  0  0  0  0  0  0
   -2.2378    2.3221   -1.6009 H   0  0  0  0  0  0  0  0  0  0  0  0
   -1.3445    0.8706   -1.9287 H   0  0  0  0  0  0  0  0  0  0  0  0
   -3.7801    0.6888    1.3492 H   0  0  0  0  0  0  0  0  0  0  0  0
   -4.8106    1.2412    0.0129 H   0  0  0  0  0  0  0  0  0  0  0  0
   -1.2543    3.9248    0.1339 H   0  0  0  0  0  0  0  0  0  0  0  0
   -0.3003    3.2630    1.4370 H   0  0  0  0  0  0  0  0  0  0  0  0
   -3.4769    3.4124   -0.0566 H   0  0  0  0  0  0  0  0  0  0  0  0
   -4.2856    3.0977    1.4708 H   0  0  0  0  0  0  0  0  0  0  0  0
   -4.6637   -0.9224    0.3846 H   0  0  0  0  0  0  0  0  0  0  0  0
   -4.0663   -3.0505   -1.5302 H   0  0  0  0  0  0  0  0  0  0  0  0
   -5.4122   -2.9372   -0.3855 H   0  0  0  0  0  0  0  0  0  0  0  0
   -3.8030   -4.7583    0.2110 H   0  0  0  0  0  0  0  0  0  0  0  0
   -2.4966   -3.5796    0.3362 H   0  0  0  0  0  0  0  0  0  0  0  0
    2.7687    2.9514    0.1712 H   0  0  0  0  0  0  0  0  0  0  0  0
    0.5730   -0.5036   -1.1765 H   0  0  0  0  0  0  0  0  0  0  0  0
    4.7161    1.5296    0.6459 H   0  0  0  0  0  0  0  0  0  0  0  0
    2.5145   -1.9286   -0.6964 H   0  0  0  0  0  0  0  0  0  0  0  0
   -3.6521   -2.4601    2.2376 H   0  0  0  0  0  0  0  0  0  0  0  0
   -5.0157   -3.5863    2.0812 H   0  0  0  0  0  0  0  0  0  0  0  0
   -3.4186   -4.1823    2.5630 H   0  0  0  0  0  0  0  0  0  0  0  0
  1 24  1  0  0  0  0
  2 24  1  0  0  0  0
  3 24  1  0  0  0  0
  4 12  1  0  0  0  0
  4 13  1  0  0  0  0
  5  9  1  0  0  0  0
  5 15  1  0  0  0  0
  6 14  2  0  0  0  0
  7 10  1  0  0  0  0
  7 11  1  0  0  0  0
  7 14  1  0  0  0  0
  8 14  1  0  0  0  0
  8 16  1  0  0  0  0
  8 34  1  0  0  0  0
  9 10  1  0  0  0  0
  9 12  1  0  0  0  0
  9 25  1  0  0  0  0
 10 26  1  0  0  0  0
 10 27  1  0  0  0  0
 11 13  1  0  0  0  0
 11 28  1  0  0  0  0
 11 29  1  0  0  0  0
 12 30  1  0  0  0  0
 12 31  1  0  0  0  0
 13 32  1  0  0  0  0
 13 33  1  0  0  0  0
 15 18  2  0  0  0  0
 15 19  1  0  0  0  0
 16 17  1  0  0  0  0
 16 35  1  0  0  0  0
 16 36  1  0  0  0  0
 17 23  1  0  0  0  0
 17 37  1  0  0  0  0
 17 38  1  0  0  0  0
 18 21  1  0  0  0  0
 18 39  1  0  0  0  0
 19 22  2  0  0  0  0
 19 40  1  0  0  0  0
 20 21  2  0  0  0  0
 20 22  1  0  0  0  0
 20 24  1  0  0  0  0
 21 41  1  0  0  0  0
 22 42  1  0  0  0  0
 23 43  1  0  0  0  0
 23 44  1  0  0  0  0
 23 45  1  0  0  0  0
M  END
> <PUBCHEM_COMPOUND_CID>
75536874

> <PUBCHEM_CONFORMER_RMSD>
0.8

> <PUBCHEM_CONFORMER_DIVERSEORDER>
1
230
79
174
38
65
80
202
251
123
242
128
78
247
35
139
207
193
164
151
209
252
261
32
11
133
141
116
106
239
200
260
157
169
140
183
255
62
256
217
119
159
208
197
125
132
71
188
265
223
262
57
184
59
257
113
221
137
104
160
36
170
100
103
186
82
138
124
237
21
253
233
167
203
77
264
18
192
211
108
66
146
41
105
175
254
198
201
225
220
232
37
178
75
267
52
179
246
258
249
180
155
117
143
126
142
235
42
120
3
231
44
102
107
50
94
226
222
229
92
61
14
182
111
166
205
85
43
204
240
109
196
153
228
91
263
16
27
145
244
206
10
158
212
187
243
9
53
156
227
163
69
2
4
81
67
28
177
135
224
95
87
176
45
63
210
191
31
60
24
40
74
144
122
185
33
7
219
25
234
90
64
115
147
154
149
190
214
118
131
162
51
213
168
6
129
13
165
96
194
161
93
55
189
26
248
215
250
58
68
19
245
97
130
112
70
89
216
152
199
8
148
181
83
110
172
84
17
218
134
22
173
88
48
34
99
121
150
23
171
72
136
20
98
39
101
127
15
30
5
259
29
76
195
236
114
73
54
86
238
46
56
12
266
47
241
49

> <PUBCHEM_MMFF94_PARTIAL_CHARGES>
27
1 -0.34
10 0.3
11 0.3
12 0.28
13 0.28
14 0.69
15 0.08
16 0.3
18 -0.15
19 -0.15
2 -0.34
20 -0.14
21 -0.15
22 -0.15
24 1.16
3 -0.34
34 0.37
39 0.15
4 -0.56
40 0.15
41 0.15
42 0.15
5 -0.36
6 -0.57
7 -0.66
8 -0.73
9 0.28

> <PUBCHEM_EFFECTIVE_ROTOR_COUNT>
8.4

> <PUBCHEM_PHARMACOPHORE_FEATURES>
7
1 23 hydrophobe
1 4 acceptor
1 5 acceptor
1 6 acceptor
1 8 donor
6 15 18 19 20 21 22 rings
7 4 7 9 10 11 12 13 rings

> <PUBCHEM_HEAVY_ATOM_COUNT>
24

> <PUBCHEM_ATOM_DEF_STEREO_COUNT>
1

> <PUBCHEM_ATOM_UDEF_STEREO_COUNT>
0

> <PUBCHEM_BOND_DEF_STEREO_COUNT>
0

> <PUBCHEM_BOND_UDEF_STEREO_COUNT>
0

> <PUBCHEM_ISOTOPIC_ATOM_COUNT>
0

> <PUBCHEM_COMPONENT_COUNT>
1

> <PUBCHEM_CACTVS_TAUTO_COUNT>
2

> <PUBCHEM_CONFORMER_ID>
048099EA00000001

> <PUBCHEM_MMFF94_ENERGY>
54.6315

> <PUBCHEM_FEATURE_SELFOVERLAP>
35.522

> <PUBCHEM_SHAPE_FINGERPRINT>
11796584 16 17605815122951284179
12633257 1 17632301142188191857
12760667 363 18340763832321744207
13140716 1 18342738520128209501
13911852 28 18050288369533181487
14251740 79 17894910763009103659
14420673 8 17913214161641950286
14844126 61 18201710765483308695
14866123 147 18410295809743878283
15042514 8 18341899571882746973
15352361 1 18336261361680032647
15537594 2 18115877287297596738
15728490 83 18259990353275396755
17492 89 18340486759195777958
17780758 139 18271517598836364424
1813 80 17824276903770158020
19141452 34 18337392626054015813
20681677 274 18342733044103150288
20775530 9 18261390117439444771
21315759 227 17970615509819500347
221490 88 18410008879673320500
22907989 373 8213866908535130665
23559900 14 18343007887813990120
26353 1 12039147266770573609
2838139 119 11238627828810991195
312423 11 18409455808044524908
314194 84 17979915231070645959
392239 28 17412729971712764600
445580 42 18410293592928674531
5104073 3 18343857814844628896
5365585 94 18041846254308161083
5486654 36 18335989739626889089
58807428 26 17768269920382164201
9981440 41 16701460023136532261

> <PUBCHEM_SHAPE_MULTIPOLES>
444.52
11.77
4.44
1.28
10.74
1.29
-0.19
10.13
-2.27
-5.66
-1.84
-0.94
0.34
-0.25

> <PUBCHEM_SHAPE_SELFOVERLAP>
914.492

> <PUBCHEM_SHAPE_VOLUME>
255

> <PUBCHEM_COORDINATE_TYPE>
2
5
10

$$$$
