45784300
  -OEChem-12032416203D

 41 44  0     1  0  0  0  0  0999 V2000
   -5.4012   -2.8035   -0.5518 S   0  0  0  0  0  0  0  0  0  0  0  0
    6.1851   -1.1724    0.0485 O   0  0  0  0  0  0  0  0  0  0  0  0
   -2.9216    1.3176    0.2232 N   0  0  1  0  0  0  0  0  0  0  0  0
    1.6297    0.1934    1.2148 N   0  0  0  0  0  0  0  0  0  0  0  0
    1.1472    0.8822   -0.8426 N   0  0  0  0  0  0  0  0  0  0  0  0
   -0.6812    1.1164    0.8861 C   0  0  1  0  0  0  0  0  0  0  0  0
   -1.0414    2.6046    0.7344 C   0  0  0  0  0  0  0  0  0  0  0  0
   -1.8084    0.3681    0.1619 C   0  0  0  0  0  0  0  0  0  0  0  0
   -2.3257    2.6177   -0.0846 C   0  0  0  0  0  0  0  0  0  0  0  0
    0.6934    0.7413    0.3827 C   0  0  0  0  0  0  0  0  0  0  0  0
   -3.9983    0.9708   -0.6927 C   0  0  0  0  0  0  0  0  0  0  0  0
   -4.6030   -0.3686   -0.3656 C   0  0  0  0  0  0  0  0  0  0  0  0
    2.7630   -0.0347    0.4772 C   0  0  0  0  0  0  0  0  0  0  0  0
    2.4366    0.4035   -0.8032 C   0  0  0  0  0  0  0  0  0  0  0  0
    4.0076   -0.5705    0.8098 C   0  0  0  0  0  0  0  0  0  0  0  0
   -5.1965   -0.6871    0.8900 C   0  0  0  0  0  0  0  0  0  0  0  0
   -4.6466   -1.4302   -1.2424 C   0  0  0  0  0  0  0  0  0  0  0  0
    3.3967    0.3094   -1.8248 C   0  0  0  0  0  0  0  0  0  0  0  0
    4.9511   -0.6568   -0.2191 C   0  0  0  0  0  0  0  0  0  0  0  0
    4.6532   -0.2251   -1.5137 C   0  0  0  0  0  0  0  0  0  0  0  0
   -5.6715   -1.9797    0.9248 C   0  0  0  0  0  0  0  0  0  0  0  0
    6.4319   -1.5964    1.3870 C   0  0  0  0  0  0  0  0  0  0  0  0
   -0.7378    0.8740    1.9574 H   0  0  0  0  0  0  0  0  0  0  0  0
   -1.2227    3.0382    1.7259 H   0  0  0  0  0  0  0  0  0  0  0  0
   -0.2555    3.1956    0.2524 H   0  0  0  0  0  0  0  0  0  0  0  0
   -1.5294    0.1390   -0.8755 H   0  0  0  0  0  0  0  0  0  0  0  0
   -2.0292   -0.5750    0.6739 H   0  0  0  0  0  0  0  0  0  0  0  0
   -2.9768    3.4493    0.2027 H   0  0  0  0  0  0  0  0  0  0  0  0
   -2.0841    2.7130   -1.1510 H   0  0  0  0  0  0  0  0  0  0  0  0
   -4.7955    1.7223   -0.6206 H   0  0  0  0  0  0  0  0  0  0  0  0
   -3.6522    0.9792   -1.7353 H   0  0  0  0  0  0  0  0  0  0  0  0
    1.5115   -0.0091    2.1987 H   0  0  0  0  0  0  0  0  0  0  0  0
    4.1749   -0.8863    1.8312 H   0  0  0  0  0  0  0  0  0  0  0  0
   -5.2761   -0.0072    1.7289 H   0  0  0  0  0  0  0  0  0  0  0  0
   -4.2724   -1.4709   -2.2560 H   0  0  0  0  0  0  0  0  0  0  0  0
    3.1748    0.6419   -2.8338 H   0  0  0  0  0  0  0  0  0  0  0  0
    5.4034   -0.3023   -2.2972 H   0  0  0  0  0  0  0  0  0  0  0  0
   -6.1645   -2.4795    1.7466 H   0  0  0  0  0  0  0  0  0  0  0  0
    7.4578   -1.9780    1.4207 H   0  0  0  0  0  0  0  0  0  0  0  0
    5.7753   -2.4242    1.6758 H   0  0  0  0  0  0  0  0  0  0  0  0
    6.3808   -0.7593    2.0916 H   0  0  0  0  0  0  0  0  0  0  0  0
  1 17  1  0  0  0  0
  1 21  1  0  0  0  0
  2 19  1  0  0  0  0
  2 22  1  0  0  0  0
  3  8  1  0  0  0  0
  3  9  1  0  0  0  0
  3 11  1  0  0  0  0
  4 10  1  0  0  0  0
  4 13  1  0  0  0  0
  4 32  1  0  0  0  0
  5 10  2  0  0  0  0
  5 14  1  0  0  0  0
  6  7  1  0  0  0  0
  6  8  1  0  0  0  0
  6 10  1  0  0  0  0
  6 23  1  0  0  0  0
  7  9  1  0  0  0  0
  7 24  1  0  0  0  0
  7 25  1  0  0  0  0
  8 26  1  0  0  0  0
  8 27  1  0  0  0  0
  9 28  1  0  0  0  0
  9 29  1  0  0  0  0
 11 12  1  0  0  0  0
 11 30  1  0  0  0  0
 11 31  1  0  0  0  0
 12 16  1  0  0  0  0
 12 17  2  0  0  0  0
 13 14  2  0  0  0  0
 13 15  1  0  0  0  0
 14 18  1  0  0  0  0
 15 19  2  0  0  0  0
 15 33  1  0  0  0  0
 16 21  2  0  0  0  0
 16 34  1  0  0  0  0
 17 35  1  0  0  0  0
 18 20  2  0  0  0  0
 18 36  1  0  0  0  0
 19 20  1  0  0  0  0
 20 37  1  0  0  0  0
 21 38  1  0  0  0  0
 22 39  1  0  0  0  0
 22 40  1  0  0  0  0
 22 41  1  0  0  0  0
M  END
> <PUBCHEM_COMPOUND_CID>
45784300

> <PUBCHEM_CONFORMER_RMSD>
0.8

> <PUBCHEM_CONFORMER_DIVERSEORDER>
1
51
48
18
66
68
40
32
59
46
13
73
43
47
62
8
74
15
27
42
54
6
44
16
65
21
52
11
64
22
50
71
4
35
25
34
63
72
57
41
49
28
60
20
58
23
36
2
7
56
38
69
5
3
29
75
61
24
10
26
67
9
14
33
31
53
55
70
39
19
17
37
45
12
30

> <PUBCHEM_MMFF94_PARTIAL_CHARGES>
28
1 -0.08
10 0.01
11 0.45
12 -0.18
13 -0.15
14 0.23
15 -0.15
16 -0.15
17 -0.11
18 -0.15
19 0.08
2 -0.36
20 -0.15
21 -0.11
22 0.28
3 -0.81
32 0.27
33 0.15
34 0.15
35 0.15
36 0.15
37 0.15
38 0.15
4 0.03
5 -0.57
6 0.18
8 0.27
9 0.27

> <PUBCHEM_EFFECTIVE_ROTOR_COUNT>
5

> <PUBCHEM_PHARMACOPHORE_FEATURES>
8
1 2 acceptor
1 3 cation
1 4 donor
3 4 5 10 cation
5 1 12 16 17 21 rings
5 3 6 7 8 9 rings
5 4 5 10 13 14 rings
6 13 14 15 18 19 20 rings

> <PUBCHEM_HEAVY_ATOM_COUNT>
22

> <PUBCHEM_ATOM_DEF_STEREO_COUNT>
1

> <PUBCHEM_ATOM_UDEF_STEREO_COUNT>
0

> <PUBCHEM_BOND_DEF_STEREO_COUNT>
0

> <PUBCHEM_BOND_UDEF_STEREO_COUNT>
0

> <PUBCHEM_ISOTOPIC_ATOM_COUNT>
0

> <PUBCHEM_COMPONENT_COUNT>
1

> <PUBCHEM_CACTVS_TAUTO_COUNT>
2

> <PUBCHEM_CONFORMER_ID>
02BA9CEC00000001

> <PUBCHEM_MMFF94_ENERGY>
47.5157

> <PUBCHEM_FEATURE_SELFOVERLAP>
40.704

> <PUBCHEM_SHAPE_FINGERPRINT>
10622 236 17751339721219414034
10670039 82 11674868970766807438
10693767 8 16950833693054968346
10763959 59 12251904789485025230
10928967 22 18341326807934686551
11089746 13 13190336907118739836
11796584 16 18341328873143282726
11809386 21 18334854987813561473
12166972 35 17821732757884558364
12236239 1 18113338583489197084
12390115 104 8430315762140125949
12616971 3 17749966461260832180
12633257 1 15626219152207022325
12969540 114 14129057041043660097
13103583 49 15410905089006788799
13740256 8 18271809059770189841
13782708 43 18130785629878118946
14211702 104 18339364046434919170
14251740 79 17530969111648965907
14251751 18 18343017800318375586
14251757 5 17677624244441601603
14251764 30 18191032390438594035
14765038 42 14764343855940241462
15003188 100 14635160078271162487
15183329 4 16081081567467073243
15537594 2 18408890633625234747
16120349 189 10375606871561676915
17138139 8 18042115608697278187
17349148 13 18114468885468349920
17780758 139 17632861928147495795
1813 80 18271533104111603101
18785283 64 16844712266388551368
18927931 339 18343864399066124373
190975 80 17560230444215274570
193927 3 18131075952255162541
19958102 18 17313100873451078003
200 152 17967255282099668457
20281389 69 8790880783342384118
20374829 77 18343022207555967693
21054139 6 18113897144033839842
21150785 3 18113628893651356022
21315763 191 18409456890608014891
21401589 2 9367076597010397445
21521239 73 16950282931463975106
21623969 137 16630525133306893494
21728266 224 18337666421728784880
22950370 63 18341622572330186237
23402539 116 18187366493447318797
23522609 53 18121816969196704673
23559900 14 18409719690471596913
25122255 55 18271252616529101230
270888 7 8862681100787826287
2748736 6 9295027730051505187
2767999 5 8142093031003924815
2838139 119 12468626275034530583
3004659 81 17895188922075492795
312425 54 16415489254975411423
314173 85 17703794712915697049
351380 3 18409169935132040035
3737641 26 17702964538470996847
4015057 19 16515698753025445172
4107672 100 17240474816055934231
439807 62 18041000683091239819
5104073 3 18059857272324862721
5283156 175 18113618958864479353
59682541 52 14996548586844237914
6328613 192 9727342546439226866
7471813 234 18041002821700208044
7495541 125 18059852879063766384
7970288 3 18340484577659054783
8863177 126 18047481303430737643

> <PUBCHEM_SHAPE_MULTIPOLES>
435.79
16.12
2.44
1.38
4.68
0.27
-0.25
-13.6
0.59
-3.52
0.27
1.03
-0.23
-0.97

> <PUBCHEM_SHAPE_SELFOVERLAP>
938.884

> <PUBCHEM_SHAPE_VOLUME>
244.4

> <PUBCHEM_COORDINATE_TYPE>
2
5
10

$$$$
