56774420
  -OEChem-12032416293D

 40 43  0     1  0  0  0  0  0999 V2000
   -2.7788    0.0633    0.1764 N   0  0  1  0  0  0  0  0  0  0  0  0
    1.7415   -1.1171    0.3098 N   0  0  0  0  0  0  0  0  0  0  0  0
    1.4411    1.0844    0.2517 N   0  0  0  0  0  0  0  0  0  0  0  0
   -5.1290    0.3984   -0.3689 C   0  0  0  0  0  0  0  0  0  0  0  0
   -5.8691   -0.8682   -0.0531 C   0  0  0  0  0  0  0  0  0  0  0  0
   -6.2672   -0.0431   -1.2417 C   0  0  0  0  0  0  0  0  0  0  0  0
   -3.7323    0.3164   -0.8938 C   0  0  0  0  0  0  0  0  0  0  0  0
   -0.5706   -0.2926    0.8811 C   0  0  2  0  0  0  0  0  0  0  0  0
   -1.5078   -0.4670   -0.3216 C   0  0  0  0  0  0  0  0  0  0  0  0
   -2.4204    1.2816    0.9027 C   0  0  0  0  0  0  0  0  0  0  0  0
   -1.1925    0.8545    1.6964 C   0  0  0  0  0  0  0  0  0  0  0  0
    0.8701   -0.0773    0.4789 C   0  0  0  0  0  0  0  0  0  0  0  0
    2.9556   -0.5914   -0.0508 C   0  0  0  0  0  0  0  0  0  0  0  0
    2.7423    0.7840   -0.0800 C   0  0  0  0  0  0  0  0  0  0  0  0
    1.4415   -2.5210    0.4798 C   0  0  0  0  0  0  0  0  0  0  0  0
    4.1847   -1.1829   -0.3446 C   0  0  0  0  0  0  0  0  0  0  0  0
    3.8072    1.6351   -0.4208 C   0  0  0  0  0  0  0  0  0  0  0  0
    5.2335   -0.3208   -0.6817 C   0  0  0  0  0  0  0  0  0  0  0  0
    5.0502    1.0634   -0.7198 C   0  0  0  0  0  0  0  0  0  0  0  0
   -5.2991    1.2623    0.2621 H   0  0  0  0  0  0  0  0  0  0  0  0
   -6.5277   -0.8650    0.8068 H   0  0  0  0  0  0  0  0  0  0  0  0
   -5.3837   -1.8182   -0.2404 H   0  0  0  0  0  0  0  0  0  0  0  0
   -6.0493   -0.4389   -2.2259 H   0  0  0  0  0  0  0  0  0  0  0  0
   -7.1946    0.5134   -1.1803 H   0  0  0  0  0  0  0  0  0  0  0  0
   -3.6808   -0.5066   -1.6199 H   0  0  0  0  0  0  0  0  0  0  0  0
   -3.4893    1.2276   -1.4552 H   0  0  0  0  0  0  0  0  0  0  0  0
   -0.6337   -1.1895    1.5124 H   0  0  0  0  0  0  0  0  0  0  0  0
   -1.1471    0.1019   -1.1893 H   0  0  0  0  0  0  0  0  0  0  0  0
   -1.5950   -1.5193   -0.6120 H   0  0  0  0  0  0  0  0  0  0  0  0
   -3.2200    1.6252    1.5663 H   0  0  0  0  0  0  0  0  0  0  0  0
   -2.1517    2.1006    0.2232 H   0  0  0  0  0  0  0  0  0  0  0  0
   -1.4981    0.4750    2.6799 H   0  0  0  0  0  0  0  0  0  0  0  0
   -0.5172    1.6987    1.8682 H   0  0  0  0  0  0  0  0  0  0  0  0
    1.3096   -2.7155    1.5471 H   0  0  0  0  0  0  0  0  0  0  0  0
    0.5293   -2.7574   -0.0730 H   0  0  0  0  0  0  0  0  0  0  0  0
    2.2564   -3.1340    0.0907 H   0  0  0  0  0  0  0  0  0  0  0  0
    4.3364   -2.2555   -0.3155 H   0  0  0  0  0  0  0  0  0  0  0  0
    3.6749    2.7118   -0.4531 H   0  0  0  0  0  0  0  0  0  0  0  0
    6.2097   -0.7369   -0.9181 H   0  0  0  0  0  0  0  0  0  0  0  0
    5.8845    1.7077   -0.9852 H   0  0  0  0  0  0  0  0  0  0  0  0
  1  7  1  0  0  0  0
  1  9  1  0  0  0  0
  1 10  1  0  0  0  0
  2 12  1  0  0  0  0
  2 13  1  0  0  0  0
  2 15  1  0  0  0  0
  3 12  2  0  0  0  0
  3 14  1  0  0  0  0
  4  5  1  0  0  0  0
  4  6  1  0  0  0  0
  4  7  1  0  0  0  0
  4 20  1  0  0  0  0
  5  6  1  0  0  0  0
  5 21  1  0  0  0  0
  5 22  1  0  0  0  0
  6 23  1  0  0  0  0
  6 24  1  0  0  0  0
  7 25  1  0  0  0  0
  7 26  1  0  0  0  0
  8  9  1  0  0  0  0
  8 11  1  0  0  0  0
  8 12  1  0  0  0  0
  8 27  1  0  0  0  0
  9 28  1  0  0  0  0
  9 29  1  0  0  0  0
 10 11  1  0  0  0  0
 10 30  1  0  0  0  0
 10 31  1  0  0  0  0
 11 32  1  0  0  0  0
 11 33  1  0  0  0  0
 13 14  1  0  0  0  0
 13 16  2  0  0  0  0
 14 17  2  0  0  0  0
 15 34  1  0  0  0  0
 15 35  1  0  0  0  0
 15 36  1  0  0  0  0
 16 18  1  0  0  0  0
 16 37  1  0  0  0  0
 17 19  1  0  0  0  0
 17 38  1  0  0  0  0
 18 19  2  0  0  0  0
 18 39  1  0  0  0  0
 19 40  1  0  0  0  0
M  END
> <PUBCHEM_COMPOUND_CID>
56774420

> <PUBCHEM_CONFORMER_RMSD>
0.6

> <PUBCHEM_CONFORMER_DIVERSEORDER>
1
28
18
17
29
21
15
24
23
7
19
11
13
22
26
25
20
27
14
8
3
2
16
4
6
10
5
9
12

> <PUBCHEM_MMFF94_PARTIAL_CHARGES>
27
1 -0.81
10 0.27
12 0.01
13 -0.15
14 0.23
15 0.26
16 -0.15
17 -0.15
18 -0.15
19 -0.15
2 0.05
20 0.1
21 0.1
22 0.1
23 0.1
24 0.1
3 -0.57
37 0.15
38 0.15
39 0.15
4 -0.19
40 0.15
5 -0.2
6 -0.2
7 0.37
8 0.18
9 0.27

> <PUBCHEM_EFFECTIVE_ROTOR_COUNT>
4.6

> <PUBCHEM_PHARMACOPHORE_FEATURES>
5
1 1 cation
3 2 3 12 cation
5 1 8 9 10 11 rings
5 2 3 12 13 14 rings
6 13 14 16 17 18 19 rings

> <PUBCHEM_HEAVY_ATOM_COUNT>
19

> <PUBCHEM_ATOM_DEF_STEREO_COUNT>
1

> <PUBCHEM_ATOM_UDEF_STEREO_COUNT>
0

> <PUBCHEM_BOND_DEF_STEREO_COUNT>
0

> <PUBCHEM_BOND_UDEF_STEREO_COUNT>
0

> <PUBCHEM_ISOTOPIC_ATOM_COUNT>
0

> <PUBCHEM_COMPONENT_COUNT>
1

> <PUBCHEM_CACTVS_TAUTO_COUNT>
1

> <PUBCHEM_CONFORMER_ID>
03624F1400000001

> <PUBCHEM_MMFF94_ENERGY>
40.4181

> <PUBCHEM_FEATURE_SELFOVERLAP>
25.48

> <PUBCHEM_SHAPE_FINGERPRINT>
10354089 29 8646766707589081270
10693767 8 18200036110807164862
11089746 13 13984665883817517591
11128504 68 18131631205321266733
11287383 113 18114181960410268603
11471102 20 18334581226830222764
12236239 1 18059859441245968376
12553582 1 17203029830199698847
12596602 18 8142080966414488685
12730499 353 18040439879961804315
12788726 201 17703510991781691979
13009979 54 17556860222170414258
13533116 47 17989488494283104470
13685833 64 14692568858118702367
13836976 161 18410857659637097742
13862211 1 16917343745408444007
14251752 14 17989206998026781553
14528608 73 18334574655045015453
14576447 43 18201717327713133002
15142383 8 11527678453121005451
15348495 7 11671768412996607015
15475509 35 14548463449973881430
15475509 84 11242233174456678406
15501527 24 18343864428872445221
15537594 2 17060334120178069583
16752209 62 17417807293176412347
17834072 33 18413388743661486351
1813 80 15339122359653423353
18222031 100 16558454354188754457
19784866 140 17989487411866566467
200 152 18201720639412395801
20374829 77 16272205301984640661
20645477 70 18336265643999848886
21150785 3 17489315204974397156
21267235 1 18060426806420501735
21521239 73 18272655623747360678
21637258 2 15339114633075796685
221357 26 18408318873955547517
22950370 63 17632576072288253471
23402539 116 17561086869468725961
23402655 69 18409446968811645917
23522609 53 17202229454275476553
23559900 14 18058723735934213552
25147074 1 18057047913052435611
266924 1 18129668469812590147
2767999 5 14490186120659682447
2871803 45 18411138017600252336
2916195 48 16515682264814430597
29717793 49 17989211417046761588
3004659 81 18272931605122938566
3060560 45 18335140886733486358
314173 85 15051731984889705153
33382 64 15123241996277409436
335352 9 18335708248293391766
3472631 163 15213311853899285174
351380 3 17346594180008582535
3545911 37 18259705614117323591
4072396 5 17895181200446773480
42 15 10879993571074214897
465052 167 16988561355501842109
474 4 18187933914735904324
542803 24 18411418401998161197
59755656 520 15791726429807013363
6327066 14 17974010849846952244
7495541 125 15626219126394916706
8509985 295 13479132401839342846
8863177 126 17344337003234135015

> <PUBCHEM_SHAPE_MULTIPOLES>
376.07
13.6
1.6
1.09
11.5
0.54
0.17
-0.39
-6.02
-1.44
0.2
0.68
-0.19
-0.5

> <PUBCHEM_SHAPE_SELFOVERLAP>
810.596

> <PUBCHEM_SHAPE_VOLUME>
208.4

> <PUBCHEM_COORDINATE_TYPE>
2
5
10

$$$$
