26763540
  -OEChem-12032416183D

 64 68  0     1  0  0  0  0  0999 V2000
    0.5158    2.7561    0.1813 S   0  0  0  0  0  0  0  0  0  0  0  0
   -6.8688    0.2445   -0.7041 O   0  0  0  0  0  0  0  0  0  0  0  0
   -6.5806    2.0736    0.8178 O   0  0  0  0  0  0  0  0  0  0  0  0
    0.7216   -2.3748   -1.4041 O   0  0  0  0  0  0  0  0  0  0  0  0
    4.0158   -0.3352   -0.1421 O   0  0  0  0  0  0  0  0  0  0  0  0
    5.4326    2.8949    0.0570 O   0  0  0  0  0  0  0  0  0  0  0  0
    1.0603    0.2367   -0.0392 N   0  0  0  0  0  0  0  0  0  0  0  0
    0.9409   -3.8676    0.3601 N   0  0  0  0  0  0  0  0  0  0  0  0
    2.9339    1.7499    0.0549 N   0  0  0  0  0  0  0  0  0  0  0  0
   -2.7063   -0.4803    0.3712 C   0  0  2  0  0  0  0  0  0  0  0  0
   -3.1225    0.8939   -0.3172 C   0  0  1  0  0  0  0  0  0  0  0  0
   -4.6597    1.2471   -0.3386 C   0  0  1  0  0  0  0  0  0  0  0  0
   -1.2214   -0.8376   -0.0983 C   0  0  1  0  0  0  0  0  0  0  0  0
   -3.6560   -1.6072   -0.1120 C   0  0  0  0  0  0  0  0  0  0  0  0
   -5.4659   -0.0007   -0.7983 C   0  0  1  0  0  0  0  0  0  0  0  0
   -2.2165    2.0660    0.1600 C   0  0  0  0  0  0  0  0  0  0  0  0
   -5.1332   -1.2579   -0.0024 C   0  0  0  0  0  0  0  0  0  0  0  0
   -2.7564   -0.4175    1.9175 C   0  0  0  0  0  0  0  0  0  0  0  0
   -0.3158    0.3627    0.0070 C   0  0  0  0  0  0  0  0  0  0  0  0
   -5.2094    1.7969    0.9962 C   0  0  0  0  0  0  0  0  0  0  0  0
   -4.9075    2.3691   -1.3863 C   0  0  0  0  0  0  0  0  0  0  0  0
   -0.7831    1.6575    0.1040 C   0  0  0  0  0  0  0  0  0  0  0  0
   -0.6111   -2.0637    0.5937 C   0  0  0  0  0  0  0  0  0  0  0  0
    0.4102   -2.7558   -0.2787 C   0  0  0  0  0  0  0  0  0  0  0  0
    1.6018    1.4320    0.0524 C   0  0  0  0  0  0  0  0  0  0  0  0
    1.9340   -4.7058   -0.2482 C   0  0  0  0  0  0  0  0  0  0  0  0
    3.3915   -4.3557   -0.1818 C   0  0  0  0  0  0  0  0  0  0  0  0
    2.8675   -5.5346    0.5845 C   0  0  0  0  0  0  0  0  0  0  0  0
    4.0535    0.8862   -0.0389 C   0  0  0  0  0  0  0  0  0  0  0  0
    5.3885    1.5399   -0.0360 C   0  0  0  0  0  0  0  0  0  0  0  0
    6.6596    1.0191   -0.1113 C   0  0  0  0  0  0  0  0  0  0  0  0
    7.5410    2.1252   -0.0611 C   0  0  0  0  0  0  0  0  0  0  0  0
    6.7459    3.2431    0.0410 C   0  0  0  0  0  0  0  0  0  0  0  0
   -2.8685    0.7443   -1.3812 H   0  0  0  0  0  0  0  0  0  0  0  0
   -1.2941   -1.0448   -1.1766 H   0  0  0  0  0  0  0  0  0  0  0  0
   -3.4839   -2.5308    0.4520 H   0  0  0  0  0  0  0  0  0  0  0  0
   -3.4390   -1.8454   -1.1618 H   0  0  0  0  0  0  0  0  0  0  0  0
   -5.2506   -0.1931   -1.8578 H   0  0  0  0  0  0  0  0  0  0  0  0
   -2.4643    2.3603    1.1853 H   0  0  0  0  0  0  0  0  0  0  0  0
   -2.3660    2.9422   -0.4797 H   0  0  0  0  0  0  0  0  0  0  0  0
   -5.7296   -2.0962   -0.3849 H   0  0  0  0  0  0  0  0  0  0  0  0
   -5.4404   -1.1477    1.0435 H   0  0  0  0  0  0  0  0  0  0  0  0
   -2.1047    0.3590    2.3276 H   0  0  0  0  0  0  0  0  0  0  0  0
   -2.4368   -1.3657    2.3637 H   0  0  0  0  0  0  0  0  0  0  0  0
   -3.7588   -0.2463    2.3043 H   0  0  0  0  0  0  0  0  0  0  0  0
   -4.7088    2.7239    1.2917 H   0  0  0  0  0  0  0  0  0  0  0  0
   -5.1304    1.0859    1.8147 H   0  0  0  0  0  0  0  0  0  0  0  0
   -5.9740    2.5403   -1.5707 H   0  0  0  0  0  0  0  0  0  0  0  0
   -4.4586    2.1097   -2.3521 H   0  0  0  0  0  0  0  0  0  0  0  0
   -4.4796    3.3255   -1.0683 H   0  0  0  0  0  0  0  0  0  0  0  0
   -0.1350   -1.7904    1.5438 H   0  0  0  0  0  0  0  0  0  0  0  0
   -1.3765   -2.8152    0.8120 H   0  0  0  0  0  0  0  0  0  0  0  0
   -7.3290   -0.5417   -1.0443 H   0  0  0  0  0  0  0  0  0  0  0  0
   -6.9166    2.4282    1.6585 H   0  0  0  0  0  0  0  0  0  0  0  0
    1.5790   -5.1639   -1.1664 H   0  0  0  0  0  0  0  0  0  0  0  0
    0.6209   -4.1156    1.2927 H   0  0  0  0  0  0  0  0  0  0  0  0
    3.6875   -3.4799    0.3828 H   0  0  0  0  0  0  0  0  0  0  0  0
    3.9974   -4.5508   -1.0580 H   0  0  0  0  0  0  0  0  0  0  0  0
    3.1222   -6.5239    0.2246 H   0  0  0  0  0  0  0  0  0  0  0  0
    2.8136   -5.4492    1.6628 H   0  0  0  0  0  0  0  0  0  0  0  0
    3.1264    2.7459    0.1316 H   0  0  0  0  0  0  0  0  0  0  0  0
    6.9233   -0.0259   -0.1918 H   0  0  0  0  0  0  0  0  0  0  0  0
    8.6208    2.1098   -0.0950 H   0  0  0  0  0  0  0  0  0  0  0  0
    6.9495    4.3018    0.1085 H   0  0  0  0  0  0  0  0  0  0  0  0
  1 22  1  0  0  0  0
  1 25  1  0  0  0  0
  2 15  1  0  0  0  0
  2 53  1  0  0  0  0
  3 20  1  0  0  0  0
  3 54  1  0  0  0  0
  4 24  2  0  0  0  0
  5 29  2  0  0  0  0
  6 30  1  0  0  0  0
  6 33  1  0  0  0  0
  7 19  1  0  0  0  0
  7 25  2  0  0  0  0
  8 24  1  0  0  0  0
  8 26  1  0  0  0  0
  8 56  1  0  0  0  0
  9 25  1  0  0  0  0
  9 29  1  0  0  0  0
  9 61  1  0  0  0  0
 10 11  1  0  0  0  0
 10 13  1  0  0  0  0
 10 14  1  0  0  0  0
 10 18  1  0  0  0  0
 11 12  1  0  0  0  0
 11 16  1  0  0  0  0
 11 34  1  0  0  0  0
 12 15  1  0  0  0  0
 12 20  1  0  0  0  0
 12 21  1  0  0  0  0
 13 19  1  0  0  0  0
 13 23  1  0  0  0  0
 13 35  1  0  0  0  0
 14 17  1  0  0  0  0
 14 36  1  0  0  0  0
 14 37  1  0  0  0  0
 15 17  1  0  0  0  0
 15 38  1  0  0  0  0
 16 22  1  0  0  0  0
 16 39  1  0  0  0  0
 16 40  1  0  0  0  0
 17 41  1  0  0  0  0
 17 42  1  0  0  0  0
 18 43  1  0  0  0  0
 18 44  1  0  0  0  0
 18 45  1  0  0  0  0
 19 22  2  0  0  0  0
 20 46  1  0  0  0  0
 20 47  1  0  0  0  0
 21 48  1  0  0  0  0
 21 49  1  0  0  0  0
 21 50  1  0  0  0  0
 23 24  1  0  0  0  0
 23 51  1  0  0  0  0
 23 52  1  0  0  0  0
 26 27  1  0  0  0  0
 26 28  1  0  0  0  0
 26 55  1  0  0  0  0
 27 28  1  0  0  0  0
 27 57  1  0  0  0  0
 27 58  1  0  0  0  0
 28 59  1  0  0  0  0
 28 60  1  0  0  0  0
 29 30  1  0  0  0  0
 30 31  2  0  0  0  0
 31 32  1  0  0  0  0
 31 62  1  0  0  0  0
 32 33  2  0  0  0  0
 32 63  1  0  0  0  0
 33 64  1  0  0  0  0
M  END
> <PUBCHEM_COMPOUND_CID>
26763540

> <PUBCHEM_CONFORMER_RMSD>
1

> <PUBCHEM_CONFORMER_DIVERSEORDER>
1
23
19
12
17
15
20
13
22
14
25
24
8
10
5
16
18
21
4
11
9
7
6
3
2

> <PUBCHEM_MMFF94_PARTIAL_CHARGES>
38
1 -0.08
13 0.18
15 0.28
16 0.18
19 0.05
2 -0.68
20 0.28
22 -0.14
23 0.06
24 0.57
25 0.44
26 0.05
27 -0.2
28 -0.2
29 0.71
3 -0.68
30 0.05
31 -0.15
32 -0.15
33 -0.01
4 -0.57
5 -0.57
53 0.4
54 0.4
55 0.1
56 0.37
57 0.1
58 0.1
59 0.1
6 -0.28
60 0.1
61 0.37
62 0.15
63 0.15
64 0.15
7 -0.57
8 -0.58
9 -0.49

> <PUBCHEM_EFFECTIVE_ROTOR_COUNT>
9.8

> <PUBCHEM_PHARMACOPHORE_FEATURES>
13
1 2 acceptor
1 2 donor
1 3 acceptor
1 3 donor
1 4 acceptor
1 5 acceptor
1 6 acceptor
1 8 donor
1 9 donor
5 1 7 19 22 25 rings
5 6 30 31 32 33 rings
6 10 11 12 14 15 17 rings
6 10 11 13 16 19 22 rings

> <PUBCHEM_HEAVY_ATOM_COUNT>
33

> <PUBCHEM_ATOM_DEF_STEREO_COUNT>
5

> <PUBCHEM_ATOM_UDEF_STEREO_COUNT>
0

> <PUBCHEM_BOND_DEF_STEREO_COUNT>
0

> <PUBCHEM_BOND_UDEF_STEREO_COUNT>
0

> <PUBCHEM_ISOTOPIC_ATOM_COUNT>
0

> <PUBCHEM_COMPONENT_COUNT>
1

> <PUBCHEM_CACTVS_TAUTO_COUNT>
6

> <PUBCHEM_CONFORMER_ID>
0198611400000001

> <PUBCHEM_MMFF94_ENERGY>
91.3761

> <PUBCHEM_FEATURE_SELFOVERLAP>
66.119

> <PUBCHEM_SHAPE_FINGERPRINT>
10050765 1 18194682554162583061
10906281 52 18336278885204635609
10940486 97 17829613108572445492
11007060 377 18055633069215583456
11135609 187 18411979182660996784
11135926 11 18410569565846738973
11136131 41 18334003974726325658
11315181 36 18338800125744990601
11445158 3 17677898026904427957
11578080 2 17169811303376060735
11719270 70 18410566289477333792
12977781 61 17896341180165613483
13540713 4 18042410141128175475
13540713 5 18058449790852830705
14028597 1 17773898487580829515
14659021 117 17618492629869913042
14725015 67 17837491113311486887
14790565 3 18338518646351707412
15183329 4 18334570269768024216
15347591 1 18266740187376942853
15400415 2 18338234994311984780
15439362 3 18336825282554103265
15815584 197 18266484094438750542
15890870 6 18338516443402470612
15927050 60 18341328985245871918
16067689 302 18413109477195602759
16719943 64 18338233903316172370
167882 2 18338514132050870562
18681886 176 18265606761738501217
20554085 129 18130209532976596664
20642791 35 18269565948623097422
20771845 165 17970338231548279373
21133665 82 18410858807195004470
21344244 246 18410285900853542679
21360443 120 18409169913693932054
22311459 1 18410854382809438373
23559900 14 18121772829685545115
244849 19 17896625919812957795
3383291 50 18195244644863822858
3411729 13 18410855421700770702
4017518 198 18342745161139478574
4073 2 18410299120667622267
5085150 59 18338223964571594946
5265222 85 18265617778524664236
5385378 56 18338806623766148433
563151 97 18412260645069030653
59755656 215 18411138030427158255
6371380 46 18199746007203726248
6376802 90 17967808307306432407
6669772 16 18411138030770374510
6898599 12 17902802091628040020
99344 41 18411415103616115688
9961470 85 18411699920589884722
9981440 41 18334866064107476378

> <PUBCHEM_SHAPE_MULTIPOLES>
638.68
16.68
5.9
0.95
9.42
10.05
-0.11
-15.72
1.01
8.94
-0.13
-1.05
0.02
0.09

> <PUBCHEM_SHAPE_SELFOVERLAP>
1356.218

> <PUBCHEM_SHAPE_VOLUME>
359.7

> <PUBCHEM_COORDINATE_TYPE>
2
5
10

$$$$
