40777920
  -OEChem-12032416253D

 45 45  0     1  0  0  0  0  0999 V2000
   -1.4269    0.3160   -0.6048 O   0  0  0  0  0  0  0  0  0  0  0  0
   -4.3531    0.8780   -1.2213 O   0  0  0  0  0  0  0  0  0  0  0  0
   -4.4653   -1.0312    0.7563 O   0  0  0  0  0  0  0  0  0  0  0  0
    0.0165   -1.9299   -1.3964 O   0  0  0  0  0  0  0  0  0  0  0  0
    0.9594    0.9374    1.0639 O   0  0  0  0  0  0  0  0  0  0  0  0
   -0.1738    2.7599    0.1738 N   0  0  0  0  0  0  0  0  0  0  0  0
    0.5632   -3.2238    0.4517 N   0  0  0  0  0  0  0  0  0  0  0  0
    2.1140    2.5877   -0.0882 N   0  0  0  0  0  0  0  0  0  0  0  0
   -3.5947    1.1127   -0.0354 C   0  0  1  0  0  0  0  0  0  0  0  0
   -3.3322   -0.1922    0.6876 C   0  0  2  0  0  0  0  0  0  0  0  0
   -2.1891    1.5350   -0.4485 C   0  0  1  0  0  0  0  0  0  0  0  0
   -2.2272   -0.7948   -0.1633 C   0  0  2  0  0  0  0  0  0  0  0  0
   -1.4908    2.3895    0.6004 C   0  0  0  0  0  0  0  0  0  0  0  0
   -1.3571   -1.7838    0.5915 C   0  0  0  0  0  0  0  0  0  0  0  0
   -0.2011   -2.2984   -0.2452 C   0  0  0  0  0  0  0  0  0  0  0  0
    0.9684    1.9979    0.4401 C   0  0  0  0  0  0  0  0  0  0  0  0
    3.4279    2.0039    0.0462 C   0  0  0  0  0  0  0  0  0  0  0  0
    1.7154   -3.8595   -0.1200 C   0  0  0  0  0  0  0  0  0  0  0  0
    4.4878    3.0955    0.1151 C   0  0  0  0  0  0  0  0  0  0  0  0
    3.7036    1.0382   -1.0997 C   0  0  0  0  0  0  0  0  0  0  0  0
    2.9285   -3.0855    0.1418 C   0  0  0  0  0  0  0  0  0  0  0  0
    3.9265   -2.4527    0.3543 C   0  0  0  0  0  0  0  0  0  0  0  0
   -4.1353    1.8453    0.5703 H   0  0  0  0  0  0  0  0  0  0  0  0
   -2.9758    0.0056    1.7056 H   0  0  0  0  0  0  0  0  0  0  0  0
   -2.1824    2.0471   -1.4179 H   0  0  0  0  0  0  0  0  0  0  0  0
   -2.6405   -1.2821   -1.0560 H   0  0  0  0  0  0  0  0  0  0  0  0
   -1.4030    1.8530    1.5516 H   0  0  0  0  0  0  0  0  0  0  0  0
   -2.0497    3.3144    0.7759 H   0  0  0  0  0  0  0  0  0  0  0  0
   -0.9201   -1.3015    1.4750 H   0  0  0  0  0  0  0  0  0  0  0  0
   -1.9565   -2.6372    0.9286 H   0  0  0  0  0  0  0  0  0  0  0  0
   -4.4644    1.7340   -1.6691 H   0  0  0  0  0  0  0  0  0  0  0  0
   -5.1672   -0.5361    1.2119 H   0  0  0  0  0  0  0  0  0  0  0  0
   -0.0660    3.6176   -0.3588 H   0  0  0  0  0  0  0  0  0  0  0  0
    0.3152   -3.4538    1.4099 H   0  0  0  0  0  0  0  0  0  0  0  0
    2.0088    3.4252   -0.6531 H   0  0  0  0  0  0  0  0  0  0  0  0
    3.4546    1.4374    0.9849 H   0  0  0  0  0  0  0  0  0  0  0  0
    1.7930   -4.8555    0.3271 H   0  0  0  0  0  0  0  0  0  0  0  0
    1.5663   -3.9845   -1.1976 H   0  0  0  0  0  0  0  0  0  0  0  0
    5.4851    2.6649    0.2525 H   0  0  0  0  0  0  0  0  0  0  0  0
    4.4995    3.6982   -0.7999 H   0  0  0  0  0  0  0  0  0  0  0  0
    4.2928    3.7733    0.9535 H   0  0  0  0  0  0  0  0  0  0  0  0
    2.9508    0.2432   -1.1323 H   0  0  0  0  0  0  0  0  0  0  0  0
    4.6872    0.5702   -0.9896 H   0  0  0  0  0  0  0  0  0  0  0  0
    3.6771    1.5532   -2.0666 H   0  0  0  0  0  0  0  0  0  0  0  0
    4.8106   -1.8897    0.5428 H   0  0  0  0  0  0  0  0  0  0  0  0
  1 11  1  0  0  0  0
  1 12  1  0  0  0  0
  2  9  1  0  0  0  0
  2 31  1  0  0  0  0
  3 10  1  0  0  0  0
  3 32  1  0  0  0  0
  4 15  2  0  0  0  0
  5 16  2  0  0  0  0
  6 13  1  0  0  0  0
  6 16  1  0  0  0  0
  6 33  1  0  0  0  0
  7 15  1  0  0  0  0
  7 18  1  0  0  0  0
  7 34  1  0  0  0  0
  8 16  1  0  0  0  0
  8 17  1  0  0  0  0
  8 35  1  0  0  0  0
  9 10  1  0  0  0  0
  9 11  1  0  0  0  0
  9 23  1  0  0  0  0
 10 12  1  0  0  0  0
 10 24  1  0  0  0  0
 11 13  1  0  0  0  0
 11 25  1  0  0  0  0
 12 14  1  0  0  0  0
 12 26  1  0  0  0  0
 13 27  1  0  0  0  0
 13 28  1  0  0  0  0
 14 15  1  0  0  0  0
 14 29  1  0  0  0  0
 14 30  1  0  0  0  0
 17 19  1  0  0  0  0
 17 20  1  0  0  0  0
 17 36  1  0  0  0  0
 18 21  1  0  0  0  0
 18 37  1  0  0  0  0
 18 38  1  0  0  0  0
 19 39  1  0  0  0  0
 19 40  1  0  0  0  0
 19 41  1  0  0  0  0
 20 42  1  0  0  0  0
 20 43  1  0  0  0  0
 20 44  1  0  0  0  0
 21 22  3  0  0  0  0
 22 45  1  0  0  0  0
M  END
> <PUBCHEM_COMPOUND_CID>
40777920

> <PUBCHEM_CONFORMER_RMSD>
1.2

> <PUBCHEM_CONFORMER_DIVERSEORDER>
1
2
87
38
57
75
21
84
50
69
35
37
45
17
9
73
13
20
30
77
36
39
83
34
81
60
22
67
15
27
28
47
58
62
49
78
19
23
72
7
53
29
41
56
80
25
43
16
79
66
5
24
12
3
89
68
31
70
82
48
55
65
32
86
10
61
76
18
63
26
88
33
74
4
40
44
54
59
6
51
11
8
52
71
14
64
42
46
85

> <PUBCHEM_MMFF94_PARTIAL_CHARGES>
26
1 -0.56
10 0.28
11 0.28
12 0.28
13 0.3
14 0.06
15 0.57
16 0.69
17 0.3
18 0.5
2 -0.68
21 -0.2
22 -0.18
3 -0.68
31 0.4
32 0.4
33 0.37
34 0.37
35 0.37
4 -0.57
45 0.18
5 -0.57
6 -0.73
7 -0.73
8 -0.73
9 0.28

> <PUBCHEM_EFFECTIVE_ROTOR_COUNT>
10

> <PUBCHEM_PHARMACOPHORE_FEATURES>
13
1 1 acceptor
1 2 acceptor
1 2 donor
1 22 hydrophobe
1 3 acceptor
1 3 donor
1 4 acceptor
1 5 acceptor
1 6 donor
1 7 donor
1 8 donor
3 17 19 20 hydrophobe
5 1 9 10 11 12 rings

> <PUBCHEM_HEAVY_ATOM_COUNT>
22

> <PUBCHEM_ATOM_DEF_STEREO_COUNT>
4

> <PUBCHEM_ATOM_UDEF_STEREO_COUNT>
0

> <PUBCHEM_BOND_DEF_STEREO_COUNT>
0

> <PUBCHEM_BOND_UDEF_STEREO_COUNT>
0

> <PUBCHEM_ISOTOPIC_ATOM_COUNT>
0

> <PUBCHEM_COMPONENT_COUNT>
1

> <PUBCHEM_CACTVS_TAUTO_COUNT>
6

> <PUBCHEM_CONFORMER_ID>
026E38C000000001

> <PUBCHEM_MMFF94_ENERGY>
33.0051

> <PUBCHEM_FEATURE_SELFOVERLAP>
66.038

> <PUBCHEM_SHAPE_FINGERPRINT>
107951 10 17604426417868379217
1100329 8 17691131439724649841
12038231 1 17473544651587503242
12553582 1 16176511854160530454
12592029 89 18338525238878158675
13140716 1 18339089172611374529
138480 1 18194401091896155266
14022349 108 18340499902011858243
14251757 5 17616275988463678420
15006816 218 18411135835851714128
16719943 64 18265613368083134080
167882 2 18337663140352899157
17859628 97 18194123138512974696
18336668 15 17898300399013244790
18785283 64 18335712619340912763
19591789 44 18194688300221754475
19930381 70 18410014333817569210
20028762 73 17552085417287058599
23419403 2 18042393656479633407
23559900 14 18265325119099030770
25147074 1 17988358153907760689
3298306 158 18410291432222559932
43471831 8 18411141354921885537
532947 4 18410568474777014813
57091435 65 18409729556548993698
59755656 215 18338234994469772903
81228 2 17119152765077778643
9925002 15 17556817486987155039

> <PUBCHEM_SHAPE_MULTIPOLES>
408.46
7.88
5.16
0.94
0.01
2.27
0.14
-2.4
0.33
6.04
-0.36
-0.19
0.01
0.09

> <PUBCHEM_SHAPE_SELFOVERLAP>
812.368

> <PUBCHEM_SHAPE_VOLUME>
241.2

> <PUBCHEM_COORDINATE_TYPE>
2
5
10

$$$$
