75537108
  -OEChem-12032416323D

 40 42  0     1  0  0  0  0  0999 V2000
   -6.1168    0.6425   -0.5984 F   0  0  0  0  0  0  0  0  0  0  0  0
   -5.0454    2.1468    0.5386 F   0  0  0  0  0  0  0  0  0  0  0  0
   -5.6990    0.3147    1.5101 F   0  0  0  0  0  0  0  0  0  0  0  0
    5.9177   -0.3701    0.5001 O   0  0  0  0  0  0  0  0  0  0  0  0
    3.5692   -0.3837    0.4415 N   0  0  0  0  0  0  0  0  0  0  0  0
    0.9630   -1.2690   -0.1373 N   0  0  2  0  0  0  0  0  0  0  0  0
    4.6331    1.5455    0.0056 N   0  0  0  0  0  0  0  0  0  0  0  0
    2.5091    0.5935    0.3081 C   0  0  2  0  0  0  0  0  0  0  0  0
    1.4059    0.0601   -0.6053 C   0  0  0  0  0  0  0  0  0  0  0  0
    3.2266    1.8379   -0.2112 C   0  0  0  0  0  0  0  0  0  0  0  0
    3.2320   -1.7572    0.7527 C   0  0  0  0  0  0  0  0  0  0  0  0
    2.0846   -2.2301   -0.1434 C   0  0  0  0  0  0  0  0  0  0  0  0
    4.8426    0.1926    0.3406 C   0  0  0  0  0  0  0  0  0  0  0  0
   -0.1346   -1.7619   -0.9689 C   0  0  0  0  0  0  0  0  0  0  0  0
    5.6678    2.5221   -0.2537 C   0  0  0  0  0  0  0  0  0  0  0  0
   -1.4408   -1.0967   -0.6251 C   0  0  0  0  0  0  0  0  0  0  0  0
   -2.1347   -1.4753    0.5242 C   0  0  0  0  0  0  0  0  0  0  0  0
   -1.9568   -0.1015   -1.4552 C   0  0  0  0  0  0  0  0  0  0  0  0
   -3.3444   -0.8589    0.8434 C   0  0  0  0  0  0  0  0  0  0  0  0
   -3.1666    0.5150   -1.1361 C   0  0  0  0  0  0  0  0  0  0  0  0
   -3.8605    0.1362    0.0133 C   0  0  0  0  0  0  0  0  0  0  0  0
   -5.1523    0.7974    0.3564 C   0  0  0  0  0  0  0  0  0  0  0  0
    2.1160    0.7796    1.3162 H   0  0  0  0  0  0  0  0  0  0  0  0
    0.5835    0.7832   -0.5877 H   0  0  0  0  0  0  0  0  0  0  0  0
    1.7672   -0.0047   -1.6407 H   0  0  0  0  0  0  0  0  0  0  0  0
    3.0727    2.0019   -1.2827 H   0  0  0  0  0  0  0  0  0  0  0  0
    2.9417    2.7379    0.3419 H   0  0  0  0  0  0  0  0  0  0  0  0
    2.9352   -1.7882    1.8074 H   0  0  0  0  0  0  0  0  0  0  0  0
    4.1173   -2.3892    0.6307 H   0  0  0  0  0  0  0  0  0  0  0  0
    2.4557   -2.3689   -1.1677 H   0  0  0  0  0  0  0  0  0  0  0  0
    1.7483   -3.2083    0.2206 H   0  0  0  0  0  0  0  0  0  0  0  0
   -0.2821   -2.8391   -0.8063 H   0  0  0  0  0  0  0  0  0  0  0  0
    0.0889   -1.6622   -2.0399 H   0  0  0  0  0  0  0  0  0  0  0  0
    5.6349    2.7960   -1.3116 H   0  0  0  0  0  0  0  0  0  0  0  0
    6.6500    2.1053   -0.0171 H   0  0  0  0  0  0  0  0  0  0  0  0
    5.4834    3.4051    0.3635 H   0  0  0  0  0  0  0  0  0  0  0  0
   -1.7426   -2.2492    1.1790 H   0  0  0  0  0  0  0  0  0  0  0  0
   -1.4264    0.2034   -2.3535 H   0  0  0  0  0  0  0  0  0  0  0  0
   -3.8688   -1.1679    1.7434 H   0  0  0  0  0  0  0  0  0  0  0  0
   -3.5604    1.2898   -1.7885 H   0  0  0  0  0  0  0  0  0  0  0  0
  1 22  1  0  0  0  0
  2 22  1  0  0  0  0
  3 22  1  0  0  0  0
  4 13  2  0  0  0  0
  5  8  1  0  0  0  0
  5 11  1  0  0  0  0
  5 13  1  0  0  0  0
  6  9  1  0  0  0  0
  6 12  1  0  0  0  0
  6 14  1  0  0  0  0
  7 10  1  0  0  0  0
  7 13  1  0  0  0  0
  7 15  1  0  0  0  0
  8  9  1  0  0  0  0
  8 10  1  0  0  0  0
  8 23  1  0  0  0  0
  9 24  1  0  0  0  0
  9 25  1  0  0  0  0
 10 26  1  0  0  0  0
 10 27  1  0  0  0  0
 11 12  1  0  0  0  0
 11 28  1  0  0  0  0
 11 29  1  0  0  0  0
 12 30  1  0  0  0  0
 12 31  1  0  0  0  0
 14 16  1  0  0  0  0
 14 32  1  0  0  0  0
 14 33  1  0  0  0  0
 15 34  1  0  0  0  0
 15 35  1  0  0  0  0
 15 36  1  0  0  0  0
 16 17  2  0  0  0  0
 16 18  1  0  0  0  0
 17 19  1  0  0  0  0
 17 37  1  0  0  0  0
 18 20  2  0  0  0  0
 18 38  1  0  0  0  0
 19 21  2  0  0  0  0
 19 39  1  0  0  0  0
 20 21  1  0  0  0  0
 20 40  1  0  0  0  0
 21 22  1  0  0  0  0
M  END
> <PUBCHEM_COMPOUND_CID>
75537108

> <PUBCHEM_CONFORMER_RMSD>
0.6

> <PUBCHEM_CONFORMER_DIVERSEORDER>
1
17
14
13
10
11
12
6
9
16
18
3
15
4
2
8
7
5

> <PUBCHEM_MMFF94_PARTIAL_CHARGES>
26
1 -0.34
10 0.3
11 0.3
12 0.27
13 0.69
14 0.41
15 0.3
16 -0.14
17 -0.15
18 -0.15
19 -0.15
2 -0.34
20 -0.15
21 -0.14
22 1.16
3 -0.34
37 0.15
38 0.15
39 0.15
4 -0.57
40 0.15
5 -0.66
6 -0.81
7 -0.66
8 0.3
9 0.27

> <PUBCHEM_EFFECTIVE_ROTOR_COUNT>
4.2

> <PUBCHEM_PHARMACOPHORE_FEATURES>
5
1 4 acceptor
1 6 cation
5 5 7 8 10 13 rings
6 16 17 18 19 20 21 rings
6 5 6 8 9 11 12 rings

> <PUBCHEM_HEAVY_ATOM_COUNT>
22

> <PUBCHEM_ATOM_DEF_STEREO_COUNT>
1

> <PUBCHEM_ATOM_UDEF_STEREO_COUNT>
0

> <PUBCHEM_BOND_DEF_STEREO_COUNT>
0

> <PUBCHEM_BOND_UDEF_STEREO_COUNT>
0

> <PUBCHEM_ISOTOPIC_ATOM_COUNT>
0

> <PUBCHEM_COMPONENT_COUNT>
1

> <PUBCHEM_CACTVS_TAUTO_COUNT>
1

> <PUBCHEM_CONFORMER_ID>
04809AD400000001

> <PUBCHEM_MMFF94_ENERGY>
45.8757

> <PUBCHEM_FEATURE_SELFOVERLAP>
25.468

> <PUBCHEM_SHAPE_FINGERPRINT>
10 15 17676202511476718900
10354089 29 18409166602015716354
10670039 82 16630259025459534536
11089746 13 17632286896002677600
11370993 144 18187083927485618091
12236239 1 17704067387055992870
12507560 40 17895187753912999215
12596602 18 17894068511442946441
12633257 1 16732985387467126900
12788726 201 17632305535834325481
12892183 10 16733253565167144822
12954195 1 10087378677390754627
13785724 45 17764871286664383858
1420 369 11674870083273541472
14251751 18 8862937269400250881
14251764 38 18126007053449124897
14251764 75 18196097857123442952
14341114 176 17967534575422721572
14576447 43 8935003681248500474
14790565 3 18119815957018691524
15163728 17 16342314454350123681
15183329 4 15123519094656136246
15188451 53 16009323114571644083
15342168 16 18343019995273537095
15475509 35 16226316003336786890
16760501 71 18334862761520120989
1813 80 14923947833883119767
18222031 100 9079126557442403900
19784866 170 18260550034567833230
19784866 240 10809338932261427015
19784866 9 18411417315339845474
20157964 124 18340202995418288407
20645477 56 18040711455160216847
21033648 29 17168133500060938175
21033650 10 15195302905624550955
21065199 12 17894910707026529747
21637258 2 12757153515320716809
21756936 100 18198902703006422006
21857420 4 12733320217392544049
22122407 14 18272943717157918153
23559900 14 17823436910908996415
2838139 119 18060695083200368073
312425 54 16805320002611340273
335352 9 18411417307272338870
4259306 186 9439401328680584699
4325135 7 18202278131106287183
465052 167 10809349918698190705
474 4 18342455924233586699
5104073 3 18189323732125279794
542803 24 18202282510991344133
57724786 102 18412267203078085204
59682541 52 15410346455116075772
602551 16 15574998411711775978
633830 44 18341327886013137110
636775 72 17548414169817000888
76465 3 8646497314492654326
7970288 3 8213876872374675152
8272917 22 18341612582083723390
960060 61 11167935879195036882

> <PUBCHEM_SHAPE_MULTIPOLES>
410.12
14.41
2.23
1.05
2.81
0.24
0.09
8.65
-3.23
-1.95
-0.01
0.98
-0.08
-0.54

> <PUBCHEM_SHAPE_SELFOVERLAP>
872.602

> <PUBCHEM_SHAPE_VOLUME>
231.2

> <PUBCHEM_COORDINATE_TYPE>
2
5
10

$$$$
