51137953
  -OEChem-12032416323D

 54 57  0     1  0  0  0  0  0999 V2000
   -1.2661    2.4930   -0.9109 O   0  0  0  0  0  0  0  0  0  0  0  0
    0.3442   -0.0859   -0.4198 N   0  0  0  0  0  0  0  0  0  0  0  0
    5.0581    1.7220   -0.2967 N   0  0  0  0  0  0  0  0  0  0  0  0
   -1.7956    1.4854    1.1198 N   0  0  0  0  0  0  0  0  0  0  0  0
    1.1527   -1.1262    0.2299 C   0  0  1  0  0  0  0  0  0  0  0  0
    0.4068    1.2206    0.2194 C   0  0  1  0  0  0  0  0  0  0  0  0
    0.7515   -2.4315   -0.4807 C   0  0  0  0  0  0  0  0  0  0  0  0
    2.6675   -0.8969    0.2255 C   0  0  0  0  0  0  0  0  0  0  0  0
    3.3078    0.3489   -0.0356 C   0  0  0  0  0  0  0  0  0  0  0  0
    1.4210    2.1332   -0.4674 C   0  0  0  0  0  0  0  0  0  0  0  0
    2.8342    1.6729   -0.3368 C   0  0  0  0  0  0  0  0  0  0  0  0
   -0.6084   -2.9679   -0.0235 C   0  0  0  0  0  0  0  0  0  0  0  0
    4.7047    0.4279    0.0048 C   0  0  0  0  0  0  0  0  0  0  0  0
    3.5180   -1.9746    0.5812 C   0  0  0  0  0  0  0  0  0  0  0  0
    3.9425    2.4798   -0.4978 C   0  0  0  0  0  0  0  0  0  0  0  0
   -0.9645    1.8025    0.0590 C   0  0  0  0  0  0  0  0  0  0  0  0
   -0.8958   -4.2901   -0.7389 C   0  0  0  0  0  0  0  0  0  0  0  0
   -1.7482   -1.9817   -0.2826 C   0  0  0  0  0  0  0  0  0  0  0  0
    5.5275   -0.6570    0.3117 C   0  0  0  0  0  0  0  0  0  0  0  0
    4.9066   -1.8622    0.6134 C   0  0  0  0  0  0  0  0  0  0  0  0
   -3.1628    1.9432    1.2173 C   0  0  0  0  0  0  0  0  0  0  0  0
   -4.1239    0.9829    0.5782 C   0  0  0  0  0  0  0  0  0  0  0  0
   -4.4511    1.1174   -0.7710 C   0  0  0  0  0  0  0  0  0  0  0  0
   -4.6897   -0.0437    1.3340 C   0  0  0  0  0  0  0  0  0  0  0  0
   -5.3442    0.2253   -1.3645 C   0  0  0  0  0  0  0  0  0  0  0  0
   -5.5827   -0.9359    0.7407 C   0  0  0  0  0  0  0  0  0  0  0  0
   -5.9101   -0.8014   -0.6086 C   0  0  0  0  0  0  0  0  0  0  0  0
    0.8580   -1.2000    1.2857 H   0  0  0  0  0  0  0  0  0  0  0  0
    0.6371    1.1433    1.2905 H   0  0  0  0  0  0  0  0  0  0  0  0
    0.7619   -2.2938   -1.5722 H   0  0  0  0  0  0  0  0  0  0  0  0
    1.4739   -3.2333   -0.3031 H   0  0  0  0  0  0  0  0  0  0  0  0
    1.1960    2.2366   -1.5383 H   0  0  0  0  0  0  0  0  0  0  0  0
    1.3369    3.1433   -0.0428 H   0  0  0  0  0  0  0  0  0  0  0  0
    0.5640   -0.0212   -1.4131 H   0  0  0  0  0  0  0  0  0  0  0  0
   -0.5700   -3.1753    1.0536 H   0  0  0  0  0  0  0  0  0  0  0  0
    3.1005   -2.9339    0.8782 H   0  0  0  0  0  0  0  0  0  0  0  0
    4.0287    3.5313   -0.7344 H   0  0  0  0  0  0  0  0  0  0  0  0
    6.0077    2.0645   -0.3442 H   0  0  0  0  0  0  0  0  0  0  0  0
   -0.9629   -4.1497   -1.8232 H   0  0  0  0  0  0  0  0  0  0  0  0
   -1.8420   -4.7215   -0.3949 H   0  0  0  0  0  0  0  0  0  0  0  0
   -0.1072   -5.0234   -0.5390 H   0  0  0  0  0  0  0  0  0  0  0  0
   -2.7161   -2.4821   -0.1601 H   0  0  0  0  0  0  0  0  0  0  0  0
   -1.7431   -1.1711    0.4471 H   0  0  0  0  0  0  0  0  0  0  0  0
   -1.7235   -1.5765   -1.2992 H   0  0  0  0  0  0  0  0  0  0  0  0
    6.6077   -0.5613    0.3378 H   0  0  0  0  0  0  0  0  0  0  0  0
    5.5097   -2.7236    0.8880 H   0  0  0  0  0  0  0  0  0  0  0  0
   -1.4501    0.8836    1.8617 H   0  0  0  0  0  0  0  0  0  0  0  0
   -3.3936    2.0682    2.2813 H   0  0  0  0  0  0  0  0  0  0  0  0
   -3.2488    2.9334    0.7541 H   0  0  0  0  0  0  0  0  0  0  0  0
   -4.0199    1.9136   -1.3715 H   0  0  0  0  0  0  0  0  0  0  0  0
   -4.4406   -0.1607    2.3853 H   0  0  0  0  0  0  0  0  0  0  0  0
   -5.5991    0.3300   -2.4150 H   0  0  0  0  0  0  0  0  0  0  0  0
   -6.0222   -1.7361    1.3289 H   0  0  0  0  0  0  0  0  0  0  0  0
   -6.6050   -1.4964   -1.0706 H   0  0  0  0  0  0  0  0  0  0  0  0
  1 16  2  0  0  0  0
  2  5  1  0  0  0  0
  2  6  1  0  0  0  0
  2 34  1  0  0  0  0
  3 13  1  0  0  0  0
  3 15  1  0  0  0  0
  3 38  1  0  0  0  0
  4 16  1  0  0  0  0
  4 21  1  0  0  0  0
  4 47  1  0  0  0  0
  5  7  1  0  0  0  0
  5  8  1  0  0  0  0
  5 28  1  0  0  0  0
  6 10  1  0  0  0  0
  6 16  1  0  0  0  0
  6 29  1  0  0  0  0
  7 12  1  0  0  0  0
  7 30  1  0  0  0  0
  7 31  1  0  0  0  0
  8  9  2  0  0  0  0
  8 14  1  0  0  0  0
  9 11  1  0  0  0  0
  9 13  1  0  0  0  0
 10 11  1  0  0  0  0
 10 32  1  0  0  0  0
 10 33  1  0  0  0  0
 11 15  2  0  0  0  0
 12 17  1  0  0  0  0
 12 18  1  0  0  0  0
 12 35  1  0  0  0  0
 13 19  2  0  0  0  0
 14 20  2  0  0  0  0
 14 36  1  0  0  0  0
 15 37  1  0  0  0  0
 17 39  1  0  0  0  0
 17 40  1  0  0  0  0
 17 41  1  0  0  0  0
 18 42  1  0  0  0  0
 18 43  1  0  0  0  0
 18 44  1  0  0  0  0
 19 20  1  0  0  0  0
 19 45  1  0  0  0  0
 20 46  1  0  0  0  0
 21 22  1  0  0  0  0
 21 48  1  0  0  0  0
 21 49  1  0  0  0  0
 22 23  2  0  0  0  0
 22 24  1  0  0  0  0
 23 25  1  0  0  0  0
 23 50  1  0  0  0  0
 24 26  2  0  0  0  0
 24 51  1  0  0  0  0
 25 27  2  0  0  0  0
 25 52  1  0  0  0  0
 26 27  1  0  0  0  0
 26 53  1  0  0  0  0
 27 54  1  0  0  0  0
M  END
> <PUBCHEM_COMPOUND_CID>
51137953

> <PUBCHEM_CONFORMER_RMSD>
0.8

> <PUBCHEM_CONFORMER_DIVERSEORDER>
1
56
60
4
46
11
26
52
5
40
62
49
13
58
10
55
21
7
63
20
30
64
43
28
51
36
22
32
27
41
23
17
25
35
2
38
50
15
48
29
8
57
31
39
19
53
42
54
14
44
24
16
9
61
33
6
45
12
3
37
59
47
18
34

> <PUBCHEM_MMFF94_PARTIAL_CHARGES>
34
1 -0.57
10 0.18
11 -0.18
13 -0.15
14 -0.15
15 -0.3
16 0.57
19 -0.15
2 -0.9
20 -0.15
21 0.44
22 -0.14
23 -0.15
24 -0.15
25 -0.15
26 -0.15
27 -0.15
3 0.03
34 0.36
36 0.15
37 0.15
38 0.27
4 -0.73
45 0.15
46 0.15
47 0.37
5 0.41
50 0.15
51 0.15
52 0.15
53 0.15
54 0.15
6 0.33
8 -0.14

> <PUBCHEM_EFFECTIVE_ROTOR_COUNT>
6.8

> <PUBCHEM_PHARMACOPHORE_FEATURES>
11
1 1 acceptor
1 2 cation
1 2 donor
1 3 cation
1 3 donor
1 4 donor
3 12 17 18 hydrophobe
5 3 9 11 13 15 rings
6 22 23 24 25 26 27 rings
6 8 9 13 14 19 20 rings
7 2 5 6 8 9 10 11 rings

> <PUBCHEM_HEAVY_ATOM_COUNT>
27

> <PUBCHEM_ATOM_DEF_STEREO_COUNT>
2

> <PUBCHEM_ATOM_UDEF_STEREO_COUNT>
0

> <PUBCHEM_BOND_DEF_STEREO_COUNT>
0

> <PUBCHEM_BOND_UDEF_STEREO_COUNT>
0

> <PUBCHEM_ISOTOPIC_ATOM_COUNT>
0

> <PUBCHEM_COMPONENT_COUNT>
1

> <PUBCHEM_CACTVS_TAUTO_COUNT>
2

> <PUBCHEM_CONFORMER_ID>
030C4DA100000001

> <PUBCHEM_MMFF94_ENERGY>
61.8144

> <PUBCHEM_FEATURE_SELFOVERLAP>
55.952

> <PUBCHEM_SHAPE_FINGERPRINT>
1100329 8 18340768255446702570
11488393 25 17771351872227178503
11513181 2 17845378760842420431
11578080 2 17416110923013062682
11756154 67 18121784920630854742
12236239 1 18202001014635255677
12788726 201 17989496220438854697
13402501 40 18333731317248017783
13583140 156 17675928694368493427
14341114 328 17917439692085358169
14394314 77 18271813449649422705
14787075 74 17989486320660290313
14790565 3 18411420613420924565
15131766 46 15576991912909711756
15196674 1 18409450263146650473
17138139 8 17915717964308465935
17349148 13 18271813410340030105
17857418 61 18411698764193616737
18681886 176 18411131425147479664
19591789 44 18338798918425812700
20028762 73 18200870682433148254
20197701 30 18334009501799842387
20775438 99 16043604997831002663
21197605 99 18339087093536311130
23559900 14 17978224963633478963
25147074 1 18189051053552813940
335352 9 18409729574061289430
338550 245 18261677068604498380
350125 39 18409729556649083872
439807 62 18337951320654864631
474229 33 18411698759961790347
5104073 3 18339364067366223265
5283173 99 17604140429309009725

> <PUBCHEM_SHAPE_MULTIPOLES>
534.83
13.17
3.73
1.03
5.53
2.63
0.07
-1.01
0.5
-0.9
-0.66
1.12
-0.13
-1.08

> <PUBCHEM_SHAPE_SELFOVERLAP>
1156.627

> <PUBCHEM_SHAPE_VOLUME>
292.9

> <PUBCHEM_COORDINATE_TYPE>
2
5
10

$$$$
