71693215
  -OEChem-12032416343D

 49 51  0     1  0  0  0  0  0999 V2000
    6.5641    1.2898   -0.8939 Cl  0  0  0  0  0  0  0  0  0  0  0  0
   -4.8252    1.2564    2.3696 N   0  0  0  0  0  0  0  0  0  0  0  0
    1.8820   -1.0252   -0.8789 N   0  0  0  0  0  0  0  0  0  0  0  0
    1.5973   -0.9263    1.3231 N   0  0  0  0  0  0  0  0  0  0  0  0
   -2.6123    1.0882    0.1611 C   0  0  2  0  0  0  0  0  0  0  0  0
   -1.3705    0.2137    0.3844 C   0  0  0  0  0  0  0  0  0  0  0  0
   -3.9017    0.2510    0.3286 C   0  0  1  0  0  0  0  0  0  0  0  0
   -1.3107   -1.0137   -0.5500 C   0  0  2  0  0  0  0  0  0  0  0  0
   -2.5666    1.7772   -1.2095 C   0  0  0  0  0  0  0  0  0  0  0  0
   -2.6679   -1.6674   -0.7618 C   0  0  0  0  0  0  0  0  0  0  0  0
   -3.8129   -1.0915   -0.3514 C   0  0  0  0  0  0  0  0  0  0  0  0
   -0.2568   -1.9888   -0.0105 C   0  0  0  0  0  0  0  0  0  0  0  0
   -4.2553    0.0454    1.8051 C   0  0  0  0  0  0  0  0  0  0  0  0
   -3.5255    2.9632   -1.2410 C   0  0  0  0  0  0  0  0  0  0  0  0
   -1.1444    2.2227   -1.5337 C   0  0  0  0  0  0  0  0  0  0  0  0
   -2.7014   -2.9724   -1.5089 C   0  0  0  0  0  0  0  0  0  0  0  0
    1.0696   -1.3113    0.1827 C   0  0  0  0  0  0  0  0  0  0  0  0
    3.0088   -0.4146   -0.3912 C   0  0  0  0  0  0  0  0  0  0  0  0
    2.8071   -0.3646    0.9853 C   0  0  0  0  0  0  0  0  0  0  0  0
    4.1523    0.0831   -1.0169 C   0  0  0  0  0  0  0  0  0  0  0  0
    3.7944    0.2124    1.8017 C   0  0  0  0  0  0  0  0  0  0  0  0
    5.1247    0.6539   -0.1891 C   0  0  0  0  0  0  0  0  0  0  0  0
    4.9510    0.7185    1.1953 C   0  0  0  0  0  0  0  0  0  0  0  0
   -2.5796    1.8762    0.9246 H   0  0  0  0  0  0  0  0  0  0  0  0
   -1.4012   -0.1427    1.4239 H   0  0  0  0  0  0  0  0  0  0  0  0
   -0.4518    0.8069    0.3425 H   0  0  0  0  0  0  0  0  0  0  0  0
   -4.7446    0.7682   -0.1453 H   0  0  0  0  0  0  0  0  0  0  0  0
   -0.9813   -0.6826   -1.5431 H   0  0  0  0  0  0  0  0  0  0  0  0
   -2.8769    1.0826   -2.0001 H   0  0  0  0  0  0  0  0  0  0  0  0
   -4.7588   -1.5992   -0.5287 H   0  0  0  0  0  0  0  0  0  0  0  0
   -0.1137   -2.8320   -0.6973 H   0  0  0  0  0  0  0  0  0  0  0  0
   -0.5820   -2.4154    0.9471 H   0  0  0  0  0  0  0  0  0  0  0  0
   -3.3903   -0.2692    2.3980 H   0  0  0  0  0  0  0  0  0  0  0  0
   -5.0079   -0.7463    1.9059 H   0  0  0  0  0  0  0  0  0  0  0  0
   -3.4747    3.4718   -2.2103 H   0  0  0  0  0  0  0  0  0  0  0  0
   -4.5663    2.6627   -1.0952 H   0  0  0  0  0  0  0  0  0  0  0  0
   -3.2745    3.6996   -0.4696 H   0  0  0  0  0  0  0  0  0  0  0  0
   -0.4660    1.3991   -1.7658 H   0  0  0  0  0  0  0  0  0  0  0  0
   -1.1486    2.8551   -2.4301 H   0  0  0  0  0  0  0  0  0  0  0  0
   -0.7143    2.8264   -0.7266 H   0  0  0  0  0  0  0  0  0  0  0  0
   -2.1362   -2.8901   -2.4431 H   0  0  0  0  0  0  0  0  0  0  0  0
   -3.7220   -3.2712   -1.7717 H   0  0  0  0  0  0  0  0  0  0  0  0
   -2.2702   -3.7761   -0.9044 H   0  0  0  0  0  0  0  0  0  0  0  0
   -5.0725    1.0920    3.3447 H   0  0  0  0  0  0  0  0  0  0  0  0
   -4.1337    2.0037    2.3780 H   0  0  0  0  0  0  0  0  0  0  0  0
    1.6880   -1.2254   -1.8512 H   0  0  0  0  0  0  0  0  0  0  0  0
    4.2731    0.0259   -2.0935 H   0  0  0  0  0  0  0  0  0  0  0  0
    3.6686    0.2673    2.8783 H   0  0  0  0  0  0  0  0  0  0  0  0
    5.7163    1.1657    1.8262 H   0  0  0  0  0  0  0  0  0  0  0  0
  1 22  1  0  0  0  0
  2 13  1  0  0  0  0
  2 44  1  0  0  0  0
  2 45  1  0  0  0  0
  3 17  1  0  0  0  0
  3 18  1  0  0  0  0
  3 46  1  0  0  0  0
  4 17  2  0  0  0  0
  4 19  1  0  0  0  0
  5  6  1  0  0  0  0
  5  7  1  0  0  0  0
  5  9  1  0  0  0  0
  5 24  1  0  0  0  0
  6  8  1  0  0  0  0
  6 25  1  0  0  0  0
  6 26  1  0  0  0  0
  7 11  1  0  0  0  0
  7 13  1  0  0  0  0
  7 27  1  0  0  0  0
  8 10  1  0  0  0  0
  8 12  1  0  0  0  0
  8 28  1  0  0  0  0
  9 14  1  0  0  0  0
  9 15  1  0  0  0  0
  9 29  1  0  0  0  0
 10 11  2  0  0  0  0
 10 16  1  0  0  0  0
 11 30  1  0  0  0  0
 12 17  1  0  0  0  0
 12 31  1  0  0  0  0
 12 32  1  0  0  0  0
 13 33  1  0  0  0  0
 13 34  1  0  0  0  0
 14 35  1  0  0  0  0
 14 36  1  0  0  0  0
 14 37  1  0  0  0  0
 15 38  1  0  0  0  0
 15 39  1  0  0  0  0
 15 40  1  0  0  0  0
 16 41  1  0  0  0  0
 16 42  1  0  0  0  0
 16 43  1  0  0  0  0
 18 19  2  0  0  0  0
 18 20  1  0  0  0  0
 19 21  1  0  0  0  0
 20 22  2  0  0  0  0
 20 47  1  0  0  0  0
 21 23  2  0  0  0  0
 21 48  1  0  0  0  0
 22 23  1  0  0  0  0
 23 49  1  0  0  0  0
M  END
> <PUBCHEM_COMPOUND_CID>
71693215

> <PUBCHEM_CONFORMER_RMSD>
0.8

> <PUBCHEM_CONFORMER_DIVERSEORDER>
6
20
9
19
3
16
15
14
18
5
21
7
22
11
10
13
4
23
24
2
8
17
1
12

> <PUBCHEM_MMFF94_PARTIAL_CHARGES>
25
1 -0.18
10 -0.28
11 -0.29
12 0.18
13 0.27
16 0.14
17 0.01
18 -0.15
19 0.23
2 -0.99
20 -0.15
21 -0.15
22 0.18
23 -0.15
3 0.03
30 0.15
4 -0.57
44 0.36
45 0.36
46 0.27
47 0.15
48 0.15
49 0.15
7 0.14
8 0.14

> <PUBCHEM_EFFECTIVE_ROTOR_COUNT>
4.8

> <PUBCHEM_PHARMACOPHORE_FEATURES>
8
1 2 cation
1 2 donor
1 3 donor
3 3 4 17 cation
3 9 14 15 hydrophobe
5 3 4 17 18 19 rings
6 18 19 20 21 22 23 rings
6 5 6 7 8 10 11 rings

> <PUBCHEM_HEAVY_ATOM_COUNT>
23

> <PUBCHEM_ATOM_DEF_STEREO_COUNT>
3

> <PUBCHEM_ATOM_UDEF_STEREO_COUNT>
0

> <PUBCHEM_BOND_DEF_STEREO_COUNT>
0

> <PUBCHEM_BOND_UDEF_STEREO_COUNT>
0

> <PUBCHEM_ISOTOPIC_ATOM_COUNT>
0

> <PUBCHEM_COMPONENT_COUNT>
1

> <PUBCHEM_CACTVS_TAUTO_COUNT>
3

> <PUBCHEM_CONFORMER_ID>
0445F39F00000006

> <PUBCHEM_MMFF94_ENERGY>
41.5479

> <PUBCHEM_FEATURE_SELFOVERLAP>
40.703

> <PUBCHEM_SHAPE_FINGERPRINT>
10165383 225 18130799936007785851
10498660 4 18342165640394886136
10670039 82 18113340782913295532
10803635 8 12823301182139441160
10871710 139 18260541234417214373
11595378 159 17822285769557794060
12173636 292 17703229503867117219
12236239 1 17822282513983353902
12390115 104 17775015565856921691
12403259 415 18337398123743393462
12403814 3 18334011684044005929
12507557 5 16225765250499433838
12555020 224 11240001122685938697
12596602 18 16370724846668788056
12633257 1 18341891917686542760
12892183 10 17167863024120990690
13224815 77 17967526852997468956
13544653 18 12179850485117498998
13583140 156 17168134629183896101
14279260 333 16701477658525398910
14341114 328 17240491273009739073
14468879 13 18044933468468793841
14739800 52 18044919402910212672
14840074 17 18260839240712796477
15575132 122 18260264152970774301
15880784 105 14056720153888433488
16988056 13 16031809909043740533
18186145 218 17988918959996943474
19862831 5 12607398892923881862
20645477 56 18343585144113096046
21623110 236 18196931286873688433
21756936 100 18040156245069983906
21864079 5 18113336405898619316
23198884 109 17346606274103874234
23227448 37 18340477950043878245
23557571 272 17845661468184236662
23559900 14 17774439366156972902
3268164 11 18199733881825052574
376196 1 17177412098410597773
392239 28 17241627141730796441
469060 322 18260548965654044675
5104073 3 17386566852043139288
5252454 2 18272087167075906682
59755656 520 18059583464054477314
633830 44 16917061170703782016
7808743 9 18335978701545542916

> <PUBCHEM_SHAPE_MULTIPOLES>
460.26
12.36
2.55
1.77
14.45
0.44
0.72
4.93
1.73
-3.29
-1.54
-0.97
0.31
-0.72

> <PUBCHEM_SHAPE_SELFOVERLAP>
966.545

> <PUBCHEM_SHAPE_VOLUME>
261.9

> <PUBCHEM_COORDINATE_TYPE>
2
5
10

$$$$
