75536915
  -OEChem-12032416343D

 39 41  0     1  0  0  0  0  0999 V2000
   -0.4321    2.8680   -0.1694 O   0  0  0  0  0  0  0  0  0  0  0  0
    1.2399   -0.1949   -1.0525 O   0  0  0  0  0  0  0  0  0  0  0  0
   -2.1721    0.3344    0.3591 N   0  0  2  0  0  0  0  0  0  0  0  0
   -3.6413   -1.5777   -0.0280 C   0  0  0  0  0  0  0  0  0  0  0  0
   -4.7672   -1.1542   -0.9302 C   0  0  0  0  0  0  0  0  0  0  0  0
   -5.0145   -2.1618    0.1575 C   0  0  0  0  0  0  0  0  0  0  0  0
   -3.0863   -0.6246    0.9804 C   0  0  0  0  0  0  0  0  0  0  0  0
   -0.9083   -0.3254    0.0130 C   0  0  0  0  0  0  0  0  0  0  0  0
   -2.0203    1.5379    1.1781 C   0  0  0  0  0  0  0  0  0  0  0  0
    0.3085    0.5660   -0.2820 C   0  0  2  0  0  0  0  0  0  0  0  0
   -1.7746    2.7517    0.2809 C   0  0  0  0  0  0  0  0  0  0  0  0
   -0.0162    1.8357   -1.0573 C   0  0  0  0  0  0  0  0  0  0  0  0
    2.4648   -0.4165   -0.4861 C   0  0  0  0  0  0  0  0  0  0  0  0
    3.2797    0.6621   -0.1423 C   0  0  0  0  0  0  0  0  0  0  0  0
    2.8991   -1.7211   -0.2519 C   0  0  0  0  0  0  0  0  0  0  0  0
    4.5291    0.4361    0.4354 C   0  0  0  0  0  0  0  0  0  0  0  0
    4.1483   -1.9473    0.3258 C   0  0  0  0  0  0  0  0  0  0  0  0
    4.9634   -0.8686    0.6695 C   0  0  0  0  0  0  0  0  0  0  0  0
   -2.8942   -2.2545   -0.4263 H   0  0  0  0  0  0  0  0  0  0  0  0
   -4.7517   -1.5090   -1.9535 H   0  0  0  0  0  0  0  0  0  0  0  0
   -5.1906   -0.1652   -0.8051 H   0  0  0  0  0  0  0  0  0  0  0  0
   -5.6038   -1.8479    1.0102 H   0  0  0  0  0  0  0  0  0  0  0  0
   -5.1682   -3.1928   -0.1371 H   0  0  0  0  0  0  0  0  0  0  0  0
   -3.9343   -0.0937    1.4331 H   0  0  0  0  0  0  0  0  0  0  0  0
   -2.6066   -1.1744    1.8003 H   0  0  0  0  0  0  0  0  0  0  0  0
   -1.0811   -0.9531   -0.8710 H   0  0  0  0  0  0  0  0  0  0  0  0
   -0.5992   -1.0216    0.8059 H   0  0  0  0  0  0  0  0  0  0  0  0
   -2.9522    1.7499    1.7170 H   0  0  0  0  0  0  0  0  0  0  0  0
   -1.2353    1.4198    1.9344 H   0  0  0  0  0  0  0  0  0  0  0  0
    0.7404    0.8523    0.6883 H   0  0  0  0  0  0  0  0  0  0  0  0
   -2.4601    2.7748   -0.5756 H   0  0  0  0  0  0  0  0  0  0  0  0
   -1.9786    3.6568    0.8642 H   0  0  0  0  0  0  0  0  0  0  0  0
    0.8819    2.2051   -1.5646 H   0  0  0  0  0  0  0  0  0  0  0  0
   -0.7609    1.6673   -1.8450 H   0  0  0  0  0  0  0  0  0  0  0  0
    2.9615    1.6844   -0.3253 H   0  0  0  0  0  0  0  0  0  0  0  0
    2.2680   -2.5649   -0.5171 H   0  0  0  0  0  0  0  0  0  0  0  0
    5.1645    1.2758    0.7013 H   0  0  0  0  0  0  0  0  0  0  0  0
    4.4864   -2.9631    0.5082 H   0  0  0  0  0  0  0  0  0  0  0  0
    5.9363   -1.0447    1.1190 H   0  0  0  0  0  0  0  0  0  0  0  0
  1 11  1  0  0  0  0
  1 12  1  0  0  0  0
  2 10  1  0  0  0  0
  2 13  1  0  0  0  0
  3  7  1  0  0  0  0
  3  8  1  0  0  0  0
  3  9  1  0  0  0  0
  4  5  1  0  0  0  0
  4  6  1  0  0  0  0
  4  7  1  0  0  0  0
  4 19  1  0  0  0  0
  5  6  1  0  0  0  0
  5 20  1  0  0  0  0
  5 21  1  0  0  0  0
  6 22  1  0  0  0  0
  6 23  1  0  0  0  0
  7 24  1  0  0  0  0
  7 25  1  0  0  0  0
  8 10  1  0  0  0  0
  8 26  1  0  0  0  0
  8 27  1  0  0  0  0
  9 11  1  0  0  0  0
  9 28  1  0  0  0  0
  9 29  1  0  0  0  0
 10 12  1  0  0  0  0
 10 30  1  0  0  0  0
 11 31  1  0  0  0  0
 11 32  1  0  0  0  0
 12 33  1  0  0  0  0
 12 34  1  0  0  0  0
 13 14  2  0  0  0  0
 13 15  1  0  0  0  0
 14 16  1  0  0  0  0
 14 35  1  0  0  0  0
 15 17  2  0  0  0  0
 15 36  1  0  0  0  0
 16 18  2  0  0  0  0
 16 37  1  0  0  0  0
 17 18  1  0  0  0  0
 17 38  1  0  0  0  0
 18 39  1  0  0  0  0
M  END
> <PUBCHEM_COMPOUND_CID>
75536915

> <PUBCHEM_CONFORMER_RMSD>
0.8

> <PUBCHEM_CONFORMER_DIVERSEORDER>
1
56
38
51
29
52
3
20
19
34
33
58
25
35
32
54
13
48
6
24
44
47
11
9
31
61
26
12
16
15
45
27
41
60
39
59
37
28
4
55
50
18
57
5
30
42
22
8
23
2
49
21
17
36
7
14
40
46
43
53
10

> <PUBCHEM_MMFF94_PARTIAL_CHARGES>
28
1 -0.56
10 0.28
11 0.28
12 0.28
13 0.08
14 -0.15
15 -0.15
16 -0.15
17 -0.15
18 -0.15
19 0.1
2 -0.36
20 0.1
21 0.1
22 0.1
23 0.1
3 -0.81
35 0.15
36 0.15
37 0.15
38 0.15
39 0.15
4 -0.19
5 -0.2
6 -0.2
7 0.37
8 0.27
9 0.27

> <PUBCHEM_EFFECTIVE_ROTOR_COUNT>
6

> <PUBCHEM_PHARMACOPHORE_FEATURES>
5
1 1 acceptor
1 2 acceptor
1 3 cation
6 13 14 15 16 17 18 rings
7 1 3 8 9 10 11 12 rings

> <PUBCHEM_HEAVY_ATOM_COUNT>
18

> <PUBCHEM_ATOM_DEF_STEREO_COUNT>
1

> <PUBCHEM_ATOM_UDEF_STEREO_COUNT>
0

> <PUBCHEM_BOND_DEF_STEREO_COUNT>
0

> <PUBCHEM_BOND_UDEF_STEREO_COUNT>
0

> <PUBCHEM_ISOTOPIC_ATOM_COUNT>
0

> <PUBCHEM_COMPONENT_COUNT>
1

> <PUBCHEM_CACTVS_TAUTO_COUNT>
1

> <PUBCHEM_CONFORMER_ID>
04809A1300000001

> <PUBCHEM_MMFF94_ENERGY>
63.303

> <PUBCHEM_FEATURE_SELFOVERLAP>
25.372

> <PUBCHEM_SHAPE_FINGERPRINT>
10366900 7 18335148609216332674
10447042 23 18337101354156455534
10681291 71 9439410137706000983
11045515 52 18186798097797236925
11265709 11 18410862087711131417
11458722 120 10087655771109809492
11552529 35 18129662985039165066
11796584 16 17385997425331737659
12346177 29 18041842783573288748
12363563 72 18335150812081101899
12553582 1 18265640790811431191
12633257 1 17916880014327376128
12916754 54 18411702045943775874
13004483 165 18412818093084943191
13083527 12 18341050829903886237
13544653 18 18335707169190879187
13583140 156 17274244051226524130
14178342 30 18128553582291584129
1420 369 18410016545778772811
15099037 37 18272653415732717453
15352361 1 18409449223717306379
17492 89 18339923697726863106
17834072 14 18334573559881095933
18222031 100 18271251611326873318
19141452 34 18339368440091075961
200 152 18334009510410979871
204376 136 9583527512199668455
20567600 70 18192150627569944739
20671657 53 18334861670909378493
20681677 76 18340197510550132240
21065198 57 18123190100463398488
21065199 12 18271520889224243042
21250096 35 18409447024767871351
22079108 93 13686294703538745159
23402539 116 18411697682093706703
23419403 2 17986932194173424529
23557571 272 18130519543162386748
23559900 14 18339635655570576960
24859131 72 18342177730543149751
25 1 9223239528645280372
25147074 1 18265075637635154877
3009799 131 18335688460756475799
3086196 2 18340488876393115137
31174 14 18130498730289129040
312423 11 18337402569176943740
458136 41 9222971261088773789
5104073 3 18199458884328885658
5283173 99 18115010914863400461
56616090 89 18410004459787995633
57100710 210 18342173332470063567
5924683 9 18339640036236414721
76465 3 18335699429691694298
9709674 26 18054509101906971454
9882013 296 18060422421496308242

> <PUBCHEM_SHAPE_MULTIPOLES>
353.71
10.56
2.75
0.98
1.04
1.4
0
-8.11
1.14
-1.71
0.04
-0.3
0.13
-0.54

> <PUBCHEM_SHAPE_SELFOVERLAP>
730.314

> <PUBCHEM_SHAPE_VOLUME>
201.5

> <PUBCHEM_COORDINATE_TYPE>
2
5
10

$$$$
