51137960
  -OEChem-12032416203D

 50 52  0     1  0  0  0  0  0999 V2000
   -2.4351    1.9684   -1.4156 O   0  0  0  0  0  0  0  0  0  0  0  0
   -0.5419   -0.3193   -0.5992 N   0  0  0  0  0  0  0  0  0  0  0  0
    3.8468    2.1476   -0.2026 N   0  0  0  0  0  0  0  0  0  0  0  0
   -3.0140    1.0205    0.6303 N   0  0  0  0  0  0  0  0  0  0  0  0
    0.3353   -1.1922    0.1925 C   0  0  1  0  0  0  0  0  0  0  0  0
   -0.7201    1.0191   -0.0547 C   0  0  1  0  0  0  0  0  0  0  0  0
    0.1862   -2.5820   -0.4523 C   0  0  0  0  0  0  0  0  0  0  0  0
    1.7979   -0.7495    0.3020 C   0  0  0  0  0  0  0  0  0  0  0  0
    2.2839    0.5569    0.0065 C   0  0  0  0  0  0  0  0  0  0  0  0
    0.2209    2.0238   -0.7165 C   0  0  0  0  0  0  0  0  0  0  0  0
    1.6648    1.7789   -0.4309 C   0  0  0  0  0  0  0  0  0  0  0  0
   -1.1251   -3.2785   -0.0760 C   0  0  0  0  0  0  0  0  0  0  0  0
    3.6465    0.8370    0.1614 C   0  0  0  0  0  0  0  0  0  0  0  0
    2.7497   -1.6710    0.8080 C   0  0  0  0  0  0  0  0  0  0  0  0
    2.6626    2.7246   -0.5545 C   0  0  0  0  0  0  0  0  0  0  0  0
   -2.1363    1.3882   -0.3752 C   0  0  0  0  0  0  0  0  0  0  0  0
   -1.1591   -4.6691   -0.7145 C   0  0  0  0  0  0  0  0  0  0  0  0
   -2.3589   -2.4828   -0.5043 C   0  0  0  0  0  0  0  0  0  0  0  0
    4.5767   -0.0986    0.6170 C   0  0  0  0  0  0  0  0  0  0  0  0
    4.1004   -1.3597    0.9517 C   0  0  0  0  0  0  0  0  0  0  0  0
   -4.4340    1.2834    0.5755 C   0  0  0  0  0  0  0  0  0  0  0  0
   -5.1622    0.1433   -0.1255 C   0  0  0  0  0  0  0  0  0  0  0  0
   -4.9848    1.5109    1.9772 C   0  0  0  0  0  0  0  0  0  0  0  0
   -0.0464   -1.2431    1.2215 H   0  0  0  0  0  0  0  0  0  0  0  0
   -0.5853    1.0406    1.0352 H   0  0  0  0  0  0  0  0  0  0  0  0
    0.9910   -3.2601   -0.1545 H   0  0  0  0  0  0  0  0  0  0  0  0
    0.2823   -2.5107   -1.5460 H   0  0  0  0  0  0  0  0  0  0  0  0
   -0.0408    3.0354   -0.3761 H   0  0  0  0  0  0  0  0  0  0  0  0
    0.0875    2.0289   -1.8075 H   0  0  0  0  0  0  0  0  0  0  0  0
   -0.2387   -0.2842   -1.5718 H   0  0  0  0  0  0  0  0  0  0  0  0
   -1.1620   -3.4126    1.0126 H   0  0  0  0  0  0  0  0  0  0  0  0
    2.4408   -2.6604    1.1375 H   0  0  0  0  0  0  0  0  0  0  0  0
    2.6264    3.7614   -0.8593 H   0  0  0  0  0  0  0  0  0  0  0  0
    4.7409    2.6188   -0.1930 H   0  0  0  0  0  0  0  0  0  0  0  0
   -0.3006   -5.2687   -0.3939 H   0  0  0  0  0  0  0  0  0  0  0  0
   -2.0660   -5.2096   -0.4228 H   0  0  0  0  0  0  0  0  0  0  0  0
   -1.1404   -4.6057   -1.8080 H   0  0  0  0  0  0  0  0  0  0  0  0
   -3.2578   -3.1064   -0.4285 H   0  0  0  0  0  0  0  0  0  0  0  0
   -2.5350   -1.6361    0.1605 H   0  0  0  0  0  0  0  0  0  0  0  0
   -2.2923   -2.1415   -1.5423 H   0  0  0  0  0  0  0  0  0  0  0  0
    5.6261    0.1518    0.7292 H   0  0  0  0  0  0  0  0  0  0  0  0
    4.7865   -2.1078    1.3399 H   0  0  0  0  0  0  0  0  0  0  0  0
   -2.6633    0.4851    1.4196 H   0  0  0  0  0  0  0  0  0  0  0  0
   -4.5862    2.1983   -0.0097 H   0  0  0  0  0  0  0  0  0  0  0  0
   -6.2343    0.3525   -0.2015 H   0  0  0  0  0  0  0  0  0  0  0  0
   -4.7745   -0.0059   -1.1392 H   0  0  0  0  0  0  0  0  0  0  0  0
   -5.0372   -0.8004    0.4169 H   0  0  0  0  0  0  0  0  0  0  0  0
   -6.0536    1.7466    1.9445 H   0  0  0  0  0  0  0  0  0  0  0  0
   -4.4686    2.3443    2.4663 H   0  0  0  0  0  0  0  0  0  0  0  0
   -4.8498    0.6246    2.6072 H   0  0  0  0  0  0  0  0  0  0  0  0
  1 16  2  0  0  0  0
  2  5  1  0  0  0  0
  2  6  1  0  0  0  0
  2 30  1  0  0  0  0
  3 13  1  0  0  0  0
  3 15  1  0  0  0  0
  3 34  1  0  0  0  0
  4 16  1  0  0  0  0
  4 21  1  0  0  0  0
  4 43  1  0  0  0  0
  5  7  1  0  0  0  0
  5  8  1  0  0  0  0
  5 24  1  0  0  0  0
  6 10  1  0  0  0  0
  6 16  1  0  0  0  0
  6 25  1  0  0  0  0
  7 12  1  0  0  0  0
  7 26  1  0  0  0  0
  7 27  1  0  0  0  0
  8  9  2  0  0  0  0
  8 14  1  0  0  0  0
  9 11  1  0  0  0  0
  9 13  1  0  0  0  0
 10 11  1  0  0  0  0
 10 28  1  0  0  0  0
 10 29  1  0  0  0  0
 11 15  2  0  0  0  0
 12 17  1  0  0  0  0
 12 18  1  0  0  0  0
 12 31  1  0  0  0  0
 13 19  2  0  0  0  0
 14 20  2  0  0  0  0
 14 32  1  0  0  0  0
 15 33  1  0  0  0  0
 17 35  1  0  0  0  0
 17 36  1  0  0  0  0
 17 37  1  0  0  0  0
 18 38  1  0  0  0  0
 18 39  1  0  0  0  0
 18 40  1  0  0  0  0
 19 20  1  0  0  0  0
 19 41  1  0  0  0  0
 20 42  1  0  0  0  0
 21 22  1  0  0  0  0
 21 23  1  0  0  0  0
 21 44  1  0  0  0  0
 22 45  1  0  0  0  0
 22 46  1  0  0  0  0
 22 47  1  0  0  0  0
 23 48  1  0  0  0  0
 23 49  1  0  0  0  0
 23 50  1  0  0  0  0
M  END
> <PUBCHEM_COMPOUND_CID>
51137960

> <PUBCHEM_CONFORMER_RMSD>
0.8

> <PUBCHEM_CONFORMER_DIVERSEORDER>
1
8
9
18
2
19
17
11
15
5
6
3
20
4
7
16
12
13
14
10

> <PUBCHEM_MMFF94_PARTIAL_CHARGES>
23
1 -0.57
10 0.18
11 -0.18
13 -0.15
14 -0.15
15 -0.3
16 0.57
19 -0.15
2 -0.9
20 -0.15
21 0.3
3 0.03
30 0.36
32 0.15
33 0.15
34 0.27
4 -0.73
41 0.15
42 0.15
43 0.37
5 0.41
6 0.33
8 -0.14

> <PUBCHEM_EFFECTIVE_ROTOR_COUNT>
5.8

> <PUBCHEM_PHARMACOPHORE_FEATURES>
11
1 1 acceptor
1 2 cation
1 2 donor
1 3 cation
1 3 donor
1 4 donor
3 12 17 18 hydrophobe
3 21 22 23 hydrophobe
5 3 9 11 13 15 rings
6 8 9 13 14 19 20 rings
7 2 5 6 8 9 10 11 rings

> <PUBCHEM_HEAVY_ATOM_COUNT>
23

> <PUBCHEM_ATOM_DEF_STEREO_COUNT>
2

> <PUBCHEM_ATOM_UDEF_STEREO_COUNT>
0

> <PUBCHEM_BOND_DEF_STEREO_COUNT>
0

> <PUBCHEM_BOND_UDEF_STEREO_COUNT>
0

> <PUBCHEM_ISOTOPIC_ATOM_COUNT>
0

> <PUBCHEM_COMPONENT_COUNT>
1

> <PUBCHEM_CACTVS_TAUTO_COUNT>
2

> <PUBCHEM_CONFORMER_ID>
030C4DA800000001

> <PUBCHEM_MMFF94_ENERGY>
47.7885

> <PUBCHEM_FEATURE_SELFOVERLAP>
55.951

> <PUBCHEM_SHAPE_FINGERPRINT>
10064457 181 18342459257012073232
104564 63 18051979417556215006
10493431 412 18413669097551583905
10616163 171 18194401323719069830
10967382 1 18264477387566430654
1100329 8 18410852183532442792
11578080 2 17701527648714084440
12035758 1 18197212547671902610
12422481 6 18191894347419739947
12633257 1 18410853243935586606
12788726 201 17986107642093699703
13140716 1 18337382846824432912
13540713 5 18117833524810638908
13583140 156 17023730230736791979
138480 1 17619070534414525759
14178342 30 18050552234811396616
14341114 328 17988652861335773977
14464042 87 18198057191655734247
14790565 3 18411422812708255469
15442244 35 18336537313729610154
16728300 4 17101128028619478554
16945 1 18263064575428438452
17138139 8 17699533083577758319
19591789 44 17978226063509636246
20028762 73 18272643524645347831
20261772 1 18407760330622149760
20739085 24 18191885434624394248
21033648 29 18126539281295802112
21041028 32 17614291382475647243
21197605 99 18263942071765499595
21501502 16 18264202681363115990
23184049 59 18335422326886247824
23558518 356 17832433363912605596
23598288 3 18057884851796866590
25147074 1 18115581707833006164
2748010 2 17759223112933081900
335352 9 18409727357515117406
350125 39 18336541724581622528
465052 167 17968388857039028113
5104073 3 18265881618850513248
6287921 2 17841442436110431307
6438718 38 17987794240974232943
7064713 232 18343579625227573769
7164475 11 18122618620568030710
7832392 63 18410007780309099778

> <PUBCHEM_SHAPE_MULTIPOLES>
452.52
8.97
4.32
1.08
4.68
4.95
0.26
-4.45
3.44
1.23
-1.18
0.78
-0.29
-1.66

> <PUBCHEM_SHAPE_SELFOVERLAP>
957.014

> <PUBCHEM_SHAPE_VOLUME>
254.7

> <PUBCHEM_COORDINATE_TYPE>
2
5
10

$$$$
