7049517
  -OEChem-12032416123D

 53 54  0     1  0  0  0  0  0999 V2000
   -4.7352    3.5165    0.2762 S   0  0  0  0  0  0  0  0  0  0  0  0
    4.7659    1.2887   -2.1773 F   0  0  0  0  0  0  0  0  0  0  0  0
    8.4990   -0.6282    0.0070 F   0  0  0  0  0  0  0  0  0  0  0  0
   -3.4905   -0.4839    1.3826 O   0  0  0  0  0  0  0  0  0  0  0  0
   -3.5036    1.1783   -1.7737 O   0  0  0  0  0  0  0  0  0  0  0  0
    2.2513   -0.8406    1.6631 O   0  0  0  0  0  0  0  0  0  0  0  0
   -5.3397   -2.0071   -1.0135 O   0  0  0  0  0  0  0  0  0  0  0  0
   -2.1310    1.3392    0.0832 N   0  0  0  0  0  0  0  0  0  0  0  0
    0.8095    0.2714    0.2384 N   0  0  0  0  0  0  0  0  0  0  0  0
   -2.7588   -2.2061    0.0036 N   0  0  0  0  0  0  0  0  0  0  0  0
    3.0545    0.2745   -0.2401 N   0  0  0  0  0  0  0  0  0  0  0  0
   -5.6782   -4.2409   -0.5871 N   0  0  0  0  0  0  0  0  0  0  0  0
   -0.4040   -0.0286    0.9606 C   0  0  2  0  0  0  0  0  0  0  0  0
   -1.6133   -0.0241    0.0254 C   0  0  1  0  0  0  0  0  0  0  0  0
   -0.7341    1.0695    1.9752 C   0  0  0  0  0  0  0  0  0  0  0  0
   -1.5016    2.1010    1.1584 C   0  0  0  0  0  0  0  0  0  0  0  0
   -2.7051   -0.9171    0.5352 C   0  0  0  0  0  0  0  0  0  0  0  0
   -2.9890    1.8506   -0.8785 C   0  0  0  0  0  0  0  0  0  0  0  0
    2.0727   -0.1660    0.6517 C   0  0  0  0  0  0  0  0  0  0  0  0
   -3.2839    3.3255   -0.7687 C   0  0  0  0  0  0  0  0  0  0  0  0
   -3.7702   -3.1778    0.4113 C   0  0  0  0  0  0  0  0  0  0  0  0
   -1.8095   -2.6766   -0.9970 C   0  0  0  0  0  0  0  0  0  0  0  0
   -4.9842   -3.0547   -0.4806 C   0  0  0  0  0  0  0  0  0  0  0  0
    4.4490    0.0456   -0.1785 C   0  0  0  0  0  0  0  0  0  0  0  0
   -4.8674    5.3213    0.2438 C   0  0  0  0  0  0  0  0  0  0  0  0
    5.2693    0.5680   -1.1652 C   0  0  0  0  0  0  0  0  0  0  0  0
    4.9654   -0.6996    0.8690 C   0  0  0  0  0  0  0  0  0  0  0  0
    6.6438    0.3391   -1.1023 C   0  0  0  0  0  0  0  0  0  0  0  0
    6.3399   -0.9287    0.9318 C   0  0  0  0  0  0  0  0  0  0  0  0
    7.1790   -0.4093   -0.0540 C   0  0  0  0  0  0  0  0  0  0  0  0
   -0.2716   -0.9909    1.4677 H   0  0  0  0  0  0  0  0  0  0  0  0
   -1.3669   -0.2352   -1.0188 H   0  0  0  0  0  0  0  0  0  0  0  0
   -1.3886    0.6641    2.7565 H   0  0  0  0  0  0  0  0  0  0  0  0
    0.1439    1.5015    2.4652 H   0  0  0  0  0  0  0  0  0  0  0  0
   -0.8136    2.8245    0.7075 H   0  0  0  0  0  0  0  0  0  0  0  0
   -2.2440    2.6337    1.7572 H   0  0  0  0  0  0  0  0  0  0  0  0
    0.7532    0.8862   -0.5679 H   0  0  0  0  0  0  0  0  0  0  0  0
   -3.5013    3.7031   -1.7736 H   0  0  0  0  0  0  0  0  0  0  0  0
   -2.4362    3.8942   -0.3826 H   0  0  0  0  0  0  0  0  0  0  0  0
   -3.3518   -4.1890    0.4025 H   0  0  0  0  0  0  0  0  0  0  0  0
   -4.0944   -2.9521    1.4333 H   0  0  0  0  0  0  0  0  0  0  0  0
   -0.7954   -2.3479   -0.7571 H   0  0  0  0  0  0  0  0  0  0  0  0
   -1.8036   -3.7692   -1.0488 H   0  0  0  0  0  0  0  0  0  0  0  0
   -2.1050   -2.2749   -1.9708 H   0  0  0  0  0  0  0  0  0  0  0  0
    2.7380    0.8265   -1.0335 H   0  0  0  0  0  0  0  0  0  0  0  0
   -3.9671    5.7757    0.6655 H   0  0  0  0  0  0  0  0  0  0  0  0
   -5.7271    5.6301    0.8442 H   0  0  0  0  0  0  0  0  0  0  0  0
   -5.0135    5.6735   -0.7806 H   0  0  0  0  0  0  0  0  0  0  0  0
   -5.3793   -5.0922   -0.1222 H   0  0  0  0  0  0  0  0  0  0  0  0
   -6.5239   -4.3007   -1.1447 H   0  0  0  0  0  0  0  0  0  0  0  0
    4.3847   -1.1347    1.6686 H   0  0  0  0  0  0  0  0  0  0  0  0
    7.2973    0.7435   -1.8695 H   0  0  0  0  0  0  0  0  0  0  0  0
    6.7585   -1.5109    1.7476 H   0  0  0  0  0  0  0  0  0  0  0  0
  1 20  1  0  0  0  0
  1 25  1  0  0  0  0
  2 26  1  0  0  0  0
  3 30  1  0  0  0  0
  4 17  2  0  0  0  0
  5 18  2  0  0  0  0
  6 19  2  0  0  0  0
  7 23  2  0  0  0  0
  8 14  1  0  0  0  0
  8 16  1  0  0  0  0
  8 18  1  0  0  0  0
  9 13  1  0  0  0  0
  9 19  1  0  0  0  0
  9 37  1  0  0  0  0
 10 17  1  0  0  0  0
 10 21  1  0  0  0  0
 10 22  1  0  0  0  0
 11 19  1  0  0  0  0
 11 24  1  0  0  0  0
 11 45  1  0  0  0  0
 12 23  1  0  0  0  0
 12 49  1  0  0  0  0
 12 50  1  0  0  0  0
 13 14  1  0  0  0  0
 13 15  1  0  0  0  0
 13 31  1  0  0  0  0
 14 17  1  0  0  0  0
 14 32  1  0  0  0  0
 15 16  1  0  0  0  0
 15 33  1  0  0  0  0
 15 34  1  0  0  0  0
 16 35  1  0  0  0  0
 16 36  1  0  0  0  0
 18 20  1  0  0  0  0
 20 38  1  0  0  0  0
 20 39  1  0  0  0  0
 21 23  1  0  0  0  0
 21 40  1  0  0  0  0
 21 41  1  0  0  0  0
 22 42  1  0  0  0  0
 22 43  1  0  0  0  0
 22 44  1  0  0  0  0
 24 26  2  0  0  0  0
 24 27  1  0  0  0  0
 25 46  1  0  0  0  0
 25 47  1  0  0  0  0
 25 48  1  0  0  0  0
 26 28  1  0  0  0  0
 27 29  2  0  0  0  0
 27 51  1  0  0  0  0
 28 30  2  0  0  0  0
 28 52  1  0  0  0  0
 29 30  1  0  0  0  0
 29 53  1  0  0  0  0
M  END
> <PUBCHEM_COMPOUND_CID>
7049517

> <PUBCHEM_CONFORMER_RMSD>
1

> <PUBCHEM_CONFORMER_DIVERSEORDER>
1
187
192
87
144
158
70
163
185
142
50
198
38
182
172
90
181
99
175
205
162
112
89
195
29
139
119
161
116
196
83
188
114
194
129
173
128
32
68
137
190
136
23
127
164
39
56
108
146
101
60
202
58
149
145
176
63
67
159
95
178
22
110
166
200
167
177
49
170
197
183
93
174
85
143
109
117
35
171
98
55
43
12
123
151
203
189
71
92
115
102
184
75
105
69
54
91
118
72
41
17
111
134
204
76
193
133
126
24
103
26
66
7
81
122
9
82
124
74
16
106
153
27
150
155
152
73
120
25
40
191
169
15
135
96
48
148
97
20
154
80
157
94
10
65
168
121
147
104
88
77
46
179
141
78
13
199
64
160
201
186
59
140
11
165
132
47
52
100
51
30
42
107
8
37
125
18
5
45
130
53
57
44
36
86
14
33
79
3
138
28
61
156
180
21
62
2
113
4
19
131
6
31
84
34

> <PUBCHEM_MMFF94_PARTIAL_CHARGES>
36
1 -0.46
10 -0.66
11 -0.55
12 -0.8
13 0.3
14 0.36
16 0.3
17 0.57
18 0.57
19 0.69
2 -0.19
20 0.29
21 0.36
22 0.3
23 0.57
24 0.12
25 0.23
26 0.19
27 -0.15
28 -0.15
29 -0.15
3 -0.19
30 0.19
37 0.37
4 -0.57
45 0.37
49 0.37
5 -0.57
50 0.37
51 0.15
52 0.15
53 0.15
6 -0.57
7 -0.57
8 -0.66
9 -0.73

> <PUBCHEM_EFFECTIVE_ROTOR_COUNT>
12

> <PUBCHEM_PHARMACOPHORE_FEATURES>
10
1 11 donor
1 12 donor
1 25 hydrophobe
1 4 acceptor
1 5 acceptor
1 6 acceptor
1 7 acceptor
1 9 donor
5 8 13 14 15 16 rings
6 24 26 27 28 29 30 rings

> <PUBCHEM_HEAVY_ATOM_COUNT>
30

> <PUBCHEM_ATOM_DEF_STEREO_COUNT>
2

> <PUBCHEM_ATOM_UDEF_STEREO_COUNT>
0

> <PUBCHEM_BOND_DEF_STEREO_COUNT>
0

> <PUBCHEM_BOND_UDEF_STEREO_COUNT>
0

> <PUBCHEM_ISOTOPIC_ATOM_COUNT>
0

> <PUBCHEM_COMPONENT_COUNT>
1

> <PUBCHEM_CACTVS_TAUTO_COUNT>
6

> <PUBCHEM_CONFORMER_ID>
006B912D00000001

> <PUBCHEM_MMFF94_ENERGY>
79.2976

> <PUBCHEM_FEATURE_SELFOVERLAP>
50.799

> <PUBCHEM_SHAPE_FINGERPRINT>
10076449 9 18336262431907448563
10411042 1 18194963170456960395
105312 117 18340206267687645341
10595046 47 18260831531800127878
11297750 10 18129090294612022497
12788726 201 18334005129713513819
12954195 1 18410567388788520773
13540713 4 17988062500241921000
13540713 5 17969205759834909307
13631057 29 18411416241408500746
13673619 4 18059297689715361507
13690498 29 18339919419522185375
13757389 114 18338800001307048725
14068700 675 18264204875906866415
14294032 229 18339083692607787697
14347332 77 18409729603445500166
15183329 4 17312816087972141682
15439362 3 17836647426793106196
15461852 350 18410578401659615862
1577012 14 17967536749583235840
15876981 60 18260274061671517933
16990350 14 17116352871171123993
16992828 155 17459464442699984021
16994733 274 14346891168575373775
19427546 20 18410012117825395553
20505436 4 17897164620011624345
21639891 77 18202283623878939625
21709351 56 17894351073473319116
23081809 10 17603869992961959290
249057 25 17895198835593131420
25147074 1 17895180065905702474
3610482 184 17823157678052439916
497634 4 17967808366602908302
531348 171 18261956237453082130
6700243 42 17984737555820656156
7237137 82 18408321107422307005

> <PUBCHEM_SHAPE_MULTIPOLES>
558.31
18.35
4.88
1.46
36.76
1.34
-0.04
-1.44
-3.93
-16.67
-0.76
0.49
0.3
-1.63

> <PUBCHEM_SHAPE_SELFOVERLAP>
1148.693

> <PUBCHEM_SHAPE_VOLUME>
323.9

> <PUBCHEM_COORDINATE_TYPE>
2
5
10

$$$$
