38028556
  -OEChem-12032416143D

 61 62  0     1  0  0  0  0  0999 V2000
   -1.7306    2.7075    1.3776 O   0  0  0  0  0  0  0  0  0  0  0  0
    2.0499   -2.8809   -1.3183 O   0  0  0  0  0  0  0  0  0  0  0  0
    1.7332   -4.2556    0.9747 O   0  0  0  0  0  0  0  0  0  0  0  0
    3.1674   -1.1395   -0.2521 N   0  0  0  0  0  0  0  0  0  0  0  0
   -1.7200    0.5036    2.1148 N   0  0  0  0  0  0  0  0  0  0  0  0
   -3.5970   -1.9439   -0.8877 N   0  0  0  0  0  0  0  0  0  0  0  0
    1.1963    0.9241   -1.2007 C   0  0  1  0  0  0  0  0  0  0  0  0
    2.7399    1.0484   -1.2414 C   0  0  1  0  0  0  0  0  0  0  0  0
    0.5704    2.2031   -0.6240 C   0  0  0  0  0  0  0  0  0  0  0  0
    1.0733    2.5070    0.7999 C   0  0  2  0  0  0  0  0  0  0  0  0
    0.6117    0.6406   -2.5880 C   0  0  0  0  0  0  0  0  0  0  0  0
    2.5801    2.3852    0.9028 C   0  0  0  0  0  0  0  0  0  0  0  0
    3.3095    1.7414   -0.0257 C   0  0  0  0  0  0  0  0  0  0  0  0
    3.4014   -0.3250   -1.4030 C   0  0  0  0  0  0  0  0  0  0  0  0
    0.3787    1.6135    1.8335 C   0  0  0  0  0  0  0  0  0  0  0  0
   -0.7412   -0.0529   -2.4638 C   0  0  0  0  0  0  0  0  0  0  0  0
    0.4855    1.9340   -3.3865 C   0  0  0  0  0  0  0  0  0  0  0  0
    3.2355    3.0605    2.0754 C   0  0  0  0  0  0  0  0  0  0  0  0
   -1.1279    1.7006    1.7393 C   0  0  0  0  0  0  0  0  0  0  0  0
    2.5038   -2.3651   -0.3004 C   0  0  0  0  0  0  0  0  0  0  0  0
   -3.1503    0.2994    2.1235 C   0  0  0  0  0  0  0  0  0  0  0  0
    2.3974   -3.0131    1.0636 C   0  0  0  0  0  0  0  0  0  0  0  0
   -3.6517   -0.2212    0.8074 C   0  0  0  0  0  0  0  0  0  0  0  0
   -4.5937    0.4862    0.0687 C   0  0  0  0  0  0  0  0  0  0  0  0
   -3.1890   -1.4203    0.2899 C   0  0  0  0  0  0  0  0  0  0  0  0
    1.6186   -4.8888    2.2457 C   0  0  0  0  0  0  0  0  0  0  0  0
   -5.0380   -0.0203   -1.1476 C   0  0  0  0  0  0  0  0  0  0  0  0
   -4.5132   -1.2283   -1.5778 C   0  0  0  0  0  0  0  0  0  0  0  0
    0.9248    0.0938   -0.5372 H   0  0  0  0  0  0  0  0  0  0  0  0
    3.0362    1.6560   -2.1058 H   0  0  0  0  0  0  0  0  0  0  0  0
   -0.5202    2.1643   -0.6718 H   0  0  0  0  0  0  0  0  0  0  0  0
    0.8659    3.0733   -1.2257 H   0  0  0  0  0  0  0  0  0  0  0  0
    0.8008    3.5511    1.0095 H   0  0  0  0  0  0  0  0  0  0  0  0
    1.2639   -0.0394   -3.1455 H   0  0  0  0  0  0  0  0  0  0  0  0
    4.3930    1.7260    0.0750 H   0  0  0  0  0  0  0  0  0  0  0  0
    4.4888   -0.2124   -1.4911 H   0  0  0  0  0  0  0  0  0  0  0  0
    3.0667   -0.8364   -2.3095 H   0  0  0  0  0  0  0  0  0  0  0  0
    0.6477    1.9212    2.8513 H   0  0  0  0  0  0  0  0  0  0  0  0
    0.7072    0.5730    1.7200 H   0  0  0  0  0  0  0  0  0  0  0  0
   -1.4806    0.5676   -1.9485 H   0  0  0  0  0  0  0  0  0  0  0  0
   -0.6475   -0.9965   -1.9156 H   0  0  0  0  0  0  0  0  0  0  0  0
   -1.1435   -0.2881   -3.4552 H   0  0  0  0  0  0  0  0  0  0  0  0
   -0.3275    2.5789   -3.0368 H   0  0  0  0  0  0  0  0  0  0  0  0
    0.2441    1.6906   -4.4288 H   0  0  0  0  0  0  0  0  0  0  0  0
    1.4165    2.5079   -3.4118 H   0  0  0  0  0  0  0  0  0  0  0  0
    2.9716    4.1228    2.0982 H   0  0  0  0  0  0  0  0  0  0  0  0
    4.3278    2.9935    2.0322 H   0  0  0  0  0  0  0  0  0  0  0  0
    2.9150    2.6010    3.0151 H   0  0  0  0  0  0  0  0  0  0  0  0
    3.5523   -0.8344    0.6375 H   0  0  0  0  0  0  0  0  0  0  0  0
   -1.1354   -0.2779    2.3968 H   0  0  0  0  0  0  0  0  0  0  0  0
   -3.6405    1.2440    2.3851 H   0  0  0  0  0  0  0  0  0  0  0  0
   -3.3800   -0.4223    2.9152 H   0  0  0  0  0  0  0  0  0  0  0  0
    3.4095   -3.1575    1.4590 H   0  0  0  0  0  0  0  0  0  0  0  0
    1.8407   -2.3374    1.7235 H   0  0  0  0  0  0  0  0  0  0  0  0
   -4.9882    1.4325    0.4282 H   0  0  0  0  0  0  0  0  0  0  0  0
   -2.4551   -2.0199    0.8197 H   0  0  0  0  0  0  0  0  0  0  0  0
    1.0981   -5.8405    2.1095 H   0  0  0  0  0  0  0  0  0  0  0  0
    1.0367   -4.2656    2.9315 H   0  0  0  0  0  0  0  0  0  0  0  0
    2.6100   -5.0877    2.6640 H   0  0  0  0  0  0  0  0  0  0  0  0
   -5.7711    0.5142   -1.7408 H   0  0  0  0  0  0  0  0  0  0  0  0
   -4.8262   -1.6658   -2.5201 H   0  0  0  0  0  0  0  0  0  0  0  0
  1 19  2  0  0  0  0
  2 20  2  0  0  0  0
  3 22  1  0  0  0  0
  3 26  1  0  0  0  0
  4 14  1  0  0  0  0
  4 20  1  0  0  0  0
  4 49  1  0  0  0  0
  5 19  1  0  0  0  0
  5 21  1  0  0  0  0
  5 50  1  0  0  0  0
  6 25  1  0  0  0  0
  6 28  2  0  0  0  0
  7  8  1  0  0  0  0
  7  9  1  0  0  0  0
  7 11  1  0  0  0  0
  7 29  1  0  0  0  0
  8 13  1  0  0  0  0
  8 14  1  0  0  0  0
  8 30  1  0  0  0  0
  9 10  1  0  0  0  0
  9 31  1  0  0  0  0
  9 32  1  0  0  0  0
 10 12  1  0  0  0  0
 10 15  1  0  0  0  0
 10 33  1  0  0  0  0
 11 16  1  0  0  0  0
 11 17  1  0  0  0  0
 11 34  1  0  0  0  0
 12 13  2  0  0  0  0
 12 18  1  0  0  0  0
 13 35  1  0  0  0  0
 14 36  1  0  0  0  0
 14 37  1  0  0  0  0
 15 19  1  0  0  0  0
 15 38  1  0  0  0  0
 15 39  1  0  0  0  0
 16 40  1  0  0  0  0
 16 41  1  0  0  0  0
 16 42  1  0  0  0  0
 17 43  1  0  0  0  0
 17 44  1  0  0  0  0
 17 45  1  0  0  0  0
 18 46  1  0  0  0  0
 18 47  1  0  0  0  0
 18 48  1  0  0  0  0
 20 22  1  0  0  0  0
 21 23  1  0  0  0  0
 21 51  1  0  0  0  0
 21 52  1  0  0  0  0
 22 53  1  0  0  0  0
 22 54  1  0  0  0  0
 23 24  1  0  0  0  0
 23 25  2  0  0  0  0
 24 27  2  0  0  0  0
 24 55  1  0  0  0  0
 25 56  1  0  0  0  0
 26 57  1  0  0  0  0
 26 58  1  0  0  0  0
 26 59  1  0  0  0  0
 27 28  1  0  0  0  0
 27 60  1  0  0  0  0
 28 61  1  0  0  0  0
M  END
> <PUBCHEM_COMPOUND_CID>
38028556

> <PUBCHEM_CONFORMER_RMSD>
1

> <PUBCHEM_CONFORMER_DIVERSEORDER>
1
15
94
33
68
50
88
95
43
89
75
72
16
82
34
19
5
92
81
29
101
37
93
109
12
76
35
48
39
30
65
103
74
110
46
51
99
79
28
40
85
26
78
41
25
108
60
47
53
73
87
102
69
45
3
38
90
59
13
6
7
55
105
80
84
54
21
14
31
71
36
44
96
61
97
42
104
22
77
67
32
11
18
64
86
106
63
24
98
23
8
58
52
17
9
49
57
4
83
107
100
2
62
66
70
10
91
27
56
20

> <PUBCHEM_MMFF94_PARTIAL_CHARGES>
30
1 -0.57
10 0.14
12 -0.28
13 -0.29
14 0.3
15 0.06
18 0.14
19 0.57
2 -0.57
20 0.57
21 0.44
22 0.34
23 -0.14
24 -0.15
25 0.16
26 0.28
27 -0.15
28 0.16
3 -0.56
35 0.15
4 -0.73
49 0.37
5 -0.73
50 0.37
55 0.15
56 0.15
6 -0.62
60 0.15
61 0.15
8 0.14

> <PUBCHEM_EFFECTIVE_ROTOR_COUNT>
11.8

> <PUBCHEM_PHARMACOPHORE_FEATURES>
9
1 1 acceptor
1 2 acceptor
1 3 acceptor
1 4 donor
1 5 donor
1 6 acceptor
3 11 16 17 hydrophobe
6 6 23 24 25 27 28 rings
6 7 8 9 10 12 13 rings

> <PUBCHEM_HEAVY_ATOM_COUNT>
28

> <PUBCHEM_ATOM_DEF_STEREO_COUNT>
3

> <PUBCHEM_ATOM_UDEF_STEREO_COUNT>
0

> <PUBCHEM_BOND_DEF_STEREO_COUNT>
0

> <PUBCHEM_BOND_UDEF_STEREO_COUNT>
0

> <PUBCHEM_ISOTOPIC_ATOM_COUNT>
0

> <PUBCHEM_COMPONENT_COUNT>
1

> <PUBCHEM_CACTVS_TAUTO_COUNT>
4

> <PUBCHEM_CONFORMER_ID>
0244450C00000001

> <PUBCHEM_MMFF94_ENERGY>
55.8725

> <PUBCHEM_FEATURE_SELFOVERLAP>
45.679

> <PUBCHEM_SHAPE_FINGERPRINT>
10064457 181 17975411631427210806
11370993 70 18121210145829659315
11578080 2 18335698291420587308
12156800 1 16450621752100725355
12633257 1 17416708885371413041
13583140 156 18200307853086431717
14251757 17 16805897195066645975
14674994 50 16962939113632803094
19315092 285 17982412114703772895
20511986 3 17560795572165722361
20775530 9 17756998804799435658
25222932 49 17700690937856913271
35225 105 17116644787222971198
46194498 28 16663211496539488317
463206 1 18342187677792811747
513532 50 17605247676335870327

> <PUBCHEM_SHAPE_MULTIPOLES>
543.68
7.97
4.81
3.03
9.83
7.16
-0.97
0.67
-0.62
-5.39
3.2
-0.1
-1.05
-0.51

> <PUBCHEM_SHAPE_SELFOVERLAP>
1107.202

> <PUBCHEM_SHAPE_VOLUME>
312.8

> <PUBCHEM_COORDINATE_TYPE>
2
5
10

$$$$
