71694018
  -OEChem-12032416273D

 45 47  0     1  0  0  0  0  0999 V2000
    4.8959   -0.5967    0.3649 Cl  0  0  0  0  0  0  0  0  0  0  0  0
   -0.3211    2.8783    0.0142 S   0  0  0  0  0  0  0  0  0  0  0  0
   -3.4014   -0.1401    1.7752 O   0  0  0  0  0  0  0  0  0  0  0  0
   -5.0994   -0.9385   -0.2469 O   0  0  0  0  0  0  0  0  0  0  0  0
   -0.6973    3.2574    1.3628 O   0  0  0  0  0  0  0  0  0  0  0  0
   -0.0846    3.8971   -0.9907 O   0  0  0  0  0  0  0  0  0  0  0  0
   -1.4460    1.7602   -0.5934 N   0  0  0  0  0  0  0  0  0  0  0  0
   -1.4701   -0.7155   -0.7260 C   0  0  2  0  0  0  0  0  0  0  0  0
   -1.7472    0.5218    0.1719 C   0  0  2  0  0  0  0  0  0  0  0  0
   -3.2456    0.4762    0.4980 C   0  0  1  0  0  0  0  0  0  0  0  0
   -2.7968   -1.4925   -0.7721 C   0  0  0  0  0  0  0  0  0  0  0  0
   -3.8415   -0.4010   -0.5997 C   0  0  1  0  0  0  0  0  0  0  0  0
   -0.3031   -1.5609   -0.2660 C   0  0  0  0  0  0  0  0  0  0  0  0
    0.7894   -1.7918   -1.1017 C   0  0  0  0  0  0  0  0  0  0  0  0
   -0.3304   -2.1129    1.0148 C   0  0  0  0  0  0  0  0  0  0  0  0
    1.8547   -2.5746   -0.6569 C   0  0  0  0  0  0  0  0  0  0  0  0
    1.1478    1.8999    0.1129 C   0  0  0  0  0  0  0  0  0  0  0  0
    0.8412   -1.2115   -2.4769 C   0  0  0  0  0  0  0  0  0  0  0  0
    0.7349   -2.8958    1.4597 C   0  0  0  0  0  0  0  0  0  0  0  0
    1.8275   -3.1266    0.6240 C   0  0  0  0  0  0  0  0  0  0  0  0
    2.0171    1.8352   -0.9761 C   0  0  0  0  0  0  0  0  0  0  0  0
    1.4375    1.1927    1.2797 C   0  0  0  0  0  0  0  0  0  0  0  0
    3.1762    1.0632   -0.8982 C   0  0  0  0  0  0  0  0  0  0  0  0
    2.5965    0.4207    1.3577 C   0  0  0  0  0  0  0  0  0  0  0  0
    3.4659    0.3559    0.2688 C   0  0  0  0  0  0  0  0  0  0  0  0
   -1.3091   -0.3616   -1.7491 H   0  0  0  0  0  0  0  0  0  0  0  0
   -1.1737    0.5030    1.1006 H   0  0  0  0  0  0  0  0  0  0  0  0
   -3.7295    1.4573    0.5407 H   0  0  0  0  0  0  0  0  0  0  0  0
   -2.9234   -2.0299   -1.7188 H   0  0  0  0  0  0  0  0  0  0  0  0
   -2.8914   -2.2435    0.0213 H   0  0  0  0  0  0  0  0  0  0  0  0
   -3.9489    0.1740   -1.5275 H   0  0  0  0  0  0  0  0  0  0  0  0
   -1.7649    1.8116   -1.5681 H   0  0  0  0  0  0  0  0  0  0  0  0
   -3.0048    0.4534    2.4356 H   0  0  0  0  0  0  0  0  0  0  0  0
   -5.3656   -1.5492   -0.9552 H   0  0  0  0  0  0  0  0  0  0  0  0
   -1.1687   -1.9451    1.6849 H   0  0  0  0  0  0  0  0  0  0  0  0
    2.7128   -2.7659   -1.2957 H   0  0  0  0  0  0  0  0  0  0  0  0
    0.0759   -1.6713   -3.1115 H   0  0  0  0  0  0  0  0  0  0  0  0
    0.7049   -0.1277   -2.4705 H   0  0  0  0  0  0  0  0  0  0  0  0
    1.8095   -1.4006   -2.9542 H   0  0  0  0  0  0  0  0  0  0  0  0
    0.7146   -3.3243    2.4574 H   0  0  0  0  0  0  0  0  0  0  0  0
    2.6575   -3.7351    0.9708 H   0  0  0  0  0  0  0  0  0  0  0  0
    1.8072    2.3713   -1.8971 H   0  0  0  0  0  0  0  0  0  0  0  0
    0.7810    1.2334    2.1440 H   0  0  0  0  0  0  0  0  0  0  0  0
    3.8428    1.0192   -1.7556 H   0  0  0  0  0  0  0  0  0  0  0  0
    2.8105   -0.1237    2.2738 H   0  0  0  0  0  0  0  0  0  0  0  0
  1 25  1  0  0  0  0
  2  5  2  0  0  0  0
  2  6  2  0  0  0  0
  2  7  1  0  0  0  0
  2 17  1  0  0  0  0
  3 10  1  0  0  0  0
  3 33  1  0  0  0  0
  4 12  1  0  0  0  0
  4 34  1  0  0  0  0
  7  9  1  0  0  0  0
  7 32  1  0  0  0  0
  8  9  1  0  0  0  0
  8 11  1  0  0  0  0
  8 13  1  0  0  0  0
  8 26  1  0  0  0  0
  9 10  1  0  0  0  0
  9 27  1  0  0  0  0
 10 12  1  0  0  0  0
 10 28  1  0  0  0  0
 11 12  1  0  0  0  0
 11 29  1  0  0  0  0
 11 30  1  0  0  0  0
 12 31  1  0  0  0  0
 13 14  1  0  0  0  0
 13 15  2  0  0  0  0
 14 16  2  0  0  0  0
 14 18  1  0  0  0  0
 15 19  1  0  0  0  0
 15 35  1  0  0  0  0
 16 20  1  0  0  0  0
 16 36  1  0  0  0  0
 17 21  2  0  0  0  0
 17 22  1  0  0  0  0
 18 37  1  0  0  0  0
 18 38  1  0  0  0  0
 18 39  1  0  0  0  0
 19 20  2  0  0  0  0
 19 40  1  0  0  0  0
 20 41  1  0  0  0  0
 21 23  1  0  0  0  0
 21 42  1  0  0  0  0
 22 24  2  0  0  0  0
 22 43  1  0  0  0  0
 23 25  2  0  0  0  0
 23 44  1  0  0  0  0
 24 25  1  0  0  0  0
 24 45  1  0  0  0  0
M  END
> <PUBCHEM_COMPOUND_CID>
71694018

> <PUBCHEM_CONFORMER_RMSD>
0.8

> <PUBCHEM_CONFORMER_DIVERSEORDER>
1
17
24
15
20
8
21
5
22
2
23
18
14
19
10
7
4
13
6
11
9
16
12
3

> <PUBCHEM_MMFF94_PARTIAL_CHARGES>
35
1 -0.18
10 0.28
12 0.28
13 -0.14
14 -0.14
15 -0.15
16 -0.15
17 -0.01
18 0.14
19 -0.15
2 1.45
20 -0.15
21 -0.15
22 -0.15
23 -0.15
24 -0.15
25 0.18
3 -0.68
32 0.42
33 0.4
34 0.4
35 0.15
36 0.15
4 -0.68
40 0.15
41 0.15
42 0.15
43 0.15
44 0.15
45 0.15
5 -0.65
6 -0.65
7 -0.91
8 0.14
9 0.36

> <PUBCHEM_EFFECTIVE_ROTOR_COUNT>
5

> <PUBCHEM_PHARMACOPHORE_FEATURES>
10
1 3 acceptor
1 3 donor
1 4 acceptor
1 4 donor
1 5 acceptor
1 6 acceptor
1 7 donor
5 8 9 10 11 12 rings
6 13 14 15 16 19 20 rings
6 17 21 22 23 24 25 rings

> <PUBCHEM_HEAVY_ATOM_COUNT>
25

> <PUBCHEM_ATOM_DEF_STEREO_COUNT>
4

> <PUBCHEM_ATOM_UDEF_STEREO_COUNT>
0

> <PUBCHEM_BOND_DEF_STEREO_COUNT>
0

> <PUBCHEM_BOND_UDEF_STEREO_COUNT>
0

> <PUBCHEM_ISOTOPIC_ATOM_COUNT>
0

> <PUBCHEM_COMPONENT_COUNT>
1

> <PUBCHEM_CACTVS_TAUTO_COUNT>
1

> <PUBCHEM_CONFORMER_ID>
0445F6C200000001

> <PUBCHEM_MMFF94_ENERGY>
58.2908

> <PUBCHEM_FEATURE_SELFOVERLAP>
50.775

> <PUBCHEM_SHAPE_FINGERPRINT>
10382601 240 18269573670720425474
104564 63 18340481145657788736
10863032 1 17977380530524940350
11578080 2 17388806483844911398
12011746 2 18334289872933236126
12156800 1 15458285260670799156
12422481 6 18127688219607173738
12553582 1 18409736196057074488
12592029 89 18337388365978759923
12788726 201 18340782502523766468
13140716 1 18268431411209416160
13965767 371 17771649865979619873
14223421 5 18122059806303845702
14787075 74 18334014982088876362
16945 1 18412537738709607438
17492 54 18189344643741171780
20691752 17 18189355497065070821
20905425 154 18198338464256772334
21421861 104 18117844287297063313
23184049 29 18051128094940130679
23419403 2 17463097207553180022
238 59 18194114355473867119
3052486 1 18190475856923135428
465052 167 18116439322401807291
474 4 18336827584446032143
484985 159 14789901745840369394
59755656 215 18341891844619013655
70251023 43 18196095435120467167
9981440 41 16546623883319238001

> <PUBCHEM_SHAPE_MULTIPOLES>
491.75
6.38
4
1.57
2.31
1.45
0.2
-1.13
-0.48
-0.9
-0.25
-0.21
-0.33
-0.38

> <PUBCHEM_SHAPE_SELFOVERLAP>
1032.893

> <PUBCHEM_SHAPE_VOLUME>
280

> <PUBCHEM_COORDINATE_TYPE>
2
5
10

$$$$
