26744351
  -OEChem-12032416183D

 42 45  0     1  0  0  0  0  0999 V2000
   -5.3324    1.8268    2.1436 O   0  0  0  0  0  0  0  0  0  0  0  0
   -1.3007    1.5869   -1.8785 O   0  0  0  0  0  0  0  0  0  0  0  0
    5.4726   -0.7868    1.9110 O   0  5  0  0  0  0  0  0  0  0  0  0
    3.4218   -1.5008    2.2327 O   0  0  0  0  0  0  0  0  0  0  0  0
   -3.0665   -0.4686    0.6046 N   0  0  1  0  0  0  0  0  0  0  0  0
   -0.3989    0.7185   -0.0213 N   0  0  0  0  0  0  0  0  0  0  0  0
   -1.5022   -2.4526   -1.8590 N   0  0  0  0  0  0  0  0  0  0  0  0
   -0.7455   -2.4615    0.2289 N   0  0  0  0  0  0  0  0  0  0  0  0
    0.0852    1.7416   -2.0095 N   0  0  0  0  0  0  0  0  0  0  0  0
    4.2445   -0.7486    1.6567 N   0  3  0  0  0  0  0  0  0  0  0  0
   -2.9372    0.6928   -0.2988 C   0  0  1  0  0  0  0  0  0  0  0  0
   -3.5926    1.8595    0.4634 C   0  0  0  0  0  0  0  0  0  0  0  0
   -4.1003    1.2462    1.7625 C   0  0  2  0  0  0  0  0  0  0  0  0
   -4.2514   -0.2249    1.4251 C   0  0  0  0  0  0  0  0  0  0  0  0
   -3.1411   -1.7406   -0.1022 C   0  0  0  0  0  0  0  0  0  0  0  0
   -1.4998    0.9769   -0.6808 C   0  0  0  0  0  0  0  0  0  0  0  0
   -1.7825   -2.2183   -0.5415 C   0  0  0  0  0  0  0  0  0  0  0  0
    0.5469    1.2056   -0.8757 C   0  0  0  0  0  0  0  0  0  0  0  0
    1.9461    1.1426   -0.5660 C   0  0  0  0  0  0  0  0  0  0  0  0
   -0.2038   -2.8718   -1.9334 C   0  0  0  0  0  0  0  0  0  0  0  0
    0.2420   -2.8693   -0.6327 C   0  0  0  0  0  0  0  0  0  0  0  0
    2.4102    0.2356    0.3868 C   0  0  0  0  0  0  0  0  0  0  0  0
    2.8428    1.9886   -1.2187 C   0  0  0  0  0  0  0  0  0  0  0  0
    3.7711    0.1744    0.6869 C   0  0  0  0  0  0  0  0  0  0  0  0
    4.2037    1.9276   -0.9184 C   0  0  0  0  0  0  0  0  0  0  0  0
    4.6679    1.0203    0.0342 C   0  0  0  0  0  0  0  0  0  0  0  0
   -3.5157    0.5335   -1.2196 H   0  0  0  0  0  0  0  0  0  0  0  0
   -2.9003    2.6820    0.6771 H   0  0  0  0  0  0  0  0  0  0  0  0
   -4.4215    2.2769   -0.1218 H   0  0  0  0  0  0  0  0  0  0  0  0
   -3.3708    1.3876    2.5695 H   0  0  0  0  0  0  0  0  0  0  0  0
   -4.2633   -0.8408    2.3305 H   0  0  0  0  0  0  0  0  0  0  0  0
   -5.1864   -0.4066    0.8787 H   0  0  0  0  0  0  0  0  0  0  0  0
   -3.8436   -1.7042   -0.9446 H   0  0  0  0  0  0  0  0  0  0  0  0
   -3.5202   -2.5147    0.5791 H   0  0  0  0  0  0  0  0  0  0  0  0
   -5.1799    2.7788    2.2702 H   0  0  0  0  0  0  0  0  0  0  0  0
   -2.1366   -2.3360   -2.6380 H   0  0  0  0  0  0  0  0  0  0  0  0
    0.2669   -3.1229   -2.8728 H   0  0  0  0  0  0  0  0  0  0  0  0
    1.2242   -3.1385   -0.2727 H   0  0  0  0  0  0  0  0  0  0  0  0
    1.7046   -0.4218    0.8900 H   0  0  0  0  0  0  0  0  0  0  0  0
    2.5134    2.7111   -1.9613 H   0  0  0  0  0  0  0  0  0  0  0  0
    4.9017    2.5873   -1.4256 H   0  0  0  0  0  0  0  0  0  0  0  0
    5.7347    1.0011    0.2423 H   0  0  0  0  0  0  0  0  0  0  0  0
  1 13  1  0  0  0  0
  1 35  1  0  0  0  0
  2  9  1  0  0  0  0
  2 16  1  0  0  0  0
  3 10  1  0  0  0  0
  4 10  2  0  0  0  0
  5 11  1  0  0  0  0
  5 14  1  0  0  0  0
  5 15  1  0  0  0  0
  6 16  2  0  0  0  0
  6 18  1  0  0  0  0
  7 17  1  0  0  0  0
  7 20  1  0  0  0  0
  7 36  1  0  0  0  0
  8 17  2  0  0  0  0
  8 21  1  0  0  0  0
  9 18  2  0  0  0  0
 10 24  1  0  0  0  0
 11 12  1  0  0  0  0
 11 16  1  0  0  0  0
 11 27  1  0  0  0  0
 12 13  1  0  0  0  0
 12 28  1  0  0  0  0
 12 29  1  0  0  0  0
 13 14  1  0  0  0  0
 13 30  1  0  0  0  0
 14 31  1  0  0  0  0
 14 32  1  0  0  0  0
 15 17  1  0  0  0  0
 15 33  1  0  0  0  0
 15 34  1  0  0  0  0
 18 19  1  0  0  0  0
 19 22  2  0  0  0  0
 19 23  1  0  0  0  0
 20 21  2  0  0  0  0
 20 37  1  0  0  0  0
 21 38  1  0  0  0  0
 22 24  1  0  0  0  0
 22 39  1  0  0  0  0
 23 25  2  0  0  0  0
 23 40  1  0  0  0  0
 24 26  2  0  0  0  0
 25 26  1  0  0  0  0
 25 41  1  0  0  0  0
 26 42  1  0  0  0  0
M  CHG  2   3  -1  10   1
M  END
> <PUBCHEM_COMPOUND_CID>
26744351

> <PUBCHEM_CONFORMER_RMSD>
0.8

> <PUBCHEM_CONFORMER_DIVERSEORDER>
1
71
28
54
39
53
73
23
18
26
7
48
62
63
24
14
51
60
31
33
44
25
22
68
38
27
66
47
41
35
65
58
49
8
4
16
59
17
36
3
57
67
50
5
37
69
10
64
42
13
2
12
52
11
32
29
61
55
15
45
43
46
72
40
30
56
34
19
70
6
20
9
21

> <PUBCHEM_MMFF94_PARTIAL_CHARGES>
33
1 -0.68
10 0.91
11 0.45
13 0.28
14 0.27
15 0.45
16 0.3
17 0.01
18 0.46
19 0.05
2 -0.02
20 -0.3
21 0.08
22 -0.15
23 -0.15
24 0.13
25 -0.15
26 -0.15
3 -0.52
35 0.4
36 0.27
37 0.15
38 0.15
39 0.15
4 -0.52
40 0.15
41 0.15
42 0.15
5 -0.81
6 -0.57
7 0.03
8 -0.57
9 -0.41

> <PUBCHEM_EFFECTIVE_ROTOR_COUNT>
6

> <PUBCHEM_PHARMACOPHORE_FEATURES>
13
1 1 acceptor
1 1 donor
1 3 acceptor
1 3 anion
1 4 acceptor
1 5 cation
1 7 donor
3 6 9 18 cation
3 7 8 17 cation
5 2 6 9 16 18 rings
5 5 11 12 13 14 rings
5 7 8 17 20 21 rings
6 19 22 23 24 25 26 rings

> <PUBCHEM_HEAVY_ATOM_COUNT>
26

> <PUBCHEM_ATOM_DEF_STEREO_COUNT>
2

> <PUBCHEM_ATOM_UDEF_STEREO_COUNT>
0

> <PUBCHEM_BOND_DEF_STEREO_COUNT>
0

> <PUBCHEM_BOND_UDEF_STEREO_COUNT>
0

> <PUBCHEM_ISOTOPIC_ATOM_COUNT>
0

> <PUBCHEM_COMPONENT_COUNT>
1

> <PUBCHEM_CACTVS_TAUTO_COUNT>
1

> <PUBCHEM_CONFORMER_ID>
0198161F00000001

> <PUBCHEM_MMFF94_ENERGY>
49.4939

> <PUBCHEM_FEATURE_SELFOVERLAP>
66.055

> <PUBCHEM_SHAPE_FINGERPRINT>
11725454 13 16343702097499570385
11954058 11 15286509672108322019
12422481 6 18263648376793986811
12553582 1 17968364750089072364
12633257 1 18344144808532691000
12788726 201 17911808186585243975
12839892 36 18341343266354496027
13004483 165 17054977501169682615
13583140 156 17385994040622831228
14294032 229 17917165991511338131
14840074 17 18114473339191349596
15238133 3 17918278636616427016
15537594 2 18041003964229508308
16110190 28 18334290964466501810
1813 80 13045954524853557465
19319366 153 16314458739445059661
20261772 1 18334010605780341786
20554085 129 17775286011452717793
21033648 29 16271932618363217808
212916 134 17846503612571019993
22182313 1 17899148118156906077
23559900 14 17774181040736911756
23728640 28 18126575741188488975
3411729 13 18196953084396666169
5265222 85 17769967832623033748
58807428 26 18411428280307066315
6438718 38 18270681008026976254
7064713 232 18343581841304117218
9862522 239 18410004404227649445

> <PUBCHEM_SHAPE_MULTIPOLES>
481.7
9.9
3.19
2.04
3.87
2.35
-0.39
-4.25
-7.01
-1.47
1.18
0.51
0.1
-2.75

> <PUBCHEM_SHAPE_SELFOVERLAP>
1054.459

> <PUBCHEM_SHAPE_VOLUME>
261.8

> <PUBCHEM_COORDINATE_TYPE>
2
5
10

$$$$
