11885051
  -OEChem-12032416343D

 64 66  0     1  0  0  0  0  0999 V2000
    0.9204    2.2473   -0.3412 S   0  0  0  0  0  0  0  0  0  0  0  0
   -6.6407    0.1364   -0.3442 O   0  0  0  0  0  0  0  0  0  0  0  0
   -6.1077    2.0495    0.9976 O   0  0  0  0  0  0  0  0  0  0  0  0
    1.6536   -3.5056    0.7467 O   0  0  0  0  0  0  0  0  0  0  0  0
    1.0350   -2.8977   -1.3578 O   0  0  0  0  0  0  0  0  0  0  0  0
    4.1446   -1.0942   -0.7339 O   0  0  0  0  0  0  0  0  0  0  0  0
    1.3035   -0.3102   -0.4124 N   0  0  0  0  0  0  0  0  0  0  0  0
    3.2570    1.0879   -0.6091 N   0  0  0  0  0  0  0  0  0  0  0  0
   -2.4394   -0.7626    0.3964 C   0  0  2  0  0  0  0  0  0  0  0  0
   -2.8451    0.5808   -0.3560 C   0  0  1  0  0  0  0  0  0  0  0  0
   -4.3556    1.0253   -0.2627 C   0  0  1  0  0  0  0  0  0  0  0  0
   -1.0285   -1.2435   -0.1795 C   0  0  1  0  0  0  0  0  0  0  0  0
   -3.4911   -1.8613    0.0933 C   0  0  0  0  0  0  0  0  0  0  0  0
   -5.2688   -0.2006   -0.5473 C   0  0  1  0  0  0  0  0  0  0  0  0
   -1.8347    1.7268   -0.0581 C   0  0  0  0  0  0  0  0  0  0  0  0
   -4.9298   -1.4146    0.3106 C   0  0  0  0  0  0  0  0  0  0  0  0
   -2.3352   -0.5843    1.9312 C   0  0  0  0  0  0  0  0  0  0  0  0
   -0.0530   -0.0968   -0.2509 C   0  0  0  0  0  0  0  0  0  0  0  0
   -4.7429    1.7029    1.0703 C   0  0  0  0  0  0  0  0  0  0  0  0
   -4.6423    2.0817   -1.3672 C   0  0  0  0  0  0  0  0  0  0  0  0
   -0.4378    1.2279   -0.2129 C   0  0  0  0  0  0  0  0  0  0  0  0
   -0.4221   -2.4526    0.5454 C   0  0  0  0  0  0  0  0  0  0  0  0
    0.8042   -2.9564   -0.1593 C   0  0  0  0  0  0  0  0  0  0  0  0
    1.9154    0.8530   -0.4648 C   0  0  0  0  0  0  0  0  0  0  0  0
    4.2740    0.1268   -0.7328 C   0  0  0  0  0  0  0  0  0  0  0  0
    5.6586    0.7491   -0.8699 C   0  0  0  0  0  0  0  0  0  0  0  0
    6.4353    0.9013    0.4598 C   0  0  0  0  0  0  0  0  0  0  0  0
    5.7217    1.8626    1.4243 C   0  0  0  0  0  0  0  0  0  0  0  0
    7.8261    1.4816    0.1356 C   0  0  0  0  0  0  0  0  0  0  0  0
    6.6253   -0.4603    1.1491 C   0  0  0  0  0  0  0  0  0  0  0  0
   -2.7035    0.3384   -1.4237 H   0  0  0  0  0  0  0  0  0  0  0  0
   -1.1983   -1.5368   -1.2271 H   0  0  0  0  0  0  0  0  0  0  0  0
   -3.3894   -2.1882   -0.9501 H   0  0  0  0  0  0  0  0  0  0  0  0
   -3.3096   -2.7493    0.7101 H   0  0  0  0  0  0  0  0  0  0  0  0
   -5.1669   -0.4965   -1.6002 H   0  0  0  0  0  0  0  0  0  0  0  0
   -1.9970    2.5621   -0.7474 H   0  0  0  0  0  0  0  0  0  0  0  0
   -1.9657    2.1079    0.9601 H   0  0  0  0  0  0  0  0  0  0  0  0
   -5.1263   -1.2095    1.3688 H   0  0  0  0  0  0  0  0  0  0  0  0
   -5.6082   -2.2376    0.0515 H   0  0  0  0  0  0  0  0  0  0  0  0
   -1.5689    0.1410    2.2188 H   0  0  0  0  0  0  0  0  0  0  0  0
   -3.2712   -0.2734    2.3887 H   0  0  0  0  0  0  0  0  0  0  0  0
   -2.0827   -1.5304    2.4228 H   0  0  0  0  0  0  0  0  0  0  0  0
   -4.6415    1.0425    1.9268 H   0  0  0  0  0  0  0  0  0  0  0  0
   -4.1599    2.6071    1.2712 H   0  0  0  0  0  0  0  0  0  0  0  0
   -5.7044    2.3225   -1.4741 H   0  0  0  0  0  0  0  0  0  0  0  0
   -4.3046    1.7221   -2.3464 H   0  0  0  0  0  0  0  0  0  0  0  0
   -4.1241    3.0256   -1.1674 H   0  0  0  0  0  0  0  0  0  0  0  0
   -1.1272   -3.2869    0.6026 H   0  0  0  0  0  0  0  0  0  0  0  0
   -0.1314   -2.1693    1.5640 H   0  0  0  0  0  0  0  0  0  0  0  0
   -6.9348    0.6691   -1.1014 H   0  0  0  0  0  0  0  0  0  0  0  0
   -6.1739    2.9309    0.5931 H   0  0  0  0  0  0  0  0  0  0  0  0
    3.5192    2.0701   -0.6227 H   0  0  0  0  0  0  0  0  0  0  0  0
    2.4704   -3.8452    0.3228 H   0  0  0  0  0  0  0  0  0  0  0  0
    6.2232    0.1154   -1.5669 H   0  0  0  0  0  0  0  0  0  0  0  0
    5.5635    1.7250   -1.3637 H   0  0  0  0  0  0  0  0  0  0  0  0
    5.5388    2.8338    0.9513 H   0  0  0  0  0  0  0  0  0  0  0  0
    4.7581    1.4613    1.7553 H   0  0  0  0  0  0  0  0  0  0  0  0
    6.3242    2.0390    2.3228 H   0  0  0  0  0  0  0  0  0  0  0  0
    8.3835    0.8210   -0.5382 H   0  0  0  0  0  0  0  0  0  0  0  0
    8.4253    1.6108    1.0441 H   0  0  0  0  0  0  0  0  0  0  0  0
    7.7428    2.4608   -0.3494 H   0  0  0  0  0  0  0  0  0  0  0  0
    7.0976   -1.1828    0.4740 H   0  0  0  0  0  0  0  0  0  0  0  0
    7.2640   -0.3675    2.0351 H   0  0  0  0  0  0  0  0  0  0  0  0
    5.6713   -0.8826    1.4819 H   0  0  0  0  0  0  0  0  0  0  0  0
  1 21  1  0  0  0  0
  1 24  1  0  0  0  0
  2 14  1  0  0  0  0
  2 50  1  0  0  0  0
  3 19  1  0  0  0  0
  3 51  1  0  0  0  0
  4 23  1  0  0  0  0
  4 53  1  0  0  0  0
  5 23  2  0  0  0  0
  6 25  2  0  0  0  0
  7 18  1  0  0  0  0
  7 24  2  0  0  0  0
  8 24  1  0  0  0  0
  8 25  1  0  0  0  0
  8 52  1  0  0  0  0
  9 10  1  0  0  0  0
  9 12  1  0  0  0  0
  9 13  1  0  0  0  0
  9 17  1  0  0  0  0
 10 11  1  0  0  0  0
 10 15  1  0  0  0  0
 10 31  1  0  0  0  0
 11 14  1  0  0  0  0
 11 19  1  0  0  0  0
 11 20  1  0  0  0  0
 12 18  1  0  0  0  0
 12 22  1  0  0  0  0
 12 32  1  0  0  0  0
 13 16  1  0  0  0  0
 13 33  1  0  0  0  0
 13 34  1  0  0  0  0
 14 16  1  0  0  0  0
 14 35  1  0  0  0  0
 15 21  1  0  0  0  0
 15 36  1  0  0  0  0
 15 37  1  0  0  0  0
 16 38  1  0  0  0  0
 16 39  1  0  0  0  0
 17 40  1  0  0  0  0
 17 41  1  0  0  0  0
 17 42  1  0  0  0  0
 18 21  2  0  0  0  0
 19 43  1  0  0  0  0
 19 44  1  0  0  0  0
 20 45  1  0  0  0  0
 20 46  1  0  0  0  0
 20 47  1  0  0  0  0
 22 23  1  0  0  0  0
 22 48  1  0  0  0  0
 22 49  1  0  0  0  0
 25 26  1  0  0  0  0
 26 27  1  0  0  0  0
 26 54  1  0  0  0  0
 26 55  1  0  0  0  0
 27 28  1  0  0  0  0
 27 29  1  0  0  0  0
 27 30  1  0  0  0  0
 28 56  1  0  0  0  0
 28 57  1  0  0  0  0
 28 58  1  0  0  0  0
 29 59  1  0  0  0  0
 29 60  1  0  0  0  0
 29 61  1  0  0  0  0
 30 62  1  0  0  0  0
 30 63  1  0  0  0  0
 30 64  1  0  0  0  0
M  END
> <PUBCHEM_COMPOUND_CID>
11885051

> <PUBCHEM_CONFORMER_RMSD>
1

> <PUBCHEM_CONFORMER_DIVERSEORDER>
1
9
12
11
13
5
3
10
8
4
2
6
7

> <PUBCHEM_MMFF94_PARTIAL_CHARGES>
23
1 -0.08
12 0.18
14 0.28
15 0.18
18 0.05
19 0.28
2 -0.68
21 -0.14
22 0.06
23 0.66
24 0.44
25 0.57
26 0.06
3 -0.68
4 -0.65
5 -0.57
50 0.4
51 0.4
52 0.37
53 0.5
6 -0.57
7 -0.57
8 -0.49

> <PUBCHEM_EFFECTIVE_ROTOR_COUNT>
8.2

> <PUBCHEM_PHARMACOPHORE_FEATURES>
13
1 2 acceptor
1 2 donor
1 3 acceptor
1 3 donor
1 4 acceptor
1 5 acceptor
1 6 acceptor
1 8 donor
3 4 5 23 anion
4 27 28 29 30 hydrophobe
5 1 7 18 21 24 rings
6 9 10 11 13 14 16 rings
6 9 10 12 15 18 21 rings

> <PUBCHEM_HEAVY_ATOM_COUNT>
30

> <PUBCHEM_ATOM_DEF_STEREO_COUNT>
5

> <PUBCHEM_ATOM_UDEF_STEREO_COUNT>
0

> <PUBCHEM_BOND_DEF_STEREO_COUNT>
0

> <PUBCHEM_BOND_UDEF_STEREO_COUNT>
0

> <PUBCHEM_ISOTOPIC_ATOM_COUNT>
0

> <PUBCHEM_COMPONENT_COUNT>
1

> <PUBCHEM_CACTVS_TAUTO_COUNT>
3

> <PUBCHEM_CONFORMER_ID>
00B559FB00000001

> <PUBCHEM_MMFF94_ENERGY>
96.493

> <PUBCHEM_FEATURE_SELFOVERLAP>
66.173

> <PUBCHEM_SHAPE_FINGERPRINT>
10 15 18040722471572073752
10411042 1 17689156029778837059
10675989 125 17540806197269613581
10906281 52 18261692405611049648
10930396 42 18195219292199759584
11135926 11 18409726227864787655
11315181 36 18336549407941024649
11578080 2 16734650989276326703
11719270 70 18408036299983842118
12422481 6 17749943367717001638
12516196 113 18130788966856899748
12838862 33 18337655490720771869
13140716 1 18337121175852707753
13402501 40 18341613741803572684
13631057 29 18272085059133389087
14251764 18 18261111897820844268
14251764 30 11386363751389129896
14394314 77 18408322190155661480
14466204 15 18408039615276679300
14790565 3 18335989748006301476
15021287 119 16877942771527799508
15183329 4 18113903766625275972
16994733 274 16487260945418392770
17980427 23 17895202141884467309
18608769 82 18336552720210058267
18681886 176 18338510958106929753
20197701 30 18413387653056706974
20554085 129 18200578242609983752
21033648 29 18059283370758490568
21130935 74 18411419505916000554
21236236 1 18410012165207036453
21279426 13 18337676299974516846
21298829 104 18341336616964348113
21859007 373 17896298303765689996
23559900 14 18341889735753693585
3004659 81 18113624508463691444
3178227 256 18336559299598490585
335352 9 18335983163652410997
3383291 50 18189339124650421395
3411729 13 18335138644555108746
34934 24 18341334396909231415
3680242 22 18259985934074990010
38695281 34 18272653445682217439
4017518 198 18059864991462690942
4073 2 17750238178968320640
4093350 32 17346043259699674086
4340502 62 18412260623884227726
5085150 59 18410285930601737450
5104073 3 18336271154152714027
5265222 85 18265057023752900028
5385378 56 18337115553170324707
5758199 1 18341899575655371041
59755656 215 18408326575011049343
6004065 56 18200869694558638069
6138700 20 18408324367687814454
7226269 152 18343021103480860696
9981440 41 18259708895462354099

> <PUBCHEM_SHAPE_MULTIPOLES>
581.93
17.19
3.05
1.18
18.55
2.04
-0.27
-8.65
-2.57
-0.62
-0.01
0.08
-0.09
0.42

> <PUBCHEM_SHAPE_SELFOVERLAP>
1205.65

> <PUBCHEM_SHAPE_VOLUME>
336.4

> <PUBCHEM_COORDINATE_TYPE>
2
5
10

$$$$
