75367732
  -OEChem-12032416403D

 39 40  0     1  0  0  0  0  0999 V2000
   -4.9041    1.0711   -1.6324 F   0  0  0  0  0  0  0  0  0  0  0  0
   -5.9870    0.9670    0.2630 F   0  0  0  0  0  0  0  0  0  0  0  0
   -3.9107    1.6488    0.2555 F   0  0  0  0  0  0  0  0  0  0  0  0
    3.4298    2.2612    0.8002 O   0  0  0  0  0  0  0  0  0  0  0  0
    5.4099    0.0047   -1.1858 O   0  0  0  0  0  0  0  0  0  0  0  0
   -4.3697   -0.5601   -0.1207 O   0  0  0  0  0  0  0  0  0  0  0  0
    1.9690   -0.4255    0.1888 N   0  0  2  0  0  0  0  0  0  0  0  0
    3.2933   -0.7592   -0.3471 C   0  0  0  0  0  0  0  0  0  0  0  0
    4.4079    0.2899   -0.2087 C   0  0  2  0  0  0  0  0  0  0  0  0
    1.9978    0.3484    1.4307 C   0  0  0  0  0  0  0  0  0  0  0  0
    1.1642   -1.6392    0.3322 C   0  0  0  0  0  0  0  0  0  0  0  0
    3.9471    1.7267   -0.4138 C   0  0  0  0  0  0  0  0  0  0  0  0
    2.1095    1.8401    1.1134 C   0  0  0  0  0  0  0  0  0  0  0  0
   -0.3090   -1.3525    0.2118 C   0  0  0  0  0  0  0  0  0  0  0  0
   -1.1705   -1.6735    1.2609 C   0  0  0  0  0  0  0  0  0  0  0  0
   -0.8122   -0.7652   -0.9490 C   0  0  0  0  0  0  0  0  0  0  0  0
    6.2636   -1.0441   -0.7569 C   0  0  0  0  0  0  0  0  0  0  0  0
   -2.5351   -1.4076    1.1491 C   0  0  0  0  0  0  0  0  0  0  0  0
   -2.1768   -0.4993   -1.0609 C   0  0  0  0  0  0  0  0  0  0  0  0
   -3.0383   -0.8204   -0.0119 C   0  0  0  0  0  0  0  0  0  0  0  0
   -4.7789    0.7887   -0.3183 C   0  0  0  0  0  0  0  0  0  0  0  0
    3.1737   -1.0108   -1.4097 H   0  0  0  0  0  0  0  0  0  0  0  0
    3.6563   -1.6783    0.1336 H   0  0  0  0  0  0  0  0  0  0  0  0
    4.8434    0.2216    0.7982 H   0  0  0  0  0  0  0  0  0  0  0  0
    2.7996    0.0124    2.0993 H   0  0  0  0  0  0  0  0  0  0  0  0
    1.0569    0.2258    1.9807 H   0  0  0  0  0  0  0  0  0  0  0  0
    1.4009   -2.1634    1.2680 H   0  0  0  0  0  0  0  0  0  0  0  0
    1.3928   -2.3534   -0.4721 H   0  0  0  0  0  0  0  0  0  0  0  0
    4.8062    2.3501   -0.6873 H   0  0  0  0  0  0  0  0  0  0  0  0
    3.2237    1.8255   -1.2323 H   0  0  0  0  0  0  0  0  0  0  0  0
    1.4204    2.1426    0.3147 H   0  0  0  0  0  0  0  0  0  0  0  0
    1.8145    2.4039    2.0056 H   0  0  0  0  0  0  0  0  0  0  0  0
   -0.7922   -2.1302    2.1715 H   0  0  0  0  0  0  0  0  0  0  0  0
   -0.1544   -0.5155   -1.7774 H   0  0  0  0  0  0  0  0  0  0  0  0
    7.0442   -1.1734   -1.5123 H   0  0  0  0  0  0  0  0  0  0  0  0
    5.7238   -1.9906   -0.6693 H   0  0  0  0  0  0  0  0  0  0  0  0
    6.7494   -0.7928    0.1912 H   0  0  0  0  0  0  0  0  0  0  0  0
   -3.2013   -1.6592    1.9697 H   0  0  0  0  0  0  0  0  0  0  0  0
   -2.5565   -0.0488   -1.9738 H   0  0  0  0  0  0  0  0  0  0  0  0
  1 21  1  0  0  0  0
  2 21  1  0  0  0  0
  3 21  1  0  0  0  0
  4 12  1  0  0  0  0
  4 13  1  0  0  0  0
  5  9  1  0  0  0  0
  5 17  1  0  0  0  0
  6 20  1  0  0  0  0
  6 21  1  0  0  0  0
  7  8  1  0  0  0  0
  7 10  1  0  0  0  0
  7 11  1  0  0  0  0
  8  9  1  0  0  0  0
  8 22  1  0  0  0  0
  8 23  1  0  0  0  0
  9 12  1  0  0  0  0
  9 24  1  0  0  0  0
 10 13  1  0  0  0  0
 10 25  1  0  0  0  0
 10 26  1  0  0  0  0
 11 14  1  0  0  0  0
 11 27  1  0  0  0  0
 11 28  1  0  0  0  0
 12 29  1  0  0  0  0
 12 30  1  0  0  0  0
 13 31  1  0  0  0  0
 13 32  1  0  0  0  0
 14 15  2  0  0  0  0
 14 16  1  0  0  0  0
 15 18  1  0  0  0  0
 15 33  1  0  0  0  0
 16 19  2  0  0  0  0
 16 34  1  0  0  0  0
 17 35  1  0  0  0  0
 17 36  1  0  0  0  0
 17 37  1  0  0  0  0
 18 20  2  0  0  0  0
 18 38  1  0  0  0  0
 19 20  1  0  0  0  0
 19 39  1  0  0  0  0
M  END
> <PUBCHEM_COMPOUND_CID>
75367732

> <PUBCHEM_CONFORMER_RMSD>
0.8

> <PUBCHEM_CONFORMER_DIVERSEORDER>
3
72
33
36
25
85
7
82
71
14
73
63
68
58
62
86
53
55
77
29
40
76
43
18
2
83
15
57
37
34
41
80
27
35
81
39
88
52
38
79
54
42
44
84
74
51
60
64
6
28
67
59
69
5
89
66
32
8
70
19
22
50
47
48
4
78
20
16
12
49
61
56
13
46
1
24
45
65
87
11
10
17
26
9
75
30
31
21
23

> <PUBCHEM_MMFF94_PARTIAL_CHARGES>
25
1 -0.34
10 0.27
11 0.41
12 0.28
13 0.28
14 -0.14
15 -0.15
16 -0.15
17 0.28
18 -0.15
19 -0.15
2 -0.34
20 0.08
21 1.3
3 -0.34
33 0.15
34 0.15
38 0.15
39 0.15
4 -0.56
5 -0.56
6 -0.36
7 -0.81
8 0.27
9 0.28

> <PUBCHEM_EFFECTIVE_ROTOR_COUNT>
6.4

> <PUBCHEM_PHARMACOPHORE_FEATURES>
6
1 4 acceptor
1 5 acceptor
1 6 acceptor
1 7 cation
6 14 15 16 18 19 20 rings
7 4 7 8 9 10 12 13 rings

> <PUBCHEM_HEAVY_ATOM_COUNT>
21

> <PUBCHEM_ATOM_DEF_STEREO_COUNT>
1

> <PUBCHEM_ATOM_UDEF_STEREO_COUNT>
0

> <PUBCHEM_BOND_DEF_STEREO_COUNT>
0

> <PUBCHEM_BOND_UDEF_STEREO_COUNT>
0

> <PUBCHEM_ISOTOPIC_ATOM_COUNT>
0

> <PUBCHEM_COMPONENT_COUNT>
1

> <PUBCHEM_CACTVS_TAUTO_COUNT>
1

> <PUBCHEM_CONFORMER_ID>
047E053400000003

> <PUBCHEM_MMFF94_ENERGY>
68.4463

> <PUBCHEM_FEATURE_SELFOVERLAP>
30.447

> <PUBCHEM_SHAPE_FINGERPRINT>
10498660 4 18335976541045130617
106641 1 16298681546518962689
10670039 82 18334856065407968765
11089746 13 18413101766942543246
11595378 159 15864058837322022973
12363563 72 11959734922899289083
12403259 415 18338240478156650882
12596602 18 14634869734514208333
12633257 1 16733252564487335096
12892183 10 12685078268371493055
13911882 115 8358260367210057472
1420 369 9511464450383730929
14251751 18 13973671858540793413
14341114 328 14562529595809762440
146900 427 13262686958538691598
15099037 51 18131072627887197934
15183329 4 18271531918483838188
15238133 3 18262504910697581872
17349148 13 14979965782501844150
17834072 8 18272938215383367260
17857418 61 8646765582550398745
18335252 114 18130500830517587149
192875 21 15698004058544324698
193927 3 11023825123878643885
19784866 170 17385725781334615935
200 152 14117800210633362555
20645477 56 18261116270704460003
21033648 29 18337389460625611112
21365058 27 13695879108349849496
21503847 285 17604150423702863860
221357 26 18201718435846584265
22224240 67 11386376967230223262
22289505 5 18343022168938127004
23402539 116 13758361046319663843
23559900 14 18409729564954415874
2637199 183 18260828198341069074
2838139 119 18272649022356194117
3009799 131 18272370872174306778
32948 21 18335425681830439598
347723 3 15913330178340451011
3545911 37 18333734611255948655
474 4 18261106392210685077
5104073 3 17676202498322571738
56616090 163 18333454243969642755
59027123 10 17988919019794072303
59682541 35 8141788462256823156
59682541 52 17846489288796851677
59755656 520 17967532376447484571
633830 44 18262791990712322630
76465 3 11167953449795364300
7808743 9 17676770967261326028
90127 26 18188495799452819762

> <PUBCHEM_SHAPE_MULTIPOLES>
387.76
13.01
1.99
1.26
0.29
0.64
-0.06
3.83
4.09
-0.44
-0.47
0.05
0.03
1.22

> <PUBCHEM_SHAPE_SELFOVERLAP>
801.416

> <PUBCHEM_SHAPE_VOLUME>
222.4

> <PUBCHEM_COORDINATE_TYPE>
2
5
10

$$$$
