9424556
  -OEChem-12032416153D

 55 59  0     1  0  0  0  0  0999 V2000
    1.5891    4.2073   -1.4040 F   0  0  0  0  0  0  0  0  0  0  0  0
   -4.3312   -1.9087   -2.2859 O   0  0  0  0  0  0  0  0  0  0  0  0
   -3.9907    2.3545    0.6639 O   0  0  0  0  0  0  0  0  0  0  0  0
    1.5081   -0.3348   -2.2378 O   0  0  0  0  0  0  0  0  0  0  0  0
   -2.7171    0.6769    1.6828 N   0  0  0  0  0  0  0  0  0  0  0  0
   -2.9391   -1.7020   -0.4136 N   0  0  0  0  0  0  0  0  0  0  0  0
    0.7231   -1.4809   -0.3730 N   0  0  0  0  0  0  0  0  0  0  0  0
    7.9301   -0.5840    1.6408 N   0  0  0  0  0  0  0  0  0  0  0  0
   -3.8793   -1.5076    1.9618 C   0  0  1  0  0  0  0  0  0  0  0  0
   -1.4469   -1.4518    1.5974 C   0  0  2  0  0  0  0  0  0  0  0  0
   -2.5626   -2.1465    2.3778 C   0  0  0  0  0  0  0  0  0  0  0  0
   -3.8736    0.0007    2.2697 C   0  0  0  0  0  0  0  0  0  0  0  0
   -4.1050   -1.7957    0.4758 C   0  0  0  0  0  0  0  0  0  0  0  0
   -1.4193    0.0445    1.9673 C   0  0  0  0  0  0  0  0  0  0  0  0
   -1.6284   -1.6048    0.0888 C   0  0  0  0  0  0  0  0  0  0  0  0
   -0.5814   -1.6064   -0.7676 C   0  0  0  0  0  0  0  0  0  0  0  0
   -3.2086   -1.8048   -1.7907 C   0  0  0  0  0  0  0  0  0  0  0  0
   -2.9093    1.8213    0.9055 C   0  0  0  0  0  0  0  0  0  0  0  0
   -0.8047   -1.7126   -2.1891 C   0  0  0  0  0  0  0  0  0  0  0  0
   -2.0349   -1.7982   -2.6980 C   0  0  0  0  0  0  0  0  0  0  0  0
   -1.7284    2.4462    0.3004 C   0  0  0  0  0  0  0  0  0  0  0  0
    1.6909   -0.8494   -1.1373 C   0  0  0  0  0  0  0  0  0  0  0  0
   -1.3086    2.0512   -0.9673 C   0  0  0  0  0  0  0  0  0  0  0  0
   -1.0333    3.4325    0.9955 C   0  0  0  0  0  0  0  0  0  0  0  0
    3.0471   -0.7911   -0.5325 C   0  0  0  0  0  0  0  0  0  0  0  0
   -0.1864    2.6465   -1.5436 C   0  0  0  0  0  0  0  0  0  0  0  0
    0.0889    4.0278    0.4192 C   0  0  0  0  0  0  0  0  0  0  0  0
    0.5123    3.6347   -0.8503 C   0  0  0  0  0  0  0  0  0  0  0  0
    3.8933    0.2366   -0.8934 C   0  0  0  0  0  0  0  0  0  0  0  0
    3.4162   -1.7670    0.3695 C   0  0  0  0  0  0  0  0  0  0  0  0
    5.1664    0.2908   -0.3264 C   0  0  0  0  0  0  0  0  0  0  0  0
    4.6894   -1.7126    0.9365 C   0  0  0  0  0  0  0  0  0  0  0  0
    5.5646   -0.6837    0.5886 C   0  0  0  0  0  0  0  0  0  0  0  0
    6.8693   -0.6286    1.1690 C   0  0  0  0  0  0  0  0  0  0  0  0
   -4.7030   -1.9579    2.5293 H   0  0  0  0  0  0  0  0  0  0  0  0
   -0.5085   -1.9113    1.9258 H   0  0  0  0  0  0  0  0  0  0  0  0
   -2.4054   -2.0300    3.4571 H   0  0  0  0  0  0  0  0  0  0  0  0
   -2.5704   -3.2237    2.1692 H   0  0  0  0  0  0  0  0  0  0  0  0
   -3.8155    0.1584    3.3536 H   0  0  0  0  0  0  0  0  0  0  0  0
   -4.8065    0.4609    1.9273 H   0  0  0  0  0  0  0  0  0  0  0  0
   -4.4731   -2.8257    0.3706 H   0  0  0  0  0  0  0  0  0  0  0  0
   -4.9001   -1.1513    0.0795 H   0  0  0  0  0  0  0  0  0  0  0  0
   -0.5983    0.5501    1.4539 H   0  0  0  0  0  0  0  0  0  0  0  0
   -1.2390    0.1628    3.0430 H   0  0  0  0  0  0  0  0  0  0  0  0
    0.0113   -1.8445   -2.8894 H   0  0  0  0  0  0  0  0  0  0  0  0
   -2.2057   -1.9222   -3.7610 H   0  0  0  0  0  0  0  0  0  0  0  0
    0.9285   -1.6510    0.6053 H   0  0  0  0  0  0  0  0  0  0  0  0
   -1.8526    1.2913   -1.5203 H   0  0  0  0  0  0  0  0  0  0  0  0
   -1.3550    3.7455    1.9853 H   0  0  0  0  0  0  0  0  0  0  0  0
    0.1415    2.3428   -2.5332 H   0  0  0  0  0  0  0  0  0  0  0  0
    0.6332    4.7973    0.9587 H   0  0  0  0  0  0  0  0  0  0  0  0
    3.5963    1.0064   -1.5994 H   0  0  0  0  0  0  0  0  0  0  0  0
    2.7758   -2.6001    0.6410 H   0  0  0  0  0  0  0  0  0  0  0  0
    5.8368    1.0999   -0.6065 H   0  0  0  0  0  0  0  0  0  0  0  0
    4.9882   -2.4834    1.6431 H   0  0  0  0  0  0  0  0  0  0  0  0
  1 28  1  0  0  0  0
  2 17  2  0  0  0  0
  3 18  2  0  0  0  0
  4 22  2  0  0  0  0
  5 12  1  0  0  0  0
  5 14  1  0  0  0  0
  5 18  1  0  0  0  0
  6 13  1  0  0  0  0
  6 15  1  0  0  0  0
  6 17  1  0  0  0  0
  7 16  1  0  0  0  0
  7 22  1  0  0  0  0
  7 47  1  0  0  0  0
  8 34  3  0  0  0  0
  9 11  1  0  0  0  0
  9 12  1  0  0  0  0
  9 13  1  0  0  0  0
  9 35  1  0  0  0  0
 10 11  1  0  0  0  0
 10 14  1  0  0  0  0
 10 15  1  0  0  0  0
 10 36  1  0  0  0  0
 11 37  1  0  0  0  0
 11 38  1  0  0  0  0
 12 39  1  0  0  0  0
 12 40  1  0  0  0  0
 13 41  1  0  0  0  0
 13 42  1  0  0  0  0
 14 43  1  0  0  0  0
 14 44  1  0  0  0  0
 15 16  2  0  0  0  0
 16 19  1  0  0  0  0
 17 20  1  0  0  0  0
 18 21  1  0  0  0  0
 19 20  2  0  0  0  0
 19 45  1  0  0  0  0
 20 46  1  0  0  0  0
 21 23  2  0  0  0  0
 21 24  1  0  0  0  0
 22 25  1  0  0  0  0
 23 26  1  0  0  0  0
 23 48  1  0  0  0  0
 24 27  2  0  0  0  0
 24 49  1  0  0  0  0
 25 29  2  0  0  0  0
 25 30  1  0  0  0  0
 26 28  2  0  0  0  0
 26 50  1  0  0  0  0
 27 28  1  0  0  0  0
 27 51  1  0  0  0  0
 29 31  1  0  0  0  0
 29 52  1  0  0  0  0
 30 32  2  0  0  0  0
 30 53  1  0  0  0  0
 31 33  2  0  0  0  0
 31 54  1  0  0  0  0
 32 33  1  0  0  0  0
 32 55  1  0  0  0  0
 33 34  1  0  0  0  0
M  END
> <PUBCHEM_COMPOUND_CID>
9424556

> <PUBCHEM_CONFORMER_RMSD>
0.8

> <PUBCHEM_CONFORMER_DIVERSEORDER>
1
5
7
3
8
4
6
2

> <PUBCHEM_MMFF94_PARTIAL_CHARGES>
43
1 -0.19
10 0.14
12 0.3
13 0.3
14 0.3
15 -0.03
16 0.11
17 0.62
18 0.54
19 -0.15
2 -0.57
20 -0.14
21 0.09
22 0.54
23 -0.15
24 -0.15
25 0.09
26 -0.15
27 -0.15
28 0.19
29 -0.15
3 -0.57
30 -0.15
31 -0.15
32 -0.15
33 0.07
34 0.48
4 -0.57
45 0.15
46 0.15
47 0.37
48 0.15
49 0.15
5 -0.66
50 0.15
51 0.15
52 0.15
53 0.15
54 0.15
55 0.15
6 -0.47
7 -0.54
8 -0.56

> <PUBCHEM_EFFECTIVE_ROTOR_COUNT>
6

> <PUBCHEM_PHARMACOPHORE_FEATURES>
10
1 2 acceptor
1 3 acceptor
1 4 acceptor
1 7 donor
1 8 acceptor
6 21 23 24 26 27 28 rings
6 25 29 30 31 32 33 rings
6 5 9 10 11 12 14 rings
6 6 15 16 17 19 20 rings
6 6 9 10 11 13 15 rings

> <PUBCHEM_HEAVY_ATOM_COUNT>
34

> <PUBCHEM_ATOM_DEF_STEREO_COUNT>
2

> <PUBCHEM_ATOM_UDEF_STEREO_COUNT>
0

> <PUBCHEM_BOND_DEF_STEREO_COUNT>
0

> <PUBCHEM_BOND_UDEF_STEREO_COUNT>
0

> <PUBCHEM_ISOTOPIC_ATOM_COUNT>
0

> <PUBCHEM_COMPONENT_COUNT>
1

> <PUBCHEM_CACTVS_TAUTO_COUNT>
2

> <PUBCHEM_CONFORMER_ID>
008FCEAC00000001

> <PUBCHEM_MMFF94_ENERGY>
102.4338

> <PUBCHEM_FEATURE_SELFOVERLAP>
52.323

> <PUBCHEM_SHAPE_FINGERPRINT>
10006869 2 17902801765056985937
10674148 151 13551464873758081318
10930396 42 18187911855810753304
11456790 92 17967827054822875153
11595378 159 18411428280507649806
12035758 1 18192456107667395625
12104220 1 18040995125593066850
12156800 1 17613385114205652245
12422481 6 18054825882078968283
133893 2 17907860948373076623
14068700 675 17559656516626015175
14142880 1 18201720609463636839
14840074 17 18057056893549469676
14856354 85 18334869350649332318
15324884 4 17625863429204717511
15840311 113 16624930638526796849
17492 54 18125984002696848461
17686467 74 17415539168619894306
17980427 23 17774448303234056463
18336668 15 17917426587591427555
20764821 26 18272074033783639096
21033648 29 17631188419267016634
21304303 282 17679284287813292365
23559900 14 15647614608769739975
25019877 29 16558753472068705334
3459 110 18131059451323263872
35225 105 17754716256971629033
445580 44 18341887489680541162
469060 322 18273491294985504055
484985 159 17240476971079853922
5265222 85 10375571708199908530
57527306 92 18338505345365337373

> <PUBCHEM_SHAPE_MULTIPOLES>
654.9
11.41
4.35
2.54
25.28
6.15
-0.42
-6.06
6.07
-2.43
-0.81
-2.15
-1.24
-1.52

> <PUBCHEM_SHAPE_SELFOVERLAP>
1452.556

> <PUBCHEM_SHAPE_VOLUME>
347.4

> <PUBCHEM_COORDINATE_TYPE>
2
5
10

$$$$
