75536063
  -OEChem-12032416413D

 44 46  0     1  0  0  0  0  0999 V2000
    1.5165    3.4906   -0.9716 O   0  0  0  0  0  0  0  0  0  0  0  0
    4.0100    2.3700   -0.7143 O   0  0  0  0  0  0  0  0  0  0  0  0
   -0.1668   -0.7767   -1.4638 O   0  0  0  0  0  0  0  0  0  0  0  0
   -6.2696   -0.2933    0.1385 O   0  0  0  0  0  0  0  0  0  0  0  0
   -0.0337    0.9943    0.0281 N   0  0  0  0  0  0  0  0  0  0  0  0
    2.5121   -3.3327    0.8982 N   0  0  0  0  0  0  0  0  0  0  0  0
    2.1843    0.4458    0.9846 C   0  0  2  0  0  0  0  0  0  0  0  0
    1.3855    1.2128   -0.0933 C   0  0  2  0  0  0  0  0  0  0  0  0
    1.7614    2.6726    0.1568 C   0  0  1  0  0  0  0  0  0  0  0  0
    3.3688    1.3693    1.3697 C   0  0  0  0  0  0  0  0  0  0  0  0
    3.2511    2.5975    0.4693 C   0  0  1  0  0  0  0  0  0  0  0  0
    2.5943   -0.9429    0.5418 C   0  0  0  0  0  0  0  0  0  0  0  0
    3.3978   -1.1300   -0.5774 C   0  0  0  0  0  0  0  0  0  0  0  0
    2.1816   -2.0668    1.2391 C   0  0  0  0  0  0  0  0  0  0  0  0
   -0.7005    0.0024   -0.6785 C   0  0  0  0  0  0  0  0  0  0  0  0
    3.7591   -2.4172   -0.9596 C   0  0  0  0  0  0  0  0  0  0  0  0
   -2.1682   -0.0764   -0.4626 C   0  0  0  0  0  0  0  0  0  0  0  0
    3.2944   -3.4751   -0.1951 C   0  0  0  0  0  0  0  0  0  0  0  0
   -2.9936   -0.5907   -1.4627 C   0  0  0  0  0  0  0  0  0  0  0  0
   -2.7211    0.3648    0.7395 C   0  0  0  0  0  0  0  0  0  0  0  0
   -4.3718   -0.6636   -1.2607 C   0  0  0  0  0  0  0  0  0  0  0  0
   -4.0993    0.2921    0.9416 C   0  0  0  0  0  0  0  0  0  0  0  0
   -4.9246   -0.2221   -0.0585 C   0  0  0  0  0  0  0  0  0  0  0  0
   -6.7678    0.1754    1.3907 C   0  0  0  0  0  0  0  0  0  0  0  0
    1.5587    0.3425    1.8836 H   0  0  0  0  0  0  0  0  0  0  0  0
    1.6783    0.9314   -1.1124 H   0  0  0  0  0  0  0  0  0  0  0  0
    1.2086    3.0794    1.0132 H   0  0  0  0  0  0  0  0  0  0  0  0
    3.2412    1.6762    2.4154 H   0  0  0  0  0  0  0  0  0  0  0  0
    4.3434    0.8769    1.2853 H   0  0  0  0  0  0  0  0  0  0  0  0
    3.6243    3.5126    0.9385 H   0  0  0  0  0  0  0  0  0  0  0  0
   -0.5433    1.6190    0.6431 H   0  0  0  0  0  0  0  0  0  0  0  0
    1.8656    4.3759   -0.7716 H   0  0  0  0  0  0  0  0  0  0  0  0
    4.9432    2.2915   -0.4524 H   0  0  0  0  0  0  0  0  0  0  0  0
    3.7559   -0.2892   -1.1630 H   0  0  0  0  0  0  0  0  0  0  0  0
    1.5525   -1.9884    2.1203 H   0  0  0  0  0  0  0  0  0  0  0  0
    4.3852   -2.5870   -1.8280 H   0  0  0  0  0  0  0  0  0  0  0  0
    3.5480   -4.4986   -0.4510 H   0  0  0  0  0  0  0  0  0  0  0  0
   -2.5824   -0.9353   -2.4079 H   0  0  0  0  0  0  0  0  0  0  0  0
   -2.1123    0.7401    1.5566 H   0  0  0  0  0  0  0  0  0  0  0  0
   -5.0099   -1.0641   -2.0436 H   0  0  0  0  0  0  0  0  0  0  0  0
   -4.4619    0.6451    1.9011 H   0  0  0  0  0  0  0  0  0  0  0  0
   -7.8550    0.0463    1.3747 H   0  0  0  0  0  0  0  0  0  0  0  0
   -6.5749    1.2451    1.5257 H   0  0  0  0  0  0  0  0  0  0  0  0
   -6.3870   -0.4237    2.2248 H   0  0  0  0  0  0  0  0  0  0  0  0
  1  9  1  0  0  0  0
  1 32  1  0  0  0  0
  2 11  1  0  0  0  0
  2 33  1  0  0  0  0
  3 15  2  0  0  0  0
  4 23  1  0  0  0  0
  4 24  1  0  0  0  0
  5  8  1  0  0  0  0
  5 15  1  0  0  0  0
  5 31  1  0  0  0  0
  6 14  1  0  0  0  0
  6 18  2  0  0  0  0
  7  8  1  0  0  0  0
  7 10  1  0  0  0  0
  7 12  1  0  0  0  0
  7 25  1  0  0  0  0
  8  9  1  0  0  0  0
  8 26  1  0  0  0  0
  9 11  1  0  0  0  0
  9 27  1  0  0  0  0
 10 11  1  0  0  0  0
 10 28  1  0  0  0  0
 10 29  1  0  0  0  0
 11 30  1  0  0  0  0
 12 13  1  0  0  0  0
 12 14  2  0  0  0  0
 13 16  2  0  0  0  0
 13 34  1  0  0  0  0
 14 35  1  0  0  0  0
 15 17  1  0  0  0  0
 16 18  1  0  0  0  0
 16 36  1  0  0  0  0
 17 19  2  0  0  0  0
 17 20  1  0  0  0  0
 18 37  1  0  0  0  0
 19 21  1  0  0  0  0
 19 38  1  0  0  0  0
 20 22  2  0  0  0  0
 20 39  1  0  0  0  0
 21 23  2  0  0  0  0
 21 40  1  0  0  0  0
 22 23  1  0  0  0  0
 22 41  1  0  0  0  0
 24 42  1  0  0  0  0
 24 43  1  0  0  0  0
 24 44  1  0  0  0  0
M  END
> <PUBCHEM_COMPOUND_CID>
75536063

> <PUBCHEM_CONFORMER_RMSD>
0.8

> <PUBCHEM_CONFORMER_DIVERSEORDER>
1
32
12
16
24
13
31
17
27
7
4
18
20
15
5
33
28
2
19
25
30
9
26
14
22
34
6
10
3
23
11
21
8
29

> <PUBCHEM_MMFF94_PARTIAL_CHARGES>
34
1 -0.68
11 0.28
12 -0.14
13 -0.15
14 0.16
15 0.54
16 -0.15
17 0.09
18 0.16
19 -0.15
2 -0.68
20 -0.15
21 -0.15
22 -0.15
23 0.08
24 0.28
3 -0.57
31 0.37
32 0.4
33 0.4
34 0.15
35 0.15
36 0.15
37 0.15
38 0.15
39 0.15
4 -0.36
40 0.15
41 0.15
5 -0.73
6 -0.62
7 0.14
8 0.3
9 0.28

> <PUBCHEM_EFFECTIVE_ROTOR_COUNT>
6

> <PUBCHEM_PHARMACOPHORE_FEATURES>
11
1 1 acceptor
1 1 donor
1 2 acceptor
1 2 donor
1 3 acceptor
1 4 acceptor
1 5 donor
1 6 acceptor
5 7 8 9 10 11 rings
6 17 19 20 21 22 23 rings
6 6 12 13 14 16 18 rings

> <PUBCHEM_HEAVY_ATOM_COUNT>
24

> <PUBCHEM_ATOM_DEF_STEREO_COUNT>
4

> <PUBCHEM_ATOM_UDEF_STEREO_COUNT>
0

> <PUBCHEM_BOND_DEF_STEREO_COUNT>
0

> <PUBCHEM_BOND_UDEF_STEREO_COUNT>
0

> <PUBCHEM_ISOTOPIC_ATOM_COUNT>
0

> <PUBCHEM_COMPONENT_COUNT>
1

> <PUBCHEM_CACTVS_TAUTO_COUNT>
2

> <PUBCHEM_CONFORMER_ID>
048096BF00000001

> <PUBCHEM_MMFF94_ENERGY>
80.204

> <PUBCHEM_FEATURE_SELFOVERLAP>
55.834

> <PUBCHEM_SHAPE_FINGERPRINT>
10554248 39 17988637455630955269
11140007 195 16558751153176507766
11421498 54 18201439211612306528
114674 6 18187362108296467610
12107183 9 17983302521748512785
12236239 1 17988361572163430769
12553582 1 18268138761018471182
12616971 3 17846493713146078407
12644460 14 18342179981063548327
13009979 54 17702390550429980066
13533116 47 18413390938938459315
13583140 156 18199474444968739233
13785724 45 17840881676480035727
13955234 65 18412261765833968672
14178342 30 17912620682754617546
14341114 176 18341336621934106963
14739800 52 16916490562386076288
14863182 85 18337665408580960356
15142526 21 17483376900663780048
15250474 111 18058716035680818495
15806764 133 17967805012602715389
17492 89 18413666899087828591
17818456 19 17774162267387557025
17844677 252 18408885106033739077
1813 80 18127417756694650542
20157964 124 18336819884186504685
20554085 129 12396884258404339662
20645477 70 18335977627471097491
20739085 24 18343023259253314708
20832881 197 18116992178960790275
21344244 78 18201705233238332737
21421861 104 18341606010530091808
22033318 11 17912958040210733545
22149856 69 13695873576701685253
2255824 54 18411978079149683694
23559900 14 18260835929282130147
239999 70 17967250922776123440
25147074 1 17846208995474438439
3060560 45 18264201586400157124
312423 11 18271814484218997841
3421961 26 18411133598200347650
345986 75 18058724676669162867
437795 51 18262257593638259686
4409770 3 17256244839726870476
46194498 28 17530692008452785094
465052 167 18271250417521760719
474 4 18265607861017506952
5104073 3 17989492939985829667
70251023 43 18195255421126795634
7097593 13 18271796934824169279
8272917 22 18409729598892069988
8509985 295 16845286116820990643
9841814 1 18262787476617428770

> <PUBCHEM_SHAPE_MULTIPOLES>
460.47
11.92
3.51
1.36
22.09
0.05
0.01
2.06
2.31
-7.4
-0.17
0.46
0.16
-0.53

> <PUBCHEM_SHAPE_SELFOVERLAP>
989.006

> <PUBCHEM_SHAPE_VOLUME>
253.4

> <PUBCHEM_COORDINATE_TYPE>
2
5
10

$$$$
