51137606
  -OEChem-12032416233D

 49 52  0     1  0  0  0  0  0999 V2000
   -8.5894    1.8374   -1.3013 F   0  0  0  0  0  0  0  0  0  0  0  0
   -8.7590    2.1123    0.8490 F   0  0  0  0  0  0  0  0  0  0  0  0
   -9.5494    0.3168   -0.0888 F   0  0  0  0  0  0  0  0  0  0  0  0
   10.5728    1.5512    0.4212 F   0  0  0  0  0  0  0  0  0  0  0  0
    2.4596   -0.3097    0.3612 O   0  0  0  0  0  0  0  0  0  0  0  0
    5.3420    0.0947   -0.4285 O   0  0  0  0  0  0  0  0  0  0  0  0
   -2.2672   -0.5507    0.2834 N   0  0  1  0  0  0  0  0  0  0  0  0
    1.6066   -2.1095   -0.6572 N   0  0  0  0  0  0  0  0  0  0  0  0
    2.9700   -2.2980   -0.5281 N   0  0  0  0  0  0  0  0  0  0  0  0
    0.0376   -0.2080    0.0193 C   0  0  1  0  0  0  0  0  0  0  0  0
   -0.6828    0.0936   -1.3064 C   0  0  0  0  0  0  0  0  0  0  0  0
   -0.9899   -0.9872    0.8513 C   0  0  0  0  0  0  0  0  0  0  0  0
   -2.0558   -0.5505   -1.1642 C   0  0  0  0  0  0  0  0  0  0  0  0
   -3.3739   -1.4081    0.6816 C   0  0  0  0  0  0  0  0  0  0  0  0
    1.3536   -0.9369   -0.1247 C   0  0  0  0  0  0  0  0  0  0  0  0
   -4.7056   -0.7363    0.4763 C   0  0  0  0  0  0  0  0  0  0  0  0
   -5.1368    0.2442    1.3697 C   0  0  0  0  0  0  0  0  0  0  0  0
   -5.5077   -1.0937   -0.6076 C   0  0  0  0  0  0  0  0  0  0  0  0
    3.4262   -1.2230    0.0713 C   0  0  0  0  0  0  0  0  0  0  0  0
   -6.3701    0.8673    1.1796 C   0  0  0  0  0  0  0  0  0  0  0  0
   -6.7411   -0.4706   -0.7978 C   0  0  0  0  0  0  0  0  0  0  0  0
   -7.1723    0.5097    0.0958 C   0  0  0  0  0  0  0  0  0  0  0  0
    4.7995   -0.8825    0.4637 C   0  0  0  0  0  0  0  0  0  0  0  0
   -8.4896    1.1782   -0.1091 C   0  0  0  0  0  0  0  0  0  0  0  0
    6.6428    0.4569   -0.2172 C   0  0  0  0  0  0  0  0  0  0  0  0
    7.3672   -0.1210    0.8254 C   0  0  0  0  0  0  0  0  0  0  0  0
    7.2463    1.4043   -1.0444 C   0  0  0  0  0  0  0  0  0  0  0  0
    8.6946    0.2486    1.0411 C   0  0  0  0  0  0  0  0  0  0  0  0
    8.5737    1.7740   -0.8287 C   0  0  0  0  0  0  0  0  0  0  0  0
    9.2979    1.1962    0.2140 C   0  0  0  0  0  0  0  0  0  0  0  0
    0.2342    0.7527    0.5161 H   0  0  0  0  0  0  0  0  0  0  0  0
   -0.7865    1.1794   -1.4251 H   0  0  0  0  0  0  0  0  0  0  0  0
   -0.1526   -0.2879   -2.1855 H   0  0  0  0  0  0  0  0  0  0  0  0
   -0.9116   -0.7369    1.9149 H   0  0  0  0  0  0  0  0  0  0  0  0
   -0.8523   -2.0713    0.7420 H   0  0  0  0  0  0  0  0  0  0  0  0
   -2.8161    0.0250   -1.7015 H   0  0  0  0  0  0  0  0  0  0  0  0
   -2.0293   -1.5678   -1.5754 H   0  0  0  0  0  0  0  0  0  0  0  0
   -3.3438   -2.3835    0.1773 H   0  0  0  0  0  0  0  0  0  0  0  0
   -3.2986   -1.6384    1.7539 H   0  0  0  0  0  0  0  0  0  0  0  0
   -4.5207    0.5315    2.2177 H   0  0  0  0  0  0  0  0  0  0  0  0
   -5.1827   -1.8546   -1.3120 H   0  0  0  0  0  0  0  0  0  0  0  0
   -6.6873    1.6288    1.8866 H   0  0  0  0  0  0  0  0  0  0  0  0
   -7.3587   -0.7550   -1.6455 H   0  0  0  0  0  0  0  0  0  0  0  0
    5.3877   -1.8077    0.4188 H   0  0  0  0  0  0  0  0  0  0  0  0
    4.7809   -0.4933    1.4894 H   0  0  0  0  0  0  0  0  0  0  0  0
    6.9653   -0.8581    1.5117 H   0  0  0  0  0  0  0  0  0  0  0  0
    6.6870    1.8577   -1.8582 H   0  0  0  0  0  0  0  0  0  0  0  0
    9.2596   -0.1994    1.8533 H   0  0  0  0  0  0  0  0  0  0  0  0
    9.0438    2.5116   -1.4723 H   0  0  0  0  0  0  0  0  0  0  0  0
  1 24  1  0  0  0  0
  2 24  1  0  0  0  0
  3 24  1  0  0  0  0
  4 30  1  0  0  0  0
  5 15  1  0  0  0  0
  5 19  1  0  0  0  0
  6 23  1  0  0  0  0
  6 25  1  0  0  0  0
  7 12  1  0  0  0  0
  7 13  1  0  0  0  0
  7 14  1  0  0  0  0
  8  9  1  0  0  0  0
  8 15  2  0  0  0  0
  9 19  2  0  0  0  0
 10 11  1  0  0  0  0
 10 12  1  0  0  0  0
 10 15  1  0  0  0  0
 10 31  1  0  0  0  0
 11 13  1  0  0  0  0
 11 32  1  0  0  0  0
 11 33  1  0  0  0  0
 12 34  1  0  0  0  0
 12 35  1  0  0  0  0
 13 36  1  0  0  0  0
 13 37  1  0  0  0  0
 14 16  1  0  0  0  0
 14 38  1  0  0  0  0
 14 39  1  0  0  0  0
 16 17  2  0  0  0  0
 16 18  1  0  0  0  0
 17 20  1  0  0  0  0
 17 40  1  0  0  0  0
 18 21  2  0  0  0  0
 18 41  1  0  0  0  0
 19 23  1  0  0  0  0
 20 22  2  0  0  0  0
 20 42  1  0  0  0  0
 21 22  1  0  0  0  0
 21 43  1  0  0  0  0
 22 24  1  0  0  0  0
 23 44  1  0  0  0  0
 23 45  1  0  0  0  0
 25 26  2  0  0  0  0
 25 27  1  0  0  0  0
 26 28  1  0  0  0  0
 26 46  1  0  0  0  0
 27 29  2  0  0  0  0
 27 47  1  0  0  0  0
 28 30  2  0  0  0  0
 28 48  1  0  0  0  0
 29 30  1  0  0  0  0
 29 49  1  0  0  0  0
M  END
> <PUBCHEM_COMPOUND_CID>
51137606

> <PUBCHEM_CONFORMER_RMSD>
1.2

> <PUBCHEM_CONFORMER_DIVERSEORDER>
1
28
3
100
61
31
69
102
56
40
10
101
66
15
42
79
89
87
34
67
11
22
41
73
55
48
94
80
53
85
23
65
106
75
92
91
50
37
105
4
82
7
51
64
103
70
14
88
16
24
30
74
83
45
97
76
71
59
58
90
68
60
32
8
18
13
6
99
86
54
20
29
104
49
12
21
19
52
33
5
98
47
77
26
78
9
43
63
25
72
35
2
39
46
62
17
27
81
38
93
95
57
96
36
84
44

> <PUBCHEM_MMFF94_PARTIAL_CHARGES>
37
1 -0.34
10 0.18
12 0.27
13 0.27
14 0.41
15 0.3
16 -0.14
17 -0.15
18 -0.15
19 0.3
2 -0.34
20 -0.15
21 -0.15
22 -0.14
23 0.46
24 1.16
25 0.08
26 -0.15
27 -0.15
28 -0.15
29 -0.15
3 -0.34
30 0.19
4 -0.19
40 0.15
41 0.15
42 0.15
43 0.15
46 0.15
47 0.15
48 0.15
49 0.15
5 -0.28
6 -0.36
7 -0.81
8 -0.34
9 -0.34

> <PUBCHEM_EFFECTIVE_ROTOR_COUNT>
8

> <PUBCHEM_PHARMACOPHORE_FEATURES>
6
1 6 acceptor
1 7 cation
5 5 8 9 15 19 rings
5 7 10 11 12 13 rings
6 16 17 18 20 21 22 rings
6 25 26 27 28 29 30 rings

> <PUBCHEM_HEAVY_ATOM_COUNT>
30

> <PUBCHEM_ATOM_DEF_STEREO_COUNT>
1

> <PUBCHEM_ATOM_UDEF_STEREO_COUNT>
0

> <PUBCHEM_BOND_DEF_STEREO_COUNT>
0

> <PUBCHEM_BOND_UDEF_STEREO_COUNT>
0

> <PUBCHEM_ISOTOPIC_ATOM_COUNT>
0

> <PUBCHEM_COMPONENT_COUNT>
1

> <PUBCHEM_CACTVS_TAUTO_COUNT>
1

> <PUBCHEM_CONFORMER_ID>
030C4C4600000001

> <PUBCHEM_MMFF94_ENERGY>
62.9429

> <PUBCHEM_FEATURE_SELFOVERLAP>
30.448

> <PUBCHEM_SHAPE_FINGERPRINT>
10 15 17822009813555919370
10054150 59 16119052373364410383
10076449 9 11527951157816676122
10533779 47 16298380224640913264
10625338 86 17822004298533536445
10670039 82 14117528622666444099
11135926 11 14273728586182432051
11315181 36 18131635582852991971
11386260 185 14764338362862037706
11456790 92 14851610968376335605
11578821 258 18410575055369688605
11638347 137 15502369024968326536
12089408 11 18412259536603958578
12498461 61 11530482254964168976
12522641 33 17989211448072090230
12539745 222 11241963777413293943
13553643 46 17749104500369985452
14150022 121 18187643570610205741
14251764 46 18334574646771598322
14344974 52 16486684866345948482
14394314 77 17240199949688810675
14617042 71 18041848432611097316
150020 25 16128653072214900378
15198563 99 15338572561090141504
15461852 350 17203604905130685687
155225 1 18413671313770747216
15690457 1 8718831981677465332
1577012 14 15841285756603626266
15849732 13 16056881347026552480
17093844 174 17822015311800036307
1754908 1 15140965079702982152
1754911 235 17203608194295185056
1818759 1 7997972379887930656
19301679 30 11819813200064376506
19315958 150 18260551091067264219
195137 175 18131074818589362545
19841028 212 10953997275378105976
2026 5 9799429806022210748
20771845 65 10953460735400328966
21095086 128 10375867476817067819
21150785 3 15482671273291653259
21344244 246 10303548194949767332
21362267 313 18188483563349541002
21792934 111 16225765220381948151
21792961 116 12966860044066855854
22224240 67 18260547840409815714
23576562 1 16414616290092865281
246663 6 9439403536030037299
24771293 8 18259985985335087903
249057 3 15051729824769029370
306946 40 17531237341410623013
335352 9 12175622897927574708
3711267 37 18201169818357747112
4017518 198 15195569021845418420
4073 2 18410299103673291899
44389302 135 12829201174794224648
45377200 153 13326557589028199405
4625314 4 18335703866788829238
5758199 1 18413671322877893218
57828716 8 13695875857808985153
5937810 71 17274834502267317633
636775 72 18260830359348591373
636775 8 14405179600125888597
68570916 9 15792874389035373466
9663363 56 16515399673852929359
9953998 17 17385443245337381691

> <PUBCHEM_SHAPE_MULTIPOLES>
561.61
37.01
1.76
1.14
18.5
0.08
-0.02
25.22
2.75
0.11
-0.22
-0.52
0.13
-0.66

> <PUBCHEM_SHAPE_SELFOVERLAP>
1217.48

> <PUBCHEM_SHAPE_VOLUME>
310.6

> <PUBCHEM_COORDINATE_TYPE>
2
5
10

$$$$
