11942696
  -OEChem-12032416383D

 61 65  0     1  0  0  0  0  0999 V2000
    3.9332   -1.6881    2.1724 O   0  0  0  0  0  0  0  0  0  0  0  0
    1.7251    0.5120    2.0281 O   0  0  0  0  0  0  0  0  0  0  0  0
    6.5923    1.3176    0.5038 O   0  0  0  0  0  0  0  0  0  0  0  0
    1.5724   -2.8059    0.5123 N   0  0  0  0  0  0  0  0  0  0  0  0
    4.3034    1.6465    0.7142 N   0  0  0  0  0  0  0  0  0  0  0  0
    5.4906    2.8481   -0.8480 N   0  0  0  0  0  0  0  0  0  0  0  0
   -0.5375   -2.0718   -0.1216 N   0  0  0  0  0  0  0  0  0  0  0  0
    0.5913   -3.8254   -1.3291 N   0  0  0  0  0  0  0  0  0  0  0  0
    2.1352   -0.5313    1.1281 C   0  0  1  0  0  0  0  0  0  0  0  0
    3.6439   -0.6443    1.2278 C   0  0  1  0  0  0  0  0  0  0  0  0
    1.6315   -1.8700    1.6137 C   0  0  2  0  0  0  0  0  0  0  0  0
    4.0777    0.6960    1.7761 C   0  0  2  0  0  0  0  0  0  0  0  0
    2.7034   -2.2901    2.6027 C   0  0  0  0  0  0  0  0  0  0  0  0
    2.8887    1.0975    2.6308 C   0  0  0  0  0  0  0  0  0  0  0  0
    0.4953   -2.9053   -0.3505 C   0  0  0  0  0  0  0  0  0  0  0  0
    5.5577    1.8851    0.1557 C   0  0  0  0  0  0  0  0  0  0  0  0
   -1.5701   -2.1958   -0.9810 C   0  0  0  0  0  0  0  0  0  0  0  0
    6.6484    3.2844   -1.5924 C   0  0  0  0  0  0  0  0  0  0  0  0
   -0.4760   -3.8955   -2.1514 C   0  0  0  0  0  0  0  0  0  0  0  0
   -1.5951   -3.0984   -2.0246 C   0  0  0  0  0  0  0  0  0  0  0  0
   -2.6787   -1.3035   -0.7397 C   0  0  0  0  0  0  0  0  0  0  0  0
    6.8066    2.4202   -2.7989 C   0  0  0  0  0  0  0  0  0  0  0  0
   -3.9449   -1.8218   -0.4682 C   0  0  0  0  0  0  0  0  0  0  0  0
   -2.4835    0.0772   -0.7778 C   0  0  0  0  0  0  0  0  0  0  0  0
   -5.0159   -0.9596   -0.2345 C   0  0  0  0  0  0  0  0  0  0  0  0
   -3.5548    0.9396   -0.5440 C   0  0  0  0  0  0  0  0  0  0  0  0
   -4.8210    0.4211   -0.2724 C   0  0  0  0  0  0  0  0  0  0  0  0
    7.9003    1.6944   -3.0579 C   0  0  0  0  0  0  0  0  0  0  0  0
   -5.9319    1.3157   -0.0296 C   0  0  0  0  0  0  0  0  0  0  0  0
   -6.7229    1.7500   -1.0933 C   0  0  0  0  0  0  0  0  0  0  0  0
   -6.2124    1.7434    1.2682 C   0  0  0  0  0  0  0  0  0  0  0  0
   -7.7941    2.6122   -0.8593 C   0  0  0  0  0  0  0  0  0  0  0  0
   -7.2837    2.6056    1.5020 C   0  0  0  0  0  0  0  0  0  0  0  0
   -8.0746    3.0399    0.4381 C   0  0  0  0  0  0  0  0  0  0  0  0
    1.7968   -0.2465    0.1267 H   0  0  0  0  0  0  0  0  0  0  0  0
    4.1165   -0.9196    0.2793 H   0  0  0  0  0  0  0  0  0  0  0  0
    0.6673   -1.8178    2.1324 H   0  0  0  0  0  0  0  0  0  0  0  0
    4.9851    0.6304    2.3861 H   0  0  0  0  0  0  0  0  0  0  0  0
    2.4859   -1.9003    3.6033 H   0  0  0  0  0  0  0  0  0  0  0  0
    2.8382   -3.3735    2.6795 H   0  0  0  0  0  0  0  0  0  0  0  0
    2.9747    0.6823    3.6409 H   0  0  0  0  0  0  0  0  0  0  0  0
    2.7488    2.1796    2.7140 H   0  0  0  0  0  0  0  0  0  0  0  0
    2.3744   -3.3934    0.3142 H   0  0  0  0  0  0  0  0  0  0  0  0
    3.5008    2.1195    0.3095 H   0  0  0  0  0  0  0  0  0  0  0  0
    4.5870    3.2490   -1.0803 H   0  0  0  0  0  0  0  0  0  0  0  0
    7.5308    3.2560   -0.9444 H   0  0  0  0  0  0  0  0  0  0  0  0
    6.4750    4.3213   -1.8964 H   0  0  0  0  0  0  0  0  0  0  0  0
   -0.4035   -4.6340   -2.9427 H   0  0  0  0  0  0  0  0  0  0  0  0
   -2.4267   -3.1875   -2.7126 H   0  0  0  0  0  0  0  0  0  0  0  0
    5.9870    2.3955   -3.5128 H   0  0  0  0  0  0  0  0  0  0  0  0
   -4.1172   -2.8949   -0.4284 H   0  0  0  0  0  0  0  0  0  0  0  0
   -1.5043    0.4998   -0.9906 H   0  0  0  0  0  0  0  0  0  0  0  0
   -5.9962   -1.3802   -0.0229 H   0  0  0  0  0  0  0  0  0  0  0  0
   -3.3857    2.0133   -0.5778 H   0  0  0  0  0  0  0  0  0  0  0  0
    8.7496    1.6879   -2.3837 H   0  0  0  0  0  0  0  0  0  0  0  0
    7.9587    1.0907   -3.9569 H   0  0  0  0  0  0  0  0  0  0  0  0
   -6.5182    1.4263   -2.1111 H   0  0  0  0  0  0  0  0  0  0  0  0
   -5.6060    1.4144    2.1089 H   0  0  0  0  0  0  0  0  0  0  0  0
   -8.4099    2.9505   -1.6876 H   0  0  0  0  0  0  0  0  0  0  0  0
   -7.5023    2.9387    2.5123 H   0  0  0  0  0  0  0  0  0  0  0  0
   -8.9087    3.7112    0.6203 H   0  0  0  0  0  0  0  0  0  0  0  0
  1 10  1  0  0  0  0
  1 13  1  0  0  0  0
  2  9  1  0  0  0  0
  2 14  1  0  0  0  0
  3 16  2  0  0  0  0
  4 11  1  0  0  0  0
  4 15  1  0  0  0  0
  4 43  1  0  0  0  0
  5 12  1  0  0  0  0
  5 16  1  0  0  0  0
  5 44  1  0  0  0  0
  6 16  1  0  0  0  0
  6 18  1  0  0  0  0
  6 45  1  0  0  0  0
  7 15  1  0  0  0  0
  7 17  2  0  0  0  0
  8 15  2  0  0  0  0
  8 19  1  0  0  0  0
  9 10  1  0  0  0  0
  9 11  1  0  0  0  0
  9 35  1  0  0  0  0
 10 12  1  0  0  0  0
 10 36  1  0  0  0  0
 11 13  1  0  0  0  0
 11 37  1  0  0  0  0
 12 14  1  0  0  0  0
 12 38  1  0  0  0  0
 13 39  1  0  0  0  0
 13 40  1  0  0  0  0
 14 41  1  0  0  0  0
 14 42  1  0  0  0  0
 17 20  1  0  0  0  0
 17 21  1  0  0  0  0
 18 22  1  0  0  0  0
 18 46  1  0  0  0  0
 18 47  1  0  0  0  0
 19 20  2  0  0  0  0
 19 48  1  0  0  0  0
 20 49  1  0  0  0  0
 21 23  2  0  0  0  0
 21 24  1  0  0  0  0
 22 28  2  0  0  0  0
 22 50  1  0  0  0  0
 23 25  1  0  0  0  0
 23 51  1  0  0  0  0
 24 26  2  0  0  0  0
 24 52  1  0  0  0  0
 25 27  2  0  0  0  0
 25 53  1  0  0  0  0
 26 27  1  0  0  0  0
 26 54  1  0  0  0  0
 27 29  1  0  0  0  0
 28 55  1  0  0  0  0
 28 56  1  0  0  0  0
 29 30  2  0  0  0  0
 29 31  1  0  0  0  0
 30 32  1  0  0  0  0
 30 57  1  0  0  0  0
 31 33  2  0  0  0  0
 31 58  1  0  0  0  0
 32 34  2  0  0  0  0
 32 59  1  0  0  0  0
 33 34  1  0  0  0  0
 33 60  1  0  0  0  0
 34 61  1  0  0  0  0
M  END
> <PUBCHEM_COMPOUND_CID>
11942696

> <PUBCHEM_CONFORMER_RMSD>
1

> <PUBCHEM_CONFORMER_DIVERSEORDER>
1
39
30
40
23
44
60
19
26
13
28
17
67
32
11
65
36
37
18
6
42
38
25
33
46
68
29
31
45
35
21
43
14
20
22
59
61
49
16
10
15
24
63
56
27
51
9
41
12
8
62
57
54
34
64
48
66
3
4
5
58
7
55
52
47
50
53
2

> <PUBCHEM_MMFF94_PARTIAL_CHARGES>
48
1 -0.56
10 0.28
11 0.37
12 0.3
13 0.28
14 0.28
15 0.72
16 0.69
17 0.31
18 0.44
19 0.16
2 -0.56
20 -0.15
22 -0.29
23 -0.15
24 -0.15
25 -0.15
26 -0.15
28 -0.3
3 -0.57
30 -0.15
31 -0.15
32 -0.15
33 -0.15
34 -0.15
4 -0.87
43 0.4
44 0.37
45 0.37
48 0.15
49 0.15
5 -0.73
50 0.15
51 0.15
52 0.15
53 0.15
54 0.15
55 0.15
56 0.15
57 0.15
58 0.15
59 0.15
6 -0.73
60 0.15
61 0.15
7 -0.62
8 -0.62
9 0.28

> <PUBCHEM_EFFECTIVE_ROTOR_COUNT>
10.2

> <PUBCHEM_PHARMACOPHORE_FEATURES>
14
1 1 acceptor
1 2 acceptor
1 28 hydrophobe
1 3 acceptor
1 4 donor
1 5 donor
1 6 donor
1 7 acceptor
4 4 7 8 15 cation
5 1 9 10 11 13 rings
5 2 9 10 12 14 rings
6 21 23 24 25 26 27 rings
6 29 30 31 32 33 34 rings
6 7 8 15 17 19 20 rings

> <PUBCHEM_HEAVY_ATOM_COUNT>
34

> <PUBCHEM_ATOM_DEF_STEREO_COUNT>
4

> <PUBCHEM_ATOM_UDEF_STEREO_COUNT>
0

> <PUBCHEM_BOND_DEF_STEREO_COUNT>
0

> <PUBCHEM_BOND_UDEF_STEREO_COUNT>
0

> <PUBCHEM_ISOTOPIC_ATOM_COUNT>
0

> <PUBCHEM_COMPONENT_COUNT>
1

> <PUBCHEM_CACTVS_TAUTO_COUNT>
9

> <PUBCHEM_CONFORMER_ID>
00B63B2800000001

> <PUBCHEM_MMFF94_ENERGY>
98.1377

> <PUBCHEM_FEATURE_SELFOVERLAP>
71.804

> <PUBCHEM_SHAPE_FINGERPRINT>
10049733 130 16628585509497382646
10674148 151 18335708304070418820
11374522 174 18342743971254072189
11374522 72 18261107427615029685
11410812 94 18197784517642325108
11475781 23 17917147312666945328
11505856 67 18121213444597424655
1200032 147 18409174302955303754
12061779 8 17896324799888469796
12104220 4 18187935031601767940
12758862 65 11674886584654619940
12975358 362 18266182717544387433
13383665 225 18343305894916122831
13383668 1 10738152233153354687
13782708 43 10375859793590158353
13944108 23 17985829220537731345
14114211 68 18131357367112854707
14294032 229 17988636459198906167
14664723 55 18342186573823263989
14747282 540 18270673156732391768
14840074 17 17458897262545802844
14931854 50 17346322591540542313
15198563 99 17555995224953791575
15350500 16 11959738131788758644
15357212 105 18261115183787733138
15392192 104 18411983543128988105
15406563 185 17131828751209415081
16992727 255 18341328989946534040
1768 23 17968093175043880876
19304671 126 16630515263245565073
19309040 13 18114184172260728882
20156587 76 9654737279176551034
21458453 9 13696430087891962148
21772528 278 17241045534929700650
23569914 152 17702684150927626972
24771750 20 17988365871268050135
3552219 110 17680981109323638903
38570 142 18041845129511525718
397830 11 17968101894106768467
3986486 107 17489879219410119388
4058900 60 18271525317230621579
4169191 19 18336539440176583813
4258327 124 18410287013734914261
42767 23 13254805607419849708
437795 139 10231764396069552790
4408954 87 12757430613668972288
44280116 191 18342459201368078472
444735 79 11386360479014544540
50009960 94 7852991811842507673
5252454 2 18268406062365221594
57527293 21 18114451276577748523
57724786 102 18334846200089492866
6058803 2 18122872526055606386

> <PUBCHEM_SHAPE_MULTIPOLES>
657.19
22.9
5.04
2.74
7.77
2.19
-0.04
-35.21
-6.96
-0.69
-2.54
-5.74
0
-5.69

> <PUBCHEM_SHAPE_SELFOVERLAP>
1433.593

> <PUBCHEM_SHAPE_VOLUME>
355.6

> <PUBCHEM_COORDINATE_TYPE>
2
5
10

$$$$
