45783810
  -OEChem-12032416263D

 54 57  0     1  0  0  0  0  0999 V2000
   -0.5956    2.0200   -1.8333 O   0  0  0  0  0  0  0  0  0  0  0  0
   -3.0171    0.9278    0.7064 N   0  0  1  0  0  0  0  0  0  0  0  0
   -3.4152   -3.2027   -0.2128 N   0  0  0  0  0  0  0  0  0  0  0  0
   -0.0929    1.0393    0.1168 N   0  0  0  0  0  0  0  0  0  0  0  0
    0.7565    1.6634   -1.9137 N   0  0  0  0  0  0  0  0  0  0  0  0
    4.5677    0.1407   -0.9295 N   0  0  0  0  0  0  0  0  0  0  0  0
    5.9901   -0.9416    0.6457 N   0  0  0  0  0  0  0  0  0  0  0  0
   -3.5252   -0.2937    0.0862 C   0  0  0  0  0  0  0  0  0  0  0  0
   -2.4691    1.8914   -0.2690 C   0  0  1  0  0  0  0  0  0  0  0  0
   -4.0553    1.6395    1.4521 C   0  0  0  0  0  0  0  0  0  0  0  0
   -2.4316   -0.9907   -0.7285 C   0  0  0  0  0  0  0  0  0  0  0  0
   -4.0662   -1.2457    1.1559 C   0  0  0  0  0  0  0  0  0  0  0  0
   -2.6771    3.2703    0.3842 C   0  0  0  0  0  0  0  0  0  0  0  0
   -3.4020    2.9855    1.6920 C   0  0  0  0  0  0  0  0  0  0  0  0
   -2.9306   -2.3255   -1.2877 C   0  0  0  0  0  0  0  0  0  0  0  0
   -4.5120   -2.5722    0.5350 C   0  0  0  0  0  0  0  0  0  0  0  0
   -1.0186    1.6172   -0.6063 C   0  0  0  0  0  0  0  0  0  0  0  0
   -3.8415   -4.4916   -0.7571 C   0  0  0  0  0  0  0  0  0  0  0  0
    0.9784    1.0907   -0.7269 C   0  0  0  0  0  0  0  0  0  0  0  0
    2.2579    0.5615   -0.3526 C   0  0  0  0  0  0  0  0  0  0  0  0
    2.4539   -0.0267    0.8920 C   0  0  0  0  0  0  0  0  0  0  0  0
    3.3373    0.6200   -1.2194 C   0  0  0  0  0  0  0  0  0  0  0  0
    3.7057   -0.5312    1.2270 C   0  0  0  0  0  0  0  0  0  0  0  0
    4.7203   -0.4239    0.2894 C   0  0  0  0  0  0  0  0  0  0  0  0
    7.0928   -0.8703   -0.2873 C   0  0  0  0  0  0  0  0  0  0  0  0
    6.1895   -1.5515    1.9417 C   0  0  0  0  0  0  0  0  0  0  0  0
   -4.3503   -0.0463   -0.5980 H   0  0  0  0  0  0  0  0  0  0  0  0
   -3.0547    1.8760   -1.1994 H   0  0  0  0  0  0  0  0  0  0  0  0
   -4.2973    1.1672    2.4088 H   0  0  0  0  0  0  0  0  0  0  0  0
   -4.9747    1.7639    0.8659 H   0  0  0  0  0  0  0  0  0  0  0  0
   -1.5463   -1.1817   -0.1089 H   0  0  0  0  0  0  0  0  0  0  0  0
   -2.1296   -0.3973   -1.5963 H   0  0  0  0  0  0  0  0  0  0  0  0
   -4.9328   -0.8187    1.6729 H   0  0  0  0  0  0  0  0  0  0  0  0
   -3.2988   -1.4411    1.9173 H   0  0  0  0  0  0  0  0  0  0  0  0
   -1.7465    3.8185    0.5667 H   0  0  0  0  0  0  0  0  0  0  0  0
   -3.3123    3.8911   -0.2594 H   0  0  0  0  0  0  0  0  0  0  0  0
   -4.1271    3.7658    1.9411 H   0  0  0  0  0  0  0  0  0  0  0  0
   -2.6769    2.9190    2.5127 H   0  0  0  0  0  0  0  0  0  0  0  0
   -3.7202   -2.1434   -2.0289 H   0  0  0  0  0  0  0  0  0  0  0  0
   -2.0973   -2.8089   -1.8123 H   0  0  0  0  0  0  0  0  0  0  0  0
   -4.8366   -3.2360    1.3457 H   0  0  0  0  0  0  0  0  0  0  0  0
   -5.3811   -2.4020   -0.1143 H   0  0  0  0  0  0  0  0  0  0  0  0
   -4.1554   -5.1647    0.0485 H   0  0  0  0  0  0  0  0  0  0  0  0
   -4.6725   -4.3884   -1.4641 H   0  0  0  0  0  0  0  0  0  0  0  0
   -3.0100   -4.9859   -1.2717 H   0  0  0  0  0  0  0  0  0  0  0  0
    1.6496   -0.1054    1.6191 H   0  0  0  0  0  0  0  0  0  0  0  0
    3.2679    1.0624   -2.2088 H   0  0  0  0  0  0  0  0  0  0  0  0
    3.8151   -0.9812    2.2062 H   0  0  0  0  0  0  0  0  0  0  0  0
    6.8582   -1.4178   -1.2068 H   0  0  0  0  0  0  0  0  0  0  0  0
    7.3156    0.1709   -0.5453 H   0  0  0  0  0  0  0  0  0  0  0  0
    8.0100   -1.3051    0.1237 H   0  0  0  0  0  0  0  0  0  0  0  0
    6.0098   -0.8374    2.7534 H   0  0  0  0  0  0  0  0  0  0  0  0
    5.5529   -2.4339    2.0722 H   0  0  0  0  0  0  0  0  0  0  0  0
    7.2216   -1.8994    2.0656 H   0  0  0  0  0  0  0  0  0  0  0  0
  1  5  1  0  0  0  0
  1 17  1  0  0  0  0
  2  8  1  0  0  0  0
  2  9  1  0  0  0  0
  2 10  1  0  0  0  0
  3 15  1  0  0  0  0
  3 16  1  0  0  0  0
  3 18  1  0  0  0  0
  4 17  2  0  0  0  0
  4 19  1  0  0  0  0
  5 19  2  0  0  0  0
  6 22  1  0  0  0  0
  6 24  2  0  0  0  0
  7 24  1  0  0  0  0
  7 25  1  0  0  0  0
  7 26  1  0  0  0  0
  8 11  1  0  0  0  0
  8 12  1  0  0  0  0
  8 27  1  0  0  0  0
  9 13  1  0  0  0  0
  9 17  1  0  0  0  0
  9 28  1  0  0  0  0
 10 14  1  0  0  0  0
 10 29  1  0  0  0  0
 10 30  1  0  0  0  0
 11 15  1  0  0  0  0
 11 31  1  0  0  0  0
 11 32  1  0  0  0  0
 12 16  1  0  0  0  0
 12 33  1  0  0  0  0
 12 34  1  0  0  0  0
 13 14  1  0  0  0  0
 13 35  1  0  0  0  0
 13 36  1  0  0  0  0
 14 37  1  0  0  0  0
 14 38  1  0  0  0  0
 15 39  1  0  0  0  0
 15 40  1  0  0  0  0
 16 41  1  0  0  0  0
 16 42  1  0  0  0  0
 18 43  1  0  0  0  0
 18 44  1  0  0  0  0
 18 45  1  0  0  0  0
 19 20  1  0  0  0  0
 20 21  1  0  0  0  0
 20 22  2  0  0  0  0
 21 23  2  0  0  0  0
 21 46  1  0  0  0  0
 22 47  1  0  0  0  0
 23 24  1  0  0  0  0
 23 48  1  0  0  0  0
 25 49  1  0  0  0  0
 25 50  1  0  0  0  0
 25 51  1  0  0  0  0
 26 52  1  0  0  0  0
 26 53  1  0  0  0  0
 26 54  1  0  0  0  0
M  END
> <PUBCHEM_COMPOUND_CID>
45783810

> <PUBCHEM_CONFORMER_RMSD>
0.8

> <PUBCHEM_CONFORMER_DIVERSEORDER>
1
53
54
62
61
46
35
67
7
38
31
56
17
34
23
60
37
49
15
63
27
52
4
65
18
16
26
39
29
47
45
40
33
57
36
55
43
66
10
14
41
24
25
30
12
9
42
32
21
50
8
6
28
20
51
48
19
11
3
64
2
13
58
22
44
59
5

> <PUBCHEM_MMFF94_PARTIAL_CHARGES>
25
1 -0.02
10 0.27
15 0.27
16 0.27
17 0.3
18 0.27
19 0.46
2 -0.81
20 0.05
21 -0.15
22 0.16
23 -0.15
24 0.41
25 0.37
26 0.37
3 -0.81
4 -0.57
46 0.15
47 0.15
48 0.15
5 -0.41
6 -0.62
7 -0.84
8 0.27
9 0.45

> <PUBCHEM_EFFECTIVE_ROTOR_COUNT>
6.2

> <PUBCHEM_PHARMACOPHORE_FEATURES>
8
1 2 cation
1 3 cation
3 4 5 19 cation
3 6 7 24 cation
5 1 4 5 17 19 rings
5 2 9 10 13 14 rings
6 3 8 11 12 15 16 rings
6 6 20 21 22 23 24 rings

> <PUBCHEM_HEAVY_ATOM_COUNT>
26

> <PUBCHEM_ATOM_DEF_STEREO_COUNT>
1

> <PUBCHEM_ATOM_UDEF_STEREO_COUNT>
0

> <PUBCHEM_BOND_DEF_STEREO_COUNT>
0

> <PUBCHEM_BOND_UDEF_STEREO_COUNT>
0

> <PUBCHEM_ISOTOPIC_ATOM_COUNT>
0

> <PUBCHEM_COMPONENT_COUNT>
1

> <PUBCHEM_CACTVS_TAUTO_COUNT>
1

> <PUBCHEM_CONFORMER_ID>
02BA9B0200000001

> <PUBCHEM_MMFF94_ENERGY>
57.574

> <PUBCHEM_FEATURE_SELFOVERLAP>
40.6

> <PUBCHEM_SHAPE_FINGERPRINT>
10305334 12 17605292700694495073
10319926 262 18131635560887453808
10622 236 18188767387309923783
11036077 4 18338797810609217129
11545043 162 18060414708077754554
11552529 35 18413384332582529696
12422481 6 18269273461645716614
12523318 42 18272367564089562353
12549972 3 16340647602811209637
12616971 3 17822020770249886076
12633257 1 17059784445736301667
12788726 201 18123214504509733361
12988421 55 17838905828473842041
13004483 165 18128256886399208469
13009979 54 18336834207364347109
13583140 156 17203603766283908776
14178342 30 18341621390681391319
14705955 166 16988014808086592691
14844126 61 18411703188521284163
14856354 85 18272652308116867748
14950920 106 18272929423395967560
15183329 4 12607398876651607840
15250474 111 18335419063075249122
15348495 7 18059566971991744048
15475509 35 16892034362475826515
15484559 13 14429905086107523564
15537594 2 17895199844530592106
16728300 4 18115323258408403739
16994733 274 15337714843795890985
17780758 139 18413105056629009545
17913733 40 16271927091373297942
19377110 9 18334857277395679020
20554085 129 17842269269208590617
20681677 274 18270961374781032585
20775438 99 16681171147118049667
21033648 29 16773526481396186753
21315759 148 18060137635775130090
23402539 116 17023185968808899052
23522609 53 17971222290900972156
23559900 14 18340194306362390601
23728640 28 18411990139765841833
25147074 1 18187943801829929948
2838139 119 10303804394233298906
312425 54 18270674261034008386
3383291 50 18343303661438130803
3459 110 16987705964955843720
397830 11 18130212849145055760
4017518 198 18195525896555196207
463206 1 18048882089544574547
484985 159 18336535071762112823
5104073 3 18342449349382325816
5283173 99 7997965774333744038
5364581 5 17987784332959701472
5486654 36 18408608071378064001
559249 180 18260265231666694625
5924683 9 18412542115397385033
602551 16 18343586235387892326
6677587 24 15372015663417623943
6691757 9 18271529689601988553
7970288 3 18191865832341265203
9953998 17 18341888568176281848
9981440 41 16558188177437490597

> <PUBCHEM_SHAPE_MULTIPOLES>
499.31
14.12
4.05
1.62
24.72
2.54
-0.07
8.72
-4.91
-8.85
0.18
0.48
-0.37
-2.58

> <PUBCHEM_SHAPE_SELFOVERLAP>
1060.575

> <PUBCHEM_SHAPE_VOLUME>
281.3

> <PUBCHEM_COORDINATE_TYPE>
2
5
10

$$$$
