71693114
  -OEChem-12032416273D

 60 62  0     1  0  0  0  0  0999 V2000
   -7.3055   -1.5836   -0.2012 F   0  0  0  0  0  0  0  0  0  0  0  0
    3.9332   -0.3052   -1.8121 O   0  0  0  0  0  0  0  0  0  0  0  0
    4.5716   -5.0558   -0.1895 O   0  0  0  0  0  0  0  0  0  0  0  0
    4.2459   -3.8672    1.7181 O   0  0  0  0  0  0  0  0  0  0  0  0
    3.5564    0.9485    0.1106 N   0  0  0  0  0  0  0  0  0  0  0  0
   -3.0686    0.1255    1.5029 N   0  0  0  0  0  0  0  0  0  0  0  0
   -1.8679   -0.8340   -0.1026 N   0  0  0  0  0  0  0  0  0  0  0  0
    0.8880    1.9406   -0.8584 C   0  0  1  0  0  0  0  0  0  0  0  0
    2.0035    2.8010   -0.2138 C   0  0  1  0  0  0  0  0  0  0  0  0
   -0.4720    2.2595   -0.2191 C   0  0  0  0  0  0  0  0  0  0  0  0
   -0.4757    2.0050    1.3001 C   0  0  2  0  0  0  0  0  0  0  0  0
    0.8111    2.1515   -2.3737 C   0  0  0  0  0  0  0  0  0  0  0  0
    0.7446    2.5995    1.9736 C   0  0  0  0  0  0  0  0  0  0  0  0
    1.8380    2.9615    1.2792 C   0  0  0  0  0  0  0  0  0  0  0  0
    3.3912    2.2232   -0.5145 C   0  0  0  0  0  0  0  0  0  0  0  0
   -0.5988    0.5088    1.6092 C   0  0  0  0  0  0  0  0  0  0  0  0
    0.1852    0.9354   -3.0491 C   0  0  0  0  0  0  0  0  0  0  0  0
    0.0204    3.4156   -2.6954 C   0  0  0  0  0  0  0  0  0  0  0  0
    0.6622    2.8108    3.4598 C   0  0  0  0  0  0  0  0  0  0  0  0
   -1.8248   -0.0833    0.9752 C   0  0  0  0  0  0  0  0  0  0  0  0
    3.8172   -0.2291   -0.5919 C   0  0  0  0  0  0  0  0  0  0  0  0
   -3.9746   -0.5343    0.7128 C   0  0  0  0  0  0  0  0  0  0  0  0
   -3.2006   -1.1251   -0.2820 C   0  0  0  0  0  0  0  0  0  0  0  0
    3.9426   -1.4284    0.3304 C   0  0  0  0  0  0  0  0  0  0  0  0
   -5.3625   -0.6610    0.7809 C   0  0  0  0  0  0  0  0  0  0  0  0
   -3.8319   -1.8917   -1.2762 C   0  0  0  0  0  0  0  0  0  0  0  0
    4.2275   -2.7204   -0.4284 C   0  0  0  0  0  0  0  0  0  0  0  0
   -5.9743   -1.4274   -0.2166 C   0  0  0  0  0  0  0  0  0  0  0  0
   -5.2244   -2.0327   -1.2277 C   0  0  0  0  0  0  0  0  0  0  0  0
    4.3429   -3.9072    0.4995 C   0  0  0  0  0  0  0  0  0  0  0  0
    1.1042    0.8820   -0.6703 H   0  0  0  0  0  0  0  0  0  0  0  0
    1.9747    3.8138   -0.6349 H   0  0  0  0  0  0  0  0  0  0  0  0
   -1.2899    1.7334   -0.7182 H   0  0  0  0  0  0  0  0  0  0  0  0
   -0.6974    3.3290   -0.3305 H   0  0  0  0  0  0  0  0  0  0  0  0
   -1.3629    2.5179    1.6986 H   0  0  0  0  0  0  0  0  0  0  0  0
    1.8153    2.2636   -2.7951 H   0  0  0  0  0  0  0  0  0  0  0  0
    2.6667    3.4271    1.8092 H   0  0  0  0  0  0  0  0  0  0  0  0
    4.1698    2.8771   -0.1033 H   0  0  0  0  0  0  0  0  0  0  0  0
    3.5806    2.1504   -1.5888 H   0  0  0  0  0  0  0  0  0  0  0  0
   -0.6557    0.3412    2.6920 H   0  0  0  0  0  0  0  0  0  0  0  0
    0.2835   -0.0423    1.2615 H   0  0  0  0  0  0  0  0  0  0  0  0
    0.1642    1.0705   -4.1362 H   0  0  0  0  0  0  0  0  0  0  0  0
    0.7664    0.0302   -2.8422 H   0  0  0  0  0  0  0  0  0  0  0  0
   -0.8437    0.7598   -2.7202 H   0  0  0  0  0  0  0  0  0  0  0  0
    0.3829    4.2914   -2.1492 H   0  0  0  0  0  0  0  0  0  0  0  0
    0.1328    3.6481   -3.7617 H   0  0  0  0  0  0  0  0  0  0  0  0
   -1.0561    3.3052   -2.5279 H   0  0  0  0  0  0  0  0  0  0  0  0
   -0.2102    3.4238    3.7086 H   0  0  0  0  0  0  0  0  0  0  0  0
    1.5467    3.3234    3.8528 H   0  0  0  0  0  0  0  0  0  0  0  0
    0.5774    1.8542    3.9836 H   0  0  0  0  0  0  0  0  0  0  0  0
    3.5363    0.9081    1.1258 H   0  0  0  0  0  0  0  0  0  0  0  0
   -3.2845    0.6696    2.3277 H   0  0  0  0  0  0  0  0  0  0  0  0
    4.7468   -1.2279    1.0489 H   0  0  0  0  0  0  0  0  0  0  0  0
    3.0091   -1.5228    0.8989 H   0  0  0  0  0  0  0  0  0  0  0  0
   -5.9424   -0.1904    1.5665 H   0  0  0  0  0  0  0  0  0  0  0  0
   -3.2581   -2.3656   -2.0662 H   0  0  0  0  0  0  0  0  0  0  0  0
    5.1674   -2.6277   -0.9843 H   0  0  0  0  0  0  0  0  0  0  0  0
    3.4183   -2.9198   -1.1401 H   0  0  0  0  0  0  0  0  0  0  0  0
   -5.7286   -2.6222   -1.9890 H   0  0  0  0  0  0  0  0  0  0  0  0
    4.6471   -5.8308    0.4071 H   0  0  0  0  0  0  0  0  0  0  0  0
  1 28  1  0  0  0  0
  2 21  2  0  0  0  0
  3 30  1  0  0  0  0
  3 60  1  0  0  0  0
  4 30  2  0  0  0  0
  5 15  1  0  0  0  0
  5 21  1  0  0  0  0
  5 51  1  0  0  0  0
  6 20  1  0  0  0  0
  6 22  1  0  0  0  0
  6 52  1  0  0  0  0
  7 20  2  0  0  0  0
  7 23  1  0  0  0  0
  8  9  1  0  0  0  0
  8 10  1  0  0  0  0
  8 12  1  0  0  0  0
  8 31  1  0  0  0  0
  9 14  1  0  0  0  0
  9 15  1  0  0  0  0
  9 32  1  0  0  0  0
 10 11  1  0  0  0  0
 10 33  1  0  0  0  0
 10 34  1  0  0  0  0
 11 13  1  0  0  0  0
 11 16  1  0  0  0  0
 11 35  1  0  0  0  0
 12 17  1  0  0  0  0
 12 18  1  0  0  0  0
 12 36  1  0  0  0  0
 13 14  2  0  0  0  0
 13 19  1  0  0  0  0
 14 37  1  0  0  0  0
 15 38  1  0  0  0  0
 15 39  1  0  0  0  0
 16 20  1  0  0  0  0
 16 40  1  0  0  0  0
 16 41  1  0  0  0  0
 17 42  1  0  0  0  0
 17 43  1  0  0  0  0
 17 44  1  0  0  0  0
 18 45  1  0  0  0  0
 18 46  1  0  0  0  0
 18 47  1  0  0  0  0
 19 48  1  0  0  0  0
 19 49  1  0  0  0  0
 19 50  1  0  0  0  0
 21 24  1  0  0  0  0
 22 23  2  0  0  0  0
 22 25  1  0  0  0  0
 23 26  1  0  0  0  0
 24 27  1  0  0  0  0
 24 53  1  0  0  0  0
 24 54  1  0  0  0  0
 25 28  2  0  0  0  0
 25 55  1  0  0  0  0
 26 29  2  0  0  0  0
 26 56  1  0  0  0  0
 27 30  1  0  0  0  0
 27 57  1  0  0  0  0
 27 58  1  0  0  0  0
 28 29  1  0  0  0  0
 29 59  1  0  0  0  0
M  END
> <PUBCHEM_COMPOUND_CID>
71693114

> <PUBCHEM_CONFORMER_RMSD>
1

> <PUBCHEM_CONFORMER_DIVERSEORDER>
1
85
69
72
102
104
98
108
100
56
84
36
68
29
62
101
41
55
106
64
80
37
52
61
74
49
90
78
76
81
60
38
15
63
54
96
50
47
91
95
3
92
73
87
23
51
70
27
110
34
109
94
44
32
58
86
82
2
89
67
93
19
40
33
66
105
99
88
5
75
111
26
39
35
77
43
10
65
45
21
30
107
6
17
103
4
18
57
83
31
112
42
8
20
79
48
7
97
25
12
71
9
14
53
28
59
24
13
16
46
11
22

> <PUBCHEM_MMFF94_PARTIAL_CHARGES>
32
1 -0.19
11 0.14
13 -0.28
14 -0.29
15 0.3
16 0.18
19 0.14
2 -0.57
20 0.01
21 0.57
22 -0.15
23 0.23
24 0.06
25 -0.15
26 -0.15
27 0.06
28 0.19
29 -0.15
3 -0.65
30 0.66
37 0.15
4 -0.57
5 -0.73
51 0.37
52 0.27
55 0.15
56 0.15
59 0.15
6 0.03
60 0.5
7 -0.57
9 0.14

> <PUBCHEM_EFFECTIVE_ROTOR_COUNT>
9.8

> <PUBCHEM_PHARMACOPHORE_FEATURES>
11
1 2 acceptor
1 3 acceptor
1 4 acceptor
1 5 donor
1 6 donor
3 12 17 18 hydrophobe
3 3 4 30 anion
3 6 7 20 cation
5 6 7 20 22 23 rings
6 22 23 25 26 28 29 rings
6 8 9 10 11 13 14 rings

> <PUBCHEM_HEAVY_ATOM_COUNT>
30

> <PUBCHEM_ATOM_DEF_STEREO_COUNT>
3

> <PUBCHEM_ATOM_UDEF_STEREO_COUNT>
0

> <PUBCHEM_BOND_DEF_STEREO_COUNT>
0

> <PUBCHEM_BOND_UDEF_STEREO_COUNT>
0

> <PUBCHEM_ISOTOPIC_ATOM_COUNT>
0

> <PUBCHEM_COMPONENT_COUNT>
1

> <PUBCHEM_CACTVS_TAUTO_COUNT>
6

> <PUBCHEM_CONFORMER_ID>
0445F33A00000001

> <PUBCHEM_MMFF94_ENERGY>
48.093

> <PUBCHEM_FEATURE_SELFOVERLAP>
55.985

> <PUBCHEM_SHAPE_FINGERPRINT>
10622 236 18192997019816670314
11069576 57 18408895035913809806
11135609 149 18264465391411491751
11552529 35 17767686058380392506
12107183 9 18128550271146522057
12156800 1 17100269374293395088
12617007 42 17168143506786715596
131258 38 18058156409831416406
13165053 137 14511838377817626131
13533116 47 18271246139960576371
14068700 675 18201450151331410200
14674994 50 17758678845786808996
15163728 17 11458715966950560864
15183329 4 17559970969031472105
17349148 13 16056053457942134217
18681886 176 15265952162664312928
19315092 285 18341336617639152472
20626108 58 17203338861270258721
20775530 9 18189908508992092882
21285901 2 17749380494899159036
23559900 14 18114461262693164699
25222932 49 16839659061170849839
3004659 81 16843901960847488025
345986 75 18130509647779062168
376196 1 16233090420329507285
46194498 28 16664047193885273217
484985 159 17544757829295893750
57527585 103 17550106961928299838
70251023 43 18115306666332553658
8509985 295 17703235130084689237

> <PUBCHEM_SHAPE_MULTIPOLES>
577.56
11.92
5.38
2.64
15.78
4.63
-0.28
15.87
-0.6
-9.28
0.74
-0.7
-2.75
-1.42

> <PUBCHEM_SHAPE_SELFOVERLAP>
1214.972

> <PUBCHEM_SHAPE_VOLUME>
327

> <PUBCHEM_COORDINATE_TYPE>
2
5
10

$$$$
