56775617
  -OEChem-12032416203D

 59 62  0     1  0  0  0  0  0999 V2000
    7.0110   -1.5478    0.4394 F   0  0  0  0  0  0  0  0  0  0  0  0
    4.8482   -1.6323    0.7405 F   0  0  0  0  0  0  0  0  0  0  0  0
    5.7314   -2.2318   -1.1948 F   0  0  0  0  0  0  0  0  0  0  0  0
   -0.9387    4.1586    2.5974 O   0  0  0  0  0  0  0  0  0  0  0  0
   -4.7735    1.1298   -0.3790 O   0  0  0  0  0  0  0  0  0  0  0  0
    5.7317   -0.0183   -0.6182 O   0  0  0  0  0  0  0  0  0  0  0  0
   -0.1244    2.1695    0.4681 N   0  0  0  0  0  0  0  0  0  0  0  0
   -4.1563    2.3265   -0.0354 N   0  0  0  0  0  0  0  0  0  0  0  0
   -3.5764   -2.0106   -1.2701 N   0  0  1  0  0  0  0  0  0  0  0  0
   -1.1057    3.2234    0.6860 C   0  0  0  0  0  0  0  0  0  0  0  0
   -0.4000    4.4350    1.2845 C   0  0  0  0  0  0  0  0  0  0  0  0
   -1.7097    3.0526    2.0753 C   0  0  0  0  0  0  0  0  0  0  0  0
   -2.0417    3.4261   -0.5131 C   0  0  0  0  0  0  0  0  0  0  0  0
   -2.9738    2.2962   -0.6564 C   0  0  0  0  0  0  0  0  0  0  0  0
    0.6452    2.4532   -0.7408 C   0  0  0  0  0  0  0  0  0  0  0  0
   -2.7909    1.1169   -1.3990 C   0  0  0  0  0  0  0  0  0  0  0  0
    1.9999    1.7967   -0.7099 C   0  0  0  0  0  0  0  0  0  0  0  0
   -3.9506    0.4182   -1.1911 C   0  0  0  0  0  0  0  0  0  0  0  0
   -4.4628   -0.9162   -1.6644 C   0  0  0  0  0  0  0  0  0  0  0  0
    3.0198    2.3384    0.0726 C   0  0  0  0  0  0  0  0  0  0  0  0
    2.2342    0.6457   -1.4619 C   0  0  0  0  0  0  0  0  0  0  0  0
   -3.7691   -2.3415    0.1413 C   0  0  0  0  0  0  0  0  0  0  0  0
    4.2740    1.7287    0.1030 C   0  0  0  0  0  0  0  0  0  0  0  0
    3.4883    0.0360   -1.4315 C   0  0  0  0  0  0  0  0  0  0  0  0
    4.5082    0.5774   -0.6491 C   0  0  0  0  0  0  0  0  0  0  0  0
   -3.8123   -3.1862   -2.1075 C   0  0  0  0  0  0  0  0  0  0  0  0
   -2.5670   -3.0364    0.7234 C   0  0  0  0  0  0  0  0  0  0  0  0
   -2.4759   -4.4276    0.6790 C   0  0  0  0  0  0  0  0  0  0  0  0
   -1.5445   -2.2888    1.3072 C   0  0  0  0  0  0  0  0  0  0  0  0
   -1.3622   -5.0712    1.2186 C   0  0  0  0  0  0  0  0  0  0  0  0
   -0.4308   -2.9324    1.8468 C   0  0  0  0  0  0  0  0  0  0  0  0
   -0.3397   -4.3236    1.8025 C   0  0  0  0  0  0  0  0  0  0  0  0
    5.8144   -1.3644   -0.1636 C   0  0  0  0  0  0  0  0  0  0  0  0
    0.6941    4.4457    1.3067 H   0  0  0  0  0  0  0  0  0  0  0  0
   -0.7492    5.4084    0.9231 H   0  0  0  0  0  0  0  0  0  0  0  0
   -2.7786    3.2678    2.1712 H   0  0  0  0  0  0  0  0  0  0  0  0
   -1.4911    2.1227    2.6112 H   0  0  0  0  0  0  0  0  0  0  0  0
   -1.5063    3.6160   -1.4493 H   0  0  0  0  0  0  0  0  0  0  0  0
   -2.6286    4.3411   -0.3475 H   0  0  0  0  0  0  0  0  0  0  0  0
   -0.5058    1.2255    0.4203 H   0  0  0  0  0  0  0  0  0  0  0  0
    0.8193    3.5269   -0.8935 H   0  0  0  0  0  0  0  0  0  0  0  0
    0.1051    2.1077   -1.6301 H   0  0  0  0  0  0  0  0  0  0  0  0
   -1.9466    0.8144   -2.0002 H   0  0  0  0  0  0  0  0  0  0  0  0
   -5.4916   -1.0833   -1.3196 H   0  0  0  0  0  0  0  0  0  0  0  0
   -4.5110   -0.8433   -2.7594 H   0  0  0  0  0  0  0  0  0  0  0  0
    2.8509    3.2350    0.6627 H   0  0  0  0  0  0  0  0  0  0  0  0
    1.4483    0.2117   -2.0745 H   0  0  0  0  0  0  0  0  0  0  0  0
   -4.6741   -2.9443    0.3018 H   0  0  0  0  0  0  0  0  0  0  0  0
   -3.9311   -1.4374    0.7441 H   0  0  0  0  0  0  0  0  0  0  0  0
    5.0646    2.1547    0.7146 H   0  0  0  0  0  0  0  0  0  0  0  0
    3.6587   -0.8569   -2.0266 H   0  0  0  0  0  0  0  0  0  0  0  0
   -3.0705   -3.9693   -1.9285 H   0  0  0  0  0  0  0  0  0  0  0  0
   -4.8142   -3.6073   -1.9646 H   0  0  0  0  0  0  0  0  0  0  0  0
   -3.7056   -2.9277   -3.1679 H   0  0  0  0  0  0  0  0  0  0  0  0
   -3.2699   -5.0254    0.2396 H   0  0  0  0  0  0  0  0  0  0  0  0
   -1.6012   -1.2040    1.3456 H   0  0  0  0  0  0  0  0  0  0  0  0
   -1.2926   -6.1546    1.1867 H   0  0  0  0  0  0  0  0  0  0  0  0
    0.3660   -2.3500    2.3004 H   0  0  0  0  0  0  0  0  0  0  0  0
    0.5274   -4.8246    2.2229 H   0  0  0  0  0  0  0  0  0  0  0  0
  1 33  1  0  0  0  0
  2 33  1  0  0  0  0
  3 33  1  0  0  0  0
  4 11  1  0  0  0  0
  4 12  1  0  0  0  0
  5  8  1  0  0  0  0
  5 18  1  0  0  0  0
  6 25  1  0  0  0  0
  6 33  1  0  0  0  0
  7 10  1  0  0  0  0
  7 15  1  0  0  0  0
  7 40  1  0  0  0  0
  8 14  2  0  0  0  0
  9 19  1  0  0  0  0
  9 22  1  0  0  0  0
  9 26  1  0  0  0  0
 10 11  1  0  0  0  0
 10 12  1  0  0  0  0
 10 13  1  0  0  0  0
 11 34  1  0  0  0  0
 11 35  1  0  0  0  0
 12 36  1  0  0  0  0
 12 37  1  0  0  0  0
 13 14  1  0  0  0  0
 13 38  1  0  0  0  0
 13 39  1  0  0  0  0
 14 16  1  0  0  0  0
 15 17  1  0  0  0  0
 15 41  1  0  0  0  0
 15 42  1  0  0  0  0
 16 18  2  0  0  0  0
 16 43  1  0  0  0  0
 17 20  2  0  0  0  0
 17 21  1  0  0  0  0
 18 19  1  0  0  0  0
 19 44  1  0  0  0  0
 19 45  1  0  0  0  0
 20 23  1  0  0  0  0
 20 46  1  0  0  0  0
 21 24  2  0  0  0  0
 21 47  1  0  0  0  0
 22 27  1  0  0  0  0
 22 48  1  0  0  0  0
 22 49  1  0  0  0  0
 23 25  2  0  0  0  0
 23 50  1  0  0  0  0
 24 25  1  0  0  0  0
 24 51  1  0  0  0  0
 26 52  1  0  0  0  0
 26 53  1  0  0  0  0
 26 54  1  0  0  0  0
 27 28  2  0  0  0  0
 27 29  1  0  0  0  0
 28 30  1  0  0  0  0
 28 55  1  0  0  0  0
 29 31  2  0  0  0  0
 29 56  1  0  0  0  0
 30 32  2  0  0  0  0
 30 57  1  0  0  0  0
 31 32  1  0  0  0  0
 31 58  1  0  0  0  0
 32 59  1  0  0  0  0
M  END
> <PUBCHEM_COMPOUND_CID>
56775617

> <PUBCHEM_CONFORMER_RMSD>
1.2

> <PUBCHEM_CONFORMER_DIVERSEORDER>
1
117
115
15
98
4
54
56
116
36
59
68
130
109
21
53
28
87
40
97
102
33
107
126
113
111
50
55
25
52
51
91
63
83
34
42
99
43
8
123
17
19
81
121
96
106
67
120
69
119
127
104
76
37
57
125
48
64
72
86
58
39
7
16
45
80
84
65
10
26
131
89
74
118
71
14
23
11
95
85
5
12
124
41
60
22
62
82
88
20
110
44
13
35
29
129
93
38
128
9
3
132
101
79
112
92
94
77
2
6
122
73
108
105
32
66
27
30
31
78
24
75
114
18
100
46
103
61
90
47
49
70

> <PUBCHEM_MMFF94_PARTIAL_CHARGES>
44
1 -0.34
10 0.21
11 0.26
12 0.26
13 0.18
14 0.11
15 0.41
16 -0.15
17 -0.14
18 -0.04
19 0.45
2 -0.34
20 -0.15
21 -0.15
22 0.41
23 -0.15
24 -0.15
25 0.08
26 0.27
27 -0.14
28 -0.15
29 -0.15
3 -0.34
30 -0.15
31 -0.15
32 -0.15
33 1.3
4 -0.52
40 0.36
43 0.15
46 0.15
47 0.15
5 -0.02
50 0.15
51 0.15
55 0.15
56 0.15
57 0.15
58 0.15
59 0.15
6 -0.36
7 -0.84
8 -0.41
9 -0.81

> <PUBCHEM_EFFECTIVE_ROTOR_COUNT>
11.8

> <PUBCHEM_PHARMACOPHORE_FEATURES>
10
1 4 acceptor
1 6 acceptor
1 7 cation
1 7 donor
1 8 acceptor
1 9 cation
4 4 10 11 12 rings
5 5 8 14 16 18 rings
6 17 20 21 23 24 25 rings
6 27 28 29 30 31 32 rings

> <PUBCHEM_HEAVY_ATOM_COUNT>
33

> <PUBCHEM_ATOM_DEF_STEREO_COUNT>
0

> <PUBCHEM_ATOM_UDEF_STEREO_COUNT>
0

> <PUBCHEM_BOND_DEF_STEREO_COUNT>
0

> <PUBCHEM_BOND_UDEF_STEREO_COUNT>
0

> <PUBCHEM_ISOTOPIC_ATOM_COUNT>
0

> <PUBCHEM_COMPONENT_COUNT>
1

> <PUBCHEM_CACTVS_TAUTO_COUNT>
1

> <PUBCHEM_CONFORMER_ID>
036253C100000001

> <PUBCHEM_MMFF94_ENERGY>
87.1152

> <PUBCHEM_FEATURE_SELFOVERLAP>
50.747

> <PUBCHEM_SHAPE_FINGERPRINT>
10305334 12 17693935190027374438
10462674 369 17614017595611157438
11211813 140 17461133519147520882
11285246 1 18339648836898730030
11374522 58 17178865012901456387
11828532 37 16814603428905381307
12120059 20 18339095792126493270
12173638 129 15408042918268580290
12712778 12 18117819187734947816
14251740 79 18335420162233026821
14659021 117 18336818805390597161
14844126 61 17846206744384249597
14866123 147 18409737292075322027
14918310 93 12270925159255374334
15322534 239 18334856082545535758
15351339 4 18260817220257519858
15968369 26 17545011150751930269
16120349 306 17764031263716300385
161222 10 18048615724188399966
17627616 140 17972311811516743819
19611394 137 18197208373185406320
19958102 18 18186792587068963342
20764821 26 18335994154500153211
20775438 99 17188658362711392599
22440779 20 16477756792910419988
23428019 142 18333170565743248454
23572383 38 18195239138794532578
395649 100 18335711529680314470
404807 14 17903368335552852187
437795 96 17402040596907651114
45266715 3 17545287110826842551
463206 1 18410856568361969757
469060 322 14764348223568845712
49967989 163 18264509381158134214
50677037 204 17184732607562136338
54324442 115 18264773327666778086
6376802 137 17988921193137532984
70634741 139 18262527000147336972

> <PUBCHEM_SHAPE_MULTIPOLES>
624.75
11.86
7.53
1.98
18.26
2.2
-0.43
8.3
5.13
-5.18
-4.82
-1.34
-0.05
0.46

> <PUBCHEM_SHAPE_SELFOVERLAP>
1335.768

> <PUBCHEM_SHAPE_VOLUME>
349.6

> <PUBCHEM_COORDINATE_TYPE>
2
5
10

$$$$
