25390234
  -OEChem-12032416253D

 49 50  0     1  0  0  0  0  0999 V2000
    3.6962   -2.6121    0.0784 S   0  0  0  0  0  0  0  0  0  0  0  0
    1.4462    0.7871   -0.8471 O   0  0  0  0  0  0  0  0  0  0  0  0
    0.6847    3.4471    1.4429 O   0  0  0  0  0  0  0  0  0  0  0  0
    2.5243    3.6213   -0.5953 O   0  0  0  0  0  0  0  0  0  0  0  0
   -1.3968    0.8834   -1.8269 O   0  0  0  0  0  0  0  0  0  0  0  0
    4.0925   -3.5734   -0.9320 O   0  0  0  0  0  0  0  0  0  0  0  0
    2.5129   -2.8317    0.8877 O   0  0  0  0  0  0  0  0  0  0  0  0
   -2.6651   -0.4254   -0.3863 N   0  0  0  0  0  0  0  0  0  0  0  0
    3.6290   -1.0406   -0.6359 N   0  0  0  0  0  0  0  0  0  0  0  0
    0.5030    1.5910   -0.1167 C   0  0  2  0  0  0  0  0  0  0  0  0
    1.3036    2.2638    0.9853 C   0  0  1  0  0  0  0  0  0  0  0  0
    2.6280    2.5085    0.2922 C   0  0  1  0  0  0  0  0  0  0  0  0
    2.7845    1.2460   -0.5482 C   0  0  1  0  0  0  0  0  0  0  0  0
   -0.6208    0.7135    0.4050 C   0  0  0  0  0  0  0  0  0  0  0  0
   -5.3867   -1.0838    0.3711 C   0  0  0  0  0  0  0  0  0  0  0  0
   -4.3329   -0.6759    1.4118 C   0  0  0  0  0  0  0  0  0  0  0  0
   -5.0524   -0.4635   -0.9940 C   0  0  0  0  0  0  0  0  0  0  0  0
   -2.9211   -1.0121    0.9342 C   0  0  0  0  0  0  0  0  0  0  0  0
   -3.6272   -0.8056   -1.4220 C   0  0  0  0  0  0  0  0  0  0  0  0
    3.5075    0.1260    0.1875 C   0  0  0  0  0  0  0  0  0  0  0  0
   -1.5899    0.4022   -0.7075 C   0  0  0  0  0  0  0  0  0  0  0  0
   -6.7858   -0.6752    0.8257 C   0  0  0  0  0  0  0  0  0  0  0  0
    5.0662   -2.3905    1.1900 C   0  0  0  0  0  0  0  0  0  0  0  0
    0.1173    2.3625   -0.7961 H   0  0  0  0  0  0  0  0  0  0  0  0
    1.4398    1.5839    1.8350 H   0  0  0  0  0  0  0  0  0  0  0  0
    3.4516    2.7059    0.9841 H   0  0  0  0  0  0  0  0  0  0  0  0
    3.2783    1.4497   -1.5056 H   0  0  0  0  0  0  0  0  0  0  0  0
   -1.1698    1.2408    1.1928 H   0  0  0  0  0  0  0  0  0  0  0  0
   -0.2149   -0.2265    0.7952 H   0  0  0  0  0  0  0  0  0  0  0  0
   -5.3687   -2.1771    0.2692 H   0  0  0  0  0  0  0  0  0  0  0  0
   -4.5274   -1.1838    2.3636 H   0  0  0  0  0  0  0  0  0  0  0  0
   -4.4006    0.4032    1.6014 H   0  0  0  0  0  0  0  0  0  0  0  0
   -5.1597    0.6277   -0.9390 H   0  0  0  0  0  0  0  0  0  0  0  0
   -5.7581   -0.8196   -1.7534 H   0  0  0  0  0  0  0  0  0  0  0  0
   -2.2006   -0.6759    1.6814 H   0  0  0  0  0  0  0  0  0  0  0  0
   -2.8006   -2.0975    0.8345 H   0  0  0  0  0  0  0  0  0  0  0  0
   -3.5239   -1.8850   -1.5847 H   0  0  0  0  0  0  0  0  0  0  0  0
   -3.3974   -0.3089   -2.3698 H   0  0  0  0  0  0  0  0  0  0  0  0
    2.9544   -0.1275    1.0986 H   0  0  0  0  0  0  0  0  0  0  0  0
    4.5073    0.4654    0.4790 H   0  0  0  0  0  0  0  0  0  0  0  0
   -6.8653    0.4106    0.9454 H   0  0  0  0  0  0  0  0  0  0  0  0
   -7.0330   -1.1406    1.7856 H   0  0  0  0  0  0  0  0  0  0  0  0
   -7.5385   -0.9913    0.0958 H   0  0  0  0  0  0  0  0  0  0  0  0
    1.3025    3.8806    2.0560 H   0  0  0  0  0  0  0  0  0  0  0  0
    3.3825    3.7170   -1.0427 H   0  0  0  0  0  0  0  0  0  0  0  0
    4.2165   -0.9106   -1.4701 H   0  0  0  0  0  0  0  0  0  0  0  0
    5.2711   -3.3541    1.6626 H   0  0  0  0  0  0  0  0  0  0  0  0
    5.9394   -2.0704    0.6185 H   0  0  0  0  0  0  0  0  0  0  0  0
    4.8038   -1.6592    1.9558 H   0  0  0  0  0  0  0  0  0  0  0  0
  1  6  2  0  0  0  0
  1  7  2  0  0  0  0
  1  9  1  0  0  0  0
  1 23  1  0  0  0  0
  2 10  1  0  0  0  0
  2 13  1  0  0  0  0
  3 11  1  0  0  0  0
  3 44  1  0  0  0  0
  4 12  1  0  0  0  0
  4 45  1  0  0  0  0
  5 21  2  0  0  0  0
  8 18  1  0  0  0  0
  8 19  1  0  0  0  0
  8 21  1  0  0  0  0
  9 20  1  0  0  0  0
  9 46  1  0  0  0  0
 10 11  1  0  0  0  0
 10 14  1  0  0  0  0
 10 24  1  0  0  0  0
 11 12  1  0  0  0  0
 11 25  1  0  0  0  0
 12 13  1  0  0  0  0
 12 26  1  0  0  0  0
 13 20  1  0  0  0  0
 13 27  1  0  0  0  0
 14 21  1  0  0  0  0
 14 28  1  0  0  0  0
 14 29  1  0  0  0  0
 15 16  1  0  0  0  0
 15 17  1  0  0  0  0
 15 22  1  0  0  0  0
 15 30  1  0  0  0  0
 16 18  1  0  0  0  0
 16 31  1  0  0  0  0
 16 32  1  0  0  0  0
 17 19  1  0  0  0  0
 17 33  1  0  0  0  0
 17 34  1  0  0  0  0
 18 35  1  0  0  0  0
 18 36  1  0  0  0  0
 19 37  1  0  0  0  0
 19 38  1  0  0  0  0
 20 39  1  0  0  0  0
 20 40  1  0  0  0  0
 22 41  1  0  0  0  0
 22 42  1  0  0  0  0
 22 43  1  0  0  0  0
 23 47  1  0  0  0  0
 23 48  1  0  0  0  0
 23 49  1  0  0  0  0
M  END
> <PUBCHEM_COMPOUND_CID>
25390234

> <PUBCHEM_CONFORMER_RMSD>
1

> <PUBCHEM_CONFORMER_DIVERSEORDER>
1
24
77
152
85
162
30
76
186
190
191
106
129
181
150
131
29
55
145
39
62
51
123
175
158
53
17
100
9
157
112
89
154
192
7
94
159
79
173
196
8
189
140
46
153
165
203
188
98
182
50
202
149
110
48
200
67
69
43
16
10
160
87
74
201
108
73
204
23
164
113
72
161
115
163
198
122
118
80
195
40
184
176
185
19
179
174
91
18
148
193
197
78
38
88
3
166
187
59
134
13
27
26
178
12
109
45
177
57
168
58
31
34
70
141
172
93
65
37
90
11
102
180
171
97
126
64
143
133
183
35
167
103
14
20
117
21
22
136
5
116
99
104
107
144
83
101
111
49
137
96
169
63
151
25
81
71
68
138
146
120
2
121
36
142
33
139
125
60
194
147
199
4
61
135
105
6
54
82
52
32
132
47
130
42
155
41
92
75
114
124
44
84
86
95
56
170
119
66
156
127
15
128
28

> <PUBCHEM_MMFF94_PARTIAL_CHARGES>
22
1 1.33
10 0.28
11 0.28
12 0.28
13 0.28
14 0.06
18 0.3
19 0.3
2 -0.56
20 0.36
21 0.57
23 0.11
3 -0.68
4 -0.68
44 0.4
45 0.4
46 0.42
5 -0.57
6 -0.65
7 -0.65
8 -0.66
9 -0.91

> <PUBCHEM_EFFECTIVE_ROTOR_COUNT>
8.2

> <PUBCHEM_PHARMACOPHORE_FEATURES>
11
1 2 acceptor
1 3 acceptor
1 3 donor
1 4 acceptor
1 4 donor
1 5 acceptor
1 6 acceptor
1 7 acceptor
1 9 donor
5 2 10 11 12 13 rings
6 8 15 16 17 18 19 rings

> <PUBCHEM_HEAVY_ATOM_COUNT>
23

> <PUBCHEM_ATOM_DEF_STEREO_COUNT>
4

> <PUBCHEM_ATOM_UDEF_STEREO_COUNT>
0

> <PUBCHEM_BOND_DEF_STEREO_COUNT>
0

> <PUBCHEM_BOND_UDEF_STEREO_COUNT>
0

> <PUBCHEM_ISOTOPIC_ATOM_COUNT>
0

> <PUBCHEM_COMPONENT_COUNT>
1

> <PUBCHEM_CACTVS_TAUTO_COUNT>
1

> <PUBCHEM_CONFORMER_ID>
01836C9A00000001

> <PUBCHEM_MMFF94_ENERGY>
43.7655

> <PUBCHEM_FEATURE_SELFOVERLAP>
55.853

> <PUBCHEM_SHAPE_FINGERPRINT>
11265709 11 18341892940341965474
114674 6 18187363242384098410
12107183 9 18127141779708452881
12553582 1 18272651212736638102
12596602 18 17059773450224534451
12633257 1 18202849872177262119
13402501 40 18040716974040510346
13533116 47 18412548747396615523
13583140 156 17913219938467323993
13785724 45 18057340387245686519
13955234 65 18266176308798443488
14848160 33 18409162186816008814
14863182 85 18411416237804149038
14866123 147 17620475709873422825
15142526 21 17267493324446805472
15250474 111 17986099936885675103
15537594 2 18340773718729980302
17818456 19 17702677536024227193
17980427 26 17698986689768999684
1813 80 18130795499174895238
18681886 176 15625109822020925920
20645477 70 18261386797202436377
20775530 9 18266732490062773862
20832881 197 18409448047064734771
21033650 10 15502649339618331629
21279426 13 18261387785815190941
212916 134 15482676771303531671
21315759 148 17969232303592186577
21344244 78 18060695087320950953
21421861 104 18272660042693324588
23557571 272 17022896878696664173
23559900 14 17676485060205498247
239999 70 17241324814572026492
3014965 18 18411697691247935983
3421961 26 18410571795082185664
345986 75 18060421274550078392
34797466 226 16588310548595082823
46194498 28 17458067092416752700
463206 1 18411412951458543318
5309563 4 18196657298035862094
59682541 52 18268127891035955239
7970288 3 18269558226224881230

> <PUBCHEM_SHAPE_MULTIPOLES>
432
12.69
3.86
1.37
14.7
0.55
0.07
-9.96
-1.84
-7.82
-0.63
0.73
0
0.13

> <PUBCHEM_SHAPE_SELFOVERLAP>
859.699

> <PUBCHEM_SHAPE_VOLUME>
256.9

> <PUBCHEM_COORDINATE_TYPE>
2
5
10

$$$$
