44716170
  -OEChem-12032416153D

 65 69  0     1  0  0  0  0  0999 V2000
   -5.5073    0.3743    0.8240 O   0  0  0  0  0  0  0  0  0  0  0  0
   -2.5029    2.8127    0.4941 N   0  0  1  0  0  0  0  0  0  0  0  0
   -4.7640   -1.4185   -0.4292 N   0  0  0  0  0  0  0  0  0  0  0  0
    1.2589    2.8549   -0.2211 N   0  0  0  0  0  0  0  0  0  0  0  0
    1.3694    2.8856   -1.5590 N   0  0  0  0  0  0  0  0  0  0  0  0
    2.6064    2.5069   -1.8613 N   0  0  0  0  0  0  0  0  0  0  0  0
    4.8499    0.4863   -0.0357 N   0  0  1  0  0  0  0  0  0  0  0  0
   -2.2641    0.2452    0.8461 C   0  0  1  0  0  0  0  0  0  0  0  0
   -3.3602    0.5702   -0.1881 C   0  0  2  0  0  0  0  0  0  0  0  0
   -1.1878    2.3431   -0.0223 C   0  0  2  0  0  0  0  0  0  0  0  0
   -0.9494    0.8550    0.3246 C   0  0  0  0  0  0  0  0  0  0  0  0
   -2.5816    0.9622    2.1709 C   0  0  0  0  0  0  0  0  0  0  0  0
   -3.5762    2.0945   -0.2408 C   0  0  0  0  0  0  0  0  0  0  0  0
   -2.6474    2.4781    1.9292 C   0  0  0  0  0  0  0  0  0  0  0  0
   -0.0324    3.2275    0.4515 C   0  0  0  0  0  0  0  0  0  0  0  0
   -4.6456   -0.1548    0.1202 C   0  0  0  0  0  0  0  0  0  0  0  0
   -5.9402   -2.2499   -0.2198 C   0  0  0  0  0  0  0  0  0  0  0  0
   -3.7852   -2.0987   -1.2718 C   0  0  0  0  0  0  0  0  0  0  0  0
   -5.7992   -3.3717   -1.2370 C   0  0  0  0  0  0  0  0  0  0  0  0
   -4.2890   -3.5325   -1.3564 C   0  0  0  0  0  0  0  0  0  0  0  0
    2.4187    2.4568    0.3693 C   0  0  0  0  0  0  0  0  0  0  0  0
    3.2620    2.2408   -0.6914 C   0  0  0  0  0  0  0  0  0  0  0  0
    4.6609    1.7939   -0.6860 C   0  0  0  0  0  0  0  0  0  0  0  0
    4.4323   -0.5849   -0.9338 C   0  0  0  0  0  0  0  0  0  0  0  0
    6.2447    0.3197    0.3583 C   0  0  0  0  0  0  0  0  0  0  0  0
    4.0982   -1.8469   -0.1838 C   0  0  0  0  0  0  0  0  0  0  0  0
    5.0907   -2.7953    0.0635 C   0  0  0  0  0  0  0  0  0  0  0  0
    2.7957   -2.0679    0.2637 C   0  0  0  0  0  0  0  0  0  0  0  0
    4.7808   -3.9647    0.7581 C   0  0  0  0  0  0  0  0  0  0  0  0
    2.4857   -3.2369    0.9584 C   0  0  0  0  0  0  0  0  0  0  0  0
    3.4783   -4.1853    1.2056 C   0  0  0  0  0  0  0  0  0  0  0  0
   -2.1545   -0.8301    1.0176 H   0  0  0  0  0  0  0  0  0  0  0  0
   -3.0085    0.2726   -1.1831 H   0  0  0  0  0  0  0  0  0  0  0  0
   -1.2248    2.4301   -1.1177 H   0  0  0  0  0  0  0  0  0  0  0  0
   -0.1686    0.7317    1.0849 H   0  0  0  0  0  0  0  0  0  0  0  0
   -0.6167    0.3150   -0.5705 H   0  0  0  0  0  0  0  0  0  0  0  0
   -1.8026    0.7415    2.9109 H   0  0  0  0  0  0  0  0  0  0  0  0
   -3.5271    0.6022    2.5907 H   0  0  0  0  0  0  0  0  0  0  0  0
   -3.5686    2.4239   -1.2885 H   0  0  0  0  0  0  0  0  0  0  0  0
   -4.5516    2.4184    0.1403 H   0  0  0  0  0  0  0  0  0  0  0  0
   -1.8813    2.9900    2.5225 H   0  0  0  0  0  0  0  0  0  0  0  0
   -3.6025    2.8694    2.3025 H   0  0  0  0  0  0  0  0  0  0  0  0
    0.1562    3.1481    1.5273 H   0  0  0  0  0  0  0  0  0  0  0  0
   -0.1901    4.2810    0.1931 H   0  0  0  0  0  0  0  0  0  0  0  0
   -5.9000   -2.6300    0.8070 H   0  0  0  0  0  0  0  0  0  0  0  0
   -6.8576   -1.6673   -0.3454 H   0  0  0  0  0  0  0  0  0  0  0  0
   -2.7774   -2.0397   -0.8550 H   0  0  0  0  0  0  0  0  0  0  0  0
   -3.7985   -1.6188   -2.2565 H   0  0  0  0  0  0  0  0  0  0  0  0
   -6.3048   -4.2897   -0.9256 H   0  0  0  0  0  0  0  0  0  0  0  0
   -6.2156   -3.0588   -2.2022 H   0  0  0  0  0  0  0  0  0  0  0  0
   -3.9829   -4.0333   -2.2789 H   0  0  0  0  0  0  0  0  0  0  0  0
   -3.9109   -4.1141   -0.5069 H   0  0  0  0  0  0  0  0  0  0  0  0
    2.5366    2.3649    1.4397 H   0  0  0  0  0  0  0  0  0  0  0  0
    5.2248    2.5621   -0.1385 H   0  0  0  0  0  0  0  0  0  0  0  0
    5.0749    1.7889   -1.7033 H   0  0  0  0  0  0  0  0  0  0  0  0
    3.5296   -0.3068   -1.4951 H   0  0  0  0  0  0  0  0  0  0  0  0
    5.1851   -0.7897   -1.7082 H   0  0  0  0  0  0  0  0  0  0  0  0
    6.9226    0.2872   -0.5026 H   0  0  0  0  0  0  0  0  0  0  0  0
    6.5629    1.1469    1.0042 H   0  0  0  0  0  0  0  0  0  0  0  0
    6.3938   -0.5828    0.9575 H   0  0  0  0  0  0  0  0  0  0  0  0
    6.1074   -2.6444   -0.2894 H   0  0  0  0  0  0  0  0  0  0  0  0
    2.0133   -1.3360    0.0802 H   0  0  0  0  0  0  0  0  0  0  0  0
    5.5529   -4.7045    0.9482 H   0  0  0  0  0  0  0  0  0  0  0  0
    1.4716   -3.4085    1.3073 H   0  0  0  0  0  0  0  0  0  0  0  0
    3.2367   -5.0959    1.7460 H   0  0  0  0  0  0  0  0  0  0  0  0
  1 16  2  0  0  0  0
  2 10  1  0  0  0  0
  2 13  1  0  0  0  0
  2 14  1  0  0  0  0
  3 16  1  0  0  0  0
  3 17  1  0  0  0  0
  3 18  1  0  0  0  0
  4  5  1  0  0  0  0
  4 15  1  0  0  0  0
  4 21  1  0  0  0  0
  5  6  2  0  0  0  0
  6 22  1  0  0  0  0
  7 23  1  0  0  0  0
  7 24  1  0  0  0  0
  7 25  1  0  0  0  0
  8  9  1  0  0  0  0
  8 11  1  0  0  0  0
  8 12  1  0  0  0  0
  8 32  1  0  0  0  0
  9 13  1  0  0  0  0
  9 16  1  0  0  0  0
  9 33  1  0  0  0  0
 10 11  1  0  0  0  0
 10 15  1  0  0  0  0
 10 34  1  0  0  0  0
 11 35  1  0  0  0  0
 11 36  1  0  0  0  0
 12 14  1  0  0  0  0
 12 37  1  0  0  0  0
 12 38  1  0  0  0  0
 13 39  1  0  0  0  0
 13 40  1  0  0  0  0
 14 41  1  0  0  0  0
 14 42  1  0  0  0  0
 15 43  1  0  0  0  0
 15 44  1  0  0  0  0
 17 19  1  0  0  0  0
 17 45  1  0  0  0  0
 17 46  1  0  0  0  0
 18 20  1  0  0  0  0
 18 47  1  0  0  0  0
 18 48  1  0  0  0  0
 19 20  1  0  0  0  0
 19 49  1  0  0  0  0
 19 50  1  0  0  0  0
 20 51  1  0  0  0  0
 20 52  1  0  0  0  0
 21 22  2  0  0  0  0
 21 53  1  0  0  0  0
 22 23  1  0  0  0  0
 23 54  1  0  0  0  0
 23 55  1  0  0  0  0
 24 26  1  0  0  0  0
 24 56  1  0  0  0  0
 24 57  1  0  0  0  0
 25 58  1  0  0  0  0
 25 59  1  0  0  0  0
 25 60  1  0  0  0  0
 26 27  2  0  0  0  0
 26 28  1  0  0  0  0
 27 29  1  0  0  0  0
 27 61  1  0  0  0  0
 28 30  2  0  0  0  0
 28 62  1  0  0  0  0
 29 31  2  0  0  0  0
 29 63  1  0  0  0  0
 30 31  1  0  0  0  0
 30 64  1  0  0  0  0
 31 65  1  0  0  0  0
M  END
> <PUBCHEM_COMPOUND_CID>
44716170

> <PUBCHEM_CONFORMER_RMSD>
1.4

> <PUBCHEM_CONFORMER_DIVERSEORDER>
1
139
112
11
52
137
86
93
38
106
45
146
55
151
22
24
42
162
142
56
40
33
12
129
163
14
20
135
76
34
94
25
91
10
95
51
30
65
147
115
5
21
61
159
104
161
16
44
43
124
81
8
84
130
114
73
6
59
100
90
131
47
32
123
7
63
87
126
85
41
89
82
53
105
125
13
72
4
153
66
37
75
9
48
119
74
145
132
88
98
122
111
149
57
46
103
23
141
144
143
35
62
3
148
134
15
152
19
83
27
69
102
118
150
26
107
58
158
60
80
164
121
154
92
138
136
156
68
31
49
78
157
109
36
116
67
155
160
79
2
39
17
133
77
71
117
99
70
97
108
128
54
127
113
120
28
50
64
96
29
101
110
18
140

> <PUBCHEM_MMFF94_PARTIAL_CHARGES>
32
1 -0.57
10 0.27
13 0.27
14 0.27
15 0.26
16 0.57
17 0.3
18 0.3
2 -0.81
21 -0.3
22 0.05
23 0.45
24 0.41
25 0.27
26 -0.14
27 -0.15
28 -0.15
29 -0.15
3 -0.66
30 -0.15
31 -0.15
4 0.31
5 -0.42
53 0.15
6 -0.23
61 0.15
62 0.15
63 0.15
64 0.15
65 0.15
7 -0.81
9 0.06

> <PUBCHEM_EFFECTIVE_ROTOR_COUNT>
10.2

> <PUBCHEM_PHARMACOPHORE_FEATURES>
7
1 1 acceptor
1 2 cation
1 7 cation
5 3 17 18 19 20 rings
5 4 5 6 21 22 rings
6 26 27 28 29 30 31 rings
8 2 8 9 10 11 12 13 14 rings

> <PUBCHEM_HEAVY_ATOM_COUNT>
31

> <PUBCHEM_ATOM_DEF_STEREO_COUNT>
2

> <PUBCHEM_ATOM_UDEF_STEREO_COUNT>
1

> <PUBCHEM_BOND_DEF_STEREO_COUNT>
0

> <PUBCHEM_BOND_UDEF_STEREO_COUNT>
0

> <PUBCHEM_ISOTOPIC_ATOM_COUNT>
0

> <PUBCHEM_COMPONENT_COUNT>
1

> <PUBCHEM_CACTVS_TAUTO_COUNT>
1

> <PUBCHEM_CONFORMER_ID>
02AA508A00000001

> <PUBCHEM_MMFF94_ENERGY>
76.1144

> <PUBCHEM_FEATURE_SELFOVERLAP>
35.523

> <PUBCHEM_SHAPE_FINGERPRINT>
10049733 135 16199870686476984427
10448021 39 18339631347876842895
10622 236 18340195332764473023
10928967 22 17976840696133186774
11136131 41 18187079526331219242
11227150 75 16953902429359556778
11963148 33 18117552934893246762
12107183 9 17907027174841533064
12596602 18 17704359866351079880
12645989 146 18122629345423895066
13383661 66 17254568604529070667
1361 2 18263081166538839482
13692114 37 18123466353356612760
14117953 113 17836080070435432575
14347332 77 18411418440705906725
14480069 147 18335706082896956435
14784336 7 18272090555794833417
15001296 14 18342177786414459558
15250474 111 18412547599943950004
15351339 4 17907004432815334658
15361156 5 17750814163731117724
19315092 285 18131350834473100096
19319366 153 17979068619674827294
20028762 73 18340769330048512750
20775530 9 18130212874519668167
208703 8 18273216408652247398
21049683 118 15334093000605709977
21585483 132 17699551843869079863
21703447 108 17986947651460198761
23559900 14 18410845552214077953
25222932 49 18271523203926675572
3246872 21 18411415150507912950
4394409 98 18049431553547645519
44344687 77 18188778383286370203
45266715 3 17049331547958669135
4573279 79 12243403494406800445
463206 1 18339366395259011257
50080093 196 18117559513680981362
5326457 24 18411702084155525813
6201460 15 18341609334677679887
66674814 147 18114457967872480178
7970288 3 18340766056687353485

> <PUBCHEM_SHAPE_MULTIPOLES>
602.21
15.16
6.08
1.45
1.27
3.45
0.18
12.77
-1.68
-1.93
-0.09
0.63
-0.19
-4.78

> <PUBCHEM_SHAPE_SELFOVERLAP>
1282.987

> <PUBCHEM_SHAPE_VOLUME>
332.6

> <PUBCHEM_COORDINATE_TYPE>
2
5
10

$$$$
