45783566
  -OEChem-12032416273D

 48 50  0     1  0  0  0  0  0999 V2000
    2.4292    1.8773   -0.9837 O   0  0  0  0  0  0  0  0  0  0  0  0
   -4.6552   -0.3963    0.4876 O   0  0  0  0  0  0  0  0  0  0  0  0
   -7.3130   -0.7750   -0.3040 O   0  0  0  0  0  0  0  0  0  0  0  0
    4.7578   -0.5052    0.3066 N   0  0  2  0  0  0  0  0  0  0  0  0
    1.6508   -0.1550   -0.4543 N   0  0  0  0  0  0  0  0  0  0  0  0
    1.0459    2.0212   -0.8175 N   0  0  0  0  0  0  0  0  0  0  0  0
   -3.0148    1.1499   -0.0622 N   0  0  0  0  0  0  0  0  0  0  0  0
    4.1603    0.1453   -0.8711 C   0  0  1  0  0  0  0  0  0  0  0  0
    4.4342   -0.8958   -1.9653 C   0  0  0  0  0  0  0  0  0  0  0  0
    4.4391   -1.9258    0.2379 C   0  0  0  0  0  0  0  0  0  0  0  0
    4.5346   -2.2417   -1.2477 C   0  0  0  0  0  0  0  0  0  0  0  0
    4.4742    0.0952    1.5968 C   0  0  0  0  0  0  0  0  0  0  0  0
    2.7017    0.5664   -0.7523 C   0  0  0  0  0  0  0  0  0  0  0  0
    4.8155    1.5824    1.5749 C   0  0  0  0  0  0  0  0  0  0  0  0
    5.2644   -0.6324    2.6800 C   0  0  0  0  0  0  0  0  0  0  0  0
    0.6589    0.7805   -0.5066 C   0  0  0  0  0  0  0  0  0  0  0  0
   -0.7101    0.4422   -0.2442 C   0  0  0  0  0  0  0  0  0  0  0  0
   -1.0773   -0.8604    0.0750 C   0  0  0  0  0  0  0  0  0  0  0  0
   -1.7078    1.4021   -0.2994 C   0  0  0  0  0  0  0  0  0  0  0  0
   -2.4120   -1.1590    0.3256 C   0  0  0  0  0  0  0  0  0  0  0  0
   -3.3336   -0.1275    0.2449 C   0  0  0  0  0  0  0  0  0  0  0  0
   -5.5590    0.6983    0.3915 C   0  0  0  0  0  0  0  0  0  0  0  0
   -6.9659    0.2041    0.6677 C   0  0  0  0  0  0  0  0  0  0  0  0
   -8.6177   -1.2909   -0.0800 C   0  0  0  0  0  0  0  0  0  0  0  0
    4.7392    1.0443   -1.1203 H   0  0  0  0  0  0  0  0  0  0  0  0
    3.6612   -0.9140   -2.7411 H   0  0  0  0  0  0  0  0  0  0  0  0
    5.3927   -0.6841   -2.4560 H   0  0  0  0  0  0  0  0  0  0  0  0
    5.1435   -2.5522    0.7941 H   0  0  0  0  0  0  0  0  0  0  0  0
    3.4248   -2.1366    0.5984 H   0  0  0  0  0  0  0  0  0  0  0  0
    5.4893   -2.7226   -1.4897 H   0  0  0  0  0  0  0  0  0  0  0  0
    3.7306   -2.9176   -1.5577 H   0  0  0  0  0  0  0  0  0  0  0  0
    3.4103    0.0001    1.8504 H   0  0  0  0  0  0  0  0  0  0  0  0
    5.8507    1.7506    1.2555 H   0  0  0  0  0  0  0  0  0  0  0  0
    4.1605    2.1700    0.9284 H   0  0  0  0  0  0  0  0  0  0  0  0
    4.7154    2.0082    2.5803 H   0  0  0  0  0  0  0  0  0  0  0  0
    6.3341   -0.6718    2.4440 H   0  0  0  0  0  0  0  0  0  0  0  0
    4.9067   -1.6547    2.8404 H   0  0  0  0  0  0  0  0  0  0  0  0
    5.1618   -0.1146    3.6407 H   0  0  0  0  0  0  0  0  0  0  0  0
   -0.3456   -1.6619    0.1359 H   0  0  0  0  0  0  0  0  0  0  0  0
   -1.5051    2.4413   -0.5410 H   0  0  0  0  0  0  0  0  0  0  0  0
   -2.7150   -2.1698    0.5759 H   0  0  0  0  0  0  0  0  0  0  0  0
   -5.5199    1.1144   -0.6230 H   0  0  0  0  0  0  0  0  0  0  0  0
   -5.2974    1.4719    1.1230 H   0  0  0  0  0  0  0  0  0  0  0  0
   -7.0087   -0.2530    1.6632 H   0  0  0  0  0  0  0  0  0  0  0  0
   -7.6723    1.0402    0.6214 H   0  0  0  0  0  0  0  0  0  0  0  0
   -8.6744   -1.7810    0.8968 H   0  0  0  0  0  0  0  0  0  0  0  0
   -9.3628   -0.4920   -0.1451 H   0  0  0  0  0  0  0  0  0  0  0  0
   -8.8325   -2.0320   -0.8546 H   0  0  0  0  0  0  0  0  0  0  0  0
  1  6  1  0  0  0  0
  1 13  1  0  0  0  0
  2 21  1  0  0  0  0
  2 22  1  0  0  0  0
  3 23  1  0  0  0  0
  3 24  1  0  0  0  0
  4  8  1  0  0  0  0
  4 10  1  0  0  0  0
  4 12  1  0  0  0  0
  5 13  2  0  0  0  0
  5 16  1  0  0  0  0
  6 16  2  0  0  0  0
  7 19  1  0  0  0  0
  7 21  2  0  0  0  0
  8  9  1  0  0  0  0
  8 13  1  0  0  0  0
  8 25  1  0  0  0  0
  9 11  1  0  0  0  0
  9 26  1  0  0  0  0
  9 27  1  0  0  0  0
 10 11  1  0  0  0  0
 10 28  1  0  0  0  0
 10 29  1  0  0  0  0
 11 30  1  0  0  0  0
 11 31  1  0  0  0  0
 12 14  1  0  0  0  0
 12 15  1  0  0  0  0
 12 32  1  0  0  0  0
 14 33  1  0  0  0  0
 14 34  1  0  0  0  0
 14 35  1  0  0  0  0
 15 36  1  0  0  0  0
 15 37  1  0  0  0  0
 15 38  1  0  0  0  0
 16 17  1  0  0  0  0
 17 18  1  0  0  0  0
 17 19  2  0  0  0  0
 18 20  2  0  0  0  0
 18 39  1  0  0  0  0
 19 40  1  0  0  0  0
 20 21  1  0  0  0  0
 20 41  1  0  0  0  0
 22 23  1  0  0  0  0
 22 42  1  0  0  0  0
 22 43  1  0  0  0  0
 23 44  1  0  0  0  0
 23 45  1  0  0  0  0
 24 46  1  0  0  0  0
 24 47  1  0  0  0  0
 24 48  1  0  0  0  0
M  END
> <PUBCHEM_COMPOUND_CID>
45783566

> <PUBCHEM_CONFORMER_RMSD>
0.8

> <PUBCHEM_CONFORMER_DIVERSEORDER>
1
57
82
93
2
60
61
68
21
31
78
5
79
114
104
30
118
42
56
27
73
39
83
63
90
19
43
117
89
62
16
87
75
116
58
54
76
80
6
26
38
40
113
115
111
48
86
33
7
32
64
41
112
4
107
97
106
96
25
28
53
17
23
37
18
46
66
67
74
22
71
29
20
91
45
69
108
3
55
8
88
98
100
72
44
47
36
85
99
52
70
105
14
59
84
49
95
103
15
94
35
13
101
77
109
65
11
102
110
24
9
12
92
34
51
50
81
10

> <PUBCHEM_MMFF94_PARTIAL_CHARGES>
23
1 -0.02
10 0.27
12 0.27
13 0.3
16 0.46
17 0.05
18 -0.15
19 0.16
2 -0.36
20 -0.15
21 0.39
22 0.28
23 0.28
24 0.28
3 -0.56
39 0.15
4 -0.81
40 0.15
41 0.15
5 -0.57
6 -0.41
7 -0.62
8 0.45

> <PUBCHEM_EFFECTIVE_ROTOR_COUNT>
8

> <PUBCHEM_PHARMACOPHORE_FEATURES>
7
1 3 acceptor
1 4 cation
3 12 14 15 hydrophobe
3 5 6 16 cation
5 1 5 6 13 16 rings
5 4 8 9 10 11 rings
6 7 17 18 19 20 21 rings

> <PUBCHEM_HEAVY_ATOM_COUNT>
24

> <PUBCHEM_ATOM_DEF_STEREO_COUNT>
1

> <PUBCHEM_ATOM_UDEF_STEREO_COUNT>
0

> <PUBCHEM_BOND_DEF_STEREO_COUNT>
0

> <PUBCHEM_BOND_UDEF_STEREO_COUNT>
0

> <PUBCHEM_ISOTOPIC_ATOM_COUNT>
0

> <PUBCHEM_COMPONENT_COUNT>
1

> <PUBCHEM_CACTVS_TAUTO_COUNT>
1

> <PUBCHEM_CONFORMER_ID>
02BA9A0E00000001

> <PUBCHEM_MMFF94_ENERGY>
48.4728

> <PUBCHEM_FEATURE_SELFOVERLAP>
35.522

> <PUBCHEM_SHAPE_FINGERPRINT>
11135609 127 14201975591568190078
11719270 70 18411419501753038303
11796584 16 17313397750174938490
12166972 35 18272940418649473017
12236239 1 18130795547168225213
125118 31 14405196036717947243
13533116 47 17560526109969757118
13782708 43 17967535688373093611
13835254 42 18130229259361525752
13862211 1 18334860507057507285
13914758 101 17603862274890248413
14251764 18 18187087264627617253
14528608 73 9727629496997547233
15183329 4 17967819345013686639
1754908 1 17060346258394457683
1813 80 17240769454215850636
18222031 100 18187373116271006716
20028762 73 18413674608565045167
20157964 124 16128657448717853494
20397935 70 18131635573450687014
20567600 234 16917345956900064817
21130935 74 18060143115974318047
21267235 1 18335432226643265095
21344244 78 18343014502074338296
21859007 373 17969483958274065717
2215653 11 18041288716034235119
23081809 10 16950569848612752925
23559900 14 18412272752756080548
3004659 81 18041007236609394828
3014965 18 16588018000955422907
3411729 13 18263926725821216764
3472631 163 12319158668886966768
34797466 226 13182746969572565049
4340502 62 15195572282084122717
5104073 3 17774160085121865720
5281201 14 12685089264099583654
59682541 52 13912319066634300481
59755656 215 17675926482824468787
6438161 24 16950553389654165433
8988823 20 17561362877041395136
960060 61 15647061443336601086
9841814 1 18113620101748292828

> <PUBCHEM_SHAPE_MULTIPOLES>
456.38
19.34
1.82
1.57
38.97
0.25
0.67
6.41
5.36
-1.8
-0.34
-3.58
-0.09
1.01

> <PUBCHEM_SHAPE_SELFOVERLAP>
955.969

> <PUBCHEM_SHAPE_VOLUME>
261.3

> <PUBCHEM_COORDINATE_TYPE>
2
5
10

$$$$
