11884070
  -OEChem-12032416413D

 58 61  0     1  0  0  0  0  0999 V2000
    0.9291    1.7312    1.3231 O   0  0  0  0  0  0  0  0  0  0  0  0
    0.1096    3.3239   -1.1659 O   0  0  0  0  0  0  0  0  0  0  0  0
    3.2296    1.8349   -0.2272 O   0  0  0  0  0  0  0  0  0  0  0  0
   -3.9458    1.9774   -0.3380 O   0  0  0  0  0  0  0  0  0  0  0  0
    3.6356   -0.1526   -1.2830 O   0  0  0  0  0  0  0  0  0  0  0  0
    9.3828   -2.8588    0.1986 O   0  0  0  0  0  0  0  0  0  0  0  0
  -10.1875   -1.1706   -0.5355 O   0  0  0  0  0  0  0  0  0  0  0  0
   -2.1088    1.1832    0.8196 N   0  0  0  0  0  0  0  0  0  0  0  0
   -4.0089   -0.1059    0.7421 N   0  0  0  0  0  0  0  0  0  0  0  0
    5.1847    0.7929    0.1956 N   0  0  0  0  0  0  0  0  0  0  0  0
   -0.3641    2.0683   -0.6357 C   0  0  1  0  0  0  0  0  0  0  0  0
    0.8410    1.3518   -0.0605 C   0  0  1  0  0  0  0  0  0  0  0  0
   -1.2479    2.3125    0.5652 C   0  0  2  0  0  0  0  0  0  0  0  0
    1.9788    1.9243   -0.8712 C   0  0  1  0  0  0  0  0  0  0  0  0
   -0.2327    2.4957    1.6802 C   0  0  0  0  0  0  0  0  0  0  0  0
    1.5409    3.3582   -1.0675 C   0  0  0  0  0  0  0  0  0  0  0  0
   -3.4214    1.0967    0.3393 C   0  0  0  0  0  0  0  0  0  0  0  0
    3.9997    0.7261   -0.5112 C   0  0  0  0  0  0  0  0  0  0  0  0
   -5.3160   -0.5692    0.4642 C   0  0  0  0  0  0  0  0  0  0  0  0
    6.2519   -0.1340    0.1952 C   0  0  0  0  0  0  0  0  0  0  0  0
   -5.7362   -1.8061    0.9533 C   0  0  0  0  0  0  0  0  0  0  0  0
   -6.1845    0.2101   -0.3002 C   0  0  0  0  0  0  0  0  0  0  0  0
    7.3809    0.1018    0.9797 C   0  0  0  0  0  0  0  0  0  0  0  0
    6.1753   -1.2852   -0.5885 C   0  0  0  0  0  0  0  0  0  0  0  0
   -7.0249   -2.2635    0.6782 C   0  0  0  0  0  0  0  0  0  0  0  0
   -7.4730   -0.2475   -0.5754 C   0  0  0  0  0  0  0  0  0  0  0  0
   -7.8933   -1.4843   -0.0861 C   0  0  0  0  0  0  0  0  0  0  0  0
    8.4334   -0.8135    0.9804 C   0  0  0  0  0  0  0  0  0  0  0  0
    7.2278   -2.2006   -0.5881 C   0  0  0  0  0  0  0  0  0  0  0  0
    8.3568   -1.9647    0.1964 C   0  0  0  0  0  0  0  0  0  0  0  0
   -9.2370   -1.9614   -0.3722 C   0  0  0  0  0  0  0  0  0  0  0  0
   -9.5151   -3.4569   -0.4790 C   0  0  0  0  0  0  0  0  0  0  0  0
    9.2390   -4.0144   -0.6260 C   0  0  0  0  0  0  0  0  0  0  0  0
   -0.8437    1.5220   -1.4541 H   0  0  0  0  0  0  0  0  0  0  0  0
    0.7758    0.2607   -0.1025 H   0  0  0  0  0  0  0  0  0  0  0  0
   -1.8669    3.2099    0.4600 H   0  0  0  0  0  0  0  0  0  0  0  0
    1.9948    1.4505   -1.8625 H   0  0  0  0  0  0  0  0  0  0  0  0
    0.0811    3.5428    1.7549 H   0  0  0  0  0  0  0  0  0  0  0  0
   -0.5914    2.1733    2.6626 H   0  0  0  0  0  0  0  0  0  0  0  0
    1.9609    3.8012   -1.9756 H   0  0  0  0  0  0  0  0  0  0  0  0
    1.8224    3.9987   -0.2241 H   0  0  0  0  0  0  0  0  0  0  0  0
   -1.7245    0.3846    1.3155 H   0  0  0  0  0  0  0  0  0  0  0  0
   -3.4346   -0.7285    1.3047 H   0  0  0  0  0  0  0  0  0  0  0  0
    5.3080    1.6086    0.7907 H   0  0  0  0  0  0  0  0  0  0  0  0
   -5.0701   -2.4218    1.5523 H   0  0  0  0  0  0  0  0  0  0  0  0
   -5.9319    1.1759   -0.7145 H   0  0  0  0  0  0  0  0  0  0  0  0
    7.4530    0.9948    1.5954 H   0  0  0  0  0  0  0  0  0  0  0  0
    5.3333   -1.5339   -1.2197 H   0  0  0  0  0  0  0  0  0  0  0  0
   -7.3300   -3.2246    1.0825 H   0  0  0  0  0  0  0  0  0  0  0  0
   -8.1355    0.3708   -1.1760 H   0  0  0  0  0  0  0  0  0  0  0  0
    9.3101   -0.6247    1.5938 H   0  0  0  0  0  0  0  0  0  0  0  0
    7.1039   -3.0741   -1.2192 H   0  0  0  0  0  0  0  0  0  0  0  0
  -10.3495   -3.6163   -1.1687 H   0  0  0  0  0  0  0  0  0  0  0  0
   -8.6481   -3.9851   -0.8849 H   0  0  0  0  0  0  0  0  0  0  0  0
   -9.7745   -3.8520    0.5062 H   0  0  0  0  0  0  0  0  0  0  0  0
    8.3978   -4.6371   -0.3030 H   0  0  0  0  0  0  0  0  0  0  0  0
    9.1746   -3.7468   -1.6861 H   0  0  0  0  0  0  0  0  0  0  0  0
   10.1466   -4.6144   -0.5026 H   0  0  0  0  0  0  0  0  0  0  0  0
  1 12  1  0  0  0  0
  1 15  1  0  0  0  0
  2 11  1  0  0  0  0
  2 16  1  0  0  0  0
  3 14  1  0  0  0  0
  3 18  1  0  0  0  0
  4 17  2  0  0  0  0
  5 18  2  0  0  0  0
  6 30  1  0  0  0  0
  6 33  1  0  0  0  0
  7 31  2  0  0  0  0
  8 13  1  0  0  0  0
  8 17  1  0  0  0  0
  8 42  1  0  0  0  0
  9 17  1  0  0  0  0
  9 19  1  0  0  0  0
  9 43  1  0  0  0  0
 10 18  1  0  0  0  0
 10 20  1  0  0  0  0
 10 44  1  0  0  0  0
 11 12  1  0  0  0  0
 11 13  1  0  0  0  0
 11 34  1  0  0  0  0
 12 14  1  0  0  0  0
 12 35  1  0  0  0  0
 13 15  1  0  0  0  0
 13 36  1  0  0  0  0
 14 16  1  0  0  0  0
 14 37  1  0  0  0  0
 15 38  1  0  0  0  0
 15 39  1  0  0  0  0
 16 40  1  0  0  0  0
 16 41  1  0  0  0  0
 19 21  2  0  0  0  0
 19 22  1  0  0  0  0
 20 23  2  0  0  0  0
 20 24  1  0  0  0  0
 21 25  1  0  0  0  0
 21 45  1  0  0  0  0
 22 26  2  0  0  0  0
 22 46  1  0  0  0  0
 23 28  1  0  0  0  0
 23 47  1  0  0  0  0
 24 29  2  0  0  0  0
 24 48  1  0  0  0  0
 25 27  2  0  0  0  0
 25 49  1  0  0  0  0
 26 27  1  0  0  0  0
 26 50  1  0  0  0  0
 27 31  1  0  0  0  0
 28 30  2  0  0  0  0
 28 51  1  0  0  0  0
 29 30  1  0  0  0  0
 29 52  1  0  0  0  0
 31 32  1  0  0  0  0
 32 53  1  0  0  0  0
 32 54  1  0  0  0  0
 32 55  1  0  0  0  0
 33 56  1  0  0  0  0
 33 57  1  0  0  0  0
 33 58  1  0  0  0  0
M  END
> <PUBCHEM_COMPOUND_CID>
11884070

> <PUBCHEM_CONFORMER_RMSD>
1

> <PUBCHEM_CONFORMER_DIVERSEORDER>
1
69
74
3
68
56
40
36
24
32
37
35
62
75
20
72
66
21
39
16
58
30
46
59
8
31
45
42
52
7
34
41
57
10
19
67
51
23
73
53
49
61
22
28
54
43
14
71
25
65
38
17
26
27
4
48
5
29
47
44
55
63
64
60
2
70
13
18
50
15
33
12
11
6
9

> <PUBCHEM_MMFF94_PARTIAL_CHARGES>
44
1 -0.56
10 -0.55
11 0.28
12 0.28
13 0.3
14 0.28
15 0.28
16 0.28
17 0.69
18 0.78
19 0.12
2 -0.56
20 0.12
21 -0.15
22 -0.15
23 -0.15
24 -0.15
25 -0.15
26 -0.15
27 0.09
28 -0.15
29 -0.15
3 -0.43
30 0.08
31 0.42
32 0.06
33 0.28
4 -0.57
42 0.37
43 0.37
44 0.37
45 0.15
46 0.15
47 0.15
48 0.15
49 0.15
5 -0.57
50 0.15
51 0.15
52 0.15
6 -0.36
7 -0.57
8 -0.73
9 -0.55

> <PUBCHEM_EFFECTIVE_ROTOR_COUNT>
11.2

> <PUBCHEM_PHARMACOPHORE_FEATURES>
13
1 1 acceptor
1 10 donor
1 2 acceptor
1 4 acceptor
1 5 acceptor
1 6 acceptor
1 7 acceptor
1 8 donor
1 9 donor
5 1 11 12 13 15 rings
5 2 11 12 14 16 rings
6 19 21 22 25 26 27 rings
6 20 23 24 28 29 30 rings

> <PUBCHEM_HEAVY_ATOM_COUNT>
33

> <PUBCHEM_ATOM_DEF_STEREO_COUNT>
4

> <PUBCHEM_ATOM_UDEF_STEREO_COUNT>
0

> <PUBCHEM_BOND_DEF_STEREO_COUNT>
0

> <PUBCHEM_BOND_UDEF_STEREO_COUNT>
0

> <PUBCHEM_ISOTOPIC_ATOM_COUNT>
0

> <PUBCHEM_COMPONENT_COUNT>
1

> <PUBCHEM_CACTVS_TAUTO_COUNT>
32

> <PUBCHEM_CONFORMER_ID>
00B5562600000001

> <PUBCHEM_MMFF94_ENERGY>
108.5769

> <PUBCHEM_FEATURE_SELFOVERLAP>
66.743

> <PUBCHEM_SHAPE_FINGERPRINT>
10 15 11887960951865038893
10055352 69 8070020061547144751
10952577 141 11674877793119750291
11103572 95 17844256133510226175
11135609 201 11167943528584720305
11146346 178 18409449147267394351
11386260 185 16298673883907313940
11607047 74 18190745422542038732
11621639 179 11602821324310928494
12013929 112 16588293996118762567
12013929 94 18413392021808138354
12539745 222 18131072589148661905
12838863 1 18411136930979424798
13383665 225 14780088807401844559
14202775 3 18189056568581986323
14359421 15 17822287955475271690
14617042 71 9223238455457747047
14747281 78 8935009196361737552
15152005 77 18272087162813199182
15198563 99 16153703181063698460
15320295 40 18410855455833194507
15326923 82 18260544572251011100
15347590 135 15626228996024365562
15455200 90 17096357338535442759
15510800 12 18342464720373874342
15706992 2 10735879516600842849
16126227 98 10447921767946251280
16991971 28 18260551121500501346
16992610 120 10663817525334276856
16993427 108 18202562873561209904
18603816 31 17845928646095897927
19302320 297 11887947757741830338
19841028 212 18335982047245588114
2026 5 18410011014029921483
20721686 146 8214146261059564643
20982279 24 17749685094882151371
21130935 74 18198624338203062792
21130991 4 18341046402626261775
212700 22 18408318908405229506
21307412 95 17385734616103151305
21344244 78 15267076882035028417
21360443 89 18409444757884956386
21585482 111 10303825258778689643
22002106 203 18201711908155963591
23389318 12 18041290920164776756
23523787 8 15213022656962183056
23528940 14 18336542700410540218
23569917 315 18270404880918104150
23576562 1 15069201111409856183
24203241 11 17845083146421914430
25025965 108 18201993379122894431
25242607 90 18411694392127470922
2835820 83 18411139108891931774
2851757 41 18410018736254707635
3711267 37 8286203894090412167
3918712 181 9511464407481953270
406291 66 18411420605021238226
437795 150 17023476356090838843
4516262 110 10231762145813067201
474113 269 18407760334901312127
4760202 70 18260561026618492724
5372103 7 12107790692525561218
54039377 194 18410293614123910103
5470011 282 17386579079450663732
5718773 13 18408606959192537056
57303763 176 18343021049012582745
5758199 1 11167942459048355101
6126387 218 17846499219510592297
6438161 24 18411980299784841241

> <PUBCHEM_SHAPE_MULTIPOLES>
623.1
36.63
4.28
1.12
8.66
0.96
0.14
51.83
-1.46
-2.73
-0.8
-0.38
-0.43
0.16

> <PUBCHEM_SHAPE_SELFOVERLAP>
1340.567

> <PUBCHEM_SHAPE_VOLUME>
343

> <PUBCHEM_COORDINATE_TYPE>
2
5
10

$$$$
