71693245
  -OEChem-12032416233D

 36 37  0     1  0  0  0  0  0999 V2000
    4.7943    0.3156    0.0219 S   0  0  0  0  0  0  0  0  0  0  0  0
   -2.5330   -1.4859   -0.1842 O   0  0  0  0  0  0  0  0  0  0  0  0
   -2.2893    2.6230   -0.8512 O   0  0  0  0  0  0  0  0  0  0  0  0
   -5.8956   -0.3407    0.3151 O   0  0  0  0  0  0  0  0  0  0  0  0
    6.1652   -0.1380   -0.1221 O   0  0  0  0  0  0  0  0  0  0  0  0
    4.2661    1.3514   -0.8434 O   0  0  0  0  0  0  0  0  0  0  0  0
   -3.9082    0.7712    0.6003 N   0  0  0  0  0  0  0  0  0  0  0  0
    3.7631   -1.0637    0.0318 N   0  0  0  0  0  0  0  0  0  0  0  0
   -2.4487    0.7640    0.6410 C   0  0  1  0  0  0  0  0  0  0  0  0
   -1.8897   -0.2232   -0.3955 C   0  0  1  0  0  0  0  0  0  0  0  0
   -0.3970   -0.4443   -0.2822 C   0  0  0  0  0  0  0  0  0  0  0  0
   -1.9208    2.1831    0.4427 C   0  0  0  0  0  0  0  0  0  0  0  0
   -3.9111   -1.4220   -0.4876 C   0  0  0  0  0  0  0  0  0  0  0  0
   -4.6713   -0.3025    0.1973 C   0  0  0  0  0  0  0  0  0  0  0  0
    0.1549   -0.8765    0.9238 C   0  0  0  0  0  0  0  0  0  0  0  0
    0.4272   -0.2165   -1.3844 C   0  0  0  0  0  0  0  0  0  0  0  0
    2.3547   -0.8536   -0.0747 C   0  0  0  0  0  0  0  0  0  0  0  0
    1.5307   -1.0812    1.0275 C   0  0  0  0  0  0  0  0  0  0  0  0
    1.8029   -0.4212   -1.2807 C   0  0  0  0  0  0  0  0  0  0  0  0
    4.6055    0.8609    1.7046 C   0  0  0  0  0  0  0  0  0  0  0  0
   -2.1299    0.1080   -1.4154 H   0  0  0  0  0  0  0  0  0  0  0  0
   -2.2074    0.4345    1.6585 H   0  0  0  0  0  0  0  0  0  0  0  0
   -4.3914    1.5368    1.0608 H   0  0  0  0  0  0  0  0  0  0  0  0
   -0.8316    2.2272    0.5374 H   0  0  0  0  0  0  0  0  0  0  0  0
   -2.3592    2.8673    1.1772 H   0  0  0  0  0  0  0  0  0  0  0  0
   -4.3598   -2.3730   -0.1836 H   0  0  0  0  0  0  0  0  0  0  0  0
   -4.0421   -1.3178   -1.5707 H   0  0  0  0  0  0  0  0  0  0  0  0
   -0.4696   -1.0713    1.7909 H   0  0  0  0  0  0  0  0  0  0  0  0
    0.0117    0.1183   -2.3310 H   0  0  0  0  0  0  0  0  0  0  0  0
    1.9497   -1.4196    1.9716 H   0  0  0  0  0  0  0  0  0  0  0  0
    2.4301   -0.2518   -2.1520 H   0  0  0  0  0  0  0  0  0  0  0  0
   -1.9447    3.5261   -0.9562 H   0  0  0  0  0  0  0  0  0  0  0  0
    4.0252   -1.7998    0.7013 H   0  0  0  0  0  0  0  0  0  0  0  0
    4.8845    0.0470    2.3763 H   0  0  0  0  0  0  0  0  0  0  0  0
    3.5730    1.1726    1.8699 H   0  0  0  0  0  0  0  0  0  0  0  0
    5.2739    1.7112    1.8584 H   0  0  0  0  0  0  0  0  0  0  0  0
  1  5  2  0  0  0  0
  1  6  2  0  0  0  0
  1  8  1  0  0  0  0
  1 20  1  0  0  0  0
  2 10  1  0  0  0  0
  2 13  1  0  0  0  0
  3 12  1  0  0  0  0
  3 32  1  0  0  0  0
  4 14  2  0  0  0  0
  7  9  1  0  0  0  0
  7 14  1  0  0  0  0
  7 23  1  0  0  0  0
  8 17  1  0  0  0  0
  8 33  1  0  0  0  0
  9 10  1  0  0  0  0
  9 12  1  0  0  0  0
  9 22  1  0  0  0  0
 10 11  1  0  0  0  0
 10 21  1  0  0  0  0
 11 15  2  0  0  0  0
 11 16  1  0  0  0  0
 12 24  1  0  0  0  0
 12 25  1  0  0  0  0
 13 14  1  0  0  0  0
 13 26  1  0  0  0  0
 13 27  1  0  0  0  0
 15 18  1  0  0  0  0
 15 28  1  0  0  0  0
 16 19  2  0  0  0  0
 16 29  1  0  0  0  0
 17 18  2  0  0  0  0
 17 19  1  0  0  0  0
 18 30  1  0  0  0  0
 19 31  1  0  0  0  0
 20 34  1  0  0  0  0
 20 35  1  0  0  0  0
 20 36  1  0  0  0  0
M  END
> <PUBCHEM_COMPOUND_CID>
71693245

> <PUBCHEM_CONFORMER_RMSD>
0.8

> <PUBCHEM_CONFORMER_DIVERSEORDER>
1
39
20
30
42
43
9
25
4
31
33
40
22
13
14
17
24
18
29
16
41
27
34
38
26
37
28
32
10
12
35
15
11
19
23
21
44
3
6
2
8
5
36
7

> <PUBCHEM_MMFF94_PARTIAL_CHARGES>
27
1 1.33
10 0.42
11 -0.14
12 0.28
13 0.34
14 0.57
15 -0.15
16 -0.15
17 0.2
18 -0.15
19 -0.15
2 -0.56
20 0.11
23 0.37
28 0.15
29 0.15
3 -0.68
30 0.15
31 0.15
32 0.4
33 0.42
4 -0.57
5 -0.65
6 -0.65
7 -0.73
8 -0.76
9 0.3

> <PUBCHEM_EFFECTIVE_ROTOR_COUNT>
5

> <PUBCHEM_PHARMACOPHORE_FEATURES>
10
1 2 acceptor
1 3 acceptor
1 3 donor
1 4 acceptor
1 5 acceptor
1 6 acceptor
1 7 donor
1 8 donor
6 11 15 16 17 18 19 rings
6 2 7 9 10 13 14 rings

> <PUBCHEM_HEAVY_ATOM_COUNT>
20

> <PUBCHEM_ATOM_DEF_STEREO_COUNT>
2

> <PUBCHEM_ATOM_UDEF_STEREO_COUNT>
0

> <PUBCHEM_BOND_DEF_STEREO_COUNT>
0

> <PUBCHEM_BOND_UDEF_STEREO_COUNT>
0

> <PUBCHEM_ISOTOPIC_ATOM_COUNT>
0

> <PUBCHEM_COMPONENT_COUNT>
1

> <PUBCHEM_CACTVS_TAUTO_COUNT>
3

> <PUBCHEM_CONFORMER_ID>
0445F3BD00000001

> <PUBCHEM_MMFF94_ENERGY>
53.199

> <PUBCHEM_FEATURE_SELFOVERLAP>
50.769

> <PUBCHEM_SHAPE_FINGERPRINT>
10366900 7 18113620096925480568
106641 1 16660650708426049048
107951 10 11239996767658270221
11595378 159 18187350000846638664
11796584 16 10953462924962613936
12107183 9 17616249187556255282
12166972 35 17167866399791387692
12236239 1 18186520995160413163
12403259 415 17989199348610860864
12596602 18 17095248063787872256
12670546 56 18337387149901810274
13533116 47 17822283553302214778
13897977 58 18342460331080665297
14251764 18 18187079552063703010
14289901 80 18408040689297870594
14341114 328 18409169930541582704
14787075 74 18334859449910302032
15048467 5 17131840850347831107
15209294 21 18114180783589339932
15788980 27 11963392942339891874
17349148 13 17240203244086721946
17834072 8 9727636102731030161
192875 21 17458636622033653037
200 152 17458345234783878743
20510252 161 18270684152069293049
20645477 56 18202283597755453966
20645477 70 14129049297502592338
21618674 57 12901544637501513885
21652331 79 18413387648545435800
22854114 59 17749389252374235886
23402539 116 18341609356325712543
23557571 272 18201445752662523836
23559900 14 17771909329128132062
26918003 58 17240489121795236371
3009799 131 18334847313234641405
34797466 226 17560812073113335132
351380 180 18410013260466076704
3545911 37 18272091586997979254
4325135 7 18342460343722986957
474 4 17895765109445246012
4921388 177 11527651008037481933
5104073 3 18269280075504566779
7495541 125 17846494859469862402

> <PUBCHEM_SHAPE_MULTIPOLES>
376.13
11.86
1.72
1.18
4.39
1.01
0.02
0.77
1.46
-1.11
-0.12
0.82
0.13
0.11

> <PUBCHEM_SHAPE_SELFOVERLAP>
771.569

> <PUBCHEM_SHAPE_VOLUME>
217.7

> <PUBCHEM_COORDINATE_TYPE>
2
5
10

$$$$
