45361417
  -OEChem-12032416353D

 77 79  0     1  0  0  0  0  0999 V2000
    6.0858    4.3069    0.5199 F   0  0  0  0  0  0  0  0  0  0  0  0
    0.0001   -2.7351   -1.3212 O   0  0  0  0  0  0  0  0  0  0  0  0
    4.7459   -2.4084    1.1163 O   0  0  0  0  0  0  0  0  0  0  0  0
   -5.3631    1.5598   -1.8575 O   0  0  0  0  0  0  0  0  0  0  0  0
   -4.6557   -0.1188   -0.4151 N   0  0  0  0  0  0  0  0  0  0  0  0
    4.3508   -1.5690   -1.0095 N   0  0  0  0  0  0  0  0  0  0  0  0
   -0.5883    0.2858    0.9379 C   0  0  1  0  0  0  0  0  0  0  0  0
   -0.8540   -0.7356   -0.2176 C   0  0  2  0  0  0  0  0  0  0  0  0
   -2.3781   -1.1081   -0.2950 C   0  0  1  0  0  0  0  0  0  0  0  0
    0.1257   -1.9418   -0.1401 C   0  0  2  0  0  0  0  0  0  0  0  0
    0.8972    0.7168    0.9142 C   0  0  0  0  0  0  0  0  0  0  0  0
   -1.4485    1.5488    0.7020 C   0  0  0  0  0  0  0  0  0  0  0  0
    1.6060   -1.5014   -0.0589 C   0  0  1  0  0  0  0  0  0  0  0  0
   -3.2388    0.1764   -0.4568 C   0  0  2  0  0  0  0  0  0  0  0  0
    1.8589   -0.4584    1.0297 C   0  0  0  0  0  0  0  0  0  0  0  0
   -2.9361    1.2466    0.5916 C   0  0  0  0  0  0  0  0  0  0  0  0
   -0.9145   -0.2999    2.3352 C   0  0  0  0  0  0  0  0  0  0  0  0
    2.5447   -2.6963    0.1483 C   0  0  2  0  0  0  0  0  0  0  0  0
   -2.7154   -2.0892   -1.4306 C   0  0  0  0  0  0  0  0  0  0  0  0
    2.1872   -3.4271    1.4378 C   0  0  0  0  0  0  0  0  0  0  0  0
    3.9946   -2.2223    0.1614 C   0  0  0  0  0  0  0  0  0  0  0  0
   -5.5995    0.6028   -1.1230 C   0  0  0  0  0  0  0  0  0  0  0  0
   -7.0170    0.0996   -0.9036 C   0  0  0  0  0  0  0  0  0  0  0  0
   -7.7432    0.7228    0.3121 C   0  0  0  0  0  0  0  0  0  0  0  0
    5.6717   -1.0281   -1.2317 C   0  0  0  0  0  0  0  0  0  0  0  0
   -7.8269    2.2534    0.1944 C   0  0  0  0  0  0  0  0  0  0  0  0
   -6.9371    0.3754    1.5792 C   0  0  0  0  0  0  0  0  0  0  0  0
   -9.1610    0.1471    0.4652 C   0  0  0  0  0  0  0  0  0  0  0  0
    5.7821    0.3944   -0.7645 C   0  0  0  0  0  0  0  0  0  0  0  0
    5.4917    1.4405   -1.6404 C   0  0  0  0  0  0  0  0  0  0  0  0
    6.1751    0.6703    0.5453 C   0  0  0  0  0  0  0  0  0  0  0  0
    5.5945    2.7622   -1.2068 C   0  0  0  0  0  0  0  0  0  0  0  0
    6.2779    1.9920    0.9789 C   0  0  0  0  0  0  0  0  0  0  0  0
    5.9876    3.0380    0.1029 C   0  0  0  0  0  0  0  0  0  0  0  0
   -0.6301   -0.2237   -1.1674 H   0  0  0  0  0  0  0  0  0  0  0  0
   -2.6685   -1.6089    0.6373 H   0  0  0  0  0  0  0  0  0  0  0  0
   -0.1778   -2.5639    0.7035 H   0  0  0  0  0  0  0  0  0  0  0  0
    1.1120    1.2524   -0.0204 H   0  0  0  0  0  0  0  0  0  0  0  0
    1.0998    1.4271    1.7262 H   0  0  0  0  0  0  0  0  0  0  0  0
   -1.2898    2.2734    1.5109 H   0  0  0  0  0  0  0  0  0  0  0  0
   -1.1270    2.0466   -0.2228 H   0  0  0  0  0  0  0  0  0  0  0  0
    1.8400   -1.0273   -1.0215 H   0  0  0  0  0  0  0  0  0  0  0  0
   -3.0210    0.6073   -1.4438 H   0  0  0  0  0  0  0  0  0  0  0  0
    1.7743   -0.8708    2.0372 H   0  0  0  0  0  0  0  0  0  0  0  0
    2.8751   -0.0549    0.9545 H   0  0  0  0  0  0  0  0  0  0  0  0
   -3.4680    2.1735    0.3405 H   0  0  0  0  0  0  0  0  0  0  0  0
   -3.3309    0.9416    1.5683 H   0  0  0  0  0  0  0  0  0  0  0  0
   -0.3504   -1.2120    2.5492 H   0  0  0  0  0  0  0  0  0  0  0  0
   -0.6727    0.4242    3.1221 H   0  0  0  0  0  0  0  0  0  0  0  0
   -1.9707   -0.5553    2.4524 H   0  0  0  0  0  0  0  0  0  0  0  0
    2.4490   -3.4008   -0.6878 H   0  0  0  0  0  0  0  0  0  0  0  0
   -2.3292   -3.0895   -1.2157 H   0  0  0  0  0  0  0  0  0  0  0  0
   -3.7958   -2.2148   -1.5557 H   0  0  0  0  0  0  0  0  0  0  0  0
   -2.3092   -1.7447   -2.3872 H   0  0  0  0  0  0  0  0  0  0  0  0
   -4.9612   -0.8715    0.1943 H   0  0  0  0  0  0  0  0  0  0  0  0
    0.2135   -2.1743   -2.0864 H   0  0  0  0  0  0  0  0  0  0  0  0
    1.1942   -3.8812    1.4136 H   0  0  0  0  0  0  0  0  0  0  0  0
    2.8841   -4.2636    1.5801 H   0  0  0  0  0  0  0  0  0  0  0  0
    2.2791   -2.8174    2.3396 H   0  0  0  0  0  0  0  0  0  0  0  0
   -7.5811    0.3110   -1.8214 H   0  0  0  0  0  0  0  0  0  0  0  0
   -6.9934   -0.9943   -0.8118 H   0  0  0  0  0  0  0  0  0  0  0  0
    3.6870   -1.5010   -1.7741 H   0  0  0  0  0  0  0  0  0  0  0  0
    5.8797   -1.0969   -2.3056 H   0  0  0  0  0  0  0  0  0  0  0  0
    6.4144   -1.6553   -0.7245 H   0  0  0  0  0  0  0  0  0  0  0  0
   -8.3497    2.5462   -0.7229 H   0  0  0  0  0  0  0  0  0  0  0  0
   -8.3738    2.6844    1.0409 H   0  0  0  0  0  0  0  0  0  0  0  0
   -6.8355    2.7182    0.1789 H   0  0  0  0  0  0  0  0  0  0  0  0
   -5.9732    0.8919    1.6170 H   0  0  0  0  0  0  0  0  0  0  0  0
   -6.7630   -0.7031    1.6627 H   0  0  0  0  0  0  0  0  0  0  0  0
   -7.4844    0.6829    2.4787 H   0  0  0  0  0  0  0  0  0  0  0  0
   -9.7693    0.3687   -0.4188 H   0  0  0  0  0  0  0  0  0  0  0  0
   -9.1333   -0.9416    0.5863 H   0  0  0  0  0  0  0  0  0  0  0  0
   -9.6731    0.5680    1.3376 H   0  0  0  0  0  0  0  0  0  0  0  0
    5.1823    1.2385   -2.6624 H   0  0  0  0  0  0  0  0  0  0  0  0
    6.4073   -0.1339    1.2379 H   0  0  0  0  0  0  0  0  0  0  0  0
    5.3678    3.5769   -1.8882 H   0  0  0  0  0  0  0  0  0  0  0  0
    6.5841    2.2071    1.9984 H   0  0  0  0  0  0  0  0  0  0  0  0
  1 34  1  0  0  0  0
  2 10  1  0  0  0  0
  2 56  1  0  0  0  0
  3 21  2  0  0  0  0
  4 22  2  0  0  0  0
  5 14  1  0  0  0  0
  5 22  1  0  0  0  0
  5 55  1  0  0  0  0
  6 21  1  0  0  0  0
  6 25  1  0  0  0  0
  6 62  1  0  0  0  0
  7  8  1  0  0  0  0
  7 11  1  0  0  0  0
  7 12  1  0  0  0  0
  7 17  1  0  0  0  0
  8  9  1  0  0  0  0
  8 10  1  0  0  0  0
  8 35  1  0  0  0  0
  9 14  1  0  0  0  0
  9 19  1  0  0  0  0
  9 36  1  0  0  0  0
 10 13  1  0  0  0  0
 10 37  1  0  0  0  0
 11 15  1  0  0  0  0
 11 38  1  0  0  0  0
 11 39  1  0  0  0  0
 12 16  1  0  0  0  0
 12 40  1  0  0  0  0
 12 41  1  0  0  0  0
 13 15  1  0  0  0  0
 13 18  1  0  0  0  0
 13 42  1  0  0  0  0
 14 16  1  0  0  0  0
 14 43  1  0  0  0  0
 15 44  1  0  0  0  0
 15 45  1  0  0  0  0
 16 46  1  0  0  0  0
 16 47  1  0  0  0  0
 17 48  1  0  0  0  0
 17 49  1  0  0  0  0
 17 50  1  0  0  0  0
 18 20  1  0  0  0  0
 18 21  1  0  0  0  0
 18 51  1  0  0  0  0
 19 52  1  0  0  0  0
 19 53  1  0  0  0  0
 19 54  1  0  0  0  0
 20 57  1  0  0  0  0
 20 58  1  0  0  0  0
 20 59  1  0  0  0  0
 22 23  1  0  0  0  0
 23 24  1  0  0  0  0
 23 60  1  0  0  0  0
 23 61  1  0  0  0  0
 24 26  1  0  0  0  0
 24 27  1  0  0  0  0
 24 28  1  0  0  0  0
 25 29  1  0  0  0  0
 25 63  1  0  0  0  0
 25 64  1  0  0  0  0
 26 65  1  0  0  0  0
 26 66  1  0  0  0  0
 26 67  1  0  0  0  0
 27 68  1  0  0  0  0
 27 69  1  0  0  0  0
 27 70  1  0  0  0  0
 28 71  1  0  0  0  0
 28 72  1  0  0  0  0
 28 73  1  0  0  0  0
 29 30  2  0  0  0  0
 29 31  1  0  0  0  0
 30 32  1  0  0  0  0
 30 74  1  0  0  0  0
 31 33  2  0  0  0  0
 31 75  1  0  0  0  0
 32 34  2  0  0  0  0
 32 76  1  0  0  0  0
 33 34  1  0  0  0  0
 33 77  1  0  0  0  0
M  END
> <PUBCHEM_COMPOUND_CID>
45361417

> <PUBCHEM_CONFORMER_RMSD>
1.2

> <PUBCHEM_CONFORMER_DIVERSEORDER>
2
70
137
128
8
90
85
121
148
81
77
45
5
136
149
93
140
82
102
96
50
67
42
72
79
48
110
32
68
143
69
153
116
135
109
142
60
24
27
145
103
63
4
111
100
144
94
126
115
7
151
146
40
147
87
20
10
35
18
152
134
31
119
120
78
17
108
86
84
73
58
124
122
123
64
1
23
12
104
19
53
43
74
80
28
75
91
66
13
38
125
59
107
97
92
52
71
118
44
61
16
56
54
127
117
46
98
36
22
133
95
106
37
26
41
150
89
33
62
3
51
112
99
49
130
105
14
114
21
6
76
113
57
129
11
25
30
141
131
15
83
65
55
9
138
101
139
29
47
88
132
34
39

> <PUBCHEM_MMFF94_PARTIAL_CHARGES>
26
1 -0.19
10 0.28
14 0.3
18 0.06
2 -0.68
21 0.57
22 0.57
23 0.06
25 0.44
29 -0.14
3 -0.57
30 -0.15
31 -0.15
32 -0.15
33 -0.15
34 0.19
4 -0.57
5 -0.73
55 0.37
56 0.4
6 -0.73
62 0.37
74 0.15
75 0.15
76 0.15
77 0.15

> <PUBCHEM_EFFECTIVE_ROTOR_COUNT>
10.6

> <PUBCHEM_PHARMACOPHORE_FEATURES>
11
1 2 acceptor
1 2 donor
1 20 hydrophobe
1 3 acceptor
1 4 acceptor
1 5 donor
1 6 donor
4 24 26 27 28 hydrophobe
6 29 30 31 32 33 34 rings
6 7 8 10 11 13 15 rings
6 7 8 9 12 14 16 rings

> <PUBCHEM_HEAVY_ATOM_COUNT>
34

> <PUBCHEM_ATOM_DEF_STEREO_COUNT>
6

> <PUBCHEM_ATOM_UDEF_STEREO_COUNT>
1

> <PUBCHEM_BOND_DEF_STEREO_COUNT>
0

> <PUBCHEM_BOND_UDEF_STEREO_COUNT>
0

> <PUBCHEM_ISOTOPIC_ATOM_COUNT>
0

> <PUBCHEM_COMPONENT_COUNT>
1

> <PUBCHEM_CACTVS_TAUTO_COUNT>
4

> <PUBCHEM_CONFORMER_ID>
02B4290900000002

> <PUBCHEM_MMFF94_ENERGY>
94.305

> <PUBCHEM_FEATURE_SELFOVERLAP>
55.835

> <PUBCHEM_SHAPE_FINGERPRINT>
10319688 67 16009032812999439465
10638233 991 18341054034192004161
10673678 19 18412548708235696142
10816530 90 18131063844615625016
10906281 52 17917438596995609847
11007060 377 18333736823559830003
11135609 187 18199467856368230912
11211813 74 18410009919182441845
11456790 92 17750222639776377554
12539765 74 17917718959554614735
13150687 139 18201447982763446550
13617811 41 18341325665040927912
14117953 113 18408888465136469780
14251757 52 18411418406092642465
14461889 52 17022913341164053915
14849402 71 18343584062641453673
15064981 194 18196108831107061446
15183329 4 18202569487863911141
15276724 80 18340205190025543309
15840311 113 18410015424686378926
16728300 4 10737545250994644624
16992787 43 18342181085345559873
17686467 74 18113622297098651053
19053607 189 17909821374181924496
19319366 153 18337383859899553762
20157964 124 18335138683451907348
20715895 44 18336823195780441060
21033648 29 17895196671040292838
21049683 118 17749381616444955490
21521721 280 18409169892187713579
21781055 127 15482127024691280651
23522609 53 17775021054751513657
23559900 14 17488730293887463491
23569914 2 16882395746249461556
3044373 193 16950567675221813108
34797466 226 18202005395596622830
3534868 343 17559403457306220534
3552219 110 17988935453278438009
397830 11 17894921749820062499
4073 2 18333733529404725747
4098825 35 18262237716946422893
4112364 45 17968362529786282936
4149490 64 18186237316612786090
4340502 62 17240484680398756130
439807 62 13470696923684512284
44317340 157 18409731755430025846
4625314 4 18338520738153794007
474113 269 10809336763798691537
5109719 28 17894921753514006469
5265222 85 18272650173665938167
6081469 158 11167940248036711123
6328613 192 18273497879734351363
6898599 12 17986670574624568214
9831232 110 12535341307434100148

> <PUBCHEM_SHAPE_MULTIPOLES>
664.86
23.38
3.6
1.58
28.69
0.46
-0.09
16.96
1.99
-7.51
-0.17
0.05
-0.1
-0.58

> <PUBCHEM_SHAPE_SELFOVERLAP>
1375.495

> <PUBCHEM_SHAPE_VOLUME>
380.3

> <PUBCHEM_COORDINATE_TYPE>
2
5
10

$$$$
