25388691
  -OEChem-12032416213D

 61 65  0     1  0  0  0  0  0999 V2000
   -6.1050    3.2586    0.5217 F   0  0  0  0  0  0  0  0  0  0  0  0
   -4.4415    2.8468    1.8599 F   0  0  0  0  0  0  0  0  0  0  0  0
   -4.0638    3.6402   -0.1229 F   0  0  0  0  0  0  0  0  0  0  0  0
   -1.8783   -1.2485    1.7860 O   0  0  0  0  0  0  0  0  0  0  0  0
    4.7906    4.4833    0.7885 O   0  0  0  0  0  0  0  0  0  0  0  0
    2.8700   -1.3252    0.1728 N   0  0  2  0  0  0  0  0  0  0  0  0
   -0.1651   -2.2324    0.5475 N   0  0  0  0  0  0  0  0  0  0  0  0
    4.8139    2.4038   -0.2473 N   0  0  0  0  0  0  0  0  0  0  0  0
    1.9675   -3.1578    1.6266 C   0  0  1  0  0  0  0  0  0  0  0  0
    1.6774   -3.2930   -0.8009 C   0  0  2  0  0  0  0  0  0  0  0  0
    1.9693   -4.1213    0.4473 C   0  0  0  0  0  0  0  0  0  0  0  0
    3.0459   -2.0722    1.4243 C   0  0  0  0  0  0  0  0  0  0  0  0
    2.7831   -2.2284   -0.9845 C   0  0  0  0  0  0  0  0  0  0  0  0
    3.9383   -0.3453   -0.0075 C   0  0  0  0  0  0  0  0  0  0  0  0
    0.5593   -2.5682    1.7818 C   0  0  0  0  0  0  0  0  0  0  0  0
    0.3152   -2.6314   -0.7020 C   0  0  0  0  0  0  0  0  0  0  0  0
    4.0103    0.5851    1.2101 C   0  0  0  0  0  0  0  0  0  0  0  0
    3.6991    0.4651   -1.2881 C   0  0  0  0  0  0  0  0  0  0  0  0
    5.0577    1.6772    1.0006 C   0  0  0  0  0  0  0  0  0  0  0  0
    4.7528    1.5610   -1.4481 C   0  0  0  0  0  0  0  0  0  0  0  0
   -0.4165   -2.4134   -1.8061 C   0  0  0  0  0  0  0  0  0  0  0  0
   -1.4068   -1.5847    0.6982 C   0  0  0  0  0  0  0  0  0  0  0  0
   -2.1889   -1.3226   -0.5610 C   0  0  0  0  0  0  0  0  0  0  0  0
   -1.6837   -1.7432   -1.7305 C   0  0  0  0  0  0  0  0  0  0  0  0
    4.6995    3.7935   -0.2303 C   0  0  0  0  0  0  0  0  0  0  0  0
   -3.4791   -0.6121   -0.5247 C   0  0  0  0  0  0  0  0  0  0  0  0
    4.4463    4.4669   -1.5554 C   0  0  0  0  0  0  0  0  0  0  0  0
   -3.5467    0.6862   -0.0191 C   0  0  0  0  0  0  0  0  0  0  0  0
   -4.6334   -1.2383   -0.9953 C   0  0  0  0  0  0  0  0  0  0  0  0
   -4.7685    1.3585    0.0158 C   0  0  0  0  0  0  0  0  0  0  0  0
   -5.8553   -0.5662   -0.9601 C   0  0  0  0  0  0  0  0  0  0  0  0
   -5.9228    0.7323   -0.4548 C   0  0  0  0  0  0  0  0  0  0  0  0
   -4.8405    2.7460    0.5574 C   0  0  0  0  0  0  0  0  0  0  0  0
    2.2156   -3.7040    2.5455 H   0  0  0  0  0  0  0  0  0  0  0  0
    1.6985   -3.9663   -1.6681 H   0  0  0  0  0  0  0  0  0  0  0  0
    1.2163   -4.9075    0.5838 H   0  0  0  0  0  0  0  0  0  0  0  0
    2.9428   -4.6189    0.3593 H   0  0  0  0  0  0  0  0  0  0  0  0
    2.9618   -1.4181    2.2974 H   0  0  0  0  0  0  0  0  0  0  0  0
    4.0368   -2.5450    1.4565 H   0  0  0  0  0  0  0  0  0  0  0  0
    3.7436   -2.7327   -1.1566 H   0  0  0  0  0  0  0  0  0  0  0  0
    2.5277   -1.6875   -1.9007 H   0  0  0  0  0  0  0  0  0  0  0  0
    4.9058   -0.8601   -0.1019 H   0  0  0  0  0  0  0  0  0  0  0  0
   -0.0706   -3.3029    2.3022 H   0  0  0  0  0  0  0  0  0  0  0  0
    0.5800   -1.6805    2.4265 H   0  0  0  0  0  0  0  0  0  0  0  0
    4.3070    0.0568    2.1215 H   0  0  0  0  0  0  0  0  0  0  0  0
    3.0328    1.0510    1.3917 H   0  0  0  0  0  0  0  0  0  0  0  0
    2.7013    0.9229   -1.2673 H   0  0  0  0  0  0  0  0  0  0  0  0
    3.7669   -0.1510   -2.1897 H   0  0  0  0  0  0  0  0  0  0  0  0
    6.0614    1.2406    0.9338 H   0  0  0  0  0  0  0  0  0  0  0  0
    5.0547    2.3603    1.8560 H   0  0  0  0  0  0  0  0  0  0  0  0
    4.5363    2.1430   -2.3456 H   0  0  0  0  0  0  0  0  0  0  0  0
    5.7472    1.1185   -1.5822 H   0  0  0  0  0  0  0  0  0  0  0  0
   -0.0637   -2.7074   -2.7890 H   0  0  0  0  0  0  0  0  0  0  0  0
   -2.1995   -1.5752   -2.6715 H   0  0  0  0  0  0  0  0  0  0  0  0
    3.5046    4.1147   -1.9847 H   0  0  0  0  0  0  0  0  0  0  0  0
    5.2763    4.2771   -2.2409 H   0  0  0  0  0  0  0  0  0  0  0  0
    4.3687    5.5482   -1.4052 H   0  0  0  0  0  0  0  0  0  0  0  0
   -2.6505    1.1839    0.3454 H   0  0  0  0  0  0  0  0  0  0  0  0
   -4.6033   -2.2520   -1.3875 H   0  0  0  0  0  0  0  0  0  0  0  0
   -6.7542   -1.0544   -1.3251 H   0  0  0  0  0  0  0  0  0  0  0  0
   -6.8842    1.2381   -0.4361 H   0  0  0  0  0  0  0  0  0  0  0  0
  1 33  1  0  0  0  0
  2 33  1  0  0  0  0
  3 33  1  0  0  0  0
  4 22  2  0  0  0  0
  5 25  2  0  0  0  0
  6 12  1  0  0  0  0
  6 13  1  0  0  0  0
  6 14  1  0  0  0  0
  7 15  1  0  0  0  0
  7 16  1  0  0  0  0
  7 22  1  0  0  0  0
  8 19  1  0  0  0  0
  8 20  1  0  0  0  0
  8 25  1  0  0  0  0
  9 11  1  0  0  0  0
  9 12  1  0  0  0  0
  9 15  1  0  0  0  0
  9 34  1  0  0  0  0
 10 11  1  0  0  0  0
 10 13  1  0  0  0  0
 10 16  1  0  0  0  0
 10 35  1  0  0  0  0
 11 36  1  0  0  0  0
 11 37  1  0  0  0  0
 12 38  1  0  0  0  0
 12 39  1  0  0  0  0
 13 40  1  0  0  0  0
 13 41  1  0  0  0  0
 14 17  1  0  0  0  0
 14 18  1  0  0  0  0
 14 42  1  0  0  0  0
 15 43  1  0  0  0  0
 15 44  1  0  0  0  0
 16 21  2  0  0  0  0
 17 19  1  0  0  0  0
 17 45  1  0  0  0  0
 17 46  1  0  0  0  0
 18 20  1  0  0  0  0
 18 47  1  0  0  0  0
 18 48  1  0  0  0  0
 19 49  1  0  0  0  0
 19 50  1  0  0  0  0
 20 51  1  0  0  0  0
 20 52  1  0  0  0  0
 21 24  1  0  0  0  0
 21 53  1  0  0  0  0
 22 23  1  0  0  0  0
 23 24  2  0  0  0  0
 23 26  1  0  0  0  0
 24 54  1  0  0  0  0
 25 27  1  0  0  0  0
 26 28  2  0  0  0  0
 26 29  1  0  0  0  0
 27 55  1  0  0  0  0
 27 56  1  0  0  0  0
 27 57  1  0  0  0  0
 28 30  1  0  0  0  0
 28 58  1  0  0  0  0
 29 31  2  0  0  0  0
 29 59  1  0  0  0  0
 30 32  2  0  0  0  0
 30 33  1  0  0  0  0
 31 32  1  0  0  0  0
 31 60  1  0  0  0  0
 32 61  1  0  0  0  0
M  END
> <PUBCHEM_COMPOUND_CID>
25388691

> <PUBCHEM_CONFORMER_RMSD>
0.8

> <PUBCHEM_CONFORMER_DIVERSEORDER>
1
36
23
30
24
22
19
35
29
26
33
38
37
2
28
32
11
21
31
9
34
8
16
17
14
27
15
12
7
25
3
13
20
6
5
4
18
10

> <PUBCHEM_MMFF94_PARTIAL_CHARGES>
35
1 -0.34
10 0.14
12 0.27
13 0.27
14 0.27
15 0.3
16 -0.03
19 0.3
2 -0.34
20 0.3
21 -0.15
22 0.62
23 -0.01
24 -0.15
25 0.57
26 0.03
27 0.06
28 -0.15
29 -0.15
3 -0.34
30 -0.14
31 -0.15
32 -0.15
33 1.16
4 -0.57
5 -0.57
53 0.15
54 0.15
58 0.15
59 0.15
6 -0.81
60 0.15
61 0.15
7 -0.47
8 -0.66

> <PUBCHEM_EFFECTIVE_ROTOR_COUNT>
6.2

> <PUBCHEM_PHARMACOPHORE_FEATURES>
8
1 4 acceptor
1 5 acceptor
1 6 cation
6 26 28 29 30 31 32 rings
6 6 9 10 11 12 13 rings
6 7 16 21 22 23 24 rings
6 7 9 10 11 15 16 rings
6 8 14 17 18 19 20 rings

> <PUBCHEM_HEAVY_ATOM_COUNT>
33

> <PUBCHEM_ATOM_DEF_STEREO_COUNT>
2

> <PUBCHEM_ATOM_UDEF_STEREO_COUNT>
0

> <PUBCHEM_BOND_DEF_STEREO_COUNT>
0

> <PUBCHEM_BOND_UDEF_STEREO_COUNT>
0

> <PUBCHEM_ISOTOPIC_ATOM_COUNT>
0

> <PUBCHEM_COMPONENT_COUNT>
1

> <PUBCHEM_CACTVS_TAUTO_COUNT>
3

> <PUBCHEM_CONFORMER_ID>
0183669300000001

> <PUBCHEM_MMFF94_ENERGY>
77.8976

> <PUBCHEM_FEATURE_SELFOVERLAP>
42.151

> <PUBCHEM_SHAPE_FINGERPRINT>
100830 2 18271253741816106385
10937287 8 18338234994000514654
11331351 85 17325478909364442050
11477941 20 16542709661301351324
11720765 8 17417540086703720598
12104220 4 17478628810539828081
12633257 1 15936967560945288102
13590594 115 17688314486839702714
13944108 23 18266745684212993084
14251764 75 18340775917616066057
14429114 114 18340763827468010089
14739800 52 18408599258142115119
14790565 3 18412261765601853284
14849402 71 18261670381736680954
15001296 14 18339361855985553337
15142526 21 18260264183035889370
15320291 9 18192993712244095792
15357212 105 18128555807522779697
15513586 35 15798487563478029900
16112460 7 18335978783371838060
16120349 67 18119543265460649836
16708801 149 18119802766968507508
19438510 23 18263640830963527304
20567600 9 18410862019002457902
21223535 225 18343300401478728548
22122407 14 18335706035103398187
23559900 14 17414151301246035423
245318 6 18115598169725572076
27425 322 18191307079546084699
2838139 119 18413107290381450534
3525247 154 15453988708649185509
376196 1 18409736192242311090
393628 179 18055901346011930152
474 4 18260826003465730654
508180 173 18198927841798282326
550186 72 18050288373490168463
56638632 10 18053118499134531449
57091435 61 18409445895017087398
57591035 28 15756294324310406157
5951187 136 18271817791443893612
6036956 94 16965199172363228588
6086070 43 17465072987378590887
7288768 16 17897157142679406530
9849439 229 18264481970138163026

> <PUBCHEM_SHAPE_MULTIPOLES>
630.62
14.47
6.19
1.7
9.09
4.4
-0.11
18.91
0.64
-5.35
-0.55
-0.54
-0.47
-2.68

> <PUBCHEM_SHAPE_SELFOVERLAP>
1372.061

> <PUBCHEM_SHAPE_VOLUME>
342.6

> <PUBCHEM_COORDINATE_TYPE>
2
5
10

$$$$
