7155415
  -OEChem-12032416113D

 50 54  0     1  0  0  0  0  0999 V2000
    4.5596    2.2275   -1.1487 F   0  0  0  0  0  0  0  0  0  0  0  0
   -3.3120    0.0494   -2.7928 O   0  0  0  0  0  0  0  0  0  0  0  0
   -1.3527    3.5635    0.2994 O   0  0  0  0  0  0  0  0  0  0  0  0
   -1.2201    1.5307    1.4470 N   0  0  0  0  0  0  0  0  0  0  0  0
   -2.3015   -0.4690   -0.7444 N   0  0  0  0  0  0  0  0  0  0  0  0
   -3.3456    0.2500    1.4863 C   0  0  1  0  0  0  0  0  0  0  0  0
   -1.2007   -0.9551    1.4622 C   0  0  2  0  0  0  0  0  0  0  0  0
   -2.6107   -0.9564    2.0516 C   0  0  0  0  0  0  0  0  0  0  0  0
   -2.6203    1.5524    1.8653 C   0  0  0  0  0  0  0  0  0  0  0  0
   -3.4634    0.0797   -0.0295 C   0  0  0  0  0  0  0  0  0  0  0  0
   -0.4698    0.3410    1.8751 C   0  0  0  0  0  0  0  0  0  0  0  0
   -1.2276   -1.0767   -0.0635 C   0  0  0  0  0  0  0  0  0  0  0  0
   -0.2514   -1.7092   -0.7654 C   0  0  0  0  0  0  0  0  0  0  0  0
   -2.3921   -0.4543   -2.1475 C   0  0  0  0  0  0  0  0  0  0  0  0
   -0.7223    2.5691    0.6561 C   0  0  0  0  0  0  0  0  0  0  0  0
   -0.3093   -1.7105   -2.2146 C   0  0  0  0  0  0  0  0  0  0  0  0
   -1.2940   -1.1160   -2.8881 C   0  0  0  0  0  0  0  0  0  0  0  0
    0.8811   -2.3820   -0.0917 C   0  0  0  0  0  0  0  0  0  0  0  0
    0.6641    2.4786    0.1829 C   0  0  0  0  0  0  0  0  0  0  0  0
    2.0381   -1.6646    0.1970 C   0  0  0  0  0  0  0  0  0  0  0  0
    0.7816   -3.7274    0.2495 C   0  0  0  0  0  0  0  0  0  0  0  0
    0.9419    1.8601   -1.0334 C   0  0  0  0  0  0  0  0  0  0  0  0
    1.6950    3.0129    0.9517 C   0  0  0  0  0  0  0  0  0  0  0  0
    3.1056   -2.2986    0.8327 C   0  0  0  0  0  0  0  0  0  0  0  0
    1.8490   -4.3613    0.8853 C   0  0  0  0  0  0  0  0  0  0  0  0
    3.0111   -3.6469    1.1768 C   0  0  0  0  0  0  0  0  0  0  0  0
    2.2593    1.7753   -1.4838 C   0  0  0  0  0  0  0  0  0  0  0  0
    3.0124    2.9282    0.5012 C   0  0  0  0  0  0  0  0  0  0  0  0
    3.2945    2.3094   -0.7165 C   0  0  0  0  0  0  0  0  0  0  0  0
   -4.3561    0.2978    1.9104 H   0  0  0  0  0  0  0  0  0  0  0  0
   -0.6712   -1.8034    1.9096 H   0  0  0  0  0  0  0  0  0  0  0  0
   -3.1368   -1.8855    1.7991 H   0  0  0  0  0  0  0  0  0  0  0  0
   -2.5679   -0.8990    3.1462 H   0  0  0  0  0  0  0  0  0  0  0  0
   -3.1412    2.4146    1.4356 H   0  0  0  0  0  0  0  0  0  0  0  0
   -2.6265    1.6814    2.9546 H   0  0  0  0  0  0  0  0  0  0  0  0
   -4.2897   -0.6138   -0.2385 H   0  0  0  0  0  0  0  0  0  0  0  0
   -3.7461    1.0310   -0.4982 H   0  0  0  0  0  0  0  0  0  0  0  0
   -0.3968    0.3928    2.9687 H   0  0  0  0  0  0  0  0  0  0  0  0
    0.5518    0.3562    1.4960 H   0  0  0  0  0  0  0  0  0  0  0  0
    0.4898   -2.2032   -2.7607 H   0  0  0  0  0  0  0  0  0  0  0  0
   -1.3256   -1.1161   -3.9710 H   0  0  0  0  0  0  0  0  0  0  0  0
    2.1341   -0.6188   -0.0644 H   0  0  0  0  0  0  0  0  0  0  0  0
   -0.1181   -4.2965    0.0292 H   0  0  0  0  0  0  0  0  0  0  0  0
    0.1421    1.4539   -1.6448 H   0  0  0  0  0  0  0  0  0  0  0  0
    1.4855    3.4965    1.9022 H   0  0  0  0  0  0  0  0  0  0  0  0
    4.0105   -1.7422    1.0590 H   0  0  0  0  0  0  0  0  0  0  0  0
    1.7755   -5.4112    1.1536 H   0  0  0  0  0  0  0  0  0  0  0  0
    3.8423   -4.1405    1.6718 H   0  0  0  0  0  0  0  0  0  0  0  0
    2.4787    1.2949   -2.4327 H   0  0  0  0  0  0  0  0  0  0  0  0
    3.8187    3.3433    1.0986 H   0  0  0  0  0  0  0  0  0  0  0  0
  1 29  1  0  0  0  0
  2 14  2  0  0  0  0
  3 15  2  0  0  0  0
  4  9  1  0  0  0  0
  4 11  1  0  0  0  0
  4 15  1  0  0  0  0
  5 10  1  0  0  0  0
  5 12  1  0  0  0  0
  5 14  1  0  0  0  0
  6  8  1  0  0  0  0
  6  9  1  0  0  0  0
  6 10  1  0  0  0  0
  6 30  1  0  0  0  0
  7  8  1  0  0  0  0
  7 11  1  0  0  0  0
  7 12  1  0  0  0  0
  7 31  1  0  0  0  0
  8 32  1  0  0  0  0
  8 33  1  0  0  0  0
  9 34  1  0  0  0  0
  9 35  1  0  0  0  0
 10 36  1  0  0  0  0
 10 37  1  0  0  0  0
 11 38  1  0  0  0  0
 11 39  1  0  0  0  0
 12 13  2  0  0  0  0
 13 16  1  0  0  0  0
 13 18  1  0  0  0  0
 14 17  1  0  0  0  0
 15 19  1  0  0  0  0
 16 17  2  0  0  0  0
 16 40  1  0  0  0  0
 17 41  1  0  0  0  0
 18 20  2  0  0  0  0
 18 21  1  0  0  0  0
 19 22  2  0  0  0  0
 19 23  1  0  0  0  0
 20 24  1  0  0  0  0
 20 42  1  0  0  0  0
 21 25  2  0  0  0  0
 21 43  1  0  0  0  0
 22 27  1  0  0  0  0
 22 44  1  0  0  0  0
 23 28  2  0  0  0  0
 23 45  1  0  0  0  0
 24 26  2  0  0  0  0
 24 46  1  0  0  0  0
 25 26  1  0  0  0  0
 25 47  1  0  0  0  0
 26 48  1  0  0  0  0
 27 29  2  0  0  0  0
 27 49  1  0  0  0  0
 28 29  1  0  0  0  0
 28 50  1  0  0  0  0
M  END
> <PUBCHEM_COMPOUND_CID>
7155415

> <PUBCHEM_CONFORMER_RMSD>
0.8

> <PUBCHEM_CONFORMER_DIVERSEORDER>
1
2

> <PUBCHEM_MMFF94_PARTIAL_CHARGES>
38
1 -0.19
10 0.3
11 0.3
12 -0.03
13 -0.03
14 0.62
15 0.54
16 -0.15
17 -0.14
18 0.03
19 0.09
2 -0.57
20 -0.15
21 -0.15
22 -0.15
23 -0.15
24 -0.15
25 -0.15
26 -0.15
27 -0.15
28 -0.15
29 0.19
3 -0.57
4 -0.66
40 0.15
41 0.15
42 0.15
43 0.15
44 0.15
45 0.15
46 0.15
47 0.15
48 0.15
49 0.15
5 -0.47
50 0.15
7 0.14
9 0.3

> <PUBCHEM_EFFECTIVE_ROTOR_COUNT>
4

> <PUBCHEM_PHARMACOPHORE_FEATURES>
7
1 2 acceptor
1 3 acceptor
6 18 20 21 24 25 26 rings
6 19 22 23 27 28 29 rings
6 4 6 7 8 9 11 rings
6 5 12 13 14 16 17 rings
6 5 6 7 8 10 12 rings

> <PUBCHEM_HEAVY_ATOM_COUNT>
29

> <PUBCHEM_ATOM_DEF_STEREO_COUNT>
2

> <PUBCHEM_ATOM_UDEF_STEREO_COUNT>
0

> <PUBCHEM_BOND_DEF_STEREO_COUNT>
0

> <PUBCHEM_BOND_UDEF_STEREO_COUNT>
0

> <PUBCHEM_ISOTOPIC_ATOM_COUNT>
0

> <PUBCHEM_COMPONENT_COUNT>
1

> <PUBCHEM_CACTVS_TAUTO_COUNT>
1

> <PUBCHEM_CONFORMER_ID>
006D2ED700000001

> <PUBCHEM_MMFF94_ENERGY>
87.3128

> <PUBCHEM_FEATURE_SELFOVERLAP>
37.107

> <PUBCHEM_SHAPE_FINGERPRINT>
10165383 225 17825978045478266966
10190108 129 17759238888596880543
10871710 139 18198331863261641014
11578080 2 17169008685103933685
12035759 4 17846497093016354077
12156800 1 16240340123350381728
12403814 3 17625246525661133931
12422481 6 17554335718156449905
12539773 59 17774175521276376146
131258 38 16958217973948691187
133893 2 18410002230689406239
17980427 23 17841433627026967065
19930381 70 18335431187324749739
20600515 1 16747651438105267348
20905425 154 17979111264368594553
21330990 113 17397254410081918767
22149856 69 16124459342685364265
229495 10 18261948639661392527
23419403 2 17822294531164548839
35225 105 17256284902954882758
445580 44 17545279066353207978
469060 322 17836333018229443466
513532 50 15693170730668781061
550186 7 16321762137605504118
57527585 103 17330834037897071620
9925002 15 17844504674487787607

> <PUBCHEM_SHAPE_MULTIPOLES>
567.83
5.44
5.25
2.44
2.34
5.43
-1.38
-2.8
1.69
4.33
-0.19
-1.67
-1.2
-1.83

> <PUBCHEM_SHAPE_SELFOVERLAP>
1263.014

> <PUBCHEM_SHAPE_VOLUME>
301.3

> <PUBCHEM_COORDINATE_TYPE>
2
5
10

$$$$
