38030854
  -OEChem-12032416333D

 67 70  0     1  0  0  0  0  0999 V2000
   -1.5431    0.7228    1.0858 O   0  0  0  0  0  0  0  0  0  0  0  0
   -6.4858   -2.6398   -0.9030 O   0  0  0  0  0  0  0  0  0  0  0  0
    3.4596   -0.2369   -0.9227 N   0  0  0  0  0  0  0  0  0  0  0  0
   -1.8068    2.5260    2.3831 N   0  0  0  0  0  0  0  0  0  0  0  0
   -3.0593    2.0065    2.1141 N   0  0  0  0  0  0  0  0  0  0  0  0
    4.1321   -4.4193    1.7883 N   0  0  0  0  0  0  0  0  0  0  0  0
    1.1638    1.6298   -1.4499 C   0  0  1  0  0  0  0  0  0  0  0  0
    2.6641    1.9891   -1.5902 C   0  0  1  0  0  0  0  0  0  0  0  0
    0.4218    2.7228   -0.6656 C   0  0  0  0  0  0  0  0  0  0  0  0
    1.0083    2.9287    0.7437 C   0  0  2  0  0  0  0  0  0  0  0  0
    0.4973    1.4272   -2.8142 C   0  0  0  0  0  0  0  0  0  0  0  0
    2.5203    3.0239    0.7160 C   0  0  0  0  0  0  0  0  0  0  0  0
    3.2424    2.6114   -0.3410 C   0  0  0  0  0  0  0  0  0  0  0  0
    3.4933    0.7597   -1.9791 C   0  0  0  0  0  0  0  0  0  0  0  0
    0.5455    1.8250    1.7012 C   0  0  0  0  0  0  0  0  0  0  0  0
   -0.7276    0.5281   -2.6799 C   0  0  0  0  0  0  0  0  0  0  0  0
    0.1170    2.7720   -3.4254 C   0  0  0  0  0  0  0  0  0  0  0  0
    3.1815    3.6470    1.9138 C   0  0  0  0  0  0  0  0  0  0  0  0
   -0.9530    1.7452    1.7633 C   0  0  0  0  0  0  0  0  0  0  0  0
    4.2371   -1.4151   -1.2877 C   0  0  0  0  0  0  0  0  0  0  0  0
    4.2004   -2.4667   -0.2109 C   0  0  0  0  0  0  0  0  0  0  0  0
   -2.8570    0.9557    1.3541 C   0  0  0  0  0  0  0  0  0  0  0  0
    4.9652   -2.3141    0.9404 C   0  0  0  0  0  0  0  0  0  0  0  0
    3.4014   -3.5945   -0.3637 C   0  0  0  0  0  0  0  0  0  0  0  0
   -3.7890    0.0325    0.7744 C   0  0  0  0  0  0  0  0  0  0  0  0
    4.8963   -3.3098    1.9014 C   0  0  0  0  0  0  0  0  0  0  0  0
    3.4025   -4.5330    0.6557 C   0  0  0  0  0  0  0  0  0  0  0  0
   -5.1571    0.1914    0.9953 C   0  0  0  0  0  0  0  0  0  0  0  0
   -3.3273   -1.0245   -0.0099 C   0  0  0  0  0  0  0  0  0  0  0  0
   -6.0635   -0.7069    0.4320 C   0  0  0  0  0  0  0  0  0  0  0  0
   -4.2335   -1.9227   -0.5732 C   0  0  0  0  0  0  0  0  0  0  0  0
   -5.6016   -1.7639   -0.3523 C   0  0  0  0  0  0  0  0  0  0  0  0
   -5.9451   -3.6973   -1.6938 C   0  0  0  0  0  0  0  0  0  0  0  0
    1.0738    0.6943   -0.8836 H   0  0  0  0  0  0  0  0  0  0  0  0
    2.7904    2.7333   -2.3868 H   0  0  0  0  0  0  0  0  0  0  0  0
   -0.6556    2.5401   -0.6310 H   0  0  0  0  0  0  0  0  0  0  0  0
    0.5406    3.6920   -1.1693 H   0  0  0  0  0  0  0  0  0  0  0  0
    0.6138    3.8887    1.1070 H   0  0  0  0  0  0  0  0  0  0  0  0
    1.1815    0.9241   -3.5046 H   0  0  0  0  0  0  0  0  0  0  0  0
    4.3220    2.7485   -0.3253 H   0  0  0  0  0  0  0  0  0  0  0  0
    4.5307    1.0699   -2.1637 H   0  0  0  0  0  0  0  0  0  0  0  0
    3.1278    0.3313   -2.9180 H   0  0  0  0  0  0  0  0  0  0  0  0
    0.9063    2.0246    2.7175 H   0  0  0  0  0  0  0  0  0  0  0  0
    0.9547    0.8486    1.4150 H   0  0  0  0  0  0  0  0  0  0  0  0
   -1.4980    0.9689   -2.0401 H   0  0  0  0  0  0  0  0  0  0  0  0
   -0.4550   -0.4467   -2.2615 H   0  0  0  0  0  0  0  0  0  0  0  0
   -1.1798    0.3490   -3.6616 H   0  0  0  0  0  0  0  0  0  0  0  0
   -0.7409    3.2421   -2.9333 H   0  0  0  0  0  0  0  0  0  0  0  0
   -0.1859    2.6196   -4.4688 H   0  0  0  0  0  0  0  0  0  0  0  0
    0.9525    3.4779   -3.4469 H   0  0  0  0  0  0  0  0  0  0  0  0
    2.7707    4.6448    2.0986 H   0  0  0  0  0  0  0  0  0  0  0  0
    4.2627    3.7569    1.7771 H   0  0  0  0  0  0  0  0  0  0  0  0
    3.0242    3.0340    2.8061 H   0  0  0  0  0  0  0  0  0  0  0  0
    3.8316    0.1563   -0.0591 H   0  0  0  0  0  0  0  0  0  0  0  0
    5.2849   -1.1451   -1.4753 H   0  0  0  0  0  0  0  0  0  0  0  0
    3.8553   -1.8429   -2.2235 H   0  0  0  0  0  0  0  0  0  0  0  0
    5.5997   -1.4474    1.0916 H   0  0  0  0  0  0  0  0  0  0  0  0
    2.7902   -3.7461   -1.2468 H   0  0  0  0  0  0  0  0  0  0  0  0
    5.4735   -3.2384    2.8173 H   0  0  0  0  0  0  0  0  0  0  0  0
    2.7961   -5.4300    0.5855 H   0  0  0  0  0  0  0  0  0  0  0  0
   -5.5395    1.0079    1.6032 H   0  0  0  0  0  0  0  0  0  0  0  0
   -2.2689   -1.1805   -0.2036 H   0  0  0  0  0  0  0  0  0  0  0  0
   -7.1280   -0.5782    0.6073 H   0  0  0  0  0  0  0  0  0  0  0  0
   -3.8072   -2.7204   -1.1717 H   0  0  0  0  0  0  0  0  0  0  0  0
   -6.7884   -4.2970   -2.0516 H   0  0  0  0  0  0  0  0  0  0  0  0
   -5.3106   -4.3618   -1.0975 H   0  0  0  0  0  0  0  0  0  0  0  0
   -5.4275   -3.3133   -2.5794 H   0  0  0  0  0  0  0  0  0  0  0  0
  1 19  1  0  0  0  0
  1 22  1  0  0  0  0
  2 32  1  0  0  0  0
  2 33  1  0  0  0  0
  3 14  1  0  0  0  0
  3 20  1  0  0  0  0
  3 54  1  0  0  0  0
  4  5  1  0  0  0  0
  4 19  2  0  0  0  0
  5 22  2  0  0  0  0
  6 26  2  0  0  0  0
  6 27  1  0  0  0  0
  7  8  1  0  0  0  0
  7  9  1  0  0  0  0
  7 11  1  0  0  0  0
  7 34  1  0  0  0  0
  8 13  1  0  0  0  0
  8 14  1  0  0  0  0
  8 35  1  0  0  0  0
  9 10  1  0  0  0  0
  9 36  1  0  0  0  0
  9 37  1  0  0  0  0
 10 12  1  0  0  0  0
 10 15  1  0  0  0  0
 10 38  1  0  0  0  0
 11 16  1  0  0  0  0
 11 17  1  0  0  0  0
 11 39  1  0  0  0  0
 12 13  2  0  0  0  0
 12 18  1  0  0  0  0
 13 40  1  0  0  0  0
 14 41  1  0  0  0  0
 14 42  1  0  0  0  0
 15 19  1  0  0  0  0
 15 43  1  0  0  0  0
 15 44  1  0  0  0  0
 16 45  1  0  0  0  0
 16 46  1  0  0  0  0
 16 47  1  0  0  0  0
 17 48  1  0  0  0  0
 17 49  1  0  0  0  0
 17 50  1  0  0  0  0
 18 51  1  0  0  0  0
 18 52  1  0  0  0  0
 18 53  1  0  0  0  0
 20 21  1  0  0  0  0
 20 55  1  0  0  0  0
 20 56  1  0  0  0  0
 21 23  2  0  0  0  0
 21 24  1  0  0  0  0
 22 25  1  0  0  0  0
 23 26  1  0  0  0  0
 23 57  1  0  0  0  0
 24 27  2  0  0  0  0
 24 58  1  0  0  0  0
 25 28  2  0  0  0  0
 25 29  1  0  0  0  0
 26 59  1  0  0  0  0
 27 60  1  0  0  0  0
 28 30  1  0  0  0  0
 28 61  1  0  0  0  0
 29 31  2  0  0  0  0
 29 62  1  0  0  0  0
 30 32  2  0  0  0  0
 30 63  1  0  0  0  0
 31 32  1  0  0  0  0
 31 64  1  0  0  0  0
 33 65  1  0  0  0  0
 33 66  1  0  0  0  0
 33 67  1  0  0  0  0
M  END
> <PUBCHEM_COMPOUND_CID>
38030854

> <PUBCHEM_CONFORMER_RMSD>
1

> <PUBCHEM_CONFORMER_DIVERSEORDER>
1
60
48
98
142
102
22
53
115
139
86
135
68
28
119
177
164
146
165
23
148
108
112
44
133
71
89
74
85
140
162
170
113
50
131
7
57
4
151
176
20
154
95
12
99
126
175
121
173
120
11
80
8
168
15
137
132
29
92
51
129
52
65
156
101
37
107
143
13
24
114
130
144
125
91
82
118
110
56
69
160
49
9
155
145
47
30
116
128
97
88
75
59
163
106
123
153
127
138
161
93
159
17
147
21
42
41
34
81
109
134
26
124
158
5
14
25
64
96
54
45
104
19
35
33
172
79
38
66
58
169
94
122
141
2
83
84
63
76
39
77
73
6
149
72
90
157
67
178
62
136
16
36
174
46
166
117
103
111
78
61
18
105
31
100
32
55
43
40
167
87
152
150
70
27
3
171
10

> <PUBCHEM_MMFF94_PARTIAL_CHARGES>
38
1 -0.28
10 0.14
12 -0.28
13 -0.29
14 0.27
15 0.18
18 0.14
19 0.3
2 -0.36
20 0.41
21 -0.14
22 0.43
23 -0.15
24 -0.15
25 0.05
26 0.16
27 0.16
28 -0.15
29 -0.15
3 -0.9
30 -0.15
31 -0.15
32 0.08
33 0.28
4 -0.34
40 0.15
5 -0.34
54 0.36
57 0.15
58 0.15
59 0.15
6 -0.62
60 0.15
61 0.15
62 0.15
63 0.15
64 0.15
8 0.14

> <PUBCHEM_EFFECTIVE_ROTOR_COUNT>
9.8

> <PUBCHEM_PHARMACOPHORE_FEATURES>
9
1 2 acceptor
1 3 cation
1 3 donor
1 6 acceptor
3 11 16 17 hydrophobe
5 1 4 5 19 22 rings
6 25 28 29 30 31 32 rings
6 6 21 23 24 26 27 rings
6 7 8 9 10 12 13 rings

> <PUBCHEM_HEAVY_ATOM_COUNT>
33

> <PUBCHEM_ATOM_DEF_STEREO_COUNT>
3

> <PUBCHEM_ATOM_UDEF_STEREO_COUNT>
0

> <PUBCHEM_BOND_DEF_STEREO_COUNT>
0

> <PUBCHEM_BOND_UDEF_STEREO_COUNT>
0

> <PUBCHEM_ISOTOPIC_ATOM_COUNT>
0

> <PUBCHEM_COMPONENT_COUNT>
1

> <PUBCHEM_CACTVS_TAUTO_COUNT>
1

> <PUBCHEM_CONFORMER_ID>
02444E0600000001

> <PUBCHEM_MMFF94_ENERGY>
79.1751

> <PUBCHEM_FEATURE_SELFOVERLAP>
45.671

> <PUBCHEM_SHAPE_FINGERPRINT>
10622 236 18338801113318203011
11552529 35 17617664255206367698
12104220 4 9293918378463367095
12977781 61 18046312333169857188
131258 38 18343021099396773438
13165053 137 14872125265686218755
14068700 675 18342173337023773187
14674994 50 17466788182399060244
15163728 17 8934415438164445904
15419009 47 17971464105922591005
18681886 176 16343163410176035652
19315092 285 18413103991535097070
20775530 9 17681013807209303858
21458453 9 15769194112112292127
21703447 108 18202282545573304760
25222932 49 17486210312474471021
3027735 51 16230286215064580928
4394409 98 18053377700806372973
46194498 28 16157121730176004993
484985 159 17398389728909596366
50080093 196 18119817910685856507
59025328 239 18040438771970907948
66674814 147 18113907043743696210
6677587 24 17026003127603968172

> <PUBCHEM_SHAPE_MULTIPOLES>
647.46
13.41
6.25
2.9
17.2
5.13
-1.33
17.24
0.93
-7.51
1.59
-0.53
-2.1
-4.1

> <PUBCHEM_SHAPE_SELFOVERLAP>
1374.924

> <PUBCHEM_SHAPE_VOLUME>
360.3

> <PUBCHEM_COORDINATE_TYPE>
2
5
10

$$$$
