71694092
  -OEChem-12032416323D

 48 51  0     0  0  0  0  0  0999 V2000
   -1.2697   -2.4903   -0.2219 Cl  0  0  0  0  0  0  0  0  0  0  0  0
   -3.3485    3.6000    1.0665 O   0  0  0  0  0  0  0  0  0  0  0  0
    2.0617    2.4652    0.0683 O   0  0  0  0  0  0  0  0  0  0  0  0
    6.7378   -1.7290    0.4600 O   0  0  0  0  0  0  0  0  0  0  0  0
   -2.3978    0.6609    0.3187 N   0  0  0  0  0  0  0  0  0  0  0  0
    0.8292    3.0544   -0.1860 N   0  0  0  0  0  0  0  0  0  0  0  0
   -2.2828    2.0864   -0.0010 C   0  0  0  0  0  0  0  0  0  0  0  0
   -3.6899    2.6984   -0.0195 C   0  0  0  0  0  0  0  0  0  0  0  0
   -2.1203    2.8649    1.3112 C   0  0  0  0  0  0  0  0  0  0  0  0
   -1.3387    2.3663   -1.1414 C   0  0  0  0  0  0  0  0  0  0  0  0
    0.0879    2.0845   -0.7292 C   0  0  0  0  0  0  0  0  0  0  0  0
   -3.0520   -0.0324   -0.7844 C   0  0  0  0  0  0  0  0  0  0  0  0
   -3.7202   -1.3030   -0.3305 C   0  0  0  0  0  0  0  0  0  0  0  0
    0.7926    0.8736   -0.8413 C   0  0  0  0  0  0  0  0  0  0  0  0
    2.0277    1.1666   -0.3262 C   0  0  0  0  0  0  0  0  0  0  0  0
   -2.9874   -2.4574   -0.0556 C   0  0  0  0  0  0  0  0  0  0  0  0
   -5.1077   -1.3068   -0.1865 C   0  0  0  0  0  0  0  0  0  0  0  0
    3.2367    0.4227   -0.1232 C   0  0  0  0  0  0  0  0  0  0  0  0
   -3.6420   -3.6159    0.3630 C   0  0  0  0  0  0  0  0  0  0  0  0
   -5.7622   -2.4653    0.2320 C   0  0  0  0  0  0  0  0  0  0  0  0
   -5.0294   -3.6198    0.5067 C   0  0  0  0  0  0  0  0  0  0  0  0
    3.2998   -0.9205   -0.4939 C   0  0  0  0  0  0  0  0  0  0  0  0
    4.3501    1.0425    0.4442 C   0  0  0  0  0  0  0  0  0  0  0  0
    4.4759   -1.6440   -0.2970 C   0  0  0  0  0  0  0  0  0  0  0  0
    5.5263    0.3192    0.6411 C   0  0  0  0  0  0  0  0  0  0  0  0
    5.5892   -1.0240    0.2705 C   0  0  0  0  0  0  0  0  0  0  0  0
    6.7339   -3.0974    0.0555 C   0  0  0  0  0  0  0  0  0  0  0  0
   -4.5422    2.0754    0.2728 H   0  0  0  0  0  0  0  0  0  0  0  0
   -3.9495    3.2556   -0.9252 H   0  0  0  0  0  0  0  0  0  0  0  0
   -1.2759    3.5551    1.3804 H   0  0  0  0  0  0  0  0  0  0  0  0
   -2.1886    2.2995    2.2476 H   0  0  0  0  0  0  0  0  0  0  0  0
   -1.4065    3.4239   -1.4317 H   0  0  0  0  0  0  0  0  0  0  0  0
   -1.5833    1.8025   -2.0485 H   0  0  0  0  0  0  0  0  0  0  0  0
   -1.5277    0.1935    0.5669 H   0  0  0  0  0  0  0  0  0  0  0  0
   -2.3273   -0.2728   -1.5727 H   0  0  0  0  0  0  0  0  0  0  0  0
   -3.8060    0.5791   -1.2958 H   0  0  0  0  0  0  0  0  0  0  0  0
    0.4477   -0.0657   -1.2464 H   0  0  0  0  0  0  0  0  0  0  0  0
   -5.6946   -0.4157   -0.3931 H   0  0  0  0  0  0  0  0  0  0  0  0
   -3.0855   -4.5238    0.5813 H   0  0  0  0  0  0  0  0  0  0  0  0
   -6.8424   -2.4683    0.3447 H   0  0  0  0  0  0  0  0  0  0  0  0
   -5.5392   -4.5217    0.8328 H   0  0  0  0  0  0  0  0  0  0  0  0
    2.4482   -1.4299   -0.9380 H   0  0  0  0  0  0  0  0  0  0  0  0
    4.3403    2.0869    0.7456 H   0  0  0  0  0  0  0  0  0  0  0  0
    4.4562   -2.6830   -0.6075 H   0  0  0  0  0  0  0  0  0  0  0  0
    6.3907    0.8072    1.0830 H   0  0  0  0  0  0  0  0  0  0  0  0
    7.7262   -3.5031    0.2785 H   0  0  0  0  0  0  0  0  0  0  0  0
    6.5832   -3.1972   -1.0248 H   0  0  0  0  0  0  0  0  0  0  0  0
    6.0114   -3.6852    0.6317 H   0  0  0  0  0  0  0  0  0  0  0  0
  1 16  1  0  0  0  0
  2  8  1  0  0  0  0
  2  9  1  0  0  0  0
  3  6  1  0  0  0  0
  3 15  1  0  0  0  0
  4 26  1  0  0  0  0
  4 27  1  0  0  0  0
  5  7  1  0  0  0  0
  5 12  1  0  0  0  0
  5 34  1  0  0  0  0
  6 11  2  0  0  0  0
  7  8  1  0  0  0  0
  7  9  1  0  0  0  0
  7 10  1  0  0  0  0
  8 28  1  0  0  0  0
  8 29  1  0  0  0  0
  9 30  1  0  0  0  0
  9 31  1  0  0  0  0
 10 11  1  0  0  0  0
 10 32  1  0  0  0  0
 10 33  1  0  0  0  0
 11 14  1  0  0  0  0
 12 13  1  0  0  0  0
 12 35  1  0  0  0  0
 12 36  1  0  0  0  0
 13 16  1  0  0  0  0
 13 17  2  0  0  0  0
 14 15  2  0  0  0  0
 14 37  1  0  0  0  0
 15 18  1  0  0  0  0
 16 19  2  0  0  0  0
 17 20  1  0  0  0  0
 17 38  1  0  0  0  0
 18 22  2  0  0  0  0
 18 23  1  0  0  0  0
 19 21  1  0  0  0  0
 19 39  1  0  0  0  0
 20 21  2  0  0  0  0
 20 40  1  0  0  0  0
 21 41  1  0  0  0  0
 22 24  1  0  0  0  0
 22 42  1  0  0  0  0
 23 25  2  0  0  0  0
 23 43  1  0  0  0  0
 24 26  2  0  0  0  0
 24 44  1  0  0  0  0
 25 26  1  0  0  0  0
 25 45  1  0  0  0  0
 27 46  1  0  0  0  0
 27 47  1  0  0  0  0
 27 48  1  0  0  0  0
M  END
> <PUBCHEM_COMPOUND_CID>
71694092

> <PUBCHEM_CONFORMER_RMSD>
1

> <PUBCHEM_CONFORMER_DIVERSEORDER>
1
25
114
20
22
76
101
21
71
130
82
113
92
116
38
39
86
75
96
118
34
73
122
46
83
112
103
119
91
41
55
93
105
98
89
66
97
77
69
72
87
24
99
31
10
42
65
94
120
45
19
48
64
88
57
47
30
11
108
109
5
43
56
62
33
127
50
67
95
131
16
78
8
53
52
37
61
123
54
90
26
79
107
81
18
9
132
23
68
117
80
13
129
7
51
58
29
102
104
115
74
121
49
133
125
44
63
126
28
6
110
36
40
85
4
111
59
124
12
27
128
2
134
15
60
32
35
84
3
70
100
14
17
106

> <PUBCHEM_MMFF94_PARTIAL_CHARGES>
37
1 -0.18
10 0.18
11 0.11
12 0.41
13 -0.14
14 -0.15
15 0.09
16 0.18
17 -0.15
18 0.05
19 -0.15
2 -0.52
20 -0.15
21 -0.15
22 -0.15
23 -0.15
24 -0.15
25 -0.15
26 0.08
27 0.28
3 -0.02
34 0.36
37 0.15
38 0.15
39 0.15
4 -0.36
40 0.15
41 0.15
42 0.15
43 0.15
44 0.15
45 0.15
5 -0.84
6 -0.41
7 0.21
8 0.26
9 0.26

> <PUBCHEM_EFFECTIVE_ROTOR_COUNT>
7.8

> <PUBCHEM_PHARMACOPHORE_FEATURES>
9
1 2 acceptor
1 4 acceptor
1 5 cation
1 5 donor
1 6 acceptor
4 2 7 8 9 rings
5 3 6 11 14 15 rings
6 13 16 17 19 20 21 rings
6 18 22 23 24 25 26 rings

> <PUBCHEM_HEAVY_ATOM_COUNT>
27

> <PUBCHEM_ATOM_DEF_STEREO_COUNT>
0

> <PUBCHEM_ATOM_UDEF_STEREO_COUNT>
0

> <PUBCHEM_BOND_DEF_STEREO_COUNT>
0

> <PUBCHEM_BOND_UDEF_STEREO_COUNT>
0

> <PUBCHEM_ISOTOPIC_ATOM_COUNT>
0

> <PUBCHEM_COMPONENT_COUNT>
1

> <PUBCHEM_CACTVS_TAUTO_COUNT>
1

> <PUBCHEM_CONFORMER_ID>
0445F70C00000001

> <PUBCHEM_MMFF94_ENERGY>
76.4849

> <PUBCHEM_FEATURE_SELFOVERLAP>
45.672

> <PUBCHEM_SHAPE_FINGERPRINT>
10050765 1 18410013260329660900
10939801 23 18339076125255057526
11135609 12 18262508320680503444
11456790 92 18198358424136050507
117089 54 18340494370411460118
12107183 9 18268163101351829907
12166972 35 17676206922102287862
12422481 6 18128564642249447531
12760667 363 18340763832316281055
12788726 201 18268165316800833629
13004483 165 18268709596694897437
13540713 5 18263102018257837621
1361 4 18265050242248050466
13911852 28 18123748914543071175
14725015 67 18410852187870075579
14844126 61 18343860018183774707
14866123 147 18411423882793013147
15042514 8 18410011009455002796
15320467 1 18409729577739993802
15352361 1 18336826506266634207
15361156 5 17968675813190651684
15728490 83 18335146379643769675
16120349 21 18411146805657195697
17492 89 18338234980624813917
17627616 140 17752756940189166859
19141452 34 18337112241883038164
21236236 1 18411979122668396630
21478907 32 18338238279718820953
22122407 14 15913035483444004320
23559900 14 18339068402202635605
3004659 81 17969777673600795757
3421961 26 18194118748845622404
3680242 22 18194135225105210331
4073 2 18341329990657647546
4616759 239 17914599585147633656
469060 322 17240480278130676126
484985 159 18261949653173077119
5104073 3 18271232843148088424
513202 73 18187657937960801017
54583773 228 18334581253512974958
5486654 36 18408890611438183049
563151 248 18265633008599645737
563151 74 15768943346462484397
56633871 153 18269273628817261895
5924683 9 18411700971880588305
7970288 3 18265050421655352179
79837 15 18055648222119192897
9981440 41 16414353339004458605

> <PUBCHEM_SHAPE_MULTIPOLES>
529.95
15.26
5.21
0.9
16.92
0.12
-0.03
15.84
-2.5
-5.31
-0.86
-0.24
-0.43
-0.13

> <PUBCHEM_SHAPE_SELFOVERLAP>
1140.437

> <PUBCHEM_SHAPE_VOLUME>
294.3

> <PUBCHEM_COORDINATE_TYPE>
2
5
10

$$$$
