11913153
  -OEChem-12032416123D

 50 53  0     1  0  0  0  0  0999 V2000
   -3.3687   -0.5963   -1.1348 O   0  0  0  0  0  0  0  0  0  0  0  0
   -1.3599    1.6376   -0.5123 O   0  0  0  0  0  0  0  0  0  0  0  0
   -4.8715    1.3583    0.1388 O   0  0  0  0  0  0  0  0  0  0  0  0
   -7.5305    1.3673   -0.2417 O   0  0  0  0  0  0  0  0  0  0  0  0
    6.5497    2.6225    0.0724 O   0  0  0  0  0  0  0  0  0  0  0  0
   -0.6033   -1.9435   -0.6835 N   0  0  0  0  0  0  0  0  0  0  0  0
    1.5870   -1.2292   -0.2376 N   0  0  0  0  0  0  0  0  0  0  0  0
    0.8951   -3.4831    0.2603 N   0  0  0  0  0  0  0  0  0  0  0  0
   -7.8929   -0.2013    1.4026 N   0  0  0  0  0  0  0  0  0  0  0  0
   -1.4238    0.2611   -0.0834 C   0  0  1  0  0  0  0  0  0  0  0  0
   -2.8898   -0.0696    0.1134 C   0  0  1  0  0  0  0  0  0  0  0  0
   -0.9911   -0.6512   -1.2071 C   0  0  2  0  0  0  0  0  0  0  0  0
   -3.4919    1.2811    0.4180 C   0  0  1  0  0  0  0  0  0  0  0  0
   -2.2611   -0.7759   -2.0307 C   0  0  0  0  0  0  0  0  0  0  0  0
   -2.6797    2.1990   -0.4675 C   0  0  0  0  0  0  0  0  0  0  0  0
    0.6641   -2.2270   -0.2057 C   0  0  0  0  0  0  0  0  0  0  0  0
   -5.6343    0.4919    0.9750 C   0  0  0  0  0  0  0  0  0  0  0  0
   -7.0994    0.6183    0.6301 C   0  0  0  0  0  0  0  0  0  0  0  0
    2.8117   -1.5401    0.2354 C   0  0  0  0  0  0  0  0  0  0  0  0
    2.1411   -3.7250    0.7181 C   0  0  0  0  0  0  0  0  0  0  0  0
    3.1495   -2.7832    0.7305 C   0  0  0  0  0  0  0  0  0  0  0  0
    3.7755   -0.4667    0.1936 C   0  0  0  0  0  0  0  0  0  0  0  0
    5.1340   -0.7508    0.0406 C   0  0  0  0  0  0  0  0  0  0  0  0
    3.3526    0.8594    0.3057 C   0  0  0  0  0  0  0  0  0  0  0  0
    6.0657    0.2865    0.0000 C   0  0  0  0  0  0  0  0  0  0  0  0
    4.2842    1.8969    0.2650 C   0  0  0  0  0  0  0  0  0  0  0  0
    5.6408    1.6104    0.1120 C   0  0  0  0  0  0  0  0  0  0  0  0
    6.0467    3.9523    0.1927 C   0  0  0  0  0  0  0  0  0  0  0  0
   -0.8369    0.1766    0.8366 H   0  0  0  0  0  0  0  0  0  0  0  0
   -3.0615   -0.8248    0.8861 H   0  0  0  0  0  0  0  0  0  0  0  0
   -0.1963   -0.2319   -1.8348 H   0  0  0  0  0  0  0  0  0  0  0  0
   -3.3011    1.5472    1.4665 H   0  0  0  0  0  0  0  0  0  0  0  0
   -2.3207    0.0218   -2.7794 H   0  0  0  0  0  0  0  0  0  0  0  0
   -2.3647   -1.7361   -2.5455 H   0  0  0  0  0  0  0  0  0  0  0  0
   -2.6314    3.2193   -0.0753 H   0  0  0  0  0  0  0  0  0  0  0  0
   -3.0767    2.2526   -1.4874 H   0  0  0  0  0  0  0  0  0  0  0  0
   -1.2972   -2.6785   -0.6068 H   0  0  0  0  0  0  0  0  0  0  0  0
   -5.4936    0.7690    2.0259 H   0  0  0  0  0  0  0  0  0  0  0  0
   -5.3479   -0.5537    0.8233 H   0  0  0  0  0  0  0  0  0  0  0  0
    2.3100   -4.7290    1.0926 H   0  0  0  0  0  0  0  0  0  0  0  0
    4.1206   -3.0385    1.1346 H   0  0  0  0  0  0  0  0  0  0  0  0
   -7.5094   -0.8113    2.1175 H   0  0  0  0  0  0  0  0  0  0  0  0
   -8.8998   -0.2200    1.2792 H   0  0  0  0  0  0  0  0  0  0  0  0
    5.5065   -1.7651   -0.0760 H   0  0  0  0  0  0  0  0  0  0  0  0
    2.3037    1.1158    0.4365 H   0  0  0  0  0  0  0  0  0  0  0  0
    7.1207    0.0580   -0.1248 H   0  0  0  0  0  0  0  0  0  0  0  0
    3.8863    2.9014    0.3601 H   0  0  0  0  0  0  0  0  0  0  0  0
    5.3857    4.2096   -0.6418 H   0  0  0  0  0  0  0  0  0  0  0  0
    5.5704    4.1158    1.1654 H   0  0  0  0  0  0  0  0  0  0  0  0
    6.9061    4.6288    0.1400 H   0  0  0  0  0  0  0  0  0  0  0  0
  1 11  1  0  0  0  0
  1 14  1  0  0  0  0
  2 10  1  0  0  0  0
  2 15  1  0  0  0  0
  3 13  1  0  0  0  0
  3 17  1  0  0  0  0
  4 18  2  0  0  0  0
  5 27  1  0  0  0  0
  5 28  1  0  0  0  0
  6 12  1  0  0  0  0
  6 16  1  0  0  0  0
  6 37  1  0  0  0  0
  7 16  1  0  0  0  0
  7 19  2  0  0  0  0
  8 16  2  0  0  0  0
  8 20  1  0  0  0  0
  9 18  1  0  0  0  0
  9 42  1  0  0  0  0
  9 43  1  0  0  0  0
 10 11  1  0  0  0  0
 10 12  1  0  0  0  0
 10 29  1  0  0  0  0
 11 13  1  0  0  0  0
 11 30  1  0  0  0  0
 12 14  1  0  0  0  0
 12 31  1  0  0  0  0
 13 15  1  0  0  0  0
 13 32  1  0  0  0  0
 14 33  1  0  0  0  0
 14 34  1  0  0  0  0
 15 35  1  0  0  0  0
 15 36  1  0  0  0  0
 17 18  1  0  0  0  0
 17 38  1  0  0  0  0
 17 39  1  0  0  0  0
 19 21  1  0  0  0  0
 19 22  1  0  0  0  0
 20 21  2  0  0  0  0
 20 40  1  0  0  0  0
 21 41  1  0  0  0  0
 22 23  2  0  0  0  0
 22 24  1  0  0  0  0
 23 25  1  0  0  0  0
 23 44  1  0  0  0  0
 24 26  2  0  0  0  0
 24 45  1  0  0  0  0
 25 27  2  0  0  0  0
 25 46  1  0  0  0  0
 26 27  1  0  0  0  0
 26 47  1  0  0  0  0
 28 48  1  0  0  0  0
 28 49  1  0  0  0  0
 28 50  1  0  0  0  0
M  END
> <PUBCHEM_COMPOUND_CID>
11913153

> <PUBCHEM_CONFORMER_RMSD>
1

> <PUBCHEM_CONFORMER_DIVERSEORDER>
1
69
71
109
90
65
107
126
38
52
82
120
24
21
49
86
101
97
119
94
13
59
57
108
48
32
100
10
104
124
22
64
118
58
88
73
46
67
45
53
125
87
76
117
16
115
66
102
75
110
72
84
127
30
51
55
42
112
99
114
116
18
50
61
121
56
60
63
12
19
14
83
37
123
5
91
7
79
89
3
98
41
54
47
33
113
15
44
92
68
31
2
26
40
122
85
74
25
8
106
78
93
80
62
9
95
105
29
36
6
81
20
28
77
17
11
103
96
27
70
4
39
43
34
35
111
23

> <PUBCHEM_MMFF94_PARTIAL_CHARGES>
36
1 -0.56
10 0.28
11 0.28
12 0.37
13 0.28
14 0.28
15 0.28
16 0.72
17 0.34
18 0.57
19 0.31
2 -0.56
20 0.16
21 -0.15
23 -0.15
24 -0.15
25 -0.15
26 -0.15
27 0.08
28 0.28
3 -0.56
37 0.4
4 -0.57
40 0.15
41 0.15
42 0.37
43 0.37
44 0.15
45 0.15
46 0.15
47 0.15
5 -0.36
6 -0.87
7 -0.62
8 -0.62
9 -0.8

> <PUBCHEM_EFFECTIVE_ROTOR_COUNT>
8.2

> <PUBCHEM_PHARMACOPHORE_FEATURES>
13
1 1 acceptor
1 2 acceptor
1 3 acceptor
1 4 acceptor
1 5 acceptor
1 6 donor
1 7 acceptor
1 9 donor
4 6 7 8 16 cation
5 1 10 11 12 14 rings
5 2 10 11 13 15 rings
6 22 23 24 25 26 27 rings
6 7 8 16 19 20 21 rings

> <PUBCHEM_HEAVY_ATOM_COUNT>
28

> <PUBCHEM_ATOM_DEF_STEREO_COUNT>
4

> <PUBCHEM_ATOM_UDEF_STEREO_COUNT>
0

> <PUBCHEM_BOND_DEF_STEREO_COUNT>
0

> <PUBCHEM_BOND_UDEF_STEREO_COUNT>
0

> <PUBCHEM_ISOTOPIC_ATOM_COUNT>
0

> <PUBCHEM_COMPONENT_COUNT>
1

> <PUBCHEM_CACTVS_TAUTO_COUNT>
6

> <PUBCHEM_CONFORMER_ID>
00B5C7C100000001

> <PUBCHEM_MMFF94_ENERGY>
98.1545

> <PUBCHEM_FEATURE_SELFOVERLAP>
66.701

> <PUBCHEM_SHAPE_FINGERPRINT>
10 15 18186803590611781433
10165383 225 18187654596413070974
10670039 82 15841278034642233971
10835480 77 18189611649806661285
10904742 90 18412545440066244528
10939801 23 18341614863154767847
11273773 42 18200307844042985356
11273773 46 10519991473945552005
12144603 126 18130786747418545885
12730499 353 18335424534736886554
12788726 201 17203049556478568729
13533116 47 18042971973889674171
13885169 86 18338803428595771280
14114211 68 18338251418250509508
14251764 75 18338234985558227584
14394314 77 18341051925311028737
1454969 45 18201714047333811999
14565420 104 18334011696728818490
14790565 3 18410572907890678580
14840074 17 18201714042743686061
14849402 71 18335700491340219090
15183329 4 9655573003167728651
15188451 53 12685084900006421092
15419008 91 17749382613114744653
15475509 35 16226881130828383114
15475509 8 14189578520644775339
15685185 35 18195527223563232420
16126227 98 18268431411663486424
16760501 71 18410013225694686897
18393751 57 18114178678912946674
19319366 153 18342452621561972290
20465049 17 18269846337294647046
21033648 29 18267578186693330176
21315764 119 11815892353941583161
21365058 113 17554345622130066806
21987483 16 18113058247043454443
22224240 67 18259987089236745139
23522609 53 17774731874872466657
23845131 108 18261112993207037954
283562 15 17902219341680646530
3246875 12 18337392746365445099
3472631 163 18131071549813412324
38570 142 18342751710605427550
397830 11 18261399936393962691
4169191 19 18271246015987520817
4340502 62 18113904836235870803
437795 163 18340761659464334135
474 4 18409721842698292958
5104073 3 18119254965664685889
57307002 182 18262781996086217482
5912855 24 18271515477450425799
59682541 35 18187091684897785217
633830 44 18341606028253611502
6523845 18 18187656773776951974
6697151 62 17250303143399885071
7288768 16 18041555953421271642
7808743 9 18266452291070528144

> <PUBCHEM_SHAPE_MULTIPOLES>
526.96
18.67
3.85
1.05
18.22
0.84
-0.29
-15.06
5.27
-6.9
0.58
1.28
0.28
-0.48

> <PUBCHEM_SHAPE_SELFOVERLAP>
1141.396

> <PUBCHEM_SHAPE_VOLUME>
288.7

> <PUBCHEM_COORDINATE_TYPE>
2
5
10

$$$$
