75536952
  -OEChem-12032416303D

 35 37  0     1  0  0  0  0  0999 V2000
    3.2801    0.3314   -1.8159 O   0  0  0  0  0  0  0  0  0  0  0  0
    4.4355   -1.0751    1.2895 O   0  0  0  0  0  0  0  0  0  0  0  0
   -1.1034   -1.6211    0.3885 O   0  0  0  0  0  0  0  0  0  0  0  0
   -3.2781   -1.8559   -0.6228 O   0  0  0  0  0  0  0  0  0  0  0  0
    1.1436    0.4664    0.4519 N   0  0  2  0  0  0  0  0  0  0  0  0
    2.2852   -0.0067    1.2424 C   0  0  0  0  0  0  0  0  0  0  0  0
    3.6343   -0.1728    0.5252 C   0  0  2  0  0  0  0  0  0  0  0  0
    1.4830    1.4697   -0.5582 C   0  0  0  0  0  0  0  0  0  0  0  0
    0.0788    0.9375    1.3384 C   0  0  0  0  0  0  0  0  0  0  0  0
    3.5293   -0.7220   -0.8912 C   0  0  0  0  0  0  0  0  0  0  0  0
    1.9326    0.7807   -1.8472 C   0  0  0  0  0  0  0  0  0  0  0  0
   -1.2807    0.7925    0.7079 C   0  0  0  0  0  0  0  0  0  0  0  0
   -1.7594   -0.4327    0.2917 C   0  0  0  0  0  0  0  0  0  0  0  0
   -2.1033    1.9066    0.5237 C   0  0  0  0  0  0  0  0  0  0  0  0
   -3.0012   -0.5668   -0.2858 C   0  0  0  0  0  0  0  0  0  0  0  0
   -3.3720    1.7696   -0.0666 C   0  0  0  0  0  0  0  0  0  0  0  0
   -3.8329    0.5171   -0.4791 C   0  0  0  0  0  0  0  0  0  0  0  0
   -2.0714   -2.5183   -0.1926 C   0  0  0  0  0  0  0  0  0  0  0  0
    2.0057   -0.9697    1.6915 H   0  0  0  0  0  0  0  0  0  0  0  0
    2.4647    0.6669    2.0931 H   0  0  0  0  0  0  0  0  0  0  0  0
    4.1554    0.7923    0.5005 H   0  0  0  0  0  0  0  0  0  0  0  0
    2.2364    2.1764   -0.1898 H   0  0  0  0  0  0  0  0  0  0  0  0
    0.5984    2.0612   -0.8235 H   0  0  0  0  0  0  0  0  0  0  0  0
    0.2639    1.9689    1.6671 H   0  0  0  0  0  0  0  0  0  0  0  0
    0.0445    0.3359    2.2582 H   0  0  0  0  0  0  0  0  0  0  0  0
    4.4862   -1.1714   -1.1807 H   0  0  0  0  0  0  0  0  0  0  0  0
    2.7784   -1.5166   -0.9812 H   0  0  0  0  0  0  0  0  0  0  0  0
    1.2677   -0.0475   -2.1232 H   0  0  0  0  0  0  0  0  0  0  0  0
    1.8741    1.5089   -2.6641 H   0  0  0  0  0  0  0  0  0  0  0  0
   -1.7726    2.8950    0.8333 H   0  0  0  0  0  0  0  0  0  0  0  0
    4.5284   -0.6996    2.1818 H   0  0  0  0  0  0  0  0  0  0  0  0
   -3.9983    2.6470   -0.2025 H   0  0  0  0  0  0  0  0  0  0  0  0
   -4.8104    0.4073   -0.9348 H   0  0  0  0  0  0  0  0  0  0  0  0
   -2.3347   -3.2796    0.5507 H   0  0  0  0  0  0  0  0  0  0  0  0
   -1.6154   -3.0136   -1.0575 H   0  0  0  0  0  0  0  0  0  0  0  0
  1 10  1  0  0  0  0
  1 11  1  0  0  0  0
  2  7  1  0  0  0  0
  2 31  1  0  0  0  0
  3 13  1  0  0  0  0
  3 18  1  0  0  0  0
  4 15  1  0  0  0  0
  4 18  1  0  0  0  0
  5  6  1  0  0  0  0
  5  8  1  0  0  0  0
  5  9  1  0  0  0  0
  6  7  1  0  0  0  0
  6 19  1  0  0  0  0
  6 20  1  0  0  0  0
  7 10  1  0  0  0  0
  7 21  1  0  0  0  0
  8 11  1  0  0  0  0
  8 22  1  0  0  0  0
  8 23  1  0  0  0  0
  9 12  1  0  0  0  0
  9 24  1  0  0  0  0
  9 25  1  0  0  0  0
 10 26  1  0  0  0  0
 10 27  1  0  0  0  0
 11 28  1  0  0  0  0
 11 29  1  0  0  0  0
 12 13  2  0  0  0  0
 12 14  1  0  0  0  0
 13 15  1  0  0  0  0
 14 16  2  0  0  0  0
 14 30  1  0  0  0  0
 15 17  2  0  0  0  0
 16 17  1  0  0  0  0
 16 32  1  0  0  0  0
 17 33  1  0  0  0  0
 18 34  1  0  0  0  0
 18 35  1  0  0  0  0
M  END
> <PUBCHEM_COMPOUND_CID>
75536952

> <PUBCHEM_CONFORMER_RMSD>
0.6

> <PUBCHEM_CONFORMER_DIVERSEORDER>
1
72
54
73
53
67
56
11
70
26
18
52
61
64
5
27
59
13
14
15
16
40
7
63
36
62
66
48
35
2
71
9
6
46
30
22
65
57
12
60
51
45
55
68
8
4
32
37
43
49
19
3
29
17
39
20
31
47
10
25
58
21
42
69
24
23
28
50
44
33
38
41
34

> <PUBCHEM_MMFF94_PARTIAL_CHARGES>
22
1 -0.56
10 0.28
11 0.28
12 -0.14
13 0.08
14 -0.15
15 0.08
16 -0.15
17 -0.15
18 0.56
2 -0.68
3 -0.36
30 0.15
31 0.4
32 0.15
33 0.15
4 -0.36
5 -0.81
6 0.27
7 0.28
8 0.27
9 0.41

> <PUBCHEM_EFFECTIVE_ROTOR_COUNT>
4

> <PUBCHEM_PHARMACOPHORE_FEATURES>
9
1 1 acceptor
1 2 acceptor
1 2 donor
1 3 acceptor
1 4 acceptor
1 5 cation
5 3 4 13 15 18 rings
6 12 13 14 15 16 17 rings
7 1 5 6 7 8 10 11 rings

> <PUBCHEM_HEAVY_ATOM_COUNT>
18

> <PUBCHEM_ATOM_DEF_STEREO_COUNT>
1

> <PUBCHEM_ATOM_UDEF_STEREO_COUNT>
0

> <PUBCHEM_BOND_DEF_STEREO_COUNT>
0

> <PUBCHEM_BOND_UDEF_STEREO_COUNT>
0

> <PUBCHEM_ISOTOPIC_ATOM_COUNT>
0

> <PUBCHEM_COMPONENT_COUNT>
1

> <PUBCHEM_CACTVS_TAUTO_COUNT>
1

> <PUBCHEM_CONFORMER_ID>
04809A3800000001

> <PUBCHEM_MMFF94_ENERGY>
50.9439

> <PUBCHEM_FEATURE_SELFOVERLAP>
45.827

> <PUBCHEM_SHAPE_FINGERPRINT>
10062212 137 18260543403185976435
11471102 22 15698002907867804224
11578080 2 17752452517534580844
11582403 64 15830220164165315232
12202030 40 17274550935108295533
12236239 1 17967811622013850080
12346177 29 18343576335271984367
12363563 72 17561370603307817493
12592029 89 18042415642538235299
13134695 92 16298379155077874814
13296908 3 17275111625887865612
13693222 15 14979959146777384688
14115302 16 18410292514680951225
14341114 328 11312052175303896358
14386348 63 17418376891401552166
15207287 21 17489577953007148733
15375358 24 17489299772317813864
16752209 62 18410565202534363035
16945 1 18343025484521231521
17834072 14 17846493729698160968
17870717 6 18130802117856252366
18981168 100 14418417762182486148
19862831 5 18040435511800436493
19868273 293 18334297548145133029
20279233 1 17632295661898955778
20600515 1 18201714016431167648
20645476 183 18040151803926184771
20645477 70 15913326836771564036
21486144 27 15068631508182931920
23184049 29 18269832189028405961
232386 152 18412819213855149200
23402539 116 18129365052138588229
23557571 272 18200873001540998905
23559900 14 18059575746546495776
23598291 2 17894630352898847596
25 1 15647054854593232952
2748010 2 17982154923692939219
3082319 5 17968099758542742028
74978 22 18335988648257179644
77492 1 17967533467094325392
81228 2 17058672684519419960
9709674 26 17988921175983679734
9882013 296 12247677166948678468

> <PUBCHEM_SHAPE_MULTIPOLES>
341.97
7.61
2.04
1.4
3.32
0.75
0.32
1.14
0.74
-2.03
0.04
1.52
-0.21
-0.65

> <PUBCHEM_SHAPE_SELFOVERLAP>
729.223

> <PUBCHEM_SHAPE_VOLUME>
188.5

> <PUBCHEM_COORDINATE_TYPE>
2
5
10

$$$$
