38029028
  -OEChem-12032416243D

 77 80  0     1  0  0  0  0  0999 V2000
   -1.0391   -3.9315    1.0143 O   0  0  0  0  0  0  0  0  0  0  0  0
   -1.7229    2.6061   -2.0764 O   0  0  0  0  0  0  0  0  0  0  0  0
    0.8560    2.6160   -1.4407 O   0  0  0  0  0  0  0  0  0  0  0  0
   -3.0858    1.9833   -0.3042 N   0  0  0  0  0  0  0  0  0  0  0  0
    0.6157   -2.3001    1.0027 N   0  0  0  0  0  0  0  0  0  0  0  0
    3.2920   -1.4024    0.3609 N   0  0  0  0  0  0  0  0  0  0  0  0
    5.3321   -0.3841    0.9756 N   0  0  0  0  0  0  0  0  0  0  0  0
   -3.0681   -0.9105   -1.1222 C   0  0  1  0  0  0  0  0  0  0  0  0
   -4.3148   -0.0807   -0.7261 C   0  0  1  0  0  0  0  0  0  0  0  0
   -3.0729   -2.2649   -0.3971 C   0  0  0  0  0  0  0  0  0  0  0  0
   -3.0864   -2.1054    1.1350 C   0  0  2  0  0  0  0  0  0  0  0  0
   -2.9903   -1.1329   -2.6359 C   0  0  0  0  0  0  0  0  0  0  0  0
   -4.1188   -1.0925    1.5865 C   0  0  0  0  0  0  0  0  0  0  0  0
   -4.6666   -0.2044    0.7379 C   0  0  0  0  0  0  0  0  0  0  0  0
   -1.6945   -1.7439    1.6650 C   0  0  0  0  0  0  0  0  0  0  0  0
   -4.1313    1.3985   -1.0839 C   0  0  0  0  0  0  0  0  0  0  0  0
   -1.5485   -1.3898   -3.0626 C   0  0  0  0  0  0  0  0  0  0  0  0
   -3.8917   -2.2914   -3.0504 C   0  0  0  0  0  0  0  0  0  0  0  0
   -4.5418   -1.1533    3.0279 C   0  0  0  0  0  0  0  0  0  0  0  0
   -0.6858   -2.7642    1.1970 C   0  0  0  0  0  0  0  0  0  0  0  0
    1.6513   -3.2278    0.5549 C   0  0  0  0  0  0  0  0  0  0  0  0
    1.0311   -0.9110    1.2097 C   0  0  0  0  0  0  0  0  0  0  0  0
    2.6868   -2.5423   -0.3337 C   0  0  0  0  0  0  0  0  0  0  0  0
    2.5352   -0.7718    1.4454 C   0  0  0  0  0  0  0  0  0  0  0  0
   -1.9444    2.5508   -0.8697 C   0  0  0  0  0  0  0  0  0  0  0  0
    4.5668   -0.9571    0.0199 C   0  0  0  0  0  0  0  0  0  0  0  0
   -0.9378    3.0936    0.0786 C   0  0  0  0  0  0  0  0  0  0  0  0
    4.9696   -1.1338   -1.2940 C   0  0  0  0  0  0  0  0  0  0  0  0
    0.4187    3.1042   -0.2457 C   0  0  0  0  0  0  0  0  0  0  0  0
   -1.3650    3.5955    1.3079 C   0  0  0  0  0  0  0  0  0  0  0  0
    6.2400   -0.6942   -1.6498 C   0  0  0  0  0  0  0  0  0  0  0  0
    1.3482    3.6168    0.6592 C   0  0  0  0  0  0  0  0  0  0  0  0
    6.5604    0.0308    0.5927 C   0  0  0  0  0  0  0  0  0  0  0  0
   -0.4354    4.1081    2.2129 C   0  0  0  0  0  0  0  0  0  0  0  0
    7.0568   -0.0998   -0.6943 C   0  0  0  0  0  0  0  0  0  0  0  0
    0.9212    4.1188    1.8886 C   0  0  0  0  0  0  0  0  0  0  0  0
    2.2599    2.6677   -1.6862 C   0  0  0  0  0  0  0  0  0  0  0  0
   -2.1672   -0.3687   -0.8092 H   0  0  0  0  0  0  0  0  0  0  0  0
   -5.1887   -0.4438   -1.2816 H   0  0  0  0  0  0  0  0  0  0  0  0
   -2.2525   -2.8955   -0.7451 H   0  0  0  0  0  0  0  0  0  0  0  0
   -3.9927   -2.8162   -0.6357 H   0  0  0  0  0  0  0  0  0  0  0  0
   -3.3763   -3.0819    1.5487 H   0  0  0  0  0  0  0  0  0  0  0  0
   -3.3221   -0.2372   -3.1709 H   0  0  0  0  0  0  0  0  0  0  0  0
   -5.4381    0.4684    1.1074 H   0  0  0  0  0  0  0  0  0  0  0  0
   -1.6744   -1.7418    2.7607 H   0  0  0  0  0  0  0  0  0  0  0  0
   -1.4437   -0.7362    1.3246 H   0  0  0  0  0  0  0  0  0  0  0  0
   -5.0451    1.9584   -0.8505 H   0  0  0  0  0  0  0  0  0  0  0  0
   -3.9438    1.5406   -2.1516 H   0  0  0  0  0  0  0  0  0  0  0  0
   -1.1324   -2.2930   -2.6058 H   0  0  0  0  0  0  0  0  0  0  0  0
   -0.9041   -0.5462   -2.7915 H   0  0  0  0  0  0  0  0  0  0  0  0
   -1.4876   -1.5131   -4.1495 H   0  0  0  0  0  0  0  0  0  0  0  0
   -3.4975   -3.2705   -2.7589 H   0  0  0  0  0  0  0  0  0  0  0  0
   -3.9661   -2.3150   -4.1447 H   0  0  0  0  0  0  0  0  0  0  0  0
   -4.9138   -2.1872   -2.6744 H   0  0  0  0  0  0  0  0  0  0  0  0
   -4.9111   -2.1542    3.2737 H   0  0  0  0  0  0  0  0  0  0  0  0
   -5.3438   -0.4421    3.2529 H   0  0  0  0  0  0  0  0  0  0  0  0
   -3.7009   -0.9198    3.6878 H   0  0  0  0  0  0  0  0  0  0  0  0
   -3.1959    1.9667    0.7038 H   0  0  0  0  0  0  0  0  0  0  0  0
    1.1971   -4.0696    0.0215 H   0  0  0  0  0  0  0  0  0  0  0  0
    2.1272   -3.6312    1.4573 H   0  0  0  0  0  0  0  0  0  0  0  0
    0.5049   -0.4866    2.0701 H   0  0  0  0  0  0  0  0  0  0  0  0
    0.7313   -0.3518    0.3151 H   0  0  0  0  0  0  0  0  0  0  0  0
    3.4446   -3.2894   -0.5999 H   0  0  0  0  0  0  0  0  0  0  0  0
    2.2053   -2.1934   -1.2557 H   0  0  0  0  0  0  0  0  0  0  0  0
    2.7754    0.2960    1.5170 H   0  0  0  0  0  0  0  0  0  0  0  0
    2.8148   -1.2418    2.3961 H   0  0  0  0  0  0  0  0  0  0  0  0
    4.3417   -1.5762   -2.0594 H   0  0  0  0  0  0  0  0  0  0  0  0
   -2.4138    3.6356    1.5868 H   0  0  0  0  0  0  0  0  0  0  0  0
    6.5914   -0.8100   -2.6706 H   0  0  0  0  0  0  0  0  0  0  0  0
    2.4167    3.6572    0.4782 H   0  0  0  0  0  0  0  0  0  0  0  0
    7.1577    0.4879    1.3746 H   0  0  0  0  0  0  0  0  0  0  0  0
   -0.7681    4.5056    3.1674 H   0  0  0  0  0  0  0  0  0  0  0  0
    8.0500    0.2514   -0.9492 H   0  0  0  0  0  0  0  0  0  0  0  0
    1.6439    4.5193    2.5937 H   0  0  0  0  0  0  0  0  0  0  0  0
    2.4284    2.2394   -2.6799 H   0  0  0  0  0  0  0  0  0  0  0  0
    2.8170    2.0466   -0.9762 H   0  0  0  0  0  0  0  0  0  0  0  0
    2.6274    3.6989   -1.7189 H   0  0  0  0  0  0  0  0  0  0  0  0
  1 20  2  0  0  0  0
  2 25  2  0  0  0  0
  3 29  1  0  0  0  0
  3 37  1  0  0  0  0
  4 16  1  0  0  0  0
  4 25  1  0  0  0  0
  4 58  1  0  0  0  0
  5 20  1  0  0  0  0
  5 21  1  0  0  0  0
  5 22  1  0  0  0  0
  6 23  1  0  0  0  0
  6 24  1  0  0  0  0
  6 26  1  0  0  0  0
  7 26  1  0  0  0  0
  7 33  2  0  0  0  0
  8  9  1  0  0  0  0
  8 10  1  0  0  0  0
  8 12  1  0  0  0  0
  8 38  1  0  0  0  0
  9 14  1  0  0  0  0
  9 16  1  0  0  0  0
  9 39  1  0  0  0  0
 10 11  1  0  0  0  0
 10 40  1  0  0  0  0
 10 41  1  0  0  0  0
 11 13  1  0  0  0  0
 11 15  1  0  0  0  0
 11 42  1  0  0  0  0
 12 17  1  0  0  0  0
 12 18  1  0  0  0  0
 12 43  1  0  0  0  0
 13 14  2  0  0  0  0
 13 19  1  0  0  0  0
 14 44  1  0  0  0  0
 15 20  1  0  0  0  0
 15 45  1  0  0  0  0
 15 46  1  0  0  0  0
 16 47  1  0  0  0  0
 16 48  1  0  0  0  0
 17 49  1  0  0  0  0
 17 50  1  0  0  0  0
 17 51  1  0  0  0  0
 18 52  1  0  0  0  0
 18 53  1  0  0  0  0
 18 54  1  0  0  0  0
 19 55  1  0  0  0  0
 19 56  1  0  0  0  0
 19 57  1  0  0  0  0
 21 23  1  0  0  0  0
 21 59  1  0  0  0  0
 21 60  1  0  0  0  0
 22 24  1  0  0  0  0
 22 61  1  0  0  0  0
 22 62  1  0  0  0  0
 23 63  1  0  0  0  0
 23 64  1  0  0  0  0
 24 65  1  0  0  0  0
 24 66  1  0  0  0  0
 25 27  1  0  0  0  0
 26 28  2  0  0  0  0
 27 29  1  0  0  0  0
 27 30  2  0  0  0  0
 28 31  1  0  0  0  0
 28 67  1  0  0  0  0
 29 32  2  0  0  0  0
 30 34  1  0  0  0  0
 30 68  1  0  0  0  0
 31 35  2  0  0  0  0
 31 69  1  0  0  0  0
 32 36  1  0  0  0  0
 32 70  1  0  0  0  0
 33 35  1  0  0  0  0
 33 71  1  0  0  0  0
 34 36  2  0  0  0  0
 34 72  1  0  0  0  0
 35 73  1  0  0  0  0
 36 74  1  0  0  0  0
 37 75  1  0  0  0  0
 37 76  1  0  0  0  0
 37 77  1  0  0  0  0
M  END
> <PUBCHEM_COMPOUND_CID>
38029028

> <PUBCHEM_CONFORMER_RMSD>
1.2

> <PUBCHEM_CONFORMER_DIVERSEORDER>
1
18
67
125
132
126
158
52
110
13
157
106
20
76
74
72
108
121
107
131
12
136
98
87
75
42
66
104
81
124
49
144
29
71
135
91
26
95
160
37
79
153
35
105
113
58
89
130
61
94
51
154
41
63
55
120
17
102
64
88
92
21
119
38
161
147
103
73
36
112
90
47
16
96
134
123
40
39
141
111
70
93
19
159
6
118
57
46
122
140
43
142
133
78
100
152
117
44
85
11
86
59
31
155
48
65
149
156
34
82
50
137
115
2
15
45
3
14
114
101
84
33
77
56
22
60
99
23
30
109
28
32
68
116
128
80
129
97
4
25
27
54
148
143
62
138
24
139
53
69
145
146
5
151
9
8
150
7
83
127
10

> <PUBCHEM_MMFF94_PARTIAL_CHARGES>
42
1 -0.57
11 0.14
13 -0.28
14 -0.29
15 0.06
16 0.3
19 0.14
2 -0.57
20 0.57
21 0.3
22 0.3
23 0.37
24 0.37
25 0.54
26 0.41
27 0.09
28 -0.15
29 0.08
3 -0.36
30 -0.15
31 -0.15
32 -0.15
33 0.16
34 -0.15
35 -0.15
36 -0.15
37 0.28
4 -0.73
44 0.15
5 -0.66
58 0.37
6 -0.84
67 0.15
68 0.15
69 0.15
7 -0.62
70 0.15
71 0.15
72 0.15
73 0.15
74 0.15
9 0.14

> <PUBCHEM_EFFECTIVE_ROTOR_COUNT>
12

> <PUBCHEM_PHARMACOPHORE_FEATURES>
11
1 1 acceptor
1 2 acceptor
1 3 acceptor
1 4 donor
1 6 cation
1 7 acceptor
3 12 17 18 hydrophobe
6 27 29 30 32 34 36 rings
6 5 6 21 22 23 24 rings
6 7 26 28 31 33 35 rings
6 8 9 10 11 13 14 rings

> <PUBCHEM_HEAVY_ATOM_COUNT>
37

> <PUBCHEM_ATOM_DEF_STEREO_COUNT>
3

> <PUBCHEM_ATOM_UDEF_STEREO_COUNT>
0

> <PUBCHEM_BOND_DEF_STEREO_COUNT>
0

> <PUBCHEM_BOND_UDEF_STEREO_COUNT>
0

> <PUBCHEM_ISOTOPIC_ATOM_COUNT>
0

> <PUBCHEM_COMPONENT_COUNT>
1

> <PUBCHEM_CACTVS_TAUTO_COUNT>
2

> <PUBCHEM_CONFORMER_ID>
024446E400000001

> <PUBCHEM_MMFF94_ENERGY>
115.9735

> <PUBCHEM_FEATURE_SELFOVERLAP>
55.831

> <PUBCHEM_SHAPE_FINGERPRINT>
10006869 2 17978793407382880803
10032420 55 17972005138029990861
10675989 125 16671880797817061677
11513181 2 17768229555904437000
12156800 1 17475006018394073749
12355185 1 18342178915969928788
12788726 201 18339357440521179330
13615921 28 18409730694256261733
13947920 24 18334580101158486216
14114206 34 18188750782902742709
14279260 333 18265049129666872182
150020 26 17684953665944483448
161222 10 17976284360466422844
161222 619 17841961629280420576
19319366 153 17901939751987876115
20764821 26 18262240052738290358
20775438 99 17189499480184449383
20775530 9 18335697264886155184
238918 7 17691668400888966304
35225 105 17329679065340635661
463206 1 18340485680963840220
469060 322 16226629406303861295
50150288 127 17199394685301774016
5171179 24 18198608016272822768

> <PUBCHEM_SHAPE_MULTIPOLES>
723.91
12.07
5.64
2.78
19.43
5.54
-0.94
-6.07
-2.05
-1.04
1.68
-2.96
-0.64
0.06

> <PUBCHEM_SHAPE_SELFOVERLAP>
1526.215

> <PUBCHEM_SHAPE_VOLUME>
402.7

> <PUBCHEM_COORDINATE_TYPE>
2
5
10

$$$$
