7674043
  -OEChem-12032416133D

 56 58  0     1  0  0  0  0  0999 V2000
    1.9609    1.1632   -1.6345 S   0  0  0  0  0  0  0  0  0  0  0  0
    6.3473    0.9674    2.2986 F   0  0  0  0  0  0  0  0  0  0  0  0
   -1.5583   -0.1179   -1.6156 O   0  0  0  0  0  0  0  0  0  0  0  0
    1.2070    2.3758   -1.3957 O   0  0  0  0  0  0  0  0  0  0  0  0
    2.5201    0.8787   -2.9392 O   0  0  0  0  0  0  0  0  0  0  0  0
   -1.7187   -3.2930    1.6847 O   0  0  0  0  0  0  0  0  0  0  0  0
   -2.2597    4.0041    0.2282 O   0  0  0  0  0  0  0  0  0  0  0  0
   -2.0054   -5.5287    0.5206 O   0  0  0  0  0  0  0  0  0  0  0  0
    1.0368   -0.1808   -1.1200 N   0  0  2  0  0  0  0  0  0  0  0  0
   -0.1299   -2.4406    0.2151 N   0  0  0  0  0  0  0  0  0  0  0  0
   -1.8844    1.2971    0.2039 N   0  0  0  0  0  0  0  0  0  0  0  0
   -4.5041    3.7498    0.5688 N   0  0  0  0  0  0  0  0  0  0  0  0
    0.1401    0.0325    0.0506 C   0  0  2  0  0  0  0  0  0  0  0  0
    0.0343   -1.1904    0.9584 C   0  0  0  0  0  0  0  0  0  0  0  0
    1.7273   -1.4963   -1.1429 C   0  0  0  0  0  0  0  0  0  0  0  0
    0.6951   -2.6044   -0.9849 C   0  0  0  0  0  0  0  0  0  0  0  0
   -1.1844    0.3742   -0.5543 C   0  0  0  0  0  0  0  0  0  0  0  0
   -3.1769    1.8076   -0.1727 C   0  0  1  0  0  0  0  0  0  0  0  0
   -4.2898    0.9332    0.3880 C   0  0  0  0  0  0  0  0  0  0  0  0
   -5.6354    1.5897    0.1256 C   0  0  0  0  0  0  0  0  0  0  0  0
   -1.0175   -3.4139    0.6779 C   0  0  0  0  0  0  0  0  0  0  0  0
    3.2747    1.1045   -0.4564 C   0  0  0  0  0  0  0  0  0  0  0  0
   -3.2485    3.2685    0.2579 C   0  0  0  0  0  0  0  0  0  0  0  0
   -5.6765    2.9343    0.8269 C   0  0  0  0  0  0  0  0  0  0  0  0
   -1.0906   -4.6843   -0.1348 C   0  0  0  0  0  0  0  0  0  0  0  0
    4.4247    0.3643   -0.7306 C   0  0  0  0  0  0  0  0  0  0  0  0
    3.1625    1.7984    0.7485 C   0  0  0  0  0  0  0  0  0  0  0  0
    5.4626    0.3180    0.2000 C   0  0  0  0  0  0  0  0  0  0  0  0
    4.2004    1.7520    1.6790 C   0  0  0  0  0  0  0  0  0  0  0  0
    5.3506    1.0118    1.4049 C   0  0  0  0  0  0  0  0  0  0  0  0
   -2.1644   -6.7746   -0.1559 C   0  0  0  0  0  0  0  0  0  0  0  0
    0.4928    0.8688    0.6608 H   0  0  0  0  0  0  0  0  0  0  0  0
    0.9554   -1.3008    1.5445 H   0  0  0  0  0  0  0  0  0  0  0  0
   -0.7840   -1.0680    1.6766 H   0  0  0  0  0  0  0  0  0  0  0  0
    2.2487   -1.6353   -2.0952 H   0  0  0  0  0  0  0  0  0  0  0  0
    2.4566   -1.5621   -0.3293 H   0  0  0  0  0  0  0  0  0  0  0  0
    0.0148   -2.6195   -1.8446 H   0  0  0  0  0  0  0  0  0  0  0  0
    1.2019   -3.5734   -0.9437 H   0  0  0  0  0  0  0  0  0  0  0  0
   -3.2444    1.8073   -1.2687 H   0  0  0  0  0  0  0  0  0  0  0  0
   -4.2614   -0.0599   -0.0761 H   0  0  0  0  0  0  0  0  0  0  0  0
   -4.1543    0.7808    1.4669 H   0  0  0  0  0  0  0  0  0  0  0  0
   -1.4898    1.6135    1.0853 H   0  0  0  0  0  0  0  0  0  0  0  0
   -6.4500    0.9529    0.4869 H   0  0  0  0  0  0  0  0  0  0  0  0
   -5.7787    1.7235   -0.9537 H   0  0  0  0  0  0  0  0  0  0  0  0
   -6.5560    3.5074    0.5176 H   0  0  0  0  0  0  0  0  0  0  0  0
   -5.7306    2.7972    1.9127 H   0  0  0  0  0  0  0  0  0  0  0  0
   -4.5725    4.7359    0.8011 H   0  0  0  0  0  0  0  0  0  0  0  0
   -1.4420   -4.4533   -1.1454 H   0  0  0  0  0  0  0  0  0  0  0  0
   -0.1068   -5.1622   -0.1634 H   0  0  0  0  0  0  0  0  0  0  0  0
    4.5335   -0.1854   -1.6612 H   0  0  0  0  0  0  0  0  0  0  0  0
    2.2799    2.3860    0.9835 H   0  0  0  0  0  0  0  0  0  0  0  0
    6.3579   -0.2587   -0.0127 H   0  0  0  0  0  0  0  0  0  0  0  0
    4.1142    2.2928    2.6168 H   0  0  0  0  0  0  0  0  0  0  0  0
   -2.5492   -6.6122   -1.1673 H   0  0  0  0  0  0  0  0  0  0  0  0
   -1.2115   -7.3110   -0.1950 H   0  0  0  0  0  0  0  0  0  0  0  0
   -2.8851   -7.3781    0.4020 H   0  0  0  0  0  0  0  0  0  0  0  0
  1  4  2  0  0  0  0
  1  5  2  0  0  0  0
  1  9  1  0  0  0  0
  1 22  1  0  0  0  0
  2 30  1  0  0  0  0
  3 17  2  0  0  0  0
  6 21  2  0  0  0  0
  7 23  2  0  0  0  0
  8 25  1  0  0  0  0
  8 31  1  0  0  0  0
  9 13  1  0  0  0  0
  9 15  1  0  0  0  0
 10 14  1  0  0  0  0
 10 16  1  0  0  0  0
 10 21  1  0  0  0  0
 11 17  1  0  0  0  0
 11 18  1  0  0  0  0
 11 42  1  0  0  0  0
 12 23  1  0  0  0  0
 12 24  1  0  0  0  0
 12 47  1  0  0  0  0
 13 14  1  0  0  0  0
 13 17  1  0  0  0  0
 13 32  1  0  0  0  0
 14 33  1  0  0  0  0
 14 34  1  0  0  0  0
 15 16  1  0  0  0  0
 15 35  1  0  0  0  0
 15 36  1  0  0  0  0
 16 37  1  0  0  0  0
 16 38  1  0  0  0  0
 18 19  1  0  0  0  0
 18 23  1  0  0  0  0
 18 39  1  0  0  0  0
 19 20  1  0  0  0  0
 19 40  1  0  0  0  0
 19 41  1  0  0  0  0
 20 24  1  0  0  0  0
 20 43  1  0  0  0  0
 20 44  1  0  0  0  0
 21 25  1  0  0  0  0
 22 26  2  0  0  0  0
 22 27  1  0  0  0  0
 24 45  1  0  0  0  0
 24 46  1  0  0  0  0
 25 48  1  0  0  0  0
 25 49  1  0  0  0  0
 26 28  1  0  0  0  0
 26 50  1  0  0  0  0
 27 29  2  0  0  0  0
 27 51  1  0  0  0  0
 28 30  2  0  0  0  0
 28 52  1  0  0  0  0
 29 30  1  0  0  0  0
 29 53  1  0  0  0  0
 31 54  1  0  0  0  0
 31 55  1  0  0  0  0
 31 56  1  0  0  0  0
M  END
> <PUBCHEM_COMPOUND_CID>
7674043

> <PUBCHEM_CONFORMER_RMSD>
1

> <PUBCHEM_CONFORMER_DIVERSEORDER>
1
59
34
68
145
30
120
15
100
102
144
115
132
140
41
82
124
125
83
57
16
117
46
80
129
135
130
99
71
79
19
49
37
133
109
52
43
70
84
108
104
69
116
93
76
29
27
114
61
123
31
21
96
50
95
98
75
90
48
97
88
72
105
143
17
127
122
87
38
20
110
85
2
113
65
111
119
131
138
45
147
66
25
146
35
32
101
53
12
103
62
141
60
7
10
51
81
73
23
107
91
39
126
64
56
28
63
136
9
118
14
78
54
139
55
142
42
47
6
74
92
33
134
44
77
8
137
67
22
121
86
89
106
3
13
18
36
11
128
58
4
40
112
5
94
24
26

> <PUBCHEM_MMFF94_PARTIAL_CHARGES>
35
1 1.45
10 -0.66
11 -0.73
12 -0.73
13 0.42
14 0.3
15 0.36
16 0.3
17 0.57
18 0.36
2 -0.19
21 0.57
22 -0.01
23 0.57
24 0.3
25 0.34
26 -0.15
27 -0.15
28 -0.15
29 -0.15
3 -0.57
30 0.19
31 0.28
4 -0.65
42 0.37
47 0.37
5 -0.65
50 0.15
51 0.15
52 0.15
53 0.15
6 -0.57
7 -0.57
8 -0.56
9 -0.85

> <PUBCHEM_EFFECTIVE_ROTOR_COUNT>
10.2

> <PUBCHEM_PHARMACOPHORE_FEATURES>
11
1 11 donor
1 12 donor
1 3 acceptor
1 4 acceptor
1 5 acceptor
1 6 acceptor
1 7 acceptor
1 8 acceptor
6 12 18 19 20 23 24 rings
6 22 26 27 28 29 30 rings
6 9 10 13 14 15 16 rings

> <PUBCHEM_HEAVY_ATOM_COUNT>
31

> <PUBCHEM_ATOM_DEF_STEREO_COUNT>
2

> <PUBCHEM_ATOM_UDEF_STEREO_COUNT>
0

> <PUBCHEM_BOND_DEF_STEREO_COUNT>
0

> <PUBCHEM_BOND_UDEF_STEREO_COUNT>
0

> <PUBCHEM_ISOTOPIC_ATOM_COUNT>
0

> <PUBCHEM_COMPONENT_COUNT>
1

> <PUBCHEM_CACTVS_TAUTO_COUNT>
4

> <PUBCHEM_CONFORMER_ID>
007518BB00000001

> <PUBCHEM_MMFF94_ENERGY>
61.6153

> <PUBCHEM_FEATURE_SELFOVERLAP>
55.859

> <PUBCHEM_SHAPE_FINGERPRINT>
10074138 170 18266442377484383594
10692045 39 18197204859732807322
11582403 64 17845926347375537420
12160290 23 17969515972754152119
12633257 1 16950857928727360433
12788726 201 17755883143898979550
13692114 37 18411702106168906831
13955234 65 17907868306000311739
14178342 30 18335979887257008422
14955137 171 17690840060421589674
15347590 135 18201165382405357289
15420108 30 18262790766319621747
15927050 60 18410576154659562278
16728300 4 17024849486572328216
17818456 19 18189899892849645630
17980427 26 18052804862994127022
19301679 30 18120939670771668042
19319366 153 18270396063143477503
20739085 24 17898577471062933956
21033648 29 18341052934833669232
21304303 282 18269254868447170207
22149856 69 18048347495672065561
23559900 14 17900838050153840277
244849 19 17774178880447366342
345986 75 17611166540464807986
4340502 62 18411144597896442161
5104073 3 18124045529337828393
59755656 520 18410568466440359372
6442390 28 18338520746411133233
6691757 9 18264463179941307280
6695519 79 18126592066991632651
79837 15 18410291440849586411
9658208 31 18341062851849410518
9777508 108 18411707616057942627
9981440 41 17917416662449585246

> <PUBCHEM_SHAPE_MULTIPOLES>
579.4
11.12
7.31
1.67
3.34
15.99
0.37
-13.3
-5.07
-11.36
-1.39
2.27
-0.42
0.53

> <PUBCHEM_SHAPE_SELFOVERLAP>
1199.808

> <PUBCHEM_SHAPE_VOLUME>
331.5

> <PUBCHEM_COORDINATE_TYPE>
2
5
10

$$$$
