75536741
  -OEChem-12032416303D

 44 45  0     1  0  0  0  0  0999 V2000
   -6.0954    1.6175   -0.1305 S   0  0  0  0  0  0  0  0  0  0  0  0
    0.5720    1.1186   -0.4094 O   0  0  0  0  0  0  0  0  0  0  0  0
   -0.3913   -2.2169    0.5136 O   0  0  0  0  0  0  0  0  0  0  0  0
    4.1891   -1.3394    0.5768 O   0  0  0  0  0  0  0  0  0  0  0  0
   -2.7781   -0.2539   -0.0572 N   0  0  0  0  0  0  0  0  0  0  0  0
    3.1590    0.0128   -1.0066 N   0  0  0  0  0  0  0  0  0  0  0  0
    5.2629    0.5538   -0.2271 N   0  0  0  0  0  0  0  0  0  0  0  0
   -1.3949   -0.0006    0.3120 C   0  0  1  0  0  0  0  0  0  0  0  0
   -0.4196   -1.0222   -0.2429 C   0  0  1  0  0  0  0  0  0  0  0  0
    0.8934   -0.2572   -0.1453 C   0  0  1  0  0  0  0  0  0  0  0  0
   -0.8506    1.2883   -0.2819 C   0  0  0  0  0  0  0  0  0  0  0  0
    1.9429   -0.7377   -1.1318 C   0  0  0  0  0  0  0  0  0  0  0  0
   -3.6926    0.5355    0.7592 C   0  0  0  0  0  0  0  0  0  0  0  0
   -5.1300    0.2983    0.3795 C   0  0  0  0  0  0  0  0  0  0  0  0
    4.2043   -0.3478   -0.1513 C   0  0  0  0  0  0  0  0  0  0  0  0
    6.4684    0.4128    0.5550 C   0  0  0  0  0  0  0  0  0  0  0  0
   -5.8324   -0.8867    0.3792 C   0  0  0  0  0  0  0  0  0  0  0  0
    7.0468    1.7820    0.8877 C   0  0  0  0  0  0  0  0  0  0  0  0
    7.4846   -0.4521   -0.1802 C   0  0  0  0  0  0  0  0  0  0  0  0
   -7.1807   -0.7094   -0.0455 C   0  0  0  0  0  0  0  0  0  0  0  0
   -7.4577    0.6043   -0.3535 C   0  0  0  0  0  0  0  0  0  0  0  0
   -1.2904    0.0099    1.4062 H   0  0  0  0  0  0  0  0  0  0  0  0
   -0.6570   -1.2692   -1.2852 H   0  0  0  0  0  0  0  0  0  0  0  0
    1.2978   -0.3082    0.8742 H   0  0  0  0  0  0  0  0  0  0  0  0
   -1.2436    1.4830   -1.2865 H   0  0  0  0  0  0  0  0  0  0  0  0
   -1.0558    2.1621    0.3439 H   0  0  0  0  0  0  0  0  0  0  0  0
    1.5983   -0.5942   -2.1617 H   0  0  0  0  0  0  0  0  0  0  0  0
    2.1570   -1.8010   -0.9808 H   0  0  0  0  0  0  0  0  0  0  0  0
   -2.9807   -1.2447    0.0791 H   0  0  0  0  0  0  0  0  0  0  0  0
   -3.4534    1.6021    0.6686 H   0  0  0  0  0  0  0  0  0  0  0  0
   -3.5793    0.2703    1.8186 H   0  0  0  0  0  0  0  0  0  0  0  0
   -0.1819   -1.9903    1.4355 H   0  0  0  0  0  0  0  0  0  0  0  0
    3.2594    0.8591   -1.5586 H   0  0  0  0  0  0  0  0  0  0  0  0
    5.2130    1.2998   -0.9145 H   0  0  0  0  0  0  0  0  0  0  0  0
    6.2081   -0.0887    1.4950 H   0  0  0  0  0  0  0  0  0  0  0  0
   -5.4057   -1.8380    0.6709 H   0  0  0  0  0  0  0  0  0  0  0  0
    7.9421    1.6882    1.5111 H   0  0  0  0  0  0  0  0  0  0  0  0
    6.3163    2.3898    1.4329 H   0  0  0  0  0  0  0  0  0  0  0  0
    7.3195    2.3309   -0.0207 H   0  0  0  0  0  0  0  0  0  0  0  0
    8.3943   -0.5797    0.4157 H   0  0  0  0  0  0  0  0  0  0  0  0
    7.0754   -1.4468   -0.3882 H   0  0  0  0  0  0  0  0  0  0  0  0
    7.7651   -0.0049   -1.1405 H   0  0  0  0  0  0  0  0  0  0  0  0
   -7.9107   -1.5049   -0.1207 H   0  0  0  0  0  0  0  0  0  0  0  0
   -8.3949    1.0176   -0.6987 H   0  0  0  0  0  0  0  0  0  0  0  0
  1 14  1  0  0  0  0
  1 21  1  0  0  0  0
  2 10  1  0  0  0  0
  2 11  1  0  0  0  0
  3  9  1  0  0  0  0
  3 32  1  0  0  0  0
  4 15  2  0  0  0  0
  5  8  1  0  0  0  0
  5 13  1  0  0  0  0
  5 29  1  0  0  0  0
  6 12  1  0  0  0  0
  6 15  1  0  0  0  0
  6 33  1  0  0  0  0
  7 15  1  0  0  0  0
  7 16  1  0  0  0  0
  7 34  1  0  0  0  0
  8  9  1  0  0  0  0
  8 11  1  0  0  0  0
  8 22  1  0  0  0  0
  9 10  1  0  0  0  0
  9 23  1  0  0  0  0
 10 12  1  0  0  0  0
 10 24  1  0  0  0  0
 11 25  1  0  0  0  0
 11 26  1  0  0  0  0
 12 27  1  0  0  0  0
 12 28  1  0  0  0  0
 13 14  1  0  0  0  0
 13 30  1  0  0  0  0
 13 31  1  0  0  0  0
 14 17  2  0  0  0  0
 16 18  1  0  0  0  0
 16 19  1  0  0  0  0
 16 35  1  0  0  0  0
 17 20  1  0  0  0  0
 17 36  1  0  0  0  0
 18 37  1  0  0  0  0
 18 38  1  0  0  0  0
 18 39  1  0  0  0  0
 19 40  1  0  0  0  0
 19 41  1  0  0  0  0
 19 42  1  0  0  0  0
 20 21  2  0  0  0  0
 20 43  1  0  0  0  0
 21 44  1  0  0  0  0
M  END
> <PUBCHEM_COMPOUND_CID>
75536741

> <PUBCHEM_CONFORMER_RMSD>
1

> <PUBCHEM_CONFORMER_DIVERSEORDER>
1
115
137
51
91
144
30
104
20
113
77
2
68
85
81
114
116
118
25
66
28
95
88
48
140
22
83
121
17
141
99
59
31
92
54
13
74
142
32
98
103
70
139
67
122
112
87
11
119
138
97
36
76
126
132
15
41
125
111
131
84
7
105
133
101
47
14
123
38
27
90
39
108
124
80
55
107
52
109
73
106
102
62
19
6
61
33
117
110
120
21
10
40
130
72
93
58
79
71
18
89
46
78
57
82
129
135
16
127
42
60
50
44
100
69
53
26
65
8
134
37
24
86
29
12
9
143
94
4
56
23
35
63
34
64
96
128
43
5
75
3
45
49
136

> <PUBCHEM_MMFF94_PARTIAL_CHARGES>
26
1 -0.08
10 0.28
11 0.28
12 0.3
13 0.45
14 -0.14
15 0.69
16 0.3
17 -0.15
2 -0.56
20 -0.15
21 -0.11
29 0.36
3 -0.68
32 0.4
33 0.37
34 0.37
36 0.15
4 -0.57
43 0.15
44 0.15
5 -0.9
6 -0.73
7 -0.73
8 0.27
9 0.28

> <PUBCHEM_EFFECTIVE_ROTOR_COUNT>
9

> <PUBCHEM_PHARMACOPHORE_FEATURES>
11
1 2 acceptor
1 3 acceptor
1 3 donor
1 4 acceptor
1 5 cation
1 5 donor
1 6 donor
1 7 donor
3 16 18 19 hydrophobe
5 1 14 17 20 21 rings
5 2 8 9 10 11 rings

> <PUBCHEM_HEAVY_ATOM_COUNT>
21

> <PUBCHEM_ATOM_DEF_STEREO_COUNT>
3

> <PUBCHEM_ATOM_UDEF_STEREO_COUNT>
0

> <PUBCHEM_BOND_DEF_STEREO_COUNT>
0

> <PUBCHEM_BOND_UDEF_STEREO_COUNT>
0

> <PUBCHEM_ISOTOPIC_ATOM_COUNT>
0

> <PUBCHEM_COMPONENT_COUNT>
1

> <PUBCHEM_CACTVS_TAUTO_COUNT>
3

> <PUBCHEM_CONFORMER_ID>
0480996500000001

> <PUBCHEM_MMFF94_ENERGY>
26.7273

> <PUBCHEM_FEATURE_SELFOVERLAP>
55.87

> <PUBCHEM_SHAPE_FINGERPRINT>
10 15 18260263088736847320
10299344 5 10879993558099804709
106641 1 18341049704563938778
10968037 39 17203890760884341109
11315181 36 17918276451131687593
11638347 137 18334576820152001706
12091667 2 18334579040929194075
12236239 1 18272371936946517895
125118 31 18407762538615960012
13533116 47 17968374538314700994
13899415 154 16271928229270203240
13914758 101 16081364124970870805
14123256 10 14908181945162732771
14251732 16 18272089404874985585
14251752 14 8142090853080745002
14251764 18 17894348877937967566
14251764 46 17203611479971345390
14856354 85 11527943474705739497
15183329 4 14562529574403569117
15849732 13 18408604772737445407
18006028 8 13984661460032987894
18335252 98 17131837581793667375
18681886 176 18342169008234406211
20157964 124 17632581535576500590
20281389 69 18411698786053373568
21095086 128 15339121229892388596
21150785 3 16200430273644708413
220451 1 13973965381269884901
22224240 67 18343580754830573366
23035841 295 10375869667208359669
23402539 116 18410009953019421311
23622692 88 17530688723198662798
28498 318 12540687124325190480
3009799 131 18186802474310680873
34797466 226 16343709845705293140
4325135 7 17275103929322425477
5207 217 17418094325640402303
59682541 35 18343018934189527825
6438161 24 10015594883354835108
8209 1 18410856555344828789

> <PUBCHEM_SHAPE_MULTIPOLES>
403.47
23.26
1.52
0.85
5.21
0.07
-0.04
5.12
2.21
0.17
0.18
0.35
0
0.8

> <PUBCHEM_SHAPE_SELFOVERLAP>
804.309

> <PUBCHEM_SHAPE_VOLUME>
240.9

> <PUBCHEM_COORDINATE_TYPE>
2
5
10

$$$$
