45783975
  -OEChem-12032416253D

 74 77  0     1  0  0  0  0  0999 V2000
   -2.3769   -0.5828   -1.0942 O   0  0  0  0  0  0  0  0  0  0  0  0
    5.3324    0.0461   -0.1758 N   0  0  0  0  0  0  0  0  0  0  0  0
    7.8261    1.4972    0.0088 N   0  0  0  0  0  0  0  0  0  0  0  0
   -1.3015    0.9704   -2.2923 N   0  0  0  0  0  0  0  0  0  0  0  0
   -2.5459    1.4728   -1.9605 N   0  0  0  0  0  0  0  0  0  0  0  0
   -8.2490    0.4074    1.1066 N   0  0  0  0  0  0  0  0  0  0  0  0
    2.5599   -0.1399    0.7567 C   0  0  1  0  0  0  0  0  0  0  0  0
    3.4564   -1.3809    0.5381 C   0  0  2  0  0  0  0  0  0  0  0  0
    1.5026   -0.0381   -0.3516 C   0  0  0  0  0  0  0  0  0  0  0  0
    0.6169   -1.2970   -0.4694 C   0  0  2  0  0  0  0  0  0  0  0  0
    1.9077   -0.1586    2.1458 C   0  0  0  0  0  0  0  0  0  0  0  0
    4.5291   -1.1239   -0.5251 C   0  0  0  0  0  0  0  0  0  0  0  0
    2.6656   -2.6067    0.1582 C   0  0  0  0  0  0  0  0  0  0  0  0
    1.3938   -2.5913   -0.2819 C   0  0  0  0  0  0  0  0  0  0  0  0
   -0.1370   -1.2419   -1.8040 C   0  0  0  0  0  0  0  0  0  0  0  0
    0.7208    0.7986    2.1891 C   0  0  0  0  0  0  0  0  0  0  0  0
    2.9308    0.1994    3.2190 C   0  0  0  0  0  0  0  0  0  0  0  0
    5.9748    0.6125   -1.3681 C   0  0  0  0  0  0  0  0  0  0  0  0
    6.3403   -0.2965    0.8350 C   0  0  0  0  0  0  0  0  0  0  0  0
    0.6693   -3.8817   -0.5508 C   0  0  0  0  0  0  0  0  0  0  0  0
    6.8180    1.8388   -1.0024 C   0  0  0  0  0  0  0  0  0  0  0  0
    7.1847    0.9290    1.2007 C   0  0  0  0  0  0  0  0  0  0  0  0
   -1.2468   -0.2308   -1.7660 C   0  0  0  0  0  0  0  0  0  0  0  0
    8.6276    2.6682    0.3589 C   0  0  0  0  0  0  0  0  0  0  0  0
   -3.1385    0.5328   -1.2618 C   0  0  0  0  0  0  0  0  0  0  0  0
   -4.4394    0.5009   -0.6589 C   0  0  0  0  0  0  0  0  0  0  0  0
   -5.2904    1.5997   -0.7777 C   0  0  0  0  0  0  0  0  0  0  0  0
   -4.8539   -0.6294    0.0457 C   0  0  0  0  0  0  0  0  0  0  0  0
   -6.5558    1.5685   -0.1917 C   0  0  0  0  0  0  0  0  0  0  0  0
   -6.1192   -0.6606    0.6319 C   0  0  0  0  0  0  0  0  0  0  0  0
   -6.9700    0.4382    0.5131 C   0  0  0  0  0  0  0  0  0  0  0  0
   -9.1401    1.5445    0.9898 C   0  0  0  0  0  0  0  0  0  0  0  0
   -8.6923   -0.7651    1.8347 C   0  0  0  0  0  0  0  0  0  0  0  0
    3.1550    0.7803    0.7001 H   0  0  0  0  0  0  0  0  0  0  0  0
    3.9592   -1.6387    1.4754 H   0  0  0  0  0  0  0  0  0  0  0  0
    0.8943    0.8685   -0.2677 H   0  0  0  0  0  0  0  0  0  0  0  0
    2.0392    0.1030   -1.3008 H   0  0  0  0  0  0  0  0  0  0  0  0
   -0.1216   -1.2867    0.3426 H   0  0  0  0  0  0  0  0  0  0  0  0
    1.5244   -1.1600    2.3781 H   0  0  0  0  0  0  0  0  0  0  0  0
    5.1614   -2.0113   -0.6695 H   0  0  0  0  0  0  0  0  0  0  0  0
    4.0307   -0.9603   -1.4902 H   0  0  0  0  0  0  0  0  0  0  0  0
    3.1780   -3.5593    0.2757 H   0  0  0  0  0  0  0  0  0  0  0  0
    0.5405   -1.0129   -2.6356 H   0  0  0  0  0  0  0  0  0  0  0  0
   -0.6069   -2.2007   -2.0480 H   0  0  0  0  0  0  0  0  0  0  0  0
    0.9973    1.8028    1.8487 H   0  0  0  0  0  0  0  0  0  0  0  0
    0.3653    0.9037    3.2216 H   0  0  0  0  0  0  0  0  0  0  0  0
   -0.1449    0.4535    1.6200 H   0  0  0  0  0  0  0  0  0  0  0  0
    3.3704    1.1867    3.0389 H   0  0  0  0  0  0  0  0  0  0  0  0
    3.7449   -0.5275    3.2778 H   0  0  0  0  0  0  0  0  0  0  0  0
    2.4577    0.2251    4.2071 H   0  0  0  0  0  0  0  0  0  0  0  0
    6.6052   -0.1368   -1.8659 H   0  0  0  0  0  0  0  0  0  0  0  0
    5.2104    0.9286   -2.0885 H   0  0  0  0  0  0  0  0  0  0  0  0
    6.9993   -1.0992    0.4766 H   0  0  0  0  0  0  0  0  0  0  0  0
    5.8667   -0.6530    1.7554 H   0  0  0  0  0  0  0  0  0  0  0  0
   -0.3206   -3.8700   -0.0828 H   0  0  0  0  0  0  0  0  0  0  0  0
    1.2072   -4.7448   -0.1432 H   0  0  0  0  0  0  0  0  0  0  0  0
    0.5539   -4.0483   -1.6259 H   0  0  0  0  0  0  0  0  0  0  0  0
    6.1619    2.6442   -0.6449 H   0  0  0  0  0  0  0  0  0  0  0  0
    7.3130    2.2005   -1.9118 H   0  0  0  0  0  0  0  0  0  0  0  0
    7.9515    0.6173    1.9204 H   0  0  0  0  0  0  0  0  0  0  0  0
    6.5526    1.6762    1.6997 H   0  0  0  0  0  0  0  0  0  0  0  0
    8.0210    3.4719    0.7918 H   0  0  0  0  0  0  0  0  0  0  0  0
    9.4074    2.3985    1.0797 H   0  0  0  0  0  0  0  0  0  0  0  0
    9.1401    3.0616   -0.5260 H   0  0  0  0  0  0  0  0  0  0  0  0
   -4.9877    2.4907   -1.3226 H   0  0  0  0  0  0  0  0  0  0  0  0
   -4.2189   -1.5044    0.1597 H   0  0  0  0  0  0  0  0  0  0  0  0
   -7.1803    2.4481   -0.3124 H   0  0  0  0  0  0  0  0  0  0  0  0
   -6.3951   -1.5622    1.1698 H   0  0  0  0  0  0  0  0  0  0  0  0
   -9.3867    1.7482   -0.0582 H   0  0  0  0  0  0  0  0  0  0  0  0
   -8.7017    2.4396    1.4450 H   0  0  0  0  0  0  0  0  0  0  0  0
  -10.0911    1.3682    1.5048 H   0  0  0  0  0  0  0  0  0  0  0  0
   -9.7053   -0.6359    2.2321 H   0  0  0  0  0  0  0  0  0  0  0  0
   -8.0440   -0.9654    2.6950 H   0  0  0  0  0  0  0  0  0  0  0  0
   -8.7232   -1.6466    1.1846 H   0  0  0  0  0  0  0  0  0  0  0  0
  1 23  1  0  0  0  0
  1 25  1  0  0  0  0
  2 12  1  0  0  0  0
  2 18  1  0  0  0  0
  2 19  1  0  0  0  0
  3 21  1  0  0  0  0
  3 22  1  0  0  0  0
  3 24  1  0  0  0  0
  4  5  1  0  0  0  0
  4 23  2  0  0  0  0
  5 25  2  0  0  0  0
  6 31  1  0  0  0  0
  6 32  1  0  0  0  0
  6 33  1  0  0  0  0
  7  8  1  0  0  0  0
  7  9  1  0  0  0  0
  7 11  1  0  0  0  0
  7 34  1  0  0  0  0
  8 12  1  0  0  0  0
  8 13  1  0  0  0  0
  8 35  1  0  0  0  0
  9 10  1  0  0  0  0
  9 36  1  0  0  0  0
  9 37  1  0  0  0  0
 10 14  1  0  0  0  0
 10 15  1  0  0  0  0
 10 38  1  0  0  0  0
 11 16  1  0  0  0  0
 11 17  1  0  0  0  0
 11 39  1  0  0  0  0
 12 40  1  0  0  0  0
 12 41  1  0  0  0  0
 13 14  2  0  0  0  0
 13 42  1  0  0  0  0
 14 20  1  0  0  0  0
 15 23  1  0  0  0  0
 15 43  1  0  0  0  0
 15 44  1  0  0  0  0
 16 45  1  0  0  0  0
 16 46  1  0  0  0  0
 16 47  1  0  0  0  0
 17 48  1  0  0  0  0
 17 49  1  0  0  0  0
 17 50  1  0  0  0  0
 18 21  1  0  0  0  0
 18 51  1  0  0  0  0
 18 52  1  0  0  0  0
 19 22  1  0  0  0  0
 19 53  1  0  0  0  0
 19 54  1  0  0  0  0
 20 55  1  0  0  0  0
 20 56  1  0  0  0  0
 20 57  1  0  0  0  0
 21 58  1  0  0  0  0
 21 59  1  0  0  0  0
 22 60  1  0  0  0  0
 22 61  1  0  0  0  0
 24 62  1  0  0  0  0
 24 63  1  0  0  0  0
 24 64  1  0  0  0  0
 25 26  1  0  0  0  0
 26 27  2  0  0  0  0
 26 28  1  0  0  0  0
 27 29  1  0  0  0  0
 27 65  1  0  0  0  0
 28 30  2  0  0  0  0
 28 66  1  0  0  0  0
 29 31  2  0  0  0  0
 29 67  1  0  0  0  0
 30 31  1  0  0  0  0
 30 68  1  0  0  0  0
 32 69  1  0  0  0  0
 32 70  1  0  0  0  0
 32 71  1  0  0  0  0
 33 72  1  0  0  0  0
 33 73  1  0  0  0  0
 33 74  1  0  0  0  0
M  END
> <PUBCHEM_COMPOUND_CID>
45783975

> <PUBCHEM_CONFORMER_RMSD>
1

> <PUBCHEM_CONFORMER_DIVERSEORDER>
26
213
247
237
80
18
215
132
21
217
137
97
98
49
136
99
76
92
164
157
140
127
45
69
212
262
205
96
229
156
31
264
17
58
24
204
56
195
41
121
14
106
172
114
77
128
54
241
182
16
75
176
252
11
38
123
86
234
57
259
173
183
228
214
221
51
184
81
265
200
10
254
149
170
20
134
19
78
166
207
82
153
94
194
118
249
117
158
141
8
116
244
87
142
46
155
267
79
230
42
107
250
23
83
167
192
34
125
119
251
90
13
62
185
71
260
64
233
190
35
138
161
196
191
231
144
258
68
197
238
120
108
219
133
59
43
91
165
152
179
139
36
124
7
222
4
88
245
256
272
255
174
147
85
203
263
270
28
65
9
202
5
218
60
274
32
198
225
201
242
257
175
159
130
93
3
48
129
22
188
224
122
187
154
168
44
33
126
148
162
112
72
243
178
189
29
52
210
239
40
193
206
135
227
145
146
95
102
74
109
53
177
226
275
73
100
271
27
101
169
163
111
150
253
30
180
105
103
160
47
66
209
39
208
181
15
211
104
61
216
266
131
2
70
151
25
268
269
12
67
37
223
171
248
89
246
240
199
232
84
235
115
6
186
50
220
113
1
63
55
143
110
236
261
273

> <PUBCHEM_MMFF94_PARTIAL_CHARGES>
33
1 -0.28
10 0.14
12 0.27
13 -0.29
14 -0.28
15 0.18
18 0.27
19 0.27
2 -0.81
20 0.14
21 0.27
22 0.27
23 0.3
24 0.27
25 0.43
26 0.05
27 -0.15
28 -0.15
29 -0.15
3 -0.81
30 -0.15
31 0.1
32 0.37
33 0.37
4 -0.34
42 0.15
5 -0.34
6 -0.84
65 0.15
66 0.15
67 0.15
68 0.15
8 0.14

> <PUBCHEM_EFFECTIVE_ROTOR_COUNT>
9

> <PUBCHEM_PHARMACOPHORE_FEATURES>
8
1 2 cation
1 3 cation
1 6 cation
3 11 16 17 hydrophobe
5 1 4 5 23 25 rings
6 2 3 18 19 21 22 rings
6 26 27 28 29 30 31 rings
6 7 8 9 10 13 14 rings

> <PUBCHEM_HEAVY_ATOM_COUNT>
33

> <PUBCHEM_ATOM_DEF_STEREO_COUNT>
3

> <PUBCHEM_ATOM_UDEF_STEREO_COUNT>
0

> <PUBCHEM_BOND_DEF_STEREO_COUNT>
0

> <PUBCHEM_BOND_UDEF_STEREO_COUNT>
0

> <PUBCHEM_ISOTOPIC_ATOM_COUNT>
0

> <PUBCHEM_COMPONENT_COUNT>
1

> <PUBCHEM_CACTVS_TAUTO_COUNT>
1

> <PUBCHEM_CONFORMER_ID>
02BA9BA70000001A

> <PUBCHEM_MMFF94_ENERGY>
84.5856

> <PUBCHEM_FEATURE_SELFOVERLAP>
40.6

> <PUBCHEM_SHAPE_FINGERPRINT>
10 15 18113336418741206030
10165383 225 18413108372576123998
10483366 6 15554453998439859396
106641 1 18186524319633548141
10670039 82 13686304552568882427
10674148 151 16200430274082318240
10816530 90 17131825487371204472
11115154 58 15123513618594284354
11135609 201 18408876352584259500
11146851 88 12612762302423816041
11479125 193 18045790254215401936
11578080 2 18053935428306545752
11621639 179 16630520713675218448
11796584 16 13542166313202835910
11828532 37 11815310738608646759
12013929 112 14189304733512259409
12838863 1 11674876701565359424
13627175 23 16630253579936602795
13692114 37 15719113561401945664
14114211 68 18271817800450955558
14117953 113 14836404710196353593
14400156 260 17203604870449590666
14747281 78 17561370604088481084
14849402 71 18340767134418728749
15183329 4 12823298991695493055
15188451 53 12107783004518172926
15198563 99 13470424270386174442
15320295 40 11386362660077007788
15347590 135 17458059357054720304
15475509 8 15698004028764461312
15728490 51 16950566609885496035
16126227 98 18339359772967989374
18335252 114 15410890735157520633
18393751 57 18113615694563331486
18608769 82 18412261753366213587
19302320 297 17968658328780243036
19315092 285 14707749724553114256
19315958 150 18338241462690832211
19319366 153 18200303330449673334
2026 5 11025792102910572409
21304304 249 11025795388765807704
21315764 119 13398623961599218109
21521721 280 18412824690371195490
22122407 14 16988564577239387723
22149856 69 18115598045229321373
22224240 67 18333731321110877903
22899556 10 18261391204752519378
22956985 138 12325891949611017040
23576562 1 14907315578004516585
25222932 49 16660362558891039563
25269216 80 16916212416130261615
3178227 256 18334016111833989644
3383291 50 16878242913492500299
3633792 109 13254794664333244018
38570 142 17346594192329384462
392239 28 16153428350744077036
4339292 15 8285935588348210952
437795 51 18202003222163984798
45266715 3 7853583430038251544
474113 269 9222963556186768808
5104073 3 17751632161225758494
54076057 255 17560798827539416706
57527295 17 17630868582418385150
5758199 1 18342176674065668943
59682541 35 17603586348088157044
6126387 218 16443062799724776125
9689198 14 18059860575328227476
9953998 17 18187648020606896843
9962374 69 17822865294628942943

> <PUBCHEM_SHAPE_MULTIPOLES>
648.35
26.4
2.56
2.17
20.69
1.81
0.75
-18.96
7.52
-2.86
-0.32
0.03
-0.52
0.3

> <PUBCHEM_SHAPE_SELFOVERLAP>
1356.48

> <PUBCHEM_SHAPE_VOLUME>
368.3

> <PUBCHEM_COORDINATE_TYPE>
2
5
10

$$$$
