51137796
  -OEChem-12032416403D

 49 52  0     1  0  0  0  0  0999 V2000
   -3.5267   -0.2872    0.5552 S   0  0  0  0  0  0  0  0  0  0  0  0
    0.5335    1.9407    0.4752 O   0  0  0  0  0  0  0  0  0  0  0  0
   -4.7947   -0.5392   -0.1034 O   0  0  0  0  0  0  0  0  0  0  0  0
   -3.1839   -0.9494    1.7999 O   0  0  0  0  0  0  0  0  0  0  0  0
    5.8635   -1.4127    0.2775 O   0  0  0  0  0  0  0  0  0  0  0  0
   -3.3114    1.3840    0.7330 N   0  0  1  0  0  0  0  0  0  0  0  0
    0.0279    3.4203   -1.1248 N   0  0  0  0  0  0  0  0  0  0  0  0
    1.2457    2.8478   -1.4418 N   0  0  0  0  0  0  0  0  0  0  0  0
   -1.6050    3.0953    0.8237 C   0  0  2  0  0  0  0  0  0  0  0  0
   -2.1822    1.8820    1.5719 C   0  0  0  0  0  0  0  0  0  0  0  0
   -2.7777    3.5500   -0.0479 C   0  0  0  0  0  0  0  0  0  0  0  0
   -3.4454    2.2475   -0.4649 C   0  0  0  0  0  0  0  0  0  0  0  0
   -0.3501    2.8610    0.0008 C   0  0  0  0  0  0  0  0  0  0  0  0
   -2.2337   -0.6311   -0.6134 C   0  0  0  0  0  0  0  0  0  0  0  0
   -1.9293   -2.0956   -0.5387 C   0  0  0  0  0  0  0  0  0  0  0  0
    1.5011    1.9910   -0.4808 C   0  0  0  0  0  0  0  0  0  0  0  0
   -2.8176   -3.0219   -1.0851 C   0  0  0  0  0  0  0  0  0  0  0  0
   -0.7567   -2.5332    0.0771 C   0  0  0  0  0  0  0  0  0  0  0  0
    2.6208    1.1161   -0.2868 C   0  0  0  0  0  0  0  0  0  0  0  0
   -2.5334   -4.3858   -1.0158 C   0  0  0  0  0  0  0  0  0  0  0  0
   -0.4725   -3.8970    0.1463 C   0  0  0  0  0  0  0  0  0  0  0  0
   -1.3609   -4.8233   -0.4001 C   0  0  0  0  0  0  0  0  0  0  0  0
    3.6613    1.0983   -1.2157 C   0  0  0  0  0  0  0  0  0  0  0  0
    2.6698    0.2836    0.8314 C   0  0  0  0  0  0  0  0  0  0  0  0
    4.7505    0.2478   -1.0266 C   0  0  0  0  0  0  0  0  0  0  0  0
    3.7589   -0.5670    1.0204 C   0  0  0  0  0  0  0  0  0  0  0  0
    4.7993   -0.5849    0.0915 C   0  0  0  0  0  0  0  0  0  0  0  0
    5.8487   -2.2371    1.4421 C   0  0  0  0  0  0  0  0  0  0  0  0
   -1.3451    3.8811    1.5440 H   0  0  0  0  0  0  0  0  0  0  0  0
   -1.4354    1.1085    1.7691 H   0  0  0  0  0  0  0  0  0  0  0  0
   -2.6078    2.1981    2.5314 H   0  0  0  0  0  0  0  0  0  0  0  0
   -3.4773    4.1336    0.5647 H   0  0  0  0  0  0  0  0  0  0  0  0
   -2.4986    4.1657   -0.9082 H   0  0  0  0  0  0  0  0  0  0  0  0
   -2.9272    1.8285   -1.3305 H   0  0  0  0  0  0  0  0  0  0  0  0
   -4.4987    2.4032   -0.7135 H   0  0  0  0  0  0  0  0  0  0  0  0
   -1.3473   -0.0478   -0.3543 H   0  0  0  0  0  0  0  0  0  0  0  0
   -2.5622   -0.3536   -1.6187 H   0  0  0  0  0  0  0  0  0  0  0  0
   -3.7309   -2.6963   -1.5756 H   0  0  0  0  0  0  0  0  0  0  0  0
   -0.0563   -1.8232    0.5088 H   0  0  0  0  0  0  0  0  0  0  0  0
   -3.2241   -5.1069   -1.4428 H   0  0  0  0  0  0  0  0  0  0  0  0
    0.4405   -4.2377    0.6259 H   0  0  0  0  0  0  0  0  0  0  0  0
   -1.1393   -5.8852   -0.3464 H   0  0  0  0  0  0  0  0  0  0  0  0
    3.6444    1.7387   -2.0943 H   0  0  0  0  0  0  0  0  0  0  0  0
    1.8774    0.2692    1.5756 H   0  0  0  0  0  0  0  0  0  0  0  0
    5.5584    0.2385   -1.7532 H   0  0  0  0  0  0  0  0  0  0  0  0
    3.7329   -1.1873    1.9098 H   0  0  0  0  0  0  0  0  0  0  0  0
    5.8668   -1.6385    2.3592 H   0  0  0  0  0  0  0  0  0  0  0  0
    5.0122   -2.9440    1.4241 H   0  0  0  0  0  0  0  0  0  0  0  0
    6.7688   -2.8305    1.4297 H   0  0  0  0  0  0  0  0  0  0  0  0
  1  3  2  0  0  0  0
  1  4  2  0  0  0  0
  1  6  1  0  0  0  0
  1 14  1  0  0  0  0
  2 13  1  0  0  0  0
  2 16  1  0  0  0  0
  5 27  1  0  0  0  0
  5 28  1  0  0  0  0
  6 10  1  0  0  0  0
  6 12  1  0  0  0  0
  7  8  1  0  0  0  0
  7 13  2  0  0  0  0
  8 16  2  0  0  0  0
  9 10  1  0  0  0  0
  9 11  1  0  0  0  0
  9 13  1  0  0  0  0
  9 29  1  0  0  0  0
 10 30  1  0  0  0  0
 10 31  1  0  0  0  0
 11 12  1  0  0  0  0
 11 32  1  0  0  0  0
 11 33  1  0  0  0  0
 12 34  1  0  0  0  0
 12 35  1  0  0  0  0
 14 15  1  0  0  0  0
 14 36  1  0  0  0  0
 14 37  1  0  0  0  0
 15 17  2  0  0  0  0
 15 18  1  0  0  0  0
 16 19  1  0  0  0  0
 17 20  1  0  0  0  0
 17 38  1  0  0  0  0
 18 21  2  0  0  0  0
 18 39  1  0  0  0  0
 19 23  2  0  0  0  0
 19 24  1  0  0  0  0
 20 22  2  0  0  0  0
 20 40  1  0  0  0  0
 21 22  1  0  0  0  0
 21 41  1  0  0  0  0
 22 42  1  0  0  0  0
 23 25  1  0  0  0  0
 23 43  1  0  0  0  0
 24 26  2  0  0  0  0
 24 44  1  0  0  0  0
 25 27  2  0  0  0  0
 25 45  1  0  0  0  0
 26 27  1  0  0  0  0
 26 46  1  0  0  0  0
 28 47  1  0  0  0  0
 28 48  1  0  0  0  0
 28 49  1  0  0  0  0
M  END
> <PUBCHEM_COMPOUND_CID>
51137796

> <PUBCHEM_CONFORMER_RMSD>
0.8

> <PUBCHEM_CONFORMER_DIVERSEORDER>
1
15
222
169
154
25
266
219
103
31
265
270
168
170
26
191
150
24
99
42
162
121
7
217
117
179
290
80
156
18
218
155
167
240
153
6
166
58
263
238
119
200
20
228
140
64
78
102
143
205
289
243
274
59
33
163
257
291
50
85
187
82
267
95
134
199
210
234
252
70
30
73
209
39
139
53
97
231
224
182
198
286
46
66
172
41
239
45
88
181
107
226
55
202
9
185
204
177
69
225
251
258
109
259
273
287
98
292
184
214
105
196
92
247
128
157
288
279
126
186
75
16
142
67
62
118
285
272
57
93
27
47
161
65
281
60
123
229
129
32
193
188
4
12
87
277
213
29
180
262
147
230
164
127
108
112
175
52
178
110
5
3
261
158
189
77
171
208
197
96
212
237
249
236
63
37
152
104
174
51
190
49
91
71
141
275
248
173
138
19
2
68
269
183
245
17
115
89
100
215
11
260
74
282
145
137
227
94
125
276
160
148
35
111
220
28
124
72
246
101
132
10
76
151
223
44
22
14
242
216
38
159
106
201
255
195
280
136
81
130
34
176
131
90
250
271
84
221
54
56
13
21
79
144
241
86
284
83
36
194
116
207
203
149
114
264
165
268
43
283
61
233
40
120
211
232
146
235
206
254
122
133
135
278
244
23
192
256
253
48
113
8

> <PUBCHEM_MMFF94_PARTIAL_CHARGES>
36
1 1.33
10 0.36
12 0.36
13 0.3
14 0.25
15 -0.14
16 0.43
17 -0.15
18 -0.15
19 0.05
2 -0.28
20 -0.15
21 -0.15
22 -0.15
23 -0.15
24 -0.15
25 -0.15
26 -0.15
27 0.08
28 0.28
3 -0.65
38 0.15
39 0.15
4 -0.65
40 0.15
41 0.15
42 0.15
43 0.15
44 0.15
45 0.15
46 0.15
5 -0.36
6 -0.85
7 -0.34
8 -0.34
9 0.18

> <PUBCHEM_EFFECTIVE_ROTOR_COUNT>
7

> <PUBCHEM_PHARMACOPHORE_FEATURES>
7
1 3 acceptor
1 4 acceptor
1 5 acceptor
5 2 7 8 13 16 rings
5 6 9 10 11 12 rings
6 15 17 18 20 21 22 rings
6 19 23 24 25 26 27 rings

> <PUBCHEM_HEAVY_ATOM_COUNT>
28

> <PUBCHEM_ATOM_DEF_STEREO_COUNT>
1

> <PUBCHEM_ATOM_UDEF_STEREO_COUNT>
0

> <PUBCHEM_BOND_DEF_STEREO_COUNT>
0

> <PUBCHEM_BOND_UDEF_STEREO_COUNT>
0

> <PUBCHEM_ISOTOPIC_ATOM_COUNT>
0

> <PUBCHEM_COMPONENT_COUNT>
1

> <PUBCHEM_CACTVS_TAUTO_COUNT>
1

> <PUBCHEM_CONFORMER_ID>
030C4D0400000001

> <PUBCHEM_MMFF94_ENERGY>
66.9719

> <PUBCHEM_FEATURE_SELFOVERLAP>
35.541

> <PUBCHEM_SHAPE_FINGERPRINT>
10483366 6 18339623596124934069
1100329 8 18268432511370045959
11014199 57 18194401332298695106
11200772 71 18190768434806895342
11513181 2 17841986694044902167
11524674 6 17984972696737512916
12156800 1 15404922538628819669
12633257 1 18200049454784184375
12712778 12 18270666594311500754
12788726 201 18340220655901965632
13631057 29 17981896551166764796
14028597 1 17272295644151656473
14114207 22 17901936444884034351
14117953 113 18192428563398359381
14251757 5 18339092595700043238
14279260 333 17604431787459104378
14659021 117 18266165305228757888
14866123 147 18267858402859935794
15297060 5 18057039103726417024
15320294 125 18188200988793136786
15403338 16 17241599525344362499
15439362 3 17329426147555100749
16120349 306 18194394498952519130
16719943 64 18339075974060978570
16728300 4 18041558014752587275
20764821 26 18122915222213823406
20775438 99 17119685968420382031
20775530 9 17910117137495911599
21344244 246 17977371752071308493
22113638 7 18409728499670384741
229767 44 18194110833870216754
23559900 14 16971102455219843983
238918 7 17988644035004057046
3027735 51 18270109111851589909
3052486 1 18264787492853146382
338550 245 18191310382170252358
397830 11 18128796622624094954
4017518 198 18053658075913156422
44880168 125 17845396421478922582
463206 1 18194969766930160649
5085150 59 18120638154938691377
5309563 4 16899623208039874751
5385378 56 17766007099645656105
56633871 153 18270126832813267619
602551 16 18343019944277189720
9543594 6 18050851018601404838
9795274 37 17689434205892583891
9981440 41 18194968439980328329

> <PUBCHEM_SHAPE_MULTIPOLES>
541.66
10.06
6.32
1.32
14.36
4.29
-0.17
3.71
-1.59
-5.82
1.29
0.29
-0.14
-2.37

> <PUBCHEM_SHAPE_SELFOVERLAP>
1159.055

> <PUBCHEM_SHAPE_VOLUME>
302.2

> <PUBCHEM_COORDINATE_TYPE>
2
5
10

$$$$
