75536768
  -OEChem-12032416303D

 51 53  0     1  0  0  0  0  0999 V2000
   -7.8409    2.1281   -0.4310 F   0  0  0  0  0  0  0  0  0  0  0  0
   -7.5377    0.5247    1.0064 F   0  0  0  0  0  0  0  0  0  0  0  0
   -0.0226   -0.6898   -1.2920 O   0  0  0  0  0  0  0  0  0  0  0  0
   -0.9827   -1.2160    2.1296 O   0  0  0  0  0  0  0  0  0  0  0  0
    3.5417   -0.5101    1.3938 O   0  0  0  0  0  0  0  0  0  0  0  0
   -3.3624   -1.1349    0.0786 N   0  0  0  0  0  0  0  0  0  0  0  0
    2.6188   -1.4928   -0.4857 N   0  0  0  0  0  0  0  0  0  0  0  0
    4.6524   -0.4260   -0.6726 N   0  0  0  0  0  0  0  0  0  0  0  0
   -4.3405   -0.1285   -0.3306 C   0  0  0  0  0  0  0  0  0  0  0  0
   -2.0120   -0.6018    0.0027 C   0  0  1  0  0  0  0  0  0  0  0  0
   -0.9828   -1.4439    0.7336 C   0  0  1  0  0  0  0  0  0  0  0  0
   -5.6301   -0.8156   -0.7962 C   0  0  0  0  0  0  0  0  0  0  0  0
   -4.6127    0.8352    0.8309 C   0  0  0  0  0  0  0  0  0  0  0  0
    0.3062   -0.9644    0.0801 C   0  0  1  0  0  0  0  0  0  0  0  0
   -1.4535   -0.6042   -1.4109 C   0  0  0  0  0  0  0  0  0  0  0  0
   -6.7025    0.2080   -1.1649 C   0  0  0  0  0  0  0  0  0  0  0  0
   -5.6845    1.8596    0.4629 C   0  0  0  0  0  0  0  0  0  0  0  0
   -6.9541    1.1844   -0.0280 C   0  0  0  0  0  0  0  0  0  0  0  0
    1.4281   -1.9854    0.1446 C   0  0  0  0  0  0  0  0  0  0  0  0
    3.6143   -0.7743    0.1960 C   0  0  0  0  0  0  0  0  0  0  0  0
    5.8308    0.2961   -0.3714 C   0  0  0  0  0  0  0  0  0  0  0  0
    6.7653    0.5551   -1.3740 C   0  0  0  0  0  0  0  0  0  0  0  0
    6.0583    0.7490    0.9280 C   0  0  0  0  0  0  0  0  0  0  0  0
    7.9276    1.2670   -1.0771 C   0  0  0  0  0  0  0  0  0  0  0  0
    7.2205    1.4609    1.2249 C   0  0  0  0  0  0  0  0  0  0  0  0
    8.1551    1.7198    0.2223 C   0  0  0  0  0  0  0  0  0  0  0  0
   -3.9646    0.4467   -1.1873 H   0  0  0  0  0  0  0  0  0  0  0  0
   -1.9568    0.4119    0.4183 H   0  0  0  0  0  0  0  0  0  0  0  0
   -1.1452   -2.5133    0.5499 H   0  0  0  0  0  0  0  0  0  0  0  0
   -6.0167   -1.4700   -0.0036 H   0  0  0  0  0  0  0  0  0  0  0  0
   -5.4265   -1.4547   -1.6641 H   0  0  0  0  0  0  0  0  0  0  0  0
   -3.7099    1.3796    1.1272 H   0  0  0  0  0  0  0  0  0  0  0  0
   -4.9472    0.2764    1.7153 H   0  0  0  0  0  0  0  0  0  0  0  0
   -3.5639   -1.4502    1.0269 H   0  0  0  0  0  0  0  0  0  0  0  0
    0.6425   -0.0211    0.5304 H   0  0  0  0  0  0  0  0  0  0  0  0
   -1.7819   -1.4771   -1.9869 H   0  0  0  0  0  0  0  0  0  0  0  0
   -1.7143    0.2975   -1.9730 H   0  0  0  0  0  0  0  0  0  0  0  0
   -6.4013    0.7591   -2.0639 H   0  0  0  0  0  0  0  0  0  0  0  0
   -7.6335   -0.3141   -1.4130 H   0  0  0  0  0  0  0  0  0  0  0  0
   -5.3047    2.5378   -0.3108 H   0  0  0  0  0  0  0  0  0  0  0  0
   -5.9135    2.4775    1.3386 H   0  0  0  0  0  0  0  0  0  0  0  0
    1.1503   -2.8974   -0.3951 H   0  0  0  0  0  0  0  0  0  0  0  0
    1.6507   -2.2504    1.1836 H   0  0  0  0  0  0  0  0  0  0  0  0
   -0.8414   -0.2667    2.2846 H   0  0  0  0  0  0  0  0  0  0  0  0
    2.7402   -1.6625   -1.4793 H   0  0  0  0  0  0  0  0  0  0  0  0
    4.5567   -0.7236   -1.6403 H   0  0  0  0  0  0  0  0  0  0  0  0
    6.6002    0.2078   -2.3908 H   0  0  0  0  0  0  0  0  0  0  0  0
    5.3833    0.5882    1.7566 H   0  0  0  0  0  0  0  0  0  0  0  0
    8.6553    1.4687   -1.8577 H   0  0  0  0  0  0  0  0  0  0  0  0
    7.3991    1.8142    2.2365 H   0  0  0  0  0  0  0  0  0  0  0  0
    9.0600    2.2741    0.4536 H   0  0  0  0  0  0  0  0  0  0  0  0
  1 18  1  0  0  0  0
  2 18  1  0  0  0  0
  3 14  1  0  0  0  0
  3 15  1  0  0  0  0
  4 11  1  0  0  0  0
  4 44  1  0  0  0  0
  5 20  2  0  0  0  0
  6  9  1  0  0  0  0
  6 10  1  0  0  0  0
  6 34  1  0  0  0  0
  7 19  1  0  0  0  0
  7 20  1  0  0  0  0
  7 45  1  0  0  0  0
  8 20  1  0  0  0  0
  8 21  1  0  0  0  0
  8 46  1  0  0  0  0
  9 12  1  0  0  0  0
  9 13  1  0  0  0  0
  9 27  1  0  0  0  0
 10 11  1  0  0  0  0
 10 15  1  0  0  0  0
 10 28  1  0  0  0  0
 11 14  1  0  0  0  0
 11 29  1  0  0  0  0
 12 16  1  0  0  0  0
 12 30  1  0  0  0  0
 12 31  1  0  0  0  0
 13 17  1  0  0  0  0
 13 32  1  0  0  0  0
 13 33  1  0  0  0  0
 14 19  1  0  0  0  0
 14 35  1  0  0  0  0
 15 36  1  0  0  0  0
 15 37  1  0  0  0  0
 16 18  1  0  0  0  0
 16 38  1  0  0  0  0
 16 39  1  0  0  0  0
 17 18  1  0  0  0  0
 17 40  1  0  0  0  0
 17 41  1  0  0  0  0
 19 42  1  0  0  0  0
 19 43  1  0  0  0  0
 21 22  2  0  0  0  0
 21 23  1  0  0  0  0
 22 24  1  0  0  0  0
 22 47  1  0  0  0  0
 23 25  2  0  0  0  0
 23 48  1  0  0  0  0
 24 26  2  0  0  0  0
 24 49  1  0  0  0  0
 25 26  1  0  0  0  0
 25 50  1  0  0  0  0
 26 51  1  0  0  0  0
M  END
> <PUBCHEM_COMPOUND_CID>
75536768

> <PUBCHEM_CONFORMER_RMSD>
1

> <PUBCHEM_CONFORMER_DIVERSEORDER>
1
181
146
142
111
175
22
33
164
154
140
114
43
87
29
115
157
178
59
173
24
84
158
61
96
48
12
163
141
77
88
7
107
165
132
149
160
150
134
93
10
105
70
40
113
100
95
147
99
108
17
119
122
3
23
81
152
125
72
174
19
54
37
11
58
31
18
25
123
168
101
46
36
80
167
44
79
130
27
97
85
136
47
170
41
98
51
159
144
104
90
135
73
55
172
126
92
82
156
68
26
71
67
14
120
176
5
21
38
162
32
155
42
103
94
74
102
127
180
39
118
139
110
76
56
112
177
28
128
133
57
15
75
131
30
148
129
63
35
161
83
169
64
171
116
153
66
78
69
109
166
45
34
138
124
4
60
145
49
16
89
137
121
62
117
143
8
6
91
13
20
53
65
106
179
52
86
151
2
50
9

> <PUBCHEM_MMFF94_PARTIAL_CHARGES>
31
1 -0.34
10 0.27
11 0.28
14 0.28
15 0.28
18 0.68
19 0.3
2 -0.34
20 0.69
21 0.12
22 -0.15
23 -0.15
24 -0.15
25 -0.15
26 -0.15
3 -0.56
34 0.36
4 -0.68
44 0.4
45 0.37
46 0.37
47 0.15
48 0.15
49 0.15
5 -0.57
50 0.15
51 0.15
6 -0.9
7 -0.73
8 -0.55
9 0.27

> <PUBCHEM_EFFECTIVE_ROTOR_COUNT>
9.2

> <PUBCHEM_PHARMACOPHORE_FEATURES>
11
1 3 acceptor
1 4 acceptor
1 4 donor
1 5 acceptor
1 6 cation
1 6 donor
1 7 donor
1 8 donor
5 3 10 11 14 15 rings
6 21 22 23 24 25 26 rings
6 9 12 13 16 17 18 rings

> <PUBCHEM_HEAVY_ATOM_COUNT>
26

> <PUBCHEM_ATOM_DEF_STEREO_COUNT>
3

> <PUBCHEM_ATOM_UDEF_STEREO_COUNT>
0

> <PUBCHEM_BOND_DEF_STEREO_COUNT>
0

> <PUBCHEM_BOND_UDEF_STEREO_COUNT>
0

> <PUBCHEM_ISOTOPIC_ATOM_COUNT>
0

> <PUBCHEM_COMPONENT_COUNT>
1

> <PUBCHEM_CACTVS_TAUTO_COUNT>
3

> <PUBCHEM_CONFORMER_ID>
0480998000000001

> <PUBCHEM_MMFF94_ENERGY>
51.7594

> <PUBCHEM_FEATURE_SELFOVERLAP>
55.872

> <PUBCHEM_SHAPE_FINGERPRINT>
10 15 16225767424037748038
10454371 7 17417820500032705753
106641 1 17312828191073567211
10669705 176 17846782909972996622
10670039 82 15985111781832118075
11297750 10 17026267792712742574
11315181 36 18334855031507305815
11386260 185 16845298285265810680
11409948 41 15266521560845806452
11578821 258 18336262358788536477
11991303 11 15625929980374988493
12166972 35 10303813194500378410
13540713 5 15866066700010277046
13668630 136 10879988056209723285
13685833 64 8718829782453873246
13782708 43 10303812077476039358
14251757 52 18412542124683743024
14251764 18 17822009834788208255
14556957 393 15625956368859458624
14849402 71 18187932815161434709
14931854 50 16200440165255175390
15183329 4 15841557366388123442
15188451 53 11169910585278376998
15352257 5 8862947177826771796
15510800 12 9222946032008304556
15690457 1 10881403153238915289
15706992 2 18337404785390858161
1577012 14 18342451534914114983
16989713 51 17487889215602857143
16994733 274 18408600336300258649
1768 124 11314300651446345592
1768 4 18411990165409253201
18335252 114 17346598573960904384
18643901 69 11095891479449577608
2026 5 9007062357313154441
20281389 69 18335699416838265384
21033648 29 18338506565304659560
21150785 3 16917066672150790702
21267235 1 11312053262452874583
21298829 104 18411422804076337236
21307412 95 13182737078057043932
21424621 283 18334296427211442611
21792934 111 16153981357347236614
221357 26 16056883542250492666
22224240 67 17312822675845325587
23576562 1 16701156725568289921
246663 6 11167943575617993886
24771293 8 18040715874517651367
255183 313 16225765237715440963
3711267 37 18342469139880229057
4073 2 18408044009371705851
4107672 100 17131826620847120423
445580 37 17775852298194664721
5104073 3 15503201290149821268
5385378 56 18040992922196066986
543368 44 18410855435292008667
5718773 13 9799699186344038084
5758199 1 18333449841580567947
5937810 71 17561092367238199985
59682541 35 16370731452011913105
59682541 52 15984829225356883846
636775 72 18409448102515057932
9689198 14 18273498978834470678
9831232 110 7925647626225909616

> <PUBCHEM_SHAPE_MULTIPOLES>
487.97
27.3
1.84
1.36
9.68
0.31
0.14
20.34
-3.06
-0.57
0.22
0.64
-0.08
-0.09

> <PUBCHEM_SHAPE_SELFOVERLAP>
1020.792

> <PUBCHEM_SHAPE_VOLUME>
277.3

> <PUBCHEM_COORDINATE_TYPE>
2
5
10

$$$$
