45783570
  -OEChem-12032416273D

 49 52  0     1  0  0  0  0  0999 V2000
   -2.1310   -2.1628    1.2661 O   0  0  0  0  0  0  0  0  0  0  0  0
    4.7925    0.6011   -0.1298 O   0  0  0  0  0  0  0  0  0  0  0  0
    7.4200    0.2652   -1.0339 O   0  0  0  0  0  0  0  0  0  0  0  0
   -4.3599    0.2005   -0.4523 N   0  0  1  0  0  0  0  0  0  0  0  0
   -1.4852   -0.5398   -0.1359 N   0  0  0  0  0  0  0  0  0  0  0  0
   -0.7413   -2.0580    1.4053 N   0  0  0  0  0  0  0  0  0  0  0  0
    3.2549   -0.7926    0.9083 N   0  0  0  0  0  0  0  0  0  0  0  0
   -4.5666    2.5357    0.2143 C   0  0  0  0  0  0  0  0  0  0  0  0
   -3.2087    3.1688    0.1328 C   0  0  0  0  0  0  0  0  0  0  0  0
   -4.1599    3.5710    1.2216 C   0  0  0  0  0  0  0  0  0  0  0  0
   -4.6825    1.1083    0.6410 C   0  0  0  0  0  0  0  0  0  0  0  0
   -3.9620   -1.1453    0.0068 C   0  0  1  0  0  0  0  0  0  0  0  0
   -5.4902    0.0099   -1.3612 C   0  0  0  0  0  0  0  0  0  0  0  0
   -4.3699   -2.0867   -1.1416 C   0  0  0  0  0  0  0  0  0  0  0  0
   -5.0422   -1.1899   -2.1713 C   0  0  0  0  0  0  0  0  0  0  0  0
   -2.4875   -1.2345    0.3401 C   0  0  0  0  0  0  0  0  0  0  0  0
   -0.4350   -1.0805    0.5471 C   0  0  0  0  0  0  0  0  0  0  0  0
    0.9094   -0.6221    0.3476 C   0  0  0  0  0  0  0  0  0  0  0  0
    1.1919    0.3969   -0.5554 C   0  0  0  0  0  0  0  0  0  0  0  0
    1.9669   -1.1790    1.0486 C   0  0  0  0  0  0  0  0  0  0  0  0
    2.5047    0.8217   -0.7274 C   0  0  0  0  0  0  0  0  0  0  0  0
    3.4909    0.2003    0.0217 C   0  0  0  0  0  0  0  0  0  0  0  0
    5.7649   -0.0697    0.6630 C   0  0  0  0  0  0  0  0  0  0  0  0
    7.1371    0.4904    0.3419 C   0  0  0  0  0  0  0  0  0  0  0  0
    8.6887    0.7912   -1.3973 C   0  0  0  0  0  0  0  0  0  0  0  0
   -5.3119    2.8260   -0.5162 H   0  0  0  0  0  0  0  0  0  0  0  0
   -2.3412    2.5839    0.4133 H   0  0  0  0  0  0  0  0  0  0  0  0
   -3.0303    3.8757   -0.6683 H   0  0  0  0  0  0  0  0  0  0  0  0
   -3.9307    3.2568    2.2323 H   0  0  0  0  0  0  0  0  0  0  0  0
   -4.6195    4.5494    1.1524 H   0  0  0  0  0  0  0  0  0  0  0  0
   -3.9864    0.9395    1.4737 H   0  0  0  0  0  0  0  0  0  0  0  0
   -5.6839    0.9189    1.0482 H   0  0  0  0  0  0  0  0  0  0  0  0
   -4.5397   -1.4307    0.8974 H   0  0  0  0  0  0  0  0  0  0  0  0
   -6.4177   -0.2259   -0.8241 H   0  0  0  0  0  0  0  0  0  0  0  0
   -5.6622    0.8792   -2.0030 H   0  0  0  0  0  0  0  0  0  0  0  0
   -5.0909   -2.8265   -0.7728 H   0  0  0  0  0  0  0  0  0  0  0  0
   -3.5300   -2.6300   -1.5881 H   0  0  0  0  0  0  0  0  0  0  0  0
   -4.3138   -0.8866   -2.9336 H   0  0  0  0  0  0  0  0  0  0  0  0
   -5.8740   -1.6905   -2.6756 H   0  0  0  0  0  0  0  0  0  0  0  0
    0.4101    0.8779   -1.1375 H   0  0  0  0  0  0  0  0  0  0  0  0
    1.8316   -1.9778    1.7716 H   0  0  0  0  0  0  0  0  0  0  0  0
    2.7419    1.6153   -1.4275 H   0  0  0  0  0  0  0  0  0  0  0  0
    5.7523   -1.1407    0.4253 H   0  0  0  0  0  0  0  0  0  0  0  0
    5.5541    0.0791    1.7286 H   0  0  0  0  0  0  0  0  0  0  0  0
    7.1508    1.5694    0.5350 H   0  0  0  0  0  0  0  0  0  0  0  0
    7.8960    0.0008    0.9621 H   0  0  0  0  0  0  0  0  0  0  0  0
    8.7141    1.8742   -1.2427 H   0  0  0  0  0  0  0  0  0  0  0  0
    9.4838    0.3090   -0.8204 H   0  0  0  0  0  0  0  0  0  0  0  0
    8.8549    0.5868   -2.4584 H   0  0  0  0  0  0  0  0  0  0  0  0
  1  6  1  0  0  0  0
  1 16  1  0  0  0  0
  2 22  1  0  0  0  0
  2 23  1  0  0  0  0
  3 24  1  0  0  0  0
  3 25  1  0  0  0  0
  4 11  1  0  0  0  0
  4 12  1  0  0  0  0
  4 13  1  0  0  0  0
  5 16  2  0  0  0  0
  5 17  1  0  0  0  0
  6 17  2  0  0  0  0
  7 20  1  0  0  0  0
  7 22  2  0  0  0  0
  8  9  1  0  0  0  0
  8 10  1  0  0  0  0
  8 11  1  0  0  0  0
  8 26  1  0  0  0  0
  9 10  1  0  0  0  0
  9 27  1  0  0  0  0
  9 28  1  0  0  0  0
 10 29  1  0  0  0  0
 10 30  1  0  0  0  0
 11 31  1  0  0  0  0
 11 32  1  0  0  0  0
 12 14  1  0  0  0  0
 12 16  1  0  0  0  0
 12 33  1  0  0  0  0
 13 15  1  0  0  0  0
 13 34  1  0  0  0  0
 13 35  1  0  0  0  0
 14 15  1  0  0  0  0
 14 36  1  0  0  0  0
 14 37  1  0  0  0  0
 15 38  1  0  0  0  0
 15 39  1  0  0  0  0
 17 18  1  0  0  0  0
 18 19  1  0  0  0  0
 18 20  2  0  0  0  0
 19 21  2  0  0  0  0
 19 40  1  0  0  0  0
 20 41  1  0  0  0  0
 21 22  1  0  0  0  0
 21 42  1  0  0  0  0
 23 24  1  0  0  0  0
 23 43  1  0  0  0  0
 23 44  1  0  0  0  0
 24 45  1  0  0  0  0
 24 46  1  0  0  0  0
 25 47  1  0  0  0  0
 25 48  1  0  0  0  0
 25 49  1  0  0  0  0
M  END
> <PUBCHEM_COMPOUND_CID>
45783570

> <PUBCHEM_CONFORMER_RMSD>
1

> <PUBCHEM_CONFORMER_DIVERSEORDER>
1
46
44
4
27
2
31
13
40
32
15
25
34
19
23
33
17
10
38
20
45
5
14
16
8
43
39
29
24
35
28
42
22
11
36
7
18
26
12
21
30
6
9
37
3
41

> <PUBCHEM_MMFF94_PARTIAL_CHARGES>
31
1 -0.02
10 -0.2
11 0.37
12 0.45
13 0.27
16 0.3
17 0.46
18 0.05
19 -0.15
2 -0.36
20 0.16
21 -0.15
22 0.39
23 0.28
24 0.28
25 0.28
26 0.1
27 0.1
28 0.1
29 0.1
3 -0.56
30 0.1
4 -0.81
40 0.15
41 0.15
42 0.15
5 -0.57
6 -0.41
7 -0.62
8 -0.19
9 -0.2

> <PUBCHEM_EFFECTIVE_ROTOR_COUNT>
9.6

> <PUBCHEM_PHARMACOPHORE_FEATURES>
6
1 3 acceptor
1 4 cation
3 5 6 17 cation
5 1 5 6 16 17 rings
5 4 12 13 14 15 rings
6 7 18 19 20 21 22 rings

> <PUBCHEM_HEAVY_ATOM_COUNT>
25

> <PUBCHEM_ATOM_DEF_STEREO_COUNT>
1

> <PUBCHEM_ATOM_UDEF_STEREO_COUNT>
0

> <PUBCHEM_BOND_DEF_STEREO_COUNT>
0

> <PUBCHEM_BOND_UDEF_STEREO_COUNT>
0

> <PUBCHEM_ISOTOPIC_ATOM_COUNT>
0

> <PUBCHEM_COMPONENT_COUNT>
1

> <PUBCHEM_CACTVS_TAUTO_COUNT>
1

> <PUBCHEM_CONFORMER_ID>
02BA9A1200000001

> <PUBCHEM_MMFF94_ENERGY>
54.2503

> <PUBCHEM_FEATURE_SELFOVERLAP>
30.446

> <PUBCHEM_SHAPE_FINGERPRINT>
10066227 112 17095801118447594374
10087517 78 18410570669490115261
10291535 26 18409451397350190035
10454371 7 18343025480237398176
10670039 82 18410571782007658993
10871710 139 18338791210004449973
10906281 52 17894644643120458146
11007060 377 16009316538364718880
11089746 13 18410568518212016912
11315181 36 18114183081328089606
12107183 9 17834386822513177635
13885169 127 18341895182731657884
14765038 42 18127986200070032137
15064981 113 17986937584050952471
15183329 4 18113050546071327622
15348495 7 11963396245343926654
15716309 27 11671784888132574718
17093844 174 13623524679872737671
19489759 90 18273212014879129499
195137 175 17895201026232453492
21033650 10 18201167571999277235
21236236 1 18411417293422150409
21756936 100 18408892819805422739
23081809 10 18334851706764807826
23402539 116 18411131459211610735
235170 7 17131830980407541821
23559900 14 18188768483021897840
2838139 119 18411702101689095808
328310 630 17677060130720243780
3711267 37 16660658375644430124
397830 11 11891631164812591548
4169191 19 17822015341606292724
445580 204 18410573968050989200
445580 37 18411706482787781236
531348 171 18059293171452106903
563151 97 18409166571835199594
6299153 45 18116988893416109434
6327066 14 18195523693685573637
6328613 192 17967820496281524964

> <PUBCHEM_SHAPE_MULTIPOLES>
476.96
19.35
2.81
1.41
41.21
2.55
-0.34
6.26
-7.9
-6.52
0.77
-0.5
-0.46
-2.26

> <PUBCHEM_SHAPE_SELFOVERLAP>
1005.731

> <PUBCHEM_SHAPE_VOLUME>
270.9

> <PUBCHEM_COORDINATE_TYPE>
2
5
10

$$$$
