28961776
  -OEChem-12032416143D

 47 48  0     1  0  0  0  0  0999 V2000
   -2.0845   -0.5520    0.7800 O   0  0  0  0  0  0  0  0  0  0  0  0
   -0.9644   -2.3060   -1.3732 O   0  0  0  0  0  0  0  0  0  0  0  0
    3.8528    1.1903    1.2665 O   0  0  0  0  0  0  0  0  0  0  0  0
   -4.0469   -2.4541    1.4400 O   0  0  0  0  0  0  0  0  0  0  0  0
   -1.0027    3.6804   -0.1855 O   0  0  0  0  0  0  0  0  0  0  0  0
    1.2603   -0.6142   -0.7326 N   0  0  1  0  0  0  0  0  0  0  0  0
   -2.3299    1.8394   -0.7123 N   0  0  0  0  0  0  0  0  0  0  0  0
    0.2050   -0.8933    0.2254 C   0  0  1  0  0  0  0  0  0  0  0  0
    2.2421    0.3945   -0.3190 C   0  0  2  0  0  0  0  0  0  0  0  0
   -0.9073    0.1575    0.3344 C   0  0  1  0  0  0  0  0  0  0  0  0
   -0.5644   -2.1833   -0.0145 C   0  0  1  0  0  0  0  0  0  0  0  0
    2.0081   -1.8077   -1.1237 C   0  0  0  0  0  0  0  0  0  0  0  0
   -1.7787   -1.9563    0.8782 C   0  0  2  0  0  0  0  0  0  0  0  0
    3.3050    0.2240   -1.4024 C   0  0  0  0  0  0  0  0  0  0  0  0
    3.2961   -1.2650   -1.7318 C   0  0  0  0  0  0  0  0  0  0  0  0
   -1.2811    0.8929   -0.9478 C   0  0  0  0  0  0  0  0  0  0  0  0
    2.8370    0.2202    1.0821 C   0  0  0  0  0  0  0  0  0  0  0  0
   -3.0130   -2.7637    0.5197 C   0  0  0  0  0  0  0  0  0  0  0  0
   -2.1049    3.1635   -0.3483 C   0  0  0  0  0  0  0  0  0  0  0  0
    4.4522    1.0868    2.5529 C   0  0  0  0  0  0  0  0  0  0  0  0
   -3.3806    3.9462   -0.1881 C   0  0  0  0  0  0  0  0  0  0  0  0
    0.6275   -1.0261    1.2303 H   0  0  0  0  0  0  0  0  0  0  0  0
    1.8230    1.4049   -0.3965 H   0  0  0  0  0  0  0  0  0  0  0  0
   -0.6482    0.8903    1.1086 H   0  0  0  0  0  0  0  0  0  0  0  0
   -0.0118   -3.0851    0.2695 H   0  0  0  0  0  0  0  0  0  0  0  0
    1.4804   -2.4181   -1.8624 H   0  0  0  0  0  0  0  0  0  0  0  0
    2.2588   -2.4418   -0.2640 H   0  0  0  0  0  0  0  0  0  0  0  0
   -1.5147   -2.1304    1.9293 H   0  0  0  0  0  0  0  0  0  0  0  0
    4.3038    0.5694   -1.1193 H   0  0  0  0  0  0  0  0  0  0  0  0
    3.0110    0.7866   -2.2985 H   0  0  0  0  0  0  0  0  0  0  0  0
    3.3302   -1.4173   -2.8159 H   0  0  0  0  0  0  0  0  0  0  0  0
    4.1667   -1.7645   -1.2925 H   0  0  0  0  0  0  0  0  0  0  0  0
   -1.6621    0.2000   -1.7046 H   0  0  0  0  0  0  0  0  0  0  0  0
   -0.4216    1.4245   -1.3668 H   0  0  0  0  0  0  0  0  0  0  0  0
    3.2622   -0.7813    1.2168 H   0  0  0  0  0  0  0  0  0  0  0  0
    2.0698    0.3827    1.8470 H   0  0  0  0  0  0  0  0  0  0  0  0
   -2.8075   -3.8374    0.5658 H   0  0  0  0  0  0  0  0  0  0  0  0
   -3.3839   -2.5042   -0.4769 H   0  0  0  0  0  0  0  0  0  0  0  0
   -1.3526   -3.1901   -1.4869 H   0  0  0  0  0  0  0  0  0  0  0  0
   -3.2877    1.5167   -0.8161 H   0  0  0  0  0  0  0  0  0  0  0  0
   -4.8216   -2.9861    1.1902 H   0  0  0  0  0  0  0  0  0  0  0  0
    5.2235    1.8572    2.6352 H   0  0  0  0  0  0  0  0  0  0  0  0
    4.9224    0.1068    2.6786 H   0  0  0  0  0  0  0  0  0  0  0  0
    3.7076    1.2523    3.3375 H   0  0  0  0  0  0  0  0  0  0  0  0
   -4.1081    3.3736    0.3945 H   0  0  0  0  0  0  0  0  0  0  0  0
   -3.1739    4.8834    0.3359 H   0  0  0  0  0  0  0  0  0  0  0  0
   -3.7970    4.1677   -1.1744 H   0  0  0  0  0  0  0  0  0  0  0  0
  1 10  1  0  0  0  0
  1 13  1  0  0  0  0
  2 11  1  0  0  0  0
  2 39  1  0  0  0  0
  3 17  1  0  0  0  0
  3 20  1  0  0  0  0
  4 18  1  0  0  0  0
  4 41  1  0  0  0  0
  5 19  2  0  0  0  0
  6  8  1  0  0  0  0
  6  9  1  0  0  0  0
  6 12  1  0  0  0  0
  7 16  1  0  0  0  0
  7 19  1  0  0  0  0
  7 40  1  0  0  0  0
  8 10  1  0  0  0  0
  8 11  1  0  0  0  0
  8 22  1  0  0  0  0
  9 14  1  0  0  0  0
  9 17  1  0  0  0  0
  9 23  1  0  0  0  0
 10 16  1  0  0  0  0
 10 24  1  0  0  0  0
 11 13  1  0  0  0  0
 11 25  1  0  0  0  0
 12 15  1  0  0  0  0
 12 26  1  0  0  0  0
 12 27  1  0  0  0  0
 13 18  1  0  0  0  0
 13 28  1  0  0  0  0
 14 15  1  0  0  0  0
 14 29  1  0  0  0  0
 14 30  1  0  0  0  0
 15 31  1  0  0  0  0
 15 32  1  0  0  0  0
 16 33  1  0  0  0  0
 16 34  1  0  0  0  0
 17 35  1  0  0  0  0
 17 36  1  0  0  0  0
 18 37  1  0  0  0  0
 18 38  1  0  0  0  0
 19 21  1  0  0  0  0
 20 42  1  0  0  0  0
 20 43  1  0  0  0  0
 20 44  1  0  0  0  0
 21 45  1  0  0  0  0
 21 46  1  0  0  0  0
 21 47  1  0  0  0  0
M  END
> <PUBCHEM_COMPOUND_CID>
28961776

> <PUBCHEM_CONFORMER_RMSD>
0.8

> <PUBCHEM_CONFORMER_DIVERSEORDER>
1
8
54
58
57
43
22
40
7
34
17
24
45
10
5
52
42
33
46
56
31
21
36
18
39
3
30
49
55
9
4
50
28
23
25
53
20
44
51
14
16
47
15
13
19
37
29
38
32
6
35
2
12
41
48
27
11
26

> <PUBCHEM_MMFF94_PARTIAL_CHARGES>
22
1 -0.56
10 0.28
11 0.28
12 0.27
13 0.28
16 0.3
17 0.28
18 0.28
19 0.57
2 -0.68
20 0.28
21 0.06
3 -0.56
39 0.4
4 -0.68
40 0.37
41 0.4
5 -0.57
6 -0.81
7 -0.73
8 0.27
9 0.27

> <PUBCHEM_EFFECTIVE_ROTOR_COUNT>
9

> <PUBCHEM_PHARMACOPHORE_FEATURES>
11
1 1 acceptor
1 2 acceptor
1 2 donor
1 3 acceptor
1 4 acceptor
1 4 donor
1 5 acceptor
1 6 cation
1 7 donor
5 1 8 10 11 13 rings
5 6 9 12 14 15 rings

> <PUBCHEM_HEAVY_ATOM_COUNT>
21

> <PUBCHEM_ATOM_DEF_STEREO_COUNT>
5

> <PUBCHEM_ATOM_UDEF_STEREO_COUNT>
0

> <PUBCHEM_BOND_DEF_STEREO_COUNT>
0

> <PUBCHEM_BOND_UDEF_STEREO_COUNT>
0

> <PUBCHEM_ISOTOPIC_ATOM_COUNT>
0

> <PUBCHEM_COMPONENT_COUNT>
1

> <PUBCHEM_CACTVS_TAUTO_COUNT>
2

> <PUBCHEM_CONFORMER_ID>
01B9EBF000000001

> <PUBCHEM_MMFF94_ENERGY>
48.2529

> <PUBCHEM_FEATURE_SELFOVERLAP>
55.827

> <PUBCHEM_SHAPE_FINGERPRINT>
10165383 225 17835276391607147905
11578080 2 18060708290166567032
11725454 13 17485326124784819256
12160290 23 18113339683000727455
12549972 3 18270962324221610058
12553582 1 18121788488777370047
12716301 132 18262526892361307754
12730499 353 17614583440620988265
12788726 201 18041853933355602115
12892183 10 18190717882962667410
13294875 104 17903635186038461394
14178342 30 18187920656203451866
15295992 7 18127973001413185816
16945 1 18261683618234796535
17974551 9 17905847502338900610
1813 80 18122069964128763291
19049666 15 18270404876063122774
20600515 1 17752198645984964491
21304303 282 17684039740091100333
21486144 27 17274554238123145718
21524375 3 17905889176079486189
22182313 1 18201722851473475574
2255824 54 17037546466803785981
23366157 5 16889203110947716203
23557571 272 18409449215105902488
23558518 356 18337943481505469869
23559900 14 18409739443405804566
25 1 17763473811257409269
2748010 2 18272097071486697598
3187 122 18192414471442011873
3886686 26 17828180122445771058
5283268 108 18264500657287829521
59554788 62 17844524611557644950
6049 1 18201733837983955382
621550 34 18129383863931599994
6442390 28 18048614629129994513
6913067 236 17915161636698969614
7364860 26 17401508424943255591
7615 1 17240481425118779428
7808743 9 18261689073233919356
81228 2 18187939390724020891
84936 182 17475232397061215704
90316 7 18122610923701630914
9841814 1 17610354009887911179
9981440 41 17842803756017244650

> <PUBCHEM_SHAPE_MULTIPOLES>
392.86
6.97
4.33
1.71
3.33
2.61
0.54
2.37
2.33
-6.61
0.11
2.2
-0.1
2.91

> <PUBCHEM_SHAPE_SELFOVERLAP>
793.09

> <PUBCHEM_SHAPE_VOLUME>
231.8

> <PUBCHEM_COORDINATE_TYPE>
2
5
10

$$$$
