51137100
  -OEChem-12032416243D

 46 49  0     1  0  0  0  0  0999 V2000
    6.9720   -1.3862    0.5686 F   0  0  0  0  0  0  0  0  0  0  0  0
   -2.0935    1.0937   -0.0663 N   0  0  1  0  0  0  0  0  0  0  0  0
    2.3833    0.0856    1.3126 N   0  0  0  0  0  0  0  0  0  0  0  0
    2.0299    0.5515   -0.8317 N   0  0  0  0  0  0  0  0  0  0  0  0
   -4.0480   -0.3678   -0.3502 C   0  0  0  0  0  0  0  0  0  0  0  0
   -3.1149    0.6499   -1.0035 C   0  0  0  0  0  0  0  0  0  0  0  0
    0.1018    0.9666    0.7486 C   0  0  2  0  0  0  0  0  0  0  0  0
   -0.9837    0.1442    0.0413 C   0  0  0  0  0  0  0  0  0  0  0  0
   -1.4732    2.3542   -0.4740 C   0  0  0  0  0  0  0  0  0  0  0  0
   -5.0558   -0.9126   -1.3713 C   0  0  0  0  0  0  0  0  0  0  0  0
   -4.7707    0.2535    0.8527 C   0  0  0  0  0  0  0  0  0  0  0  0
   -0.2407    2.4298    0.4178 C   0  0  0  0  0  0  0  0  0  0  0  0
   -6.0347   -1.8931   -0.7293 C   0  0  0  0  0  0  0  0  0  0  0  0
   -5.7500   -0.7290    1.4910 C   0  0  0  0  0  0  0  0  0  0  0  0
   -6.7445   -1.2750    0.4712 C   0  0  0  0  0  0  0  0  0  0  0  0
    1.5023    0.5416    0.3719 C   0  0  0  0  0  0  0  0  0  0  0  0
    3.5576   -0.2192    0.6735 C   0  0  0  0  0  0  0  0  0  0  0  0
    3.3117    0.0802   -0.6635 C   0  0  0  0  0  0  0  0  0  0  0  0
    4.7766   -0.7160    1.1361 C   0  0  0  0  0  0  0  0  0  0  0  0
    4.3311   -0.1215   -1.6092 C   0  0  0  0  0  0  0  0  0  0  0  0
    5.7800   -0.9108    0.1812 C   0  0  0  0  0  0  0  0  0  0  0  0
    5.5633   -0.6195   -1.1676 C   0  0  0  0  0  0  0  0  0  0  0  0
   -3.4575   -1.2222    0.0078 H   0  0  0  0  0  0  0  0  0  0  0  0
   -2.6701    0.2407   -1.9200 H   0  0  0  0  0  0  0  0  0  0  0  0
   -3.7210    1.5106   -1.3187 H   0  0  0  0  0  0  0  0  0  0  0  0
   -0.0205    0.8394    1.8341 H   0  0  0  0  0  0  0  0  0  0  0  0
   -0.6422   -0.1961   -0.9453 H   0  0  0  0  0  0  0  0  0  0  0  0
   -1.2495   -0.7378    0.6336 H   0  0  0  0  0  0  0  0  0  0  0  0
   -2.1350    3.2117   -0.3164 H   0  0  0  0  0  0  0  0  0  0  0  0
   -1.1694    2.3330   -1.5286 H   0  0  0  0  0  0  0  0  0  0  0  0
   -5.6184   -0.0839   -1.8199 H   0  0  0  0  0  0  0  0  0  0  0  0
   -4.5258   -1.4159   -2.1887 H   0  0  0  0  0  0  0  0  0  0  0  0
   -4.0532    0.5696    1.6187 H   0  0  0  0  0  0  0  0  0  0  0  0
   -5.3177    1.1518    0.5386 H   0  0  0  0  0  0  0  0  0  0  0  0
   -0.4791    2.9662    1.3449 H   0  0  0  0  0  0  0  0  0  0  0  0
    0.5759    2.9671   -0.0760 H   0  0  0  0  0  0  0  0  0  0  0  0
   -5.4938   -2.7926   -0.4104 H   0  0  0  0  0  0  0  0  0  0  0  0
   -6.7756   -2.2125   -1.4709 H   0  0  0  0  0  0  0  0  0  0  0  0
   -6.2918   -0.2332    2.3044 H   0  0  0  0  0  0  0  0  0  0  0  0
   -5.1924   -1.5608    1.9389 H   0  0  0  0  0  0  0  0  0  0  0  0
   -7.3864   -2.0251    0.9468 H   0  0  0  0  0  0  0  0  0  0  0  0
   -7.3994   -0.4638    0.1299 H   0  0  0  0  0  0  0  0  0  0  0  0
    2.2048   -0.0112    2.3035 H   0  0  0  0  0  0  0  0  0  0  0  0
    4.9427   -0.9413    2.1833 H   0  0  0  0  0  0  0  0  0  0  0  0
    4.1726    0.1017   -2.6594 H   0  0  0  0  0  0  0  0  0  0  0  0
    6.3627   -0.7814   -1.8861 H   0  0  0  0  0  0  0  0  0  0  0  0
  1 21  1  0  0  0  0
  2  6  1  0  0  0  0
  2  8  1  0  0  0  0
  2  9  1  0  0  0  0
  3 16  1  0  0  0  0
  3 17  1  0  0  0  0
  3 43  1  0  0  0  0
  4 16  2  0  0  0  0
  4 18  1  0  0  0  0
  5  6  1  0  0  0  0
  5 10  1  0  0  0  0
  5 11  1  0  0  0  0
  5 23  1  0  0  0  0
  6 24  1  0  0  0  0
  6 25  1  0  0  0  0
  7  8  1  0  0  0  0
  7 12  1  0  0  0  0
  7 16  1  0  0  0  0
  7 26  1  0  0  0  0
  8 27  1  0  0  0  0
  8 28  1  0  0  0  0
  9 12  1  0  0  0  0
  9 29  1  0  0  0  0
  9 30  1  0  0  0  0
 10 13  1  0  0  0  0
 10 31  1  0  0  0  0
 10 32  1  0  0  0  0
 11 14  1  0  0  0  0
 11 33  1  0  0  0  0
 11 34  1  0  0  0  0
 12 35  1  0  0  0  0
 12 36  1  0  0  0  0
 13 15  1  0  0  0  0
 13 37  1  0  0  0  0
 13 38  1  0  0  0  0
 14 15  1  0  0  0  0
 14 39  1  0  0  0  0
 14 40  1  0  0  0  0
 15 41  1  0  0  0  0
 15 42  1  0  0  0  0
 17 18  2  0  0  0  0
 17 19  1  0  0  0  0
 18 20  1  0  0  0  0
 19 21  2  0  0  0  0
 19 44  1  0  0  0  0
 20 22  2  0  0  0  0
 20 45  1  0  0  0  0
 21 22  1  0  0  0  0
 22 46  1  0  0  0  0
M  END
> <PUBCHEM_COMPOUND_CID>
51137100

> <PUBCHEM_CONFORMER_RMSD>
0.8

> <PUBCHEM_CONFORMER_DIVERSEORDER>
1
31
37
5
7
24
27
33
10
29
12
28
8
22
14
34
18
26
3
9
13
6
30
25
19
38
15
36
32
20
23
17
21
35
2
4
16
11

> <PUBCHEM_MMFF94_PARTIAL_CHARGES>
19
1 -0.19
16 0.01
17 -0.15
18 0.23
19 -0.15
2 -0.81
20 -0.15
21 0.19
22 -0.15
3 0.03
4 -0.57
43 0.27
44 0.15
45 0.15
46 0.15
6 0.27
7 0.18
8 0.27
9 0.27

> <PUBCHEM_EFFECTIVE_ROTOR_COUNT>
5.2

> <PUBCHEM_PHARMACOPHORE_FEATURES>
7
1 2 cation
1 3 donor
3 3 4 16 cation
5 2 7 8 9 12 rings
5 3 4 16 17 18 rings
6 17 18 19 20 21 22 rings
6 5 10 11 13 14 15 rings

> <PUBCHEM_HEAVY_ATOM_COUNT>
22

> <PUBCHEM_ATOM_DEF_STEREO_COUNT>
1

> <PUBCHEM_ATOM_UDEF_STEREO_COUNT>
0

> <PUBCHEM_BOND_DEF_STEREO_COUNT>
0

> <PUBCHEM_BOND_UDEF_STEREO_COUNT>
0

> <PUBCHEM_ISOTOPIC_ATOM_COUNT>
0

> <PUBCHEM_COMPONENT_COUNT>
1

> <PUBCHEM_CACTVS_TAUTO_COUNT>
2

> <PUBCHEM_CONFORMER_ID>
030C4A4C00000001

> <PUBCHEM_MMFF94_ENERGY>
29.1535

> <PUBCHEM_FEATURE_SELFOVERLAP>
35.63

> <PUBCHEM_SHAPE_FINGERPRINT>
10 15 12895354421739868431
10693767 8 16951960658266811106
10763959 59 11963395137385100798
11089746 13 8142077642109541046
11963148 33 18411130338120859870
12166972 35 17603590733439723020
12236239 1 17894915092546757284
12596602 18 14405185084124269095
12760667 363 18408323285403372803
13288520 33 18408885136119511685
13403585 85 15051738577717434051
13668630 136 17821447949944848762
13673619 4 18272651255317175641
13685833 64 18201720673503160619
13862211 1 18410854378165921687
14123256 34 18411422830004084719
14251757 5 17096377292347318795
14251764 18 13542459874127709313
14251764 30 18412545422807123963
14341114 176 15051738581711428136
14528608 73 14129055932831360171
14556957 393 17095534954412265549
15003188 100 14201407117790732742
15142383 8 15410619146678586738
15183329 4 15647047149205379115
15188451 53 17131262584894629207
15238133 3 11239992387007133002
15348495 7 15985096461826496091
15537594 2 18411698785995715127
15716309 27 18272651259864967035
17780758 139 17418374701638189787
17844677 252 18342738520291934801
1813 80 18341619234930068749
18222031 100 18411979195878194745
190975 80 17988634246593675650
19141452 34 17060052683491944151
200 152 17749109963219647176
20028762 73 17917146212665045343
20281389 69 11959730464865706283
21054139 6 17967530139017034138
21150785 3 18040442096860917006
21267235 1 18409169908802839746
21298829 104 8718563718105365175
21521239 73 16732983115920057778
21623969 137 16845574210221043606
21637258 2 18410290324352989053
221357 26 15574709201177374438
22288116 15 13334747851164179219
22950370 63 18413112779481510461
23035841 295 18334298669384824499
23402539 116 18040999496867700837
23522609 53 18123221028027999241
23559900 14 17313672671237393701
2767999 5 9079118843285605143
2838139 119 11891327668958506711
29717793 49 17676769786583253990
3004659 81 17531242868057391306
312425 54 16702027478399994407
314173 85 18060418006439031825
33382 64 17917715660850853998
3472631 163 8934706812966699834
34797466 226 15502380049743394511
351380 3 18409166623532802791
3737641 26 17916876698781623271
4340502 62 15123514709077815390
465052 167 18340210786135438087
5104073 3 17416691439678240355
5207 217 12612756843747001905
5385378 56 9871486325890689805
543368 44 11314299560946294391
56616090 284 17821731637051003273
59682541 52 13768196165398665552
7226269 152 11024110945362725751
7495541 125 18201716250272707248
7970288 3 18411415124733022767
8863177 126 18044382849493171467

> <PUBCHEM_SHAPE_MULTIPOLES>
430.53
18.1
1.75
1.36
1.85
0.82
0.06
-12.88
-0.87
1.27
0.11
-0.08
-0.21
-0.32

> <PUBCHEM_SHAPE_SELFOVERLAP>
924.891

> <PUBCHEM_SHAPE_VOLUME>
241.6

> <PUBCHEM_COORDINATE_TYPE>
2
5
10

$$$$
