25312971
  -OEChem-12032416193D

 57 59  0     1  0  0  0  0  0999 V2000
    6.1030    1.3591    0.2189 F   0  0  0  0  0  0  0  0  0  0  0  0
    5.3236   -0.6695    0.1447 F   0  0  0  0  0  0  0  0  0  0  0  0
    5.1851    0.4880    1.9802 F   0  0  0  0  0  0  0  0  0  0  0  0
    1.0127   -5.2740   -0.6087 O   0  0  0  0  0  0  0  0  0  0  0  0
   -0.0887    3.1763   -2.1305 O   0  0  0  0  0  0  0  0  0  0  0  0
   -6.8015   -0.9315    0.4481 O   0  0  0  0  0  0  0  0  0  0  0  0
   -6.3074    1.2714    0.7378 O   0  0  0  0  0  0  0  0  0  0  0  0
   -1.1780    2.2771   -0.2653 N   0  0  0  0  0  0  0  0  0  0  0  0
    0.0391   -2.6503   -0.0891 N   0  0  0  0  0  0  0  0  0  0  0  0
   -2.1094    0.3140    0.9406 C   0  0  2  0  0  0  0  0  0  0  0  0
   -3.5281    0.7836    0.5290 C   0  0  1  0  0  0  0  0  0  0  0  0
   -1.1528    1.5195    0.9938 C   0  0  0  0  0  0  0  0  0  0  0  0
   -3.4962    1.6111   -0.7672 C   0  0  0  0  0  0  0  0  0  0  0  0
   -1.5315   -0.7850    0.0400 C   0  0  0  0  0  0  0  0  0  0  0  0
   -2.4982    2.7611   -0.6644 C   0  0  0  0  0  0  0  0  0  0  0  0
   -4.5302   -0.3645    0.4106 C   0  0  0  0  0  0  0  0  0  0  0  0
   -0.5088   -1.6228    0.7940 C   0  0  0  0  0  0  0  0  0  0  0  0
   -0.0712    2.5476   -1.0735 C   0  0  0  0  0  0  0  0  0  0  0  0
   -0.8675   -3.8038   -0.1729 C   0  0  0  0  0  0  0  0  0  0  0  0
    1.3643   -3.0843    0.3746 C   0  0  0  0  0  0  0  0  0  0  0  0
   -5.9471    0.1185    0.5539 C   0  0  0  0  0  0  0  0  0  0  0  0
   -0.2693   -4.8676   -1.0890 C   0  0  0  0  0  0  0  0  0  0  0  0
    1.9099   -4.1642   -0.5553 C   0  0  0  0  0  0  0  0  0  0  0  0
    1.2378    2.0455   -0.6411 C   0  0  0  0  0  0  0  0  0  0  0  0
    1.6676    0.7807   -1.0427 C   0  0  0  0  0  0  0  0  0  0  0  0
    2.0523    2.8332    0.1725 C   0  0  0  0  0  0  0  0  0  0  0  0
    2.9118    0.3034   -0.6305 C   0  0  0  0  0  0  0  0  0  0  0  0
    3.2964    2.3560    0.5847 C   0  0  0  0  0  0  0  0  0  0  0  0
    3.7261    1.0911    0.1832 C   0  0  0  0  0  0  0  0  0  0  0  0
    5.0565    0.5804    0.6237 C   0  0  0  0  0  0  0  0  0  0  0  0
   -2.1940   -0.0867    1.9603 H   0  0  0  0  0  0  0  0  0  0  0  0
   -3.8669    1.4561    1.3312 H   0  0  0  0  0  0  0  0  0  0  0  0
   -1.4799    2.2126    1.7794 H   0  0  0  0  0  0  0  0  0  0  0  0
   -0.1423    1.2101    1.2638 H   0  0  0  0  0  0  0  0  0  0  0  0
   -4.4858    2.0200   -0.9979 H   0  0  0  0  0  0  0  0  0  0  0  0
   -3.2145    0.9669   -1.6099 H   0  0  0  0  0  0  0  0  0  0  0  0
   -1.1000   -0.3643   -0.8739 H   0  0  0  0  0  0  0  0  0  0  0  0
   -2.3357   -1.4452   -0.2929 H   0  0  0  0  0  0  0  0  0  0  0  0
   -2.4453    3.2906   -1.6210 H   0  0  0  0  0  0  0  0  0  0  0  0
   -2.8244    3.4849    0.0920 H   0  0  0  0  0  0  0  0  0  0  0  0
   -4.4425   -0.8700   -0.5573 H   0  0  0  0  0  0  0  0  0  0  0  0
   -4.3574   -1.0919    1.2126 H   0  0  0  0  0  0  0  0  0  0  0  0
   -0.9415   -2.0612    1.7026 H   0  0  0  0  0  0  0  0  0  0  0  0
    0.2975   -0.9601    1.1281 H   0  0  0  0  0  0  0  0  0  0  0  0
   -1.8436   -3.5192   -0.5777 H   0  0  0  0  0  0  0  0  0  0  0  0
   -1.0276   -4.2364    0.8235 H   0  0  0  0  0  0  0  0  0  0  0  0
    1.2923   -3.4854    1.3942 H   0  0  0  0  0  0  0  0  0  0  0  0
    2.0663   -2.2467    0.3949 H   0  0  0  0  0  0  0  0  0  0  0  0
   -0.9139   -5.7523   -1.1039 H   0  0  0  0  0  0  0  0  0  0  0  0
   -0.1766   -4.5073   -2.1209 H   0  0  0  0  0  0  0  0  0  0  0  0
    2.0775   -3.7787   -1.5685 H   0  0  0  0  0  0  0  0  0  0  0  0
    2.8697   -4.5307   -0.1776 H   0  0  0  0  0  0  0  0  0  0  0  0
   -7.7375   -0.6516    0.5369 H   0  0  0  0  0  0  0  0  0  0  0  0
    1.0506    0.1636   -1.6894 H   0  0  0  0  0  0  0  0  0  0  0  0
    1.7266    3.8198    0.4917 H   0  0  0  0  0  0  0  0  0  0  0  0
    3.2351   -0.6775   -0.9665 H   0  0  0  0  0  0  0  0  0  0  0  0
    3.9239    2.9767    1.2188 H   0  0  0  0  0  0  0  0  0  0  0  0
  1 30  1  0  0  0  0
  2 30  1  0  0  0  0
  3 30  1  0  0  0  0
  4 22  1  0  0  0  0
  4 23  1  0  0  0  0
  5 18  2  0  0  0  0
  6 21  1  0  0  0  0
  6 53  1  0  0  0  0
  7 21  2  0  0  0  0
  8 12  1  0  0  0  0
  8 15  1  0  0  0  0
  8 18  1  0  0  0  0
  9 17  1  0  0  0  0
  9 19  1  0  0  0  0
  9 20  1  0  0  0  0
 10 11  1  0  0  0  0
 10 12  1  0  0  0  0
 10 14  1  0  0  0  0
 10 31  1  0  0  0  0
 11 13  1  0  0  0  0
 11 16  1  0  0  0  0
 11 32  1  0  0  0  0
 12 33  1  0  0  0  0
 12 34  1  0  0  0  0
 13 15  1  0  0  0  0
 13 35  1  0  0  0  0
 13 36  1  0  0  0  0
 14 17  1  0  0  0  0
 14 37  1  0  0  0  0
 14 38  1  0  0  0  0
 15 39  1  0  0  0  0
 15 40  1  0  0  0  0
 16 21  1  0  0  0  0
 16 41  1  0  0  0  0
 16 42  1  0  0  0  0
 17 43  1  0  0  0  0
 17 44  1  0  0  0  0
 18 24  1  0  0  0  0
 19 22  1  0  0  0  0
 19 45  1  0  0  0  0
 19 46  1  0  0  0  0
 20 23  1  0  0  0  0
 20 47  1  0  0  0  0
 20 48  1  0  0  0  0
 22 49  1  0  0  0  0
 22 50  1  0  0  0  0
 23 51  1  0  0  0  0
 23 52  1  0  0  0  0
 24 25  2  0  0  0  0
 24 26  1  0  0  0  0
 25 27  1  0  0  0  0
 25 54  1  0  0  0  0
 26 28  2  0  0  0  0
 26 55  1  0  0  0  0
 27 29  2  0  0  0  0
 27 56  1  0  0  0  0
 28 29  1  0  0  0  0
 28 57  1  0  0  0  0
 29 30  1  0  0  0  0
M  END
> <PUBCHEM_COMPOUND_CID>
25312971

> <PUBCHEM_CONFORMER_RMSD>
1.2

> <PUBCHEM_CONFORMER_DIVERSEORDER>
1
20
7
27
29
12
14
39
17
25
34
21
23
4
10
28
31
19
22
32
38
5
15
9
37
40
30
36
16
13
33
3
35
26
11
41
24
2
42
8
18
6

> <PUBCHEM_MMFF94_PARTIAL_CHARGES>
31
1 -0.34
12 0.3
15 0.3
16 0.06
17 0.27
18 0.54
19 0.27
2 -0.34
20 0.27
21 0.66
22 0.28
23 0.28
24 0.09
25 -0.15
26 -0.15
27 -0.15
28 -0.15
29 -0.14
3 -0.34
30 1.16
4 -0.56
5 -0.57
53 0.5
54 0.15
55 0.15
56 0.15
57 0.15
6 -0.65
7 -0.57
8 -0.66
9 -0.81

> <PUBCHEM_EFFECTIVE_ROTOR_COUNT>
10.4

> <PUBCHEM_PHARMACOPHORE_FEATURES>
9
1 4 acceptor
1 5 acceptor
1 6 acceptor
1 7 acceptor
1 9 cation
3 6 7 21 anion
6 24 25 26 27 28 29 rings
6 4 9 19 20 22 23 rings
6 8 10 11 12 13 15 rings

> <PUBCHEM_HEAVY_ATOM_COUNT>
30

> <PUBCHEM_ATOM_DEF_STEREO_COUNT>
2

> <PUBCHEM_ATOM_UDEF_STEREO_COUNT>
0

> <PUBCHEM_BOND_DEF_STEREO_COUNT>
0

> <PUBCHEM_BOND_UDEF_STEREO_COUNT>
0

> <PUBCHEM_ISOTOPIC_ATOM_COUNT>
0

> <PUBCHEM_COMPONENT_COUNT>
1

> <PUBCHEM_CACTVS_TAUTO_COUNT>
1

> <PUBCHEM_CONFORMER_ID>
01823ECB00000001

> <PUBCHEM_MMFF94_ENERGY>
61.9983

> <PUBCHEM_FEATURE_SELFOVERLAP>
45.729

> <PUBCHEM_SHAPE_FINGERPRINT>
11014199 57 17616815874632558698
11445158 3 17749957794596935741
11719270 70 18410854365433727819
12633257 1 18271247222166351912
12788726 201 17328316147679796463
13140716 1 18192435383663779321
13402501 40 18335422331423756208
1361 2 18411703166624960867
13692114 37 18268143344191856803
138480 1 17691124838454523494
14028597 1 17631751399954966937
14863182 85 18335714805563721142
14866123 147 18197214969722246879
15403338 16 17096068208882888626
16728300 4 17678995159273445442
1979834 28 18336842922111421409
19930381 70 18194966240429876394
20028762 73 18342739658674221503
21033648 29 18270948120438377336
21304304 249 18408605876828831332
22113638 7 18263363757800813268
22223350 30 17984134035516414203
22956985 138 18047755897542870046
238918 7 18411979140049057134
338550 245 18192436500872312391
38695281 34 18413107273507588259
4017518 198 18271817843258353414
5265222 85 18336556009796544844
59755656 215 18114460085296677193
66674814 147 18122884680875487727
86090 222 18341907251046830734

> <PUBCHEM_SHAPE_MULTIPOLES>
562.13
11.27
6
1.19
5.89
9.99
-0.12
-4.67
4.39
-2.27
-2.41
-0.34
-0.47
0.63

> <PUBCHEM_SHAPE_SELFOVERLAP>
1176.238

> <PUBCHEM_SHAPE_VOLUME>
317.8

> <PUBCHEM_COORDINATE_TYPE>
2
5
10

$$$$
