11883402
  -OEChem-12032416193D

 61 64  0     1  0  0  0  0  0999 V2000
    9.7576   -0.1342   -0.6862 F   0  0  0  0  0  0  0  0  0  0  0  0
   10.0279    2.0163   -0.6063 F   0  0  0  0  0  0  0  0  0  0  0  0
    8.9013    1.1248   -2.2388 F   0  0  0  0  0  0  0  0  0  0  0  0
    0.4277   -1.3950   -1.2597 O   0  0  0  0  0  0  0  0  0  0  0  0
   -0.5132   -3.3013    0.9504 O   0  0  0  0  0  0  0  0  0  0  0  0
    2.6282   -1.6662    0.4108 O   0  0  0  0  0  0  0  0  0  0  0  0
   -4.5357   -1.9114    0.0380 O   0  0  0  0  0  0  0  0  0  0  0  0
    2.9262    0.1760    1.7327 O   0  0  0  0  0  0  0  0  0  0  0  0
   -2.6464   -0.9536   -0.8889 N   0  0  0  0  0  0  0  0  0  0  0  0
   -4.5739    0.2913   -0.7728 N   0  0  0  0  0  0  0  0  0  0  0  0
    4.5841   -0.5545    0.2502 N   0  0  0  0  0  0  0  0  0  0  0  0
   -0.9785   -1.9946    0.5531 C   0  0  1  0  0  0  0  0  0  0  0  0
    0.2453   -1.1957    0.1520 C   0  0  1  0  0  0  0  0  0  0  0  0
   -1.7800   -2.0952   -0.7237 C   0  0  2  0  0  0  0  0  0  0  0  0
    1.3416   -1.8523    0.9561 C   0  0  1  0  0  0  0  0  0  0  0  0
   -0.6935   -2.1225   -1.7848 C   0  0  0  0  0  0  0  0  0  0  0  0
    0.9219   -3.3049    0.9413 C   0  0  0  0  0  0  0  0  0  0  0  0
   -3.9881   -0.9453   -0.4876 C   0  0  0  0  0  0  0  0  0  0  0  0
    3.3560   -0.5929    0.8816 C   0  0  0  0  0  0  0  0  0  0  0  0
   -5.9051    0.6991   -0.5240 C   0  0  0  0  0  0  0  0  0  0  0  0
    5.6297    0.3781    0.4365 C   0  0  0  0  0  0  0  0  0  0  0  0
   -6.3190    1.9829   -0.8797 C   0  0  0  0  0  0  0  0  0  0  0  0
   -6.8041   -0.1820    0.0772 C   0  0  0  0  0  0  0  0  0  0  0  0
   -8.5306    1.5044   -0.0332 C   0  0  0  0  0  0  0  0  0  0  0  0
   -9.9341    1.9354    0.2282 C   0  0  0  0  0  0  0  0  0  0  0  0
   -7.6317    2.3855   -0.6343 C   0  0  0  0  0  0  0  0  0  0  0  0
   -8.1167    0.2207    0.3227 C   0  0  0  0  0  0  0  0  0  0  0  0
    6.8109    0.2581   -0.2956 C   0  0  0  0  0  0  0  0  0  0  0  0
    5.4803    1.4184    1.3537 C   0  0  0  0  0  0  0  0  0  0  0  0
  -10.9639    1.0876   -0.5425 C   0  0  0  0  0  0  0  0  0  0  0  0
  -10.2793    1.9389    1.7295 C   0  0  0  0  0  0  0  0  0  0  0  0
    7.8428    1.1782   -0.1104 C   0  0  0  0  0  0  0  0  0  0  0  0
    6.5122    2.3385    1.5389 C   0  0  0  0  0  0  0  0  0  0  0  0
    7.6934    2.2185    0.8069 C   0  0  0  0  0  0  0  0  0  0  0  0
    9.1066    1.0489   -0.8915 C   0  0  0  0  0  0  0  0  0  0  0  0
   -1.5196   -1.5627    1.4010 H   0  0  0  0  0  0  0  0  0  0  0  0
    0.1551   -0.1197    0.3269 H   0  0  0  0  0  0  0  0  0  0  0  0
   -2.3859   -3.0063   -0.7727 H   0  0  0  0  0  0  0  0  0  0  0  0
    1.2857   -1.5082    1.9981 H   0  0  0  0  0  0  0  0  0  0  0  0
   -0.9965   -1.6824   -2.7399 H   0  0  0  0  0  0  0  0  0  0  0  0
   -0.3540   -3.1476   -1.9704 H   0  0  0  0  0  0  0  0  0  0  0  0
    1.2933   -3.8545    1.8116 H   0  0  0  0  0  0  0  0  0  0  0  0
    1.2689   -3.8293    0.0439 H   0  0  0  0  0  0  0  0  0  0  0  0
   -2.2484   -0.0937   -1.2544 H   0  0  0  0  0  0  0  0  0  0  0  0
   -3.9783    0.9876   -1.2139 H   0  0  0  0  0  0  0  0  0  0  0  0
    4.7610   -1.2862   -0.4337 H   0  0  0  0  0  0  0  0  0  0  0  0
   -5.6284    2.6792   -1.3487 H   0  0  0  0  0  0  0  0  0  0  0  0
   -6.5586   -1.1898    0.3807 H   0  0  0  0  0  0  0  0  0  0  0  0
  -10.0587    2.9694   -0.1216 H   0  0  0  0  0  0  0  0  0  0  0  0
   -7.9375    3.3890   -0.9179 H   0  0  0  0  0  0  0  0  0  0  0  0
   -8.8011   -0.4809    0.7919 H   0  0  0  0  0  0  0  0  0  0  0  0
    6.9311   -0.5520   -1.0113 H   0  0  0  0  0  0  0  0  0  0  0  0
    4.5959    1.5752    1.9556 H   0  0  0  0  0  0  0  0  0  0  0  0
  -11.9733    1.4897   -0.4029 H   0  0  0  0  0  0  0  0  0  0  0  0
  -10.7457    1.0918   -1.6162 H   0  0  0  0  0  0  0  0  0  0  0  0
  -10.9708    0.0454   -0.2056 H   0  0  0  0  0  0  0  0  0  0  0  0
   -9.5685    2.5556    2.2906 H   0  0  0  0  0  0  0  0  0  0  0  0
  -11.2818    2.3494    1.8918 H   0  0  0  0  0  0  0  0  0  0  0  0
  -10.2589    0.9306    2.1568 H   0  0  0  0  0  0  0  0  0  0  0  0
    6.3970    3.1489    2.2530 H   0  0  0  0  0  0  0  0  0  0  0  0
    8.4858    2.9447    0.9654 H   0  0  0  0  0  0  0  0  0  0  0  0
  1 35  1  0  0  0  0
  2 35  1  0  0  0  0
  3 35  1  0  0  0  0
  4 13  1  0  0  0  0
  4 16  1  0  0  0  0
  5 12  1  0  0  0  0
  5 17  1  0  0  0  0
  6 15  1  0  0  0  0
  6 19  1  0  0  0  0
  7 18  2  0  0  0  0
  8 19  2  0  0  0  0
  9 14  1  0  0  0  0
  9 18  1  0  0  0  0
  9 44  1  0  0  0  0
 10 18  1  0  0  0  0
 10 20  1  0  0  0  0
 10 45  1  0  0  0  0
 11 19  1  0  0  0  0
 11 21  1  0  0  0  0
 11 46  1  0  0  0  0
 12 13  1  0  0  0  0
 12 14  1  0  0  0  0
 12 36  1  0  0  0  0
 13 15  1  0  0  0  0
 13 37  1  0  0  0  0
 14 16  1  0  0  0  0
 14 38  1  0  0  0  0
 15 17  1  0  0  0  0
 15 39  1  0  0  0  0
 16 40  1  0  0  0  0
 16 41  1  0  0  0  0
 17 42  1  0  0  0  0
 17 43  1  0  0  0  0
 20 22  2  0  0  0  0
 20 23  1  0  0  0  0
 21 28  1  0  0  0  0
 21 29  2  0  0  0  0
 22 26  1  0  0  0  0
 22 47  1  0  0  0  0
 23 27  2  0  0  0  0
 23 48  1  0  0  0  0
 24 25  1  0  0  0  0
 24 26  2  0  0  0  0
 24 27  1  0  0  0  0
 25 30  1  0  0  0  0
 25 31  1  0  0  0  0
 25 49  1  0  0  0  0
 26 50  1  0  0  0  0
 27 51  1  0  0  0  0
 28 32  2  0  0  0  0
 28 52  1  0  0  0  0
 29 33  1  0  0  0  0
 29 53  1  0  0  0  0
 30 54  1  0  0  0  0
 30 55  1  0  0  0  0
 30 56  1  0  0  0  0
 31 57  1  0  0  0  0
 31 58  1  0  0  0  0
 31 59  1  0  0  0  0
 32 34  1  0  0  0  0
 32 35  1  0  0  0  0
 33 34  2  0  0  0  0
 33 60  1  0  0  0  0
 34 61  1  0  0  0  0
M  END
> <PUBCHEM_COMPOUND_CID>
11883402

> <PUBCHEM_CONFORMER_RMSD>
1.2

> <PUBCHEM_CONFORMER_DIVERSEORDER>
1
18
89
79
58
103
29
110
84
49
112
125
4
99
45
100
124
81
42
107
114
120
105
69
51
65
71
43
27
98
7
95
85
122
55
77
50
57
36
86
76
33
67
93
88
119
82
130
11
109
123
40
66
132
62
115
30
127
94
6
19
80
68
78
104
102
92
116
20
38
26
28
44
87
133
106
54
121
90
129
73
113
64
47
126
21
17
34
56
72
117
32
35
22
53
101
37
111
16
59
5
23
97
14
61
128
48
39
24
91
118
63
60
70
10
9
75
131
41
83
25
31
96
46
12
15
108
8
52
13
2
74
3

> <PUBCHEM_MMFF94_PARTIAL_CHARGES>
44
1 -0.34
10 -0.55
11 -0.55
12 0.28
13 0.28
14 0.3
15 0.28
16 0.28
17 0.28
18 0.69
19 0.78
2 -0.34
20 0.12
21 0.12
22 -0.15
23 -0.15
24 -0.14
25 0.14
26 -0.15
27 -0.15
28 -0.15
29 -0.15
3 -0.34
32 -0.14
33 -0.15
34 -0.15
35 1.16
4 -0.56
44 0.37
45 0.37
46 0.37
47 0.15
48 0.15
5 -0.56
50 0.15
51 0.15
52 0.15
53 0.15
6 -0.43
60 0.15
61 0.15
7 -0.57
8 -0.57
9 -0.73

> <PUBCHEM_EFFECTIVE_ROTOR_COUNT>
11.2

> <PUBCHEM_PHARMACOPHORE_FEATURES>
12
1 10 donor
1 11 donor
1 4 acceptor
1 5 acceptor
1 7 acceptor
1 8 acceptor
1 9 donor
3 25 30 31 hydrophobe
5 4 12 13 14 16 rings
5 5 12 13 15 17 rings
6 20 22 23 24 26 27 rings
6 21 28 29 32 33 34 rings

> <PUBCHEM_HEAVY_ATOM_COUNT>
35

> <PUBCHEM_ATOM_DEF_STEREO_COUNT>
4

> <PUBCHEM_ATOM_UDEF_STEREO_COUNT>
0

> <PUBCHEM_BOND_DEF_STEREO_COUNT>
0

> <PUBCHEM_BOND_UDEF_STEREO_COUNT>
0

> <PUBCHEM_ISOTOPIC_ATOM_COUNT>
0

> <PUBCHEM_COMPONENT_COUNT>
1

> <PUBCHEM_CACTVS_TAUTO_COUNT>
6

> <PUBCHEM_CONFORMER_ID>
00B5538A00000001

> <PUBCHEM_MMFF94_ENERGY>
94.3851

> <PUBCHEM_FEATURE_SELFOVERLAP>
61.665

> <PUBCHEM_SHAPE_FINGERPRINT>
10 15 18113896040559170691
10055352 69 18341609344163061969
10190206 1 17846504703160579880
106641 1 16008750208309042831
11409948 41 15625675916839150020
1200032 147 18186795881736524378
12013929 112 15051734162813118721
12202916 173 9943526336132424468
12539765 74 18343864402945393398
12838863 1 9583518715737913737
13008946 335 17749112183997646283
14026016 60 15482401850626361060
14201967 126 18334856125722809564
14359421 15 12391518572398198517
14400156 260 18336537284087164552
14617042 71 18410293588998015569
14664723 55 18202567293220071297
14747281 78 18410579457969324614
15183329 4 17132117961638093538
15320295 40 8502657017292949377
15326923 82 9727627307308356162
15347590 135 15502367911670164612
15350500 16 10231755586912273737
15392192 104 15285360600705335066
15510800 12 10881674664149891353
15690457 1 8862943879064521992
15706992 2 18334584538038998435
1577012 14 18411407427861341379
15840311 113 18409448046853985223
15890870 6 18408603656214986977
16992610 120 18335146405966876686
1754911 235 17988922280186134613
1768 4 18410857643142907273
17686467 74 18334289904226881355
19302320 297 17894914048727741212
19304671 126 17489294335390689784
2026 5 8935011377751404041
20505436 4 18342448241007223119
20766409 102 18342174407616257689
21095123 293 18113337522595878460
212700 22 9079113362929201073
21344244 78 16515692083563389575
21360443 89 9511467706728440868
21585482 111 18262512598737293797
22002106 203 10737293463428275369
23524908 199 17346323674737068252
23576562 1 17130406086547696489
23729398 52 18119243957590874466
24203241 11 12901844847173673201
24771293 8 18187362143014765631
25269216 80 17203029890830681287
2835820 33 18261674866378766379
2851757 41 9223231888083830697
3711267 37 18410583911117174408
3986486 107 17917428752734907800
3991529 128 18041005046023567141
4408954 87 12684808918589295784
44880568 143 18124029285950186672
4516262 110 18262788585230843607
474113 269 12391520771906425164
4760202 170 17131546259021631920
54039377 194 9511458923093013835
5718773 13 9439403553431582499
5719381 82 10015581718921025949
5758199 1 18259980479118676075
59682541 35 13334733540148570756
6081469 158 12103842367602648577
6201320 221 14189028709133865748
6438161 24 8358253757476473873
6673363 416 17988922276714431553
9689198 14 18412262843775995839
9937071 3 8718824315061070261
9962374 69 11242265068830479307

> <PUBCHEM_SHAPE_MULTIPOLES>
654.17
40.52
3.24
1.42
11.9
1.3
-0.06
-42.93
-3.87
0.11
0.61
-1.22
-0.13
-0.41

> <PUBCHEM_SHAPE_SELFOVERLAP>
1406.227

> <PUBCHEM_SHAPE_VOLUME>
362.5

> <PUBCHEM_COORDINATE_TYPE>
2
5
10

$$$$
