45361508
  -OEChem-12032416203D

 73 75  0     1  0  0  0  0  0999 V2000
   -0.9060   -2.6781   -1.2914 O   0  0  0  0  0  0  0  0  0  0  0  0
    4.0155   -2.8864    0.7839 O   0  0  0  0  0  0  0  0  0  0  0  0
   -5.9326    2.0263   -1.0978 O   0  0  0  0  0  0  0  0  0  0  0  0
   -8.5404    1.4656   -0.7343 O   0  0  0  0  0  0  0  0  0  0  0  0
    5.8325    3.7589    0.5800 O   0  0  0  0  0  0  0  0  0  0  0  0
   -5.2649    0.1902    0.1627 N   0  0  0  0  0  0  0  0  0  0  0  0
    3.5337   -1.8580   -1.2384 N   0  0  0  0  0  0  0  0  0  0  0  0
   -1.0909    0.1927    1.2184 C   0  0  1  0  0  0  0  0  0  0  0  0
   -1.5188   -0.7139    0.0168 C   0  0  2  0  0  0  0  0  0  0  0  0
   -3.0689   -0.9679    0.0324 C   0  0  1  0  0  0  0  0  0  0  0  0
   -0.6332   -1.9903   -0.0697 C   0  0  2  0  0  0  0  0  0  0  0  0
    0.4181    0.5155    1.1096 C   0  0  0  0  0  0  0  0  0  0  0  0
   -1.8646    1.5292    1.1423 C   0  0  0  0  0  0  0  0  0  0  0  0
    0.8789   -1.6658   -0.0733 C   0  0  1  0  0  0  0  0  0  0  0  0
   -3.8362    0.3842    0.0314 C   0  0  2  0  0  0  0  0  0  0  0  0
    1.2910   -0.7317    1.0644 C   0  0  0  0  0  0  0  0  0  0  0  0
   -3.3754    1.3450    1.1273 C   0  0  0  0  0  0  0  0  0  0  0  0
   -1.3593   -0.4747    2.5912 C   0  0  0  0  0  0  0  0  0  0  0  0
    1.7340   -2.9380   -0.0268 C   0  0  2  0  0  0  0  0  0  0  0  0
   -3.5635   -1.8307   -1.1409 C   0  0  0  0  0  0  0  0  0  0  0  0
    1.4151   -3.7390    1.2307 C   0  0  0  0  0  0  0  0  0  0  0  0
    3.2136   -2.5727   -0.0933 C   0  0  0  0  0  0  0  0  0  0  0  0
   -6.1931    1.0365   -0.4192 C   0  0  0  0  0  0  0  0  0  0  0  0
   -7.6110    0.5976   -0.1213 C   0  0  0  0  0  0  0  0  0  0  0  0
    4.8731   -1.3985   -1.5239 C   0  0  0  0  0  0  0  0  0  0  0  0
    5.1279   -0.0283   -0.9655 C   0  0  0  0  0  0  0  0  0  0  0  0
   -9.8852    1.0758   -0.4705 C   0  0  0  0  0  0  0  0  0  0  0  0
    4.5874    1.0933   -1.5943 C   0  0  0  0  0  0  0  0  0  0  0  0
    5.9054    0.1229    0.1827 C   0  0  0  0  0  0  0  0  0  0  0  0
    4.8244    2.3661   -1.0752 C   0  0  0  0  0  0  0  0  0  0  0  0
    6.1425    1.3955    0.7020 C   0  0  0  0  0  0  0  0  0  0  0  0
    5.6021    2.5171    0.0729 C   0  0  0  0  0  0  0  0  0  0  0  0
    5.2488    4.8615   -0.1127 C   0  0  0  0  0  0  0  0  0  0  0  0
   -1.3252   -0.1472   -0.9083 H   0  0  0  0  0  0  0  0  0  0  0  0
   -3.3289   -1.5173    0.9460 H   0  0  0  0  0  0  0  0  0  0  0  0
   -0.9222   -2.6524    0.7481 H   0  0  0  0  0  0  0  0  0  0  0  0
    0.6057    1.1052    0.2019 H   0  0  0  0  0  0  0  0  0  0  0  0
    0.7341    1.1441    1.9521 H   0  0  0  0  0  0  0  0  0  0  0  0
   -1.5914    2.1753    1.9862 H   0  0  0  0  0  0  0  0  0  0  0  0
   -1.5732    2.0727    0.2334 H   0  0  0  0  0  0  0  0  0  0  0  0
    1.0787   -1.1366   -1.0146 H   0  0  0  0  0  0  0  0  0  0  0  0
   -3.6568    0.8734   -0.9360 H   0  0  0  0  0  0  0  0  0  0  0  0
    1.2477   -1.2139    2.0431 H   0  0  0  0  0  0  0  0  0  0  0  0
    2.3276   -0.3982    0.9391 H   0  0  0  0  0  0  0  0  0  0  0  0
   -3.7221    0.9952    2.1074 H   0  0  0  0  0  0  0  0  0  0  0  0
   -3.8491    2.3251    0.9851 H   0  0  0  0  0  0  0  0  0  0  0  0
   -1.0050    0.1666    3.4068 H   0  0  0  0  0  0  0  0  0  0  0  0
   -0.8543   -1.4391    2.6941 H   0  0  0  0  0  0  0  0  0  0  0  0
   -2.4210   -0.6610    2.7722 H   0  0  0  0  0  0  0  0  0  0  0  0
    1.5230   -3.5667   -0.9015 H   0  0  0  0  0  0  0  0  0  0  0  0
   -3.2023   -1.4432   -2.0991 H   0  0  0  0  0  0  0  0  0  0  0  0
   -4.6566   -1.8676   -1.1895 H   0  0  0  0  0  0  0  0  0  0  0  0
   -3.2420   -2.8700   -1.0297 H   0  0  0  0  0  0  0  0  0  0  0  0
   -5.5912   -0.5645    0.7599 H   0  0  0  0  0  0  0  0  0  0  0  0
   -0.7056   -2.0765   -2.0286 H   0  0  0  0  0  0  0  0  0  0  0  0
    1.6197   -3.2095    2.1641 H   0  0  0  0  0  0  0  0  0  0  0  0
    2.0532   -4.6323    1.2574 H   0  0  0  0  0  0  0  0  0  0  0  0
    0.3906   -4.1169    1.2517 H   0  0  0  0  0  0  0  0  0  0  0  0
    2.8235   -1.6838   -1.9422 H   0  0  0  0  0  0  0  0  0  0  0  0
   -7.7549    0.6042    0.9654 H   0  0  0  0  0  0  0  0  0  0  0  0
   -7.7457   -0.4220   -0.5010 H   0  0  0  0  0  0  0  0  0  0  0  0
    5.5952   -2.1229   -1.1294 H   0  0  0  0  0  0  0  0  0  0  0  0
    4.9955   -1.3870   -2.6130 H   0  0  0  0  0  0  0  0  0  0  0  0
  -10.0770    0.0739   -0.8664 H   0  0  0  0  0  0  0  0  0  0  0  0
  -10.0866    1.1026    0.6047 H   0  0  0  0  0  0  0  0  0  0  0  0
  -10.5520    1.7837   -0.9698 H   0  0  0  0  0  0  0  0  0  0  0  0
    3.9795    0.9864   -2.4890 H   0  0  0  0  0  0  0  0  0  0  0  0
    6.3311   -0.7423    0.6840 H   0  0  0  0  0  0  0  0  0  0  0  0
    4.3741    3.1933   -1.6131 H   0  0  0  0  0  0  0  0  0  0  0  0
    6.7483    1.5070    1.5971 H   0  0  0  0  0  0  0  0  0  0  0  0
    5.6474    4.9551   -1.1285 H   0  0  0  0  0  0  0  0  0  0  0  0
    4.1547    4.8117   -0.0988 H   0  0  0  0  0  0  0  0  0  0  0  0
    5.5341    5.7701    0.4276 H   0  0  0  0  0  0  0  0  0  0  0  0
  1 11  1  0  0  0  0
  1 55  1  0  0  0  0
  2 22  2  0  0  0  0
  3 23  2  0  0  0  0
  4 24  1  0  0  0  0
  4 27  1  0  0  0  0
  5 32  1  0  0  0  0
  5 33  1  0  0  0  0
  6 15  1  0  0  0  0
  6 23  1  0  0  0  0
  6 54  1  0  0  0  0
  7 22  1  0  0  0  0
  7 25  1  0  0  0  0
  7 59  1  0  0  0  0
  8  9  1  0  0  0  0
  8 12  1  0  0  0  0
  8 13  1  0  0  0  0
  8 18  1  0  0  0  0
  9 10  1  0  0  0  0
  9 11  1  0  0  0  0
  9 34  1  0  0  0  0
 10 15  1  0  0  0  0
 10 20  1  0  0  0  0
 10 35  1  0  0  0  0
 11 14  1  0  0  0  0
 11 36  1  0  0  0  0
 12 16  1  0  0  0  0
 12 37  1  0  0  0  0
 12 38  1  0  0  0  0
 13 17  1  0  0  0  0
 13 39  1  0  0  0  0
 13 40  1  0  0  0  0
 14 16  1  0  0  0  0
 14 19  1  0  0  0  0
 14 41  1  0  0  0  0
 15 17  1  0  0  0  0
 15 42  1  0  0  0  0
 16 43  1  0  0  0  0
 16 44  1  0  0  0  0
 17 45  1  0  0  0  0
 17 46  1  0  0  0  0
 18 47  1  0  0  0  0
 18 48  1  0  0  0  0
 18 49  1  0  0  0  0
 19 21  1  0  0  0  0
 19 22  1  0  0  0  0
 19 50  1  0  0  0  0
 20 51  1  0  0  0  0
 20 52  1  0  0  0  0
 20 53  1  0  0  0  0
 21 56  1  0  0  0  0
 21 57  1  0  0  0  0
 21 58  1  0  0  0  0
 23 24  1  0  0  0  0
 24 60  1  0  0  0  0
 24 61  1  0  0  0  0
 25 26  1  0  0  0  0
 25 62  1  0  0  0  0
 25 63  1  0  0  0  0
 26 28  2  0  0  0  0
 26 29  1  0  0  0  0
 27 64  1  0  0  0  0
 27 65  1  0  0  0  0
 27 66  1  0  0  0  0
 28 30  1  0  0  0  0
 28 67  1  0  0  0  0
 29 31  2  0  0  0  0
 29 68  1  0  0  0  0
 30 32  2  0  0  0  0
 30 69  1  0  0  0  0
 31 32  1  0  0  0  0
 31 70  1  0  0  0  0
 33 71  1  0  0  0  0
 33 72  1  0  0  0  0
 33 73  1  0  0  0  0
M  END
> <PUBCHEM_COMPOUND_CID>
45361508

> <PUBCHEM_CONFORMER_RMSD>
1

> <PUBCHEM_CONFORMER_DIVERSEORDER>
1
22
26
3
28
66
41
59
61
77
34
2
70
73
10
69
50
75
14
30
46
65
37
32
48
31
74
72
19
39
78
29
63
56
40
7
53
64
43
27
21
16
71
6
44
60
54
51
24
68
42
4
45
38
52
12
17
57
23
15
36
49
13
9
11
67
76
35
33
8
20
25
55
47
62
18
58
5

> <PUBCHEM_MMFF94_PARTIAL_CHARGES>
29
1 -0.68
11 0.28
15 0.3
19 0.06
2 -0.57
22 0.57
23 0.57
24 0.34
25 0.44
26 -0.14
27 0.28
28 -0.15
29 -0.15
3 -0.57
30 -0.15
31 -0.15
32 0.08
33 0.28
4 -0.56
5 -0.36
54 0.37
55 0.4
59 0.37
6 -0.73
67 0.15
68 0.15
69 0.15
7 -0.73
70 0.15

> <PUBCHEM_EFFECTIVE_ROTOR_COUNT>
11.6

> <PUBCHEM_PHARMACOPHORE_FEATURES>
12
1 1 acceptor
1 1 donor
1 2 acceptor
1 21 hydrophobe
1 3 acceptor
1 4 acceptor
1 5 acceptor
1 6 donor
1 7 donor
6 26 28 29 30 31 32 rings
6 8 9 10 13 15 17 rings
6 8 9 11 12 14 16 rings

> <PUBCHEM_HEAVY_ATOM_COUNT>
33

> <PUBCHEM_ATOM_DEF_STEREO_COUNT>
6

> <PUBCHEM_ATOM_UDEF_STEREO_COUNT>
1

> <PUBCHEM_BOND_DEF_STEREO_COUNT>
0

> <PUBCHEM_BOND_UDEF_STEREO_COUNT>
0

> <PUBCHEM_ISOTOPIC_ATOM_COUNT>
0

> <PUBCHEM_COMPONENT_COUNT>
1

> <PUBCHEM_CACTVS_TAUTO_COUNT>
4

> <PUBCHEM_CONFORMER_ID>
02B4296400000001

> <PUBCHEM_MMFF94_ENERGY>
99.8855

> <PUBCHEM_FEATURE_SELFOVERLAP>
60.919

> <PUBCHEM_SHAPE_FINGERPRINT>
10673678 19 18412267228948271847
10675989 125 18413394250448604056
10816530 90 18341040874211847025
10928967 22 10014769136984110148
11007060 377 18261118487297988411
11135609 127 18410284817888566829
11135609 187 18198341951892068832
11211813 74 18409446956576201309
13150687 139 18130798841429773774
13165053 371 18335985268841455645
13617811 41 18343297063524722729
14117953 113 18413113875342126276
14556957 393 17346326951206953657
14790565 3 18271818877664456674
15082195 135 18341896251466462274
15183329 4 18201727253488438913
15840311 113 18409168783948852167
16120349 18 18335697218242252023
1813 80 11743844647235284610
19053607 189 17982162624950168256
19319366 153 18339075995546981627
20511986 3 18272364304462410470
20715895 44 18410574024687170328
21049683 118 17676485077575752834
21521721 280 18411144598202553595
21781055 127 15698015020556280993
21792934 111 11602817987595703103
23522609 53 17488202430244947089
23559900 14 17489296525285615427
23569914 2 17099418442609767133
3117164 225 11025782220174720614
3472631 163 18343586256973901742
34797466 226 18059298669083826087
3534868 343 17559686027219958318
3886686 26 10811824902260906518
4112364 45 18187351148082863624
4149490 64 18186522073087013627
44317340 157 18411425002978202214
44880168 125 13913418643821444520
5109719 28 18336274547266613409
5265222 85 18342737430245883095
6898599 12 18058729250804402607
9831232 110 11671783745502488321
9981440 41 18124598833074206010

> <PUBCHEM_SHAPE_MULTIPOLES>
639.82
21.16
4.38
1.5
36.92
1.36
-0.34
20.21
6.95
-8.38
-0.05
-0.28
-0.24
0.41

> <PUBCHEM_SHAPE_SELFOVERLAP>
1322.388

> <PUBCHEM_SHAPE_VOLUME>
363.6

> <PUBCHEM_COORDINATE_TYPE>
2
5
10

$$$$
