75536643
  -OEChem-12032416303D

 47 49  0     1  0  0  0  0  0999 V2000
    8.5128    1.6882    0.8075 F   0  0  0  0  0  0  0  0  0  0  0  0
    0.2819    0.7626   -0.0045 O   0  0  0  0  0  0  0  0  0  0  0  0
   -0.9862   -2.5801   -0.3568 O   0  0  0  0  0  0  0  0  0  0  0  0
    3.6335   -2.1970   -0.1228 O   0  0  0  0  0  0  0  0  0  0  0  0
   -5.1167    2.1713   -0.7163 O   0  0  0  0  0  0  0  0  0  0  0  0
   -3.1811   -0.3479   -0.0814 N   0  0  0  0  0  0  0  0  0  0  0  0
    2.7581   -0.2594   -1.0514 N   0  0  0  0  0  0  0  0  0  0  0  0
   -1.7815   -0.3707    0.3114 C   0  0  1  0  0  0  0  0  0  0  0  0
   -0.9026   -1.1917   -0.6139 C   0  0  1  0  0  0  0  0  0  0  0  0
    0.4749   -0.6346   -0.2808 C   0  0  1  0  0  0  0  0  0  0  0  0
   -1.1195    0.9945    0.2220 C   0  0  0  0  0  0  0  0  0  0  0  0
    1.4785   -0.8012   -1.4079 C   0  0  0  0  0  0  0  0  0  0  0  0
   -4.0215    0.1560    0.9984 C   0  0  0  0  0  0  0  0  0  0  0  0
   -5.4736    0.2024    0.6035 C   0  0  0  0  0  0  0  0  0  0  0  0
    3.7480   -1.0128   -0.4279 C   0  0  0  0  0  0  0  0  0  0  0  0
   -5.9524    1.2087   -0.2353 C   0  0  0  0  0  0  0  0  0  0  0  0
   -6.3430   -0.7758    1.0862 C   0  0  0  0  0  0  0  0  0  0  0  0
    5.0085   -0.2977   -0.1007 C   0  0  0  0  0  0  0  0  0  0  0  0
   -7.3008    1.2369   -0.5912 C   0  0  0  0  0  0  0  0  0  0  0  0
   -7.6915   -0.7474    0.7304 C   0  0  0  0  0  0  0  0  0  0  0  0
   -8.1704    0.2589   -0.1084 C   0  0  0  0  0  0  0  0  0  0  0  0
    5.7996   -0.7306    0.9636 C   0  0  0  0  0  0  0  0  0  0  0  0
    5.4013    0.8059   -0.8578 C   0  0  0  0  0  0  0  0  0  0  0  0
    6.9831   -0.0597    1.2708 C   0  0  0  0  0  0  0  0  0  0  0  0
    6.5849    1.4769   -0.5506 C   0  0  0  0  0  0  0  0  0  0  0  0
    7.3758    1.0442    0.5137 C   0  0  0  0  0  0  0  0  0  0  0  0
   -1.6788   -0.7783    1.3272 H   0  0  0  0  0  0  0  0  0  0  0  0
   -1.1589   -1.0108   -1.6653 H   0  0  0  0  0  0  0  0  0  0  0  0
    0.8698   -1.0968    0.6335 H   0  0  0  0  0  0  0  0  0  0  0  0
   -1.4904    1.5828   -0.6253 H   0  0  0  0  0  0  0  0  0  0  0  0
   -1.2459    1.5861    1.1338 H   0  0  0  0  0  0  0  0  0  0  0  0
    1.1512   -0.2538   -2.2987 H   0  0  0  0  0  0  0  0  0  0  0  0
    1.5916   -1.8581   -1.6716 H   0  0  0  0  0  0  0  0  0  0  0  0
   -3.4770   -1.2961   -0.3149 H   0  0  0  0  0  0  0  0  0  0  0  0
   -3.7139    1.1657    1.2988 H   0  0  0  0  0  0  0  0  0  0  0  0
   -3.9079   -0.4725    1.8916 H   0  0  0  0  0  0  0  0  0  0  0  0
   -0.7592   -2.7325    0.5761 H   0  0  0  0  0  0  0  0  0  0  0  0
    2.8919    0.7331   -1.2119 H   0  0  0  0  0  0  0  0  0  0  0  0
   -5.9849   -1.5678    1.7385 H   0  0  0  0  0  0  0  0  0  0  0  0
   -7.6876    2.0149   -1.2440 H   0  0  0  0  0  0  0  0  0  0  0  0
   -8.3685   -1.5092    1.1057 H   0  0  0  0  0  0  0  0  0  0  0  0
   -9.2203    0.2807   -0.3857 H   0  0  0  0  0  0  0  0  0  0  0  0
    5.5087   -1.5856    1.5681 H   0  0  0  0  0  0  0  0  0  0  0  0
    4.8312    1.1565   -1.7129 H   0  0  0  0  0  0  0  0  0  0  0  0
   -5.6248    2.7807   -1.2789 H   0  0  0  0  0  0  0  0  0  0  0  0
    7.5990   -0.3956    2.0998 H   0  0  0  0  0  0  0  0  0  0  0  0
    6.8950    2.3321   -1.1439 H   0  0  0  0  0  0  0  0  0  0  0  0
  1 26  1  0  0  0  0
  2 10  1  0  0  0  0
  2 11  1  0  0  0  0
  3  9  1  0  0  0  0
  3 37  1  0  0  0  0
  4 15  2  0  0  0  0
  5 16  1  0  0  0  0
  5 45  1  0  0  0  0
  6  8  1  0  0  0  0
  6 13  1  0  0  0  0
  6 34  1  0  0  0  0
  7 12  1  0  0  0  0
  7 15  1  0  0  0  0
  7 38  1  0  0  0  0
  8  9  1  0  0  0  0
  8 11  1  0  0  0  0
  8 27  1  0  0  0  0
  9 10  1  0  0  0  0
  9 28  1  0  0  0  0
 10 12  1  0  0  0  0
 10 29  1  0  0  0  0
 11 30  1  0  0  0  0
 11 31  1  0  0  0  0
 12 32  1  0  0  0  0
 12 33  1  0  0  0  0
 13 14  1  0  0  0  0
 13 35  1  0  0  0  0
 13 36  1  0  0  0  0
 14 16  1  0  0  0  0
 14 17  2  0  0  0  0
 15 18  1  0  0  0  0
 16 19  2  0  0  0  0
 17 20  1  0  0  0  0
 17 39  1  0  0  0  0
 18 22  2  0  0  0  0
 18 23  1  0  0  0  0
 19 21  1  0  0  0  0
 19 40  1  0  0  0  0
 20 21  2  0  0  0  0
 20 41  1  0  0  0  0
 21 42  1  0  0  0  0
 22 24  1  0  0  0  0
 22 43  1  0  0  0  0
 23 25  2  0  0  0  0
 23 44  1  0  0  0  0
 24 26  2  0  0  0  0
 24 46  1  0  0  0  0
 25 26  1  0  0  0  0
 25 47  1  0  0  0  0
M  END
> <PUBCHEM_COMPOUND_CID>
75536643

> <PUBCHEM_CONFORMER_RMSD>
1

> <PUBCHEM_CONFORMER_DIVERSEORDER>
1
146
6
129
206
82
76
214
177
143
102
180
105
192
164
63
204
32
171
131
120
156
210
33
119
41
168
92
157
179
117
14
43
173
21
26
198
112
96
160
123
191
135
218
90
48
203
40
100
83
103
151
207
217
37
154
165
56
10
11
212
115
47
147
152
58
59
13
34
71
188
138
74
144
61
166
190
12
97
54
209
155
79
44
95
84
134
5
194
88
213
167
30
45
3
81
17
182
35
205
220
193
128
70
187
52
22
104
69
149
108
106
121
163
15
140
127
86
145
114
60
39
159
80
199
211
137
186
172
208
178
94
91
101
153
201
132
73
197
113
200
174
219
25
125
162
148
133
42
150
50
110
67
141
185
195
202
136
184
29
53
130
189
215
183
51
161
9
93
7
89
49
72
111
170
107
20
64
216
158
23
65
126
18
99
4
66
36
196
27
142
181
176
28
169
122
124
78
31
85
109
175
24
139
16
55
118
98
2
87
57
116
68
77
19
75
38
8
46
62

> <PUBCHEM_MMFF94_PARTIAL_CHARGES>
38
1 -0.19
10 0.28
11 0.28
12 0.3
13 0.41
14 -0.14
15 0.54
16 0.08
17 -0.15
18 0.09
19 -0.15
2 -0.56
20 -0.15
21 -0.15
22 -0.15
23 -0.15
24 -0.15
25 -0.15
26 0.19
3 -0.68
34 0.36
37 0.4
38 0.37
39 0.15
4 -0.57
40 0.15
41 0.15
42 0.15
43 0.15
44 0.15
45 0.45
46 0.15
47 0.15
5 -0.53
6 -0.9
7 -0.73
8 0.27
9 0.28

> <PUBCHEM_EFFECTIVE_ROTOR_COUNT>
8

> <PUBCHEM_PHARMACOPHORE_FEATURES>
11
1 2 acceptor
1 3 acceptor
1 3 donor
1 4 acceptor
1 5 donor
1 6 cation
1 6 donor
1 7 donor
5 2 8 9 10 11 rings
6 14 16 17 19 20 21 rings
6 18 22 23 24 25 26 rings

> <PUBCHEM_HEAVY_ATOM_COUNT>
26

> <PUBCHEM_ATOM_DEF_STEREO_COUNT>
3

> <PUBCHEM_ATOM_UDEF_STEREO_COUNT>
0

> <PUBCHEM_BOND_DEF_STEREO_COUNT>
0

> <PUBCHEM_BOND_UDEF_STEREO_COUNT>
0

> <PUBCHEM_ISOTOPIC_ATOM_COUNT>
0

> <PUBCHEM_COMPONENT_COUNT>
1

> <PUBCHEM_CACTVS_TAUTO_COUNT>
6

> <PUBCHEM_CONFORMER_ID>
0480990300000001

> <PUBCHEM_MMFF94_ENERGY>
60.2239

> <PUBCHEM_FEATURE_SELFOVERLAP>
55.822

> <PUBCHEM_SHAPE_FINGERPRINT>
10 15 18408604768447856370
10162869 55 18339636841250277727
106641 1 18411984693378285699
11315181 36 18060140926131366913
11638347 137 17821445738637818586
11719270 70 18408889516295635342
125118 31 18335141960058890748
12592606 108 11458431253911614609
13533116 47 17203053967726661222
13914758 101 16226046669937254525
14123256 10 17275386499331134737
14216079 64 12540689319512486272
14251764 18 17821449070957245111
14347424 109 15719398364941477940
14428016 86 17847065480809666054
15131766 46 17098920535941444916
15183329 4 17489869336468266689
15419008 47 18342171155334101753
15849732 13 18407762538483266503
16090146 7 14333136328775433174
17093844 174 17821730529719444121
1754911 235 15339120134865781521
20105231 36 11600003271745600541
20157964 124 18272373040642603334
20554085 129 18060128839323847410
21130935 74 18336834070232037595
21150785 3 14261352457567037464
21365058 27 15626224615801036725
220451 1 14045741483230120389
221357 26 12535632661621627154
22224240 67 18202565085474830143
23035841 295 10519984846973752005
23081809 10 16343145714841567775
246663 6 10737283541394074308
24771293 8 18060708281682497545
249057 25 16878239592855130133
28498 318 11674873403066925010
34797466 226 14836405834997483328
4339292 15 18337673144477080347
4340502 62 17603305938464049570
5470011 282 11024106564838514416
5758199 1 16988567892368570391
59682541 35 18408323319251395544
636775 72 18339361848029128041
6394761 36 11963390743680587685
6438161 24 9655583985726197908

> <PUBCHEM_SHAPE_MULTIPOLES>
494.35
27.49
1.73
1.08
0.96
0.17
0.04
-9.91
6.26
-0.43
-0.26
-0.59
0.06
0.97

> <PUBCHEM_SHAPE_SELFOVERLAP>
1053.688

> <PUBCHEM_SHAPE_VOLUME>
275.4

> <PUBCHEM_COORDINATE_TYPE>
2
5
10

$$$$
