7114631
  -OEChem-12032416123D

 65 67  0     1  0  0  0  0  0999 V2000
   -1.7350    0.0685   -1.8315 O   0  0  0  0  0  0  0  0  0  0  0  0
   -4.8462   -2.6305   -0.5113 O   0  0  0  0  0  0  0  0  0  0  0  0
   -5.8229   -1.2327    1.3504 O   0  0  0  0  0  0  0  0  0  0  0  0
    2.9059   -1.4873   -0.9629 O   0  0  0  0  0  0  0  0  0  0  0  0
    5.0535   -2.9446   -0.2485 O   0  0  0  0  0  0  0  0  0  0  0  0
   -3.3876    3.1293    0.1086 O   0  0  0  0  0  0  0  0  0  0  0  0
   -2.6427   -1.9190   -0.2677 N   0  0  0  0  0  0  0  0  0  0  0  0
    1.4279   -3.1540   -0.2927 N   0  0  0  0  0  0  0  0  0  0  0  0
   -1.2815    1.3640    0.0486 N   0  0  0  0  0  0  0  0  0  0  0  0
    3.3175    3.2517   -0.9512 N   0  0  0  0  0  0  0  0  0  0  0  0
   -2.6565    4.0143   -1.8810 N   0  0  0  0  0  0  0  0  0  0  0  0
    0.2015   -2.4713   -0.6273 C   0  0  2  0  0  0  0  0  0  0  0  0
   -1.6600   -0.9876    0.3098 C   0  0  1  0  0  0  0  0  0  0  0  0
   -0.2921   -1.6293    0.5527 C   0  0  0  0  0  0  0  0  0  0  0  0
   -0.8727   -3.4709   -1.0501 C   0  0  0  0  0  0  0  0  0  0  0  0
   -2.1782   -2.7588   -1.3783 C   0  0  0  0  0  0  0  0  0  0  0  0
   -1.5750    0.1878   -0.6196 C   0  0  0  0  0  0  0  0  0  0  0  0
   -4.0014   -1.9432    0.0688 C   0  0  0  0  0  0  0  0  0  0  0  0
   -1.1228    2.6350   -0.6207 C   0  0  2  0  0  0  0  0  0  0  0  0
    2.6836   -2.5989   -0.4909 C   0  0  0  0  0  0  0  0  0  0  0  0
   -0.1786    3.5768    0.1372 C   0  0  0  0  0  0  0  0  0  0  0  0
   -4.4311   -1.0733    1.2240 C   0  0  0  0  0  0  0  0  0  0  0  0
    1.2728    3.2616   -0.0873 C   0  0  0  0  0  0  0  0  0  0  0  0
   -2.5079    3.2537   -0.7403 C   0  0  0  0  0  0  0  0  0  0  0  0
    3.7874   -3.5365   -0.0495 C   0  0  0  0  0  0  0  0  0  0  0  0
    2.0771    2.3760    0.6833 C   0  0  0  0  0  0  0  0  0  0  0  0
    2.0635    3.7846   -1.0846 C   0  0  0  0  0  0  0  0  0  0  0  0
    3.3550    2.3881    0.1202 C   0  0  0  0  0  0  0  0  0  0  0  0
    1.8397    1.5628    1.8092 C   0  0  0  0  0  0  0  0  0  0  0  0
    4.4118    1.6245    0.6290 C   0  0  0  0  0  0  0  0  0  0  0  0
   -6.3573   -0.4536    2.4194 C   0  0  0  0  0  0  0  0  0  0  0  0
    2.8871    0.7936    2.3289 C   0  0  0  0  0  0  0  0  0  0  0  0
    4.1526    0.8255    1.7462 C   0  0  0  0  0  0  0  0  0  0  0  0
    6.1125   -3.8061    0.1590 C   0  0  0  0  0  0  0  0  0  0  0  0
    0.4131   -1.8029   -1.4717 H   0  0  0  0  0  0  0  0  0  0  0  0
   -2.0243   -0.6330    1.2781 H   0  0  0  0  0  0  0  0  0  0  0  0
   -0.3679   -2.2774    1.4370 H   0  0  0  0  0  0  0  0  0  0  0  0
    0.4530   -0.8646    0.7990 H   0  0  0  0  0  0  0  0  0  0  0  0
   -1.0451   -4.1958   -0.2434 H   0  0  0  0  0  0  0  0  0  0  0  0
   -0.5353   -4.0455   -1.9212 H   0  0  0  0  0  0  0  0  0  0  0  0
   -2.0749   -2.1530   -2.2821 H   0  0  0  0  0  0  0  0  0  0  0  0
   -2.9355   -3.5156   -1.6118 H   0  0  0  0  0  0  0  0  0  0  0  0
    1.3599   -4.0607    0.1613 H   0  0  0  0  0  0  0  0  0  0  0  0
   -1.2324    1.3560    1.0632 H   0  0  0  0  0  0  0  0  0  0  0  0
   -0.7402    2.4401   -1.6310 H   0  0  0  0  0  0  0  0  0  0  0  0
   -0.3526    4.6127   -0.1846 H   0  0  0  0  0  0  0  0  0  0  0  0
   -0.3996    3.5616    1.2125 H   0  0  0  0  0  0  0  0  0  0  0  0
   -3.9306   -1.4085    2.1382 H   0  0  0  0  0  0  0  0  0  0  0  0
   -4.1963   -0.0266    1.0062 H   0  0  0  0  0  0  0  0  0  0  0  0
    3.7108   -4.4609   -0.6336 H   0  0  0  0  0  0  0  0  0  0  0  0
    3.6451   -3.7636    1.0135 H   0  0  0  0  0  0  0  0  0  0  0  0
    1.8475    4.4867   -1.8778 H   0  0  0  0  0  0  0  0  0  0  0  0
    4.1026    3.4613   -1.5521 H   0  0  0  0  0  0  0  0  0  0  0  0
    0.8613    1.5270    2.2792 H   0  0  0  0  0  0  0  0  0  0  0  0
   -3.5287    4.4943   -2.0763 H   0  0  0  0  0  0  0  0  0  0  0  0
   -1.9127    4.1273   -2.5623 H   0  0  0  0  0  0  0  0  0  0  0  0
    5.3969    1.6477    0.1754 H   0  0  0  0  0  0  0  0  0  0  0  0
   -5.9149   -0.7603    3.3720 H   0  0  0  0  0  0  0  0  0  0  0  0
   -6.1752    0.6108    2.2426 H   0  0  0  0  0  0  0  0  0  0  0  0
   -7.4363   -0.6236    2.4615 H   0  0  0  0  0  0  0  0  0  0  0  0
    2.7094    0.1635    3.1964 H   0  0  0  0  0  0  0  0  0  0  0  0
    4.9512    0.2183    2.1650 H   0  0  0  0  0  0  0  0  0  0  0  0
    7.0609   -3.2926   -0.0199 H   0  0  0  0  0  0  0  0  0  0  0  0
    6.0986   -4.7311   -0.4253 H   0  0  0  0  0  0  0  0  0  0  0  0
    6.0317   -4.0318    1.2266 H   0  0  0  0  0  0  0  0  0  0  0  0
  1 17  2  0  0  0  0
  2 18  2  0  0  0  0
  3 22  1  0  0  0  0
  3 31  1  0  0  0  0
  4 20  2  0  0  0  0
  5 25  1  0  0  0  0
  5 34  1  0  0  0  0
  6 24  2  0  0  0  0
  7 13  1  0  0  0  0
  7 16  1  0  0  0  0
  7 18  1  0  0  0  0
  8 12  1  0  0  0  0
  8 20  1  0  0  0  0
  8 43  1  0  0  0  0
  9 17  1  0  0  0  0
  9 19  1  0  0  0  0
  9 44  1  0  0  0  0
 10 27  1  0  0  0  0
 10 28  1  0  0  0  0
 10 53  1  0  0  0  0
 11 24  1  0  0  0  0
 11 55  1  0  0  0  0
 11 56  1  0  0  0  0
 12 14  1  0  0  0  0
 12 15  1  0  0  0  0
 12 35  1  0  0  0  0
 13 14  1  0  0  0  0
 13 17  1  0  0  0  0
 13 36  1  0  0  0  0
 14 37  1  0  0  0  0
 14 38  1  0  0  0  0
 15 16  1  0  0  0  0
 15 39  1  0  0  0  0
 15 40  1  0  0  0  0
 16 41  1  0  0  0  0
 16 42  1  0  0  0  0
 18 22  1  0  0  0  0
 19 21  1  0  0  0  0
 19 24  1  0  0  0  0
 19 45  1  0  0  0  0
 20 25  1  0  0  0  0
 21 23  1  0  0  0  0
 21 46  1  0  0  0  0
 21 47  1  0  0  0  0
 22 48  1  0  0  0  0
 22 49  1  0  0  0  0
 23 26  1  0  0  0  0
 23 27  2  0  0  0  0
 25 50  1  0  0  0  0
 25 51  1  0  0  0  0
 26 28  1  0  0  0  0
 26 29  2  0  0  0  0
 27 52  1  0  0  0  0
 28 30  2  0  0  0  0
 29 32  1  0  0  0  0
 29 54  1  0  0  0  0
 30 33  1  0  0  0  0
 30 57  1  0  0  0  0
 31 58  1  0  0  0  0
 31 59  1  0  0  0  0
 31 60  1  0  0  0  0
 32 33  2  0  0  0  0
 32 61  1  0  0  0  0
 33 62  1  0  0  0  0
 34 63  1  0  0  0  0
 34 64  1  0  0  0  0
 34 65  1  0  0  0  0
M  END
> <PUBCHEM_COMPOUND_CID>
7114631

> <PUBCHEM_CONFORMER_RMSD>
1.2

> <PUBCHEM_CONFORMER_DIVERSEORDER>
1
17
23
19
29
21
16
34
11
5
14
24
7
22
30
15
28
8
18
31
6
3
26
4
10
33
9
25
35
12
13
32
2
27
20

> <PUBCHEM_MMFF94_PARTIAL_CHARGES>
41
1 -0.57
10 0.03
11 -0.8
12 0.3
13 0.36
16 0.3
17 0.57
18 0.57
19 0.36
2 -0.57
20 0.57
21 0.18
22 0.34
23 -0.18
24 0.57
25 0.34
27 -0.3
28 -0.15
29 -0.15
3 -0.56
30 -0.15
31 0.28
32 -0.15
33 -0.15
34 0.28
4 -0.57
43 0.37
44 0.37
5 -0.56
52 0.15
53 0.27
54 0.15
55 0.37
56 0.37
57 0.15
6 -0.57
61 0.15
62 0.15
7 -0.66
8 -0.73
9 -0.73

> <PUBCHEM_EFFECTIVE_ROTOR_COUNT>
14.2

> <PUBCHEM_PHARMACOPHORE_FEATURES>
14
1 1 acceptor
1 10 cation
1 10 donor
1 11 donor
1 2 acceptor
1 3 acceptor
1 4 acceptor
1 5 acceptor
1 6 acceptor
1 8 donor
1 9 donor
5 10 23 26 27 28 rings
6 26 28 29 30 32 33 rings
6 7 12 13 14 15 16 rings

> <PUBCHEM_HEAVY_ATOM_COUNT>
34

> <PUBCHEM_ATOM_DEF_STEREO_COUNT>
3

> <PUBCHEM_ATOM_UDEF_STEREO_COUNT>
0

> <PUBCHEM_BOND_DEF_STEREO_COUNT>
0

> <PUBCHEM_BOND_UDEF_STEREO_COUNT>
0

> <PUBCHEM_ISOTOPIC_ATOM_COUNT>
0

> <PUBCHEM_COMPONENT_COUNT>
1

> <PUBCHEM_CACTVS_TAUTO_COUNT>
8

> <PUBCHEM_CONFORMER_ID>
006C8F8700000001

> <PUBCHEM_MMFF94_ENERGY>
70.7425

> <PUBCHEM_FEATURE_SELFOVERLAP>
71.166

> <PUBCHEM_SHAPE_FINGERPRINT>
1100329 8 18123468276319897460
11135609 12 18408882915336797912
12422481 6 18410866447488299705
12553582 1 17903903805708809933
12633257 1 18049711116704758980
12788726 201 18193842763196487681
13140716 1 18269836406828864672
14114211 80 17760663855016754764
14932702 115 18127975197038097244
15420108 30 18059586836326575783
17818456 19 17696485348930393961
20101258 96 18266744584310858051
20764821 26 18339077090952630572
20775438 99 17836323157268654719
20775530 9 18341887451548165858
21421861 104 18263086663654262849
42626532 9 17824290174786761867
463206 1 17324065418557689648

> <PUBCHEM_SHAPE_MULTIPOLES>
639.58
10.9
6.83
1.7
4.4
0.87
-0.71
-7.43
-5.14
-4.4
2.77
0.98
0.54
1.15

> <PUBCHEM_SHAPE_SELFOVERLAP>
1339.186

> <PUBCHEM_SHAPE_VOLUME>
359.1

> <PUBCHEM_COORDINATE_TYPE>
2
5
10

$$$$
