71694019
  -OEChem-12032416293D

 46 48  0     1  0  0  0  0  0999 V2000
   -0.4587    2.8945    0.0568 S   0  0  0  0  0  0  0  0  0  0  0  0
   -3.1497   -0.3329    2.0673 O   0  0  0  0  0  0  0  0  0  0  0  0
   -5.1300   -1.0544    0.2875 O   0  0  0  0  0  0  0  0  0  0  0  0
   -0.6234    3.1724    1.4709 O   0  0  0  0  0  0  0  0  0  0  0  0
   -0.4086    3.9837   -0.8996 O   0  0  0  0  0  0  0  0  0  0  0  0
   -1.6405    1.7813   -0.4421 N   0  0  0  0  0  0  0  0  0  0  0  0
    3.6007   -0.9772    2.7062 N   0  0  0  0  0  0  0  0  0  0  0  0
   -1.6295   -0.6800   -0.7408 C   0  0  2  0  0  0  0  0  0  0  0  0
   -1.7877    0.4865    0.2732 C   0  0  2  0  0  0  0  0  0  0  0  0
   -3.2135    0.3699    0.8274 C   0  0  1  0  0  0  0  0  0  0  0  0
   -2.9287   -1.4961   -0.6312 C   0  0  0  0  0  0  0  0  0  0  0  0
   -3.9569   -0.4535   -0.2209 C   0  0  1  0  0  0  0  0  0  0  0  0
   -0.3853   -1.5141   -0.5303 C   0  0  0  0  0  0  0  0  0  0  0  0
    0.5648   -1.6538   -1.5420 C   0  0  0  0  0  0  0  0  0  0  0  0
   -0.1953   -2.1489    0.6973 C   0  0  0  0  0  0  0  0  0  0  0  0
    1.7048   -2.4281   -1.3263 C   0  0  0  0  0  0  0  0  0  0  0  0
    1.0289    1.9613   -0.1453 C   0  0  0  0  0  0  0  0  0  0  0  0
    0.3833   -0.9840   -2.8645 C   0  0  0  0  0  0  0  0  0  0  0  0
    0.9449   -2.9230    0.9131 C   0  0  0  0  0  0  0  0  0  0  0  0
    1.8948   -3.0628   -0.0987 C   0  0  0  0  0  0  0  0  0  0  0  0
    1.5182    1.1903    0.9091 C   0  0  0  0  0  0  0  0  0  0  0  0
    1.7142    1.9970   -1.3599 C   0  0  0  0  0  0  0  0  0  0  0  0
    2.6928    0.4550    0.7492 C   0  0  0  0  0  0  0  0  0  0  0  0
    2.8885    1.2615   -1.5200 C   0  0  0  0  0  0  0  0  0  0  0  0
    3.3780    0.4907   -0.4654 C   0  0  0  0  0  0  0  0  0  0  0  0
    3.1938   -0.3354    1.8290 C   0  0  0  0  0  0  0  0  0  0  0  0
   -1.6417   -0.2551   -1.7494 H   0  0  0  0  0  0  0  0  0  0  0  0
   -1.0732    0.4264    1.0964 H   0  0  0  0  0  0  0  0  0  0  0  0
   -3.7065    1.3295    1.0138 H   0  0  0  0  0  0  0  0  0  0  0  0
   -3.1925   -1.9748   -1.5810 H   0  0  0  0  0  0  0  0  0  0  0  0
   -2.8784   -2.2998    0.1133 H   0  0  0  0  0  0  0  0  0  0  0  0
   -4.2239    0.1766   -1.0780 H   0  0  0  0  0  0  0  0  0  0  0  0
   -2.1118    1.8853   -1.3484 H   0  0  0  0  0  0  0  0  0  0  0  0
   -2.6663    0.2293    2.6965 H   0  0  0  0  0  0  0  0  0  0  0  0
   -5.4917   -1.6265   -0.4106 H   0  0  0  0  0  0  0  0  0  0  0  0
   -0.9192   -2.0528    1.5014 H   0  0  0  0  0  0  0  0  0  0  0  0
    2.4550   -2.5475   -2.1035 H   0  0  0  0  0  0  0  0  0  0  0  0
   -0.4632   -1.4264   -3.4005 H   0  0  0  0  0  0  0  0  0  0  0  0
    0.2258    0.0921   -2.7614 H   0  0  0  0  0  0  0  0  0  0  0  0
    1.2666   -1.1098   -3.5009 H   0  0  0  0  0  0  0  0  0  0  0  0
    1.0939   -3.4158    1.8694 H   0  0  0  0  0  0  0  0  0  0  0  0
    2.7831   -3.6644    0.0700 H   0  0  0  0  0  0  0  0  0  0  0  0
    0.9958    1.1623    1.8623 H   0  0  0  0  0  0  0  0  0  0  0  0
    1.3474    2.5841   -2.1969 H   0  0  0  0  0  0  0  0  0  0  0  0
    3.4200    1.2862   -2.4668 H   0  0  0  0  0  0  0  0  0  0  0  0
    4.2939   -0.0783   -0.6061 H   0  0  0  0  0  0  0  0  0  0  0  0
  1  4  2  0  0  0  0
  1  5  2  0  0  0  0
  1  6  1  0  0  0  0
  1 17  1  0  0  0  0
  2 10  1  0  0  0  0
  2 34  1  0  0  0  0
  3 12  1  0  0  0  0
  3 35  1  0  0  0  0
  6  9  1  0  0  0  0
  6 33  1  0  0  0  0
  7 26  3  0  0  0  0
  8  9  1  0  0  0  0
  8 11  1  0  0  0  0
  8 13  1  0  0  0  0
  8 27  1  0  0  0  0
  9 10  1  0  0  0  0
  9 28  1  0  0  0  0
 10 12  1  0  0  0  0
 10 29  1  0  0  0  0
 11 12  1  0  0  0  0
 11 30  1  0  0  0  0
 11 31  1  0  0  0  0
 12 32  1  0  0  0  0
 13 14  1  0  0  0  0
 13 15  2  0  0  0  0
 14 16  2  0  0  0  0
 14 18  1  0  0  0  0
 15 19  1  0  0  0  0
 15 36  1  0  0  0  0
 16 20  1  0  0  0  0
 16 37  1  0  0  0  0
 17 21  1  0  0  0  0
 17 22  2  0  0  0  0
 18 38  1  0  0  0  0
 18 39  1  0  0  0  0
 18 40  1  0  0  0  0
 19 20  2  0  0  0  0
 19 41  1  0  0  0  0
 20 42  1  0  0  0  0
 21 23  2  0  0  0  0
 21 43  1  0  0  0  0
 22 24  1  0  0  0  0
 22 44  1  0  0  0  0
 23 25  1  0  0  0  0
 23 26  1  0  0  0  0
 24 25  2  0  0  0  0
 24 45  1  0  0  0  0
 25 46  1  0  0  0  0
M  END
> <PUBCHEM_COMPOUND_CID>
71694019

> <PUBCHEM_CONFORMER_RMSD>
0.8

> <PUBCHEM_CONFORMER_DIVERSEORDER>
1
47
20
12
28
8
3
13
44
24
10
18
36
19
43
25
4
42
35
31
14
26
27
41
17
29
11
39
6
34
22
2
45
33
23
30
16
46
7
37
40
21
15
32
5
38
9

> <PUBCHEM_MMFF94_PARTIAL_CHARGES>
36
1 1.45
10 0.28
12 0.28
13 -0.14
14 -0.14
15 -0.15
16 -0.15
17 -0.01
18 0.14
19 -0.15
2 -0.68
20 -0.15
21 -0.15
22 -0.15
23 0.07
24 -0.15
25 -0.15
26 0.48
3 -0.68
33 0.42
34 0.4
35 0.4
36 0.15
37 0.15
4 -0.65
41 0.15
42 0.15
43 0.15
44 0.15
45 0.15
46 0.15
5 -0.65
6 -0.91
7 -0.56
8 0.14
9 0.36

> <PUBCHEM_EFFECTIVE_ROTOR_COUNT>
5

> <PUBCHEM_PHARMACOPHORE_FEATURES>
11
1 2 acceptor
1 2 donor
1 3 acceptor
1 3 donor
1 4 acceptor
1 5 acceptor
1 6 donor
1 7 acceptor
5 8 9 10 11 12 rings
6 13 14 15 16 19 20 rings
6 17 21 22 23 24 25 rings

> <PUBCHEM_HEAVY_ATOM_COUNT>
26

> <PUBCHEM_ATOM_DEF_STEREO_COUNT>
4

> <PUBCHEM_ATOM_UDEF_STEREO_COUNT>
0

> <PUBCHEM_BOND_DEF_STEREO_COUNT>
0

> <PUBCHEM_BOND_UDEF_STEREO_COUNT>
0

> <PUBCHEM_ISOTOPIC_ATOM_COUNT>
0

> <PUBCHEM_COMPONENT_COUNT>
1

> <PUBCHEM_CACTVS_TAUTO_COUNT>
1

> <PUBCHEM_CONFORMER_ID>
0445F6C300000001

> <PUBCHEM_MMFF94_ENERGY>
58.9319

> <PUBCHEM_FEATURE_SELFOVERLAP>
55.851

> <PUBCHEM_SHAPE_FINGERPRINT>
104564 63 18339360760452102216
11578080 2 17750512867295077223
12156800 1 13313148803655302957
12422481 6 18127117589925127722
12553582 1 18410855490298746213
12592029 89 18338803437449021411
12633257 1 18260259780783952003
12788726 201 18339374032302213948
13140716 1 17982451804685769993
13692114 37 17475240098951175001
13965767 371 17845659123132060715
14178342 30 18199183984472740880
14223421 5 18196650692206426638
16945 1 18343012289996426950
18981168 100 16843881941350378155
20600515 1 17986955352605351552
20691752 17 18118431516832366765
20905425 154 18199474263899682636
21421861 104 18116447946358780953
23419403 2 17484794923319469710
23559900 14 18263086535179939919
2748010 2 17980759333572061028
2818148 4 17911547327092669263
3052486 1 17972606489713117110
35225 105 17031066464433586474
474 4 18339089297160248791
484985 159 15582828871548175098
57527358 35 13567717030111510284
70251023 43 18124892170223080143
9981440 41 16191696023878136937

> <PUBCHEM_SHAPE_MULTIPOLES>
505.48
5.9
3.92
2.05
4.59
1.59
-0.03
-1.15
-2.09
-0.87
0.35
-1.39
-0.47
-0.61

> <PUBCHEM_SHAPE_SELFOVERLAP>
1074.02

> <PUBCHEM_SHAPE_VOLUME>
282.6

> <PUBCHEM_COORDINATE_TYPE>
2
5
10

$$$$
