40780450
  -OEChem-12032416333D

 55 58  0     1  0  0  0  0  0999 V2000
    8.2423    1.5801    0.4766 Cl  0  0  0  0  0  0  0  0  0  0  0  0
   -3.8443   -0.7913   -1.3219 O   0  0  0  0  0  0  0  0  0  0  0  0
   -3.2317   -1.3761    0.8299 N   0  0  0  0  0  0  0  0  0  0  0  0
    3.2628    0.4829    0.2510 N   0  0  0  0  0  0  0  0  0  0  0  0
    2.9466    1.6986    0.7285 N   0  0  0  0  0  0  0  0  0  0  0  0
   -5.2897   -0.4051    0.4871 N   0  0  0  0  0  0  0  0  0  0  0  0
   -0.2166   -0.2715    1.1393 C   0  0  2  0  0  0  0  0  0  0  0  0
   -0.9900   -0.8500   -0.0701 C   0  0  0  0  0  0  0  0  0  0  0  0
   -1.9375   -1.9082    0.5005 C   0  0  1  0  0  0  0  0  0  0  0  0
    1.1757    0.2615    0.8561 C   0  0  0  0  0  0  0  0  0  0  0  0
   -0.2827   -1.4390    2.0916 C   0  0  0  0  0  0  0  0  0  0  0  0
   -1.2323   -2.3167    1.7484 C   0  0  0  0  0  0  0  0  0  0  0  0
    2.2367   -0.4143    0.3046 C   0  0  0  0  0  0  0  0  0  0  0  0
    1.6704    1.5573    1.0966 C   0  0  0  0  0  0  0  0  0  0  0  0
    2.3542   -1.8095   -0.1659 C   0  0  0  0  0  0  0  0  0  0  0  0
    0.9537    2.7046    1.6809 C   0  0  0  0  0  0  0  0  0  0  0  0
    4.5479    0.2437   -0.2371 C   0  0  0  0  0  0  0  0  0  0  0  0
   -4.1119   -0.8444   -0.1238 C   0  0  0  0  0  0  0  0  0  0  0  0
    5.6356    0.9406    0.2891 C   0  0  0  0  0  0  0  0  0  0  0  0
    4.7444   -0.6933   -1.2515 C   0  0  0  0  0  0  0  0  0  0  0  0
    6.9199    0.7005   -0.1993 C   0  0  0  0  0  0  0  0  0  0  0  0
    6.0287   -0.9333   -1.7399 C   0  0  0  0  0  0  0  0  0  0  0  0
    7.1165   -0.2363   -1.2139 C   0  0  0  0  0  0  0  0  0  0  0  0
   -6.4170    0.1883   -0.1273 C   0  0  0  0  0  0  0  0  0  0  0  0
    8.4766   -0.5229   -1.7633 C   0  0  0  0  0  0  0  0  0  0  0  0
   -7.5130    0.5686    0.6473 C   0  0  0  0  0  0  0  0  0  0  0  0
   -6.4333    0.3935   -1.5068 C   0  0  0  0  0  0  0  0  0  0  0  0
   -8.6253    1.1539    0.0422 C   0  0  0  0  0  0  0  0  0  0  0  0
   -7.5454    0.9789   -2.1118 C   0  0  0  0  0  0  0  0  0  0  0  0
   -8.6415    1.3590   -1.3372 C   0  0  0  0  0  0  0  0  0  0  0  0
   -0.8118    0.5388    1.5821 H   0  0  0  0  0  0  0  0  0  0  0  0
   -1.4913   -0.0468   -0.6206 H   0  0  0  0  0  0  0  0  0  0  0  0
   -0.3065   -1.3278   -0.7828 H   0  0  0  0  0  0  0  0  0  0  0  0
   -2.0634   -2.7387   -0.2014 H   0  0  0  0  0  0  0  0  0  0  0  0
    0.3298   -1.5303    2.9778 H   0  0  0  0  0  0  0  0  0  0  0  0
   -1.4674   -3.2076    2.3131 H   0  0  0  0  0  0  0  0  0  0  0  0
   -3.5518   -1.4219    1.7932 H   0  0  0  0  0  0  0  0  0  0  0  0
    1.6099   -2.4396    0.3327 H   0  0  0  0  0  0  0  0  0  0  0  0
    3.3074   -2.2801    0.0907 H   0  0  0  0  0  0  0  0  0  0  0  0
    2.1371   -1.8985   -1.2343 H   0  0  0  0  0  0  0  0  0  0  0  0
    0.6079    2.4668    2.6921 H   0  0  0  0  0  0  0  0  0  0  0  0
    1.5904    3.5933    1.7468 H   0  0  0  0  0  0  0  0  0  0  0  0
    0.0819    2.9637    1.0715 H   0  0  0  0  0  0  0  0  0  0  0  0
    5.4998    1.6663    1.0885 H   0  0  0  0  0  0  0  0  0  0  0  0
    3.9463   -1.1771   -1.7964 H   0  0  0  0  0  0  0  0  0  0  0  0
   -5.3519   -0.5214    1.4954 H   0  0  0  0  0  0  0  0  0  0  0  0
    6.1607   -1.6469   -2.5491 H   0  0  0  0  0  0  0  0  0  0  0  0
    8.4465   -1.2841   -2.5507 H   0  0  0  0  0  0  0  0  0  0  0  0
    9.1380   -0.9000   -0.9762 H   0  0  0  0  0  0  0  0  0  0  0  0
    8.9114    0.3800   -2.2046 H   0  0  0  0  0  0  0  0  0  0  0  0
   -7.5133    0.4144    1.7233 H   0  0  0  0  0  0  0  0  0  0  0  0
   -5.6246    0.1262   -2.1721 H   0  0  0  0  0  0  0  0  0  0  0  0
   -9.4787    1.4499    0.6452 H   0  0  0  0  0  0  0  0  0  0  0  0
   -7.5594    1.1392   -3.1860 H   0  0  0  0  0  0  0  0  0  0  0  0
   -9.5075    1.8148   -1.8084 H   0  0  0  0  0  0  0  0  0  0  0  0
  1 21  1  0  0  0  0
  2 18  2  0  0  0  0
  3  9  1  0  0  0  0
  3 18  1  0  0  0  0
  3 37  1  0  0  0  0
  4  5  1  0  0  0  0
  4 13  1  0  0  0  0
  4 17  1  0  0  0  0
  5 14  2  0  0  0  0
  6 18  1  0  0  0  0
  6 24  1  0  0  0  0
  6 46  1  0  0  0  0
  7  8  1  0  0  0  0
  7 10  1  0  0  0  0
  7 11  1  0  0  0  0
  7 31  1  0  0  0  0
  8  9  1  0  0  0  0
  8 32  1  0  0  0  0
  8 33  1  0  0  0  0
  9 12  1  0  0  0  0
  9 34  1  0  0  0  0
 10 13  2  0  0  0  0
 10 14  1  0  0  0  0
 11 12  2  0  0  0  0
 11 35  1  0  0  0  0
 12 36  1  0  0  0  0
 13 15  1  0  0  0  0
 14 16  1  0  0  0  0
 15 38  1  0  0  0  0
 15 39  1  0  0  0  0
 15 40  1  0  0  0  0
 16 41  1  0  0  0  0
 16 42  1  0  0  0  0
 16 43  1  0  0  0  0
 17 19  2  0  0  0  0
 17 20  1  0  0  0  0
 19 21  1  0  0  0  0
 19 44  1  0  0  0  0
 20 22  2  0  0  0  0
 20 45  1  0  0  0  0
 21 23  2  0  0  0  0
 22 23  1  0  0  0  0
 22 47  1  0  0  0  0
 23 25  1  0  0  0  0
 24 26  2  0  0  0  0
 24 27  1  0  0  0  0
 25 48  1  0  0  0  0
 25 49  1  0  0  0  0
 25 50  1  0  0  0  0
 26 28  1  0  0  0  0
 26 51  1  0  0  0  0
 27 29  2  0  0  0  0
 27 52  1  0  0  0  0
 28 30  2  0  0  0  0
 28 53  1  0  0  0  0
 29 30  1  0  0  0  0
 29 54  1  0  0  0  0
 30 55  1  0  0  0  0
M  END
> <PUBCHEM_COMPOUND_CID>
40780450

> <PUBCHEM_CONFORMER_RMSD>
0.8

> <PUBCHEM_CONFORMER_DIVERSEORDER>
4
133
135
46
35
146
79
161
155
70
122
97
151
11
147
114
130
119
129
44
53
20
6
134
167
17
57
162
61
124
85
128
150
76
156
58
104
138
105
112
78
75
25
131
63
86
139
50
81
56
125
120
123
157
143
40
69
113
142
33
91
159
158
148
64
98
39
80
110
83
26
115
65
169
126
67
95
14
121
141
106
2
127
140
149
107
99
13
132
93
62
144
15
88
8
90
87
60
42
54
117
37
36
48
136
41
163
18
165
116
71
5
100
28
22
12
74
108
30
27
152
137
21
118
72
9
32
103
153
96
59
7
45
164
102
166
49
29
89
154
145
111
47
68
55
101
82
3
31
10
84
94
51
160
16
52
38
168
23
109
92
77
19
66
34
1
73
43
24

> <PUBCHEM_MMFF94_PARTIAL_CHARGES>
41
1 -0.18
10 -0.18
11 -0.29
12 -0.29
13 -0.33
14 0.11
15 0.18
16 0.18
17 -0.02
18 0.69
19 -0.15
2 -0.57
20 -0.15
21 0.18
22 -0.15
23 -0.14
24 0.12
25 0.14
26 -0.15
27 -0.15
28 -0.15
29 -0.15
3 -0.73
30 -0.15
35 0.15
36 0.15
37 0.37
4 0.59
44 0.15
45 0.15
46 0.37
47 0.15
5 -0.71
51 0.15
52 0.15
53 0.15
54 0.15
55 0.15
6 -0.55
7 0.32
9 0.44

> <PUBCHEM_EFFECTIVE_ROTOR_COUNT>
6.6

> <PUBCHEM_PHARMACOPHORE_FEATURES>
8
1 2 acceptor
1 3 donor
1 5 acceptor
1 6 donor
5 4 5 10 13 14 rings
5 7 8 9 11 12 rings
6 17 19 20 21 22 23 rings
6 24 26 27 28 29 30 rings

> <PUBCHEM_HEAVY_ATOM_COUNT>
30

> <PUBCHEM_ATOM_DEF_STEREO_COUNT>
2

> <PUBCHEM_ATOM_UDEF_STEREO_COUNT>
0

> <PUBCHEM_BOND_DEF_STEREO_COUNT>
0

> <PUBCHEM_BOND_UDEF_STEREO_COUNT>
0

> <PUBCHEM_ISOTOPIC_ATOM_COUNT>
0

> <PUBCHEM_COMPONENT_COUNT>
1

> <PUBCHEM_CACTVS_TAUTO_COUNT>
3

> <PUBCHEM_CONFORMER_ID>
026E42A200000004

> <PUBCHEM_MMFF94_ENERGY>
85.626

> <PUBCHEM_FEATURE_SELFOVERLAP>
40.648

> <PUBCHEM_SHAPE_FINGERPRINT>
10 15 16443063886003250935
10165383 225 17894351073067474955
10190206 1 18337676308860343897
10369192 42 17530679905915868407
10483366 6 18131633361632200147
106641 1 11241974793191381335
10670039 82 17632295641363513113
10674148 151 18412824677038024456
10835480 77 18200877400283926800
11115154 58 17418379069424920809
11135609 99 13470396794773226340
11211813 128 9799698103964988712
11456790 92 12757417394085708308
11621639 179 18340196389685117581
12559415 135 15698004003047555227
12596602 18 14056990595590136861
12664476 115 18259983778576653865
12758862 65 10807925007510764631
12838862 33 18059849585303677202
12977781 61 15336838772608341319
13177829 20 13262399960350036805
13540713 4 18124034795422589499
13782708 43 9942712685012038888
14068700 675 15267346214579854930
14117953 113 17632587041708503406
14294032 229 17458904817156575508
14931854 50 18341046333642742153
15183329 4 17917991659875871043
15188451 53 14549023165262890254
15198563 99 18199762370882047660
15350500 55 16878210971699127341
15510800 12 11671782719337659997
15706992 2 14562543873046069302
1577012 14 17894622665377386643
16992610 120 17095534980520133070
19303781 99 12390925958007749461
2026 5 12679456492249211021
20505436 4 16298103207165295570
21033648 29 18114453578584916905
21095123 293 16298391257567806564
21304304 249 11743834781162226605
21585482 111 17970060055803154405
221357 26 18272647927055072825
22149856 69 8069759540924976439
22224240 67 11241971490208829297
22956985 138 10806568163303355740
23389318 12 15338838716208812320
23559900 14 17988077919205577226
23576562 1 18128809923367703021
249057 3 17917428748429508127
3004659 81 16487248868587787275
3009799 131 18342742948940631082
3092352 35 16008750225135361578
3633792 109 17275107240831803818
3711267 37 17676213455043295317
4339292 15 12607415373404740052
4340502 62 12251902585754923609
44426699 302 17313376787484280154
444735 79 9151174255421890803
4461854 278 7997965799845741361
474113 269 18200595779711344958
5104073 3 8285665094494743071
54076057 127 14418128492125275856
57035037 87 18041001804352076060
5758199 1 13551193290127943817
58902169 19 17203320144261998093
59682541 35 8718823180471792078
6009941 240 18409171051602250786
6081469 158 16056882412019952496
9689198 14 16660368073565354359
9953998 17 12396302561018578753
9962374 69 9943225031839392625

> <PUBCHEM_SHAPE_MULTIPOLES>
593.46
28.13
2.02
1.81
18.74
0.02
0.25
12.2
16.03
0.07
-0.96
0.13
-0.03
2.79

> <PUBCHEM_SHAPE_SELFOVERLAP>
1280.319

> <PUBCHEM_SHAPE_VOLUME>
326.9

> <PUBCHEM_COORDINATE_TYPE>
2
5
10

$$$$
