51136639
  -OEChem-12032416143D

 68 71  0     1  0  0  0  0  0999 V2000
   -0.7507    1.6506   -0.7443 S   0  0  0  0  0  0  0  0  0  0  0  0
   -0.6575    2.0251   -2.1387 O   0  0  0  0  0  0  0  0  0  0  0  0
    0.1902    2.1595    0.2298 O   0  0  0  0  0  0  0  0  0  0  0  0
   -2.1000   -6.4488   -0.7199 O   0  0  0  0  0  0  0  0  0  0  0  0
   -3.5096   -4.6656   -0.8390 O   0  0  0  0  0  0  0  0  0  0  0  0
    4.2819    0.6464   -2.4701 O   0  0  0  0  0  0  0  0  0  0  0  0
    5.3214    2.5115   -0.6962 O   0  0  0  0  0  0  0  0  0  0  0  0
   -6.2035    2.9808    1.1252 O   0  0  0  0  0  0  0  0  0  0  0  0
   -0.8010   -0.0584   -0.6275 N   0  0  1  0  0  0  0  0  0  0  0  0
    1.9112   -1.8621    2.5029 N   0  0  0  0  0  0  0  0  0  0  0  0
   -0.4196   -2.1047    0.7298 C   0  0  2  0  0  0  0  0  0  0  0  0
   -1.4461   -2.8553   -0.1529 C   0  0  1  0  0  0  0  0  0  0  0  0
   -0.7554   -0.6050    0.7613 C   0  0  0  0  0  0  0  0  0  0  0  0
   -1.5589   -2.2191   -1.5467 C   0  0  0  0  0  0  0  0  0  0  0  0
   -1.8459   -0.7237   -1.4567 C   0  0  0  0  0  0  0  0  0  0  0  0
    1.0406   -2.3208    0.3121 C   0  0  0  0  0  0  0  0  0  0  0  0
   -1.1614   -4.3528   -0.2651 C   0  0  0  0  0  0  0  0  0  0  0  0
    1.9575   -1.5676    1.2456 C   0  0  0  0  0  0  0  0  0  0  0  0
   -2.3962   -5.1263   -0.6364 C   0  0  0  0  0  0  0  0  0  0  0  0
    2.8559   -0.5283    0.6812 C   0  0  0  0  0  0  0  0  0  0  0  0
   -2.3780    2.0448   -0.1858 C   0  0  0  0  0  0  0  0  0  0  0  0
    3.3923    0.3994    1.5832 C   0  0  0  0  0  0  0  0  0  0  0  0
    3.0196    0.2939    3.0322 C   0  0  0  0  0  0  0  0  0  0  0  0
    2.8446   -1.1735    3.4008 C   0  0  0  0  0  0  0  0  0  0  0  0
    3.1562   -0.4478   -0.6799 C   0  0  0  0  0  0  0  0  0  0  0  0
   -3.4265    2.1348   -1.1015 C   0  0  0  0  0  0  0  0  0  0  0  0
   -2.6151    2.2694    1.1703 C   0  0  0  0  0  0  0  0  0  0  0  0
    4.2129    1.4270    1.1098 C   0  0  0  0  0  0  0  0  0  0  0  0
    3.9893    0.5725   -1.1409 C   0  0  0  0  0  0  0  0  0  0  0  0
    4.5139    1.5089   -0.2497 C   0  0  0  0  0  0  0  0  0  0  0  0
   -4.7120    2.4493   -0.6609 C   0  0  0  0  0  0  0  0  0  0  0  0
   -3.9006    2.5839    1.6108 C   0  0  0  0  0  0  0  0  0  0  0  0
   -4.9491    2.6737    0.6953 C   0  0  0  0  0  0  0  0  0  0  0  0
    3.4056    1.4238   -3.2834 C   0  0  0  0  0  0  0  0  0  0  0  0
    6.7227    2.2481   -0.7300 C   0  0  0  0  0  0  0  0  0  0  0  0
   -7.2284    3.0565    0.1353 C   0  0  0  0  0  0  0  0  0  0  0  0
   -0.5389   -2.4827    1.7550 H   0  0  0  0  0  0  0  0  0  0  0  0
   -2.4208   -2.7256    0.3407 H   0  0  0  0  0  0  0  0  0  0  0  0
   -1.7406   -0.4801    1.2273 H   0  0  0  0  0  0  0  0  0  0  0  0
   -0.0459   -0.0502    1.3793 H   0  0  0  0  0  0  0  0  0  0  0  0
   -0.6316   -2.3769   -2.1110 H   0  0  0  0  0  0  0  0  0  0  0  0
   -2.3582   -2.6939   -2.1266 H   0  0  0  0  0  0  0  0  0  0  0  0
   -1.8470   -0.3088   -2.4698 H   0  0  0  0  0  0  0  0  0  0  0  0
   -2.8373   -0.5806   -1.0150 H   0  0  0  0  0  0  0  0  0  0  0  0
    1.1642   -2.0484   -0.7332 H   0  0  0  0  0  0  0  0  0  0  0  0
    1.3075   -3.3813    0.3933 H   0  0  0  0  0  0  0  0  0  0  0  0
   -0.3837   -4.5506   -1.0111 H   0  0  0  0  0  0  0  0  0  0  0  0
   -0.8270   -4.7372    0.7060 H   0  0  0  0  0  0  0  0  0  0  0  0
    2.0854    0.8445    3.1960 H   0  0  0  0  0  0  0  0  0  0  0  0
    3.7929    0.7386    3.6684 H   0  0  0  0  0  0  0  0  0  0  0  0
    2.4599   -1.2426    4.4242 H   0  0  0  0  0  0  0  0  0  0  0  0
    3.8075   -1.6994    3.3851 H   0  0  0  0  0  0  0  0  0  0  0  0
    2.7947   -1.1684   -1.4041 H   0  0  0  0  0  0  0  0  0  0  0  0
   -3.2649    1.9634   -2.1620 H   0  0  0  0  0  0  0  0  0  0  0  0
   -1.8144    2.2017    1.9013 H   0  0  0  0  0  0  0  0  0  0  0  0
    4.6181    2.1631    1.7997 H   0  0  0  0  0  0  0  0  0  0  0  0
   -2.8853   -6.9848   -0.9614 H   0  0  0  0  0  0  0  0  0  0  0  0
   -5.4798    2.5027   -1.4252 H   0  0  0  0  0  0  0  0  0  0  0  0
   -4.0794    2.7570    2.6685 H   0  0  0  0  0  0  0  0  0  0  0  0
    2.3914    1.0125   -3.2562 H   0  0  0  0  0  0  0  0  0  0  0  0
    3.3963    2.4670   -2.9522 H   0  0  0  0  0  0  0  0  0  0  0  0
    3.7707    1.3869   -4.3133 H   0  0  0  0  0  0  0  0  0  0  0  0
    7.0977    2.0387    0.2768 H   0  0  0  0  0  0  0  0  0  0  0  0
    6.9409    1.4067   -1.3952 H   0  0  0  0  0  0  0  0  0  0  0  0
    7.2292    3.1378   -1.1140 H   0  0  0  0  0  0  0  0  0  0  0  0
   -7.0341    3.8587   -0.5846 H   0  0  0  0  0  0  0  0  0  0  0  0
   -7.3879    2.0894   -0.3535 H   0  0  0  0  0  0  0  0  0  0  0  0
   -8.1594    3.3102    0.6528 H   0  0  0  0  0  0  0  0  0  0  0  0
  1  2  2  0  0  0  0
  1  3  2  0  0  0  0
  1  9  1  0  0  0  0
  1 21  1  0  0  0  0
  4 19  1  0  0  0  0
  4 57  1  0  0  0  0
  5 19  2  0  0  0  0
  6 29  1  0  0  0  0
  6 34  1  0  0  0  0
  7 30  1  0  0  0  0
  7 35  1  0  0  0  0
  8 33  1  0  0  0  0
  8 36  1  0  0  0  0
  9 13  1  0  0  0  0
  9 15  1  0  0  0  0
 10 18  2  0  0  0  0
 10 24  1  0  0  0  0
 11 12  1  0  0  0  0
 11 13  1  0  0  0  0
 11 16  1  0  0  0  0
 11 37  1  0  0  0  0
 12 14  1  0  0  0  0
 12 17  1  0  0  0  0
 12 38  1  0  0  0  0
 13 39  1  0  0  0  0
 13 40  1  0  0  0  0
 14 15  1  0  0  0  0
 14 41  1  0  0  0  0
 14 42  1  0  0  0  0
 15 43  1  0  0  0  0
 15 44  1  0  0  0  0
 16 18  1  0  0  0  0
 16 45  1  0  0  0  0
 16 46  1  0  0  0  0
 17 19  1  0  0  0  0
 17 47  1  0  0  0  0
 17 48  1  0  0  0  0
 18 20  1  0  0  0  0
 20 22  1  0  0  0  0
 20 25  2  0  0  0  0
 21 26  2  0  0  0  0
 21 27  1  0  0  0  0
 22 23  1  0  0  0  0
 22 28  2  0  0  0  0
 23 24  1  0  0  0  0
 23 49  1  0  0  0  0
 23 50  1  0  0  0  0
 24 51  1  0  0  0  0
 24 52  1  0  0  0  0
 25 29  1  0  0  0  0
 25 53  1  0  0  0  0
 26 31  1  0  0  0  0
 26 54  1  0  0  0  0
 27 32  2  0  0  0  0
 27 55  1  0  0  0  0
 28 30  1  0  0  0  0
 28 56  1  0  0  0  0
 29 30  2  0  0  0  0
 31 33  2  0  0  0  0
 31 58  1  0  0  0  0
 32 33  1  0  0  0  0
 32 59  1  0  0  0  0
 34 60  1  0  0  0  0
 34 61  1  0  0  0  0
 34 62  1  0  0  0  0
 35 63  1  0  0  0  0
 35 64  1  0  0  0  0
 35 65  1  0  0  0  0
 36 66  1  0  0  0  0
 36 67  1  0  0  0  0
 36 68  1  0  0  0  0
M  END
> <PUBCHEM_COMPOUND_CID>
51136639

> <PUBCHEM_CONFORMER_RMSD>
1

> <PUBCHEM_CONFORMER_DIVERSEORDER>
1
21
125
188
93
126
95
212
214
57
89
17
168
176
152
192
207
173
191
167
166
133
225
94
155
115
216
58
190
175
54
123
200
146
145
136
174
38
102
67
185
186
170
77
158
187
80
92
43
23
73
137
53
32
97
25
199
231
228
140
148
108
56
230
205
13
134
131
182
195
206
151
64
147
119
179
202
161
204
8
69
83
169
160
86
90
41
232
79
213
215
39
101
157
112
132
180
75
139
33
210
224
81
164
198
219
130
18
177
70
201
217
9
63
209
46
223
20
229
227
65
78
127
28
208
159
37
120
162
144
113
165
221
34
100
7
117
138
24
218
47
116
91
71
66
114
163
68
122
109
156
149
61
142
181
16
27
184
49
189
29
211
19
62
193
154
88
118
196
197
36
172
153
15
203
183
72
85
128
42
141
143
44
150
98
3
135
26
51
50
194
59
226
84
171
121
76
12
111
11
105
82
55
74
10
2
222
5
104
40
96
52
22
35
87
106
30
99
129
103
60
220
178
31
4
14
6
124
110
107
48
45

> <PUBCHEM_MMFF94_PARTIAL_CHARGES>
40
1 1.45
10 -0.7
13 0.36
15 0.36
16 0.06
17 0.06
18 0.3
19 0.66
2 -0.65
20 0.09
21 -0.01
22 -0.14
23 0.14
24 0.25
25 -0.15
26 -0.15
27 -0.15
28 -0.15
29 0.08
3 -0.65
30 0.08
31 -0.15
32 -0.15
33 0.08
34 0.28
35 0.28
36 0.28
4 -0.65
5 -0.57
53 0.15
54 0.15
55 0.15
56 0.15
57 0.5
58 0.15
59 0.15
6 -0.36
7 -0.36
8 -0.36
9 -0.85

> <PUBCHEM_EFFECTIVE_ROTOR_COUNT>
10.6

> <PUBCHEM_PHARMACOPHORE_FEATURES>
13
1 10 acceptor
1 2 acceptor
1 3 acceptor
1 4 acceptor
1 5 acceptor
1 6 acceptor
1 7 acceptor
1 8 acceptor
3 4 5 19 anion
6 10 18 20 22 23 24 rings
6 20 22 25 28 29 30 rings
6 21 26 27 31 32 33 rings
6 9 11 12 13 14 15 rings

> <PUBCHEM_HEAVY_ATOM_COUNT>
36

> <PUBCHEM_ATOM_DEF_STEREO_COUNT>
2

> <PUBCHEM_ATOM_UDEF_STEREO_COUNT>
0

> <PUBCHEM_BOND_DEF_STEREO_COUNT>
0

> <PUBCHEM_BOND_UDEF_STEREO_COUNT>
0

> <PUBCHEM_ISOTOPIC_ATOM_COUNT>
0

> <PUBCHEM_COMPONENT_COUNT>
1

> <PUBCHEM_CACTVS_TAUTO_COUNT>
1

> <PUBCHEM_CONFORMER_ID>
030C487F00000001

> <PUBCHEM_MMFF94_ENERGY>
112.595

> <PUBCHEM_FEATURE_SELFOVERLAP>
66.084

> <PUBCHEM_SHAPE_FINGERPRINT>
10010297 198 17967538938988741003
10794284 68 17972902498948899883
11049842 53 18270387283967535314
11115154 58 17907851061992435911
12160290 23 18127100122388177663
12788726 201 18191859239798210779
13540713 5 18115006598779860306
13583140 156 16081920430403903201
14068700 675 17757543432511490758
14294032 229 18339085998287482770
14468879 13 16557315280905370416
14747281 78 17131821054780280376
14790565 3 18339641140581313789
14840074 17 18260832549433785349
14955137 171 17610052374714397898
15297060 5 18272095950405086449
15448158 71 17748548134701512676
19319366 153 17841972431053915243
1979834 28 18120089473446941089
20505436 4 18113622270511020656
21315764 21 14189276150114144225
22956985 138 17474669452078163867
23559900 14 17615969907434549641
244849 19 17417804093784479770
3178227 256 17908985409535096563
469060 322 16732984283655172861
5252454 2 18334285466655817888
57527585 21 17268876450193074008
6523845 18 18197212546990738389
6609424 69 17024586673275562996
9658208 31 18273493459685600155

> <PUBCHEM_SHAPE_MULTIPOLES>
693.67
12.29
6.43
2.6
4.42
12.47
0.62
-16.83
0.02
9
-1.72
-3.29
-0.45
-3.63

> <PUBCHEM_SHAPE_SELFOVERLAP>
1464.472

> <PUBCHEM_SHAPE_VOLUME>
391.7

> <PUBCHEM_COORDINATE_TYPE>
2
5
10

$$$$
