45783982
  -OEChem-12032416333D

 79 83  0     1  0  0  0  0  0999 V2000
    3.7056   -0.9859    0.9393 O   0  0  0  0  0  0  0  0  0  0  0  0
   -3.7248   -0.9324    0.2430 N   0  0  0  0  0  0  0  0  0  0  0  0
   -6.1072    0.6422    0.1771 N   0  0  0  0  0  0  0  0  0  0  0  0
    2.3547   -0.1177    2.4967 N   0  0  0  0  0  0  0  0  0  0  0  0
    3.3832    0.7790    2.2755 N   0  0  0  0  0  0  0  0  0  0  0  0
   -7.3111    2.4536    1.0283 N   0  0  0  0  0  0  0  0  0  0  0  0
   -8.0499    1.2876   -0.9471 N   0  0  0  0  0  0  0  0  0  0  0  0
    8.8804    2.1042   -1.0551 N   0  0  0  0  0  0  0  0  0  0  0  0
   -1.0058   -1.0994   -0.8401 C   0  0  1  0  0  0  0  0  0  0  0  0
   -1.9114   -2.3389   -0.6528 C   0  0  2  0  0  0  0  0  0  0  0  0
    0.1075   -1.0820    0.2167 C   0  0  0  0  0  0  0  0  0  0  0  0
    0.9762   -2.3582    0.2110 C   0  0  2  0  0  0  0  0  0  0  0  0
   -0.4247   -1.0404   -2.2593 C   0  0  0  0  0  0  0  0  0  0  0  0
   -2.9248   -2.1338    0.4779 C   0  0  0  0  0  0  0  0  0  0  0  0
   -1.1238   -3.5972   -0.3903 C   0  0  0  0  0  0  0  0  0  0  0  0
    0.1685   -3.6272   -0.0160 C   0  0  0  0  0  0  0  0  0  0  0  0
    1.7971   -2.3974    1.5060 C   0  0  0  0  0  0  0  0  0  0  0  0
    0.7748   -0.0993   -2.3043 C   0  0  0  0  0  0  0  0  0  0  0  0
   -1.4942   -0.6015   -3.2545 C   0  0  0  0  0  0  0  0  0  0  0  0
   -4.7578   -1.1911   -0.7677 C   0  0  0  0  0  0  0  0  0  0  0  0
   -4.3500   -0.4777    1.4908 C   0  0  0  0  0  0  0  0  0  0  0  0
    0.8833   -4.9419    0.1352 C   0  0  0  0  0  0  0  0  0  0  0  0
   -5.5653    0.0748   -1.0640 C   0  0  0  0  0  0  0  0  0  0  0  0
   -5.1450    0.8117    1.2703 C   0  0  0  0  0  0  0  0  0  0  0  0
    2.5835   -1.1319    1.6956 C   0  0  0  0  0  0  0  0  0  0  0  0
   -7.2076    1.5013    0.0816 C   0  0  0  0  0  0  0  0  0  0  0  0
    4.1472    0.2310    1.3596 C   0  0  0  0  0  0  0  0  0  0  0  0
    5.3520    0.7078    0.7450 C   0  0  0  0  0  0  0  0  0  0  0  0
   -8.3831    3.2636    0.9062 C   0  0  0  0  0  0  0  0  0  0  0  0
   -9.0992    2.1335   -1.0088 C   0  0  0  0  0  0  0  0  0  0  0  0
   -9.3192    3.1497   -0.1013 C   0  0  0  0  0  0  0  0  0  0  0  0
    5.8800    1.9457    1.1124 C   0  0  0  0  0  0  0  0  0  0  0  0
    5.9964   -0.0665   -0.2198 C   0  0  0  0  0  0  0  0  0  0  0  0
    7.0519    2.4092    0.5148 C   0  0  0  0  0  0  0  0  0  0  0  0
    7.1684    0.3970   -0.8175 C   0  0  0  0  0  0  0  0  0  0  0  0
    7.6961    1.6348   -0.4501 C   0  0  0  0  0  0  0  0  0  0  0  0
    9.4361    3.3896   -0.6810 C   0  0  0  0  0  0  0  0  0  0  0  0
    9.5619    1.3041   -2.0532 C   0  0  0  0  0  0  0  0  0  0  0  0
   -1.5816   -0.1765   -0.6965 H   0  0  0  0  0  0  0  0  0  0  0  0
   -2.4609   -2.5335   -1.5786 H   0  0  0  0  0  0  0  0  0  0  0  0
    0.7139   -0.1737    0.1456 H   0  0  0  0  0  0  0  0  0  0  0  0
   -0.3770   -0.9942    1.2001 H   0  0  0  0  0  0  0  0  0  0  0  0
    1.6824   -2.2976   -0.6269 H   0  0  0  0  0  0  0  0  0  0  0  0
   -0.0707   -2.0306   -2.5724 H   0  0  0  0  0  0  0  0  0  0  0  0
   -2.3768   -2.0377    1.4249 H   0  0  0  0  0  0  0  0  0  0  0  0
   -3.5650   -3.0193    0.5964 H   0  0  0  0  0  0  0  0  0  0  0  0
   -1.6580   -4.5330   -0.5404 H   0  0  0  0  0  0  0  0  0  0  0  0
    2.5052   -3.2344    1.4968 H   0  0  0  0  0  0  0  0  0  0  0  0
    1.1429   -2.5431    2.3748 H   0  0  0  0  0  0  0  0  0  0  0  0
    0.5328    0.8863   -1.8908 H   0  0  0  0  0  0  0  0  0  0  0  0
    1.0803    0.0638   -3.3452 H   0  0  0  0  0  0  0  0  0  0  0  0
    1.6621   -0.4905   -1.8020 H   0  0  0  0  0  0  0  0  0  0  0  0
   -1.9099    0.3769   -2.9895 H   0  0  0  0  0  0  0  0  0  0  0  0
   -2.3205   -1.3140   -3.3191 H   0  0  0  0  0  0  0  0  0  0  0  0
   -1.0703   -0.5173   -4.2615 H   0  0  0  0  0  0  0  0  0  0  0  0
   -5.4384   -1.9855   -0.4321 H   0  0  0  0  0  0  0  0  0  0  0  0
   -4.3185   -1.5205   -1.7142 H   0  0  0  0  0  0  0  0  0  0  0  0
   -5.0117   -1.2546    1.8972 H   0  0  0  0  0  0  0  0  0  0  0  0
   -3.5812   -0.2747    2.2465 H   0  0  0  0  0  0  0  0  0  0  0  0
    1.1246   -5.1332    1.1853 H   0  0  0  0  0  0  0  0  0  0  0  0
    0.2791   -5.7834   -0.2210 H   0  0  0  0  0  0  0  0  0  0  0  0
    1.8113   -4.9390   -0.4460 H   0  0  0  0  0  0  0  0  0  0  0  0
   -6.3575   -0.2044   -1.7684 H   0  0  0  0  0  0  0  0  0  0  0  0
   -4.9325    0.8223   -1.5596 H   0  0  0  0  0  0  0  0  0  0  0  0
   -4.4669    1.6427    1.0378 H   0  0  0  0  0  0  0  0  0  0  0  0
   -5.6532    1.0474    2.2133 H   0  0  0  0  0  0  0  0  0  0  0  0
   -8.4719    4.0326    1.6660 H   0  0  0  0  0  0  0  0  0  0  0  0
   -9.7813    1.9664   -1.8355 H   0  0  0  0  0  0  0  0  0  0  0  0
  -10.1699    3.8137   -0.1751 H   0  0  0  0  0  0  0  0  0  0  0  0
    5.3941    2.5654    1.8623 H   0  0  0  0  0  0  0  0  0  0  0  0
    5.6153   -1.0356   -0.5320 H   0  0  0  0  0  0  0  0  0  0  0  0
    7.4222    3.3782    0.8347 H   0  0  0  0  0  0  0  0  0  0  0  0
    7.6319   -0.2418   -1.5628 H   0  0  0  0  0  0  0  0  0  0  0  0
    8.7343    4.2027   -0.8979 H   0  0  0  0  0  0  0  0  0  0  0  0
    9.7060    3.4103    0.3807 H   0  0  0  0  0  0  0  0  0  0  0  0
   10.3521    3.6127   -1.2395 H   0  0  0  0  0  0  0  0  0  0  0  0
    9.8858    0.3436   -1.6371 H   0  0  0  0  0  0  0  0  0  0  0  0
    8.9218    1.1297   -2.9253 H   0  0  0  0  0  0  0  0  0  0  0  0
   10.4643    1.8025   -2.4246 H   0  0  0  0  0  0  0  0  0  0  0  0
  1 25  1  0  0  0  0
  1 27  1  0  0  0  0
  2 14  1  0  0  0  0
  2 20  1  0  0  0  0
  2 21  1  0  0  0  0
  3 23  1  0  0  0  0
  3 24  1  0  0  0  0
  3 26  1  0  0  0  0
  4  5  1  0  0  0  0
  4 25  2  0  0  0  0
  5 27  2  0  0  0  0
  6 26  2  0  0  0  0
  6 29  1  0  0  0  0
  7 26  1  0  0  0  0
  7 30  2  0  0  0  0
  8 36  1  0  0  0  0
  8 37  1  0  0  0  0
  8 38  1  0  0  0  0
  9 10  1  0  0  0  0
  9 11  1  0  0  0  0
  9 13  1  0  0  0  0
  9 39  1  0  0  0  0
 10 14  1  0  0  0  0
 10 15  1  0  0  0  0
 10 40  1  0  0  0  0
 11 12  1  0  0  0  0
 11 41  1  0  0  0  0
 11 42  1  0  0  0  0
 12 16  1  0  0  0  0
 12 17  1  0  0  0  0
 12 43  1  0  0  0  0
 13 18  1  0  0  0  0
 13 19  1  0  0  0  0
 13 44  1  0  0  0  0
 14 45  1  0  0  0  0
 14 46  1  0  0  0  0
 15 16  2  0  0  0  0
 15 47  1  0  0  0  0
 16 22  1  0  0  0  0
 17 25  1  0  0  0  0
 17 48  1  0  0  0  0
 17 49  1  0  0  0  0
 18 50  1  0  0  0  0
 18 51  1  0  0  0  0
 18 52  1  0  0  0  0
 19 53  1  0  0  0  0
 19 54  1  0  0  0  0
 19 55  1  0  0  0  0
 20 23  1  0  0  0  0
 20 56  1  0  0  0  0
 20 57  1  0  0  0  0
 21 24  1  0  0  0  0
 21 58  1  0  0  0  0
 21 59  1  0  0  0  0
 22 60  1  0  0  0  0
 22 61  1  0  0  0  0
 22 62  1  0  0  0  0
 23 63  1  0  0  0  0
 23 64  1  0  0  0  0
 24 65  1  0  0  0  0
 24 66  1  0  0  0  0
 27 28  1  0  0  0  0
 28 32  2  0  0  0  0
 28 33  1  0  0  0  0
 29 31  2  0  0  0  0
 29 67  1  0  0  0  0
 30 31  1  0  0  0  0
 30 68  1  0  0  0  0
 31 69  1  0  0  0  0
 32 34  1  0  0  0  0
 32 70  1  0  0  0  0
 33 35  2  0  0  0  0
 33 71  1  0  0  0  0
 34 36  2  0  0  0  0
 34 72  1  0  0  0  0
 35 36  1  0  0  0  0
 35 73  1  0  0  0  0
 37 74  1  0  0  0  0
 37 75  1  0  0  0  0
 37 76  1  0  0  0  0
 38 77  1  0  0  0  0
 38 78  1  0  0  0  0
 38 79  1  0  0  0  0
M  END
> <PUBCHEM_COMPOUND_CID>
45783982

> <PUBCHEM_CONFORMER_RMSD>
1

> <PUBCHEM_CONFORMER_DIVERSEORDER>
9
258
6
145
10
270
125
59
265
57
32
62
304
11
215
150
168
219
20
225
231
187
233
172
275
278
201
93
129
88
31
301
45
262
132
96
227
290
143
81
272
76
273
162
63
111
101
254
84
126
110
294
64
103
283
38
256
307
26
70
184
170
164
220
202
98
299
87
149
310
86
107
269
104
40
286
296
291
298
234
60
216
312
285
82
171
25
92
67
66
77
287
277
314
28
43
205
293
116
185
68
169
204
42
305
255
249
16
135
52
108
105
95
217
313
137
200
194
37
158
130
218
100
268
33
243
30
306
251
148
224
288
159
198
123
106
127
174
214
226
264
65
48
177
141
18
151
166
74
203
124
284
206
83
99
248
29
97
190
276
79
181
230
176
193
121
142
163
295
302
232
47
199
153
114
237
120
50
186
8
72
210
147
119
156
167
223
133
179
175
56
139
17
2
267
260
75
160
229
195
118
155
23
246
146
245
12
94
165
102
213
180
113
24
222
140
259
183
36
274
89
61
289
209
80
281
188
239
69
173
136
71
117
252
49
257
41
238
21
212
85
144
131
221
242
14
91
178
197
250
241
46
90
138
211
19
22
228
154
280
109
263
196
35
34
235
311
182
44
161
134
191
309
7
300
128
112
58
55
157
208
192
115
261
247
73
122
27
315
5
78
207
292
15
54
253
279
282
13
240
53
236
271
39
4
297
303
189
308
3
51
244
152
266
1

> <PUBCHEM_MMFF94_PARTIAL_CHARGES>
41
1 -0.28
10 0.14
12 0.14
14 0.27
15 -0.29
16 -0.28
17 0.18
2 -0.81
20 0.27
21 0.27
22 0.14
23 0.37
24 0.37
25 0.3
26 0.72
27 0.43
28 0.05
29 0.16
3 -0.84
30 0.16
31 -0.15
32 -0.15
33 -0.15
34 -0.15
35 -0.15
36 0.1
37 0.37
38 0.37
4 -0.34
47 0.15
5 -0.34
6 -0.62
67 0.15
68 0.15
69 0.15
7 -0.62
70 0.15
71 0.15
72 0.15
73 0.15
8 -0.84

> <PUBCHEM_EFFECTIVE_ROTOR_COUNT>
10

> <PUBCHEM_PHARMACOPHORE_FEATURES>
10
1 2 cation
1 7 acceptor
1 8 cation
3 13 18 19 hydrophobe
4 3 6 7 26 cation
5 1 4 5 25 27 rings
6 2 3 20 21 23 24 rings
6 28 32 33 34 35 36 rings
6 6 7 26 29 30 31 rings
6 9 10 11 12 15 16 rings

> <PUBCHEM_HEAVY_ATOM_COUNT>
38

> <PUBCHEM_ATOM_DEF_STEREO_COUNT>
3

> <PUBCHEM_ATOM_UDEF_STEREO_COUNT>
0

> <PUBCHEM_BOND_DEF_STEREO_COUNT>
0

> <PUBCHEM_BOND_UDEF_STEREO_COUNT>
0

> <PUBCHEM_ISOTOPIC_ATOM_COUNT>
0

> <PUBCHEM_COMPONENT_COUNT>
1

> <PUBCHEM_CACTVS_TAUTO_COUNT>
1

> <PUBCHEM_CONFORMER_ID>
02BA9BAE00000009

> <PUBCHEM_MMFF94_ENERGY>
109.9301

> <PUBCHEM_FEATURE_SELFOVERLAP>
50.748

> <PUBCHEM_SHAPE_FINGERPRINT>
10100884 174 10231758886160203852
10190206 1 17775014474471213336
10533779 47 14418398981362172792
10674148 151 18272930562300570968
10952577 141 18410859892962050100
11297750 10 17246948533249622991
11374522 79 10735877287935277013
11621639 336 18198342849482809208
11828532 37 10879121692998606757
1200032 147 18260825995176178282
12013929 112 18342749516188252724
12047536 79 17314782998183236213
12124843 1 17489018370218891249
12218070 45 14346367869068426602
12838863 1 11455896854135322772
13150687 139 15985099717643497349
13165053 103 11599186346958094373
13974486 7 9294995839624322969
14040221 97 18114460063975517357
14359421 15 12391513066740787349
14664723 55 18271814531142294216
14931854 50 17418371389928294027
15183329 4 16702029699129889634
15198563 99 17555153003289355567
15320295 40 12031796846817983688
15347590 135 13767919127028706000
15350500 16 10519987062997814436
16990366 60 9294994783024411965
16993427 108 9799698082036029884
17852330 162 13972812088203956058
18339144 43 16446740837571311588
19303781 99 8574423189362858329
2026 5 11095890358453245901
20691028 202 18339634663480663152
20721686 146 18335139769804495973
21344244 181 11311473828625994261
21781055 127 18188480373027701592
21792938 169 8645613268173440090
21792965 106 17898855639643554733
21792965 78 12463303508953245780
22002106 203 7853562484242020713
23569914 152 17845388674338842086
23576562 1 17130977836187825360
24771293 8 17240483628368761643
3918712 181 18413666898629107489
392239 28 15357974607529950250
3986486 107 17346884433677400256
406291 66 10159701295836292648
4408954 87 15430036543658463825
44880568 143 18050570935779329300
4516262 110 18338229372199294759
50009960 94 11675464962679032745
54039377 194 9871746888824415545
5718773 13 9439403536172533659
57527293 21 17822274774046787395
5874358 3 10664103346026483012
6703917 75 18264210377713441370
9689198 14 18260834821455049994
9962374 69 11675181275856896009

> <PUBCHEM_SHAPE_MULTIPOLES>
741.29
30.81
4.6
2.16
2.26
2.54
0.75
-49.03
5.73
-1.84
-0.3
1.2
0.01
-2.05

> <PUBCHEM_SHAPE_SELFOVERLAP>
1575.655

> <PUBCHEM_SHAPE_VOLUME>
411.7

> <PUBCHEM_COORDINATE_TYPE>
2
5
10

$$$$
