45360600
  -OEChem-12032416183D

 62 65  0     1  0  0  0  0  0999 V2000
    2.8929    1.8442    1.8371 Cl  0  0  0  0  0  0  0  0  0  0  0  0
   -2.6222    3.3951   -0.7310 S   0  0  0  0  0  0  0  0  0  0  0  0
    8.0603    0.4656    0.0083 F   0  0  0  0  0  0  0  0  0  0  0  0
   -3.4850   -0.9631   -0.7716 O   0  0  0  0  0  0  0  0  0  0  0  0
   -5.0421   -2.8078    1.8877 O   0  0  0  0  0  0  0  0  0  0  0  0
   -6.3835   -1.7360   -0.2617 O   0  0  0  0  0  0  0  0  0  0  0  0
   -1.6692   -3.2055   -1.5490 O   0  0  0  0  0  0  0  0  0  0  0  0
   -2.3330    4.0417   -1.9966 O   0  0  0  0  0  0  0  0  0  0  0  0
   -3.4071    4.0823    0.2768 O   0  0  0  0  0  0  0  0  0  0  0  0
    0.1247   -2.3113   -0.3734 N   0  0  0  0  0  0  0  0  0  0  0  0
    2.8696   -1.4028   -0.2321 N   0  0  0  0  0  0  0  0  0  0  0  0
   -3.3074    1.8666   -1.0327 N   0  0  0  0  0  0  0  0  0  0  0  0
   -3.5265   -2.0828    0.1305 C   0  0  2  0  0  0  0  0  0  0  0  0
   -4.4897   -1.6843    1.2356 C   0  0  1  0  0  0  0  0  0  0  0  0
   -5.5128   -0.8726    0.4684 C   0  0  1  0  0  0  0  0  0  0  0  0
   -4.6389   -0.1250   -0.5327 C   0  0  1  0  0  0  0  0  0  0  0  0
   -2.1263   -2.3871    0.6326 C   0  0  0  0  0  0  0  0  0  0  0  0
   -4.1410    1.2140   -0.0061 C   0  0  0  0  0  0  0  0  0  0  0  0
   -1.2130   -2.6744   -0.5338 C   0  0  0  0  0  0  0  0  0  0  0  0
    0.6648   -1.6806    0.8331 C   0  0  0  0  0  0  0  0  0  0  0  0
    1.0709   -2.5509   -1.4601 C   0  0  0  0  0  0  0  0  0  0  0  0
    2.1759   -1.8661    0.9722 C   0  0  0  0  0  0  0  0  0  0  0  0
    2.1620   -1.4838   -1.5130 C   0  0  0  0  0  0  0  0  0  0  0  0
    4.1788   -0.9313   -0.1716 C   0  0  0  0  0  0  0  0  0  0  0  0
   -1.0694    2.9584   -0.0079 C   0  0  0  0  0  0  0  0  0  0  0  0
    5.0545   -1.4276    0.7942 C   0  0  0  0  0  0  0  0  0  0  0  0
    4.6147    0.0366   -1.0765 C   0  0  0  0  0  0  0  0  0  0  0  0
    0.0507    2.7749   -0.8189 C   0  0  0  0  0  0  0  0  0  0  0  0
   -0.9640    2.7974    1.3737 C   0  0  0  0  0  0  0  0  0  0  0  0
    6.3657   -0.9562    0.8551 C   0  0  0  0  0  0  0  0  0  0  0  0
    5.9259    0.5082   -1.0157 C   0  0  0  0  0  0  0  0  0  0  0  0
    6.8014    0.0119   -0.0499 C   0  0  0  0  0  0  0  0  0  0  0  0
    1.2759    2.4304   -0.2484 C   0  0  0  0  0  0  0  0  0  0  0  0
    0.2613    2.4527    1.9442 C   0  0  0  0  0  0  0  0  0  0  0  0
    1.3811    2.2693    1.1332 C   0  0  0  0  0  0  0  0  0  0  0  0
   -3.9192   -2.9451   -0.4243 H   0  0  0  0  0  0  0  0  0  0  0  0
   -3.9905   -1.0532    1.9806 H   0  0  0  0  0  0  0  0  0  0  0  0
   -6.1300   -0.2341    1.1069 H   0  0  0  0  0  0  0  0  0  0  0  0
   -5.1444    0.0124   -1.4958 H   0  0  0  0  0  0  0  0  0  0  0  0
   -2.1213   -3.2484    1.3080 H   0  0  0  0  0  0  0  0  0  0  0  0
   -1.7794   -1.5051    1.1780 H   0  0  0  0  0  0  0  0  0  0  0  0
   -3.5251    1.0656    0.8872 H   0  0  0  0  0  0  0  0  0  0  0  0
   -4.9879    1.8613    0.2419 H   0  0  0  0  0  0  0  0  0  0  0  0
    0.4121   -0.6166    0.7739 H   0  0  0  0  0  0  0  0  0  0  0  0
    0.1799   -2.0976    1.7212 H   0  0  0  0  0  0  0  0  0  0  0  0
    1.5109   -3.5405   -1.2851 H   0  0  0  0  0  0  0  0  0  0  0  0
    0.5412   -2.5940   -2.4177 H   0  0  0  0  0  0  0  0  0  0  0  0
    2.5037   -1.3113    1.8592 H   0  0  0  0  0  0  0  0  0  0  0  0
    2.4064   -2.9264    1.1340 H   0  0  0  0  0  0  0  0  0  0  0  0
    2.8522   -1.7445   -2.3246 H   0  0  0  0  0  0  0  0  0  0  0  0
    1.7156   -0.5088   -1.7432 H   0  0  0  0  0  0  0  0  0  0  0  0
   -5.7299   -2.4838    2.4939 H   0  0  0  0  0  0  0  0  0  0  0  0
   -6.9960   -1.1728   -0.7652 H   0  0  0  0  0  0  0  0  0  0  0  0
   -2.6920    1.2031   -1.5235 H   0  0  0  0  0  0  0  0  0  0  0  0
    4.7511   -2.1923    1.5039 H   0  0  0  0  0  0  0  0  0  0  0  0
    3.9538    0.4532   -1.8315 H   0  0  0  0  0  0  0  0  0  0  0  0
   -0.0102    2.8874   -1.8975 H   0  0  0  0  0  0  0  0  0  0  0  0
   -1.8251    2.9295    2.0225 H   0  0  0  0  0  0  0  0  0  0  0  0
    7.0489   -1.3443    1.6048 H   0  0  0  0  0  0  0  0  0  0  0  0
    6.2647    1.2643   -1.7177 H   0  0  0  0  0  0  0  0  0  0  0  0
    2.1396    2.2893   -0.8927 H   0  0  0  0  0  0  0  0  0  0  0  0
    0.3283    2.3283    3.0219 H   0  0  0  0  0  0  0  0  0  0  0  0
  1 35  1  0  0  0  0
  2  8  2  0  0  0  0
  2  9  2  0  0  0  0
  2 12  1  0  0  0  0
  2 25  1  0  0  0  0
  3 32  1  0  0  0  0
  4 13  1  0  0  0  0
  4 16  1  0  0  0  0
  5 14  1  0  0  0  0
  5 52  1  0  0  0  0
  6 15  1  0  0  0  0
  6 53  1  0  0  0  0
  7 19  2  0  0  0  0
 10 19  1  0  0  0  0
 10 20  1  0  0  0  0
 10 21  1  0  0  0  0
 11 22  1  0  0  0  0
 11 23  1  0  0  0  0
 11 24  1  0  0  0  0
 12 18  1  0  0  0  0
 12 54  1  0  0  0  0
 13 14  1  0  0  0  0
 13 17  1  0  0  0  0
 13 36  1  0  0  0  0
 14 15  1  0  0  0  0
 14 37  1  0  0  0  0
 15 16  1  0  0  0  0
 15 38  1  0  0  0  0
 16 18  1  0  0  0  0
 16 39  1  0  0  0  0
 17 19  1  0  0  0  0
 17 40  1  0  0  0  0
 17 41  1  0  0  0  0
 18 42  1  0  0  0  0
 18 43  1  0  0  0  0
 20 22  1  0  0  0  0
 20 44  1  0  0  0  0
 20 45  1  0  0  0  0
 21 23  1  0  0  0  0
 21 46  1  0  0  0  0
 21 47  1  0  0  0  0
 22 48  1  0  0  0  0
 22 49  1  0  0  0  0
 23 50  1  0  0  0  0
 23 51  1  0  0  0  0
 24 26  2  0  0  0  0
 24 27  1  0  0  0  0
 25 28  2  0  0  0  0
 25 29  1  0  0  0  0
 26 30  1  0  0  0  0
 26 55  1  0  0  0  0
 27 31  2  0  0  0  0
 27 56  1  0  0  0  0
 28 33  1  0  0  0  0
 28 57  1  0  0  0  0
 29 34  2  0  0  0  0
 29 58  1  0  0  0  0
 30 32  2  0  0  0  0
 30 59  1  0  0  0  0
 31 32  1  0  0  0  0
 31 60  1  0  0  0  0
 33 35  2  0  0  0  0
 33 61  1  0  0  0  0
 34 35  1  0  0  0  0
 34 62  1  0  0  0  0
M  END
> <PUBCHEM_COMPOUND_CID>
45360600

> <PUBCHEM_CONFORMER_RMSD>
1.2

> <PUBCHEM_CONFORMER_DIVERSEORDER>
2
16
78
92
72
7
122
159
154
45
97
161
86
170
71
134
157
102
29
112
117
148
124
25
104
106
89
18
65
73
100
116
108
67
91
33
145
173
59
138
142
166
175
139
163
27
113
164
84
90
137
62
88
169
64
28
34
150
146
153
38
19
167
69
171
82
20
74
114
109
36
87
54
149
95
162
63
8
158
44
58
155
133
172
118
93
174
125
140
81
10
132
101
46
26
94
75
156
85
110
9
22
168
128
41
51
111
31
12
37
4
120
96
165
11
55
147
135
107
123
76
119
103
60
160
57
121
21
52
48
143
98
105
136
79
68
3
126
83
30
129
127
99
42
144
39
6
32
56
53
70
47
5
141
15
130
24
23
151
152
115
43
49
14
50
40
13
35
17
77
131
80
61
1
176
66

> <PUBCHEM_MMFF94_PARTIAL_CHARGES>
46
1 -0.18
10 -0.66
11 -0.84
12 -0.91
13 0.28
14 0.28
15 0.28
16 0.28
17 0.06
18 0.36
19 0.57
2 1.45
20 0.3
21 0.3
22 0.37
23 0.37
24 0.1
25 -0.01
26 -0.15
27 -0.15
28 -0.15
29 -0.15
3 -0.19
30 -0.15
31 -0.15
32 0.19
33 -0.15
34 -0.15
35 0.18
4 -0.56
5 -0.68
52 0.4
53 0.4
54 0.42
55 0.15
56 0.15
57 0.15
58 0.15
59 0.15
6 -0.68
60 0.15
61 0.15
62 0.15
7 -0.57
8 -0.65
9 -0.65

> <PUBCHEM_EFFECTIVE_ROTOR_COUNT>
10.2

> <PUBCHEM_PHARMACOPHORE_FEATURES>
14
1 11 cation
1 12 donor
1 4 acceptor
1 5 acceptor
1 5 donor
1 6 acceptor
1 6 donor
1 7 acceptor
1 8 acceptor
1 9 acceptor
5 4 13 14 15 16 rings
6 10 11 20 21 22 23 rings
6 24 26 27 30 31 32 rings
6 25 28 29 33 34 35 rings

> <PUBCHEM_HEAVY_ATOM_COUNT>
35

> <PUBCHEM_ATOM_DEF_STEREO_COUNT>
4

> <PUBCHEM_ATOM_UDEF_STEREO_COUNT>
0

> <PUBCHEM_BOND_DEF_STEREO_COUNT>
0

> <PUBCHEM_BOND_UDEF_STEREO_COUNT>
0

> <PUBCHEM_ISOTOPIC_ATOM_COUNT>
0

> <PUBCHEM_COMPONENT_COUNT>
1

> <PUBCHEM_CACTVS_TAUTO_COUNT>
1

> <PUBCHEM_CONFORMER_ID>
02B425D800000002

> <PUBCHEM_MMFF94_ENERGY>
87.7185

> <PUBCHEM_FEATURE_SELFOVERLAP>
71.079

> <PUBCHEM_SHAPE_FINGERPRINT>
10290309 65 18269275668684056686
10939801 23 18337674243529265564
11135609 187 17977936887989510253
11421498 54 18186236234423380834
12107698 1 18336264643288371347
12156800 1 18120905387988134394
12293681 4 18188219791743318818
12422481 6 17983545728524165152
12788726 201 18409445869622220402
13402501 40 18342454846249107697
13560911 43 18335420201056570539
13726171 33 18267587909750585408
13947920 24 18271807878406134058
14028597 1 17604133888416222514
14363568 33 18122353633817769313
14725015 67 18409441484550002211
14747282 125 18057891444814200718
14765038 42 17986123919808800641
150020 26 17908433798352950003
15219648 81 16529509989080925818
15274700 232 16830380871156411590
15276724 80 18341048610302118740
15297060 5 17986955137576762664
15968369 153 18272085063059116932
16067689 391 16841082520844272134
18336668 15 18261114101181246101
20721686 56 18265329689234585595
20764821 26 18268138949785354063
25223398 141 18408316666927925972
3052486 1 18262786398828226128
329604 57 18335423469568951732
3493558 16 17097795709396311982
354706 132 18117849806683817620
469060 322 18188227419530843960
484989 97 18271527508153734112
50150288 127 15839030529516205193
508706 21 18335406977179397693
5171179 24 17915439787592468072
77296 10 18116430333151743130

> <PUBCHEM_SHAPE_MULTIPOLES>
668.57
14.57
5.14
1.61
14.6
3.27
0.16
-5.04
0.64
-5.74
-0.47
-0.06
0.33
1.58

> <PUBCHEM_SHAPE_SELFOVERLAP>
1400.44

> <PUBCHEM_SHAPE_VOLUME>
381.8

> <PUBCHEM_COORDINATE_TYPE>
2
5
10

$$$$
