75368550
  -OEChem-12032416403D

 41 44  0     1  0  0  0  0  0999 V2000
   -5.7928    0.7637    0.2069 O   0  0  0  0  0  0  0  0  0  0  0  0
   -3.4613    0.4452    0.1893 N   0  0  0  0  0  0  0  0  0  0  0  0
   -0.8142    0.4435   -0.7590 N   0  0  2  0  0  0  0  0  0  0  0  0
   -4.7678   -1.1959    0.9929 N   0  0  0  0  0  0  0  0  0  0  0  0
    3.1149   -1.6418   -0.2307 N   0  0  0  0  0  0  0  0  0  0  0  0
   -2.5342   -0.5433    0.6985 C   0  0  2  0  0  0  0  0  0  0  0  0
   -1.4395   -0.8242   -0.3302 C   0  0  0  0  0  0  0  0  0  0  0  0
   -2.9470    1.6674   -0.3922 C   0  0  0  0  0  0  0  0  0  0  0  0
   -1.8133    1.3444   -1.3688 C   0  0  0  0  0  0  0  0  0  0  0  0
   -3.4275   -1.7362    1.0290 C   0  0  0  0  0  0  0  0  0  0  0  0
    0.2757    0.1812   -1.6987 C   0  0  0  0  0  0  0  0  0  0  0  0
   -4.7932    0.0961    0.4347 C   0  0  0  0  0  0  0  0  0  0  0  0
    1.5151   -0.3078   -0.9976 C   0  0  0  0  0  0  0  0  0  0  0  0
    2.4349    0.4829   -0.2536 C   0  0  0  0  0  0  0  0  0  0  0  0
    1.9600   -1.6093   -0.9654 C   0  0  0  0  0  0  0  0  0  0  0  0
    3.4287   -0.3781    0.2166 C   0  0  0  0  0  0  0  0  0  0  0  0
    2.5176    1.8527    0.0659 C   0  0  0  0  0  0  0  0  0  0  0  0
    4.5055    0.0639    0.9935 C   0  0  0  0  0  0  0  0  0  0  0  0
    3.8827   -2.8404    0.0287 C   0  0  0  0  0  0  0  0  0  0  0  0
    3.5891    2.3092    0.8422 C   0  0  0  0  0  0  0  0  0  0  0  0
    4.5665    1.4268    1.2979 C   0  0  0  0  0  0  0  0  0  0  0  0
   -2.0995   -0.1321    1.6191 H   0  0  0  0  0  0  0  0  0  0  0  0
   -0.7060   -1.4913    0.1357 H   0  0  0  0  0  0  0  0  0  0  0  0
   -1.8595   -1.3507   -1.1981 H   0  0  0  0  0  0  0  0  0  0  0  0
   -2.5800    2.2903    0.4316 H   0  0  0  0  0  0  0  0  0  0  0  0
   -3.7589    2.2067   -0.8901 H   0  0  0  0  0  0  0  0  0  0  0  0
   -2.2322    0.8840   -2.2737 H   0  0  0  0  0  0  0  0  0  0  0  0
   -1.3411    2.2880   -1.6675 H   0  0  0  0  0  0  0  0  0  0  0  0
   -3.2270   -2.1495    2.0211 H   0  0  0  0  0  0  0  0  0  0  0  0
   -3.3693   -2.5363    0.2846 H   0  0  0  0  0  0  0  0  0  0  0  0
    0.5572    1.1075   -2.2187 H   0  0  0  0  0  0  0  0  0  0  0  0
   -0.0270   -0.5233   -2.4851 H   0  0  0  0  0  0  0  0  0  0  0  0
   -5.6006   -1.7129    1.2567 H   0  0  0  0  0  0  0  0  0  0  0  0
    1.5487   -2.5089   -1.4040 H   0  0  0  0  0  0  0  0  0  0  0  0
    1.7638    2.5539   -0.2809 H   0  0  0  0  0  0  0  0  0  0  0  0
    5.2698   -0.6178    1.3513 H   0  0  0  0  0  0  0  0  0  0  0  0
    4.8852   -2.7041   -0.3848 H   0  0  0  0  0  0  0  0  0  0  0  0
    3.9264   -2.9947    1.1099 H   0  0  0  0  0  0  0  0  0  0  0  0
    3.3993   -3.6971   -0.4478 H   0  0  0  0  0  0  0  0  0  0  0  0
    3.6579    3.3647    1.0919 H   0  0  0  0  0  0  0  0  0  0  0  0
    5.3900    1.8030    1.8995 H   0  0  0  0  0  0  0  0  0  0  0  0
  1 12  2  0  0  0  0
  2  6  1  0  0  0  0
  2  8  1  0  0  0  0
  2 12  1  0  0  0  0
  3  7  1  0  0  0  0
  3  9  1  0  0  0  0
  3 11  1  0  0  0  0
  4 10  1  0  0  0  0
  4 12  1  0  0  0  0
  4 33  1  0  0  0  0
  5 15  1  0  0  0  0
  5 16  1  0  0  0  0
  5 19  1  0  0  0  0
  6  7  1  0  0  0  0
  6 10  1  0  0  0  0
  6 22  1  0  0  0  0
  7 23  1  0  0  0  0
  7 24  1  0  0  0  0
  8  9  1  0  0  0  0
  8 25  1  0  0  0  0
  8 26  1  0  0  0  0
  9 27  1  0  0  0  0
  9 28  1  0  0  0  0
 10 29  1  0  0  0  0
 10 30  1  0  0  0  0
 11 13  1  0  0  0  0
 11 31  1  0  0  0  0
 11 32  1  0  0  0  0
 13 14  1  0  0  0  0
 13 15  2  0  0  0  0
 14 16  1  0  0  0  0
 14 17  2  0  0  0  0
 15 34  1  0  0  0  0
 16 18  2  0  0  0  0
 17 20  1  0  0  0  0
 17 35  1  0  0  0  0
 18 21  1  0  0  0  0
 18 36  1  0  0  0  0
 19 37  1  0  0  0  0
 19 38  1  0  0  0  0
 19 39  1  0  0  0  0
 20 21  2  0  0  0  0
 20 40  1  0  0  0  0
 21 41  1  0  0  0  0
M  END
> <PUBCHEM_COMPOUND_CID>
75368550

> <PUBCHEM_CONFORMER_RMSD>
0.6

> <PUBCHEM_CONFORMER_DIVERSEORDER>
1
44
39
25
40
17
16
7
38
47
46
30
27
41
18
33
45
13
36
34
22
31
37
35
42
26
6
8
20
49
3
28
5
29
48
11
32
23
4
12
2
43
9
19
15
21
10
14
24

> <PUBCHEM_MMFF94_PARTIAL_CHARGES>
26
1 -0.57
10 0.3
11 0.45
12 0.69
13 -0.18
15 -0.3
16 -0.15
17 -0.15
18 -0.15
19 0.26
2 -0.66
20 -0.15
21 -0.15
3 -0.81
33 0.37
34 0.15
35 0.15
36 0.15
4 -0.73
40 0.15
41 0.15
5 0.05
6 0.3
7 0.27
8 0.3
9 0.27

> <PUBCHEM_EFFECTIVE_ROTOR_COUNT>
3.2

> <PUBCHEM_PHARMACOPHORE_FEATURES>
8
1 1 acceptor
1 3 cation
1 4 donor
1 5 cation
5 2 4 6 10 12 rings
5 5 13 14 15 16 rings
6 14 16 17 18 20 21 rings
6 2 3 6 7 8 9 rings

> <PUBCHEM_HEAVY_ATOM_COUNT>
21

> <PUBCHEM_ATOM_DEF_STEREO_COUNT>
1

> <PUBCHEM_ATOM_UDEF_STEREO_COUNT>
0

> <PUBCHEM_BOND_DEF_STEREO_COUNT>
0

> <PUBCHEM_BOND_UDEF_STEREO_COUNT>
0

> <PUBCHEM_ISOTOPIC_ATOM_COUNT>
0

> <PUBCHEM_COMPONENT_COUNT>
1

> <PUBCHEM_CACTVS_TAUTO_COUNT>
2

> <PUBCHEM_CONFORMER_ID>
047E086600000001

> <PUBCHEM_MMFF94_ENERGY>
43.5059

> <PUBCHEM_FEATURE_SELFOVERLAP>
40.784

> <PUBCHEM_SHAPE_FINGERPRINT>
10366900 7 18335710480594911616
10498660 4 12894802393619541683
10670039 82 14692307139527518408
1100329 8 15094243927129676236
11045977 3 18410012130430534067
11370993 144 18339925913823752321
11370993 70 18411419531174088459
114674 6 18188210901467179066
11552529 35 18130227189387339215
11578080 2 14274000178734787534
12236239 1 16486969600617462612
12507560 40 18410289173101384732
12633257 1 18261099820821038920
12670546 177 9583517616125702049
12788726 201 14562810998104261287
12892183 10 18413110567204035881
13533116 47 18337957792416004251
13583140 156 18411408493039163269
13675066 3 18187370939139136887
14178342 30 17313936412135559100
14251764 38 17845380942590971353
14289901 80 18272363200307811095
14341114 176 18411705374295640480
15188451 53 17604706815336228395
15342168 16 17561082552683728100
15880784 105 18202567280741324815
16752209 62 15430028838555393477
17349148 13 15502372335612762097
1813 80 16370729240108745047
20157964 124 18131349679400800805
204376 136 17275107245184897415
20681677 76 18411128117542425332
21065198 57 18410012100534600565
21065199 12 18409446977217055112
21065201 7 17604147021645302725
21503847 285 17632585941970125492
21756936 100 17768525346561604780
21792934 111 18334021567365407457
21859007 373 17605258607112425013
22122407 14 17346328111148518497
22646028 28 15647049373951115016
22854114 59 18272371992190177621
23366157 5 16663197271966968669
23557571 272 17967527956662139549
23559900 14 18187939364658922399
2838139 119 14043744933787034936
316301 35 17968375641952737762
3421961 26 18339642223008323106
3472631 163 14692276383256252960
351380 180 18412544288998918417
351380 3 15140674787057906992
465052 167 13767934511511493785
474 4 15697999651791905493
49207404 50 18412263960520032492
5104073 3 18340217327782184523
5374978 207 18334861623358912877
5924683 9 18267864059611309567
602551 16 17385722491626648098
960060 61 12035452756807392155
9709674 26 18260837020140935619

> <PUBCHEM_SHAPE_MULTIPOLES>
406.38
11.34
2.34
1.28
7.7
0.54
-0.19
-0.36
4.86
-2.3
0.22
-0.1
-0.1
1.7

> <PUBCHEM_SHAPE_SELFOVERLAP>
885.163

> <PUBCHEM_SHAPE_VOLUME>
224.4

> <PUBCHEM_COORDINATE_TYPE>
2
5
10

$$$$
