7164930
  -OEChem-12032416133D

 64 66  0     1  0  0  0  0  0999 V2000
    1.1154    1.4291    1.6729 S   0  0  0  0  0  0  0  0  0  0  0  0
   -0.7853   -1.4909    2.1317 O   0  0  0  0  0  0  0  0  0  0  0  0
    1.6141    1.8967    2.9490 O   0  0  0  0  0  0  0  0  0  0  0  0
   -0.2600    1.6559    1.2823 O   0  0  0  0  0  0  0  0  0  0  0  0
   -2.5004   -3.8701   -0.5845 O   0  0  0  0  0  0  0  0  0  0  0  0
    2.8656   -3.6035   -2.0340 O   0  0  0  0  0  0  0  0  0  0  0  0
    1.4742   -0.2373    1.5076 N   0  0  1  0  0  0  0  0  0  0  0  0
   -1.5418   -1.3073   -0.0622 N   0  0  0  0  0  0  0  0  0  0  0  0
    2.8769   -1.9917   -0.3599 N   0  0  0  0  0  0  0  0  0  0  0  0
   -4.0847   -3.5515    1.0472 N   0  0  0  0  0  0  0  0  0  0  0  0
   -3.6795    0.6367   -0.8245 C   0  0  0  0  0  0  0  0  0  0  0  0
   -4.6147    1.2758   -1.8601 C   0  0  0  0  0  0  0  0  0  0  0  0
   -3.9136    1.2384    0.5678 C   0  0  0  0  0  0  0  0  0  0  0  0
   -3.8632   -0.8794   -0.7948 C   0  0  0  0  0  0  0  0  0  0  0  0
   -4.4879    2.7975   -1.8711 C   0  0  0  0  0  0  0  0  0  0  0  0
   -3.7881    2.7602    0.5527 C   0  0  0  0  0  0  0  0  0  0  0  0
   -4.7126    3.3910   -0.4838 C   0  0  0  0  0  0  0  0  0  0  0  0
   -2.9343   -1.6056    0.1833 C   0  0  1  0  0  0  0  0  0  0  0  0
    0.7752   -0.9683    0.4109 C   0  0  1  0  0  0  0  0  0  0  0  0
    1.4969   -2.2596    0.0437 C   0  0  0  0  0  0  0  0  0  0  0  0
    2.8987   -0.6318    1.7139 C   0  0  0  0  0  0  0  0  0  0  0  0
    3.5749   -0.9387    0.3846 C   0  0  0  0  0  0  0  0  0  0  0  0
   -0.5861   -1.2763    0.9387 C   0  0  0  0  0  0  0  0  0  0  0  0
   -3.1209   -3.1170    0.1624 C   0  0  0  0  0  0  0  0  0  0  0  0
    3.4483   -2.7174   -1.4051 C   0  0  0  0  0  0  0  0  0  0  0  0
    2.1549    2.0960    0.4111 C   0  0  0  0  0  0  0  0  0  0  0  0
    4.8751   -2.3694   -1.7530 C   0  0  0  0  0  0  0  0  0  0  0  0
    1.6676    2.2454   -0.8874 C   0  0  0  0  0  0  0  0  0  0  0  0
    3.4637    2.4731    0.7126 C   0  0  0  0  0  0  0  0  0  0  0  0
    2.4890    2.7717   -1.8844 C   0  0  0  0  0  0  0  0  0  0  0  0
    4.2849    2.9995   -0.2845 C   0  0  0  0  0  0  0  0  0  0  0  0
    3.7975    3.1488   -1.5830 C   0  0  0  0  0  0  0  0  0  0  0  0
   -2.6488    0.8653   -1.1278 H   0  0  0  0  0  0  0  0  0  0  0  0
   -5.6554    1.0031   -1.6426 H   0  0  0  0  0  0  0  0  0  0  0  0
   -4.3870    0.8878   -2.8601 H   0  0  0  0  0  0  0  0  0  0  0  0
   -3.1858    0.8579    1.2913 H   0  0  0  0  0  0  0  0  0  0  0  0
   -4.9096    0.9600    0.9350 H   0  0  0  0  0  0  0  0  0  0  0  0
   -4.9047   -1.1263   -0.5496 H   0  0  0  0  0  0  0  0  0  0  0  0
   -3.6932   -1.2764   -1.8050 H   0  0  0  0  0  0  0  0  0  0  0  0
   -3.4901    3.0776   -2.2309 H   0  0  0  0  0  0  0  0  0  0  0  0
   -5.2120    3.2223   -2.5754 H   0  0  0  0  0  0  0  0  0  0  0  0
   -2.7505    3.0393    0.3323 H   0  0  0  0  0  0  0  0  0  0  0  0
   -4.0218    3.1593    1.5462 H   0  0  0  0  0  0  0  0  0  0  0  0
   -5.7563    3.2345   -0.1848 H   0  0  0  0  0  0  0  0  0  0  0  0
   -4.5479    4.4739   -0.5147 H   0  0  0  0  0  0  0  0  0  0  0  0
   -3.1592   -1.2815    1.2064 H   0  0  0  0  0  0  0  0  0  0  0  0
    0.7147   -0.3354   -0.4795 H   0  0  0  0  0  0  0  0  0  0  0  0
    1.5390   -2.9518    0.8947 H   0  0  0  0  0  0  0  0  0  0  0  0
    0.9638   -2.7841   -0.7576 H   0  0  0  0  0  0  0  0  0  0  0  0
    2.8993   -1.5236    2.3538 H   0  0  0  0  0  0  0  0  0  0  0  0
    3.4556    0.1250    2.2718 H   0  0  0  0  0  0  0  0  0  0  0  0
   -1.2474   -1.1965   -1.0285 H   0  0  0  0  0  0  0  0  0  0  0  0
    3.6218   -0.0746   -0.2794 H   0  0  0  0  0  0  0  0  0  0  0  0
    4.6049   -1.2572    0.5734 H   0  0  0  0  0  0  0  0  0  0  0  0
   -4.3122   -4.5372    1.1257 H   0  0  0  0  0  0  0  0  0  0  0  0
   -4.6045   -2.9166    1.6447 H   0  0  0  0  0  0  0  0  0  0  0  0
    5.1605   -2.8877   -2.6736 H   0  0  0  0  0  0  0  0  0  0  0  0
    4.9811   -1.2951   -1.9236 H   0  0  0  0  0  0  0  0  0  0  0  0
    5.5440   -2.6939   -0.9518 H   0  0  0  0  0  0  0  0  0  0  0  0
    0.6510    1.9631   -1.1457 H   0  0  0  0  0  0  0  0  0  0  0  0
    3.8651    2.3752    1.7168 H   0  0  0  0  0  0  0  0  0  0  0  0
    2.1094    2.8887   -2.8952 H   0  0  0  0  0  0  0  0  0  0  0  0
    5.3033    3.2946   -0.0498 H   0  0  0  0  0  0  0  0  0  0  0  0
    4.4370    3.5589   -2.3591 H   0  0  0  0  0  0  0  0  0  0  0  0
  1  3  2  0  0  0  0
  1  4  2  0  0  0  0
  1  7  1  0  0  0  0
  1 26  1  0  0  0  0
  2 23  2  0  0  0  0
  5 24  2  0  0  0  0
  6 25  2  0  0  0  0
  7 19  1  0  0  0  0
  7 21  1  0  0  0  0
  8 18  1  0  0  0  0
  8 23  1  0  0  0  0
  8 52  1  0  0  0  0
  9 20  1  0  0  0  0
  9 22  1  0  0  0  0
  9 25  1  0  0  0  0
 10 24  1  0  0  0  0
 10 55  1  0  0  0  0
 10 56  1  0  0  0  0
 11 12  1  0  0  0  0
 11 13  1  0  0  0  0
 11 14  1  0  0  0  0
 11 33  1  0  0  0  0
 12 15  1  0  0  0  0
 12 34  1  0  0  0  0
 12 35  1  0  0  0  0
 13 16  1  0  0  0  0
 13 36  1  0  0  0  0
 13 37  1  0  0  0  0
 14 18  1  0  0  0  0
 14 38  1  0  0  0  0
 14 39  1  0  0  0  0
 15 17  1  0  0  0  0
 15 40  1  0  0  0  0
 15 41  1  0  0  0  0
 16 17  1  0  0  0  0
 16 42  1  0  0  0  0
 16 43  1  0  0  0  0
 17 44  1  0  0  0  0
 17 45  1  0  0  0  0
 18 24  1  0  0  0  0
 18 46  1  0  0  0  0
 19 20  1  0  0  0  0
 19 23  1  0  0  0  0
 19 47  1  0  0  0  0
 20 48  1  0  0  0  0
 20 49  1  0  0  0  0
 21 22  1  0  0  0  0
 21 50  1  0  0  0  0
 21 51  1  0  0  0  0
 22 53  1  0  0  0  0
 22 54  1  0  0  0  0
 25 27  1  0  0  0  0
 26 28  2  0  0  0  0
 26 29  1  0  0  0  0
 27 57  1  0  0  0  0
 27 58  1  0  0  0  0
 27 59  1  0  0  0  0
 28 30  1  0  0  0  0
 28 60  1  0  0  0  0
 29 31  2  0  0  0  0
 29 61  1  0  0  0  0
 30 32  2  0  0  0  0
 30 62  1  0  0  0  0
 31 32  1  0  0  0  0
 31 63  1  0  0  0  0
 32 64  1  0  0  0  0
M  END
> <PUBCHEM_COMPOUND_CID>
7164930

> <PUBCHEM_CONFORMER_RMSD>
1.2

> <PUBCHEM_CONFORMER_DIVERSEORDER>
1
16
62
61
85
78
102
49
110
46
53
39
54
97
29
60
103
113
34
32
66
101
71
9
96
82
63
26
107
36
70
43
89
67
50
19
31
81
42
75
37
15
111
108
41
88
112
104
105
33
48
10
45
94
56
69
13
87
40
98
92
59
74
76
51
14
84
20
90
47
57
65
5
25
95
2
68
106
93
86
72
83
18
30
12
24
91
23
73
77
80
7
99
38
58
55
27
8
79
4
6
100
22
52
64
11
109
17
21
3
44
28
35

> <PUBCHEM_MMFF94_PARTIAL_CHARGES>
33
1 1.45
10 -0.8
18 0.36
19 0.42
2 -0.57
20 0.3
21 0.36
22 0.3
23 0.57
24 0.57
25 0.57
26 -0.01
27 0.06
28 -0.15
29 -0.15
3 -0.65
30 -0.15
31 -0.15
32 -0.15
4 -0.65
5 -0.57
52 0.37
55 0.37
56 0.37
6 -0.57
60 0.15
61 0.15
62 0.15
63 0.15
64 0.15
7 -0.85
8 -0.73
9 -0.66

> <PUBCHEM_EFFECTIVE_ROTOR_COUNT>
11.4

> <PUBCHEM_PHARMACOPHORE_FEATURES>
10
1 10 donor
1 2 acceptor
1 3 acceptor
1 4 acceptor
1 5 acceptor
1 6 acceptor
1 8 donor
6 11 12 13 15 16 17 rings
6 26 28 29 30 31 32 rings
6 7 9 19 20 21 22 rings

> <PUBCHEM_HEAVY_ATOM_COUNT>
32

> <PUBCHEM_ATOM_DEF_STEREO_COUNT>
2

> <PUBCHEM_ATOM_UDEF_STEREO_COUNT>
0

> <PUBCHEM_BOND_DEF_STEREO_COUNT>
0

> <PUBCHEM_BOND_UDEF_STEREO_COUNT>
0

> <PUBCHEM_ISOTOPIC_ATOM_COUNT>
0

> <PUBCHEM_COMPONENT_COUNT>
1

> <PUBCHEM_CACTVS_TAUTO_COUNT>
4

> <PUBCHEM_CONFORMER_ID>
006D540200000001

> <PUBCHEM_MMFF94_ENERGY>
61.7235

> <PUBCHEM_FEATURE_SELFOVERLAP>
50.766

> <PUBCHEM_SHAPE_FINGERPRINT>
10670039 82 18118403088307288724
10675989 125 17688314486476121438
10764073 3 17764824128112242256
11445158 3 17616306507984156785
11513181 2 18341606053390270119
11582403 64 15550468410518103896
12422481 6 18117812530984616768
12788726 201 17753314659541483699
13944108 23 17107337988720810389
14713325 29 17608671722531804096
15163728 17 17169568508811910132
15210252 30 18119535340839553182
15439362 3 18337110051492149348
16628084 112 17042341436580968487
17349148 13 12966545583071249383
20600515 1 18196074570015979834
20642791 239 18191603964311532818
20691752 17 16877933971171080940
20764821 26 17320387152699328453
23559900 14 18272368633900681906
340366 18 18263083236507672437
4280585 95 18265896861578922854
460360 51 18410578383245552467
46194498 28 18337680801005537527
5081480 168 18264222317458124548
5895379 119 18262223512809125784
7399639 24 17767953599950146211

> <PUBCHEM_SHAPE_MULTIPOLES>
613.12
10.5
5.62
2.13
5.87
1.19
0.26
-3.14
-4.72
0.06
-1.88
-1.18
-0.41
2.17

> <PUBCHEM_SHAPE_SELFOVERLAP>
1259.189

> <PUBCHEM_SHAPE_VOLUME>
351.1

> <PUBCHEM_COORDINATE_TYPE>
2
5
10

$$$$
