7134495
  -OEChem-12032416113D

 63 65  0     1  0  0  0  0  0999 V2000
    3.8350    0.8980   -0.7035 S   0  0  0  0  0  0  0  0  0  0  0  0
   -0.6689    4.0703    2.5711 F   0  0  0  0  0  0  0  0  0  0  0  0
   -0.3587    1.9337    2.7777 F   0  0  0  0  0  0  0  0  0  0  0  0
    1.1590    3.3228    3.4816 F   0  0  0  0  0  0  0  0  0  0  0  0
    0.4749   -2.3620    1.7205 O   0  0  0  0  0  0  0  0  0  0  0  0
    4.4206   -2.7450   -0.4592 O   0  0  0  0  0  0  0  0  0  0  0  0
    2.8493   -5.1914   -0.4668 O   0  0  0  0  0  0  0  0  0  0  0  0
   -1.8060   -3.5784   -0.3143 O   0  0  0  0  0  0  0  0  0  0  0  0
    4.6976    1.4307   -1.7409 O   0  0  0  0  0  0  0  0  0  0  0  0
    4.3903    0.5086    0.5786 O   0  0  0  0  0  0  0  0  0  0  0  0
   -3.3118   -1.7082    2.8628 O   0  0  0  0  0  0  0  0  0  0  0  0
    2.9398   -0.4014   -1.3214 N   0  0  0  0  0  0  0  0  0  0  0  0
   -1.8194   -1.4257    0.5714 N   0  0  0  0  0  0  0  0  0  0  0  0
   -5.1338   -2.2376    1.5682 N   0  0  0  0  0  0  0  0  0  0  0  0
    0.2662   -2.5805    0.3304 C   0  0  1  0  0  0  0  0  0  0  0  0
    2.4124   -1.4391   -0.3938 C   0  0  1  0  0  0  0  0  0  0  0  0
    0.8842   -1.4464   -0.4892 C   0  0  0  0  0  0  0  0  0  0  0  0
    3.0236   -2.7955   -0.7601 C   0  0  2  0  0  0  0  0  0  0  0  0
    0.8635   -3.9313   -0.0585 C   0  0  0  0  0  0  0  0  0  0  0  0
    2.3898   -3.9387    0.0403 C   0  0  1  0  0  0  0  0  0  0  0  0
   -1.2246   -2.6061    0.1598 C   0  0  0  0  0  0  0  0  0  0  0  0
   -3.2424   -1.1874    0.4902 C   0  0  2  0  0  0  0  0  0  0  0  0
    2.5731    2.0919   -0.3772 C   0  0  0  0  0  0  0  0  0  0  0  0
   -3.5731    0.3017    0.3382 C   0  0  0  0  0  0  0  0  0  0  0  0
   -3.8626   -1.7405    1.7650 C   0  0  0  0  0  0  0  0  0  0  0  0
    1.9468    2.1216    0.8688 C   0  0  0  0  0  0  0  0  0  0  0  0
    2.2043    3.0053   -1.3650 C   0  0  0  0  0  0  0  0  0  0  0  0
   -3.3929    0.7984   -1.0756 C   0  0  0  0  0  0  0  0  0  0  0  0
    0.9517    3.0646    1.1270 C   0  0  0  0  0  0  0  0  0  0  0  0
    1.2093    3.9482   -1.1067 C   0  0  0  0  0  0  0  0  0  0  0  0
    0.5830    3.9778    0.1392 C   0  0  0  0  0  0  0  0  0  0  0  0
   -2.1601    1.3077   -1.4840 C   0  0  0  0  0  0  0  0  0  0  0  0
   -4.4588    0.7479   -1.9739 C   0  0  0  0  0  0  0  0  0  0  0  0
    0.2829    3.0968    2.4596 C   0  0  0  0  0  0  0  0  0  0  0  0
   -1.9934    1.7666   -2.7907 C   0  0  0  0  0  0  0  0  0  0  0  0
   -4.2918    1.2067   -3.2807 C   0  0  0  0  0  0  0  0  0  0  0  0
   -3.0590    1.7161   -3.6889 C   0  0  0  0  0  0  0  0  0  0  0  0
    2.6854   -1.1896    0.6377 H   0  0  0  0  0  0  0  0  0  0  0  0
    0.5227   -0.4663   -0.1557 H   0  0  0  0  0  0  0  0  0  0  0  0
    0.5780   -1.5402   -1.5406 H   0  0  0  0  0  0  0  0  0  0  0  0
    2.9391   -2.9940   -1.8352 H   0  0  0  0  0  0  0  0  0  0  0  0
    0.4706   -4.7278    0.5884 H   0  0  0  0  0  0  0  0  0  0  0  0
    0.5711   -4.2064   -1.0815 H   0  0  0  0  0  0  0  0  0  0  0  0
    2.7069   -3.8836    1.0888 H   0  0  0  0  0  0  0  0  0  0  0  0
    2.9509   -0.6220   -2.3243 H   0  0  0  0  0  0  0  0  0  0  0  0
    0.3266   -1.4230    1.9203 H   0  0  0  0  0  0  0  0  0  0  0  0
    4.5185   -2.5739    0.4930 H   0  0  0  0  0  0  0  0  0  0  0  0
    2.4556   -5.8925    0.0803 H   0  0  0  0  0  0  0  0  0  0  0  0
   -1.2579   -0.7101    1.0209 H   0  0  0  0  0  0  0  0  0  0  0  0
   -3.6339   -1.7582   -0.3618 H   0  0  0  0  0  0  0  0  0  0  0  0
   -4.6123    0.4917    0.6394 H   0  0  0  0  0  0  0  0  0  0  0  0
   -2.9638    0.9084    1.0221 H   0  0  0  0  0  0  0  0  0  0  0  0
    2.2189    1.4105    1.6445 H   0  0  0  0  0  0  0  0  0  0  0  0
    2.6745    2.9945   -2.3442 H   0  0  0  0  0  0  0  0  0  0  0  0
    0.9202    4.6573   -1.8769 H   0  0  0  0  0  0  0  0  0  0  0  0
   -0.1908    4.7185    0.3207 H   0  0  0  0  0  0  0  0  0  0  0  0
   -5.6665   -2.6248    2.3401 H   0  0  0  0  0  0  0  0  0  0  0  0
   -5.5858   -2.2360    0.6593 H   0  0  0  0  0  0  0  0  0  0  0  0
   -1.3221    1.3516   -0.7940 H   0  0  0  0  0  0  0  0  0  0  0  0
   -5.4232    0.3509   -1.6684 H   0  0  0  0  0  0  0  0  0  0  0  0
   -1.0332    2.1623   -3.1086 H   0  0  0  0  0  0  0  0  0  0  0  0
   -5.1213    1.1666   -3.9806 H   0  0  0  0  0  0  0  0  0  0  0  0
   -2.9290    2.0730   -4.7064 H   0  0  0  0  0  0  0  0  0  0  0  0
  1  9  2  0  0  0  0
  1 10  2  0  0  0  0
  1 12  1  0  0  0  0
  1 23  1  0  0  0  0
  2 34  1  0  0  0  0
  3 34  1  0  0  0  0
  4 34  1  0  0  0  0
  5 15  1  0  0  0  0
  5 46  1  0  0  0  0
  6 18  1  0  0  0  0
  6 47  1  0  0  0  0
  7 20  1  0  0  0  0
  7 48  1  0  0  0  0
  8 21  2  0  0  0  0
 11 25  2  0  0  0  0
 12 16  1  0  0  0  0
 12 45  1  0  0  0  0
 13 21  1  0  0  0  0
 13 22  1  0  0  0  0
 13 49  1  0  0  0  0
 14 25  1  0  0  0  0
 14 57  1  0  0  0  0
 14 58  1  0  0  0  0
 15 17  1  0  0  0  0
 15 19  1  0  0  0  0
 15 21  1  0  0  0  0
 16 17  1  0  0  0  0
 16 18  1  0  0  0  0
 16 38  1  0  0  0  0
 17 39  1  0  0  0  0
 17 40  1  0  0  0  0
 18 20  1  0  0  0  0
 18 41  1  0  0  0  0
 19 20  1  0  0  0  0
 19 42  1  0  0  0  0
 19 43  1  0  0  0  0
 20 44  1  0  0  0  0
 22 24  1  0  0  0  0
 22 25  1  0  0  0  0
 22 50  1  0  0  0  0
 23 26  1  0  0  0  0
 23 27  2  0  0  0  0
 24 28  1  0  0  0  0
 24 51  1  0  0  0  0
 24 52  1  0  0  0  0
 26 29  2  0  0  0  0
 26 53  1  0  0  0  0
 27 30  1  0  0  0  0
 27 54  1  0  0  0  0
 28 32  2  0  0  0  0
 28 33  1  0  0  0  0
 29 31  1  0  0  0  0
 29 34  1  0  0  0  0
 30 31  2  0  0  0  0
 30 55  1  0  0  0  0
 31 56  1  0  0  0  0
 32 35  1  0  0  0  0
 32 59  1  0  0  0  0
 33 36  2  0  0  0  0
 33 60  1  0  0  0  0
 35 37  2  0  0  0  0
 35 61  1  0  0  0  0
 36 37  1  0  0  0  0
 36 62  1  0  0  0  0
 37 63  1  0  0  0  0
M  END
> <PUBCHEM_COMPOUND_CID>
7134495

> <PUBCHEM_CONFORMER_RMSD>
1.4

> <PUBCHEM_CONFORMER_DIVERSEORDER>
1
16
112
63
139
30
179
132
129
173
85
144
49
14
101
141
17
104
167
73
160
124
34
88
46
176
134
56
44
143
157
162
152
114
181
74
121
37
39
140
83
108
180
175
80
24
102
178
127
81
19
12
26
154
166
103
159
147
15
128
142
135
71
158
148
55
38
53
120
171
107
76
95
11
89
169
62
57
3
145
60
164
47
99
125
105
177
18
86
40
117
122
32
97
123
90
98
155
146
87
65
84
149
77
2
54
118
168
116
23
64
66
172
165
22
33
106
111
156
29
35
82
70
119
170
21
67
93
96
79
100
151
92
110
109
4
36
133
52
31
8
138
150
137
48
91
5
25
113
41
9
6
115
131
174
78
43
163
61
28
10
136
126
72
69
68
50
13
51
45
20
59
130
58
161
153
7
75
42
27
94

> <PUBCHEM_MMFF94_PARTIAL_CHARGES>
51
1 1.45
10 -0.65
11 -0.57
12 -0.91
13 -0.73
14 -0.8
15 0.34
16 0.36
18 0.28
2 -0.34
20 0.28
21 0.57
22 0.36
23 -0.01
24 0.14
25 0.57
26 -0.15
27 -0.15
28 -0.14
29 -0.14
3 -0.34
30 -0.15
31 -0.15
32 -0.15
33 -0.15
34 1.16
35 -0.15
36 -0.15
37 -0.15
4 -0.34
45 0.42
46 0.4
47 0.4
48 0.4
49 0.37
5 -0.68
53 0.15
54 0.15
55 0.15
56 0.15
57 0.37
58 0.37
59 0.15
6 -0.68
60 0.15
61 0.15
62 0.15
63 0.15
7 -0.68
8 -0.57
9 -0.65

> <PUBCHEM_EFFECTIVE_ROTOR_COUNT>
11.2

> <PUBCHEM_PHARMACOPHORE_FEATURES>
16
1 10 acceptor
1 11 acceptor
1 12 donor
1 13 donor
1 14 donor
1 5 acceptor
1 5 donor
1 6 acceptor
1 6 donor
1 7 acceptor
1 7 donor
1 8 acceptor
1 9 acceptor
6 15 16 17 18 19 20 rings
6 23 26 27 29 30 31 rings
6 28 32 33 35 36 37 rings

> <PUBCHEM_HEAVY_ATOM_COUNT>
37

> <PUBCHEM_ATOM_DEF_STEREO_COUNT>
5

> <PUBCHEM_ATOM_UDEF_STEREO_COUNT>
0

> <PUBCHEM_BOND_DEF_STEREO_COUNT>
0

> <PUBCHEM_BOND_UDEF_STEREO_COUNT>
0

> <PUBCHEM_ISOTOPIC_ATOM_COUNT>
0

> <PUBCHEM_COMPONENT_COUNT>
1

> <PUBCHEM_CACTVS_TAUTO_COUNT>
4

> <PUBCHEM_CONFORMER_ID>
006CDD1F00000001

> <PUBCHEM_MMFF94_ENERGY>
73.8031

> <PUBCHEM_FEATURE_SELFOVERLAP>
81.234

> <PUBCHEM_SHAPE_FINGERPRINT>
10165383 225 17834133200404765993
10190206 1 18048631195404561662
11115154 58 17481390844047324365
11513181 2 17485929632098956510
12156800 1 14780988202764049865
13422730 73 17982130639668597989
13615921 28 17916885628039782205
140371 6 17831016823653595910
14068700 675 17548386247378904750
14202776 33 16461890045648439160
14279260 333 17843718575952501724
14415360 78 17767680920929918105
150020 26 18335413612344720344
15403338 16 17986136152339389529
15975801 100 17751353104611197260
17921350 177 17750772476282741812
20764821 26 18268435809208317828
238 59 18126820876610133357
35225 105 17044831272050520301
3524813 1 18192161592430838965
50150288 127 17272307738325763824
508706 21 18046611571703425876
6376802 137 17625791913377191890
66674814 147 17827622674313403916

> <PUBCHEM_SHAPE_MULTIPOLES>
687.44
8.23
6.82
3.16
3.2
2.23
0.88
2.23
-3.55
-4.58
1.46
3.29
-3.23
3.6

> <PUBCHEM_SHAPE_SELFOVERLAP>
1448.486

> <PUBCHEM_SHAPE_VOLUME>
388.8

> <PUBCHEM_COORDINATE_TYPE>
2
5
10

$$$$
