75368689
  -OEChem-12032416383D

 50 53  0     1  0  0  0  0  0999 V2000
   -5.5142    1.5794    0.4018 Cl  0  0  0  0  0  0  0  0  0  0  0  0
    2.2486    3.0492    0.0875 O   0  0  0  0  0  0  0  0  0  0  0  0
    0.1907    1.9314   -0.0992 N   0  0  0  0  0  0  0  0  0  0  0  0
   -2.2493    0.7751    0.6884 N   0  0  2  0  0  0  0  0  0  0  0  0
    1.9560    1.1038   -1.2141 N   0  0  0  0  0  0  0  0  0  0  0  0
   -0.3517    0.8377   -0.8778 C   0  0  2  0  0  0  0  0  0  0  0  0
   -1.2378   -0.0492   -0.0037 C   0  0  0  0  0  0  0  0  0  0  0  0
    0.8871    0.1472   -1.4450 C   0  0  0  0  0  0  0  0  0  0  0  0
   -0.6957    2.7150    0.7358 C   0  0  0  0  0  0  0  0  0  0  0  0
   -1.6043    1.7885    1.5478 C   0  0  0  0  0  0  0  0  0  0  0  0
    1.5517    2.1458   -0.3554 C   0  0  0  0  0  0  0  0  0  0  0  0
   -3.1408   -0.0716    1.4805 C   0  0  0  0  0  0  0  0  0  0  0  0
    3.2988    0.8859   -1.7048 C   0  0  0  0  0  0  0  0  0  0  0  0
   -4.1564   -0.7728    0.6254 C   0  0  0  0  0  0  0  0  0  0  0  0
    4.0780   -0.0410   -0.8172 C   0  0  0  0  0  0  0  0  0  0  0  0
   -5.2587   -0.1004    0.0981 C   0  0  0  0  0  0  0  0  0  0  0  0
   -3.9763   -2.1308    0.3624 C   0  0  0  0  0  0  0  0  0  0  0  0
    4.5759    0.4165    0.4028 C   0  0  0  0  0  0  0  0  0  0  0  0
    4.3064   -1.3587   -1.2138 C   0  0  0  0  0  0  0  0  0  0  0  0
    5.3023   -0.4437    1.2262 C   0  0  0  0  0  0  0  0  0  0  0  0
    5.0328   -2.2188   -0.3903 C   0  0  0  0  0  0  0  0  0  0  0  0
   -6.1812   -0.7860   -0.6923 C   0  0  0  0  0  0  0  0  0  0  0  0
   -4.8990   -2.8164   -0.4278 C   0  0  0  0  0  0  0  0  0  0  0  0
    5.5307   -1.7614    0.8298 C   0  0  0  0  0  0  0  0  0  0  0  0
   -6.0013   -2.1440   -0.9552 C   0  0  0  0  0  0  0  0  0  0  0  0
    6.3079   -2.6806    1.7103 C   0  0  0  0  0  0  0  0  0  0  0  0
   -0.9390    1.2837   -1.6913 H   0  0  0  0  0  0  0  0  0  0  0  0
   -1.7082   -0.7922   -0.6566 H   0  0  0  0  0  0  0  0  0  0  0  0
   -0.6263   -0.5927    0.7294 H   0  0  0  0  0  0  0  0  0  0  0  0
    1.1303   -0.7808   -0.9176 H   0  0  0  0  0  0  0  0  0  0  0  0
    0.7894   -0.0553   -2.5157 H   0  0  0  0  0  0  0  0  0  0  0  0
   -1.2905    3.3517    0.0708 H   0  0  0  0  0  0  0  0  0  0  0  0
   -0.1054    3.3648    1.3894 H   0  0  0  0  0  0  0  0  0  0  0  0
   -1.0145    1.2961    2.3326 H   0  0  0  0  0  0  0  0  0  0  0  0
   -2.3638    2.4044    2.0440 H   0  0  0  0  0  0  0  0  0  0  0  0
   -2.5696   -0.7933    2.0818 H   0  0  0  0  0  0  0  0  0  0  0  0
   -3.6877    0.5215    2.2264 H   0  0  0  0  0  0  0  0  0  0  0  0
    3.8164    1.8519   -1.7494 H   0  0  0  0  0  0  0  0  0  0  0  0
    3.2378    0.5094   -2.7323 H   0  0  0  0  0  0  0  0  0  0  0  0
    4.4124    1.4414    0.7231 H   0  0  0  0  0  0  0  0  0  0  0  0
    3.9223   -1.7283   -2.1608 H   0  0  0  0  0  0  0  0  0  0  0  0
   -3.1228   -2.6702    0.7647 H   0  0  0  0  0  0  0  0  0  0  0  0
    5.6849   -0.0756    2.1745 H   0  0  0  0  0  0  0  0  0  0  0  0
    5.2024   -3.2438   -0.7093 H   0  0  0  0  0  0  0  0  0  0  0  0
   -7.0455   -0.2766   -1.1109 H   0  0  0  0  0  0  0  0  0  0  0  0
   -4.7589   -3.8737   -0.6328 H   0  0  0  0  0  0  0  0  0  0  0  0
   -6.7195   -2.6779   -1.5707 H   0  0  0  0  0  0  0  0  0  0  0  0
    5.6346   -3.1972    2.4014 H   0  0  0  0  0  0  0  0  0  0  0  0
    6.8483   -3.4295    1.1213 H   0  0  0  0  0  0  0  0  0  0  0  0
    7.0554   -2.1313    2.2929 H   0  0  0  0  0  0  0  0  0  0  0  0
  1 16  1  0  0  0  0
  2 11  2  0  0  0  0
  3  6  1  0  0  0  0
  3  9  1  0  0  0  0
  3 11  1  0  0  0  0
  4  7  1  0  0  0  0
  4 10  1  0  0  0  0
  4 12  1  0  0  0  0
  5  8  1  0  0  0  0
  5 11  1  0  0  0  0
  5 13  1  0  0  0  0
  6  7  1  0  0  0  0
  6  8  1  0  0  0  0
  6 27  1  0  0  0  0
  7 28  1  0  0  0  0
  7 29  1  0  0  0  0
  8 30  1  0  0  0  0
  8 31  1  0  0  0  0
  9 10  1  0  0  0  0
  9 32  1  0  0  0  0
  9 33  1  0  0  0  0
 10 34  1  0  0  0  0
 10 35  1  0  0  0  0
 12 14  1  0  0  0  0
 12 36  1  0  0  0  0
 12 37  1  0  0  0  0
 13 15  1  0  0  0  0
 13 38  1  0  0  0  0
 13 39  1  0  0  0  0
 14 16  1  0  0  0  0
 14 17  2  0  0  0  0
 15 18  2  0  0  0  0
 15 19  1  0  0  0  0
 16 22  2  0  0  0  0
 17 23  1  0  0  0  0
 17 42  1  0  0  0  0
 18 20  1  0  0  0  0
 18 40  1  0  0  0  0
 19 21  2  0  0  0  0
 19 41  1  0  0  0  0
 20 24  2  0  0  0  0
 20 43  1  0  0  0  0
 21 24  1  0  0  0  0
 21 44  1  0  0  0  0
 22 25  1  0  0  0  0
 22 45  1  0  0  0  0
 23 25  2  0  0  0  0
 23 46  1  0  0  0  0
 24 26  1  0  0  0  0
 25 47  1  0  0  0  0
 26 48  1  0  0  0  0
 26 49  1  0  0  0  0
 26 50  1  0  0  0  0
M  END
> <PUBCHEM_COMPOUND_CID>
75368689

> <PUBCHEM_CONFORMER_RMSD>
0.8

> <PUBCHEM_CONFORMER_DIVERSEORDER>
1
32
56
21
71
68
55
82
58
62
86
67
53
41
46
39
52
59
88
9
30
65
75
20
50
66
10
15
80
14
24
23
8
17
37
40
79
45
13
48
57
44
87
78
11
19
42
12
33
60
63
83
35
69
81
77
49
16
61
47
54
74
73
25
31
29
64
34
22
36
43
2
70
4
26
27
51
72
76
38
28
84
5
85
6
18
7
3

> <PUBCHEM_MMFF94_PARTIAL_CHARGES>
34
1 -0.18
10 0.27
11 0.69
12 0.41
13 0.44
14 -0.14
15 -0.14
16 0.18
17 -0.15
18 -0.15
19 -0.15
2 -0.57
20 -0.15
21 -0.15
22 -0.15
23 -0.15
24 -0.14
25 -0.15
26 0.14
3 -0.66
4 -0.81
40 0.15
41 0.15
42 0.15
43 0.15
44 0.15
45 0.15
46 0.15
47 0.15
5 -0.66
6 0.3
7 0.27
8 0.3
9 0.3

> <PUBCHEM_EFFECTIVE_ROTOR_COUNT>
5.2

> <PUBCHEM_PHARMACOPHORE_FEATURES>
6
1 2 acceptor
1 4 cation
5 3 5 6 8 11 rings
6 14 16 17 22 23 25 rings
6 15 18 19 20 21 24 rings
6 3 4 6 7 9 10 rings

> <PUBCHEM_HEAVY_ATOM_COUNT>
26

> <PUBCHEM_ATOM_DEF_STEREO_COUNT>
1

> <PUBCHEM_ATOM_UDEF_STEREO_COUNT>
0

> <PUBCHEM_BOND_DEF_STEREO_COUNT>
0

> <PUBCHEM_BOND_UDEF_STEREO_COUNT>
0

> <PUBCHEM_ISOTOPIC_ATOM_COUNT>
0

> <PUBCHEM_COMPONENT_COUNT>
1

> <PUBCHEM_CACTVS_TAUTO_COUNT>
1

> <PUBCHEM_CONFORMER_ID>
047E08F100000001

> <PUBCHEM_MMFF94_ENERGY>
64.9577

> <PUBCHEM_FEATURE_SELFOVERLAP>
30.543

> <PUBCHEM_SHAPE_FINGERPRINT>
10721379 63 8213602025033584080
11796584 16 17458627864505295466
11809386 21 18339927112826853939
11963148 33 17479164723648117671
1200032 147 12103556525198299666
12390115 104 11241969270422640381
12422481 6 17275109409584482437
12596602 18 18060419110393080250
12760667 363 18114463370693490082
12839892 36 17918281934729135295
12895836 83 8430302546551967594
13533116 47 18335702767192519664
13761468 95 17170100458055743997
13782708 43 17968947521459554971
13828863 39 10735876179564202243
13885169 86 11239703215259656858
13914758 101 18335417951163548661
14068700 675 18410570669558193680
14251740 57 18059585655004932422
14251751 18 18410007749790726013
14251764 75 10879696720352624290
14347332 77 18269838774099864255
1454969 45 18337399335610239732
14848178 5 18409450301527153362
14950920 106 14476139786010043719
15163728 17 9943517536303013288
15183329 4 16081084870444428287
15188451 53 18411975832829118274
15475509 8 15647050426518666791
16126227 98 10087338059357489450
17349148 13 18337124413756447575
17857418 61 18409732880363070319
18222031 100 18271820020447660284
19377110 9 12175621806831847089
19438510 23 11671479207269096078
1979834 28 17561374975838194414
20028762 73 18413107243343324742
20567600 234 15626218048099616818
21033648 29 16128380315921489496
21458453 9 15768913826926094130
21987440 362 17103118093464009253
22061861 79 16805324413648422943
22079108 93 14117796912108847236
23559900 14 18269548498697981129
23572383 38 18059582364790906343
3004659 81 18334304183917000742
312425 54 17488756553312684642
339767 52 18272368676792300135
3472631 163 10159400038799145906
376196 1 14494162135063277604
38570 142 11023826210737484760
3886686 26 17264699014819066754
4258327 124 9078847269000277043
4339292 15 16878496810748525210
439807 62 18263931119678197163
463206 1 18260271866647882163
474113 269 18339910524803405095
5085150 59 18060418002608451231
5104073 3 17988093304411486161
531348 171 18186798063932896327
559249 180 18410012114110618395
8988823 20 18339079393092297148
960060 61 16950573198544578710
96874 4 18334848407755736034

> <PUBCHEM_SHAPE_MULTIPOLES>
516.13
17
3.23
1.5
0.85
0.04
0.05
14.17
2
-0.08
0.43
-1.24
0.12
-2.42

> <PUBCHEM_SHAPE_SELFOVERLAP>
1099.347

> <PUBCHEM_SHAPE_VOLUME>
288.8

> <PUBCHEM_COORDINATE_TYPE>
2
5
10

$$$$
