51136998
  -OEChem-12032416223D

 42 45  0     1  0  0  0  0  0999 V2000
    4.5086   -1.5475    0.5544 S   0  0  0  0  0  0  0  0  0  0  0  0
   -1.6038   -0.8066   -2.0810 O   0  0  0  0  0  0  0  0  0  0  0  0
   -3.3928    0.4551   -0.7723 O   0  0  0  0  0  0  0  0  0  0  0  0
   -0.3250   -1.3691   -0.2406 N   0  0  0  0  0  0  0  0  0  0  0  0
    2.7128    0.0858   -0.3173 N   0  0  0  0  0  0  0  0  0  0  0  0
    1.8685   -2.2511    0.0089 C   0  0  1  0  0  0  0  0  0  0  0  0
    1.1210   -2.3465    1.3483 C   0  0  0  0  0  0  0  0  0  0  0  0
    0.7158   -2.0662   -0.9860 C   0  0  0  0  0  0  0  0  0  0  0  0
   -0.0441   -1.3768    1.1906 C   0  0  0  0  0  0  0  0  0  0  0  0
    2.9255   -1.1606    0.0351 C   0  0  0  0  0  0  0  0  0  0  0  0
   -1.4125   -0.7843   -0.8641 C   0  0  0  0  0  0  0  0  0  0  0  0
   -2.3943   -0.0972    0.0507 C   0  0  0  0  0  0  0  0  0  0  0  0
    4.9831    0.0897    0.2949 C   0  0  0  0  0  0  0  0  0  0  0  0
    3.8838    0.8156   -0.1737 C   0  0  0  0  0  0  0  0  0  0  0  0
    6.2378    0.6887    0.4917 C   0  0  0  0  0  0  0  0  0  0  0  0
    4.0488    2.1892   -0.4545 C   0  0  0  0  0  0  0  0  0  0  0  0
    6.3740    2.0495    0.2063 C   0  0  0  0  0  0  0  0  0  0  0  0
    5.2950    2.7920   -0.2607 C   0  0  0  0  0  0  0  0  0  0  0  0
   -4.6468    0.6132   -0.2255 C   0  0  0  0  0  0  0  0  0  0  0  0
   -4.7869    0.8468    1.1425 C   0  0  0  0  0  0  0  0  0  0  0  0
   -5.7769    0.5399   -1.0398 C   0  0  0  0  0  0  0  0  0  0  0  0
   -6.0572    1.0069    1.6963 C   0  0  0  0  0  0  0  0  0  0  0  0
   -7.0471    0.7000   -0.4861 C   0  0  0  0  0  0  0  0  0  0  0  0
   -7.1873    0.9335    0.8820 C   0  0  0  0  0  0  0  0  0  0  0  0
    2.3710   -3.2018   -0.2121 H   0  0  0  0  0  0  0  0  0  0  0  0
    0.7271   -3.3641    1.4676 H   0  0  0  0  0  0  0  0  0  0  0  0
    1.7311   -2.1188    2.2277 H   0  0  0  0  0  0  0  0  0  0  0  0
    0.9874   -1.5063   -1.8865 H   0  0  0  0  0  0  0  0  0  0  0  0
    0.2978   -3.0334   -1.2885 H   0  0  0  0  0  0  0  0  0  0  0  0
   -0.9225   -1.6852    1.7637 H   0  0  0  0  0  0  0  0  0  0  0  0
    0.2351   -0.3594    1.4848 H   0  0  0  0  0  0  0  0  0  0  0  0
   -2.7986   -0.8572    0.7300 H   0  0  0  0  0  0  0  0  0  0  0  0
   -1.8830    0.6973    0.6038 H   0  0  0  0  0  0  0  0  0  0  0  0
    7.0846    0.1153    0.8560 H   0  0  0  0  0  0  0  0  0  0  0  0
    3.2126    2.7786   -0.8198 H   0  0  0  0  0  0  0  0  0  0  0  0
    7.3367    2.5326    0.3518 H   0  0  0  0  0  0  0  0  0  0  0  0
    5.4198    3.8494   -0.4774 H   0  0  0  0  0  0  0  0  0  0  0  0
   -3.9306    0.9336    1.8048 H   0  0  0  0  0  0  0  0  0  0  0  0
   -5.6735    0.3580   -2.1060 H   0  0  0  0  0  0  0  0  0  0  0  0
   -6.1666    1.1941    2.7606 H   0  0  0  0  0  0  0  0  0  0  0  0
   -7.9271    0.6431   -1.1202 H   0  0  0  0  0  0  0  0  0  0  0  0
   -8.1762    1.0594    1.3128 H   0  0  0  0  0  0  0  0  0  0  0  0
  1 10  1  0  0  0  0
  1 13  1  0  0  0  0
  2 11  2  0  0  0  0
  3 12  1  0  0  0  0
  3 19  1  0  0  0  0
  4  8  1  0  0  0  0
  4  9  1  0  0  0  0
  4 11  1  0  0  0  0
  5 10  2  0  0  0  0
  5 14  1  0  0  0  0
  6  7  1  0  0  0  0
  6  8  1  0  0  0  0
  6 10  1  0  0  0  0
  6 25  1  0  0  0  0
  7  9  1  0  0  0  0
  7 26  1  0  0  0  0
  7 27  1  0  0  0  0
  8 28  1  0  0  0  0
  8 29  1  0  0  0  0
  9 30  1  0  0  0  0
  9 31  1  0  0  0  0
 11 12  1  0  0  0  0
 12 32  1  0  0  0  0
 12 33  1  0  0  0  0
 13 14  1  0  0  0  0
 13 15  2  0  0  0  0
 14 16  2  0  0  0  0
 15 17  1  0  0  0  0
 15 34  1  0  0  0  0
 16 18  1  0  0  0  0
 16 35  1  0  0  0  0
 17 18  2  0  0  0  0
 17 36  1  0  0  0  0
 18 37  1  0  0  0  0
 19 20  2  0  0  0  0
 19 21  1  0  0  0  0
 20 22  1  0  0  0  0
 20 38  1  0  0  0  0
 21 23  2  0  0  0  0
 21 39  1  0  0  0  0
 22 24  2  0  0  0  0
 22 40  1  0  0  0  0
 23 24  1  0  0  0  0
 23 41  1  0  0  0  0
 24 42  1  0  0  0  0
M  END
> <PUBCHEM_COMPOUND_CID>
51136998

> <PUBCHEM_CONFORMER_RMSD>
0.8

> <PUBCHEM_CONFORMER_DIVERSEORDER>
1
141
228
11
90
103
30
158
263
134
217
108
168
167
85
77
64
8
250
47
274
83
281
178
265
165
67
52
70
129
177
7
155
53
143
14
123
159
194
292
256
249
173
285
162
197
23
97
153
51
241
82
272
56
73
209
170
163
245
24
230
238
50
184
244
94
88
139
293
59
117
152
111
286
13
156
260
302
66
99
91
126
212
288
75
79
145
266
135
136
186
138
211
42
221
154
157
291
225
114
38
44
243
262
118
280
235
115
9
306
32
246
68
205
58
161
119
248
107
253
104
160
37
61
216
63
27
89
20
131
120
282
72
4
224
109
233
240
5
236
41
290
76
196
101
187
166
199
151
223
48
200
17
137
3
305
172
65
283
112
169
277
237
87
215
206
242
289
298
33
147
35
69
121
232
10
171
276
271
133
259
78
95
220
303
49
229
183
84
304
258
71
100
31
45
190
294
110
146
80
57
180
202
16
234
43
93
124
179
127
29
12
128
198
222
191
300
279
74
21
15
22
299
201
270
296
102
164
144
203
297
39
208
6
54
98
176
252
264
81
113
36
254
28
267
261
210
193
301
34
204
18
106
231
96
255
150
40
175
60
218
140
19
2
181
132
122
174
86
105
182
213
62
55
26
268
269
284
188
207
287
149
192
251
275
227
46
148
189
295
185
195
278
125
214
247
239
116
25
226
142
130
92
273
257
219

> <PUBCHEM_MMFF94_PARTIAL_CHARGES>
32
1 -0.08
10 0.2
11 0.57
12 0.34
13 0.04
14 0.23
15 -0.15
16 -0.15
17 -0.15
18 -0.15
19 0.08
2 -0.57
20 -0.15
21 -0.15
22 -0.15
23 -0.15
24 -0.15
3 -0.36
34 0.15
35 0.15
36 0.15
37 0.15
38 0.15
39 0.15
4 -0.66
40 0.15
41 0.15
42 0.15
5 -0.57
6 0.18
8 0.3
9 0.3

> <PUBCHEM_EFFECTIVE_ROTOR_COUNT>
6

> <PUBCHEM_PHARMACOPHORE_FEATURES>
7
1 2 acceptor
1 3 acceptor
1 5 acceptor
5 1 5 10 13 14 rings
5 4 6 7 8 9 rings
6 13 14 15 16 17 18 rings
6 19 20 21 22 23 24 rings

> <PUBCHEM_HEAVY_ATOM_COUNT>
24

> <PUBCHEM_ATOM_DEF_STEREO_COUNT>
1

> <PUBCHEM_ATOM_UDEF_STEREO_COUNT>
0

> <PUBCHEM_BOND_DEF_STEREO_COUNT>
0

> <PUBCHEM_BOND_UDEF_STEREO_COUNT>
0

> <PUBCHEM_ISOTOPIC_ATOM_COUNT>
0

> <PUBCHEM_COMPONENT_COUNT>
1

> <PUBCHEM_CACTVS_TAUTO_COUNT>
1

> <PUBCHEM_CONFORMER_ID>
030C49E600000001

> <PUBCHEM_MMFF94_ENERGY>
61.4721

> <PUBCHEM_FEATURE_SELFOVERLAP>
35.61

> <PUBCHEM_SHAPE_FINGERPRINT>
10 15 17458345255842022828
10074138 170 16733552761358508387
10411042 1 17832702375812757706
10670039 82 16056604205861507961
10693767 8 10231759955079286620
11273773 42 18270960270778986124
11724838 91 18334294297050166471
12236239 1 18059852840319142823
12596602 18 18410015404150623563
12633257 1 15719675450203044604
12895836 83 17346313838354663719
12895837 130 17772467039590704188
13631057 29 18269267036780888823
13668630 136 10447920673146465061
13685833 64 9943806698664242693
13885169 86 18337676437561591668
13955234 65 18116430345404129722
14251764 75 18191030208415989580
14347332 77 8718834184637440303
14429380 56 18335408063858865253
14464042 87 17988927743010249136
14565420 104 18186236225590391762
14840074 17 18272368668460958405
15183329 4 13326859911633518055
15188451 53 13334733539932279919
15475509 35 15792560860991748258
15475509 8 13758083987028308747
15519825 34 15792581918736417481
155225 6 18043821003252016956
15575132 122 17916870115219348025
16760501 71 18334296486966418588
18335252 114 18272084977106718388
19319366 153 18340761563830295859
19784866 240 9295289469172871135
20157964 124 18410856542956039506
20567600 234 17748834033504294581
20567600 254 17895187805325862871
21033648 29 18264200491320406560
21033650 10 15338854044288001307
21298829 104 18271241724945790480
21304304 249 11458420219956164688
21307412 95 12247682711683393133
21585482 111 18265055739052120949
21637258 2 7853578993689455246
21641784 216 16343429405936618539
22079108 93 18040154011175592219
2215653 11 11671776062064218301
22224240 67 17822008722766335675
22956985 138 13191994841957811528
23522609 53 17489040266758238505
23559900 14 16082498735483132267
23845131 108 18040997366580240626
270888 7 18339923839734635752
2838139 119 18410285917637565140
3004659 81 16486697940031842838
335352 9 18409731760484369158
3472631 163 18131071571341002740
34797466 226 18272655606630509199
3633792 109 17060346215423146646
397830 11 18114755914202161411
4339292 15 10519723185362393680
4340502 62 17967255273831520091
437815 12 11455892451477196939
445580 126 18412256238459127976
465052 167 7997965795307108800
474 4 18409727365941677234
5104073 3 18113615720264570610
5207 123 10663825178021563707
531348 171 8358259225423516123
5385378 56 18334570227704230466
54076057 255 17346597457063426697
543368 44 18273496776191688769
5718773 13 10591502581056305780
5911458 16 17988933253812070449
59682541 35 17895201021778899257
59682541 52 11455882568514732243
6712543 237 16008735935758549816

> <PUBCHEM_SHAPE_MULTIPOLES>
476.06
19.67
2.56
1.29
18.87
0.03
0
14.91
-3.29
-4.49
-0.14
1.64
-0.24
-0.98

> <PUBCHEM_SHAPE_SELFOVERLAP>
1024.488

> <PUBCHEM_SHAPE_VOLUME>
263.5

> <PUBCHEM_COORDINATE_TYPE>
2
5
10

$$$$
