7664150
  -OEChem-12032416113D

 61 65  0     1  0  0  0  0  0999 V2000
    8.1370    0.8046    0.9889 F   0  0  0  0  0  0  0  0  0  0  0  0
    0.1965    2.5905    1.8358 O   0  0  0  0  0  0  0  0  0  0  0  0
   -3.7504   -0.8326    1.8707 O   0  0  0  0  0  0  0  0  0  0  0  0
    2.5265    0.3464   -1.7749 O   0  0  0  0  0  0  0  0  0  0  0  0
    0.5880   -6.4157   -0.8655 O   0  0  0  0  0  0  0  0  0  0  0  0
   -4.1775    0.7451    0.2329 N   0  0  0  0  0  0  0  0  0  0  0  0
   -1.5903    2.6097    0.3302 N   0  0  0  0  0  0  0  0  0  0  0  0
   -3.3098   -1.3731   -0.3404 N   0  0  0  0  0  0  0  0  0  0  0  0
    2.0133    1.8730   -0.0967 N   0  0  0  0  0  0  0  0  0  0  0  0
   -3.9979    3.1027    1.0443 C   0  0  1  0  0  0  0  0  0  0  0  0
   -3.5062    2.5836   -1.3069 C   0  0  2  0  0  0  0  0  0  0  0  0
   -4.1745    3.5999   -0.3849 C   0  0  0  0  0  0  0  0  0  0  0  0
   -4.6547    1.7226    1.2155 C   0  0  0  0  0  0  0  0  0  0  0  0
   -2.5030    3.0765    1.3822 C   0  0  0  0  0  0  0  0  0  0  0  0
   -4.2001    1.2123   -1.1652 C   0  0  0  0  0  0  0  0  0  0  0  0
   -2.0290    2.4434   -0.9872 C   0  0  0  0  0  0  0  0  0  0  0  0
   -1.1531    2.1284   -1.9563 C   0  0  0  0  0  0  0  0  0  0  0  0
   -0.2391    2.4394    0.6936 C   0  0  0  0  0  0  0  0  0  0  0  0
   -3.7358   -0.5208    0.6771 C   0  0  0  0  0  0  0  0  0  0  0  0
    0.6998    2.0630   -0.4104 C   0  0  0  0  0  0  0  0  0  0  0  0
    0.2378    1.9337   -1.6586 C   0  0  0  0  0  0  0  0  0  0  0  0
   -2.3938   -2.4480   -0.2294 C   0  0  0  0  0  0  0  0  0  0  0  0
    2.8529    1.0214   -0.8016 C   0  0  0  0  0  0  0  0  0  0  0  0
   -1.7432   -2.6817    0.9792 C   0  0  0  0  0  0  0  0  0  0  0  0
   -2.1490   -3.2647   -1.3300 C   0  0  0  0  0  0  0  0  0  0  0  0
    4.2592    0.9627   -0.3248 C   0  0  0  0  0  0  0  0  0  0  0  0
   -0.8411   -3.7401    1.0879 C   0  0  0  0  0  0  0  0  0  0  0  0
   -1.2471   -4.3230   -1.2213 C   0  0  0  0  0  0  0  0  0  0  0  0
   -0.5931   -4.5607   -0.0123 C   0  0  0  0  0  0  0  0  0  0  0  0
    5.2535    0.6360   -1.2231 C   0  0  0  0  0  0  0  0  0  0  0  0
    4.5251    1.2382    1.0004 C   0  0  0  0  0  0  0  0  0  0  0  0
    0.3464   -5.6649    0.1008 C   0  0  0  0  0  0  0  0  0  0  0  0
    6.5736    0.5823   -0.7759 C   0  0  0  0  0  0  0  0  0  0  0  0
    5.8453    1.1847    1.4475 C   0  0  0  0  0  0  0  0  0  0  0  0
    6.8696    0.8566    0.5593 C   0  0  0  0  0  0  0  0  0  0  0  0
    1.0643   -5.9314    1.4195 C   0  0  0  0  0  0  0  0  0  0  0  0
   -4.4947    3.7934    1.7369 H   0  0  0  0  0  0  0  0  0  0  0  0
   -3.6298    2.9282   -2.3419 H   0  0  0  0  0  0  0  0  0  0  0  0
   -5.2394    3.6972   -0.6286 H   0  0  0  0  0  0  0  0  0  0  0  0
   -3.7242    4.5930   -0.5074 H   0  0  0  0  0  0  0  0  0  0  0  0
   -4.5011    1.3599    2.2370 H   0  0  0  0  0  0  0  0  0  0  0  0
   -5.7385    1.8084    1.0684 H   0  0  0  0  0  0  0  0  0  0  0  0
   -2.3239    2.4849    2.2889 H   0  0  0  0  0  0  0  0  0  0  0  0
   -2.1793    4.0989    1.6208 H   0  0  0  0  0  0  0  0  0  0  0  0
   -3.7324    0.5057   -1.8523 H   0  0  0  0  0  0  0  0  0  0  0  0
   -5.2552    1.2922   -1.4542 H   0  0  0  0  0  0  0  0  0  0  0  0
   -1.4707    1.9857   -2.9841 H   0  0  0  0  0  0  0  0  0  0  0  0
    0.8600    1.7235   -2.5199 H   0  0  0  0  0  0  0  0  0  0  0  0
   -3.7113   -1.2572   -1.2643 H   0  0  0  0  0  0  0  0  0  0  0  0
    2.3098    2.2824    0.7825 H   0  0  0  0  0  0  0  0  0  0  0  0
   -1.8658   -2.0593    1.8567 H   0  0  0  0  0  0  0  0  0  0  0  0
   -2.6521   -3.0894   -2.2774 H   0  0  0  0  0  0  0  0  0  0  0  0
   -0.3478   -3.8854    2.0439 H   0  0  0  0  0  0  0  0  0  0  0  0
   -1.0706   -4.9484   -2.0925 H   0  0  0  0  0  0  0  0  0  0  0  0
    5.0409    0.4253   -2.2670 H   0  0  0  0  0  0  0  0  0  0  0  0
    3.7616    1.4545    1.7390 H   0  0  0  0  0  0  0  0  0  0  0  0
    7.3717    0.3282   -1.4673 H   0  0  0  0  0  0  0  0  0  0  0  0
    6.0757    1.3885    2.4890 H   0  0  0  0  0  0  0  0  0  0  0  0
    1.7204   -6.7995    1.3006 H   0  0  0  0  0  0  0  0  0  0  0  0
    1.6852   -5.0740    1.6918 H   0  0  0  0  0  0  0  0  0  0  0  0
    0.3397   -6.1613    2.2049 H   0  0  0  0  0  0  0  0  0  0  0  0
  1 35  1  0  0  0  0
  2 18  2  0  0  0  0
  3 19  2  0  0  0  0
  4 23  2  0  0  0  0
  5 32  2  0  0  0  0
  6 13  1  0  0  0  0
  6 15  1  0  0  0  0
  6 19  1  0  0  0  0
  7 14  1  0  0  0  0
  7 16  1  0  0  0  0
  7 18  1  0  0  0  0
  8 19  1  0  0  0  0
  8 22  1  0  0  0  0
  8 49  1  0  0  0  0
  9 20  1  0  0  0  0
  9 23  1  0  0  0  0
  9 50  1  0  0  0  0
 10 12  1  0  0  0  0
 10 13  1  0  0  0  0
 10 14  1  0  0  0  0
 10 37  1  0  0  0  0
 11 12  1  0  0  0  0
 11 15  1  0  0  0  0
 11 16  1  0  0  0  0
 11 38  1  0  0  0  0
 12 39  1  0  0  0  0
 12 40  1  0  0  0  0
 13 41  1  0  0  0  0
 13 42  1  0  0  0  0
 14 43  1  0  0  0  0
 14 44  1  0  0  0  0
 15 45  1  0  0  0  0
 15 46  1  0  0  0  0
 16 17  2  0  0  0  0
 17 21  1  0  0  0  0
 17 47  1  0  0  0  0
 18 20  1  0  0  0  0
 20 21  2  0  0  0  0
 21 48  1  0  0  0  0
 22 24  2  0  0  0  0
 22 25  1  0  0  0  0
 23 26  1  0  0  0  0
 24 27  1  0  0  0  0
 24 51  1  0  0  0  0
 25 28  2  0  0  0  0
 25 52  1  0  0  0  0
 26 30  2  0  0  0  0
 26 31  1  0  0  0  0
 27 29  2  0  0  0  0
 27 53  1  0  0  0  0
 28 29  1  0  0  0  0
 28 54  1  0  0  0  0
 29 32  1  0  0  0  0
 30 33  1  0  0  0  0
 30 55  1  0  0  0  0
 31 34  2  0  0  0  0
 31 56  1  0  0  0  0
 32 36  1  0  0  0  0
 33 35  2  0  0  0  0
 33 57  1  0  0  0  0
 34 35  1  0  0  0  0
 34 58  1  0  0  0  0
 36 59  1  0  0  0  0
 36 60  1  0  0  0  0
 36 61  1  0  0  0  0
M  END
> <PUBCHEM_COMPOUND_CID>
7664150

> <PUBCHEM_CONFORMER_RMSD>
1

> <PUBCHEM_CONFORMER_DIVERSEORDER>
1
18
24
23
21
26
15
25
14
20
28
19
13
9
11
3
16
8
27
4
6
17
10
5
12
22
7
2

> <PUBCHEM_MMFF94_PARTIAL_CHARGES>
46
1 -0.19
11 0.14
13 0.3
14 0.3
15 0.3
16 -0.03
17 -0.15
18 0.62
19 0.69
2 -0.57
20 0.12
21 -0.15
22 0.12
23 0.54
24 -0.15
25 -0.15
26 0.09
27 -0.15
28 -0.15
29 0.09
3 -0.57
30 -0.15
31 -0.15
32 0.42
33 -0.15
34 -0.15
35 0.19
36 0.06
4 -0.57
47 0.15
48 0.15
49 0.37
5 -0.57
50 0.37
51 0.15
52 0.15
53 0.15
54 0.15
55 0.15
56 0.15
57 0.15
58 0.15
6 -0.66
7 -0.47
8 -0.55
9 -0.54

> <PUBCHEM_EFFECTIVE_ROTOR_COUNT>
8

> <PUBCHEM_PHARMACOPHORE_FEATURES>
11
1 2 acceptor
1 3 acceptor
1 4 acceptor
1 5 acceptor
1 8 donor
1 9 donor
6 22 24 25 27 28 29 rings
6 26 30 31 33 34 35 rings
6 6 10 11 12 13 15 rings
6 7 10 11 12 14 16 rings
6 7 16 17 18 20 21 rings

> <PUBCHEM_HEAVY_ATOM_COUNT>
36

> <PUBCHEM_ATOM_DEF_STEREO_COUNT>
2

> <PUBCHEM_ATOM_UDEF_STEREO_COUNT>
0

> <PUBCHEM_BOND_DEF_STEREO_COUNT>
0

> <PUBCHEM_BOND_UDEF_STEREO_COUNT>
0

> <PUBCHEM_ISOTOPIC_ATOM_COUNT>
0

> <PUBCHEM_COMPONENT_COUNT>
1

> <PUBCHEM_CACTVS_TAUTO_COUNT>
18

> <PUBCHEM_CONFORMER_ID>
0074F21600000001

> <PUBCHEM_MMFF94_ENERGY>
112.0907

> <PUBCHEM_FEATURE_SELFOVERLAP>
57.392

> <PUBCHEM_SHAPE_FINGERPRINT>
10290309 65 18265897960462368260
10838868 158 17544471316317134440
11014199 57 17689156038236279246
11513181 2 18271243828804727654
11524674 6 18411698768752354141
12608794 3 18125746675171879185
12712778 12 18339361984675855220
14020679 6 17845946155907813793
14114207 22 18261945238031424495
14659021 117 18123740117906197402
14674994 50 18339930431907775984
14725015 67 18268708493120514823
14844126 61 18337954613775883915
14856354 85 17095251336262788464
15320294 125 17968093153242107230
15484559 13 14719244925722037284
15927050 60 18269272374970946735
16719943 64 18409732876073585530
16993438 75 18130217268170674046
17627616 140 18266455413026981767
19311894 1 18047469217145145530
19611394 137 18129939113821498320
20609170 109 16537288939895146050
20764821 26 18266440032770291058
20771845 165 17536305935032688997
20775530 9 17474684213495190295
21133410 52 15677165376074101620
21796203 349 16612837023194019667
229767 44 18335423491001817530
23516275 137 17974028166800629666
3383291 50 18340487884767762443
3882209 13 17334755965624598222
4017518 198 18410848837373267398
4073 2 18272366482807849356
4403749 210 18334849533290342476
45266715 3 18341037550202442511
49967989 163 18193009334099344398
5080951 261 17969762212146382548
5085150 59 18336255791302251573
5265222 85 18335998526946218277
581034 39 18337933659116289434
6201320 77 15688507590043549316

> <PUBCHEM_SHAPE_MULTIPOLES>
690.19
12.87
8.46
1.74
28.09
19.85
0.03
-12.1
-2.65
-4.37
-0.41
-0.21
-0.38
-0.15

> <PUBCHEM_SHAPE_SELFOVERLAP>
1517.301

> <PUBCHEM_SHAPE_VOLUME>
368.7

> <PUBCHEM_COORDINATE_TYPE>
2
5
10

$$$$
