75536833
  -OEChem-12032416313D

 49 51  0     1  0  0  0  0  0999 V2000
    4.1807   -1.7683    0.0046 S   0  0  0  0  0  0  0  0  0  0  0  0
   -0.1665   -1.4485    1.3711 O   0  0  0  0  0  0  0  0  0  0  0  0
   -0.9878   -1.2133   -2.1183 O   0  0  0  0  0  0  0  0  0  0  0  0
    4.1822   -2.2582   -1.3607 O   0  0  0  0  0  0  0  0  0  0  0  0
    4.9876   -2.4242    1.0157 O   0  0  0  0  0  0  0  0  0  0  0  0
   -3.2455   -0.2544   -0.1537 N   0  0  0  0  0  0  0  0  0  0  0  0
    2.5772   -1.6578    0.5620 N   0  0  0  0  0  0  0  0  0  0  0  0
   -7.8423    1.7864   -0.1422 N   0  0  0  0  0  0  0  0  0  0  0  0
   -2.1147   -1.1460    0.0464 C   0  0  1  0  0  0  0  0  0  0  0  0
   -0.8945   -0.7760   -0.7764 C   0  0  1  0  0  0  0  0  0  0  0  0
    0.2043   -1.5067   -0.0164 C   0  0  1  0  0  0  0  0  0  0  0  0
   -1.5553   -1.0843    1.4583 C   0  0  0  0  0  0  0  0  0  0  0  0
    1.5784   -0.8896   -0.2068 C   0  0  0  0  0  0  0  0  0  0  0  0
   -4.4718   -0.8332    0.3822 C   0  0  0  0  0  0  0  0  0  0  0  0
   -5.6514    0.0841    0.1985 C   0  0  0  0  0  0  0  0  0  0  0  0
    4.6711   -0.0702   -0.0255 C   0  0  0  0  0  0  0  0  0  0  0  0
   -5.8096    1.1921    1.0238 C   0  0  0  0  0  0  0  0  0  0  0  0
   -6.5875   -0.1736   -0.7969 C   0  0  0  0  0  0  0  0  0  0  0  0
    5.2542    0.5069    1.1026 C   0  0  0  0  0  0  0  0  0  0  0  0
    4.4722    0.6932   -1.1758 C   0  0  0  0  0  0  0  0  0  0  0  0
    5.6386    1.8475    1.0803 C   0  0  0  0  0  0  0  0  0  0  0  0
    4.8566    2.0339   -1.1981 C   0  0  0  0  0  0  0  0  0  0  0  0
    5.4400    2.6111   -0.0701 C   0  0  0  0  0  0  0  0  0  0  0  0
   -6.9121    2.0046    0.8143 C   0  0  0  0  0  0  0  0  0  0  0  0
   -7.6553    0.7001   -0.9250 C   0  0  0  0  0  0  0  0  0  0  0  0
    5.8510    4.0445   -0.0939 C   0  0  0  0  0  0  0  0  0  0  0  0
   -2.3952   -2.1780   -0.2077 H   0  0  0  0  0  0  0  0  0  0  0  0
   -0.7270    0.3083   -0.7687 H   0  0  0  0  0  0  0  0  0  0  0  0
    0.2386   -2.5664   -0.3019 H   0  0  0  0  0  0  0  0  0  0  0  0
   -1.5978   -0.0733    1.8797 H   0  0  0  0  0  0  0  0  0  0  0  0
   -2.0658   -1.7659    2.1454 H   0  0  0  0  0  0  0  0  0  0  0  0
    1.5881    0.1392    0.1699 H   0  0  0  0  0  0  0  0  0  0  0  0
    1.8325   -0.8842   -1.2710 H   0  0  0  0  0  0  0  0  0  0  0  0
   -3.3674   -0.0906   -1.1535 H   0  0  0  0  0  0  0  0  0  0  0  0
    2.4049   -1.7276    1.5727 H   0  0  0  0  0  0  0  0  0  0  0  0
   -4.3692   -1.0407    1.4550 H   0  0  0  0  0  0  0  0  0  0  0  0
   -4.6827   -1.7968   -0.0998 H   0  0  0  0  0  0  0  0  0  0  0  0
   -1.1368   -2.1739   -2.1171 H   0  0  0  0  0  0  0  0  0  0  0  0
   -5.0987    1.4221    1.8101 H   0  0  0  0  0  0  0  0  0  0  0  0
   -6.4956   -1.0269   -1.4601 H   0  0  0  0  0  0  0  0  0  0  0  0
    5.4115   -0.0668    2.0115 H   0  0  0  0  0  0  0  0  0  0  0  0
    4.0178    0.2649   -2.0646 H   0  0  0  0  0  0  0  0  0  0  0  0
    6.0920    2.2859    1.9653 H   0  0  0  0  0  0  0  0  0  0  0  0
    4.6975    2.6181   -2.1006 H   0  0  0  0  0  0  0  0  0  0  0  0
   -7.0812    2.8811    1.4310 H   0  0  0  0  0  0  0  0  0  0  0  0
   -8.4126    0.5438   -1.6861 H   0  0  0  0  0  0  0  0  0  0  0  0
    6.8851    4.1329   -0.4414 H   0  0  0  0  0  0  0  0  0  0  0  0
    5.2061    4.6295   -0.7584 H   0  0  0  0  0  0  0  0  0  0  0  0
    5.7757    4.4938    0.9022 H   0  0  0  0  0  0  0  0  0  0  0  0
  1  4  2  0  0  0  0
  1  5  2  0  0  0  0
  1  7  1  0  0  0  0
  1 16  1  0  0  0  0
  2 11  1  0  0  0  0
  2 12  1  0  0  0  0
  3 10  1  0  0  0  0
  3 38  1  0  0  0  0
  6  9  1  0  0  0  0
  6 14  1  0  0  0  0
  6 34  1  0  0  0  0
  7 13  1  0  0  0  0
  7 35  1  0  0  0  0
  8 24  2  0  0  0  0
  8 25  1  0  0  0  0
  9 10  1  0  0  0  0
  9 12  1  0  0  0  0
  9 27  1  0  0  0  0
 10 11  1  0  0  0  0
 10 28  1  0  0  0  0
 11 13  1  0  0  0  0
 11 29  1  0  0  0  0
 12 30  1  0  0  0  0
 12 31  1  0  0  0  0
 13 32  1  0  0  0  0
 13 33  1  0  0  0  0
 14 15  1  0  0  0  0
 14 36  1  0  0  0  0
 14 37  1  0  0  0  0
 15 17  2  0  0  0  0
 15 18  1  0  0  0  0
 16 19  2  0  0  0  0
 16 20  1  0  0  0  0
 17 24  1  0  0  0  0
 17 39  1  0  0  0  0
 18 25  2  0  0  0  0
 18 40  1  0  0  0  0
 19 21  1  0  0  0  0
 19 41  1  0  0  0  0
 20 22  2  0  0  0  0
 20 42  1  0  0  0  0
 21 23  2  0  0  0  0
 21 43  1  0  0  0  0
 22 23  1  0  0  0  0
 22 44  1  0  0  0  0
 23 26  1  0  0  0  0
 24 45  1  0  0  0  0
 25 46  1  0  0  0  0
 26 47  1  0  0  0  0
 26 48  1  0  0  0  0
 26 49  1  0  0  0  0
M  END
> <PUBCHEM_COMPOUND_CID>
75536833

> <PUBCHEM_CONFORMER_RMSD>
1.2

> <PUBCHEM_CONFORMER_DIVERSEORDER>
1
50
34
5
38
15
21
80
78
84
2
54
49
83
103
9
88
11
19
60
39
26
43
108
86
10
64
79
40
16
20
89
55
74
31
102
69
82
25
95
53
29
92
52
71
67
18
111
36
105
24
109
62
68
27
47
28
41
48
46
12
100
72
87
42
107
76
33
3
57
22
14
45
6
70
96
97
112
66
37
98
58
101
4
56
32
35
91
63
7
77
94
106
61
30
104
59
113
8
17
65
73
85
99
51
13
110
93
44
75
23
81
90

> <PUBCHEM_MMFF94_PARTIAL_CHARGES>
37
1 1.45
10 0.28
11 0.28
12 0.28
13 0.36
14 0.41
15 -0.14
16 -0.01
17 -0.15
18 -0.15
19 -0.15
2 -0.56
20 -0.15
21 -0.15
22 -0.15
23 -0.14
24 0.16
25 0.16
26 0.14
3 -0.68
34 0.36
35 0.42
38 0.4
39 0.15
4 -0.65
40 0.15
41 0.15
42 0.15
43 0.15
44 0.15
45 0.15
46 0.15
5 -0.65
6 -0.9
7 -0.91
8 -0.62
9 0.27

> <PUBCHEM_EFFECTIVE_ROTOR_COUNT>
8

> <PUBCHEM_PHARMACOPHORE_FEATURES>
12
1 2 acceptor
1 3 acceptor
1 3 donor
1 4 acceptor
1 5 acceptor
1 6 cation
1 6 donor
1 7 donor
1 8 acceptor
5 2 9 10 11 12 rings
6 16 19 20 21 22 23 rings
6 8 15 17 18 24 25 rings

> <PUBCHEM_HEAVY_ATOM_COUNT>
26

> <PUBCHEM_ATOM_DEF_STEREO_COUNT>
3

> <PUBCHEM_ATOM_UDEF_STEREO_COUNT>
0

> <PUBCHEM_BOND_DEF_STEREO_COUNT>
0

> <PUBCHEM_BOND_UDEF_STEREO_COUNT>
0

> <PUBCHEM_ISOTOPIC_ATOM_COUNT>
0

> <PUBCHEM_COMPONENT_COUNT>
1

> <PUBCHEM_CACTVS_TAUTO_COUNT>
1

> <PUBCHEM_CONFORMER_ID>
048099C100000001

> <PUBCHEM_MMFF94_ENERGY>
48.2523

> <PUBCHEM_FEATURE_SELFOVERLAP>
60.916

> <PUBCHEM_SHAPE_FINGERPRINT>
10 15 16298109791587185591
10280341 67 17770493446759125376
10554248 39 17916861318698662103
10638233 991 18410857629693411737
10673678 19 18272374191292736502
11135609 127 18341887511345132312
11386260 185 18201166468841749844
11408170 132 14117250387006976641
11991303 11 16486965233316121341
125118 31 18336265661258819825
12539765 74 17988088794959933199
13533116 47 17822853065923764946
13782708 43 9295290521729794675
13878862 14 18409157806091492908
13944108 23 18410579517972421844
14251757 52 18411979157149649233
14347332 77 10447658976003711027
14565420 104 18113613491176420546
15131766 46 18198333160241700244
15183329 4 17632860824019316217
15475509 35 11025795427235721932
155225 6 18044944712746624372
15840311 113 18335706005750673053
18335252 114 18201725055245463684
1979834 28 14996277007714673082
20058555 10 18411702088936504521
20157964 124 18412265025688070930
20281389 69 18260829259619931997
20715895 44 18335703879647019816
20771845 171 17560805381681129575
21130935 74 18113338605091310403
21150785 3 17132111364525804023
21298829 104 18338237171290828276
21344244 181 11672061960673174173
21521239 73 11887951043153830773
21641784 216 16271655498720307147
21792934 111 16009297726735152791
22122407 14 18411711984039592377
2303208 19 11023829444531646739
23081809 10 16988849337333433139
23559900 14 17458355143553635578
249057 25 17774729636450707091
27425 322 18412261757202713166
2748736 6 18409164441642151593
2838139 119 18410854326789870557
328310 630 18202008711981281769
33382 64 8862942770947232847
33532 11 9295283946393671513
3472631 163 18130228258907523236
34797466 226 18272093773178895023
3711267 37 18129670682665961433
397830 11 18114474452152498795
4169191 19 18409167753252113845
44555599 121 18271812263921541633
465052 167 8142095256002440000
5104073 3 17822009851989612538
5372103 7 16270783724198460120
5718773 13 10159436296755322332
6328613 192 18413951685600109369
6898599 12 18129099098962773719

> <PUBCHEM_SHAPE_MULTIPOLES>
500.5
23.04
3.17
1.35
29.38
2.18
0.16
17.93
0.16
-6.14
-0.1
-0.26
-0.21
-0.64

> <PUBCHEM_SHAPE_SELFOVERLAP>
1040.556

> <PUBCHEM_SHAPE_VOLUME>
285.9

> <PUBCHEM_COORDINATE_TYPE>
2
5
10

$$$$
