38028638
  -OEChem-12032416253D

 63 64  0     1  0  0  0  0  0999 V2000
   -3.8616    2.5930   -0.2065 O   0  0  0  0  0  0  0  0  0  0  0  0
    1.3308   -2.5385    1.3540 O   0  0  0  0  0  0  0  0  0  0  0  0
    6.0034    1.2685   -1.4315 O   0  0  0  0  0  0  0  0  0  0  0  0
    0.1110   -2.5928   -0.6111 N   0  0  0  0  0  0  0  0  0  0  0  0
   -1.7532    3.4049   -0.7511 N   0  0  0  0  0  0  0  0  0  0  0  0
    2.0925   -1.4091   -0.5577 N   0  0  0  0  0  0  0  0  0  0  0  0
   -2.3342   -1.4434    0.7093 C   0  0  1  0  0  0  0  0  0  0  0  0
   -2.2976   -2.6707   -0.2353 C   0  0  1  0  0  0  0  0  0  0  0  0
   -3.4648   -0.4865    0.3016 C   0  0  0  0  0  0  0  0  0  0  0  0
   -3.3089    0.0162   -1.1460 C   0  0  2  0  0  0  0  0  0  0  0  0
   -2.5082   -1.8577    2.1738 C   0  0  0  0  0  0  0  0  0  0  0  0
   -3.0017   -1.1158   -2.1052 C   0  0  0  0  0  0  0  0  0  0  0  0
   -2.5635   -2.3138   -1.6789 C   0  0  0  0  0  0  0  0  0  0  0  0
   -0.9587   -3.4098   -0.1303 C   0  0  0  0  0  0  0  0  0  0  0  0
   -2.2457    1.1165   -1.2372 C   0  0  0  0  0  0  0  0  0  0  0  0
   -1.9575   -0.7790    3.1011 C   0  0  0  0  0  0  0  0  0  0  0  0
   -3.9772   -2.1339    2.4775 C   0  0  0  0  0  0  0  0  0  0  0  0
   -3.2533   -0.8542   -3.5642 C   0  0  0  0  0  0  0  0  0  0  0  0
   -2.7365    2.4297   -0.6708 C   0  0  0  0  0  0  0  0  0  0  0  0
    1.2083   -2.2026    0.1785 C   0  0  0  0  0  0  0  0  0  0  0  0
   -1.9451    4.7592   -0.2857 C   0  0  0  0  0  0  0  0  0  0  0  0
    3.3048   -0.8259   -0.1209 C   0  0  0  0  0  0  0  0  0  0  0  0
   -1.5581    4.8939    1.1183 C   0  0  0  0  0  0  0  0  0  0  0  0
    4.0651   -0.0570   -1.0021 C   0  0  0  0  0  0  0  0  0  0  0  0
    3.7407   -1.0203    1.1898 C   0  0  0  0  0  0  0  0  0  0  0  0
    5.2614    0.5174   -0.5724 C   0  0  0  0  0  0  0  0  0  0  0  0
    4.9369   -0.4459    1.6193 C   0  0  0  0  0  0  0  0  0  0  0  0
    5.6974    0.3229    0.7382 C   0  0  0  0  0  0  0  0  0  0  0  0
   -1.2416    5.0084    2.2707 C   0  0  0  0  0  0  0  0  0  0  0  0
    7.2151    1.8265   -0.9253 C   0  0  0  0  0  0  0  0  0  0  0  0
   -1.3851   -0.9024    0.6196 H   0  0  0  0  0  0  0  0  0  0  0  0
   -3.0839   -3.3793    0.0538 H   0  0  0  0  0  0  0  0  0  0  0  0
   -3.5327    0.3595    0.9926 H   0  0  0  0  0  0  0  0  0  0  0  0
   -4.4356   -0.9977    0.3340 H   0  0  0  0  0  0  0  0  0  0  0  0
   -4.2820    0.4344   -1.4399 H   0  0  0  0  0  0  0  0  0  0  0  0
   -1.9418   -2.7713    2.3821 H   0  0  0  0  0  0  0  0  0  0  0  0
   -2.4041   -3.1051   -2.4088 H   0  0  0  0  0  0  0  0  0  0  0  0
   -0.9732   -4.3081   -0.7594 H   0  0  0  0  0  0  0  0  0  0  0  0
   -0.7573   -3.7481    0.8895 H   0  0  0  0  0  0  0  0  0  0  0  0
   -1.9804    1.3139   -2.2830 H   0  0  0  0  0  0  0  0  0  0  0  0
   -1.3197    0.8325   -0.7250 H   0  0  0  0  0  0  0  0  0  0  0  0
   -2.4873    0.1725    2.9941 H   0  0  0  0  0  0  0  0  0  0  0  0
   -0.8948   -0.5996    2.9050 H   0  0  0  0  0  0  0  0  0  0  0  0
   -2.0499   -1.0908    4.1474 H   0  0  0  0  0  0  0  0  0  0  0  0
   -4.5839   -1.2239    2.5325 H   0  0  0  0  0  0  0  0  0  0  0  0
   -4.0576   -2.6047    3.4653 H   0  0  0  0  0  0  0  0  0  0  0  0
   -4.4326   -2.8295    1.7665 H   0  0  0  0  0  0  0  0  0  0  0  0
   -4.2845   -0.5197   -3.7179 H   0  0  0  0  0  0  0  0  0  0  0  0
   -3.1071   -1.7526   -4.1736 H   0  0  0  0  0  0  0  0  0  0  0  0
   -2.5766   -0.0857   -3.9481 H   0  0  0  0  0  0  0  0  0  0  0  0
    0.1177   -2.3323   -1.5925 H   0  0  0  0  0  0  0  0  0  0  0  0
   -0.8455    3.1637   -1.1389 H   0  0  0  0  0  0  0  0  0  0  0  0
   -1.3325    5.4089   -0.9184 H   0  0  0  0  0  0  0  0  0  0  0  0
   -2.9942    5.0412   -0.4232 H   0  0  0  0  0  0  0  0  0  0  0  0
    1.8400   -1.2222   -1.5248 H   0  0  0  0  0  0  0  0  0  0  0  0
    3.7316    0.0989   -2.0253 H   0  0  0  0  0  0  0  0  0  0  0  0
    3.2081   -1.6014    1.9292 H   0  0  0  0  0  0  0  0  0  0  0  0
    5.2766   -0.5971    2.6400 H   0  0  0  0  0  0  0  0  0  0  0  0
    6.6156    0.7395    1.1378 H   0  0  0  0  0  0  0  0  0  0  0  0
   -0.9610    5.1095    3.2930 H   0  0  0  0  0  0  0  0  0  0  0  0
    7.6761    2.3923   -1.7416 H   0  0  0  0  0  0  0  0  0  0  0  0
    7.9272    1.0464   -0.6354 H   0  0  0  0  0  0  0  0  0  0  0  0
    7.0231    2.5362   -0.1134 H   0  0  0  0  0  0  0  0  0  0  0  0
  1 19  2  0  0  0  0
  2 20  2  0  0  0  0
  3 26  1  0  0  0  0
  3 30  1  0  0  0  0
  4 14  1  0  0  0  0
  4 20  1  0  0  0  0
  4 51  1  0  0  0  0
  5 19  1  0  0  0  0
  5 21  1  0  0  0  0
  5 52  1  0  0  0  0
  6 20  1  0  0  0  0
  6 22  1  0  0  0  0
  6 55  1  0  0  0  0
  7  8  1  0  0  0  0
  7  9  1  0  0  0  0
  7 11  1  0  0  0  0
  7 31  1  0  0  0  0
  8 13  1  0  0  0  0
  8 14  1  0  0  0  0
  8 32  1  0  0  0  0
  9 10  1  0  0  0  0
  9 33  1  0  0  0  0
  9 34  1  0  0  0  0
 10 12  1  0  0  0  0
 10 15  1  0  0  0  0
 10 35  1  0  0  0  0
 11 16  1  0  0  0  0
 11 17  1  0  0  0  0
 11 36  1  0  0  0  0
 12 13  2  0  0  0  0
 12 18  1  0  0  0  0
 13 37  1  0  0  0  0
 14 38  1  0  0  0  0
 14 39  1  0  0  0  0
 15 19  1  0  0  0  0
 15 40  1  0  0  0  0
 15 41  1  0  0  0  0
 16 42  1  0  0  0  0
 16 43  1  0  0  0  0
 16 44  1  0  0  0  0
 17 45  1  0  0  0  0
 17 46  1  0  0  0  0
 17 47  1  0  0  0  0
 18 48  1  0  0  0  0
 18 49  1  0  0  0  0
 18 50  1  0  0  0  0
 21 23  1  0  0  0  0
 21 53  1  0  0  0  0
 21 54  1  0  0  0  0
 22 24  2  0  0  0  0
 22 25  1  0  0  0  0
 23 29  3  0  0  0  0
 24 26  1  0  0  0  0
 24 56  1  0  0  0  0
 25 27  2  0  0  0  0
 25 57  1  0  0  0  0
 26 28  2  0  0  0  0
 27 28  1  0  0  0  0
 27 58  1  0  0  0  0
 28 59  1  0  0  0  0
 29 60  1  0  0  0  0
 30 61  1  0  0  0  0
 30 62  1  0  0  0  0
 30 63  1  0  0  0  0
M  END
> <PUBCHEM_COMPOUND_CID>
38028638

> <PUBCHEM_CONFORMER_RMSD>
1.2

> <PUBCHEM_CONFORMER_DIVERSEORDER>
1
140
32
30
17
72
73
138
36
16
128
126
97
108
100
121
127
68
58
109
106
52
132
104
65
119
21
102
39
31
54
94
26
81
24
47
78
139
84
75
83
5
111
9
85
27
7
80
20
57
129
22
90
107
28
37
59
46
3
88
113
61
98
105
50
69
114
2
33
95
56
48
137
125
29
123
120
87
4
110
8
86
41
82
25
38
12
18
116
77
135
67
14
89
40
19
66
124
44
92
23
10
76
103
11
55
45
49
96
130
53
34
101
122
117
79
42
64
35
15
131
63
6
99
136
74
91
134
71
118
62
13
133
112
51
93
43
115
70
60

> <PUBCHEM_MMFF94_PARTIAL_CHARGES>
34
1 -0.57
10 0.14
12 -0.28
13 -0.29
14 0.3
15 0.06
18 0.14
19 0.57
2 -0.57
20 0.69
21 0.5
22 0.12
23 -0.2
24 -0.15
25 -0.15
26 0.08
27 -0.15
28 -0.15
29 -0.18
3 -0.36
30 0.28
37 0.15
4 -0.73
5 -0.73
51 0.37
52 0.37
55 0.37
56 0.15
57 0.15
58 0.15
59 0.15
6 -0.55
60 0.18
8 0.14

> <PUBCHEM_EFFECTIVE_ROTOR_COUNT>
11.8

> <PUBCHEM_PHARMACOPHORE_FEATURES>
10
1 1 acceptor
1 2 acceptor
1 29 hydrophobe
1 3 acceptor
1 4 donor
1 5 donor
1 6 donor
3 11 16 17 hydrophobe
6 22 24 25 26 27 28 rings
6 7 8 9 10 12 13 rings

> <PUBCHEM_HEAVY_ATOM_COUNT>
30

> <PUBCHEM_ATOM_DEF_STEREO_COUNT>
3

> <PUBCHEM_ATOM_UDEF_STEREO_COUNT>
0

> <PUBCHEM_BOND_DEF_STEREO_COUNT>
0

> <PUBCHEM_BOND_UDEF_STEREO_COUNT>
0

> <PUBCHEM_ISOTOPIC_ATOM_COUNT>
0

> <PUBCHEM_COMPONENT_COUNT>
1

> <PUBCHEM_CACTVS_TAUTO_COUNT>
6

> <PUBCHEM_CONFORMER_ID>
0244455E00000001

> <PUBCHEM_MMFF94_ENERGY>
72.1624

> <PUBCHEM_FEATURE_SELFOVERLAP>
50.795

> <PUBCHEM_SHAPE_FINGERPRINT>
10937287 8 17908696242150275573
11059048 146 17983302517306241536
12788726 201 18340754949865204141
13627167 48 18120397581816898980
13761468 95 17845673451327413676
14040222 75 15091397570956890030
15513586 35 16952548033049605708
16991981 162 17987794090682259529
20764821 26 18339073903897460496
21716022 299 16767583866678371151
22393880 68 14979967977758263846
22956985 138 15801332016748773771
4616759 239 17169828015368655136
469060 322 18268434714467489483
508706 21 18270663385749312834
5104073 3 16154249733638961010
57527585 21 18338500955560328711
6036956 94 18187363267906398620
7288768 16 17896322402973990087
9981440 41 18262504906303166891

> <PUBCHEM_SHAPE_MULTIPOLES>
584.83
12.21
5.96
2.76
29.21
10.68
0.31
2.29
-2.57
-6.42
2.19
-3.14
-0.67
-0.83

> <PUBCHEM_SHAPE_SELFOVERLAP>
1196.933

> <PUBCHEM_SHAPE_VOLUME>
334.8

> <PUBCHEM_COORDINATE_TYPE>
2
5
10

$$$$
