11911663
  -OEChem-12032416343D

 66 70  0     1  0  0  0  0  0999 V2000
    1.1358    1.1730   -2.0912 O   0  0  0  0  0  0  0  0  0  0  0  0
   -0.6742   -1.2160   -1.4357 O   0  0  0  0  0  0  0  0  0  0  0  0
    2.8925   -0.8815   -1.4637 O   0  0  0  0  0  0  0  0  0  0  0  0
    3.7908   -0.6259    0.6237 O   0  0  0  0  0  0  0  0  0  0  0  0
    9.1993   -0.5963    3.0755 O   0  0  0  0  0  0  0  0  0  0  0  0
   -1.4967    2.3131   -0.8925 N   0  0  0  0  0  0  0  0  0  0  0  0
   -3.5162    1.4398   -0.1498 N   0  0  0  0  0  0  0  0  0  0  0  0
   -2.7670    3.6225    0.5443 N   0  0  0  0  0  0  0  0  0  0  0  0
    5.1358   -0.7265   -1.2897 N   0  0  0  0  0  0  0  0  0  0  0  0
   -8.2906   -2.6666    0.5470 N   0  0  0  0  0  0  0  0  0  0  0  0
   -0.5421    0.0822   -0.8192 C   0  0  1  0  0  0  0  0  0  0  0  0
    0.9288    0.4445   -0.8701 C   0  0  1  0  0  0  0  0  0  0  0  0
   -1.2070    1.1324   -1.6777 C   0  0  2  0  0  0  0  0  0  0  0  0
    1.5981   -0.9084   -0.9060 C   0  0  1  0  0  0  0  0  0  0  0  0
   -0.1337    1.4354   -2.7087 C   0  0  0  0  0  0  0  0  0  0  0  0
    0.6343   -1.7185   -1.7434 C   0  0  0  0  0  0  0  0  0  0  0  0
   -2.6432    2.4650   -0.1328 C   0  0  0  0  0  0  0  0  0  0  0  0
    3.9467   -0.7321   -0.5866 C   0  0  0  0  0  0  0  0  0  0  0  0
   -4.6223    1.6215    0.6011 C   0  0  0  0  0  0  0  0  0  0  0  0
   -3.8962    3.7372    1.2740 C   0  0  0  0  0  0  0  0  0  0  0  0
   -4.8681    2.7600    1.3411 C   0  0  0  0  0  0  0  0  0  0  0  0
    6.4478   -0.5967   -0.7800 C   0  0  0  0  0  0  0  0  0  0  0  0
   -5.5600    0.5244    0.5864 C   0  0  0  0  0  0  0  0  0  0  0  0
    6.6525   -0.4532    0.5922 C   0  0  0  0  0  0  0  0  0  0  0  0
    7.5381   -0.6132   -1.6499 C   0  0  0  0  0  0  0  0  0  0  0  0
   -5.1632   -0.7383    1.0266 C   0  0  0  0  0  0  0  0  0  0  0  0
   -6.8636    0.7273    0.1334 C   0  0  0  0  0  0  0  0  0  0  0  0
    7.9474   -0.3264    1.0947 C   0  0  0  0  0  0  0  0  0  0  0  0
   -6.0699   -1.7981    1.0138 C   0  0  0  0  0  0  0  0  0  0  0  0
   -7.7704   -0.3326    0.1205 C   0  0  0  0  0  0  0  0  0  0  0  0
    8.8331   -0.4863   -1.1473 C   0  0  0  0  0  0  0  0  0  0  0  0
   -7.3735   -1.5953    0.5608 C   0  0  0  0  0  0  0  0  0  0  0  0
    9.0378   -0.3428    0.2249 C   0  0  0  0  0  0  0  0  0  0  0  0
    8.1616   -0.1766    2.5252 C   0  0  0  0  0  0  0  0  0  0  0  0
   -9.6470   -2.4657    0.0774 C   0  0  0  0  0  0  0  0  0  0  0  0
   -7.8846   -3.9860    0.9891 C   0  0  0  0  0  0  0  0  0  0  0  0
    7.1090    0.5048    3.3929 C   0  0  0  0  0  0  0  0  0  0  0  0
   -0.9292    0.0017    0.2014 H   0  0  0  0  0  0  0  0  0  0  0  0
    1.2627    1.0788   -0.0438 H   0  0  0  0  0  0  0  0  0  0  0  0
   -2.1065    0.7767   -2.1932 H   0  0  0  0  0  0  0  0  0  0  0  0
    1.5968   -1.3429    0.1032 H   0  0  0  0  0  0  0  0  0  0  0  0
   -0.2177    0.7625   -3.5693 H   0  0  0  0  0  0  0  0  0  0  0  0
   -0.1501    2.4656   -3.0779 H   0  0  0  0  0  0  0  0  0  0  0  0
    0.8152   -1.6004   -2.8176 H   0  0  0  0  0  0  0  0  0  0  0  0
    0.6804   -2.7875   -1.5143 H   0  0  0  0  0  0  0  0  0  0  0  0
   -0.8115    3.0585   -0.8428 H   0  0  0  0  0  0  0  0  0  0  0  0
    5.0618   -0.8278   -2.2991 H   0  0  0  0  0  0  0  0  0  0  0  0
   -4.0008    4.6670    1.8228 H   0  0  0  0  0  0  0  0  0  0  0  0
   -5.7569    2.8951    1.9451 H   0  0  0  0  0  0  0  0  0  0  0  0
    5.8398   -0.4546    1.3035 H   0  0  0  0  0  0  0  0  0  0  0  0
    7.3926   -0.7243   -2.7214 H   0  0  0  0  0  0  0  0  0  0  0  0
   -4.1519   -0.9143    1.3861 H   0  0  0  0  0  0  0  0  0  0  0  0
   -7.1912    1.7027   -0.2190 H   0  0  0  0  0  0  0  0  0  0  0  0
   -5.7132   -2.7606    1.3670 H   0  0  0  0  0  0  0  0  0  0  0  0
   -8.7718   -0.1241   -0.2425 H   0  0  0  0  0  0  0  0  0  0  0  0
    9.6820   -0.4982   -1.8248 H   0  0  0  0  0  0  0  0  0  0  0  0
   10.0538   -0.2411    0.5975 H   0  0  0  0  0  0  0  0  0  0  0  0
  -10.2356   -3.3883    0.1332 H   0  0  0  0  0  0  0  0  0  0  0  0
   -9.6599   -2.1509   -0.9721 H   0  0  0  0  0  0  0  0  0  0  0  0
  -10.1727   -1.7247    0.6900 H   0  0  0  0  0  0  0  0  0  0  0  0
   -8.7052   -4.7083    0.9146 H   0  0  0  0  0  0  0  0  0  0  0  0
   -7.5759   -3.9737    2.0404 H   0  0  0  0  0  0  0  0  0  0  0  0
   -7.0687   -4.3770    0.3710 H   0  0  0  0  0  0  0  0  0  0  0  0
    6.3951   -0.2390    3.7549 H   0  0  0  0  0  0  0  0  0  0  0  0
    6.5922    1.2893    2.8334 H   0  0  0  0  0  0  0  0  0  0  0  0
    7.6035    0.9813    4.2448 H   0  0  0  0  0  0  0  0  0  0  0  0
  1 12  1  0  0  0  0
  1 15  1  0  0  0  0
  2 11  1  0  0  0  0
  2 16  1  0  0  0  0
  3 14  1  0  0  0  0
  3 18  1  0  0  0  0
  4 18  2  0  0  0  0
  5 34  2  0  0  0  0
  6 13  1  0  0  0  0
  6 17  1  0  0  0  0
  6 46  1  0  0  0  0
  7 17  1  0  0  0  0
  7 19  2  0  0  0  0
  8 17  2  0  0  0  0
  8 20  1  0  0  0  0
  9 18  1  0  0  0  0
  9 22  1  0  0  0  0
  9 47  1  0  0  0  0
 10 32  1  0  0  0  0
 10 35  1  0  0  0  0
 10 36  1  0  0  0  0
 11 12  1  0  0  0  0
 11 13  1  0  0  0  0
 11 38  1  0  0  0  0
 12 14  1  0  0  0  0
 12 39  1  0  0  0  0
 13 15  1  0  0  0  0
 13 40  1  0  0  0  0
 14 16  1  0  0  0  0
 14 41  1  0  0  0  0
 15 42  1  0  0  0  0
 15 43  1  0  0  0  0
 16 44  1  0  0  0  0
 16 45  1  0  0  0  0
 19 21  1  0  0  0  0
 19 23  1  0  0  0  0
 20 21  2  0  0  0  0
 20 48  1  0  0  0  0
 21 49  1  0  0  0  0
 22 24  1  0  0  0  0
 22 25  2  0  0  0  0
 23 26  2  0  0  0  0
 23 27  1  0  0  0  0
 24 28  2  0  0  0  0
 24 50  1  0  0  0  0
 25 31  1  0  0  0  0
 25 51  1  0  0  0  0
 26 29  1  0  0  0  0
 26 52  1  0  0  0  0
 27 30  2  0  0  0  0
 27 53  1  0  0  0  0
 28 33  1  0  0  0  0
 28 34  1  0  0  0  0
 29 32  2  0  0  0  0
 29 54  1  0  0  0  0
 30 32  1  0  0  0  0
 30 55  1  0  0  0  0
 31 33  2  0  0  0  0
 31 56  1  0  0  0  0
 33 57  1  0  0  0  0
 34 37  1  0  0  0  0
 35 58  1  0  0  0  0
 35 59  1  0  0  0  0
 35 60  1  0  0  0  0
 36 61  1  0  0  0  0
 36 62  1  0  0  0  0
 36 63  1  0  0  0  0
 37 64  1  0  0  0  0
 37 65  1  0  0  0  0
 37 66  1  0  0  0  0
M  END
> <PUBCHEM_COMPOUND_CID>
11911663

> <PUBCHEM_CONFORMER_RMSD>
1

> <PUBCHEM_CONFORMER_DIVERSEORDER>
1
35
12
51
60
68
76
117
92
16
54
9
81
72
26
14
78
15
66
64
106
105
95
96
121
19
41
90
65
55
87
75
116
67
84
29
46
88
31
56
74
62
57
89
119
110
42
58
120
83
10
99
61
73
118
48
27
59
69
111
24
7
109
20
108
77
8
53
100
80
103
18
104
115
36
22
113
25
86
49
79
23
63
102
39
50
43
71
5
33
52
13
34
30
114
40
85
112
45
6
3
37
98
94
4
32
93
101
28
11
91
21
38
107
44
70
82
97
47
17
2

> <PUBCHEM_MMFF94_PARTIAL_CHARGES>
48
1 -0.56
10 -0.84
11 0.28
12 0.28
13 0.37
14 0.28
15 0.28
16 0.28
17 0.72
18 0.78
19 0.31
2 -0.56
20 0.16
21 -0.15
22 0.12
24 -0.15
25 -0.15
26 -0.15
27 -0.15
28 0.09
29 -0.15
3 -0.43
30 -0.15
31 -0.15
32 0.1
33 -0.15
34 0.42
35 0.37
36 0.37
37 0.06
4 -0.57
46 0.4
47 0.37
48 0.15
49 0.15
5 -0.57
50 0.15
51 0.15
52 0.15
53 0.15
54 0.15
55 0.15
56 0.15
57 0.15
6 -0.87
7 -0.62
8 -0.62
9 -0.55

> <PUBCHEM_EFFECTIVE_ROTOR_COUNT>
10.2

> <PUBCHEM_PHARMACOPHORE_FEATURES>
14
1 1 acceptor
1 10 cation
1 2 acceptor
1 4 acceptor
1 5 acceptor
1 6 donor
1 7 acceptor
1 9 donor
4 6 7 8 17 cation
5 1 11 12 13 15 rings
5 2 11 12 14 16 rings
6 22 24 25 28 31 33 rings
6 23 26 27 29 30 32 rings
6 7 8 17 19 20 21 rings

> <PUBCHEM_HEAVY_ATOM_COUNT>
37

> <PUBCHEM_ATOM_DEF_STEREO_COUNT>
4

> <PUBCHEM_ATOM_UDEF_STEREO_COUNT>
0

> <PUBCHEM_BOND_DEF_STEREO_COUNT>
0

> <PUBCHEM_BOND_UDEF_STEREO_COUNT>
0

> <PUBCHEM_ISOTOPIC_ATOM_COUNT>
0

> <PUBCHEM_COMPONENT_COUNT>
1

> <PUBCHEM_CACTVS_TAUTO_COUNT>
12

> <PUBCHEM_CONFORMER_ID>
00B5C1EF00000001

> <PUBCHEM_MMFF94_ENERGY>
135.9339

> <PUBCHEM_FEATURE_SELFOVERLAP>
71.764

> <PUBCHEM_SHAPE_FINGERPRINT>
10 15 18059573551385626054
10100884 174 18335424629327212347
10369192 42 16200148768477055301
10674148 151 9007054634755461886
11135609 99 18336553832406069711
11135926 11 13479137848154013585
11146346 171 18130799924231115350
11211813 128 18131077021370067775
11456790 92 17702375166901981306
11621639 179 9727090702615711235
1200032 147 10231769868606948525
12144600 37 18128829542799994990
12373685 5 16878496813792816933
12838863 1 18337393855290498631
13553644 42 11386634196943547256
13560911 23 18261401017850645192
13740195 50 18413670223640052294
14068700 675 18187089481595763261
15350500 16 17822007631886794747
15392192 104 18408326584619251590
15519825 34 18334573546932916754
15684389 69 17894351073183422362
15890870 6 8646499475826776047
16992727 255 9727634990593450623
1768 4 16630518549332908528
17686467 74 18131912659566692817
19303781 99 18191588760866387703
19611394 137 18272375295078161353
2026 5 13551487942260271464
21095123 293 13542470860338120379
21130935 74 18268998574979948670
21585481 104 11600012072554991968
21792965 270 17631725089043749528
21987483 16 17823426078816514952
22002106 203 18129660950285970535
23389318 12 17240773904018201662
2747138 104 18202285792457491905
3092352 35 13830128373788529212
3711267 37 14548741698596553354
4112364 45 17274819208110678920
4149490 64 17459772482908567289
4403749 210 18201154344027896661
4408954 87 17917713534832247607
444735 79 18343306972298422207
474113 269 16660354870830858602
4760202 70 17895768395348149716
57676310 115 9655312431517519911
5874358 3 17676202493858934955
59682541 35 17989207049012293215
6201320 221 15575255633092686114
9689198 14 17203046288488418996
9953998 17 18130515137296366721

> <PUBCHEM_SHAPE_MULTIPOLES>
707.19
34.04
3.31
2.42
26.23
1.21
0.97
-21.83
19.24
-11.67
0.96
6.46
0.31
1.34

> <PUBCHEM_SHAPE_SELFOVERLAP>
1539.881

> <PUBCHEM_SHAPE_VOLUME>
385.4

> <PUBCHEM_COORDINATE_TYPE>
2
5
10

$$$$
