40780416
  -OEChem-12032416353D

 53 56  0     1  0  0  0  0  0999 V2000
   -8.1017    2.5751    0.5532 Cl  0  0  0  0  0  0  0  0  0  0  0  0
    5.6175    2.4586   -0.0445 O   0  5  0  0  0  0  0  0  0  0  0  0
    4.9850    1.7134    1.9211 O   0  0  0  0  0  0  0  0  0  0  0  0
   -3.4744   -0.6751   -0.0968 N   0  0  0  0  0  0  0  0  0  0  0  0
    3.2511    0.0537   -0.4914 N   0  0  0  0  0  0  0  0  0  0  0  0
    3.1327    1.1663   -1.2360 N   0  0  0  0  0  0  0  0  0  0  0  0
    5.3752    1.5179    0.7467 N   0  3  0  0  0  0  0  0  0  0  0  0
   -0.3742    0.4478   -0.1424 C   0  0  2  0  0  0  0  0  0  0  0  0
   -1.0545   -0.8433   -0.6367 C   0  0  0  0  0  0  0  0  0  0  0  0
   -2.1765   -1.1490    0.3698 C   0  0  1  0  0  0  0  0  0  0  0  0
    1.1108    0.4844   -0.4206 C   0  0  0  0  0  0  0  0  0  0  0  0
   -0.7404    0.4624    1.3129 C   0  0  0  0  0  0  0  0  0  0  0  0
   -1.7251   -0.4006    1.5850 C   0  0  0  0  0  0  0  0  0  0  0  0
    2.0690   -0.3957    0.0199 C   0  0  0  0  0  0  0  0  0  0  0  0
    1.8231    1.4246   -1.1892 C   0  0  0  0  0  0  0  0  0  0  0  0
   -4.5551   -1.2407    0.7005 C   0  0  0  0  0  0  0  0  0  0  0  0
    1.9576   -1.6012    0.8659 C   0  0  0  0  0  0  0  0  0  0  0  0
    1.2899    2.5969   -1.9052 C   0  0  0  0  0  0  0  0  0  0  0  0
    4.5069   -0.5259   -0.3076 C   0  0  0  0  0  0  0  0  0  0  0  0
   -5.9040   -0.7527    0.2430 C   0  0  0  0  0  0  0  0  0  0  0  0
    5.5491    0.1789    0.2949 C   0  0  0  0  0  0  0  0  0  0  0  0
    4.7095   -1.8366   -0.7396 C   0  0  0  0  0  0  0  0  0  0  0  0
   -6.3282    0.5350    0.5711 C   0  0  0  0  0  0  0  0  0  0  0  0
   -6.7292   -1.5883   -0.5100 C   0  0  0  0  0  0  0  0  0  0  0  0
    6.7938   -0.4272    0.4656 C   0  0  0  0  0  0  0  0  0  0  0  0
    5.9542   -2.4428   -0.5686 C   0  0  0  0  0  0  0  0  0  0  0  0
    6.9964   -1.7381    0.0338 C   0  0  0  0  0  0  0  0  0  0  0  0
   -7.5775    0.9872    0.1463 C   0  0  0  0  0  0  0  0  0  0  0  0
   -7.9786   -1.1362   -0.9344 C   0  0  0  0  0  0  0  0  0  0  0  0
   -8.4027    0.1516   -0.6066 C   0  0  0  0  0  0  0  0  0  0  0  0
   -0.8530    1.3148   -0.6156 H   0  0  0  0  0  0  0  0  0  0  0  0
   -1.4202   -0.7261   -1.6646 H   0  0  0  0  0  0  0  0  0  0  0  0
   -0.3616   -1.6936   -0.6694 H   0  0  0  0  0  0  0  0  0  0  0  0
   -2.1916   -2.2304    0.5527 H   0  0  0  0  0  0  0  0  0  0  0  0
   -0.2929    1.1192    2.0457 H   0  0  0  0  0  0  0  0  0  0  0  0
   -2.1551   -0.5277    2.5687 H   0  0  0  0  0  0  0  0  0  0  0  0
   -3.6031   -0.9499   -1.0708 H   0  0  0  0  0  0  0  0  0  0  0  0
   -4.5306   -2.3373    0.6527 H   0  0  0  0  0  0  0  0  0  0  0  0
   -4.4474   -0.9775    1.7604 H   0  0  0  0  0  0  0  0  0  0  0  0
    1.9294   -2.5050    0.2489 H   0  0  0  0  0  0  0  0  0  0  0  0
    2.7950   -1.6845    1.5667 H   0  0  0  0  0  0  0  0  0  0  0  0
    1.0521   -1.5965    1.4766 H   0  0  0  0  0  0  0  0  0  0  0  0
    0.5453    2.2887   -2.6463 H   0  0  0  0  0  0  0  0  0  0  0  0
    2.0773    3.1461   -2.4324 H   0  0  0  0  0  0  0  0  0  0  0  0
    0.8119    3.2896   -1.2050 H   0  0  0  0  0  0  0  0  0  0  0  0
    3.9183   -2.4003   -1.2278 H   0  0  0  0  0  0  0  0  0  0  0  0
   -5.6832    1.1845    1.1588 H   0  0  0  0  0  0  0  0  0  0  0  0
   -6.4109   -2.5930   -0.7750 H   0  0  0  0  0  0  0  0  0  0  0  0
    7.6161    0.1090    0.9332 H   0  0  0  0  0  0  0  0  0  0  0  0
    6.1134   -3.4620   -0.9083 H   0  0  0  0  0  0  0  0  0  0  0  0
    7.9658   -2.2098    0.1658 H   0  0  0  0  0  0  0  0  0  0  0  0
   -8.6210   -1.7866   -1.5209 H   0  0  0  0  0  0  0  0  0  0  0  0
   -9.3788    0.4904   -0.9443 H   0  0  0  0  0  0  0  0  0  0  0  0
  1 28  1  0  0  0  0
  2  7  1  0  0  0  0
  3  7  2  0  0  0  0
  4 10  1  0  0  0  0
  4 16  1  0  0  0  0
  4 37  1  0  0  0  0
  5  6  1  0  0  0  0
  5 14  1  0  0  0  0
  5 19  1  0  0  0  0
  6 15  2  0  0  0  0
  7 21  1  0  0  0  0
  8  9  1  0  0  0  0
  8 11  1  0  0  0  0
  8 12  1  0  0  0  0
  8 31  1  0  0  0  0
  9 10  1  0  0  0  0
  9 32  1  0  0  0  0
  9 33  1  0  0  0  0
 10 13  1  0  0  0  0
 10 34  1  0  0  0  0
 11 14  2  0  0  0  0
 11 15  1  0  0  0  0
 12 13  2  0  0  0  0
 12 35  1  0  0  0  0
 13 36  1  0  0  0  0
 14 17  1  0  0  0  0
 15 18  1  0  0  0  0
 16 20  1  0  0  0  0
 16 38  1  0  0  0  0
 16 39  1  0  0  0  0
 17 40  1  0  0  0  0
 17 41  1  0  0  0  0
 17 42  1  0  0  0  0
 18 43  1  0  0  0  0
 18 44  1  0  0  0  0
 18 45  1  0  0  0  0
 19 21  1  0  0  0  0
 19 22  2  0  0  0  0
 20 23  2  0  0  0  0
 20 24  1  0  0  0  0
 21 25  2  0  0  0  0
 22 26  1  0  0  0  0
 22 46  1  0  0  0  0
 23 28  1  0  0  0  0
 23 47  1  0  0  0  0
 24 29  2  0  0  0  0
 24 48  1  0  0  0  0
 25 27  1  0  0  0  0
 25 49  1  0  0  0  0
 26 27  2  0  0  0  0
 26 50  1  0  0  0  0
 27 51  1  0  0  0  0
 28 30  2  0  0  0  0
 29 30  1  0  0  0  0
 29 52  1  0  0  0  0
 30 53  1  0  0  0  0
M  CHG  2   2  -1   7   1
M  END
> <PUBCHEM_COMPOUND_CID>
40780416

> <PUBCHEM_CONFORMER_RMSD>
1

> <PUBCHEM_CONFORMER_DIVERSEORDER>
1
156
116
44
34
203
137
129
182
138
216
103
28
168
201
174
198
70
16
144
93
58
101
121
74
154
123
102
88
217
62
36
179
61
180
164
108
140
171
162
153
69
59
119
41
151
215
210
136
56
53
112
133
82
39
84
186
110
90
194
132
79
107
173
43
212
109
149
87
13
131
185
95
169
189
183
176
148
91
73
122
193
98
125
24
111
208
46
80
161
64
187
15
150
197
89
113
139
29
188
76
106
86
104
128
40
209
181
115
157
83
54
10
175
200
35
126
117
63
135
146
211
26
94
49
124
55
38
141
30
118
60
23
205
32
66
177
81
130
204
199
50
19
158
97
202
25
134
9
37
68
77
170
65
166
20
160
163
11
57
167
48
72
192
196
47
178
214
71
120
191
42
21
85
31
142
190
213
75
27
5
172
155
96
2
147
143
52
114
7
22
195
67
8
78
105
14
207
127
184
145
165
33
206
3
99
152
12
92
45
4
6
100
159
18
17
51

> <PUBCHEM_MMFF94_PARTIAL_CHARGES>
40
1 -0.18
10 0.41
11 -0.18
12 -0.29
13 -0.29
14 -0.33
15 0.11
16 0.41
17 0.18
18 0.18
19 -0.02
2 -0.52
20 -0.14
21 0.13
22 -0.15
23 -0.15
24 -0.15
25 -0.15
26 -0.15
27 -0.15
28 0.18
29 -0.15
3 -0.52
30 -0.15
35 0.15
36 0.15
37 0.36
4 -0.9
46 0.15
47 0.15
48 0.15
49 0.15
5 0.59
50 0.15
51 0.15
52 0.15
53 0.15
6 -0.71
7 0.91
8 0.32

> <PUBCHEM_EFFECTIVE_ROTOR_COUNT>
6.6

> <PUBCHEM_PHARMACOPHORE_FEATURES>
10
1 2 acceptor
1 2 anion
1 3 acceptor
1 4 cation
1 4 donor
1 6 acceptor
5 5 6 11 14 15 rings
5 8 9 10 12 13 rings
6 19 21 22 25 26 27 rings
6 20 23 24 28 29 30 rings

> <PUBCHEM_HEAVY_ATOM_COUNT>
30

> <PUBCHEM_ATOM_DEF_STEREO_COUNT>
2

> <PUBCHEM_ATOM_UDEF_STEREO_COUNT>
0

> <PUBCHEM_BOND_DEF_STEREO_COUNT>
0

> <PUBCHEM_BOND_UDEF_STEREO_COUNT>
0

> <PUBCHEM_ISOTOPIC_ATOM_COUNT>
0

> <PUBCHEM_COMPONENT_COUNT>
1

> <PUBCHEM_CACTVS_TAUTO_COUNT>
1

> <PUBCHEM_CONFORMER_ID>
026E428000000001

> <PUBCHEM_MMFF94_ENERGY>
88.0209

> <PUBCHEM_FEATURE_SELFOVERLAP>
50.829

> <PUBCHEM_SHAPE_FINGERPRINT>
10554248 39 17968376870043683911
11181472 205 18339373997589177668
11719270 70 17418376882711956631
11796584 16 15719683142795596482
12082328 90 18343580755780119975
12236239 1 18272090513092878267
12730499 353 11671792558970461468
12741549 16 18412536597509895584
13383665 225 18041860458287411380
13533116 47 18273218599533746066
13885169 127 18341331111696813799
13914758 101 18410577262733750745
14170010 4 18259984898528805668
14294032 229 15937805216932791413
14347424 109 18411697699642769632
14856354 85 13912612676033293779
15131766 46 17486194910833569736
15183329 4 17603584128048851563
15849732 13 18272368672375955367
19841028 212 18268430140427753698
20511986 3 18131063861843239351
21130935 74 18409168843757114739
21792934 111 18130497566173377672
21792938 131 17024014979375908450
21792961 116 16805599218746638118
22224240 67 12535623868905316975
23559900 14 17968945317586885297
249057 25 18271259269765823433
249057 3 18040720281645180887
2747138 104 12679464222688955543
3103668 31 17459181885655031429
3178227 256 14490476378918580461
335352 9 18041001751736113366
3633792 109 18341333306003427595
4073 2 18115591581303898451
4144715 1 17533230893029534609
5381727 24 11959729348965253604
59682541 35 12463562998540922639
59755656 215 17312818265035283443
99344 41 18343302540108989807

> <PUBCHEM_SHAPE_MULTIPOLES>
587.59
25.74
2.38
1.27
33.32
0.95
-0.08
-1.08
0.15
-1.26
0.4
-0.38
0.47
-0.3

> <PUBCHEM_SHAPE_SELFOVERLAP>
1268.37

> <PUBCHEM_SHAPE_VOLUME>
325.2

> <PUBCHEM_COORDINATE_TYPE>
2
5
10

$$$$
