26744806
  -OEChem-12032416353D

 49 53  0     1  0  0  0  0  0999 V2000
    1.9198   -1.3419    2.0111 O   0  0  0  0  0  0  0  0  0  0  0  0
   -3.8456    4.6591   -0.8659 O   0  0  0  0  0  0  0  0  0  0  0  0
   -1.2338   -0.9775    0.4553 N   0  0  1  0  0  0  0  0  0  0  0  0
   -3.5365   -3.6902   -0.7302 N   0  0  0  0  0  0  0  0  0  0  0  0
   -1.6552   -4.7783   -1.2549 N   0  0  0  0  0  0  0  0  0  0  0  0
    1.9132   -0.6071   -0.1048 N   0  0  0  0  0  0  0  0  0  0  0  0
    3.1336   -0.6669    1.8294 N   0  0  0  0  0  0  0  0  0  0  0  0
    5.1767    0.7601    0.6899 N   0  0  0  0  0  0  0  0  0  0  0  0
   -0.1081   -1.9266    0.7596 C   0  0  1  0  0  0  0  0  0  0  0  0
   -0.0207   -3.1049   -0.2742 C   0  0  0  0  0  0  0  0  0  0  0  0
   -2.5637   -1.6535    0.4747 C   0  0  0  0  0  0  0  0  0  0  0  0
   -2.5068   -2.9303   -0.2651 C   0  0  0  0  0  0  0  0  0  0  0  0
   -1.3682   -3.6193   -0.5915 C   0  0  0  0  0  0  0  0  0  0  0  0
   -1.2818    0.1519    1.3937 C   0  0  0  0  0  0  0  0  0  0  0  0
    1.2623   -1.2598    0.8249 C   0  0  0  0  0  0  0  0  0  0  0  0
   -1.9639    1.3519    0.7923 C   0  0  0  0  0  0  0  0  0  0  0  0
   -2.9722   -4.7944   -1.3201 C   0  0  0  0  0  0  0  0  0  0  0  0
   -1.2897    2.1456   -0.1358 C   0  0  0  0  0  0  0  0  0  0  0  0
   -3.2704    1.6698    1.1631 C   0  0  0  0  0  0  0  0  0  0  0  0
    3.0551   -0.2628    0.5581 C   0  0  0  0  0  0  0  0  0  0  0  0
   -1.9218    3.2571   -0.6927 C   0  0  0  0  0  0  0  0  0  0  0  0
   -3.9027    2.7812    0.6063 C   0  0  0  0  0  0  0  0  0  0  0  0
   -3.2284    3.5749   -0.3217 C   0  0  0  0  0  0  0  0  0  0  0  0
    4.1000    0.4848   -0.0798 C   0  0  0  0  0  0  0  0  0  0  0  0
    3.9702    0.8789   -1.4019 C   0  0  0  0  0  0  0  0  0  0  0  0
    5.0129    1.6021   -1.9704 C   0  0  0  0  0  0  0  0  0  0  0  0
    6.1699    1.4649    0.1030 C   0  0  0  0  0  0  0  0  0  0  0  0
   -5.1815    4.9263   -0.4418 C   0  0  0  0  0  0  0  0  0  0  0  0
    6.1373    1.9048   -1.2105 C   0  0  0  0  0  0  0  0  0  0  0  0
   -0.3080   -2.3665    1.7487 H   0  0  0  0  0  0  0  0  0  0  0  0
    0.6071   -3.9076    0.1306 H   0  0  0  0  0  0  0  0  0  0  0  0
    0.4469   -2.7615   -1.2061 H   0  0  0  0  0  0  0  0  0  0  0  0
   -3.3168   -1.0080    0.0093 H   0  0  0  0  0  0  0  0  0  0  0  0
   -2.8812   -1.8673    1.5036 H   0  0  0  0  0  0  0  0  0  0  0  0
   -0.2787    0.4983    1.6706 H   0  0  0  0  0  0  0  0  0  0  0  0
   -1.7433   -0.1294    2.3503 H   0  0  0  0  0  0  0  0  0  0  0  0
   -4.5249   -3.4883   -0.6548 H   0  0  0  0  0  0  0  0  0  0  0  0
   -3.5755   -5.5668   -1.7756 H   0  0  0  0  0  0  0  0  0  0  0  0
   -0.2714    1.9081   -0.4328 H   0  0  0  0  0  0  0  0  0  0  0  0
   -3.8064    1.0588    1.8848 H   0  0  0  0  0  0  0  0  0  0  0  0
   -1.3916    3.8715   -1.4153 H   0  0  0  0  0  0  0  0  0  0  0  0
   -4.9177    2.9703    0.9385 H   0  0  0  0  0  0  0  0  0  0  0  0
    3.0956    0.6468   -2.0007 H   0  0  0  0  0  0  0  0  0  0  0  0
    4.9496    1.9295   -3.0038 H   0  0  0  0  0  0  0  0  0  0  0  0
    7.0243    1.6749    0.7380 H   0  0  0  0  0  0  0  0  0  0  0  0
   -5.5162    5.8227   -0.9739 H   0  0  0  0  0  0  0  0  0  0  0  0
   -5.2260    5.1546    0.6284 H   0  0  0  0  0  0  0  0  0  0  0  0
   -5.8624    4.1153   -0.7220 H   0  0  0  0  0  0  0  0  0  0  0  0
    6.9619    2.4673   -1.6330 H   0  0  0  0  0  0  0  0  0  0  0  0
  1  7  1  0  0  0  0
  1 15  1  0  0  0  0
  2 23  1  0  0  0  0
  2 28  1  0  0  0  0
  3  9  1  0  0  0  0
  3 11  1  0  0  0  0
  3 14  1  0  0  0  0
  4 12  1  0  0  0  0
  4 17  1  0  0  0  0
  4 37  1  0  0  0  0
  5 13  1  0  0  0  0
  5 17  2  0  0  0  0
  6 15  2  0  0  0  0
  6 20  1  0  0  0  0
  7 20  2  0  0  0  0
  8 24  1  0  0  0  0
  8 27  2  0  0  0  0
  9 10  1  0  0  0  0
  9 15  1  0  0  0  0
  9 30  1  0  0  0  0
 10 13  1  0  0  0  0
 10 31  1  0  0  0  0
 10 32  1  0  0  0  0
 11 12  1  0  0  0  0
 11 33  1  0  0  0  0
 11 34  1  0  0  0  0
 12 13  2  0  0  0  0
 14 16  1  0  0  0  0
 14 35  1  0  0  0  0
 14 36  1  0  0  0  0
 16 18  2  0  0  0  0
 16 19  1  0  0  0  0
 17 38  1  0  0  0  0
 18 21  1  0  0  0  0
 18 39  1  0  0  0  0
 19 22  2  0  0  0  0
 19 40  1  0  0  0  0
 20 24  1  0  0  0  0
 21 23  2  0  0  0  0
 21 41  1  0  0  0  0
 22 23  1  0  0  0  0
 22 42  1  0  0  0  0
 24 25  2  0  0  0  0
 25 26  1  0  0  0  0
 25 43  1  0  0  0  0
 26 29  2  0  0  0  0
 26 44  1  0  0  0  0
 27 29  1  0  0  0  0
 27 45  1  0  0  0  0
 28 46  1  0  0  0  0
 28 47  1  0  0  0  0
 28 48  1  0  0  0  0
 29 49  1  0  0  0  0
M  END
> <PUBCHEM_COMPOUND_CID>
26744806

> <PUBCHEM_CONFORMER_RMSD>
0.8

> <PUBCHEM_CONFORMER_DIVERSEORDER>
1
99
83
115
132
91
19
106
42
41
100
7
94
52
129
103
67
130
14
142
2
34
134
92
126
112
66
128
40
133
88
57
49
137
135
95
78
120
102
84
116
93
26
71
21
35
69
80
97
77
118
36
109
17
138
119
90
61
73
82
4
136
54
113
139
96
75
72
27
124
117
30
121
85
110
107
141
38
23
31
79
87
111
68
89
105
64
98
127
8
131
22
28
53
11
104
81
122
86
140
48
45
25
70
12
37
74
24
20
58
46
32
39
18
60
125
6
65
44
108
63
16
15
5
114
76
123
3
101
55
43
29
33
62
56
47
51
50
59
10
9
13

> <PUBCHEM_MMFF94_PARTIAL_CHARGES>
39
1 -0.02
10 0.18
11 0.45
12 -0.33
13 0.05
14 0.41
15 0.3
16 -0.14
17 0.04
18 -0.15
19 -0.15
2 -0.36
20 0.46
21 -0.15
22 -0.15
23 0.08
24 0.36
25 -0.15
26 -0.15
27 0.16
28 0.28
29 -0.15
3 -0.81
37 0.27
38 0.15
39 0.15
4 0.03
40 0.15
41 0.15
42 0.15
43 0.15
44 0.15
45 0.15
49 0.15
5 -0.57
6 -0.57
7 -0.41
8 -0.62
9 0.45

> <PUBCHEM_EFFECTIVE_ROTOR_COUNT>
5.8

> <PUBCHEM_PHARMACOPHORE_FEATURES>
11
1 2 acceptor
1 3 cation
1 4 donor
1 8 acceptor
3 4 5 17 cation
3 6 7 20 cation
5 1 6 7 15 20 rings
5 4 5 12 13 17 rings
6 16 18 19 21 22 23 rings
6 3 9 10 11 12 13 rings
6 8 24 25 26 27 29 rings

> <PUBCHEM_HEAVY_ATOM_COUNT>
29

> <PUBCHEM_ATOM_DEF_STEREO_COUNT>
1

> <PUBCHEM_ATOM_UDEF_STEREO_COUNT>
0

> <PUBCHEM_BOND_DEF_STEREO_COUNT>
0

> <PUBCHEM_BOND_UDEF_STEREO_COUNT>
0

> <PUBCHEM_ISOTOPIC_ATOM_COUNT>
0

> <PUBCHEM_COMPONENT_COUNT>
1

> <PUBCHEM_CACTVS_TAUTO_COUNT>
2

> <PUBCHEM_CONFORMER_ID>
019817E600000001

> <PUBCHEM_MMFF94_ENERGY>
73.441

> <PUBCHEM_FEATURE_SELFOVERLAP>
55.922

> <PUBCHEM_SHAPE_FINGERPRINT>
10673678 19 18049442539779647641
10871710 139 18262808478632647771
10937287 8 18267305326692968981
11477941 20 17910397513446467004
12788726 201 18335973281028024043
13540713 5 18187351126782269586
13617811 41 18053103105661142630
13911987 19 18269838619054241753
14068700 675 18047184434699913796
14114206 34 18124575729279387694
14114211 80 18198074589861855929
14294032 229 18411427214938964441
14556957 393 18045789145864796916
14910302 57 17915763018636915142
14955137 171 17761225705496231779
15198563 99 18268712895176910695
15420108 30 18261952942965389324
15575132 122 18335146375564592369
15684973 49 18336247012748750690
15705408 1 16973638448418850511
15878777 1 15759131626782206211
16087824 20 18411418450150513547
16992828 155 18113337496625985420
17686467 74 17767689726493381800
21033650 10 18191612898428713940
21641784 216 18194691594556746214
21792964 463 17676492778230080951
22907989 373 18336811070381064935
23516275 100 17258780846423837988
23559900 14 17472701321958531745
23929065 36 18196915868341763072
3057174 1 17984700017948854663
3388396 114 17471026138473896572
340366 18 18122344580359440842
3610482 184 17897191167979726572
376196 1 17826799127388102977
44249763 50 18272086154165582632
5219985 13 18336551495368912121
531348 171 18340499919630090342
6034566 193 18337677399892787185
6058803 2 18260815004634676410
6608658 132 18191316085596327300
6700243 42 17769689660317775214
7808743 9 18409450280437562520

> <PUBCHEM_SHAPE_MULTIPOLES>
555.18
11.66
7.36
1.5
18.02
1.81
-0.08
-12.93
3.06
-15.36
3.87
0.97
0.28
-1.98

> <PUBCHEM_SHAPE_SELFOVERLAP>
1225.359

> <PUBCHEM_SHAPE_VOLUME>
298.1

> <PUBCHEM_COORDINATE_TYPE>
2
5
10

$$$$
