75367635
  -OEChem-12032416403D

 47 49  0     1  0  0  0  0  0999 V2000
    1.9306   -3.4155    1.2573 O   0  0  0  0  0  0  0  0  0  0  0  0
    2.5535    0.1362    1.4932 O   0  0  0  0  0  0  0  0  0  0  0  0
   -3.3375   -0.2418   -1.0313 O   0  0  0  0  0  0  0  0  0  0  0  0
   -2.0764   -2.4032   -1.3927 O   0  0  0  0  0  0  0  0  0  0  0  0
   -0.0500   -1.6895   -0.4856 N   0  0  0  0  0  0  0  0  0  0  0  0
    3.6104    0.6074   -0.5151 N   0  0  0  0  0  0  0  0  0  0  0  0
    2.0454   -1.0156    0.8177 C   0  0  2  0  0  0  0  0  0  0  0  0
    0.7309   -0.6181    0.1404 C   0  0  0  0  0  0  0  0  0  0  0  0
    0.6051   -2.9733   -0.7492 C   0  0  0  0  0  0  0  0  0  0  0  0
    1.8736   -2.1241    1.8527 C   0  0  0  0  0  0  0  0  0  0  0  0
    0.7651   -3.7856    0.5289 C   0  0  0  0  0  0  0  0  0  0  0  0
   -1.3933   -1.5286   -0.8539 C   0  0  0  0  0  0  0  0  0  0  0  0
   -2.0175   -0.1876   -0.5494 C   0  0  0  0  0  0  0  0  0  0  0  0
    3.3665    0.9613    0.7665 C   0  0  0  0  0  0  0  0  0  0  0  0
    3.8879    2.0936    1.3713 C   0  0  0  0  0  0  0  0  0  0  0  0
    4.4165    1.4305   -1.2224 C   0  0  0  0  0  0  0  0  0  0  0  0
   -4.2714    0.5582   -0.4106 C   0  0  0  0  0  0  0  0  0  0  0  0
    4.7127    2.9156    0.6117 C   0  0  0  0  0  0  0  0  0  0  0  0
    4.9870    2.5849   -0.7109 C   0  0  0  0  0  0  0  0  0  0  0  0
    4.6916    1.0433   -2.6371 C   0  0  0  0  0  0  0  0  0  0  0  0
   -3.8820    1.7687    0.1627 C   0  0  0  0  0  0  0  0  0  0  0  0
   -5.6063    0.1578   -0.3553 C   0  0  0  0  0  0  0  0  0  0  0  0
   -4.8277    2.5789    0.7914 C   0  0  0  0  0  0  0  0  0  0  0  0
   -6.5520    0.9679    0.2731 C   0  0  0  0  0  0  0  0  0  0  0  0
   -6.1626    2.1785    0.8465 C   0  0  0  0  0  0  0  0  0  0  0  0
    2.7576   -1.3989    0.0760 H   0  0  0  0  0  0  0  0  0  0  0  0
    0.1041   -0.1054    0.8782 H   0  0  0  0  0  0  0  0  0  0  0  0
    0.9224    0.1251   -0.6433 H   0  0  0  0  0  0  0  0  0  0  0  0
    1.5630   -2.7832   -1.2446 H   0  0  0  0  0  0  0  0  0  0  0  0
   -0.0100   -3.5487   -1.4491 H   0  0  0  0  0  0  0  0  0  0  0  0
    2.6994   -2.0794    2.5723 H   0  0  0  0  0  0  0  0  0  0  0  0
    0.9536   -2.0064    2.4385 H   0  0  0  0  0  0  0  0  0  0  0  0
   -0.1186   -3.7274    1.1752 H   0  0  0  0  0  0  0  0  0  0  0  0
    0.9021   -4.8380    0.2584 H   0  0  0  0  0  0  0  0  0  0  0  0
   -1.4627    0.6027   -1.0646 H   0  0  0  0  0  0  0  0  0  0  0  0
   -1.9974   -0.0529    0.5381 H   0  0  0  0  0  0  0  0  0  0  0  0
    3.6643    2.3374    2.4041 H   0  0  0  0  0  0  0  0  0  0  0  0
    5.1411    3.8123    1.0494 H   0  0  0  0  0  0  0  0  0  0  0  0
    5.6294    3.2182   -1.3133 H   0  0  0  0  0  0  0  0  0  0  0  0
    5.7641    0.8830   -2.7863 H   0  0  0  0  0  0  0  0  0  0  0  0
    4.1718    0.1156   -2.8986 H   0  0  0  0  0  0  0  0  0  0  0  0
    4.3478    1.8265   -3.3201 H   0  0  0  0  0  0  0  0  0  0  0  0
   -2.8571    2.1253    0.1202 H   0  0  0  0  0  0  0  0  0  0  0  0
   -5.9150   -0.7842   -0.8001 H   0  0  0  0  0  0  0  0  0  0  0  0
   -4.5260    3.5241    1.2334 H   0  0  0  0  0  0  0  0  0  0  0  0
   -7.5915    0.6563    0.3159 H   0  0  0  0  0  0  0  0  0  0  0  0
   -6.8993    2.8098    1.3349 H   0  0  0  0  0  0  0  0  0  0  0  0
  1 10  1  0  0  0  0
  1 11  1  0  0  0  0
  2  7  1  0  0  0  0
  2 14  1  0  0  0  0
  3 13  1  0  0  0  0
  3 17  1  0  0  0  0
  4 12  2  0  0  0  0
  5  8  1  0  0  0  0
  5  9  1  0  0  0  0
  5 12  1  0  0  0  0
  6 14  1  0  0  0  0
  6 16  2  0  0  0  0
  7  8  1  0  0  0  0
  7 10  1  0  0  0  0
  7 26  1  0  0  0  0
  8 27  1  0  0  0  0
  8 28  1  0  0  0  0
  9 11  1  0  0  0  0
  9 29  1  0  0  0  0
  9 30  1  0  0  0  0
 10 31  1  0  0  0  0
 10 32  1  0  0  0  0
 11 33  1  0  0  0  0
 11 34  1  0  0  0  0
 12 13  1  0  0  0  0
 13 35  1  0  0  0  0
 13 36  1  0  0  0  0
 14 15  2  0  0  0  0
 15 18  1  0  0  0  0
 15 37  1  0  0  0  0
 16 19  1  0  0  0  0
 16 20  1  0  0  0  0
 17 21  2  0  0  0  0
 17 22  1  0  0  0  0
 18 19  2  0  0  0  0
 18 38  1  0  0  0  0
 19 39  1  0  0  0  0
 20 40  1  0  0  0  0
 20 41  1  0  0  0  0
 20 42  1  0  0  0  0
 21 23  1  0  0  0  0
 21 43  1  0  0  0  0
 22 24  2  0  0  0  0
 22 44  1  0  0  0  0
 23 25  2  0  0  0  0
 23 45  1  0  0  0  0
 24 25  1  0  0  0  0
 24 46  1  0  0  0  0
 25 47  1  0  0  0  0
M  END
> <PUBCHEM_COMPOUND_CID>
75367635

> <PUBCHEM_CONFORMER_RMSD>
1.2

> <PUBCHEM_CONFORMER_DIVERSEORDER>
1
33
69
72
55
64
9
81
41
94
98
10
103
83
115
60
26
22
79
45
36
32
30
73
112
71
27
49
121
28
19
43
62
14
18
107
56
11
89
78
70
91
126
24
116
20
74
108
51
34
68
58
105
66
117
53
93
97
4
114
3
52
125
104
13
40
85
46
102
25
90
77
86
113
23
47
44
96
100
61
80
50
59
21
111
38
88
8
5
67
57
37
76
106
17
95
124
54
82
84
48
7
39
110
118
123
2
16
29
101
122
120
87
15
63
12
6
109
35
31
42
119
75
92
65
99

> <PUBCHEM_MMFF94_PARTIAL_CHARGES>
33
1 -0.56
10 0.28
11 0.28
12 0.57
13 0.34
14 0.39
15 -0.15
16 0.17
17 0.08
18 -0.15
19 -0.15
2 -0.36
20 0.14
21 -0.15
22 -0.15
23 -0.15
24 -0.15
25 -0.15
3 -0.36
37 0.15
38 0.15
39 0.15
4 -0.57
43 0.15
44 0.15
45 0.15
46 0.15
47 0.15
5 -0.66
6 -0.62
7 0.28
8 0.3
9 0.3

> <PUBCHEM_EFFECTIVE_ROTOR_COUNT>
7.4

> <PUBCHEM_PHARMACOPHORE_FEATURES>
8
1 1 acceptor
1 2 acceptor
1 3 acceptor
1 4 acceptor
1 6 acceptor
6 17 21 22 23 24 25 rings
6 6 14 15 16 18 19 rings
7 1 5 7 8 9 10 11 rings

> <PUBCHEM_HEAVY_ATOM_COUNT>
25

> <PUBCHEM_ATOM_DEF_STEREO_COUNT>
1

> <PUBCHEM_ATOM_UDEF_STEREO_COUNT>
0

> <PUBCHEM_BOND_DEF_STEREO_COUNT>
0

> <PUBCHEM_BOND_UDEF_STEREO_COUNT>
0

> <PUBCHEM_ISOTOPIC_ATOM_COUNT>
0

> <PUBCHEM_COMPONENT_COUNT>
1

> <PUBCHEM_CACTVS_TAUTO_COUNT>
1

> <PUBCHEM_CONFORMER_ID>
047E04D300000001

> <PUBCHEM_MMFF94_ENERGY>
81.1689

> <PUBCHEM_FEATURE_SELFOVERLAP>
40.663

> <PUBCHEM_SHAPE_FINGERPRINT>
10483366 6 18199484181855252382
10670039 82 18271530809887261357
10937287 8 18410851109548123018
11720765 8 17274548612264393492
12104220 4 18188220917399596052
12390115 104 18340493382056531619
12788726 201 17395589740707891366
13540713 5 18269249366568164255
13878862 14 18046602544273403413
13885169 86 18188778395216443996
13955234 65 18188489051753898842
14251740 57 11097851878770313248
14251751 18 9367348111483239841
14251764 75 18411138073366807793
14257110 125 18411697716316372941
14537116 161 16630522900462548321
14790565 3 18341894099788580273
14840074 17 18040721393704432549
14848178 5 8358262527388644881
14849402 71 18264205820763274322
15142526 21 18334572477544153963
15163728 17 18410862087394919406
151778 21 18340197488789985017
15183329 4 15410624678791902173
15188451 53 8358272409865916908
16120349 67 18265065785206615492
18222031 100 9799418840584958600
18785283 64 18263636269265887698
20465049 17 18341342089237687582
20567600 234 16877948265212801213
20567600 9 18340775836085416796
20626108 58 9223236255980564102
21033650 10 17975422622807605814
21315763 87 13334740150061781801
21315764 21 16487264283093414588
21585480 29 13118855517172102824
21756936 100 18265891548250515266
23559900 14 17629763366804780727
245318 6 18335707134905357981
312425 54 13190600721111211261
38570 142 18410022030567632406
44062 13 10519719886167568987
444735 79 7997687542289346868
5252454 2 18340193150841646933
56616090 89 8502382113205005158
57527585 21 17189806278657277628
57724786 102 18268147553111372945
59682541 52 15195291889265512637
613672 6 10735881698650432332
7808743 9 18272081747159280409
7970288 3 9150908186298692496

> <PUBCHEM_SHAPE_MULTIPOLES>
481.05
14.6
4.26
1.65
16.14
2.82
-0.35
-16.74
-0.8
-2.65
1
-2.22
0.08
-2.12

> <PUBCHEM_SHAPE_SELFOVERLAP>
1015.087

> <PUBCHEM_SHAPE_VOLUME>
265.7

> <PUBCHEM_COORDINATE_TYPE>
2
5
10

$$$$
