51136980
  -OEChem-12032416233D

 65 69  0     1  0  0  0  0  0999 V2000
    8.4901    2.9886    0.4069 F   0  0  0  0  0  0  0  0  0  0  0  0
    6.4790    3.6337    0.9239 F   0  0  0  0  0  0  0  0  0  0  0  0
    7.4664    2.1126    2.1135 F   0  0  0  0  0  0  0  0  0  0  0  0
   -2.3429   -2.6117    0.9098 O   0  0  0  0  0  0  0  0  0  0  0  0
   -0.5118   -3.8756   -1.0946 O   0  0  0  0  0  0  0  0  0  0  0  0
   -3.8890   -4.9512    1.1138 O   0  0  0  0  0  0  0  0  0  0  0  0
   -2.0919    1.7986    0.3613 O   0  0  0  0  0  0  0  0  0  0  0  0
    1.1242   -1.7989    0.0158 N   0  0  0  0  0  0  0  0  0  0  0  0
    3.7294   -0.6797   -0.3298 N   0  0  0  0  0  0  0  0  0  0  0  0
   -2.8931   -0.2098   -0.4807 N   0  0  0  0  0  0  0  0  0  0  0  0
   -7.8224    1.4277   -1.4108 N   0  0  0  0  0  0  0  0  0  0  0  0
   -8.3239    3.0155    0.0614 N   0  0  0  0  0  0  0  0  0  0  0  0
    0.0220   -2.3885    0.7554 C   0  0  1  0  0  0  0  0  0  0  0  0
   -1.3069   -1.6231    0.7170 C   0  0  1  0  0  0  0  0  0  0  0  0
   -0.3768   -3.7896    0.3180 C   0  0  1  0  0  0  0  0  0  0  0  0
   -1.7387   -3.9171    0.9904 C   0  0  2  0  0  0  0  0  0  0  0  0
    2.3165   -2.6507    0.1022 C   0  0  0  0  0  0  0  0  0  0  0  0
    1.4301   -0.4579    0.5296 C   0  0  0  0  0  0  0  0  0  0  0  0
   -1.6290   -0.8767   -0.5728 C   0  0  0  0  0  0  0  0  0  0  0  0
    3.4694   -2.0688   -0.7197 C   0  0  0  0  0  0  0  0  0  0  0  0
    2.5525    0.1969   -0.2788 C   0  0  0  0  0  0  0  0  0  0  0  0
   -2.6763   -4.9414    0.3780 C   0  0  0  0  0  0  0  0  0  0  0  0
    4.9697   -0.0988   -0.6165 C   0  0  0  0  0  0  0  0  0  0  0  0
   -3.0267    1.0956   -0.0136 C   0  0  0  0  0  0  0  0  0  0  0  0
    5.4868    0.8912    0.2191 C   0  0  0  0  0  0  0  0  0  0  0  0
    5.6891   -0.5097   -1.7389 C   0  0  0  0  0  0  0  0  0  0  0  0
    6.7230    1.4703   -0.0674 C   0  0  0  0  0  0  0  0  0  0  0  0
   -4.4096    1.6350    0.0456 C   0  0  0  0  0  0  0  0  0  0  0  0
    6.9255    0.0691   -2.0253 C   0  0  0  0  0  0  0  0  0  0  0  0
    7.4424    1.0593   -1.1898 C   0  0  0  0  0  0  0  0  0  0  0  0
    7.2756    2.5284    0.8265 C   0  0  0  0  0  0  0  0  0  0  0  0
   -5.3775    1.1322   -0.8303 C   0  0  0  0  0  0  0  0  0  0  0  0
   -4.7194    2.6327    0.9727 C   0  0  0  0  0  0  0  0  0  0  0  0
   -6.6585    1.6759   -0.7293 C   0  0  0  0  0  0  0  0  0  0  0  0
   -6.0126    3.1638    1.0561 C   0  0  0  0  0  0  0  0  0  0  0  0
   -6.9975    2.6704    0.1839 C   0  0  0  0  0  0  0  0  0  0  0  0
   -8.7874    2.2520   -0.9026 C   0  0  0  0  0  0  0  0  0  0  0  0
    0.3033   -2.4664    1.8184 H   0  0  0  0  0  0  0  0  0  0  0  0
   -1.3605   -0.9257    1.5625 H   0  0  0  0  0  0  0  0  0  0  0  0
    0.3134   -4.5702    0.6540 H   0  0  0  0  0  0  0  0  0  0  0  0
   -1.6147   -4.1216    2.0617 H   0  0  0  0  0  0  0  0  0  0  0  0
    2.6353   -2.7706    1.1466 H   0  0  0  0  0  0  0  0  0  0  0  0
    2.1247   -3.6518   -0.2982 H   0  0  0  0  0  0  0  0  0  0  0  0
    1.7454   -0.5229    1.5810 H   0  0  0  0  0  0  0  0  0  0  0  0
    0.5762    0.2225    0.5152 H   0  0  0  0  0  0  0  0  0  0  0  0
   -1.7300   -1.5799   -1.4064 H   0  0  0  0  0  0  0  0  0  0  0  0
   -0.8782   -0.1391   -0.8582 H   0  0  0  0  0  0  0  0  0  0  0  0
    3.2196   -2.1165   -1.7876 H   0  0  0  0  0  0  0  0  0  0  0  0
    4.3564   -2.6919   -0.5495 H   0  0  0  0  0  0  0  0  0  0  0  0
    2.7865    1.1624    0.1842 H   0  0  0  0  0  0  0  0  0  0  0  0
    2.2102    0.4030   -1.3012 H   0  0  0  0  0  0  0  0  0  0  0  0
   -2.9312   -4.6819   -0.6545 H   0  0  0  0  0  0  0  0  0  0  0  0
   -2.2369   -5.9430    0.4060 H   0  0  0  0  0  0  0  0  0  0  0  0
   -0.6606   -4.8097   -1.3196 H   0  0  0  0  0  0  0  0  0  0  0  0
   -3.7142   -0.7604   -0.7071 H   0  0  0  0  0  0  0  0  0  0  0  0
   -4.4676   -5.6164    0.7037 H   0  0  0  0  0  0  0  0  0  0  0  0
    4.9406    1.2087    1.1044 H   0  0  0  0  0  0  0  0  0  0  0  0
    5.3110   -1.2673   -2.4194 H   0  0  0  0  0  0  0  0  0  0  0  0
    7.4843   -0.2484   -2.9009 H   0  0  0  0  0  0  0  0  0  0  0  0
    8.4066    1.4980   -1.4311 H   0  0  0  0  0  0  0  0  0  0  0  0
   -5.1704    0.3808   -1.5830 H   0  0  0  0  0  0  0  0  0  0  0  0
   -3.9615    3.0140    1.6534 H   0  0  0  0  0  0  0  0  0  0  0  0
   -6.2438    3.9380    1.7806 H   0  0  0  0  0  0  0  0  0  0  0  0
   -7.9450    0.7552   -2.1560 H   0  0  0  0  0  0  0  0  0  0  0  0
   -9.8011    2.2462   -1.2771 H   0  0  0  0  0  0  0  0  0  0  0  0
  1 31  1  0  0  0  0
  2 31  1  0  0  0  0
  3 31  1  0  0  0  0
  4 14  1  0  0  0  0
  4 16  1  0  0  0  0
  5 15  1  0  0  0  0
  5 54  1  0  0  0  0
  6 22  1  0  0  0  0
  6 56  1  0  0  0  0
  7 24  2  0  0  0  0
  8 13  1  0  0  0  0
  8 17  1  0  0  0  0
  8 18  1  0  0  0  0
  9 20  1  0  0  0  0
  9 21  1  0  0  0  0
  9 23  1  0  0  0  0
 10 19  1  0  0  0  0
 10 24  1  0  0  0  0
 10 55  1  0  0  0  0
 11 34  1  0  0  0  0
 11 37  1  0  0  0  0
 11 64  1  0  0  0  0
 12 36  1  0  0  0  0
 12 37  2  0  0  0  0
 13 14  1  0  0  0  0
 13 15  1  0  0  0  0
 13 38  1  0  0  0  0
 14 19  1  0  0  0  0
 14 39  1  0  0  0  0
 15 16  1  0  0  0  0
 15 40  1  0  0  0  0
 16 22  1  0  0  0  0
 16 41  1  0  0  0  0
 17 20  1  0  0  0  0
 17 42  1  0  0  0  0
 17 43  1  0  0  0  0
 18 21  1  0  0  0  0
 18 44  1  0  0  0  0
 18 45  1  0  0  0  0
 19 46  1  0  0  0  0
 19 47  1  0  0  0  0
 20 48  1  0  0  0  0
 20 49  1  0  0  0  0
 21 50  1  0  0  0  0
 21 51  1  0  0  0  0
 22 52  1  0  0  0  0
 22 53  1  0  0  0  0
 23 25  1  0  0  0  0
 23 26  2  0  0  0  0
 24 28  1  0  0  0  0
 25 27  2  0  0  0  0
 25 57  1  0  0  0  0
 26 29  1  0  0  0  0
 26 58  1  0  0  0  0
 27 30  1  0  0  0  0
 27 31  1  0  0  0  0
 28 32  2  0  0  0  0
 28 33  1  0  0  0  0
 29 30  2  0  0  0  0
 29 59  1  0  0  0  0
 30 60  1  0  0  0  0
 32 34  1  0  0  0  0
 32 61  1  0  0  0  0
 33 35  2  0  0  0  0
 33 62  1  0  0  0  0
 34 36  2  0  0  0  0
 35 36  1  0  0  0  0
 35 63  1  0  0  0  0
 37 65  1  0  0  0  0
M  END
> <PUBCHEM_COMPOUND_CID>
51136980

> <PUBCHEM_CONFORMER_RMSD>
1

> <PUBCHEM_CONFORMER_DIVERSEORDER>
1
131
90
141
94
75
80
153
143
33
108
135
92
165
10
173
81
134
68
126
162
18
105
74
163
15
47
35
65
76
138
98
96
170
148
88
82
83
161
154
49
171
119
91
85
54
106
37
156
110
9
158
12
48
67
132
160
109
168
101
60
77
129
142
169
16
63
152
146
172
100
174
99
137
107
145
3
123
139
13
157
111
95
144
115
118
122
14
121
40
79
103
84
32
136
70
17
120
66
102
50
155
34
140
11
61
175
124
130
97
58
149
86
87
39
166
24
59
116
56
45
78
71
159
55
27
104
112
36
52
128
51
29
69
4
151
43
114
89
25
125
31
150
73
19
30
167
117
46
93
62
42
57
64
8
2
21
53
147
23
164
41
22
133
6
72
38
127
113
44
28
7
5
20
26

> <PUBCHEM_MMFF94_PARTIAL_CHARGES>
49
1 -0.34
10 -0.73
11 0.03
12 -0.57
13 0.27
14 0.28
15 0.28
16 0.28
17 0.27
18 0.27
19 0.3
2 -0.34
20 0.37
21 0.37
22 0.28
23 0.1
24 0.54
25 -0.15
26 -0.15
27 -0.14
28 0.09
29 -0.15
3 -0.34
30 -0.15
31 1.16
32 -0.15
33 -0.15
34 -0.15
35 -0.15
36 0.23
37 0.04
4 -0.56
5 -0.68
54 0.4
55 0.37
56 0.4
57 0.15
58 0.15
59 0.15
6 -0.68
60 0.15
61 0.15
62 0.15
63 0.15
64 0.27
65 0.15
7 -0.57
8 -0.81
9 -0.84

> <PUBCHEM_EFFECTIVE_ROTOR_COUNT>
10.2

> <PUBCHEM_PHARMACOPHORE_FEATURES>
16
1 10 donor
1 11 donor
1 4 acceptor
1 5 acceptor
1 5 donor
1 6 acceptor
1 6 donor
1 7 acceptor
1 8 cation
1 9 cation
3 11 12 37 cation
5 11 12 34 36 37 rings
5 4 13 14 15 16 rings
6 23 25 26 27 29 30 rings
6 28 32 33 34 35 36 rings
6 8 9 17 18 20 21 rings

> <PUBCHEM_HEAVY_ATOM_COUNT>
37

> <PUBCHEM_ATOM_DEF_STEREO_COUNT>
4

> <PUBCHEM_ATOM_UDEF_STEREO_COUNT>
0

> <PUBCHEM_BOND_DEF_STEREO_COUNT>
0

> <PUBCHEM_BOND_UDEF_STEREO_COUNT>
0

> <PUBCHEM_ISOTOPIC_ATOM_COUNT>
0

> <PUBCHEM_COMPONENT_COUNT>
1

> <PUBCHEM_CACTVS_TAUTO_COUNT>
7

> <PUBCHEM_CONFORMER_ID>
030C49D400000001

> <PUBCHEM_MMFF94_ENERGY>
98.3869

> <PUBCHEM_FEATURE_SELFOVERLAP>
81.313

> <PUBCHEM_SHAPE_FINGERPRINT>
11007060 377 18272094885659762497
11062273 23 18116713109261445243
11135609 187 18335416804481711537
11297010 23 18129390306884166198
11443803 9 18187075161952927771
12522641 68 18342739607198476463
12539747 72 18187083979014404034
12539765 74 18129667379175935231
12677640 9 18265902535178051605
12925494 130 18340483486668608056
13150687 139 18336838472235769510
13947947 74 18272370845587605433
14068700 686 17971754363981009701
14190465 44 18410566267480849378
14395042 24 17969515986319769859
14415360 78 18409438207195063005
14565420 104 18114745906617183715
14937079 2 17975135345141324002
15064981 194 18264227939543876109
15320295 198 18271811293655155944
15684393 108 12103841272682069368
15685185 35 18410854391072371109
15803439 3 17203609276616908631
16114785 44 18187655738463662579
16126227 98 18409451384328267465
18365409 1 18409733989166623583
19301679 30 9223228554929836816
19304671 126 18131358475551936452
20691028 202 18409172086657811732
20737093 207 12462751499753969860
21133410 127 17693653033122697624
21360443 126 18409166636618353144
21424621 283 18411983524714683713
21772528 278 18339364068347047631
23522609 53 17344072867309099281
23729417 116 17835803371911930263
3918712 181 18410284788051181897
4112364 45 17895183351735174938
4403749 210 18260834804702546235
4516262 110 18265607694700907589
5758199 1 18337112268227458741
5776283 40 18272928349585779729
6057620 51 18341327779214161861
6327066 14 18334862697048119503
6712543 237 14562536167257977865
9849439 229 18409162191253407602
9980921 177 18189601784419244178

> <PUBCHEM_SHAPE_MULTIPOLES>
691.24
26.22
6.12
1.33
2.57
7.19
0.14
-38.93
4.17
-4.87
-2.38
1.33
-0.31
2.89

> <PUBCHEM_SHAPE_SELFOVERLAP>
1503.89

> <PUBCHEM_SHAPE_VOLUME>
378.5

> <PUBCHEM_COORDINATE_TYPE>
2
5
10

$$$$
