11884210
  -OEChem-12032416133D

 49 53  0     1  0  0  0  0  0999 V2000
    6.5320    0.4548    1.2016 S   0  0  0  0  0  0  0  0  0  0  0  0
   -5.5022   -0.8256    2.0150 F   0  0  0  0  0  0  0  0  0  0  0  0
    2.1919    2.2312    0.7122 O   0  0  0  0  0  0  0  0  0  0  0  0
   -0.7635   -2.1476    0.5662 O   0  0  0  0  0  0  0  0  0  0  0  0
    5.1907    1.3000   -1.8571 O   0  0  0  0  0  0  0  0  0  0  0  0
    0.8577   -0.6577   -0.1423 N   0  0  0  0  0  0  0  0  0  0  0  0
    3.6214    0.0211   -0.7356 N   0  0  0  0  0  0  0  0  0  0  0  0
   -0.0634    1.9643    0.8714 N   0  0  0  0  0  0  0  0  0  0  0  0
    1.1851    0.6142   -0.7707 C   0  0  2  0  0  0  0  0  0  0  0  0
    2.5189    0.5759   -1.5264 C   0  0  0  0  0  0  0  0  0  0  0  0
    1.9264   -1.6528   -0.0448 C   0  0  0  0  0  0  0  0  0  0  0  0
    3.2715   -1.0067    0.2532 C   0  0  0  0  0  0  0  0  0  0  0  0
    1.1710    1.6449    0.3468 C   0  0  0  0  0  0  0  0  0  0  0  0
   -0.4404   -1.0129    0.2111 C   0  0  0  0  0  0  0  0  0  0  0  0
   -1.5012    0.0297    0.1949 C   0  0  0  0  0  0  0  0  0  0  0  0
   -1.3092    1.3606    0.6007 C   0  0  0  0  0  0  0  0  0  0  0  0
    4.9393    0.4325   -1.0183 C   0  0  0  0  0  0  0  0  0  0  0  0
   -2.8041   -0.4261   -0.0788 C   0  0  0  0  0  0  0  0  0  0  0  0
   -2.4337    2.1829    0.7900 C   0  0  0  0  0  0  0  0  0  0  0  0
   -3.9039    0.4183    0.0675 C   0  0  0  0  0  0  0  0  0  0  0  0
    6.0189   -0.2201   -0.2819 C   0  0  0  0  0  0  0  0  0  0  0  0
   -3.7201    1.7197    0.5155 C   0  0  0  0  0  0  0  0  0  0  0  0
   -5.2353   -0.0672   -0.2233 C   0  0  0  0  0  0  0  0  0  0  0  0
    6.7216   -1.3514   -0.6156 C   0  0  0  0  0  0  0  0  0  0  0  0
    7.7027   -1.6738    0.3660 C   0  0  0  0  0  0  0  0  0  0  0  0
   -5.9932   -0.6793    0.7756 C   0  0  0  0  0  0  0  0  0  0  0  0
   -5.7618    0.0780   -1.5070 C   0  0  0  0  0  0  0  0  0  0  0  0
    7.7072   -0.7733    1.4084 C   0  0  0  0  0  0  0  0  0  0  0  0
   -7.2767   -1.1454    0.4907 C   0  0  0  0  0  0  0  0  0  0  0  0
   -7.0452   -0.3883   -1.7918 C   0  0  0  0  0  0  0  0  0  0  0  0
   -7.8026   -1.0000   -0.7931 C   0  0  0  0  0  0  0  0  0  0  0  0
    0.4000    0.8775   -1.4904 H   0  0  0  0  0  0  0  0  0  0  0  0
    2.4247   -0.0682   -2.4100 H   0  0  0  0  0  0  0  0  0  0  0  0
    2.7851    1.5761   -1.8864 H   0  0  0  0  0  0  0  0  0  0  0  0
    1.6821   -2.3872    0.7301 H   0  0  0  0  0  0  0  0  0  0  0  0
    1.9565   -2.1852   -1.0033 H   0  0  0  0  0  0  0  0  0  0  0  0
    4.0447   -1.7785    0.2888 H   0  0  0  0  0  0  0  0  0  0  0  0
    3.2488   -0.5110    1.2307 H   0  0  0  0  0  0  0  0  0  0  0  0
   -0.0892    2.8006    1.4499 H   0  0  0  0  0  0  0  0  0  0  0  0
   -2.9655   -1.4561   -0.3948 H   0  0  0  0  0  0  0  0  0  0  0  0
   -2.3144    3.2107    1.1279 H   0  0  0  0  0  0  0  0  0  0  0  0
   -4.5643    2.3909    0.6534 H   0  0  0  0  0  0  0  0  0  0  0  0
    6.5464   -1.9257   -1.5164 H   0  0  0  0  0  0  0  0  0  0  0  0
   -5.1851    0.5524   -2.2976 H   0  0  0  0  0  0  0  0  0  0  0  0
    8.3711   -2.5232    0.3105 H   0  0  0  0  0  0  0  0  0  0  0  0
    8.3443   -0.7779    2.2815 H   0  0  0  0  0  0  0  0  0  0  0  0
   -7.8664   -1.6215    1.2685 H   0  0  0  0  0  0  0  0  0  0  0  0
   -7.4549   -0.2751   -2.7913 H   0  0  0  0  0  0  0  0  0  0  0  0
   -8.8020   -1.3631   -1.0148 H   0  0  0  0  0  0  0  0  0  0  0  0
  1 21  1  0  0  0  0
  1 28  1  0  0  0  0
  2 26  1  0  0  0  0
  3 13  2  0  0  0  0
  4 14  2  0  0  0  0
  5 17  2  0  0  0  0
  6  9  1  0  0  0  0
  6 11  1  0  0  0  0
  6 14  1  0  0  0  0
  7 10  1  0  0  0  0
  7 12  1  0  0  0  0
  7 17  1  0  0  0  0
  8 13  1  0  0  0  0
  8 16  1  0  0  0  0
  8 39  1  0  0  0  0
  9 10  1  0  0  0  0
  9 13  1  0  0  0  0
  9 32  1  0  0  0  0
 10 33  1  0  0  0  0
 10 34  1  0  0  0  0
 11 12  1  0  0  0  0
 11 35  1  0  0  0  0
 11 36  1  0  0  0  0
 12 37  1  0  0  0  0
 12 38  1  0  0  0  0
 14 15  1  0  0  0  0
 15 16  2  0  0  0  0
 15 18  1  0  0  0  0
 16 19  1  0  0  0  0
 17 21  1  0  0  0  0
 18 20  2  0  0  0  0
 18 40  1  0  0  0  0
 19 22  2  0  0  0  0
 19 41  1  0  0  0  0
 20 22  1  0  0  0  0
 20 23  1  0  0  0  0
 21 24  2  0  0  0  0
 22 42  1  0  0  0  0
 23 26  1  0  0  0  0
 23 27  2  0  0  0  0
 24 25  1  0  0  0  0
 24 43  1  0  0  0  0
 25 28  2  0  0  0  0
 25 45  1  0  0  0  0
 26 29  2  0  0  0  0
 27 30  1  0  0  0  0
 27 44  1  0  0  0  0
 28 46  1  0  0  0  0
 29 31  1  0  0  0  0
 29 47  1  0  0  0  0
 30 31  2  0  0  0  0
 30 48  1  0  0  0  0
 31 49  1  0  0  0  0
M  END
> <PUBCHEM_COMPOUND_CID>
11884210

> <PUBCHEM_CONFORMER_RMSD>
0.8

> <PUBCHEM_CONFORMER_DIVERSEORDER>
1
11
32
22
2
20
36
41
21
38
37
19
23
6
26
34
17
9
14
18
42
4
39
16
40
28
24
30
3
33
5
35
15
25
13
27
8
31
10
7
29
12

> <PUBCHEM_MMFF94_PARTIAL_CHARGES>
40
1 -0.08
10 0.3
11 0.3
12 0.3
13 0.57
14 0.54
15 0.09
16 0.12
17 0.71
18 -0.15
19 -0.15
2 -0.19
21 -0.05
22 -0.15
24 -0.15
25 -0.15
26 0.19
27 -0.15
28 -0.11
29 -0.15
3 -0.57
30 -0.15
31 -0.15
39 0.37
4 -0.57
40 0.15
41 0.15
42 0.15
43 0.15
44 0.15
45 0.15
46 0.15
47 0.15
48 0.15
49 0.15
5 -0.57
6 -0.66
7 -0.66
8 -0.55
9 0.36

> <PUBCHEM_EFFECTIVE_ROTOR_COUNT>
4

> <PUBCHEM_PHARMACOPHORE_FEATURES>
9
1 3 acceptor
1 4 acceptor
1 5 acceptor
1 8 donor
5 1 21 24 25 28 rings
6 15 16 18 19 20 22 rings
6 23 26 27 29 30 31 rings
6 6 7 9 10 11 12 rings
7 6 8 9 13 14 15 16 rings

> <PUBCHEM_HEAVY_ATOM_COUNT>
31

> <PUBCHEM_ATOM_DEF_STEREO_COUNT>
1

> <PUBCHEM_ATOM_UDEF_STEREO_COUNT>
0

> <PUBCHEM_BOND_DEF_STEREO_COUNT>
0

> <PUBCHEM_BOND_UDEF_STEREO_COUNT>
0

> <PUBCHEM_ISOTOPIC_ATOM_COUNT>
0

> <PUBCHEM_COMPONENT_COUNT>
1

> <PUBCHEM_CACTVS_TAUTO_COUNT>
3

> <PUBCHEM_CONFORMER_ID>
00B556B200000001

> <PUBCHEM_MMFF94_ENERGY>
106.2184

> <PUBCHEM_FEATURE_SELFOVERLAP>
45.702

> <PUBCHEM_SHAPE_FINGERPRINT>
10 15 17203603805524098876
106641 1 16415191300018644998
10670039 82 17095512969197584245
10674148 151 11746936478459088444
11135926 11 18261392218332593307
11181472 205 14201667603378364342
11646440 116 18131358509510774352
11719270 70 18186800275382845354
11991303 11 17677056861876409691
12107698 1 17917711309595354457
12166972 35 18040722484668083196
12236239 1 18186807959252845740
12516196 113 16988565701449881440
13692114 37 18411976988561170314
13782708 43 18260272966148401298
13811026 1 18410853239651188358
13862211 1 18343023289297083932
13914758 101 16588020186750898189
14068700 675 18273495676073990825
14251764 18 18411140238699757076
14849402 71 16199859687213101184
15131766 46 16518237650444393126
15183329 4 16660360359545874844
1577012 14 18262252044630522020
15849732 13 17894629262214921302
21130935 74 17560807559419380646
21267235 1 18343588438294716913
21521721 280 14333404554400222430
21781051 124 18114752645573832715
21792938 703 17844511405451348247
21792961 116 18113335298435158691
22149856 69 16916803850369962352
22224240 67 16271924917708103446
23522609 53 17842875280087636969
23559900 14 18266176308977700633
23569917 315 18335427837657343354
23576562 1 14563398253051367286
24771293 8 17846781827815694608
249057 25 18187096030946415412
25019877 29 17275385399998843252
3044373 193 17132115750167389620
3178227 256 18341343266053601595
335352 9 18187088347988199734
3383291 50 18412827992663632354
3418910 222 15051738633072085314
34797466 226 16487258790131026692
3633792 109 17677044646893603667
4017518 198 13839986599322442288
4098825 35 16660635228999956663
474113 269 16588853583128258666
484989 97 18262525926252791859
4938544 92 16271376202014812249
5104073 3 18057333785970253266
58260988 393 14045752499747719546
59682541 35 17561074839671200202
59755656 520 17095520742777556035
6126387 218 17203607065684273841
6394761 36 13984659239687752854
9663363 56 18060695092591707605
9953998 17 15626223525042872815
9962374 69 16988268902910671237

> <PUBCHEM_SHAPE_MULTIPOLES>
601.99
23.13
1.92
1.4
2.19
0.59
-0.24
-9.96
-0.26
0.31
0.43
-0.12
0.06
-0.58

> <PUBCHEM_SHAPE_SELFOVERLAP>
1326.865

> <PUBCHEM_SHAPE_VOLUME>
325.3

> <PUBCHEM_COORDINATE_TYPE>
2
5
10

$$$$
