7156241
  -OEChem-12032416213D

 57 61  0     1  0  0  0  0  0999 V2000
   -0.4592    2.6543    1.4126 O   0  0  0  0  0  0  0  0  0  0  0  0
   -4.0031   -0.9243    2.5945 O   0  0  0  0  0  0  0  0  0  0  0  0
    2.1336   -0.4967   -1.1679 O   0  0  0  0  0  0  0  0  0  0  0  0
   -4.5980    0.0105    0.5337 N   0  0  0  0  0  0  0  0  0  0  0  0
   -2.1939    2.0059   -0.0122 N   0  0  0  0  0  0  0  0  0  0  0  0
    1.4688    1.4801   -0.1544 N   0  0  0  0  0  0  0  0  0  0  0  0
    3.6623    0.8287    0.0217 N   0  0  0  0  0  0  0  0  0  0  0  0
    9.3810    0.7866    1.4700 N   0  0  0  0  0  0  0  0  0  0  0  0
   -4.6567    2.4981    0.4920 C   0  0  1  0  0  0  0  0  0  0  0  0
   -4.0479    1.2549   -1.5438 C   0  0  2  0  0  0  0  0  0  0  0  0
   -4.8273    2.4613   -1.0228 C   0  0  0  0  0  0  0  0  0  0  0  0
   -5.2008    1.2046    1.1252 C   0  0  0  0  0  0  0  0  0  0  0  0
   -3.1743    2.7209    0.8170 C   0  0  0  0  0  0  0  0  0  0  0  0
   -4.6304   -0.0376   -0.9371 C   0  0  0  0  0  0  0  0  0  0  0  0
   -2.5755    1.3646   -1.1952 C   0  0  0  0  0  0  0  0  0  0  0  0
   -1.6473    0.8169   -1.9976 C   0  0  0  0  0  0  0  0  0  0  0  0
   -0.8452    2.0866    0.3898 C   0  0  0  0  0  0  0  0  0  0  0  0
   -4.0331   -0.9590    1.3655 C   0  0  0  0  0  0  0  0  0  0  0  0
    0.1550    1.4400   -0.5178 C   0  0  0  0  0  0  0  0  0  0  0  0
   -0.2554    0.8561   -1.6486 C   0  0  0  0  0  0  0  0  0  0  0  0
   -3.3975   -2.1201    0.7344 C   0  0  0  0  0  0  0  0  0  0  0  0
   -2.0440   -2.0779    0.4095 C   0  0  0  0  0  0  0  0  0  0  0  0
   -4.1507   -3.2594    0.4627 C   0  0  0  0  0  0  0  0  0  0  0  0
    2.4069    0.4986   -0.5003 C   0  0  0  0  0  0  0  0  0  0  0  0
   -1.4397   -3.1823   -0.1911 C   0  0  0  0  0  0  0  0  0  0  0  0
   -3.5463   -4.3639   -0.1378 C   0  0  0  0  0  0  0  0  0  0  0  0
   -2.1909   -4.3253   -0.4647 C   0  0  0  0  0  0  0  0  0  0  0  0
    4.8715    0.1050   -0.0998 C   0  0  0  0  0  0  0  0  0  0  0  0
    6.0215    0.6000    0.4931 C   0  0  0  0  0  0  0  0  0  0  0  0
    4.8809   -1.0844   -0.8101 C   0  0  0  0  0  0  0  0  0  0  0  0
    7.2138   -0.1139    0.3723 C   0  0  0  0  0  0  0  0  0  0  0  0
    6.0732   -1.7985   -0.9309 C   0  0  0  0  0  0  0  0  0  0  0  0
    7.2395   -1.3131   -0.3397 C   0  0  0  0  0  0  0  0  0  0  0  0
    8.4090    0.3828    0.9777 C   0  0  0  0  0  0  0  0  0  0  0  0
   -5.2303    3.3364    0.9064 H   0  0  0  0  0  0  0  0  0  0  0  0
   -4.1699    1.2126   -2.6339 H   0  0  0  0  0  0  0  0  0  0  0  0
   -4.4574    3.3895   -1.4762 H   0  0  0  0  0  0  0  0  0  0  0  0
   -5.8884    2.3753   -1.2866 H   0  0  0  0  0  0  0  0  0  0  0  0
   -5.0468    1.2202    2.2094 H   0  0  0  0  0  0  0  0  0  0  0  0
   -6.2818    1.1320    0.9543 H   0  0  0  0  0  0  0  0  0  0  0  0
   -2.9442    3.7877    0.6908 H   0  0  0  0  0  0  0  0  0  0  0  0
   -2.9738    2.4925    1.8714 H   0  0  0  0  0  0  0  0  0  0  0  0
   -5.6828   -0.1472   -1.2268 H   0  0  0  0  0  0  0  0  0  0  0  0
   -4.1032   -0.9115   -1.3275 H   0  0  0  0  0  0  0  0  0  0  0  0
   -1.9200    0.3050   -2.9147 H   0  0  0  0  0  0  0  0  0  0  0  0
    0.4109    0.4193   -2.3826 H   0  0  0  0  0  0  0  0  0  0  0  0
    1.7188    2.1151    0.5990 H   0  0  0  0  0  0  0  0  0  0  0  0
   -1.4479   -1.1967    0.6282 H   0  0  0  0  0  0  0  0  0  0  0  0
   -5.2076   -3.2991    0.7129 H   0  0  0  0  0  0  0  0  0  0  0  0
   -0.3839   -3.1522   -0.4440 H   0  0  0  0  0  0  0  0  0  0  0  0
   -4.1313   -5.2538   -0.3512 H   0  0  0  0  0  0  0  0  0  0  0  0
   -1.7203   -5.1852   -0.9321 H   0  0  0  0  0  0  0  0  0  0  0  0
    3.7208    1.6948    0.5516 H   0  0  0  0  0  0  0  0  0  0  0  0
    5.9967    1.5357    1.0474 H   0  0  0  0  0  0  0  0  0  0  0  0
    4.0230   -1.5256   -1.2953 H   0  0  0  0  0  0  0  0  0  0  0  0
    6.0945   -2.7324   -1.4850 H   0  0  0  0  0  0  0  0  0  0  0  0
    8.1611   -1.8811   -0.4427 H   0  0  0  0  0  0  0  0  0  0  0  0
  1 17  2  0  0  0  0
  2 18  2  0  0  0  0
  3 24  2  0  0  0  0
  4 12  1  0  0  0  0
  4 14  1  0  0  0  0
  4 18  1  0  0  0  0
  5 13  1  0  0  0  0
  5 15  1  0  0  0  0
  5 17  1  0  0  0  0
  6 19  1  0  0  0  0
  6 24  1  0  0  0  0
  6 47  1  0  0  0  0
  7 24  1  0  0  0  0
  7 28  1  0  0  0  0
  7 53  1  0  0  0  0
  8 34  3  0  0  0  0
  9 11  1  0  0  0  0
  9 12  1  0  0  0  0
  9 13  1  0  0  0  0
  9 35  1  0  0  0  0
 10 11  1  0  0  0  0
 10 14  1  0  0  0  0
 10 15  1  0  0  0  0
 10 36  1  0  0  0  0
 11 37  1  0  0  0  0
 11 38  1  0  0  0  0
 12 39  1  0  0  0  0
 12 40  1  0  0  0  0
 13 41  1  0  0  0  0
 13 42  1  0  0  0  0
 14 43  1  0  0  0  0
 14 44  1  0  0  0  0
 15 16  2  0  0  0  0
 16 20  1  0  0  0  0
 16 45  1  0  0  0  0
 17 19  1  0  0  0  0
 18 21  1  0  0  0  0
 19 20  2  0  0  0  0
 20 46  1  0  0  0  0
 21 22  2  0  0  0  0
 21 23  1  0  0  0  0
 22 25  1  0  0  0  0
 22 48  1  0  0  0  0
 23 26  2  0  0  0  0
 23 49  1  0  0  0  0
 25 27  2  0  0  0  0
 25 50  1  0  0  0  0
 26 27  1  0  0  0  0
 26 51  1  0  0  0  0
 27 52  1  0  0  0  0
 28 29  1  0  0  0  0
 28 30  2  0  0  0  0
 29 31  2  0  0  0  0
 29 54  1  0  0  0  0
 30 32  1  0  0  0  0
 30 55  1  0  0  0  0
 31 33  1  0  0  0  0
 31 34  1  0  0  0  0
 32 33  2  0  0  0  0
 32 56  1  0  0  0  0
 33 57  1  0  0  0  0
M  END
> <PUBCHEM_COMPOUND_CID>
7156241

> <PUBCHEM_CONFORMER_RMSD>
1

> <PUBCHEM_CONFORMER_DIVERSEORDER>
1
36
31
6
27
35
41
22
19
10
32
12
39
24
38
7
5
21
9
43
30
20
37
33
34
42
29
23
8
28
40
11
26
25
17
15
4
45
3
14
18
44
13
2
16

> <PUBCHEM_MMFF94_PARTIAL_CHARGES>
45
1 -0.57
10 0.14
12 0.3
13 0.3
14 0.3
15 -0.03
16 -0.15
17 0.62
18 0.54
19 0.12
2 -0.57
20 -0.15
21 0.09
22 -0.15
23 -0.15
24 0.69
25 -0.15
26 -0.15
27 -0.15
28 0.12
29 -0.15
3 -0.57
30 -0.15
31 0.07
32 -0.15
33 -0.15
34 0.48
4 -0.66
45 0.15
46 0.15
47 0.37
48 0.15
49 0.15
5 -0.47
50 0.15
51 0.15
52 0.15
53 0.37
54 0.15
55 0.15
56 0.15
57 0.15
6 -0.54
7 -0.55
8 -0.56

> <PUBCHEM_EFFECTIVE_ROTOR_COUNT>
7

> <PUBCHEM_PHARMACOPHORE_FEATURES>
11
1 1 acceptor
1 2 acceptor
1 3 acceptor
1 6 donor
1 7 donor
1 8 acceptor
6 21 22 23 25 26 27 rings
6 28 29 30 31 32 33 rings
6 4 9 10 11 12 14 rings
6 5 15 16 17 19 20 rings
6 5 9 10 11 13 15 rings

> <PUBCHEM_HEAVY_ATOM_COUNT>
34

> <PUBCHEM_ATOM_DEF_STEREO_COUNT>
2

> <PUBCHEM_ATOM_UDEF_STEREO_COUNT>
0

> <PUBCHEM_BOND_DEF_STEREO_COUNT>
0

> <PUBCHEM_BOND_UDEF_STEREO_COUNT>
0

> <PUBCHEM_ISOTOPIC_ATOM_COUNT>
0

> <PUBCHEM_COMPONENT_COUNT>
1

> <PUBCHEM_CACTVS_TAUTO_COUNT>
3

> <PUBCHEM_CONFORMER_ID>
006D321100000001

> <PUBCHEM_MMFF94_ENERGY>
101.2147

> <PUBCHEM_FEATURE_SELFOVERLAP>
57.456

> <PUBCHEM_SHAPE_FINGERPRINT>
10391435 84 18410285935339504832
10483366 6 18338503249869975999
11135609 187 18191861220516495757
11135609 99 18115862994285531882
11315181 36 17989199326761964949
11524674 6 18411981321944918559
12633257 1 17913802619590329849
12643181 29 18335413565400701898
12712778 12 18409455803501553239
14461889 52 18272643542600053122
14659021 117 18343013402878246901
14844126 61 18336551598811864659
14856354 85 18341897411012888628
14866123 147 18409735088488508963
14904385 31 18271517603569525850
14950920 106 17774172321457175569
15021287 119 17022907865075385940
15183329 4 15357698600394416226
15328684 2 13326578389818843566
15348495 7 18343018921922109480
15361156 5 17894925052744780524
19611394 137 18201439207986907544
23559900 14 18411975871431505328
244849 19 17702365416555703298
249057 3 17895193281884634309
3383291 50 18411139156336947563
397830 11 18269264829046028744
4073 2 18413667999047589662
44802255 64 17023170588757658071
4616759 239 18130780149525782394
484985 159 18335132133643157615
4874694 18 18340194208020422942
5080951 261 18041545997438867246
68570916 9 18114746040552454076
9953998 17 18408602548387926192

> <PUBCHEM_SHAPE_MULTIPOLES>
657.19
19.8
4.32
1.55
57.45
4.85
-0.11
-0.1
-5.79
-8.05
-0.13
-1.02
-0.36
1.65

> <PUBCHEM_SHAPE_SELFOVERLAP>
1447.771

> <PUBCHEM_SHAPE_VOLUME>
343.9

> <PUBCHEM_COORDINATE_TYPE>
2
5
10

$$$$
