7144272
  -OEChem-12032416233D

 52 56  0     1  0  0  0  0  0999 V2000
   -5.8991    1.6855   -1.0827 Cl  0  0  0  0  0  0  0  0  0  0  0  0
    2.1110   -3.2912    2.3936 O   0  0  0  0  0  0  0  0  0  0  0  0
    1.8850    2.0518    0.2955 O   0  0  0  0  0  0  0  0  0  0  0  0
    2.1479    3.6539    2.9443 O   0  0  0  0  0  0  0  0  0  0  0  0
    2.0402   -0.1114   -1.4460 N   0  0  2  0  0  0  0  0  0  0  0  0
    1.0151   -2.3792    0.5357 N   0  0  0  0  0  0  0  0  0  0  0  0
    1.9795   -2.5819   -1.8332 C   0  0  1  0  0  0  0  0  0  0  0  0
   -0.1186   -1.3756   -1.4694 C   0  0  2  0  0  0  0  0  0  0  0  0
    0.5253   -2.5068   -2.2673 C   0  0  0  0  0  0  0  0  0  0  0  0
    2.6924   -1.2436   -2.1136 C   0  0  0  0  0  0  0  0  0  0  0  0
    0.6109   -0.0471   -1.7817 C   0  0  0  0  0  0  0  0  0  0  0  0
    2.0252   -2.9704   -0.3535 C   0  0  0  0  0  0  0  0  0  0  0  0
   -0.0939   -1.6701    0.0332 C   0  0  0  0  0  0  0  0  0  0  0  0
    2.7109    1.1452   -1.7708 C   0  0  0  0  0  0  0  0  0  0  0  0
   -1.0762   -1.2627    0.8784 C   0  0  0  0  0  0  0  0  0  0  0  0
    1.1712   -2.6645    1.9037 C   0  0  0  0  0  0  0  0  0  0  0  0
   -0.9474   -1.5348    2.2974 C   0  0  0  0  0  0  0  0  0  0  0  0
    0.1028   -2.1789    2.8062 C   0  0  0  0  0  0  0  0  0  0  0  0
    2.1088    2.2932   -1.0076 C   0  0  0  0  0  0  0  0  0  0  0  0
   -2.2683   -0.5338    0.3932 C   0  0  0  0  0  0  0  0  0  0  0  0
    1.7437    3.5394   -1.3835 C   0  0  0  0  0  0  0  0  0  0  0  0
   -2.2442    0.8552    0.3149 C   0  0  0  0  0  0  0  0  0  0  0  0
   -3.4062   -1.2421    0.0189 C   0  0  0  0  0  0  0  0  0  0  0  0
    1.3483    3.1998    0.7856 C   0  0  0  0  0  0  0  0  0  0  0  0
    1.2407    4.1454   -0.2076 C   0  0  0  0  0  0  0  0  0  0  0  0
   -3.3687    1.5427   -0.1421 C   0  0  0  0  0  0  0  0  0  0  0  0
   -4.5306   -0.5548   -0.4381 C   0  0  0  0  0  0  0  0  0  0  0  0
   -4.5119    0.8376   -0.5186 C   0  0  0  0  0  0  0  0  0  0  0  0
    1.0062    3.1993    2.2149 C   0  0  0  0  0  0  0  0  0  0  0  0
    2.4958   -3.3585   -2.4114 H   0  0  0  0  0  0  0  0  0  0  0  0
   -1.1503   -1.2890   -1.8285 H   0  0  0  0  0  0  0  0  0  0  0  0
    0.0112   -3.4587   -2.0850 H   0  0  0  0  0  0  0  0  0  0  0  0
    0.4564   -2.3049   -3.3432 H   0  0  0  0  0  0  0  0  0  0  0  0
    3.7323   -1.3209   -1.7724 H   0  0  0  0  0  0  0  0  0  0  0  0
    2.7235   -1.0807   -3.1995 H   0  0  0  0  0  0  0  0  0  0  0  0
    0.4824    0.1813   -2.8492 H   0  0  0  0  0  0  0  0  0  0  0  0
    0.1087    0.7525   -1.2313 H   0  0  0  0  0  0  0  0  0  0  0  0
    1.8835   -4.0575   -0.2761 H   0  0  0  0  0  0  0  0  0  0  0  0
    3.0198   -2.7689    0.0645 H   0  0  0  0  0  0  0  0  0  0  0  0
    2.6667    1.3550   -2.8474 H   0  0  0  0  0  0  0  0  0  0  0  0
    3.7706    1.0870   -1.4921 H   0  0  0  0  0  0  0  0  0  0  0  0
   -1.7338   -1.1874    2.9610 H   0  0  0  0  0  0  0  0  0  0  0  0
    0.1932   -2.3734    3.8682 H   0  0  0  0  0  0  0  0  0  0  0  0
    1.8194    3.9769   -2.3684 H   0  0  0  0  0  0  0  0  0  0  0  0
   -1.3645    1.4193    0.6128 H   0  0  0  0  0  0  0  0  0  0  0  0
   -3.4347   -2.3274    0.0759 H   0  0  0  0  0  0  0  0  0  0  0  0
    0.8489    5.1468   -0.1000 H   0  0  0  0  0  0  0  0  0  0  0  0
   -3.3400    2.6278   -0.1979 H   0  0  0  0  0  0  0  0  0  0  0  0
   -5.4143   -1.1173   -0.7283 H   0  0  0  0  0  0  0  0  0  0  0  0
    0.1761    3.8807    2.4231 H   0  0  0  0  0  0  0  0  0  0  0  0
    0.7315    2.2025    2.5736 H   0  0  0  0  0  0  0  0  0  0  0  0
    2.8482    2.9871    2.8375 H   0  0  0  0  0  0  0  0  0  0  0  0
  1 28  1  0  0  0  0
  2 16  2  0  0  0  0
  3 19  1  0  0  0  0
  3 24  1  0  0  0  0
  4 29  1  0  0  0  0
  4 52  1  0  0  0  0
  5 10  1  0  0  0  0
  5 11  1  0  0  0  0
  5 14  1  0  0  0  0
  6 12  1  0  0  0  0
  6 13  1  0  0  0  0
  6 16  1  0  0  0  0
  7  9  1  0  0  0  0
  7 10  1  0  0  0  0
  7 12  1  0  0  0  0
  7 30  1  0  0  0  0
  8  9  1  0  0  0  0
  8 11  1  0  0  0  0
  8 13  1  0  0  0  0
  8 31  1  0  0  0  0
  9 32  1  0  0  0  0
  9 33  1  0  0  0  0
 10 34  1  0  0  0  0
 10 35  1  0  0  0  0
 11 36  1  0  0  0  0
 11 37  1  0  0  0  0
 12 38  1  0  0  0  0
 12 39  1  0  0  0  0
 13 15  2  0  0  0  0
 14 19  1  0  0  0  0
 14 40  1  0  0  0  0
 14 41  1  0  0  0  0
 15 17  1  0  0  0  0
 15 20  1  0  0  0  0
 16 18  1  0  0  0  0
 17 18  2  0  0  0  0
 17 42  1  0  0  0  0
 18 43  1  0  0  0  0
 19 21  2  0  0  0  0
 20 22  2  0  0  0  0
 20 23  1  0  0  0  0
 21 25  1  0  0  0  0
 21 44  1  0  0  0  0
 22 26  1  0  0  0  0
 22 45  1  0  0  0  0
 23 27  2  0  0  0  0
 23 46  1  0  0  0  0
 24 25  2  0  0  0  0
 24 29  1  0  0  0  0
 25 47  1  0  0  0  0
 26 28  2  0  0  0  0
 26 48  1  0  0  0  0
 27 28  1  0  0  0  0
 27 49  1  0  0  0  0
 29 50  1  0  0  0  0
 29 51  1  0  0  0  0
M  END
> <PUBCHEM_COMPOUND_CID>
7144272

> <PUBCHEM_CONFORMER_RMSD>
0.8

> <PUBCHEM_CONFORMER_DIVERSEORDER>
1
6
8
2
12
9
5
7
10
11
4
3

> <PUBCHEM_MMFF94_PARTIAL_CHARGES>
36
1 -0.18
10 0.27
11 0.27
12 0.3
13 -0.03
14 0.45
15 -0.03
16 0.62
17 -0.15
18 -0.14
19 -0.04
2 -0.57
20 0.03
21 -0.15
22 -0.15
23 -0.15
24 -0.04
25 -0.15
26 -0.15
27 -0.15
28 0.18
29 0.46
3 -0.28
4 -0.68
42 0.15
43 0.15
44 0.15
45 0.15
46 0.15
47 0.15
48 0.15
49 0.15
5 -0.81
52 0.4
6 -0.47
8 0.14

> <PUBCHEM_EFFECTIVE_ROTOR_COUNT>
5

> <PUBCHEM_PHARMACOPHORE_FEATURES>
10
1 2 acceptor
1 3 acceptor
1 4 acceptor
1 4 donor
1 5 cation
5 3 19 21 24 25 rings
6 20 22 23 26 27 28 rings
6 5 7 8 9 10 11 rings
6 6 13 15 16 17 18 rings
6 6 7 8 9 12 13 rings

> <PUBCHEM_HEAVY_ATOM_COUNT>
29

> <PUBCHEM_ATOM_DEF_STEREO_COUNT>
2

> <PUBCHEM_ATOM_UDEF_STEREO_COUNT>
0

> <PUBCHEM_BOND_DEF_STEREO_COUNT>
0

> <PUBCHEM_BOND_UDEF_STEREO_COUNT>
0

> <PUBCHEM_ISOTOPIC_ATOM_COUNT>
0

> <PUBCHEM_COMPONENT_COUNT>
1

> <PUBCHEM_CACTVS_TAUTO_COUNT>
1

> <PUBCHEM_CONFORMER_ID>
006D035000000001

> <PUBCHEM_MMFF94_ENERGY>
67.0601

> <PUBCHEM_FEATURE_SELFOVERLAP>
52.297

> <PUBCHEM_SHAPE_FINGERPRINT>
10165383 225 16686591666332692676
10764073 3 14207798506174583535
11582403 64 18124582334991251283
11725454 13 18192717966942720439
12156800 1 15073367998032792164
12160290 23 16970558712038605809
12788726 201 17687481065140600806
13135754 10 13121323804759043076
13294875 104 18113900446335968079
13583140 156 11531057355891650063
14114207 22 17688255323364410104
14468879 13 17692535928300106625
17974551 9 17460029811135885680
17980427 23 17983257561809467375
18681886 176 18272370832707959103
20567600 347 18194672898917215973
20600515 1 17835223563862614281
20905425 154 18192705657329040652
21860390 5 18337938018148956303
23419403 2 17689482477262451099
238 59 18056777617633054989
35225 105 17248349731774005808
469060 322 15436228748744762658
513532 50 18268127817758215013
5895379 119 17840307714462107925
84936 182 18113625555934401895
9981440 41 17979641456717017692

> <PUBCHEM_SHAPE_MULTIPOLES>
571.11
6.49
5.44
2.82
13.08
4.52
-1.59
1.75
3.17
-5.26
-2.21
-2.17
-0.71
0.84

> <PUBCHEM_SHAPE_SELFOVERLAP>
1249.739

> <PUBCHEM_SHAPE_VOLUME>
309.1

> <PUBCHEM_COORDINATE_TYPE>
2
5
10

$$$$
