45360953
  -OEChem-12032416283D

 60 63  0     1  0  0  0  0  0999 V2000
    8.0815   -1.1543    1.3592 S   0  0  0  0  0  0  0  0  0  0  0  0
    3.2083   -1.3946   -1.3805 O   0  0  0  0  0  0  0  0  0  0  0  0
   -3.4670    0.6227   -2.2025 O   0  0  0  0  0  0  0  0  0  0  0  0
    1.0980    1.5663   -0.0506 N   0  0  1  0  0  0  0  0  0  0  0  0
    4.4727    0.2180    0.3784 N   0  0  1  0  0  0  0  0  0  0  0  0
    1.1842   -1.3050   -0.3171 N   0  0  0  0  0  0  0  0  0  0  0  0
   -4.8538    0.1077   -0.4135 N   0  0  0  0  0  0  0  0  0  0  0  0
    2.3560    1.3612    0.7010 C   0  0  1  0  0  0  0  0  0  0  0  0
    3.0418   -0.0349    0.6315 C   0  0  1  0  0  0  0  0  0  0  0  0
    3.4989    2.3014    0.2750 C   0  0  0  0  0  0  0  0  0  0  0  0
    4.7411    1.5954    0.7759 C   0  0  0  0  0  0  0  0  0  0  0  0
   -0.0397    0.7221    0.4098 C   0  0  2  0  0  0  0  0  0  0  0  0
    2.5144   -0.9597   -0.4625 C   0  0  0  0  0  0  0  0  0  0  0  0
    0.3203   -0.7473    0.7045 C   0  0  0  0  0  0  0  0  0  0  0  0
    5.3540   -0.7284    1.0502 C   0  0  0  0  0  0  0  0  0  0  0  0
   -1.1705    0.7211   -0.6403 C   0  0  0  0  0  0  0  0  0  0  0  0
    0.7121    2.9877   -0.0478 C   0  0  0  0  0  0  0  0  0  0  0  0
   -2.5052    0.4046    0.0087 C   0  0  0  0  0  0  0  0  0  0  0  0
    6.7076   -0.7923    0.4036 C   0  0  0  0  0  0  0  0  0  0  0  0
   -3.6337    0.3970   -1.0068 C   0  0  0  0  0  0  0  0  0  0  0  0
    7.0360   -0.5920   -0.9191 C   0  0  0  0  0  0  0  0  0  0  0  0
    8.4343   -0.7381   -1.1511 C   0  0  0  0  0  0  0  0  0  0  0  0
    9.1210   -1.0441    0.0030 C   0  0  0  0  0  0  0  0  0  0  0  0
   -6.0822    0.0424   -1.1691 C   0  0  0  0  0  0  0  0  0  0  0  0
   -7.2605   -0.2868   -0.2987 C   0  0  0  0  0  0  0  0  0  0  0  0
   -7.6239   -1.6173   -0.0912 C   0  0  0  0  0  0  0  0  0  0  0  0
   -7.9915    0.7378    0.3026 C   0  0  0  0  0  0  0  0  0  0  0  0
   -8.7186   -1.9235    0.7175 C   0  0  0  0  0  0  0  0  0  0  0  0
   -9.0861    0.4318    1.1112 C   0  0  0  0  0  0  0  0  0  0  0  0
   -9.4496   -0.8990    1.3186 C   0  0  0  0  0  0  0  0  0  0  0  0
    2.1598    1.5712    1.7641 H   0  0  0  0  0  0  0  0  0  0  0  0
    2.9167   -0.5368    1.6003 H   0  0  0  0  0  0  0  0  0  0  0  0
    3.5394    2.4037   -0.8177 H   0  0  0  0  0  0  0  0  0  0  0  0
    3.4055    3.3001    0.7141 H   0  0  0  0  0  0  0  0  0  0  0  0
    4.8244    1.7079    1.8644 H   0  0  0  0  0  0  0  0  0  0  0  0
    5.6438    1.9993    0.3073 H   0  0  0  0  0  0  0  0  0  0  0  0
   -0.4248    1.1485    1.3469 H   0  0  0  0  0  0  0  0  0  0  0  0
   -0.5578   -1.3960    0.7616 H   0  0  0  0  0  0  0  0  0  0  0  0
    0.8151   -0.8296    1.6776 H   0  0  0  0  0  0  0  0  0  0  0  0
    4.9367   -1.7420    0.9688 H   0  0  0  0  0  0  0  0  0  0  0  0
    5.4253   -0.5131    2.1244 H   0  0  0  0  0  0  0  0  0  0  0  0
   -1.2793    1.6785   -1.1553 H   0  0  0  0  0  0  0  0  0  0  0  0
   -0.9531   -0.0004   -1.4391 H   0  0  0  0  0  0  0  0  0  0  0  0
    0.7766   -1.9371   -0.9994 H   0  0  0  0  0  0  0  0  0  0  0  0
    0.5788    3.3627    0.9738 H   0  0  0  0  0  0  0  0  0  0  0  0
    1.4696    3.6033   -0.5437 H   0  0  0  0  0  0  0  0  0  0  0  0
   -0.2056    3.2006   -0.5987 H   0  0  0  0  0  0  0  0  0  0  0  0
   -2.4987   -0.5742    0.4980 H   0  0  0  0  0  0  0  0  0  0  0  0
   -2.7433    1.1586    0.7690 H   0  0  0  0  0  0  0  0  0  0  0  0
    6.3171   -0.3565   -1.6937 H   0  0  0  0  0  0  0  0  0  0  0  0
    8.9118   -0.6254   -2.1157 H   0  0  0  0  0  0  0  0  0  0  0  0
   10.1835   -1.2085    0.1146 H   0  0  0  0  0  0  0  0  0  0  0  0
   -4.8858   -0.0637    0.5880 H   0  0  0  0  0  0  0  0  0  0  0  0
   -5.9605   -0.7068   -1.9609 H   0  0  0  0  0  0  0  0  0  0  0  0
   -6.2274    1.0048   -1.6747 H   0  0  0  0  0  0  0  0  0  0  0  0
   -7.0611   -2.4243   -0.5527 H   0  0  0  0  0  0  0  0  0  0  0  0
   -7.7171    1.7782    0.1498 H   0  0  0  0  0  0  0  0  0  0  0  0
   -9.0013   -2.9595    0.8794 H   0  0  0  0  0  0  0  0  0  0  0  0
   -9.6551    1.2294    1.5797 H   0  0  0  0  0  0  0  0  0  0  0  0
  -10.3018   -1.1372    1.9484 H   0  0  0  0  0  0  0  0  0  0  0  0
  1 19  1  0  0  0  0
  1 23  1  0  0  0  0
  2 13  2  0  0  0  0
  3 20  2  0  0  0  0
  4  8  1  0  0  0  0
  4 12  1  0  0  0  0
  4 17  1  0  0  0  0
  5  9  1  0  0  0  0
  5 11  1  0  0  0  0
  5 15  1  0  0  0  0
  6 13  1  0  0  0  0
  6 14  1  0  0  0  0
  6 44  1  0  0  0  0
  7 20  1  0  0  0  0
  7 24  1  0  0  0  0
  7 53  1  0  0  0  0
  8  9  1  0  0  0  0
  8 10  1  0  0  0  0
  8 31  1  0  0  0  0
  9 13  1  0  0  0  0
  9 32  1  0  0  0  0
 10 11  1  0  0  0  0
 10 33  1  0  0  0  0
 10 34  1  0  0  0  0
 11 35  1  0  0  0  0
 11 36  1  0  0  0  0
 12 14  1  0  0  0  0
 12 16  1  0  0  0  0
 12 37  1  0  0  0  0
 14 38  1  0  0  0  0
 14 39  1  0  0  0  0
 15 19  1  0  0  0  0
 15 40  1  0  0  0  0
 15 41  1  0  0  0  0
 16 18  1  0  0  0  0
 16 42  1  0  0  0  0
 16 43  1  0  0  0  0
 17 45  1  0  0  0  0
 17 46  1  0  0  0  0
 17 47  1  0  0  0  0
 18 20  1  0  0  0  0
 18 48  1  0  0  0  0
 18 49  1  0  0  0  0
 19 21  2  0  0  0  0
 21 22  1  0  0  0  0
 21 50  1  0  0  0  0
 22 23  2  0  0  0  0
 22 51  1  0  0  0  0
 23 52  1  0  0  0  0
 24 25  1  0  0  0  0
 24 54  1  0  0  0  0
 24 55  1  0  0  0  0
 25 26  2  0  0  0  0
 25 27  1  0  0  0  0
 26 28  1  0  0  0  0
 26 56  1  0  0  0  0
 27 29  2  0  0  0  0
 27 57  1  0  0  0  0
 28 30  2  0  0  0  0
 28 58  1  0  0  0  0
 29 30  1  0  0  0  0
 29 59  1  0  0  0  0
 30 60  1  0  0  0  0
M  END
> <PUBCHEM_COMPOUND_CID>
45360953

> <PUBCHEM_CONFORMER_RMSD>
1.4

> <PUBCHEM_CONFORMER_DIVERSEORDER>
2
7
41
92
56
103
1
63
102
43
58
52
82
99
25
34
39
42
22
23
95
81
16
93
89
33
18
83
77
59
73
30
21
101
100
53
96
55
48
91
86
46
32
24
78
94
69
15
79
97
66
61
98
68
65
84
12
26
5
88
8
36
85
47
90
60
64
6
37
67
14
11
38
70
13
4
71
57
72
51
17
87
40
27
19
74
20
76
54
50
44
29
3
28
9
10
45
35
62
49
80
31
75

> <PUBCHEM_MMFF94_PARTIAL_CHARGES>
38
1 -0.08
11 0.27
12 0.27
13 0.57
14 0.3
15 0.45
17 0.27
18 0.06
19 -0.14
2 -0.57
20 0.57
21 -0.15
22 -0.15
23 -0.11
24 0.44
25 -0.14
26 -0.15
27 -0.15
28 -0.15
29 -0.15
3 -0.57
30 -0.15
4 -0.81
44 0.37
5 -0.81
50 0.15
51 0.15
52 0.15
53 0.37
56 0.15
57 0.15
58 0.15
59 0.15
6 -0.73
60 0.15
7 -0.73
8 0.27
9 0.33

> <PUBCHEM_EFFECTIVE_ROTOR_COUNT>
9.4

> <PUBCHEM_PHARMACOPHORE_FEATURES>
10
1 2 acceptor
1 3 acceptor
1 4 cation
1 5 cation
1 6 donor
1 7 donor
5 1 19 21 22 23 rings
5 5 8 9 10 11 rings
6 25 26 27 28 29 30 rings
7 4 6 8 9 12 13 14 rings

> <PUBCHEM_HEAVY_ATOM_COUNT>
30

> <PUBCHEM_ATOM_DEF_STEREO_COUNT>
3

> <PUBCHEM_ATOM_UDEF_STEREO_COUNT>
0

> <PUBCHEM_BOND_DEF_STEREO_COUNT>
0

> <PUBCHEM_BOND_UDEF_STEREO_COUNT>
0

> <PUBCHEM_ISOTOPIC_ATOM_COUNT>
0

> <PUBCHEM_COMPONENT_COUNT>
1

> <PUBCHEM_CACTVS_TAUTO_COUNT>
6

> <PUBCHEM_CONFORMER_ID>
02B4273900000002

> <PUBCHEM_MMFF94_ENERGY>
70.4368

> <PUBCHEM_FEATURE_SELFOVERLAP>
50.783

> <PUBCHEM_SHAPE_FINGERPRINT>
10076449 9 17822012004063301325
10299344 5 18259704502047757077
10533779 1 16055492561958781265
10533779 47 16988854860070694750
11135926 11 17917982863746108543
11315181 36 12107783000898451557
11408170 108 17131278953115715118
12089408 11 14779259791706398933
13553643 46 14476961181784698723
14251764 18 10809341126741776159
14251764 46 17775284958600128234
14344974 52 16443071629903190996
14444916 359 18407758140738286271
15142383 8 12319454402954626306
15461852 350 16660361472406498415
15840311 113 15574722404793390542
1754911 235 13551188888197934991
1818759 1 18412546504875261866
19315958 150 15339123437647835020
20105231 36 18408603660599995247
21049683 271 17967250897049096036
21150785 3 16081087065394262654
21267235 1 18412261731316292580
21403212 168 9439401324728593308
21585481 151 18408887369587174691
21781051 124 18259988201575213546
21792961 116 17748828480006105400
22224240 67 8790881891481057916
232437 2 18040155106381657938
246663 6 18334012791760452827
249057 3 18343015614227598918
3178227 256 18343862217048995670
4093350 32 16415484826573927503
45377200 153 16660654002982341091
504579 68 13551194394414327131
5283156 175 16415481541123976506
54039377 194 18408041810205129117
5937810 71 7853310748051579087
67123 10 16443066092746379870
9995097 26 17167583799817860699

> <PUBCHEM_SHAPE_MULTIPOLES>
589.57
33.51
1.96
1.29
35.58
0.99
0.24
-17.12
-5.94
-0.6
-0.23
0.16
-0.14
0.97

> <PUBCHEM_SHAPE_SELFOVERLAP>
1230.62

> <PUBCHEM_SHAPE_VOLUME>
334.5

> <PUBCHEM_COORDINATE_TYPE>
2
5
10

$$$$
