40780671
  -OEChem-12032416173D

 67 71  0     1  0  0  0  0  0999 V2000
    3.8640   -4.3324   -0.2328 S   0  0  0  0  0  0  0  0  0  0  0  0
   -9.3963   -0.9514   -0.6071 F   0  0  0  0  0  0  0  0  0  0  0  0
    2.2749    1.3782   -0.0833 O   0  0  0  0  0  0  0  0  0  0  0  0
    2.0982    3.3048   -2.4309 O   0  0  0  0  0  0  0  0  0  0  0  0
    4.2964    4.1907   -1.0340 O   0  0  0  0  0  0  0  0  0  0  0  0
    0.5839    0.7379    2.2400 O   0  0  0  0  0  0  0  0  0  0  0  0
   -1.3844    1.0303    1.0401 N   0  0  0  0  0  0  0  0  0  0  0  0
   -4.1245    0.3138    0.4411 N   0  0  0  0  0  0  0  0  0  0  0  0
    4.7819    0.1171    0.8230 N   0  0  0  0  0  0  0  0  0  0  0  0
    5.9418   -0.3583    0.3413 N   0  0  0  0  0  0  0  0  0  0  0  0
    5.9038   -1.6813    0.4562 N   0  0  0  0  0  0  0  0  0  0  0  0
    1.2363    2.3228   -0.4298 C   0  0  2  0  0  0  0  0  0  0  0  0
    1.9406    3.5341   -1.0312 C   0  0  1  0  0  0  0  0  0  0  0  0
    3.2863    3.4931   -0.3371 C   0  0  1  0  0  0  0  0  0  0  0  0
    3.5568    1.9988   -0.2853 C   0  0  1  0  0  0  0  0  0  0  0  0
    0.4634    2.6521    0.8400 C   0  0  0  0  0  0  0  0  0  0  0  0
    4.5015    1.5964    0.8331 C   0  0  0  0  0  0  0  0  0  0  0  0
   -0.0972    1.3876    1.4431 C   0  0  0  0  0  0  0  0  0  0  0  0
   -2.1920    1.8031    0.0935 C   0  0  0  0  0  0  0  0  0  0  0  0
   -1.9999   -0.1775    1.5840 C   0  0  0  0  0  0  0  0  0  0  0  0
   -3.2885    0.9684   -0.5683 C   0  0  0  0  0  0  0  0  0  0  0  0
   -3.5134   -0.0326    1.7273 C   0  0  0  0  0  0  0  0  0  0  0  0
   -5.4543   -0.0051    0.1769 C   0  0  0  0  0  0  0  0  0  0  0  0
    3.9709   -0.8853    1.2586 C   0  0  0  0  0  0  0  0  0  0  0  0
    4.7034   -2.0201    1.0162 C   0  0  0  0  0  0  0  0  0  0  0  0
   -5.8539   -0.3036   -1.1258 C   0  0  0  0  0  0  0  0  0  0  0  0
   -6.3863   -0.0267    1.2144 C   0  0  0  0  0  0  0  0  0  0  0  0
    4.3517   -3.4221    1.2753 C   0  0  0  0  0  0  0  0  0  0  0  0
   -7.1853   -0.6235   -1.3909 C   0  0  0  0  0  0  0  0  0  0  0  0
   -7.7178   -0.3465    0.9494 C   0  0  0  0  0  0  0  0  0  0  0  0
   -8.1174   -0.6449   -0.3533 C   0  0  0  0  0  0  0  0  0  0  0  0
    2.5322   -3.3052   -0.8367 C   0  0  0  0  0  0  0  0  0  0  0  0
    2.8029   -2.2585   -1.7180 C   0  0  0  0  0  0  0  0  0  0  0  0
    1.2218   -3.5497   -0.4260 C   0  0  0  0  0  0  0  0  0  0  0  0
    1.7633   -1.4561   -2.1885 C   0  0  0  0  0  0  0  0  0  0  0  0
    0.1822   -2.7477   -0.8967 C   0  0  0  0  0  0  0  0  0  0  0  0
    0.4530   -1.7008   -1.7778 C   0  0  0  0  0  0  0  0  0  0  0  0
    0.5918    1.8229   -1.1604 H   0  0  0  0  0  0  0  0  0  0  0  0
    1.4122    4.4830   -0.9031 H   0  0  0  0  0  0  0  0  0  0  0  0
    3.2038    3.9071    0.6750 H   0  0  0  0  0  0  0  0  0  0  0  0
    3.9524    1.6386   -1.2441 H   0  0  0  0  0  0  0  0  0  0  0  0
   -0.3085    3.4065    0.6673 H   0  0  0  0  0  0  0  0  0  0  0  0
    1.1340    3.0778    1.5980 H   0  0  0  0  0  0  0  0  0  0  0  0
    4.0715    1.7862    1.8232 H   0  0  0  0  0  0  0  0  0  0  0  0
    5.4750    2.0917    0.7557 H   0  0  0  0  0  0  0  0  0  0  0  0
   -1.5644    2.2400   -0.6861 H   0  0  0  0  0  0  0  0  0  0  0  0
   -2.6389    2.6275    0.6627 H   0  0  0  0  0  0  0  0  0  0  0  0
   -1.5521   -0.4253    2.5522 H   0  0  0  0  0  0  0  0  0  0  0  0
   -1.7591   -0.9945    0.8941 H   0  0  0  0  0  0  0  0  0  0  0  0
   -3.8847    1.6381   -1.2001 H   0  0  0  0  0  0  0  0  0  0  0  0
   -2.8369    0.2050   -1.2138 H   0  0  0  0  0  0  0  0  0  0  0  0
   -3.9104   -0.9827    2.1051 H   0  0  0  0  0  0  0  0  0  0  0  0
   -3.7430    0.7505    2.4603 H   0  0  0  0  0  0  0  0  0  0  0  0
    1.2097    3.3000   -2.8264 H   0  0  0  0  0  0  0  0  0  0  0  0
    4.0017    5.1124   -1.1286 H   0  0  0  0  0  0  0  0  0  0  0  0
    2.9932   -0.7146    1.6852 H   0  0  0  0  0  0  0  0  0  0  0  0
   -5.1502   -0.3110   -1.9537 H   0  0  0  0  0  0  0  0  0  0  0  0
   -6.1100    0.2143    2.2372 H   0  0  0  0  0  0  0  0  0  0  0  0
    5.2072   -3.9446    1.7161 H   0  0  0  0  0  0  0  0  0  0  0  0
    3.5309   -3.4896    1.9978 H   0  0  0  0  0  0  0  0  0  0  0  0
   -7.4965   -0.8592   -2.4044 H   0  0  0  0  0  0  0  0  0  0  0  0
   -8.4447   -0.3604    1.7562 H   0  0  0  0  0  0  0  0  0  0  0  0
    3.8167   -2.0534   -2.0532 H   0  0  0  0  0  0  0  0  0  0  0  0
    0.9916   -4.3603    0.2611 H   0  0  0  0  0  0  0  0  0  0  0  0
    1.9743   -0.6391   -2.8723 H   0  0  0  0  0  0  0  0  0  0  0  0
   -0.8381   -2.9383   -0.5774 H   0  0  0  0  0  0  0  0  0  0  0  0
   -0.3561   -1.0739   -2.1411 H   0  0  0  0  0  0  0  0  0  0  0  0
  1 28  1  0  0  0  0
  1 32  1  0  0  0  0
  2 31  1  0  0  0  0
  3 12  1  0  0  0  0
  3 15  1  0  0  0  0
  4 13  1  0  0  0  0
  4 54  1  0  0  0  0
  5 14  1  0  0  0  0
  5 55  1  0  0  0  0
  6 18  2  0  0  0  0
  7 18  1  0  0  0  0
  7 19  1  0  0  0  0
  7 20  1  0  0  0  0
  8 21  1  0  0  0  0
  8 22  1  0  0  0  0
  8 23  1  0  0  0  0
  9 10  1  0  0  0  0
  9 17  1  0  0  0  0
  9 24  1  0  0  0  0
 10 11  2  0  0  0  0
 11 25  1  0  0  0  0
 12 13  1  0  0  0  0
 12 16  1  0  0  0  0
 12 38  1  0  0  0  0
 13 14  1  0  0  0  0
 13 39  1  0  0  0  0
 14 15  1  0  0  0  0
 14 40  1  0  0  0  0
 15 17  1  0  0  0  0
 15 41  1  0  0  0  0
 16 18  1  0  0  0  0
 16 42  1  0  0  0  0
 16 43  1  0  0  0  0
 17 44  1  0  0  0  0
 17 45  1  0  0  0  0
 19 21  1  0  0  0  0
 19 46  1  0  0  0  0
 19 47  1  0  0  0  0
 20 22  1  0  0  0  0
 20 48  1  0  0  0  0
 20 49  1  0  0  0  0
 21 50  1  0  0  0  0
 21 51  1  0  0  0  0
 22 52  1  0  0  0  0
 22 53  1  0  0  0  0
 23 26  2  0  0  0  0
 23 27  1  0  0  0  0
 24 25  2  0  0  0  0
 24 56  1  0  0  0  0
 25 28  1  0  0  0  0
 26 29  1  0  0  0  0
 26 57  1  0  0  0  0
 27 30  2  0  0  0  0
 27 58  1  0  0  0  0
 28 59  1  0  0  0  0
 28 60  1  0  0  0  0
 29 31  2  0  0  0  0
 29 61  1  0  0  0  0
 30 31  1  0  0  0  0
 30 62  1  0  0  0  0
 32 33  2  0  0  0  0
 32 34  1  0  0  0  0
 33 35  1  0  0  0  0
 33 63  1  0  0  0  0
 34 36  2  0  0  0  0
 34 64  1  0  0  0  0
 35 37  2  0  0  0  0
 35 65  1  0  0  0  0
 36 37  1  0  0  0  0
 36 66  1  0  0  0  0
 37 67  1  0  0  0  0
M  END
> <PUBCHEM_COMPOUND_CID>
40780671

> <PUBCHEM_CONFORMER_RMSD>
1.2

> <PUBCHEM_CONFORMER_DIVERSEORDER>
7
183
99
220
154
156
115
261
97
281
62
262
177
153
121
130
202
79
242
277
232
233
50
42
148
63
236
90
255
139
172
158
149
66
200
125
207
264
89
268
137
235
263
196
102
245
170
64
19
272
87
76
152
160
133
176
70
212
140
132
73
238
267
135
254
31
260
276
117
248
206
40
65
282
56
2
151
217
209
249
175
77
169
204
60
113
71
96
247
35
179
21
80
104
279
211
265
251
270
26
201
223
45
145
164
116
33
227
157
226
16
159
273
230
119
88
124
168
82
39
241
239
5
32
84
61
229
105
41
197
243
174
92
181
120
187
114
284
237
94
224
93
184
100
198
244
141
55
218
215
188
271
11
49
142
246
143
131
30
205
274
101
122
15
144
214
189
59
86
136
91
225
108
178
44
27
85
258
9
109
28
222
38
253
54
280
127
163
194
37
190
162
51
219
13
69
182
112
43
34
29
81
72
173
129
208
78
192
250
193
199
240
24
134
186
18
123
275
252
191
171
266
14
213
257
67
103
83
221
8
138
228
6
58
52
46
166
74
195
146
185
1
180
259
147
23
234
20
53
111
210
106
203
165
231
167
256
107
110
25
36
3
155
126
47
4
283
128
68
98
17
278
95
10
216
48
269
161
57
150
22
118
12
75

> <PUBCHEM_MMFF94_PARTIAL_CHARGES>
49
1 -0.33
10 -0.42
11 -0.23
12 0.28
13 0.28
14 0.28
15 0.28
16 0.06
17 0.26
18 0.57
19 0.3
2 -0.19
20 0.3
21 0.37
22 0.37
23 0.1
24 -0.3
25 0.05
26 -0.15
27 -0.15
28 0.41
29 -0.15
3 -0.56
30 -0.15
31 0.19
32 0.1
33 -0.15
34 -0.15
35 -0.15
36 -0.15
37 -0.15
4 -0.68
5 -0.68
54 0.4
55 0.4
56 0.15
57 0.15
58 0.15
6 -0.57
61 0.15
62 0.15
63 0.15
64 0.15
65 0.15
66 0.15
67 0.15
7 -0.66
8 -0.84
9 0.31

> <PUBCHEM_EFFECTIVE_ROTOR_COUNT>
11.2

> <PUBCHEM_PHARMACOPHORE_FEATURES>
12
1 3 acceptor
1 4 acceptor
1 4 donor
1 5 acceptor
1 5 donor
1 6 acceptor
1 8 cation
5 3 12 13 14 15 rings
5 9 10 11 24 25 rings
6 23 26 27 29 30 31 rings
6 32 33 34 35 36 37 rings
6 7 8 19 20 21 22 rings

> <PUBCHEM_HEAVY_ATOM_COUNT>
37

> <PUBCHEM_ATOM_DEF_STEREO_COUNT>
4

> <PUBCHEM_ATOM_UDEF_STEREO_COUNT>
0

> <PUBCHEM_BOND_DEF_STEREO_COUNT>
0

> <PUBCHEM_BOND_UDEF_STEREO_COUNT>
0

> <PUBCHEM_ISOTOPIC_ATOM_COUNT>
0

> <PUBCHEM_COMPONENT_COUNT>
1

> <PUBCHEM_CACTVS_TAUTO_COUNT>
1

> <PUBCHEM_CONFORMER_ID>
026E437F00000007

> <PUBCHEM_MMFF94_ENERGY>
99.0013

> <PUBCHEM_FEATURE_SELFOVERLAP>
60.91

> <PUBCHEM_SHAPE_FINGERPRINT>
11607047 403 17132119022652999270
11828532 37 16950575423596010137
12202916 173 18114176407461076858
13111901 25 17988356070685319783
1361 2 18410854356791325522
13782708 43 18113341886698946859
14004853 49 17908421703815014240
15119646 104 18202566168581665523
15264996 19 17838900691317292703
15297060 5 16630514129690995238
15444296 7 18131624603898835959
19301679 30 18412272714465735561
19315092 285 17844808084131966178
20771845 140 16988841679142766687
24204213 148 16917066651256372399
3044373 193 17894917369011202045
3534868 343 18336276711825512324
4066623 53 17240203209822281125
46194498 28 18187077356380853533
463206 1 18131345358352665855
5309563 4 18265052428011045888

> <PUBCHEM_SHAPE_MULTIPOLES>
709.64
18.55
5.13
1.87
45.81
0.3
0.24
-7.47
-1.07
-10.87
1.9
-0.22
0.03
-1.6

> <PUBCHEM_SHAPE_SELFOVERLAP>
1505.701

> <PUBCHEM_SHAPE_VOLUME>
400.5

> <PUBCHEM_COORDINATE_TYPE>
2
5
10

$$$$
