26743116
  -OEChem-12032416193D

 60 63  0     1  0  0  0  0  0999 V2000
   -5.9508   -1.5523   -0.3413 S   0  0  0  0  0  0  0  0  0  0  0  0
    4.1564    0.6289   -1.9056 O   0  0  0  0  0  0  0  0  0  0  0  0
   -2.9535   -2.6877   -1.2793 O   0  0  0  0  0  0  0  0  0  0  0  0
   -0.3975    2.6249   -0.0481 N   0  0  0  0  0  0  0  0  0  0  0  0
    5.1439    0.2018    0.1537 N   0  0  0  0  0  0  0  0  0  0  0  0
   -1.6384   -2.2980   -1.5025 N   0  0  0  0  0  0  0  0  0  0  0  0
    1.6215    0.7499   -1.1038 C   0  0  1  0  0  0  0  0  0  0  0  0
    0.1982    0.3023   -0.6936 C   0  0  2  0  0  0  0  0  0  0  0  0
    1.5943    2.2459   -1.4592 C   0  0  0  0  0  0  0  0  0  0  0  0
   -0.4001    1.2259    0.3808 C   0  0  0  0  0  0  0  0  0  0  0  0
    2.6952    0.4594   -0.0483 C   0  0  0  0  0  0  0  0  0  0  0  0
    0.9501    3.0941   -0.3635 C   0  0  0  0  0  0  0  0  0  0  0  0
    0.1359   -1.1575   -0.2425 C   0  0  0  0  0  0  0  0  0  0  0  0
    4.0595    0.4399   -0.6903 C   0  0  0  0  0  0  0  0  0  0  0  0
    6.5009    0.1655   -0.3956 C   0  0  0  0  0  0  0  0  0  0  0  0
    5.0641    0.0176    1.6082 C   0  0  0  0  0  0  0  0  0  0  0  0
   -1.2548   -1.7094   -0.3661 C   0  0  0  0  0  0  0  0  0  0  0  0
    7.2089   -1.1321   -0.0154 C   0  0  0  0  0  0  0  0  0  0  0  0
    5.7461   -1.2829    2.0278 C   0  0  0  0  0  0  0  0  0  0  0  0
    7.1762   -1.3573    1.4953 C   0  0  0  0  0  0  0  0  0  0  0  0
   -2.2756   -1.6982    0.6002 C   0  0  0  0  0  0  0  0  0  0  0  0
   -3.3215   -2.3251   -0.0240 C   0  0  0  0  0  0  0  0  0  0  0  0
   -4.6914   -2.6631    0.3807 C   0  0  0  0  0  0  0  0  0  0  0  0
   -5.3574    0.0408    0.2093 C   0  0  0  0  0  0  0  0  0  0  0  0
   -5.2376    0.3075    1.5731 C   0  0  0  0  0  0  0  0  0  0  0  0
   -5.0145    1.0179   -0.7251 C   0  0  0  0  0  0  0  0  0  0  0  0
   -4.7747    1.5513    2.0026 C   0  0  0  0  0  0  0  0  0  0  0  0
   -4.5516    2.2616   -0.2958 C   0  0  0  0  0  0  0  0  0  0  0  0
   -4.4318    2.5284    1.0682 C   0  0  0  0  0  0  0  0  0  0  0  0
    1.8580    0.1919   -2.0204 H   0  0  0  0  0  0  0  0  0  0  0  0
   -0.4267    0.4094   -1.5943 H   0  0  0  0  0  0  0  0  0  0  0  0
    1.0215    2.3752   -2.3877 H   0  0  0  0  0  0  0  0  0  0  0  0
    2.5987    2.6297   -1.6676 H   0  0  0  0  0  0  0  0  0  0  0  0
   -1.4402    0.9543    0.5817 H   0  0  0  0  0  0  0  0  0  0  0  0
    0.1429    1.1256    1.3288 H   0  0  0  0  0  0  0  0  0  0  0  0
    2.5497   -0.5321    0.3902 H   0  0  0  0  0  0  0  0  0  0  0  0
    2.6758    1.1992    0.7562 H   0  0  0  0  0  0  0  0  0  0  0  0
    1.5681    3.1125    0.5408 H   0  0  0  0  0  0  0  0  0  0  0  0
    0.8829    4.1300   -0.7146 H   0  0  0  0  0  0  0  0  0  0  0  0
    0.4707   -1.2682    0.7962 H   0  0  0  0  0  0  0  0  0  0  0  0
    0.8056   -1.7719   -0.8585 H   0  0  0  0  0  0  0  0  0  0  0  0
   -0.7932    3.2053    0.6909 H   0  0  0  0  0  0  0  0  0  0  0  0
    7.0404    1.0299    0.0092 H   0  0  0  0  0  0  0  0  0  0  0  0
    6.4842    0.2711   -1.4849 H   0  0  0  0  0  0  0  0  0  0  0  0
    4.0349    0.0143    1.9700 H   0  0  0  0  0  0  0  0  0  0  0  0
    5.5658    0.8767    2.0696 H   0  0  0  0  0  0  0  0  0  0  0  0
    8.2463   -1.1080   -0.3665 H   0  0  0  0  0  0  0  0  0  0  0  0
    6.7159   -1.9754   -0.5147 H   0  0  0  0  0  0  0  0  0  0  0  0
    5.1736   -2.1347    1.6398 H   0  0  0  0  0  0  0  0  0  0  0  0
    5.7512   -1.3654    3.1202 H   0  0  0  0  0  0  0  0  0  0  0  0
    7.6125   -2.3330    1.7356 H   0  0  0  0  0  0  0  0  0  0  0  0
    7.7917   -0.5974    1.9921 H   0  0  0  0  0  0  0  0  0  0  0  0
   -2.2551   -1.2983    1.6032 H   0  0  0  0  0  0  0  0  0  0  0  0
   -4.9323   -3.6829    0.0615 H   0  0  0  0  0  0  0  0  0  0  0  0
   -4.7871   -2.6477    1.4715 H   0  0  0  0  0  0  0  0  0  0  0  0
   -5.5057   -0.4357    2.3197 H   0  0  0  0  0  0  0  0  0  0  0  0
   -5.0997    0.8276   -1.7921 H   0  0  0  0  0  0  0  0  0  0  0  0
   -4.6819    1.7595    3.0645 H   0  0  0  0  0  0  0  0  0  0  0  0
   -4.2826    3.0219   -1.0232 H   0  0  0  0  0  0  0  0  0  0  0  0
   -4.0699    3.4963    1.4023 H   0  0  0  0  0  0  0  0  0  0  0  0
  1 23  1  0  0  0  0
  1 24  1  0  0  0  0
  2 14  2  0  0  0  0
  3  6  1  0  0  0  0
  3 22  1  0  0  0  0
  4 10  1  0  0  0  0
  4 12  1  0  0  0  0
  4 42  1  0  0  0  0
  5 14  1  0  0  0  0
  5 15  1  0  0  0  0
  5 16  1  0  0  0  0
  6 17  2  0  0  0  0
  7  8  1  0  0  0  0
  7  9  1  0  0  0  0
  7 11  1  0  0  0  0
  7 30  1  0  0  0  0
  8 10  1  0  0  0  0
  8 13  1  0  0  0  0
  8 31  1  0  0  0  0
  9 12  1  0  0  0  0
  9 32  1  0  0  0  0
  9 33  1  0  0  0  0
 10 34  1  0  0  0  0
 10 35  1  0  0  0  0
 11 14  1  0  0  0  0
 11 36  1  0  0  0  0
 11 37  1  0  0  0  0
 12 38  1  0  0  0  0
 12 39  1  0  0  0  0
 13 17  1  0  0  0  0
 13 40  1  0  0  0  0
 13 41  1  0  0  0  0
 15 18  1  0  0  0  0
 15 43  1  0  0  0  0
 15 44  1  0  0  0  0
 16 19  1  0  0  0  0
 16 45  1  0  0  0  0
 16 46  1  0  0  0  0
 17 21  1  0  0  0  0
 18 20  1  0  0  0  0
 18 47  1  0  0  0  0
 18 48  1  0  0  0  0
 19 20  1  0  0  0  0
 19 49  1  0  0  0  0
 19 50  1  0  0  0  0
 20 51  1  0  0  0  0
 20 52  1  0  0  0  0
 21 22  2  0  0  0  0
 21 53  1  0  0  0  0
 22 23  1  0  0  0  0
 23 54  1  0  0  0  0
 23 55  1  0  0  0  0
 24 25  2  0  0  0  0
 24 26  1  0  0  0  0
 25 27  1  0  0  0  0
 25 56  1  0  0  0  0
 26 28  2  0  0  0  0
 26 57  1  0  0  0  0
 27 29  2  0  0  0  0
 27 58  1  0  0  0  0
 28 29  1  0  0  0  0
 28 59  1  0  0  0  0
 29 60  1  0  0  0  0
M  END
> <PUBCHEM_COMPOUND_CID>
26743116

> <PUBCHEM_CONFORMER_RMSD>
1.4

> <PUBCHEM_CONFORMER_DIVERSEORDER>
1
94
13
103
41
59
33
84
35
85
8
64
4
88
99
57
81
98
56
50
49
97
54
70
37
107
55
100
36
47
68
21
44
87
6
23
63
82
40
5
92
14
106
19
51
29
104
30
62
39
25
72
86
2
11
53
52
32
10
80
67
7
89
22
73
9
79
69
91
3
16
31
65
48
74
38
20
60
12
93
105
75
27
43
26
78
61
28
96
76
102
83
90
95
24
58
34
45
46
15
42
66
101
18
71
77
17

> <PUBCHEM_MMFF94_PARTIAL_CHARGES>
30
1 -0.33
10 0.27
11 0.06
12 0.27
13 0.18
14 0.57
15 0.3
16 0.3
17 0.11
2 -0.57
21 -0.15
22 -0.04
23 0.41
24 0.1
25 -0.15
26 -0.15
27 -0.15
28 -0.15
29 -0.15
3 -0.02
4 -0.9
42 0.36
5 -0.66
53 0.15
56 0.15
57 0.15
58 0.15
59 0.15
6 -0.41
60 0.15

> <PUBCHEM_EFFECTIVE_ROTOR_COUNT>
10.4

> <PUBCHEM_PHARMACOPHORE_FEATURES>
8
1 2 acceptor
1 4 cation
1 4 donor
1 6 acceptor
5 3 6 17 21 22 rings
6 24 25 26 27 28 29 rings
6 4 7 8 9 10 12 rings
6 5 15 16 18 19 20 rings

> <PUBCHEM_HEAVY_ATOM_COUNT>
29

> <PUBCHEM_ATOM_DEF_STEREO_COUNT>
2

> <PUBCHEM_ATOM_UDEF_STEREO_COUNT>
0

> <PUBCHEM_BOND_DEF_STEREO_COUNT>
0

> <PUBCHEM_BOND_UDEF_STEREO_COUNT>
0

> <PUBCHEM_ISOTOPIC_ATOM_COUNT>
0

> <PUBCHEM_COMPONENT_COUNT>
1

> <PUBCHEM_CACTVS_TAUTO_COUNT>
1

> <PUBCHEM_CONFORMER_ID>
0198114C00000001

> <PUBCHEM_MMFF94_ENERGY>
43.5594

> <PUBCHEM_FEATURE_SELFOVERLAP>
40.597

> <PUBCHEM_SHAPE_FINGERPRINT>
10625338 86 17203608212060292696
10838868 229 17980197483869875970
10939801 23 18268712895425187036
11146346 60 18114169801886050096
11973863 73 17531516570034892242
12104220 1 18059577949306303328
12422481 6 18335699378125777974
12633046 712 16879088505524639929
12712778 12 18059856177461272385
12717326 150 16084716416102570658
12838862 33 18272086038623504433
12838863 1 18271515490724977167
13590594 115 17894631456664154757
14466204 15 18411984667402577911
15021287 119 17676492756359891212
15119646 57 14619972391925440739
15183329 4 18260832613488587870
15320294 125 18334016068947360391
15629462 23 14491016183008388428
15799311 1 17095530595200333370
16120349 21 18335983052537005774
16993438 75 17460298972547497277
21033648 29 17203895162360903083
23522609 53 17969246519602095004
23559900 14 17845674568124360990
25147074 1 18261968448034808908
2838139 119 13614526255495061322
3117164 225 18342170115872271168
3383291 50 18272089431188861943
3459 83 17822009822008821306
4197921 191 18263369251248984517
444769 64 18260547779937024946
5104073 3 18340773757321252392
513202 73 17095798815585585093
6299153 45 18334012770090664995
6371009 1 18342736360503068599
7226269 152 18202003200810545897
9965369 4 18408603673552975235

> <PUBCHEM_SHAPE_MULTIPOLES>
573.97
18.58
3.27
1.62
20.4
0.4
0.44
-5.4
6.45
-3.98
-0.36
0.69
0.05
-2.75

> <PUBCHEM_SHAPE_SELFOVERLAP>
1188.766

> <PUBCHEM_SHAPE_VOLUME>
328.3

> <PUBCHEM_COORDINATE_TYPE>
2
5
10

$$$$
