75367647
  -OEChem-12032416383D

 48 50  0     1  0  0  0  0  0999 V2000
    1.6436    3.6006   -0.9357 O   0  0  0  0  0  0  0  0  0  0  0  0
    2.0379    0.0623   -1.4658 O   0  0  0  0  0  0  0  0  0  0  0  0
   -5.4634   -1.8836   -0.7837 O   0  0  0  0  0  0  0  0  0  0  0  0
   -0.5353    1.9022    0.5112 N   0  0  2  0  0  0  0  0  0  0  0  0
    3.1676   -0.5839    0.4524 N   0  0  0  0  0  0  0  0  0  0  0  0
    0.3329    0.8134    0.0495 C   0  0  0  0  0  0  0  0  0  0  0  0
    1.6222    1.1918   -0.6966 C   0  0  2  0  0  0  0  0  0  0  0  0
    0.1822    3.0849    0.9892 C   0  0  0  0  0  0  0  0  0  0  0  0
    1.4760    2.3762   -1.6424 C   0  0  0  0  0  0  0  0  0  0  0  0
   -1.4759    1.4038    1.5154 C   0  0  0  0  0  0  0  0  0  0  0  0
    0.5076    4.0079   -0.1858 C   0  0  0  0  0  0  0  0  0  0  0  0
   -2.5378    0.5292    0.9036 C   0  0  0  0  0  0  0  0  0  0  0  0
   -2.4665   -0.8566    1.0461 C   0  0  0  0  0  0  0  0  0  0  0  0
   -3.5923    1.1040    0.1941 C   0  0  0  0  0  0  0  0  0  0  0  0
    2.8432   -0.8445   -0.8338 C   0  0  0  0  0  0  0  0  0  0  0  0
   -3.4499   -1.6675    0.4793 C   0  0  0  0  0  0  0  0  0  0  0  0
   -4.5755    0.2933   -0.3727 C   0  0  0  0  0  0  0  0  0  0  0  0
   -4.5043   -1.0925   -0.2299 C   0  0  0  0  0  0  0  0  0  0  0  0
    3.2766   -1.9598   -1.5324 C   0  0  0  0  0  0  0  0  0  0  0  0
    3.9652   -1.4872    1.0653 C   0  0  0  0  0  0  0  0  0  0  0  0
    4.0955   -2.8661   -0.8681 C   0  0  0  0  0  0  0  0  0  0  0  0
    4.4510   -2.6326    0.4558 C   0  0  0  0  0  0  0  0  0  0  0  0
    4.3288   -1.2032    2.4845 C   0  0  0  0  0  0  0  0  0  0  0  0
   -5.3291   -3.2922   -0.5994 C   0  0  0  0  0  0  0  0  0  0  0  0
   -0.2548    0.1648   -0.6137 H   0  0  0  0  0  0  0  0  0  0  0  0
    0.6270    0.1768    0.8952 H   0  0  0  0  0  0  0  0  0  0  0  0
    2.3876    1.4919    0.0320 H   0  0  0  0  0  0  0  0  0  0  0  0
    1.0781    2.8146    1.5607 H   0  0  0  0  0  0  0  0  0  0  0  0
   -0.4598    3.6692    1.6604 H   0  0  0  0  0  0  0  0  0  0  0  0
    2.2704    2.3415   -2.3970 H   0  0  0  0  0  0  0  0  0  0  0  0
    0.5281    2.3617   -2.1942 H   0  0  0  0  0  0  0  0  0  0  0  0
   -2.0104    2.2373    1.9926 H   0  0  0  0  0  0  0  0  0  0  0  0
   -0.9611    0.8889    2.3379 H   0  0  0  0  0  0  0  0  0  0  0  0
    0.7467    5.0003    0.2130 H   0  0  0  0  0  0  0  0  0  0  0  0
   -0.3530    4.1418   -0.8532 H   0  0  0  0  0  0  0  0  0  0  0  0
   -1.6495   -1.3166    1.5958 H   0  0  0  0  0  0  0  0  0  0  0  0
   -3.6585    2.1824    0.0756 H   0  0  0  0  0  0  0  0  0  0  0  0
   -3.3331   -2.7355    0.6280 H   0  0  0  0  0  0  0  0  0  0  0  0
   -5.3944    0.7468   -0.9245 H   0  0  0  0  0  0  0  0  0  0  0  0
    2.9904   -2.1273   -2.5650 H   0  0  0  0  0  0  0  0  0  0  0  0
    4.4561   -3.7526   -1.3811 H   0  0  0  0  0  0  0  0  0  0  0  0
    5.0896   -3.3322    0.9843 H   0  0  0  0  0  0  0  0  0  0  0  0
    5.4140   -1.1026    2.5867 H   0  0  0  0  0  0  0  0  0  0  0  0
    3.8692   -0.2707    2.8288 H   0  0  0  0  0  0  0  0  0  0  0  0
    3.9809   -2.0112    3.1359 H   0  0  0  0  0  0  0  0  0  0  0  0
   -6.1771   -3.7664   -1.1044 H   0  0  0  0  0  0  0  0  0  0  0  0
   -5.3927   -3.5674    0.4588 H   0  0  0  0  0  0  0  0  0  0  0  0
   -4.4195   -3.6752   -1.0742 H   0  0  0  0  0  0  0  0  0  0  0  0
  1  9  1  0  0  0  0
  1 11  1  0  0  0  0
  2  7  1  0  0  0  0
  2 15  1  0  0  0  0
  3 18  1  0  0  0  0
  3 24  1  0  0  0  0
  4  6  1  0  0  0  0
  4  8  1  0  0  0  0
  4 10  1  0  0  0  0
  5 15  1  0  0  0  0
  5 20  2  0  0  0  0
  6  7  1  0  0  0  0
  6 25  1  0  0  0  0
  6 26  1  0  0  0  0
  7  9  1  0  0  0  0
  7 27  1  0  0  0  0
  8 11  1  0  0  0  0
  8 28  1  0  0  0  0
  8 29  1  0  0  0  0
  9 30  1  0  0  0  0
  9 31  1  0  0  0  0
 10 12  1  0  0  0  0
 10 32  1  0  0  0  0
 10 33  1  0  0  0  0
 11 34  1  0  0  0  0
 11 35  1  0  0  0  0
 12 13  2  0  0  0  0
 12 14  1  0  0  0  0
 13 16  1  0  0  0  0
 13 36  1  0  0  0  0
 14 17  2  0  0  0  0
 14 37  1  0  0  0  0
 15 19  2  0  0  0  0
 16 18  2  0  0  0  0
 16 38  1  0  0  0  0
 17 18  1  0  0  0  0
 17 39  1  0  0  0  0
 19 21  1  0  0  0  0
 19 40  1  0  0  0  0
 20 22  1  0  0  0  0
 20 23  1  0  0  0  0
 21 22  2  0  0  0  0
 21 41  1  0  0  0  0
 22 42  1  0  0  0  0
 23 43  1  0  0  0  0
 23 44  1  0  0  0  0
 23 45  1  0  0  0  0
 24 46  1  0  0  0  0
 24 47  1  0  0  0  0
 24 48  1  0  0  0  0
M  END
> <PUBCHEM_COMPOUND_CID>
75367647

> <PUBCHEM_CONFORMER_RMSD>
0.8

> <PUBCHEM_CONFORMER_DIVERSEORDER>
1
307
351
236
277
145
324
115
316
221
287
151
344
111
168
291
60
157
196
347
238
23
250
212
255
284
268
223
289
20
242
345
296
167
127
194
313
301
120
169
85
66
208
181
305
53
246
72
142
290
93
149
315
190
275
271
279
267
191
119
204
110
312
200
286
335
170
6
16
318
126
94
70
357
265
235
159
15
293
257
217
326
341
346
173
321
213
311
340
49
354
180
251
353
108
292
164
276
328
130
25
355
88
314
12
350
288
139
294
177
146
280
40
107
248
137
262
178
254
117
188
4
122
263
183
332
317
52
210
225
78
44
300
323
327
303
133
189
356
230
118
135
124
14
5
241
19
132
172
240
197
116
283
153
229
195
253
37
244
105
233
218
152
75
150
299
30
319
134
273
306
302
310
282
156
227
11
297
34
338
68
348
55
7
140
234
97
171
138
220
48
228
320
343
95
81
185
42
39
339
264
112
136
308
202
103
165
121
91
211
304
205
61
58
62
329
104
129
113
22
349
73
193
187
337
258
109
57
272
32
176
209
160
144
256
36
83
18
342
281
29
266
77
259
231
184
261
285
65
186
17
114
239
101
8
45
232
43
96
269
174
309
214
179
2
24
3
89
54
330
13
252
224
84
219
64
161
27
9
182
71
100
128
192
331
26
50
155
201
325
249
243
352
206
247
47
147
203
51
74
31
270
123
245
79
295
336
41
80
131
67
260
322
86
274
35
99
141
216
46
334
82
237
154
106
166
278
148
21
63
87
102
215
199
198
226
143
38
207
333
162
76
69
10
59
163
98
158
90
33
222
56
92
175
298
28
125

> <PUBCHEM_MMFF94_PARTIAL_CHARGES>
31
1 -0.56
10 0.41
11 0.28
12 -0.14
13 -0.15
14 -0.15
15 0.39
16 -0.15
17 -0.15
18 0.08
19 -0.15
2 -0.36
20 0.17
21 -0.15
22 -0.15
23 0.14
24 0.28
3 -0.36
36 0.15
37 0.15
38 0.15
39 0.15
4 -0.81
40 0.15
41 0.15
42 0.15
5 -0.62
6 0.27
7 0.28
8 0.27
9 0.28

> <PUBCHEM_EFFECTIVE_ROTOR_COUNT>
6.4

> <PUBCHEM_PHARMACOPHORE_FEATURES>
8
1 1 acceptor
1 2 acceptor
1 3 acceptor
1 4 cation
1 5 acceptor
6 12 13 14 16 17 18 rings
6 5 15 19 20 21 22 rings
7 1 4 6 7 8 9 11 rings

> <PUBCHEM_HEAVY_ATOM_COUNT>
24

> <PUBCHEM_ATOM_DEF_STEREO_COUNT>
1

> <PUBCHEM_ATOM_UDEF_STEREO_COUNT>
0

> <PUBCHEM_BOND_DEF_STEREO_COUNT>
0

> <PUBCHEM_BOND_UDEF_STEREO_COUNT>
0

> <PUBCHEM_ISOTOPIC_ATOM_COUNT>
0

> <PUBCHEM_COMPONENT_COUNT>
1

> <PUBCHEM_CACTVS_TAUTO_COUNT>
1

> <PUBCHEM_CONFORMER_ID>
047E04DF00000001

> <PUBCHEM_MMFF94_ENERGY>
84.3255

> <PUBCHEM_FEATURE_SELFOVERLAP>
40.645

> <PUBCHEM_SHAPE_FINGERPRINT>
10042902 136 18200046036090859686
11069576 57 18269557306868888207
11265709 11 18263935353729467368
11552529 35 17980765935601498304
11578080 2 17240766108864043620
12363563 72 18339372876333070826
12553582 1 18117580451866997218
12788726 201 17972052344263466880
13004483 165 18264766571687794688
13083527 12 18410287026092905952
13828863 39 14619645986710387578
13968360 50 17976538635009403324
14081887 123 18051971424922660226
1454969 45 18411140269028226900
14848178 5 18342170055753297735
15342168 16 8141819261604647267
17492 89 18341055215545634375
1813 80 18408318865507413768
19026451 147 18338515356111314338
19032999 76 18262507084030408082
20567600 70 18337949094732787562
20626108 58 18410853265421018249
21315764 21 15068622643602685122
21452121 199 18410578396389404080
21458453 9 16985151821041508018
23559900 14 18340479058741396361
23572383 38 18272360928618687231
25222932 49 17410499101606990031
3004659 81 18334300846447960015
339767 52 18261112924756202930
397830 11 17980745062652219402
4017518 198 16895678658624889246
44062 13 18335422331829925359
463206 1 18259989236641577515
613672 6 18411976923497818351
633830 44 11025800924334983386
6433294 58 18052544566907899407
7471813 234 18115316574974761564
88748 71 18338808896263017447

> <PUBCHEM_SHAPE_MULTIPOLES>
466.34
11.12
4.59
1.63
6.57
2.68
-0.39
-13.8
-0.02
-0.63
1.02
-1.8
-0.09
-1.37

> <PUBCHEM_SHAPE_SELFOVERLAP>
982.146

> <PUBCHEM_SHAPE_VOLUME>
259.9

> <PUBCHEM_COORDINATE_TYPE>
2
5
10

$$$$
