40779317
  -OEChem-12032416313D

 58 62  0     1  0  0  0  0  0999 V2000
   -4.4330    1.3535   -1.0299 O   0  0  0  0  0  0  0  0  0  0  0  0
    3.1856   -3.2313    0.4313 O   0  0  0  0  0  0  0  0  0  0  0  0
   -6.2996   -2.9729    0.4802 O   0  0  0  0  0  0  0  0  0  0  0  0
   -0.3336    3.1838   -0.6396 N   0  0  2  0  0  0  0  0  0  0  0  0
    3.9937    1.2226   -0.3655 N   0  0  0  0  0  0  0  0  0  0  0  0
   -2.5380    0.1215   -0.6352 N   0  0  0  0  0  0  0  0  0  0  0  0
    4.6449    0.0532   -0.4872 N   0  0  0  0  0  0  0  0  0  0  0  0
   -4.6600   -0.7287   -0.0328 N   0  0  0  0  0  0  0  0  0  0  0  0
    0.7697    2.2082    1.5085 C   0  0  2  0  0  0  0  0  0  0  0  0
    1.8062    2.2896    0.3538 C   0  0  2  0  0  0  0  0  0  0  0  0
   -1.1702    2.0827   -0.0936 C   0  0  2  0  0  0  0  0  0  0  0  0
   -0.4347    1.3573    1.0537 C   0  0  0  0  0  0  0  0  0  0  0  0
    0.2495    3.6428    1.7417 C   0  0  0  0  0  0  0  0  0  0  0  0
    1.0325    2.6850   -0.9364 C   0  0  0  0  0  0  0  0  0  0  0  0
   -0.2267    4.2328    0.4027 C   0  0  0  0  0  0  0  0  0  0  0  0
   -1.6333    1.1093   -1.1796 C   0  0  0  0  0  0  0  0  0  0  0  0
    2.7295    1.1003    0.1317 C   0  0  0  0  0  0  0  0  0  0  0  0
    2.5403   -0.2426    0.3501 C   0  0  0  0  0  0  0  0  0  0  0  0
    3.7520   -0.8381   -0.0484 C   0  0  0  0  0  0  0  0  0  0  0  0
    4.6602    2.4444   -0.7527 C   0  0  0  0  0  0  0  0  0  0  0  0
   -3.9133    0.3192   -0.5979 C   0  0  0  0  0  0  0  0  0  0  0  0
    4.0528   -2.2803   -0.0052 C   0  0  0  0  0  0  0  0  0  0  0  0
   -6.1166   -0.6016    0.0535 C   0  0  0  0  0  0  0  0  0  0  0  0
   -4.1151   -1.9178    0.6377 C   0  0  0  0  0  0  0  0  0  0  0  0
   -6.8009   -1.9054   -0.3263 C   0  0  0  0  0  0  0  0  0  0  0  0
   -4.9029   -3.1658    0.2537 C   0  0  0  0  0  0  0  0  0  0  0  0
    5.2406   -2.8529   -0.3971 C   0  0  0  0  0  0  0  0  0  0  0  0
    5.0937   -4.2449   -0.1881 C   0  0  0  0  0  0  0  0  0  0  0  0
    3.8266   -4.4239    0.3168 C   0  0  0  0  0  0  0  0  0  0  0  0
    1.2143    1.7994    2.4220 H   0  0  0  0  0  0  0  0  0  0  0  0
    2.4631    3.1335    0.6130 H   0  0  0  0  0  0  0  0  0  0  0  0
   -2.0828    2.5346    0.3227 H   0  0  0  0  0  0  0  0  0  0  0  0
   -0.1210    0.3559    0.7561 H   0  0  0  0  0  0  0  0  0  0  0  0
   -1.1249    1.2287    1.8973 H   0  0  0  0  0  0  0  0  0  0  0  0
    1.0396    4.2729    2.1663 H   0  0  0  0  0  0  0  0  0  0  0  0
   -0.5760    3.6272    2.4636 H   0  0  0  0  0  0  0  0  0  0  0  0
    1.5885    3.4733   -1.4610 H   0  0  0  0  0  0  0  0  0  0  0  0
    0.9878    1.8547   -1.6506 H   0  0  0  0  0  0  0  0  0  0  0  0
   -1.1966    4.7275    0.5375 H   0  0  0  0  0  0  0  0  0  0  0  0
    0.4605    5.0204    0.0682 H   0  0  0  0  0  0  0  0  0  0  0  0
   -0.7965    0.5550   -1.6167 H   0  0  0  0  0  0  0  0  0  0  0  0
   -2.1352    1.6496   -1.9905 H   0  0  0  0  0  0  0  0  0  0  0  0
    1.6691   -0.7381    0.7489 H   0  0  0  0  0  0  0  0  0  0  0  0
   -2.1127   -0.7237   -0.2830 H   0  0  0  0  0  0  0  0  0  0  0  0
    4.8201    3.0494    0.1429 H   0  0  0  0  0  0  0  0  0  0  0  0
    5.6233    2.2037   -1.2111 H   0  0  0  0  0  0  0  0  0  0  0  0
    4.0359    2.9724   -1.4766 H   0  0  0  0  0  0  0  0  0  0  0  0
   -6.4809    0.2144   -0.5777 H   0  0  0  0  0  0  0  0  0  0  0  0
   -6.3413   -0.3482    1.0964 H   0  0  0  0  0  0  0  0  0  0  0  0
   -4.2187   -1.7296    1.7130 H   0  0  0  0  0  0  0  0  0  0  0  0
   -3.0602   -2.0898    0.4322 H   0  0  0  0  0  0  0  0  0  0  0  0
   -7.8787   -1.8293   -0.1521 H   0  0  0  0  0  0  0  0  0  0  0  0
   -6.6478   -2.1458   -1.3851 H   0  0  0  0  0  0  0  0  0  0  0  0
   -4.7405   -3.4284   -0.7986 H   0  0  0  0  0  0  0  0  0  0  0  0
   -4.5779   -4.0153    0.8625 H   0  0  0  0  0  0  0  0  0  0  0  0
    6.1132   -2.3469   -0.7868 H   0  0  0  0  0  0  0  0  0  0  0  0
    5.8202   -5.0208   -0.3811 H   0  0  0  0  0  0  0  0  0  0  0  0
    3.2614   -5.2901    0.6284 H   0  0  0  0  0  0  0  0  0  0  0  0
  1 21  2  0  0  0  0
  2 22  1  0  0  0  0
  2 29  1  0  0  0  0
  3 25  1  0  0  0  0
  3 26  1  0  0  0  0
  4 11  1  0  0  0  0
  4 14  1  0  0  0  0
  4 15  1  0  0  0  0
  5  7  1  0  0  0  0
  5 17  1  0  0  0  0
  5 20  1  0  0  0  0
  6 16  1  0  0  0  0
  6 21  1  0  0  0  0
  6 44  1  0  0  0  0
  7 19  2  0  0  0  0
  8 21  1  0  0  0  0
  8 23  1  0  0  0  0
  8 24  1  0  0  0  0
  9 10  1  0  0  0  0
  9 12  1  0  0  0  0
  9 13  1  0  0  0  0
  9 30  1  0  0  0  0
 10 14  1  0  0  0  0
 10 17  1  0  0  0  0
 10 31  1  0  0  0  0
 11 12  1  0  0  0  0
 11 16  1  0  0  0  0
 11 32  1  0  0  0  0
 12 33  1  0  0  0  0
 12 34  1  0  0  0  0
 13 15  1  0  0  0  0
 13 35  1  0  0  0  0
 13 36  1  0  0  0  0
 14 37  1  0  0  0  0
 14 38  1  0  0  0  0
 15 39  1  0  0  0  0
 15 40  1  0  0  0  0
 16 41  1  0  0  0  0
 16 42  1  0  0  0  0
 17 18  2  0  0  0  0
 18 19  1  0  0  0  0
 18 43  1  0  0  0  0
 19 22  1  0  0  0  0
 20 45  1  0  0  0  0
 20 46  1  0  0  0  0
 20 47  1  0  0  0  0
 22 27  2  0  0  0  0
 23 25  1  0  0  0  0
 23 48  1  0  0  0  0
 23 49  1  0  0  0  0
 24 26  1  0  0  0  0
 24 50  1  0  0  0  0
 24 51  1  0  0  0  0
 25 52  1  0  0  0  0
 25 53  1  0  0  0  0
 26 54  1  0  0  0  0
 26 55  1  0  0  0  0
 27 28  1  0  0  0  0
 27 56  1  0  0  0  0
 28 29  2  0  0  0  0
 28 57  1  0  0  0  0
 29 58  1  0  0  0  0
M  END
> <PUBCHEM_COMPOUND_CID>
40779317

> <PUBCHEM_CONFORMER_RMSD>
1

> <PUBCHEM_CONFORMER_DIVERSEORDER>
1
19
24
28
12
10
29
21
2
13
27
5
22
9
15
20
17
7
11
8
14
6
18
3
25
23
16
26
4

> <PUBCHEM_MMFF94_PARTIAL_CHARGES>
31
1 -0.57
10 0.18
11 0.27
14 0.27
15 0.27
16 0.3
17 -0.33
18 -0.15
19 0.29
2 -0.28
20 0.26
21 0.69
22 0.14
23 0.3
24 0.3
25 0.28
26 0.28
27 -0.15
28 -0.15
29 -0.01
3 -0.56
4 -0.81
43 0.15
44 0.37
5 0.31
56 0.15
57 0.15
58 0.15
6 -0.73
7 -0.71
8 -0.66

> <PUBCHEM_EFFECTIVE_ROTOR_COUNT>
8.4

> <PUBCHEM_PHARMACOPHORE_FEATURES>
10
1 1 acceptor
1 2 acceptor
1 3 acceptor
1 4 cation
1 6 donor
1 7 acceptor
5 2 22 27 28 29 rings
5 5 7 17 18 19 rings
6 3 8 23 24 25 26 rings
8 4 9 10 11 12 13 14 15 rings

> <PUBCHEM_HEAVY_ATOM_COUNT>
29

> <PUBCHEM_ATOM_DEF_STEREO_COUNT>
3

> <PUBCHEM_ATOM_UDEF_STEREO_COUNT>
0

> <PUBCHEM_BOND_DEF_STEREO_COUNT>
0

> <PUBCHEM_BOND_UDEF_STEREO_COUNT>
0

> <PUBCHEM_ISOTOPIC_ATOM_COUNT>
0

> <PUBCHEM_COMPONENT_COUNT>
1

> <PUBCHEM_CACTVS_TAUTO_COUNT>
2

> <PUBCHEM_CONFORMER_ID>
026E3E3500000001

> <PUBCHEM_MMFF94_ENERGY>
53.0175

> <PUBCHEM_FEATURE_SELFOVERLAP>
50.748

> <PUBCHEM_SHAPE_FINGERPRINT>
10622 236 17974843978590835866
11014199 57 18194684757532962316
11285246 1 17970635090781053746
11315621 136 18335421232228808486
117089 54 18411424981677900151
11756154 5 18267293245330423134
11796584 16 18042669637882000289
12107183 9 18271257028193497249
12633046 712 18410564077285067909
12760667 363 18127401251024393237
13533116 47 18197217173556622513
13631057 29 18339649937038118302
13911852 28 18412541007744215767
13911987 19 17973467656690241012
13955234 65 17983574392983664265
14251764 30 18410292489069351103
14866123 147 18053383193890508401
15019793 15 18195805387278770799
15320467 1 17905328777337638723
15475509 35 18271241746061326761
15537594 2 18130786818998121366
15728490 83 17978233755353328763
17492 89 18266737992078935950
17909252 39 18411980294925664560
19311894 1 17616253577029454706
19319366 153 18197214965643291724
20567600 247 18269272525189111711
20775530 9 18341038623891550766
21315759 227 18190447278221615374
22950370 63 18411703179678492217
23379529 103 18337389314639018070
23466295 7 18123471570707317864
23559900 14 18124016950488160208
23569914 152 17907540724971861039
24893989 43 17269199749450525319
25222932 49 18271242854010103806
2838139 119 9151165450475547080
314194 84 18342170120056013869
3421961 26 18341327907034461441
345986 75 17704073988531471217
3737641 26 18410576197070158110
4435113 14 17896049904632708715
44880168 125 16988563451224954430
46194498 28 17677329562345250213
484985 159 17978510836857537537
5309563 4 18341050731072217535
5912855 24 18270411494486946176
613672 6 18194654043636344138
6376802 90 17900238833581442132
6422251 121 18333446530609786699
70251023 43 18337392630554127216
7970288 3 18411418388781313691
9831232 110 18191585457819869439

> <PUBCHEM_SHAPE_MULTIPOLES>
554.29
14.81
6.42
1.07
16.47
2.47
0.18
19.97
-1.77
-5.28
1.12
0.13
-0.82
0.36

> <PUBCHEM_SHAPE_SELFOVERLAP>
1189.687

> <PUBCHEM_SHAPE_VOLUME>
302.7

> <PUBCHEM_COORDINATE_TYPE>
2
5
10

$$$$
