44716297
  -OEChem-12032416153D

 54 58  0     1  0  0  0  0  0999 V2000
   -6.0800   -1.4523   -1.8742 S   0  0  0  0  0  0  0  0  0  0  0  0
    6.0301   -1.3661    0.0175 S   0  0  0  0  0  0  0  0  0  0  0  0
   -3.7030    0.3205    1.7614 O   0  0  0  0  0  0  0  0  0  0  0  0
   -0.9203    2.4855   -0.7878 N   0  0  1  0  0  0  0  0  0  0  0  0
    2.8781    2.1036   -0.4870 N   0  0  0  0  0  0  0  0  0  0  0  0
   -4.0961   -0.4219   -0.4366 N   0  0  0  0  0  0  0  0  0  0  0  0
    3.7485    2.4010    0.4914 N   0  0  0  0  0  0  0  0  0  0  0  0
    4.8165    1.6305    0.3169 N   0  0  0  0  0  0  0  0  0  0  0  0
   -6.2712   -0.8116    0.6230 N   0  0  0  0  0  0  0  0  0  0  0  0
   -1.0977    0.9746    1.3237 C   0  0  1  0  0  0  0  0  0  0  0  0
    0.3863    1.8251   -0.5169 C   0  0  2  0  0  0  0  0  0  0  0  0
   -1.9488    0.4203    0.1639 C   0  0  2  0  0  0  0  0  0  0  0  0
    0.3570    1.0554    0.8241 C   0  0  0  0  0  0  0  0  0  0  0  0
   -1.5328    2.4184    1.6334 C   0  0  0  0  0  0  0  0  0  0  0  0
   -1.9422    1.4283   -1.0009 C   0  0  0  0  0  0  0  0  0  0  0  0
   -1.3491    3.2882    0.3803 C   0  0  0  0  0  0  0  0  0  0  0  0
    1.5553    2.8107   -0.5791 C   0  0  0  0  0  0  0  0  0  0  0  0
   -3.3475    0.1081    0.6066 C   0  0  0  0  0  0  0  0  0  0  0  0
    3.3630    1.1371   -1.3133 C   0  0  0  0  0  0  0  0  0  0  0  0
   -5.4477   -0.8394   -0.4013 C   0  0  0  0  0  0  0  0  0  0  0  0
    4.5964    0.8504   -0.7842 C   0  0  0  0  0  0  0  0  0  0  0  0
    5.5997   -0.1175   -1.2459 C   0  0  0  0  0  0  0  0  0  0  0  0
   -7.5847   -1.7094   -1.0925 C   0  0  0  0  0  0  0  0  0  0  0  0
   -7.4959   -1.3106    0.2246 C   0  0  0  0  0  0  0  0  0  0  0  0
    4.4674   -2.2117    0.2091 C   0  0  0  0  0  0  0  0  0  0  0  0
    3.8801   -2.8484   -0.8842 C   0  0  0  0  0  0  0  0  0  0  0  0
    3.8352   -2.2349    1.4521 C   0  0  0  0  0  0  0  0  0  0  0  0
    2.6602   -3.5081   -0.7345 C   0  0  0  0  0  0  0  0  0  0  0  0
    2.6154   -2.8946    1.6019 C   0  0  0  0  0  0  0  0  0  0  0  0
    2.0278   -3.5312    0.5086 C   0  0  0  0  0  0  0  0  0  0  0  0
   -1.1594    0.3493    2.2211 H   0  0  0  0  0  0  0  0  0  0  0  0
    0.5450    1.0920   -1.3203 H   0  0  0  0  0  0  0  0  0  0  0  0
   -1.5006   -0.5258   -0.1723 H   0  0  0  0  0  0  0  0  0  0  0  0
    0.7581    0.0447    0.6784 H   0  0  0  0  0  0  0  0  0  0  0  0
    0.9752    1.5412    1.5887 H   0  0  0  0  0  0  0  0  0  0  0  0
   -2.5727    2.4676    1.9703 H   0  0  0  0  0  0  0  0  0  0  0  0
   -0.9215    2.8215    2.4503 H   0  0  0  0  0  0  0  0  0  0  0  0
   -1.7236    0.9039   -1.9403 H   0  0  0  0  0  0  0  0  0  0  0  0
   -2.9211    1.9013   -1.1540 H   0  0  0  0  0  0  0  0  0  0  0  0
   -2.2906    3.8014    0.1462 H   0  0  0  0  0  0  0  0  0  0  0  0
   -0.6316    4.0924    0.5789 H   0  0  0  0  0  0  0  0  0  0  0  0
    1.5892    3.3451   -1.5355 H   0  0  0  0  0  0  0  0  0  0  0  0
    1.5450    3.5411    0.2370 H   0  0  0  0  0  0  0  0  0  0  0  0
   -3.6538   -0.5496   -1.3434 H   0  0  0  0  0  0  0  0  0  0  0  0
    2.8199    0.7576   -2.1670 H   0  0  0  0  0  0  0  0  0  0  0  0
    6.5224    0.4175   -1.4963 H   0  0  0  0  0  0  0  0  0  0  0  0
    5.2753   -0.6222   -2.1617 H   0  0  0  0  0  0  0  0  0  0  0  0
   -8.4339   -2.1252   -1.6156 H   0  0  0  0  0  0  0  0  0  0  0  0
   -8.3025   -1.3635    0.9433 H   0  0  0  0  0  0  0  0  0  0  0  0
    4.3581   -2.8516   -1.8604 H   0  0  0  0  0  0  0  0  0  0  0  0
    4.2771   -1.7428    2.3150 H   0  0  0  0  0  0  0  0  0  0  0  0
    2.2033   -4.0051   -1.5853 H   0  0  0  0  0  0  0  0  0  0  0  0
    2.1222   -2.9115    2.5694 H   0  0  0  0  0  0  0  0  0  0  0  0
    1.0778   -4.0443    0.6252 H   0  0  0  0  0  0  0  0  0  0  0  0
  1 20  1  0  0  0  0
  1 23  1  0  0  0  0
  2 22  1  0  0  0  0
  2 25  1  0  0  0  0
  3 18  2  0  0  0  0
  4 11  1  0  0  0  0
  4 15  1  0  0  0  0
  4 16  1  0  0  0  0
  5  7  1  0  0  0  0
  5 17  1  0  0  0  0
  5 19  1  0  0  0  0
  6 18  1  0  0  0  0
  6 20  1  0  0  0  0
  6 44  1  0  0  0  0
  7  8  2  0  0  0  0
  8 21  1  0  0  0  0
  9 20  2  0  0  0  0
  9 24  1  0  0  0  0
 10 12  1  0  0  0  0
 10 13  1  0  0  0  0
 10 14  1  0  0  0  0
 10 31  1  0  0  0  0
 11 13  1  0  0  0  0
 11 17  1  0  0  0  0
 11 32  1  0  0  0  0
 12 15  1  0  0  0  0
 12 18  1  0  0  0  0
 12 33  1  0  0  0  0
 13 34  1  0  0  0  0
 13 35  1  0  0  0  0
 14 16  1  0  0  0  0
 14 36  1  0  0  0  0
 14 37  1  0  0  0  0
 15 38  1  0  0  0  0
 15 39  1  0  0  0  0
 16 40  1  0  0  0  0
 16 41  1  0  0  0  0
 17 42  1  0  0  0  0
 17 43  1  0  0  0  0
 19 21  2  0  0  0  0
 19 45  1  0  0  0  0
 21 22  1  0  0  0  0
 22 46  1  0  0  0  0
 22 47  1  0  0  0  0
 23 24  2  0  0  0  0
 23 48  1  0  0  0  0
 24 49  1  0  0  0  0
 25 26  2  0  0  0  0
 25 27  1  0  0  0  0
 26 28  1  0  0  0  0
 26 50  1  0  0  0  0
 27 29  2  0  0  0  0
 27 51  1  0  0  0  0
 28 30  2  0  0  0  0
 28 52  1  0  0  0  0
 29 30  1  0  0  0  0
 29 53  1  0  0  0  0
 30 54  1  0  0  0  0
M  END
> <PUBCHEM_COMPOUND_CID>
44716297

> <PUBCHEM_CONFORMER_RMSD>
1.4

> <PUBCHEM_CONFORMER_DIVERSEORDER>
1
74
123
86
38
97
29
122
93
39
11
55
6
45
114
119
18
80
13
100
46
54
47
138
132
113
133
63
131
58
62
106
98
20
77
137
79
126
26
56
112
104
30
25
121
60
92
105
124
57
53
127
118
76
16
103
59
5
101
99
64
28
95
33
78
24
67
120
66
41
32
85
88
96
42
94
68
129
111
109
10
21
87
135
72
43
128
49
65
108
9
69
134
8
40
90
81
115
27
136
89
2
82
75
91
3
44
71
12
4
116
19
102
107
61
70
110
36
37
117
73
84
34
35
48
17
130
125
14
22
31
15
83
52
50
51
7
23

> <PUBCHEM_MMFF94_PARTIAL_CHARGES>
36
1 -0.08
11 0.27
12 0.06
15 0.27
16 0.27
17 0.26
18 0.57
19 -0.3
2 -0.33
20 0.44
21 0.05
22 0.41
23 -0.11
24 0.08
25 0.1
26 -0.15
27 -0.15
28 -0.15
29 -0.15
3 -0.57
30 -0.15
4 -0.81
44 0.37
45 0.15
48 0.15
49 0.15
5 0.31
50 0.15
51 0.15
52 0.15
53 0.15
54 0.15
6 -0.49
7 -0.42
8 -0.23
9 -0.57

> <PUBCHEM_EFFECTIVE_ROTOR_COUNT>
9.2

> <PUBCHEM_PHARMACOPHORE_FEATURES>
7
1 3 acceptor
1 4 cation
1 6 donor
5 1 9 20 23 24 rings
5 5 7 8 19 21 rings
6 25 26 27 28 29 30 rings
8 4 10 11 12 13 14 15 16 rings

> <PUBCHEM_HEAVY_ATOM_COUNT>
30

> <PUBCHEM_ATOM_DEF_STEREO_COUNT>
2

> <PUBCHEM_ATOM_UDEF_STEREO_COUNT>
1

> <PUBCHEM_BOND_DEF_STEREO_COUNT>
0

> <PUBCHEM_BOND_UDEF_STEREO_COUNT>
0

> <PUBCHEM_ISOTOPIC_ATOM_COUNT>
0

> <PUBCHEM_COMPONENT_COUNT>
1

> <PUBCHEM_CACTVS_TAUTO_COUNT>
3

> <PUBCHEM_CONFORMER_ID>
02AA510900000001

> <PUBCHEM_MMFF94_ENERGY>
63.0356

> <PUBCHEM_FEATURE_SELFOVERLAP>
35.522

> <PUBCHEM_SHAPE_FINGERPRINT>
10692045 39 9727637223881011715
1200032 147 13110664108912233738
12838863 1 18115016421570896538
13150687 139 17897472656200425340
13533116 47 18343303707875688504
1361 2 18409729594676425618
14347332 77 18410572851702571869
14784336 7 18058731441706844993
15001296 14 18269832171928048038
15003188 105 18114743716664137722
15119646 104 18411140229898877859
15183329 4 16226040107237840829
15347590 135 17988632052219543816
15721738 202 18343021069062892514
16090146 7 12973881464596783189
17134984 74 18335698407579564263
17492 89 18196655094965156326
19026451 147 18260822653744603066
19315092 285 18202563956351982592
20028762 73 18202285801538284350
20715895 44 8646767794374050044
208703 8 18342175514772970862
21285901 2 17458056071283023925
21585483 132 17843384423138972551
21703447 108 18271800246271231544
23569914 152 17540777679050304455
25222932 49 18341054034560990598
397830 11 11743550051185699829
4098825 35 18114177498451074829
444735 86 18334857195163260630
46194498 28 17530962535484343173
463206 1 18338236075989381830
5283384 97 18409446994349549111
5309563 4 18336829693702183964
59755656 215 18113616811032691131
86090 222 18334298695091299090

> <PUBCHEM_SHAPE_MULTIPOLES>
589.33
17.24
4.45
1.53
24.07
0.78
0.14
13.23
-4.35
-4
0.25
0.47
0.22
-2.07

> <PUBCHEM_SHAPE_SELFOVERLAP>
1244.218

> <PUBCHEM_SHAPE_VOLUME>
333.2

> <PUBCHEM_COORDINATE_TYPE>
2
5
10

$$$$
