38028609
  -OEChem-12032416143D

 61 62  0     1  0  0  0  0  0999 V2000
    3.1760   -0.3852    1.5359 S   0  0  0  0  0  0  0  0  0  0  0  0
   -4.1538    1.1869   -0.0882 O   0  0  0  0  0  0  0  0  0  0  0  0
    3.0601   -0.6166    2.9630 O   0  0  0  0  0  0  0  0  0  0  0  0
    4.4822   -0.3493    0.9065 O   0  0  0  0  0  0  0  0  0  0  0  0
    2.3191    1.0288    1.1244 N   0  0  0  0  0  0  0  0  0  0  0  0
   -2.6944   -0.5833    0.2822 N   0  0  0  0  0  0  0  0  0  0  0  0
    0.3799    1.4346   -1.1238 C   0  0  1  0  0  0  0  0  0  0  0  0
    1.4201    2.4732   -0.6347 C   0  0  1  0  0  0  0  0  0  0  0  0
   -1.0036    2.0872   -1.2656 C   0  0  0  0  0  0  0  0  0  0  0  0
   -1.5023    2.6899    0.0614 C   0  0  2  0  0  0  0  0  0  0  0  0
    0.7928    0.7996   -2.4553 C   0  0  0  0  0  0  0  0  0  0  0  0
   -0.4306    3.5168    0.7422 C   0  0  0  0  0  0  0  0  0  0  0  0
    0.8684    3.4162    0.4087 C   0  0  0  0  0  0  0  0  0  0  0  0
    2.6750    1.7836   -0.0872 C   0  0  0  0  0  0  0  0  0  0  0  0
   -2.0320    1.5991    0.9988 C   0  0  0  0  0  0  0  0  0  0  0  0
   -0.1957   -0.2917   -2.8537 C   0  0  0  0  0  0  0  0  0  0  0  0
    0.8918    1.8635   -3.5438 C   0  0  0  0  0  0  0  0  0  0  0  0
   -0.8918    4.4966    1.7851 C   0  0  0  0  0  0  0  0  0  0  0  0
   -3.0899    0.7452    0.3370 C   0  0  0  0  0  0  0  0  0  0  0  0
    2.2363   -1.6300    0.7040 C   0  0  0  0  0  0  0  0  0  0  0  0
   -3.5101   -1.6262   -0.2965 C   0  0  0  0  0  0  0  0  0  0  0  0
    2.5581   -1.9870   -0.6056 C   0  0  0  0  0  0  0  0  0  0  0  0
    1.1732   -2.2547    1.3560 C   0  0  0  0  0  0  0  0  0  0  0  0
    1.8166   -2.9686   -1.2630 C   0  0  0  0  0  0  0  0  0  0  0  0
    0.4319   -3.2364    0.6986 C   0  0  0  0  0  0  0  0  0  0  0  0
    0.7535   -3.5934   -0.6108 C   0  0  0  0  0  0  0  0  0  0  0  0
   -4.3859   -2.2288    0.7081 C   0  0  0  0  0  0  0  0  0  0  0  0
   -0.0388   -4.6435   -1.3137 C   0  0  0  0  0  0  0  0  0  0  0  0
   -5.1060   -2.7263    1.5298 C   0  0  0  0  0  0  0  0  0  0  0  0
    0.2898    0.6298   -0.3837 H   0  0  0  0  0  0  0  0  0  0  0  0
    1.7404    3.1280   -1.4488 H   0  0  0  0  0  0  0  0  0  0  0  0
   -1.7501    1.4035   -1.6744 H   0  0  0  0  0  0  0  0  0  0  0  0
   -0.9511    2.9236   -1.9740 H   0  0  0  0  0  0  0  0  0  0  0  0
   -2.3383    3.3555   -0.1960 H   0  0  0  0  0  0  0  0  0  0  0  0
    1.7739    0.3259   -2.3504 H   0  0  0  0  0  0  0  0  0  0  0  0
    1.5887    4.0685    0.8988 H   0  0  0  0  0  0  0  0  0  0  0  0
    3.4306    2.5298    0.1864 H   0  0  0  0  0  0  0  0  0  0  0  0
    3.1217    1.1322   -0.8422 H   0  0  0  0  0  0  0  0  0  0  0  0
   -2.5080    2.0495    1.8791 H   0  0  0  0  0  0  0  0  0  0  0  0
   -1.2090    0.9859    1.3851 H   0  0  0  0  0  0  0  0  0  0  0  0
   -1.1331    0.1092   -3.2515 H   0  0  0  0  0  0  0  0  0  0  0  0
   -0.4302   -0.9525   -2.0137 H   0  0  0  0  0  0  0  0  0  0  0  0
    0.2369   -0.9121   -3.6472 H   0  0  0  0  0  0  0  0  0  0  0  0
   -0.0542    2.3686   -3.7545 H   0  0  0  0  0  0  0  0  0  0  0  0
    1.1813    1.3779   -4.4851 H   0  0  0  0  0  0  0  0  0  0  0  0
    1.6638    2.6125   -3.3598 H   0  0  0  0  0  0  0  0  0  0  0  0
   -1.6384    5.1772    1.3632 H   0  0  0  0  0  0  0  0  0  0  0  0
   -0.0685    5.1082    2.1692 H   0  0  0  0  0  0  0  0  0  0  0  0
   -1.3378    3.9737    2.6365 H   0  0  0  0  0  0  0  0  0  0  0  0
    1.8752    1.5565    1.8857 H   0  0  0  0  0  0  0  0  0  0  0  0
   -1.7960   -0.8591    0.6674 H   0  0  0  0  0  0  0  0  0  0  0  0
   -4.0994   -1.2066   -1.1184 H   0  0  0  0  0  0  0  0  0  0  0  0
   -2.8295   -2.3747   -0.7141 H   0  0  0  0  0  0  0  0  0  0  0  0
    3.3780   -1.5103   -1.1349 H   0  0  0  0  0  0  0  0  0  0  0  0
    0.9011   -1.9857    2.3726 H   0  0  0  0  0  0  0  0  0  0  0  0
    2.0759   -3.2374   -2.2835 H   0  0  0  0  0  0  0  0  0  0  0  0
   -0.3953   -3.7144    1.2167 H   0  0  0  0  0  0  0  0  0  0  0  0
    0.4244   -5.6243   -1.1682 H   0  0  0  0  0  0  0  0  0  0  0  0
   -1.0669   -4.6820   -0.9377 H   0  0  0  0  0  0  0  0  0  0  0  0
   -0.0987   -4.4376   -2.3878 H   0  0  0  0  0  0  0  0  0  0  0  0
   -5.7446   -3.1675    2.2590 H   0  0  0  0  0  0  0  0  0  0  0  0
  1  3  2  0  0  0  0
  1  4  2  0  0  0  0
  1  5  1  0  0  0  0
  1 20  1  0  0  0  0
  2 19  2  0  0  0  0
  5 14  1  0  0  0  0
  5 50  1  0  0  0  0
  6 19  1  0  0  0  0
  6 21  1  0  0  0  0
  6 51  1  0  0  0  0
  7  8  1  0  0  0  0
  7  9  1  0  0  0  0
  7 11  1  0  0  0  0
  7 30  1  0  0  0  0
  8 13  1  0  0  0  0
  8 14  1  0  0  0  0
  8 31  1  0  0  0  0
  9 10  1  0  0  0  0
  9 32  1  0  0  0  0
  9 33  1  0  0  0  0
 10 12  1  0  0  0  0
 10 15  1  0  0  0  0
 10 34  1  0  0  0  0
 11 16  1  0  0  0  0
 11 17  1  0  0  0  0
 11 35  1  0  0  0  0
 12 13  2  0  0  0  0
 12 18  1  0  0  0  0
 13 36  1  0  0  0  0
 14 37  1  0  0  0  0
 14 38  1  0  0  0  0
 15 19  1  0  0  0  0
 15 39  1  0  0  0  0
 15 40  1  0  0  0  0
 16 41  1  0  0  0  0
 16 42  1  0  0  0  0
 16 43  1  0  0  0  0
 17 44  1  0  0  0  0
 17 45  1  0  0  0  0
 17 46  1  0  0  0  0
 18 47  1  0  0  0  0
 18 48  1  0  0  0  0
 18 49  1  0  0  0  0
 20 22  2  0  0  0  0
 20 23  1  0  0  0  0
 21 27  1  0  0  0  0
 21 52  1  0  0  0  0
 21 53  1  0  0  0  0
 22 24  1  0  0  0  0
 22 54  1  0  0  0  0
 23 25  2  0  0  0  0
 23 55  1  0  0  0  0
 24 26  2  0  0  0  0
 24 56  1  0  0  0  0
 25 26  1  0  0  0  0
 25 57  1  0  0  0  0
 26 28  1  0  0  0  0
 27 29  3  0  0  0  0
 28 58  1  0  0  0  0
 28 59  1  0  0  0  0
 28 60  1  0  0  0  0
 29 61  1  0  0  0  0
M  END
> <PUBCHEM_COMPOUND_CID>
38028609

> <PUBCHEM_CONFORMER_RMSD>
1.2

> <PUBCHEM_CONFORMER_DIVERSEORDER>
2
30
97
144
157
114
101
34
78
105
126
161
36
162
44
158
148
57
74
93
45
145
159
163
135
46
88
7
164
85
14
125
89
146
55
136
90
96
73
28
94
108
160
143
48
64
155
139
118
112
35
82
154
54
47
16
137
58
119
67
86
5
23
120
131
87
100
42
95
124
29
52
98
24
70
165
121
79
18
142
8
69
59
151
141
11
117
133
99
110
41
10
71
111
129
19
53
107
92
106
66
77
91
40
25
123
102
149
152
61
147
128
13
39
75
6
62
109
38
122
60
15
22
56
32
63
116
115
81
84
9
140
150
1
51
37
138
113
132
17
50
4
49
65
31
68
27
104
153
83
76
33
127
103
134
3
26
80
72
12
21
156
43
130
20

> <PUBCHEM_MMFF94_PARTIAL_CHARGES>
32
1 1.45
10 0.14
12 -0.28
13 -0.29
14 0.36
15 0.06
18 0.14
19 0.57
2 -0.57
20 -0.01
21 0.5
22 -0.15
23 -0.15
24 -0.15
25 -0.15
26 -0.14
27 -0.2
28 0.14
29 -0.18
3 -0.65
36 0.15
4 -0.65
5 -0.91
50 0.42
51 0.37
54 0.15
55 0.15
56 0.15
57 0.15
6 -0.73
61 0.18
8 0.14

> <PUBCHEM_EFFECTIVE_ROTOR_COUNT>
9.8

> <PUBCHEM_PHARMACOPHORE_FEATURES>
9
1 2 acceptor
1 29 hydrophobe
1 3 acceptor
1 4 acceptor
1 5 donor
1 6 donor
3 11 16 17 hydrophobe
6 20 22 23 24 25 26 rings
6 7 8 9 10 12 13 rings

> <PUBCHEM_HEAVY_ATOM_COUNT>
29

> <PUBCHEM_ATOM_DEF_STEREO_COUNT>
3

> <PUBCHEM_ATOM_UDEF_STEREO_COUNT>
0

> <PUBCHEM_BOND_DEF_STEREO_COUNT>
0

> <PUBCHEM_BOND_UDEF_STEREO_COUNT>
0

> <PUBCHEM_ISOTOPIC_ATOM_COUNT>
0

> <PUBCHEM_COMPONENT_COUNT>
1

> <PUBCHEM_CACTVS_TAUTO_COUNT>
2

> <PUBCHEM_CONFORMER_ID>
0244454100000002

> <PUBCHEM_MMFF94_ENERGY>
44.7347

> <PUBCHEM_FEATURE_SELFOVERLAP>
45.689

> <PUBCHEM_SHAPE_FINGERPRINT>
1100329 8 17763742491737807928
11244481 83 17413310165975164294
11513181 2 18272089422245467614
12156800 1 14750330257726355338
13122387 1 17619626887086943539
14251757 5 17044599846301940671
17974551 9 17195150514567924992
20600515 1 17530971250130929938
21421861 104 18266479748675327305
23419403 2 17754416296677209765
35225 105 17837212949495274103
469060 322 17482500422291912251
6287921 2 18201168718930475779
9896288 288 18129942265905584744

> <PUBCHEM_SHAPE_MULTIPOLES>
573.09
6.34
6.24
2.59
9.94
1.15
-1.53
-0.45
3.02
-0.74
1.2
-1.66
0.19
-1.29

> <PUBCHEM_SHAPE_SELFOVERLAP>
1159.908

> <PUBCHEM_SHAPE_VOLUME>
335.3

> <PUBCHEM_COORDINATE_TYPE>
2
5
10

$$$$
