28962806
  -OEChem-12032416283D

 71 73  0     1  0  0  0  0  0999 V2000
   -7.1246    2.5253   -1.5332 F   0  0  0  0  0  0  0  0  0  0  0  0
    1.6820    1.8478    0.2600 O   0  0  0  0  0  0  0  0  0  0  0  0
    6.0645   -0.5689   -1.3465 O   0  0  0  0  0  0  0  0  0  0  0  0
   -4.2297   -1.1279    2.0858 O   0  0  0  0  0  0  0  0  0  0  0  0
   -3.2924   -0.2927    0.1365 N   0  0  0  0  0  0  0  0  0  0  0  0
    6.2347    0.6421    0.6178 N   0  0  0  0  0  0  0  0  0  0  0  0
    0.6949   -1.7367   -0.6075 C   0  0  1  0  0  0  0  0  0  0  0  0
    0.5618   -0.3029    0.0053 C   0  0  2  0  0  0  0  0  0  0  0  0
   -0.8913    0.2587   -0.1967 C   0  0  1  0  0  0  0  0  0  0  0  0
    1.7111    0.6267   -0.4803 C   0  0  2  0  0  0  0  0  0  0  0  0
    2.0992   -2.3041   -0.2926 C   0  0  0  0  0  0  0  0  0  0  0  0
    3.1108    0.0079   -0.2574 C   0  0  1  0  0  0  0  0  0  0  0  0
   -0.3477   -2.6668    0.0548 C   0  0  0  0  0  0  0  0  0  0  0  0
   -1.9362   -0.7215    0.4069 C   0  0  2  0  0  0  0  0  0  0  0  0
    3.2268   -1.4159   -0.8015 C   0  0  0  0  0  0  0  0  0  0  0  0
   -1.7758   -2.1595   -0.0857 C   0  0  0  0  0  0  0  0  0  0  0  0
    0.4863   -1.7481   -2.1431 C   0  0  0  0  0  0  0  0  0  0  0  0
    4.2203    0.8786   -0.8596 C   0  0  2  0  0  0  0  0  0  0  0  0
   -1.1009    1.6570    0.4087 C   0  0  0  0  0  0  0  0  0  0  0  0
    3.9980    1.0174   -2.3666 C   0  0  0  0  0  0  0  0  0  0  0  0
    5.5868    0.2569   -0.5606 C   0  0  0  0  0  0  0  0  0  0  0  0
   -4.3351   -0.5379    1.0136 C   0  0  0  0  0  0  0  0  0  0  0  0
   -5.6715   -0.0569    0.5783 C   0  0  0  0  0  0  0  0  0  0  0  0
    7.5286    0.0517    0.9435 C   0  0  0  0  0  0  0  0  0  0  0  0
    5.7574    1.6338    1.5795 C   0  0  0  0  0  0  0  0  0  0  0  0
    7.3709   -1.2117    1.7639 C   0  0  0  0  0  0  0  0  0  0  0  0
    6.2578    3.0223    1.2388 C   0  0  0  0  0  0  0  0  0  0  0  0
   -5.7727    1.0301   -0.2901 C   0  0  0  0  0  0  0  0  0  0  0  0
   -6.8252   -0.6922    1.0378 C   0  0  0  0  0  0  0  0  0  0  0  0
   -7.0274    1.4816   -0.6991 C   0  0  0  0  0  0  0  0  0  0  0  0
   -8.0800   -0.2405    0.6290 C   0  0  0  0  0  0  0  0  0  0  0  0
   -8.1812    0.8463   -0.2397 C   0  0  0  0  0  0  0  0  0  0  0  0
    0.6892   -0.3978    1.0957 H   0  0  0  0  0  0  0  0  0  0  0  0
   -1.0861    0.3595   -1.2719 H   0  0  0  0  0  0  0  0  0  0  0  0
    1.5206    0.8760   -1.5256 H   0  0  0  0  0  0  0  0  0  0  0  0
    2.2095   -3.3073   -0.7241 H   0  0  0  0  0  0  0  0  0  0  0  0
    2.2131   -2.4248    0.7933 H   0  0  0  0  0  0  0  0  0  0  0  0
    3.2812   -0.0480    0.8273 H   0  0  0  0  0  0  0  0  0  0  0  0
   -0.1215   -2.7718    1.1244 H   0  0  0  0  0  0  0  0  0  0  0  0
   -0.2828   -3.6756   -0.3724 H   0  0  0  0  0  0  0  0  0  0  0  0
   -1.8008   -0.7272    1.4973 H   0  0  0  0  0  0  0  0  0  0  0  0
    4.1605   -1.8824   -0.4682 H   0  0  0  0  0  0  0  0  0  0  0  0
    3.2308   -1.4634   -1.8917 H   0  0  0  0  0  0  0  0  0  0  0  0
   -2.1034   -2.2406   -1.1294 H   0  0  0  0  0  0  0  0  0  0  0  0
   -2.4431   -2.8227    0.4799 H   0  0  0  0  0  0  0  0  0  0  0  0
   -0.5173   -1.4309   -2.4376 H   0  0  0  0  0  0  0  0  0  0  0  0
    0.6314   -2.7583   -2.5438 H   0  0  0  0  0  0  0  0  0  0  0  0
    1.1849   -1.0886   -2.6654 H   0  0  0  0  0  0  0  0  0  0  0  0
    4.1801    1.8912   -0.4502 H   0  0  0  0  0  0  0  0  0  0  0  0
   -0.7692    1.6925    1.4515 H   0  0  0  0  0  0  0  0  0  0  0  0
   -2.1529    1.9593    0.3853 H   0  0  0  0  0  0  0  0  0  0  0  0
   -0.5663    2.4196   -0.1644 H   0  0  0  0  0  0  0  0  0  0  0  0
   -3.4746    0.0981   -0.7819 H   0  0  0  0  0  0  0  0  0  0  0  0
    1.8029    1.6338    1.2008 H   0  0  0  0  0  0  0  0  0  0  0  0
    3.9937    0.0761   -2.9195 H   0  0  0  0  0  0  0  0  0  0  0  0
    4.8288    1.5962   -2.7917 H   0  0  0  0  0  0  0  0  0  0  0  0
    3.0946    1.5796   -2.6148 H   0  0  0  0  0  0  0  0  0  0  0  0
    8.0570   -0.1920    0.0148 H   0  0  0  0  0  0  0  0  0  0  0  0
    8.1447    0.7834    1.4774 H   0  0  0  0  0  0  0  0  0  0  0  0
    4.6652    1.6365    1.6056 H   0  0  0  0  0  0  0  0  0  0  0  0
    6.0881    1.3471    2.5844 H   0  0  0  0  0  0  0  0  0  0  0  0
    6.8647   -1.0085    2.7131 H   0  0  0  0  0  0  0  0  0  0  0  0
    6.7796   -1.9608    1.2268 H   0  0  0  0  0  0  0  0  0  0  0  0
    8.3503   -1.6463    1.9868 H   0  0  0  0  0  0  0  0  0  0  0  0
    5.9395    3.3296    0.2376 H   0  0  0  0  0  0  0  0  0  0  0  0
    5.8721    3.7520    1.9575 H   0  0  0  0  0  0  0  0  0  0  0  0
    7.3513    3.0685    1.2648 H   0  0  0  0  0  0  0  0  0  0  0  0
   -4.9019    1.5713   -0.6479 H   0  0  0  0  0  0  0  0  0  0  0  0
   -6.7673   -1.5434    1.7111 H   0  0  0  0  0  0  0  0  0  0  0  0
   -8.9784   -0.7356    0.9859 H   0  0  0  0  0  0  0  0  0  0  0  0
   -9.1580    1.1979   -0.5584 H   0  0  0  0  0  0  0  0  0  0  0  0
  1 30  1  0  0  0  0
  2 10  1  0  0  0  0
  2 54  1  0  0  0  0
  3 21  2  0  0  0  0
  4 22  2  0  0  0  0
  5 14  1  0  0  0  0
  5 22  1  0  0  0  0
  5 53  1  0  0  0  0
  6 21  1  0  0  0  0
  6 24  1  0  0  0  0
  6 25  1  0  0  0  0
  7  8  1  0  0  0  0
  7 11  1  0  0  0  0
  7 13  1  0  0  0  0
  7 17  1  0  0  0  0
  8  9  1  0  0  0  0
  8 10  1  0  0  0  0
  8 33  1  0  0  0  0
  9 14  1  0  0  0  0
  9 19  1  0  0  0  0
  9 34  1  0  0  0  0
 10 12  1  0  0  0  0
 10 35  1  0  0  0  0
 11 15  1  0  0  0  0
 11 36  1  0  0  0  0
 11 37  1  0  0  0  0
 12 15  1  0  0  0  0
 12 18  1  0  0  0  0
 12 38  1  0  0  0  0
 13 16  1  0  0  0  0
 13 39  1  0  0  0  0
 13 40  1  0  0  0  0
 14 16  1  0  0  0  0
 14 41  1  0  0  0  0
 15 42  1  0  0  0  0
 15 43  1  0  0  0  0
 16 44  1  0  0  0  0
 16 45  1  0  0  0  0
 17 46  1  0  0  0  0
 17 47  1  0  0  0  0
 17 48  1  0  0  0  0
 18 20  1  0  0  0  0
 18 21  1  0  0  0  0
 18 49  1  0  0  0  0
 19 50  1  0  0  0  0
 19 51  1  0  0  0  0
 19 52  1  0  0  0  0
 20 55  1  0  0  0  0
 20 56  1  0  0  0  0
 20 57  1  0  0  0  0
 22 23  1  0  0  0  0
 23 28  2  0  0  0  0
 23 29  1  0  0  0  0
 24 26  1  0  0  0  0
 24 58  1  0  0  0  0
 24 59  1  0  0  0  0
 25 27  1  0  0  0  0
 25 60  1  0  0  0  0
 25 61  1  0  0  0  0
 26 62  1  0  0  0  0
 26 63  1  0  0  0  0
 26 64  1  0  0  0  0
 27 65  1  0  0  0  0
 27 66  1  0  0  0  0
 27 67  1  0  0  0  0
 28 30  1  0  0  0  0
 28 68  1  0  0  0  0
 29 31  2  0  0  0  0
 29 69  1  0  0  0  0
 30 32  2  0  0  0  0
 31 32  1  0  0  0  0
 31 70  1  0  0  0  0
 32 71  1  0  0  0  0
M  END
> <PUBCHEM_COMPOUND_CID>
28962806

> <PUBCHEM_CONFORMER_RMSD>
1

> <PUBCHEM_CONFORMER_DIVERSEORDER>
1
86
14
66
23
43
63
54
83
69
81
10
76
44
68
29
51
18
59
89
31
70
87
38
20
61
73
84
72
21
65
34
64
85
30
16
80
75
5
79
35
52
13
33
42
4
19
49
62
55
32
53
57
82
9
58
47
74
40
48
8
67
2
56
41
50
88
37
39
27
78
77
17
36
46
7
11
12
45
22
24
60
15
3
26
25
28
6
71

> <PUBCHEM_MMFF94_PARTIAL_CHARGES>
25
1 -0.19
10 0.28
14 0.3
18 0.06
2 -0.68
21 0.57
22 0.54
23 0.09
24 0.3
25 0.3
28 -0.15
29 -0.15
3 -0.57
30 0.19
31 -0.15
32 -0.15
4 -0.57
5 -0.73
53 0.37
54 0.4
6 -0.66
68 0.15
69 0.15
70 0.15
71 0.15

> <PUBCHEM_EFFECTIVE_ROTOR_COUNT>
9.6

> <PUBCHEM_PHARMACOPHORE_FEATURES>
9
1 2 acceptor
1 2 donor
1 20 hydrophobe
1 3 acceptor
1 4 acceptor
1 5 donor
6 23 28 29 30 31 32 rings
6 7 8 10 11 12 15 rings
6 7 8 9 13 14 16 rings

> <PUBCHEM_HEAVY_ATOM_COUNT>
32

> <PUBCHEM_ATOM_DEF_STEREO_COUNT>
7

> <PUBCHEM_ATOM_UDEF_STEREO_COUNT>
0

> <PUBCHEM_BOND_DEF_STEREO_COUNT>
0

> <PUBCHEM_BOND_UDEF_STEREO_COUNT>
0

> <PUBCHEM_ISOTOPIC_ATOM_COUNT>
0

> <PUBCHEM_COMPONENT_COUNT>
1

> <PUBCHEM_CACTVS_TAUTO_COUNT>
2

> <PUBCHEM_CONFORMER_ID>
01B9EFF600000001

> <PUBCHEM_MMFF94_ENERGY>
91.2363

> <PUBCHEM_FEATURE_SELFOVERLAP>
45.685

> <PUBCHEM_SHAPE_FINGERPRINT>
10 15 18408604794729350296
10006869 2 18341887455700630402
10299344 5 15791731914332413969
11331351 85 12757147995956361199
11719270 70 18335424551848437074
12838862 33 18343008991366688968
13402501 40 18334017181866187901
13673619 4 7853573496110905951
13782708 43 13984929780020535176
13811026 1 18411982416744905702
13914758 101 17386008342937922697
14347424 109 17458064898147718212
15131766 46 16953681646802562972
15142383 8 18186802487480289540
15183329 4 17676210161056098785
15238133 3 18261116326591386230
15289351 153 18341608153824157250
15419008 145 17676478402774633004
20554085 129 17775276158523927690
21033648 29 18261111898216314319
21150785 3 14476960086293158651
21403212 168 18341889689015202130
21792934 111 18337949000554412138
21859007 373 18334848411771134925
22224240 67 18343021107791489587
23559900 14 17703504502107076945
2838139 119 18336542802686914517
312425 54 15502661562905358144
335352 9 18341059579289968510
4073 2 16951141680236659395
4093350 32 16343710911004525076
4340502 62 18408887339031773678
5470011 282 10447929486313452802
563151 248 15068621621363233881
6004065 56 17060336370192358073
999808 66 8574713516478408569

> <PUBCHEM_SHAPE_MULTIPOLES>
623.7
24.02
2.48
1.61
18.96
0.13
0.27
11.02
-5.73
-1.41
0.05
-1.37
0.04
2.15

> <PUBCHEM_SHAPE_SELFOVERLAP>
1293.794

> <PUBCHEM_SHAPE_VOLUME>
355.6

> <PUBCHEM_COORDINATE_TYPE>
2
5
10

$$$$
