11867377
  -OEChem-12032416363D

 63 66  0     1  0  0  0  0  0999 V2000
   -0.3842    1.8318    0.9454 O   0  0  0  0  0  0  0  0  0  0  0  0
   -0.8510    3.8444   -1.3207 O   0  0  0  0  0  0  0  0  0  0  0  0
    2.1088    2.1431   -0.2354 O   0  0  0  0  0  0  0  0  0  0  0  0
   -5.1286    2.4572    0.9968 O   0  0  0  0  0  0  0  0  0  0  0  0
    2.6571    0.3554   -1.5519 O   0  0  0  0  0  0  0  0  0  0  0  0
    8.0826   -0.7242    2.1308 O   0  0  0  0  0  0  0  0  0  0  0  0
    6.1552   -2.8351   -1.6920 O   0  0  0  0  0  0  0  0  0  0  0  0
   -3.3231    1.4503   -0.0546 N   0  0  0  0  0  0  0  0  0  0  0  0
    3.9865    0.9980    0.2646 N   0  0  0  0  0  0  0  0  0  0  0  0
   -7.5952   -3.3364   -0.0068 N   0  0  0  0  0  0  0  0  0  0  0  0
   -1.3937    2.5285   -1.0840 C   0  0  1  0  0  0  0  0  0  0  0  0
   -0.2799    1.6959   -0.4817 C   0  0  1  0  0  0  0  0  0  0  0  0
   -2.4352    2.5855    0.0090 C   0  0  2  0  0  0  0  0  0  0  0  0
    0.9593    2.3708   -1.0189 C   0  0  1  0  0  0  0  0  0  0  0  0
   -1.5843    2.5518    1.2668 C   0  0  0  0  0  0  0  0  0  0  0  0
    0.5529    3.8272   -1.0235 C   0  0  0  0  0  0  0  0  0  0  0  0
   -4.6145    1.4835    0.4527 C   0  0  0  0  0  0  0  0  0  0  0  0
    2.9108    1.0809   -0.5981 C   0  0  0  0  0  0  0  0  0  0  0  0
   -5.3929    0.2238    0.3331 C   0  0  0  0  0  0  0  0  0  0  0  0
   -5.1070   -0.6781   -0.6918 C   0  0  0  0  0  0  0  0  0  0  0  0
   -6.4102   -0.0568    1.2454 C   0  0  0  0  0  0  0  0  0  0  0  0
    5.0433    0.0594    0.2504 C   0  0  0  0  0  0  0  0  0  0  0  0
   -5.8381   -1.8606   -0.8044 C   0  0  0  0  0  0  0  0  0  0  0  0
   -7.1413   -1.2392    1.1329 C   0  0  0  0  0  0  0  0  0  0  0  0
   -6.8552   -2.1412    0.1080 C   0  0  0  0  0  0  0  0  0  0  0  0
    5.0774   -0.9376   -0.7245 C   0  0  0  0  0  0  0  0  0  0  0  0
    6.0529    0.1310    1.2102 C   0  0  0  0  0  0  0  0  0  0  0  0
    7.0965   -0.7945    1.1952 C   0  0  0  0  0  0  0  0  0  0  0  0
    6.1209   -1.8630   -0.7396 C   0  0  0  0  0  0  0  0  0  0  0  0
    7.1305   -1.7914    0.2202 C   0  0  0  0  0  0  0  0  0  0  0  0
   -7.3148   -4.2734   -1.0766 C   0  0  0  0  0  0  0  0  0  0  0  0
   -8.6550   -3.6367    0.9352 C   0  0  0  0  0  0  0  0  0  0  0  0
    9.1189   -1.7021    2.0565 C   0  0  0  0  0  0  0  0  0  0  0  0
    7.2507   -3.7481   -1.6487 C   0  0  0  0  0  0  0  0  0  0  0  0
   -1.7570    2.1414   -2.0413 H   0  0  0  0  0  0  0  0  0  0  0  0
   -0.3380    0.6297   -0.7194 H   0  0  0  0  0  0  0  0  0  0  0  0
   -3.0332    3.5028   -0.0201 H   0  0  0  0  0  0  0  0  0  0  0  0
    1.1124    2.0726   -2.0654 H   0  0  0  0  0  0  0  0  0  0  0  0
   -1.2838    3.5631    1.5625 H   0  0  0  0  0  0  0  0  0  0  0  0
   -2.0735    2.0752    2.1217 H   0  0  0  0  0  0  0  0  0  0  0  0
    0.7149    4.3076   -0.0520 H   0  0  0  0  0  0  0  0  0  0  0  0
    1.0946    4.4083   -1.7759 H   0  0  0  0  0  0  0  0  0  0  0  0
   -2.9317    0.5773   -0.3928 H   0  0  0  0  0  0  0  0  0  0  0  0
    4.0258    1.6968    1.0026 H   0  0  0  0  0  0  0  0  0  0  0  0
   -4.3445   -0.4830   -1.4402 H   0  0  0  0  0  0  0  0  0  0  0  0
   -6.6447    0.6316    2.0532 H   0  0  0  0  0  0  0  0  0  0  0  0
   -5.5821   -2.5266   -1.6226 H   0  0  0  0  0  0  0  0  0  0  0  0
   -7.9217   -1.4119    1.8674 H   0  0  0  0  0  0  0  0  0  0  0  0
    4.3286   -1.0497   -1.4967 H   0  0  0  0  0  0  0  0  0  0  0  0
    6.0333    0.9058    1.9731 H   0  0  0  0  0  0  0  0  0  0  0  0
    7.9384   -2.5075    0.2081 H   0  0  0  0  0  0  0  0  0  0  0  0
   -7.9730   -5.1482   -1.0313 H   0  0  0  0  0  0  0  0  0  0  0  0
   -6.2889   -4.6528   -1.0118 H   0  0  0  0  0  0  0  0  0  0  0  0
   -7.4755   -3.8134   -2.0580 H   0  0  0  0  0  0  0  0  0  0  0  0
   -9.1306   -4.5993    0.7161 H   0  0  0  0  0  0  0  0  0  0  0  0
   -9.4475   -2.8812    0.8936 H   0  0  0  0  0  0  0  0  0  0  0  0
   -8.2678   -3.7073    1.9577 H   0  0  0  0  0  0  0  0  0  0  0  0
    8.7325   -2.7142    2.2188 H   0  0  0  0  0  0  0  0  0  0  0  0
    9.6916   -1.6148    1.1268 H   0  0  0  0  0  0  0  0  0  0  0  0
    9.8147   -1.4949    2.8764 H   0  0  0  0  0  0  0  0  0  0  0  0
    8.2068   -3.2410   -1.8181 H   0  0  0  0  0  0  0  0  0  0  0  0
    7.2469   -4.3412   -0.7279 H   0  0  0  0  0  0  0  0  0  0  0  0
    7.1152   -4.4510   -2.4775 H   0  0  0  0  0  0  0  0  0  0  0  0
  1 12  1  0  0  0  0
  1 15  1  0  0  0  0
  2 11  1  0  0  0  0
  2 16  1  0  0  0  0
  3 14  1  0  0  0  0
  3 18  1  0  0  0  0
  4 17  2  0  0  0  0
  5 18  2  0  0  0  0
  6 28  1  0  0  0  0
  6 33  1  0  0  0  0
  7 29  1  0  0  0  0
  7 34  1  0  0  0  0
  8 13  1  0  0  0  0
  8 17  1  0  0  0  0
  8 43  1  0  0  0  0
  9 18  1  0  0  0  0
  9 22  1  0  0  0  0
  9 44  1  0  0  0  0
 10 25  1  0  0  0  0
 10 31  1  0  0  0  0
 10 32  1  0  0  0  0
 11 12  1  0  0  0  0
 11 13  1  0  0  0  0
 11 35  1  0  0  0  0
 12 14  1  0  0  0  0
 12 36  1  0  0  0  0
 13 15  1  0  0  0  0
 13 37  1  0  0  0  0
 14 16  1  0  0  0  0
 14 38  1  0  0  0  0
 15 39  1  0  0  0  0
 15 40  1  0  0  0  0
 16 41  1  0  0  0  0
 16 42  1  0  0  0  0
 17 19  1  0  0  0  0
 19 20  2  0  0  0  0
 19 21  1  0  0  0  0
 20 23  1  0  0  0  0
 20 45  1  0  0  0  0
 21 24  2  0  0  0  0
 21 46  1  0  0  0  0
 22 26  2  0  0  0  0
 22 27  1  0  0  0  0
 23 25  2  0  0  0  0
 23 47  1  0  0  0  0
 24 25  1  0  0  0  0
 24 48  1  0  0  0  0
 26 29  1  0  0  0  0
 26 49  1  0  0  0  0
 27 28  2  0  0  0  0
 27 50  1  0  0  0  0
 28 30  1  0  0  0  0
 29 30  2  0  0  0  0
 30 51  1  0  0  0  0
 31 52  1  0  0  0  0
 31 53  1  0  0  0  0
 31 54  1  0  0  0  0
 32 55  1  0  0  0  0
 32 56  1  0  0  0  0
 32 57  1  0  0  0  0
 33 58  1  0  0  0  0
 33 59  1  0  0  0  0
 33 60  1  0  0  0  0
 34 61  1  0  0  0  0
 34 62  1  0  0  0  0
 34 63  1  0  0  0  0
M  END
> <PUBCHEM_COMPOUND_CID>
11867377

> <PUBCHEM_CONFORMER_RMSD>
1.2

> <PUBCHEM_CONFORMER_DIVERSEORDER>
1
19
9
31
28
22
6
34
21
11
30
5
17
32
2
24
7
29
12
20
26
35
25
10
16
27
14
3
18
8
15
36
4
23
33
13

> <PUBCHEM_MMFF94_PARTIAL_CHARGES>
43
1 -0.56
10 -0.84
11 0.28
12 0.28
13 0.3
14 0.28
15 0.28
16 0.28
17 0.54
18 0.78
19 0.09
2 -0.56
20 -0.15
21 -0.15
22 0.12
23 -0.15
24 -0.15
25 0.1
26 -0.15
27 -0.15
28 0.08
29 0.08
3 -0.43
30 -0.15
31 0.37
32 0.37
33 0.28
34 0.28
4 -0.57
43 0.37
44 0.37
45 0.15
46 0.15
47 0.15
48 0.15
49 0.15
5 -0.57
50 0.15
51 0.15
6 -0.36
7 -0.36
8 -0.73
9 -0.55

> <PUBCHEM_EFFECTIVE_ROTOR_COUNT>
11.2

> <PUBCHEM_PHARMACOPHORE_FEATURES>
13
1 1 acceptor
1 10 cation
1 2 acceptor
1 4 acceptor
1 5 acceptor
1 6 acceptor
1 7 acceptor
1 8 donor
1 9 donor
5 1 11 12 13 15 rings
5 2 11 12 14 16 rings
6 19 20 21 23 24 25 rings
6 22 26 27 28 29 30 rings

> <PUBCHEM_HEAVY_ATOM_COUNT>
34

> <PUBCHEM_ATOM_DEF_STEREO_COUNT>
4

> <PUBCHEM_ATOM_UDEF_STEREO_COUNT>
0

> <PUBCHEM_BOND_DEF_STEREO_COUNT>
0

> <PUBCHEM_BOND_UDEF_STEREO_COUNT>
0

> <PUBCHEM_ISOTOPIC_ATOM_COUNT>
0

> <PUBCHEM_COMPONENT_COUNT>
1

> <PUBCHEM_CACTVS_TAUTO_COUNT>
4

> <PUBCHEM_CONFORMER_ID>
00B514F100000001

> <PUBCHEM_MMFF94_ENERGY>
133.1606

> <PUBCHEM_FEATURE_SELFOVERLAP>
66.691

> <PUBCHEM_SHAPE_FINGERPRINT>
10100884 174 18334572477634636954
10190206 1 12179836165474923758
10258705 36 18056488253641205542
10391435 84 18340478976556879461
10669705 251 18342745104577111070
11103572 95 18130512912197202747
11497681 19 18409456877797674724
11607047 403 17981601890113519504
117089 54 18337118951133559947
11963148 33 18189614947793210586
1361 4 18338803428225889229
13782708 43 18410854335216580272
14344974 204 18409448068123359234
14359421 15 17676758851918987251
14664723 55 11819265647247458279
15131766 46 9943260173694396747
15152005 304 18337404832478217171
15152005 77 18343580764054161119
15183329 4 13551192156568151772
15347591 1 18410857694229827717
15510800 12 18261969499906021067
16067689 68 18059311868072156515
16992779 147 16700873064738109328
19303781 99 18337100280921020943
19841028 212 18262237836909699097
20028762 73 18410577288129449670
2026 5 18114176450141977483
20691028 202 10159692495442755498
208703 8 18336260236883709171
21130935 74 18343588421479176144
212700 22 18412821391831576743
21424621 283 9943801183995430196
21585481 151 18270691874035648638
21585483 132 18040987475486472115
21792938 703 17823419473230466337
21987483 16 18262512719285944048
22002106 203 18335692896804136771
23569914 152 11820369509888245160
23569943 247 18265054816578067139
24204213 310 16627407064592415399
24983565 74 18117549635752241762
25025965 108 17750782260893210218
25242607 90 18409725188050165937
2747138 104 18130787790547375152
2835820 40 9582426892798560003
3383291 50 18335140903481410979
3504750 166 18341338812737420561
393628 194 11095877190246631507
397830 11 18130501960173282632
3986486 107 7925631133693904698
406291 66 18334292102200643395
474113 269 18200588229337764743
50009960 94 18270396234969134831
50742298 180 18337673130236664391
5718773 13 18335701671854500753
57634706 229 11887668519915631829
5874358 3 18041268937477754946
636775 72 9222357707857259462
6712543 237 16845860087808297439
96874 4 18338515356754489607
9962374 69 18113621188559524540

> <PUBCHEM_SHAPE_MULTIPOLES>
643.68
30.19
5.39
1.63
9.68
1.22
-0.23
43.32
-9.96
-6.15
2.09
2.53
0.51
0.14

> <PUBCHEM_SHAPE_SELFOVERLAP>
1379.719

> <PUBCHEM_SHAPE_VOLUME>
357.2

> <PUBCHEM_COORDINATE_TYPE>
2
5
10

$$$$
