45783280
  -OEChem-12032416363D

 52 55  0     1  0  0  0  0  0999 V2000
   -2.6175    2.2281    0.1197 O   0  0  0  0  0  0  0  0  0  0  0  0
    5.4072   -2.3057    0.3243 O   0  0  0  0  0  0  0  0  0  0  0  0
   -3.2623   -1.3248    0.8029 N   0  0  1  0  0  0  0  0  0  0  0  0
   -1.0696    0.6942    0.6373 N   0  0  0  0  0  0  0  0  0  0  0  0
   -1.3770    2.8211   -0.1473 N   0  0  0  0  0  0  0  0  0  0  0  0
   -0.1667   -0.9092   -3.1386 N   0  0  0  0  0  0  0  0  0  0  0  0
    3.9775    0.1174    0.6711 N   0  0  0  0  0  0  0  0  0  0  0  0
    3.6747    2.3339   -0.1489 N   0  0  0  0  0  0  0  0  0  0  0  0
   -3.5389    0.1189    0.9419 C   0  0  1  0  0  0  0  0  0  0  0  0
   -3.9726    0.2947    2.4090 C   0  0  0  0  0  0  0  0  0  0  0  0
   -3.9679   -1.1096    2.9960 C   0  0  0  0  0  0  0  0  0  0  0  0
   -4.1112   -2.0045    1.7815 C   0  0  0  0  0  0  0  0  0  0  0  0
   -3.4771   -1.8233   -0.5494 C   0  0  0  0  0  0  0  0  0  0  0  0
   -2.3462    0.9780    0.5779 C   0  0  0  0  0  0  0  0  0  0  0  0
   -2.3183   -1.5030   -1.4558 C   0  0  0  0  0  0  0  0  0  0  0  0
   -0.5147    1.8550    0.1826 C   0  0  0  0  0  0  0  0  0  0  0  0
   -2.5198   -0.7498   -2.6071 C   0  0  0  0  0  0  0  0  0  0  0  0
   -1.0423   -1.9596   -1.1448 C   0  0  0  0  0  0  0  0  0  0  0  0
    0.9060    2.0177    0.0713 C   0  0  0  0  0  0  0  0  0  0  0  0
   -1.4211   -0.4828   -3.4078 C   0  0  0  0  0  0  0  0  0  0  0  0
   -0.0096   -1.6384   -2.0110 C   0  0  0  0  0  0  0  0  0  0  0  0
    1.7579    0.9785    0.4289 C   0  0  0  0  0  0  0  0  0  0  0  0
    1.4369    3.2149   -0.3962 C   0  0  0  0  0  0  0  0  0  0  0  0
    3.1221    1.1852    0.3014 C   0  0  0  0  0  0  0  0  0  0  0  0
    2.8153    3.3215   -0.4869 C   0  0  0  0  0  0  0  0  0  0  0  0
    3.4855   -1.1301    1.1576 C   0  0  0  0  0  0  0  0  0  0  0  0
    4.6461   -2.0494    1.4979 C   0  0  0  0  0  0  0  0  0  0  0  0
    6.5036   -3.1688    0.5926 C   0  0  0  0  0  0  0  0  0  0  0  0
   -4.3862    0.4157    0.3076 H   0  0  0  0  0  0  0  0  0  0  0  0
   -3.3213    0.9599    2.9863 H   0  0  0  0  0  0  0  0  0  0  0  0
   -4.9895    0.7042    2.4461 H   0  0  0  0  0  0  0  0  0  0  0  0
   -4.7719   -1.2568    3.7231 H   0  0  0  0  0  0  0  0  0  0  0  0
   -3.0124   -1.2994    3.5006 H   0  0  0  0  0  0  0  0  0  0  0  0
   -5.1589   -2.0401    1.4567 H   0  0  0  0  0  0  0  0  0  0  0  0
   -3.7676   -3.0225    1.9894 H   0  0  0  0  0  0  0  0  0  0  0  0
   -4.4268   -1.4659   -0.9687 H   0  0  0  0  0  0  0  0  0  0  0  0
   -3.5563   -2.9196   -0.5345 H   0  0  0  0  0  0  0  0  0  0  0  0
   -3.5004   -0.3754   -2.8801 H   0  0  0  0  0  0  0  0  0  0  0  0
   -0.8468   -2.5525   -0.2577 H   0  0  0  0  0  0  0  0  0  0  0  0
   -1.5248    0.1014   -4.3162 H   0  0  0  0  0  0  0  0  0  0  0  0
    1.0046   -1.9694   -1.8129 H   0  0  0  0  0  0  0  0  0  0  0  0
    1.3401    0.0462    0.7911 H   0  0  0  0  0  0  0  0  0  0  0  0
    0.8223    4.0593   -0.6900 H   0  0  0  0  0  0  0  0  0  0  0  0
    3.2798    4.2341   -0.8456 H   0  0  0  0  0  0  0  0  0  0  0  0
    4.9728    0.2801    0.5697 H   0  0  0  0  0  0  0  0  0  0  0  0
    2.8851   -0.9920    2.0643 H   0  0  0  0  0  0  0  0  0  0  0  0
    2.8721   -1.6179    0.3903 H   0  0  0  0  0  0  0  0  0  0  0  0
    5.2888   -1.5857    2.2563 H   0  0  0  0  0  0  0  0  0  0  0  0
    4.2588   -2.9946    1.8958 H   0  0  0  0  0  0  0  0  0  0  0  0
    6.1494   -4.1359    0.9624 H   0  0  0  0  0  0  0  0  0  0  0  0
    7.0500   -3.3312   -0.3404 H   0  0  0  0  0  0  0  0  0  0  0  0
    7.1824   -2.7124    1.3195 H   0  0  0  0  0  0  0  0  0  0  0  0
  1  5  1  0  0  0  0
  1 14  1  0  0  0  0
  2 27  1  0  0  0  0
  2 28  1  0  0  0  0
  3  9  1  0  0  0  0
  3 12  1  0  0  0  0
  3 13  1  0  0  0  0
  4 14  2  0  0  0  0
  4 16  1  0  0  0  0
  5 16  2  0  0  0  0
  6 20  2  0  0  0  0
  6 21  1  0  0  0  0
  7 24  1  0  0  0  0
  7 26  1  0  0  0  0
  7 45  1  0  0  0  0
  8 24  2  0  0  0  0
  8 25  1  0  0  0  0
  9 10  1  0  0  0  0
  9 14  1  0  0  0  0
  9 29  1  0  0  0  0
 10 11  1  0  0  0  0
 10 30  1  0  0  0  0
 10 31  1  0  0  0  0
 11 12  1  0  0  0  0
 11 32  1  0  0  0  0
 11 33  1  0  0  0  0
 12 34  1  0  0  0  0
 12 35  1  0  0  0  0
 13 15  1  0  0  0  0
 13 36  1  0  0  0  0
 13 37  1  0  0  0  0
 15 17  2  0  0  0  0
 15 18  1  0  0  0  0
 16 19  1  0  0  0  0
 17 20  1  0  0  0  0
 17 38  1  0  0  0  0
 18 21  2  0  0  0  0
 18 39  1  0  0  0  0
 19 22  2  0  0  0  0
 19 23  1  0  0  0  0
 20 40  1  0  0  0  0
 21 41  1  0  0  0  0
 22 24  1  0  0  0  0
 22 42  1  0  0  0  0
 23 25  2  0  0  0  0
 23 43  1  0  0  0  0
 25 44  1  0  0  0  0
 26 27  1  0  0  0  0
 26 46  1  0  0  0  0
 26 47  1  0  0  0  0
 27 48  1  0  0  0  0
 27 49  1  0  0  0  0
 28 50  1  0  0  0  0
 28 51  1  0  0  0  0
 28 52  1  0  0  0  0
M  END
> <PUBCHEM_COMPOUND_CID>
45783280

> <PUBCHEM_CONFORMER_RMSD>
1

> <PUBCHEM_CONFORMER_DIVERSEORDER>
1
114
103
42
13
20
31
54
85
115
111
71
78
19
81
18
53
70
100
108
113
43
61
33
93
102
36
60
52
97
37
91
39
32
105
49
35
101
107
58
77
98
16
25
66
94
76
56
116
44
84
99
63
90
51
104
23
64
75
87
6
8
112
62
92
3
48
41
30
79
74
96
50
55
69
95
89
45
83
2
109
117
24
82
59
57
106
14
80
88
34
4
68
29
38
73
28
40
26
72
15
5
47
86
27
67
21
110
9
10
22
65
17
7
11
46
12

> <PUBCHEM_MMFF94_PARTIAL_CHARGES>
34
1 -0.02
12 0.27
13 0.41
14 0.3
15 -0.14
16 0.46
17 -0.15
18 -0.15
19 0.05
2 -0.56
20 0.16
21 0.16
22 -0.15
23 -0.15
24 0.41
25 0.16
26 0.37
27 0.28
28 0.28
3 -0.81
38 0.15
39 0.15
4 -0.57
40 0.15
41 0.15
42 0.15
43 0.15
44 0.15
45 0.4
5 -0.41
6 -0.62
7 -0.87
8 -0.62
9 0.45

> <PUBCHEM_EFFECTIVE_ROTOR_COUNT>
9

> <PUBCHEM_PHARMACOPHORE_FEATURES>
10
1 2 acceptor
1 3 cation
1 6 acceptor
1 7 donor
3 4 5 16 cation
3 7 8 24 cation
5 1 4 5 14 16 rings
5 3 9 10 11 12 rings
6 6 15 17 18 20 21 rings
6 8 19 22 23 24 25 rings

> <PUBCHEM_HEAVY_ATOM_COUNT>
28

> <PUBCHEM_ATOM_DEF_STEREO_COUNT>
1

> <PUBCHEM_ATOM_UDEF_STEREO_COUNT>
0

> <PUBCHEM_BOND_DEF_STEREO_COUNT>
0

> <PUBCHEM_BOND_UDEF_STEREO_COUNT>
0

> <PUBCHEM_ISOTOPIC_ATOM_COUNT>
0

> <PUBCHEM_COMPONENT_COUNT>
1

> <PUBCHEM_CACTVS_TAUTO_COUNT>
2

> <PUBCHEM_CONFORMER_ID>
02BA98F000000001

> <PUBCHEM_MMFF94_ENERGY>
65.2702

> <PUBCHEM_FEATURE_SELFOVERLAP>
50.747

> <PUBCHEM_SHAPE_FINGERPRINT>
10764073 3 18188782626460168081
11135926 11 18263358265540305676
11607047 141 15866927545676003105
11725454 13 13901369043677246841
12422481 6 17845945017735828006
12788726 201 16410985857316576621
14910302 57 16226868060509235937
15537594 2 18341338868249631272
16110190 28 18272369742355360482
17809404 112 17683196487697739250
19319366 153 17835253615543718696
21796203 349 18198367142280844560
345986 75 17127598028097336919
484985 159 18190162521441893751
7064713 232 17275111617155642787
9862522 239 17774453762744332881

> <PUBCHEM_SHAPE_MULTIPOLES>
534.6
10.28
3.89
2.85
12.71
1.53
-1.65
-8.96
6.88
4.75
0.07
-3.76
-1.81
-1.31

> <PUBCHEM_SHAPE_SELFOVERLAP>
1145.038

> <PUBCHEM_SHAPE_VOLUME>
295.6

> <PUBCHEM_COORDINATE_TYPE>
2
5
10

$$$$
