26743024
  -OEChem-12032416183D

 57 59  0     1  0  0  0  0  0999 V2000
   -1.1009    2.3228   -1.9743 O   0  0  0  0  0  0  0  0  0  0  0  0
    1.2625   -2.1766    0.3400 O   0  0  0  0  0  0  0  0  0  0  0  0
    1.2140   -4.9337   -0.8598 O   0  0  0  0  0  0  0  0  0  0  0  0
    2.6168    2.6682    1.6480 O   0  0  0  0  0  0  0  0  0  0  0  0
   -4.6350   -1.1124    0.2787 N   0  0  0  0  0  0  0  0  0  0  0  0
   -0.0113    3.2152   -0.1257 N   0  0  0  0  0  0  0  0  0  0  0  0
    0.5536   -0.9876    0.4624 N   0  0  0  0  0  0  0  0  0  0  0  0
   -3.2070    1.3823   -0.2801 C   0  0  1  0  0  0  0  0  0  0  0  0
   -2.4854    0.0131   -0.2973 C   0  0  2  0  0  0  0  0  0  0  0  0
   -4.4553    1.3357    0.6138 C   0  0  0  0  0  0  0  0  0  0  0  0
   -3.4981   -1.0943   -0.6435 C   0  0  0  0  0  0  0  0  0  0  0  0
   -5.3591    0.1581    0.2504 C   0  0  0  0  0  0  0  0  0  0  0  0
   -1.7458   -0.3145    1.0066 C   0  0  0  0  0  0  0  0  0  0  0  0
   -2.2968    2.5435    0.1170 C   0  0  0  0  0  0  0  0  0  0  0  0
   -0.6882   -1.3575    0.7885 C   0  0  0  0  0  0  0  0  0  0  0  0
   -1.0958    2.6683   -0.7959 C   0  0  0  0  0  0  0  0  0  0  0  0
   -0.8212   -2.7534    0.8850 C   0  0  0  0  0  0  0  0  0  0  0  0
    0.4331   -3.2210    0.5939 C   0  0  0  0  0  0  0  0  0  0  0  0
    1.2694    3.4468   -0.7534 C   0  0  0  0  0  0  0  0  0  0  0  0
    1.0231   -4.5622    0.5082 C   0  0  0  0  0  0  0  0  0  0  0  0
    2.1631    2.2435   -0.6672 C   0  0  0  0  0  0  0  0  0  0  0  0
    2.7960    1.9100    0.5302 C   0  0  0  0  0  0  0  0  0  0  0  0
    2.3572    1.4555   -1.8017 C   0  0  0  0  0  0  0  0  0  0  0  0
    3.6232    0.7886    0.5930 C   0  0  0  0  0  0  0  0  0  0  0  0
    3.1845    0.3343   -1.7388 C   0  0  0  0  0  0  0  0  0  0  0  0
    3.8176    0.0007   -0.5416 C   0  0  0  0  0  0  0  0  0  0  0  0
    1.7838   -6.2278   -0.9648 C   0  0  0  0  0  0  0  0  0  0  0  0
    3.3021    2.2542    2.8282 C   0  0  0  0  0  0  0  0  0  0  0  0
   -3.5572    1.5705   -1.3061 H   0  0  0  0  0  0  0  0  0  0  0  0
   -1.7531    0.0277   -1.1155 H   0  0  0  0  0  0  0  0  0  0  0  0
   -5.0221    2.2690    0.5128 H   0  0  0  0  0  0  0  0  0  0  0  0
   -4.1604    1.2583    1.6682 H   0  0  0  0  0  0  0  0  0  0  0  0
   -3.8689   -0.9451   -1.6662 H   0  0  0  0  0  0  0  0  0  0  0  0
   -3.0286   -2.0818   -0.6475 H   0  0  0  0  0  0  0  0  0  0  0  0
   -6.1937    0.1070    0.9584 H   0  0  0  0  0  0  0  0  0  0  0  0
   -5.8010    0.3112   -0.7416 H   0  0  0  0  0  0  0  0  0  0  0  0
   -1.2308    0.5638    1.4074 H   0  0  0  0  0  0  0  0  0  0  0  0
   -2.4230   -0.6411    1.8027 H   0  0  0  0  0  0  0  0  0  0  0  0
   -1.9952    2.4804    1.1672 H   0  0  0  0  0  0  0  0  0  0  0  0
   -2.8529    3.4856    0.0219 H   0  0  0  0  0  0  0  0  0  0  0  0
   -4.3140   -1.3006    1.2266 H   0  0  0  0  0  0  0  0  0  0  0  0
   -1.6961   -3.3361    1.1332 H   0  0  0  0  0  0  0  0  0  0  0  0
   -0.1017    3.4624    0.8554 H   0  0  0  0  0  0  0  0  0  0  0  0
    1.7361    4.3057   -0.2580 H   0  0  0  0  0  0  0  0  0  0  0  0
    1.1049    3.7369   -1.7979 H   0  0  0  0  0  0  0  0  0  0  0  0
    1.9891   -4.5764    1.0269 H   0  0  0  0  0  0  0  0  0  0  0  0
    0.3639   -5.2929    0.9916 H   0  0  0  0  0  0  0  0  0  0  0  0
    1.8692    1.7008   -2.7412 H   0  0  0  0  0  0  0  0  0  0  0  0
    4.1461    0.4671    1.4870 H   0  0  0  0  0  0  0  0  0  0  0  0
    3.3344   -0.2804   -2.6216 H   0  0  0  0  0  0  0  0  0  0  0  0
    4.4599   -0.8739   -0.4934 H   0  0  0  0  0  0  0  0  0  0  0  0
    1.9098   -6.4642   -2.0248 H   0  0  0  0  0  0  0  0  0  0  0  0
    1.1233   -6.9773   -0.5179 H   0  0  0  0  0  0  0  0  0  0  0  0
    2.7661   -6.2565   -0.4833 H   0  0  0  0  0  0  0  0  0  0  0  0
    3.0460    2.9698    3.6166 H   0  0  0  0  0  0  0  0  0  0  0  0
    4.3892    2.2982    2.7008 H   0  0  0  0  0  0  0  0  0  0  0  0
    2.9605    1.2710    3.1694 H   0  0  0  0  0  0  0  0  0  0  0  0
  1 16  2  0  0  0  0
  2  7  1  0  0  0  0
  2 18  1  0  0  0  0
  3 20  1  0  0  0  0
  3 27  1  0  0  0  0
  4 22  1  0  0  0  0
  4 28  1  0  0  0  0
  5 11  1  0  0  0  0
  5 12  1  0  0  0  0
  5 41  1  0  0  0  0
  6 16  1  0  0  0  0
  6 19  1  0  0  0  0
  6 43  1  0  0  0  0
  7 15  2  0  0  0  0
  8  9  1  0  0  0  0
  8 10  1  0  0  0  0
  8 14  1  0  0  0  0
  8 29  1  0  0  0  0
  9 11  1  0  0  0  0
  9 13  1  0  0  0  0
  9 30  1  0  0  0  0
 10 12  1  0  0  0  0
 10 31  1  0  0  0  0
 10 32  1  0  0  0  0
 11 33  1  0  0  0  0
 11 34  1  0  0  0  0
 12 35  1  0  0  0  0
 12 36  1  0  0  0  0
 13 15  1  0  0  0  0
 13 37  1  0  0  0  0
 13 38  1  0  0  0  0
 14 16  1  0  0  0  0
 14 39  1  0  0  0  0
 14 40  1  0  0  0  0
 15 17  1  0  0  0  0
 17 18  2  0  0  0  0
 17 42  1  0  0  0  0
 18 20  1  0  0  0  0
 19 21  1  0  0  0  0
 19 44  1  0  0  0  0
 19 45  1  0  0  0  0
 20 46  1  0  0  0  0
 20 47  1  0  0  0  0
 21 22  1  0  0  0  0
 21 23  2  0  0  0  0
 22 24  2  0  0  0  0
 23 25  1  0  0  0  0
 23 48  1  0  0  0  0
 24 26  1  0  0  0  0
 24 49  1  0  0  0  0
 25 26  2  0  0  0  0
 25 50  1  0  0  0  0
 26 51  1  0  0  0  0
 27 52  1  0  0  0  0
 27 53  1  0  0  0  0
 27 54  1  0  0  0  0
 28 55  1  0  0  0  0
 28 56  1  0  0  0  0
 28 57  1  0  0  0  0
M  END
> <PUBCHEM_COMPOUND_CID>
26743024

> <PUBCHEM_CONFORMER_RMSD>
1.2

> <PUBCHEM_CONFORMER_DIVERSEORDER>
2
49
31
67
124
86
37
81
92
61
7
48
121
46
140
1
24
65
58
128
71
122
63
141
111
27
134
142
117
5
9
15
136
116
120
102
30
62
34
95
108
53
132
99
78
59
28
133
73
41
125
93
64
55
8
85
119
33
36
130
16
14
42
57
18
97
76
83
115
47
123
43
3
50
101
70
98
19
104
105
131
23
109
107
106
96
126
51
110
94
11
103
6
44
38
118
79
29
91
60
75
32
127
39
20
54
35
138
4
74
139
88
87
26
56
21
90
13
25
17
52
45
69
10
129
137
112
114
12
100
40
135
113
77
82
80
84
89
66
68
72
22

> <PUBCHEM_MMFF94_PARTIAL_CHARGES>
32
1 -0.57
11 0.27
12 0.27
13 0.18
14 0.06
15 0.11
16 0.57
17 -0.15
18 -0.04
19 0.44
2 -0.02
20 0.46
21 -0.14
22 0.08
23 -0.15
24 -0.15
25 -0.15
26 -0.15
27 0.28
28 0.28
3 -0.56
4 -0.36
41 0.36
42 0.15
43 0.37
48 0.15
49 0.15
5 -0.9
50 0.15
51 0.15
6 -0.73
7 -0.41

> <PUBCHEM_EFFECTIVE_ROTOR_COUNT>
11.2

> <PUBCHEM_PHARMACOPHORE_FEATURES>
10
1 1 acceptor
1 3 acceptor
1 4 acceptor
1 5 cation
1 5 donor
1 6 donor
1 7 acceptor
5 2 7 15 17 18 rings
6 21 22 23 24 25 26 rings
6 5 8 9 10 11 12 rings

> <PUBCHEM_HEAVY_ATOM_COUNT>
28

> <PUBCHEM_ATOM_DEF_STEREO_COUNT>
2

> <PUBCHEM_ATOM_UDEF_STEREO_COUNT>
0

> <PUBCHEM_BOND_DEF_STEREO_COUNT>
0

> <PUBCHEM_BOND_UDEF_STEREO_COUNT>
0

> <PUBCHEM_ISOTOPIC_ATOM_COUNT>
0

> <PUBCHEM_COMPONENT_COUNT>
1

> <PUBCHEM_CACTVS_TAUTO_COUNT>
2

> <PUBCHEM_CONFORMER_ID>
019810F000000002

> <PUBCHEM_MMFF94_ENERGY>
56.1784

> <PUBCHEM_FEATURE_SELFOVERLAP>
50.747

> <PUBCHEM_SHAPE_FINGERPRINT>
11014199 57 17832429691905490867
11513181 2 18196384829573371110
12156800 1 14437732938945979008
12633257 1 18122887983584538536
12788726 201 17252870957979074147
13122387 1 17253708274674741636
13402501 40 18410858772028326284
14114211 80 18121813696035200276
15297060 5 18267045983535158625
15403338 16 16517621751775619113
16728300 4 17389626805893260618
17093844 170 18409450323244985728
19591789 44 18119256297014688027
19930381 70 18335424526109794487
20028762 73 18340771563046807087
20101258 96 17543089891573482571
20775438 99 17193456631180434367
20905425 154 18050290267164402084
22113638 7 18045496666902538613
2818148 4 17834695806623367773
484985 159 13559564787231867744
5265222 85 18335717026853467932
6287921 2 18337669698920960427

> <PUBCHEM_SHAPE_MULTIPOLES>
537.81
7.68
6.94
1.64
7.05
12.84
0.42
-3.31
0.73
-5.16
-1.23
-1.78
-1.01
1.33

> <PUBCHEM_SHAPE_SELFOVERLAP>
1119.767

> <PUBCHEM_SHAPE_VOLUME>
305

> <PUBCHEM_COORDINATE_TYPE>
2
5
10

$$$$
