7144102
  -OEChem-12032416113D

 54 57  0     1  0  0  0  0  0999 V2000
   -2.4919    2.7800    2.1814 O   0  0  0  0  0  0  0  0  0  0  0  0
   -3.8880   -1.2124   -0.9581 O   0  0  0  0  0  0  0  0  0  0  0  0
   -3.5896   -2.7120    1.2325 O   0  0  0  0  0  0  0  0  0  0  0  0
    5.6896   -1.7353   -0.3836 O   0  0  0  0  0  0  0  0  0  0  0  0
   -1.8868   -0.2949   -1.7000 N   0  0  0  0  0  0  0  0  0  0  0  0
   -1.1659    1.9485    0.4389 N   0  0  0  0  0  0  0  0  0  0  0  0
   -1.8777    2.1759   -2.0134 C   0  0  1  0  0  0  0  0  0  0  0  0
    0.2138    1.0165   -1.4451 C   0  0  2  0  0  0  0  0  0  0  0  0
   -0.3851    2.1318   -2.3003 C   0  0  0  0  0  0  0  0  0  0  0  0
   -2.5409    0.8333   -2.3626 C   0  0  0  0  0  0  0  0  0  0  0  0
   -2.0791    2.5478   -0.5439 C   0  0  0  0  0  0  0  0  0  0  0  0
   -0.4251   -0.3317   -1.8391 C   0  0  0  0  0  0  0  0  0  0  0  0
    0.0125    1.2809    0.0496 C   0  0  0  0  0  0  0  0  0  0  0  0
    0.9031    0.8757    0.9921 C   0  0  0  0  0  0  0  0  0  0  0  0
   -1.4853    2.1909    1.7868 C   0  0  0  0  0  0  0  0  0  0  0  0
   -2.6597   -1.2650   -1.0626 C   0  0  0  0  0  0  0  0  0  0  0  0
    0.6056    1.1054    2.3932 C   0  0  0  0  0  0  0  0  0  0  0  0
   -0.5142    1.7069    2.7939 C   0  0  0  0  0  0  0  0  0  0  0  0
    2.1622    0.1882    0.6306 C   0  0  0  0  0  0  0  0  0  0  0  0
   -1.9189   -2.4348   -0.4657 C   0  0  0  0  0  0  0  0  0  0  0  0
   -2.9064   -3.3823    0.1806 C   0  0  0  0  0  0  0  0  0  0  0  0
    2.1847   -1.1982    0.5160 C   0  0  0  0  0  0  0  0  0  0  0  0
    3.3157    0.9338    0.4072 C   0  0  0  0  0  0  0  0  0  0  0  0
    3.3722   -1.8456    0.1747 C   0  0  0  0  0  0  0  0  0  0  0  0
    4.5032    0.2866    0.0659 C   0  0  0  0  0  0  0  0  0  0  0  0
    4.5315   -1.1033   -0.0504 C   0  0  0  0  0  0  0  0  0  0  0  0
   -4.5172   -3.5707    1.8814 C   0  0  0  0  0  0  0  0  0  0  0  0
    6.8378   -0.9161   -0.5999 C   0  0  0  0  0  0  0  0  0  0  0  0
   -2.3490    2.9485   -2.6333 H   0  0  0  0  0  0  0  0  0  0  0  0
    1.2812    0.9723   -1.6887 H   0  0  0  0  0  0  0  0  0  0  0  0
    0.0846    3.0957   -2.0672 H   0  0  0  0  0  0  0  0  0  0  0  0
   -0.2060    1.9368   -3.3648 H   0  0  0  0  0  0  0  0  0  0  0  0
   -3.6077    0.8628   -2.1170 H   0  0  0  0  0  0  0  0  0  0  0  0
   -2.4664    0.6513   -3.4419 H   0  0  0  0  0  0  0  0  0  0  0  0
   -1.9506    3.6342   -0.4390 H   0  0  0  0  0  0  0  0  0  0  0  0
   -3.1117    2.3386   -0.2362 H   0  0  0  0  0  0  0  0  0  0  0  0
   -0.2174   -0.5461   -2.8951 H   0  0  0  0  0  0  0  0  0  0  0  0
    0.0120   -1.1497   -1.2683 H   0  0  0  0  0  0  0  0  0  0  0  0
    1.3209    0.7601    3.1340 H   0  0  0  0  0  0  0  0  0  0  0  0
   -0.7309    1.8692    3.8430 H   0  0  0  0  0  0  0  0  0  0  0  0
   -1.2321   -2.0535    0.2975 H   0  0  0  0  0  0  0  0  0  0  0  0
   -1.3593   -2.9556   -1.2487 H   0  0  0  0  0  0  0  0  0  0  0  0
   -2.3636   -4.2411    0.5926 H   0  0  0  0  0  0  0  0  0  0  0  0
   -3.6308   -3.7540   -0.5547 H   0  0  0  0  0  0  0  0  0  0  0  0
    1.2933   -1.7924    0.6988 H   0  0  0  0  0  0  0  0  0  0  0  0
    3.3071    2.0176    0.4938 H   0  0  0  0  0  0  0  0  0  0  0  0
    3.3884   -2.9285    0.0879 H   0  0  0  0  0  0  0  0  0  0  0  0
    5.3661    0.9237   -0.0952 H   0  0  0  0  0  0  0  0  0  0  0  0
   -4.0011   -4.4257    2.3287 H   0  0  0  0  0  0  0  0  0  0  0  0
   -5.2787   -3.9162    1.1755 H   0  0  0  0  0  0  0  0  0  0  0  0
   -5.0103   -3.0059    2.6771 H   0  0  0  0  0  0  0  0  0  0  0  0
    7.1271   -0.3803    0.3106 H   0  0  0  0  0  0  0  0  0  0  0  0
    6.6961   -0.2417   -1.4512 H   0  0  0  0  0  0  0  0  0  0  0  0
    7.6674   -1.5834   -0.8554 H   0  0  0  0  0  0  0  0  0  0  0  0
  1 15  2  0  0  0  0
  2 16  2  0  0  0  0
  3 21  1  0  0  0  0
  3 27  1  0  0  0  0
  4 26  1  0  0  0  0
  4 28  1  0  0  0  0
  5 10  1  0  0  0  0
  5 12  1  0  0  0  0
  5 16  1  0  0  0  0
  6 11  1  0  0  0  0
  6 13  1  0  0  0  0
  6 15  1  0  0  0  0
  7  9  1  0  0  0  0
  7 10  1  0  0  0  0
  7 11  1  0  0  0  0
  7 29  1  0  0  0  0
  8  9  1  0  0  0  0
  8 12  1  0  0  0  0
  8 13  1  0  0  0  0
  8 30  1  0  0  0  0
  9 31  1  0  0  0  0
  9 32  1  0  0  0  0
 10 33  1  0  0  0  0
 10 34  1  0  0  0  0
 11 35  1  0  0  0  0
 11 36  1  0  0  0  0
 12 37  1  0  0  0  0
 12 38  1  0  0  0  0
 13 14  2  0  0  0  0
 14 17  1  0  0  0  0
 14 19  1  0  0  0  0
 15 18  1  0  0  0  0
 16 20  1  0  0  0  0
 17 18  2  0  0  0  0
 17 39  1  0  0  0  0
 18 40  1  0  0  0  0
 19 22  2  0  0  0  0
 19 23  1  0  0  0  0
 20 21  1  0  0  0  0
 20 41  1  0  0  0  0
 20 42  1  0  0  0  0
 21 43  1  0  0  0  0
 21 44  1  0  0  0  0
 22 24  1  0  0  0  0
 22 45  1  0  0  0  0
 23 25  2  0  0  0  0
 23 46  1  0  0  0  0
 24 26  2  0  0  0  0
 24 47  1  0  0  0  0
 25 26  1  0  0  0  0
 25 48  1  0  0  0  0
 27 49  1  0  0  0  0
 27 50  1  0  0  0  0
 27 51  1  0  0  0  0
 28 52  1  0  0  0  0
 28 53  1  0  0  0  0
 28 54  1  0  0  0  0
M  END
> <PUBCHEM_COMPOUND_CID>
7144102

> <PUBCHEM_CONFORMER_RMSD>
0.8

> <PUBCHEM_CONFORMER_DIVERSEORDER>
1
9
7
10
6
4
5
3
8
2

> <PUBCHEM_MMFF94_PARTIAL_CHARGES>
32
1 -0.57
10 0.3
11 0.3
12 0.3
13 -0.03
14 -0.03
15 0.62
16 0.57
17 -0.15
18 -0.14
19 0.03
2 -0.57
20 0.06
21 0.28
22 -0.15
23 -0.15
24 -0.15
25 -0.15
26 0.08
27 0.28
28 0.28
3 -0.56
39 0.15
4 -0.36
40 0.15
45 0.15
46 0.15
47 0.15
48 0.15
5 -0.66
6 -0.47
8 0.14

> <PUBCHEM_EFFECTIVE_ROTOR_COUNT>
7

> <PUBCHEM_PHARMACOPHORE_FEATURES>
8
1 1 acceptor
1 2 acceptor
1 3 acceptor
1 4 acceptor
6 19 22 23 24 25 26 rings
6 5 7 8 9 10 12 rings
6 6 13 14 15 17 18 rings
6 6 7 8 9 11 13 rings

> <PUBCHEM_HEAVY_ATOM_COUNT>
28

> <PUBCHEM_ATOM_DEF_STEREO_COUNT>
2

> <PUBCHEM_ATOM_UDEF_STEREO_COUNT>
0

> <PUBCHEM_BOND_DEF_STEREO_COUNT>
0

> <PUBCHEM_BOND_UDEF_STEREO_COUNT>
0

> <PUBCHEM_ISOTOPIC_ATOM_COUNT>
0

> <PUBCHEM_COMPONENT_COUNT>
1

> <PUBCHEM_CACTVS_TAUTO_COUNT>
1

> <PUBCHEM_CONFORMER_ID>
006D02A600000001

> <PUBCHEM_MMFF94_ENERGY>
88.0929

> <PUBCHEM_FEATURE_SELFOVERLAP>
42.171

> <PUBCHEM_SHAPE_FINGERPRINT>
10764073 3 14545413420911608590
107951 10 18121205490280218709
11954058 11 17831585640949204867
12156800 1 17767732409097478495
12633257 1 16988292004885933407
12788726 201 17487605334520520721
13103583 49 17345205582374666963
13135754 10 17986418657290787498
13631057 29 18408879659915416310
13965767 371 14692034456254053207
14251740 79 18339636750829539306
14251764 30 18264774431288672434
14844126 61 16629097868630096398
16752209 62 16772083875349474940
17492 54 11602813662004648867
20771845 171 16305654469116292533
20775530 9 18190171472227663339
23466295 7 18334016072857634354
3737641 26 18195528314452822306
394222 165 16546640900280597541
4058900 60 17620759384053594369
437815 12 18339920532573070047
469060 322 17894926121769825834
484985 159 18342178817217790066
4921388 177 18335413522419296348
497634 4 18411705374823252532
57527573 199 17415586228412831905
58260988 114 18339940224845096434
59755656 520 18055077562403653672
6823239 73 16446707856374552043
9981440 41 16485559893819895204

> <PUBCHEM_SHAPE_MULTIPOLES>
542.79
9.26
3.84
2.57
15.44
2.12
-0.73
8.94
0.79
-5.47
-1.1
-2.36
-1.72
1.37

> <PUBCHEM_SHAPE_SELFOVERLAP>
1170.023

> <PUBCHEM_SHAPE_VOLUME>
293.5

> <PUBCHEM_COORDINATE_TYPE>
2
5
10

$$$$
