38028891
  -OEChem-12032416253D

 77 80  0     1  0  0  0  0  0999 V2000
   -3.4850    0.9961    0.2871 S   0  0  0  0  0  0  0  0  0  0  0  0
    2.6497   -3.4875   -0.3431 O   0  0  0  0  0  0  0  0  0  0  0  0
   -3.3411    1.1485   -1.1475 O   0  0  0  0  0  0  0  0  0  0  0  0
   -2.9021    1.9625    1.1980 O   0  0  0  0  0  0  0  0  0  0  0  0
   -2.9794   -0.5672    0.7556 N   0  0  0  0  0  0  0  0  0  0  0  0
    3.3215   -1.3424    0.2461 N   0  0  0  0  0  0  0  0  0  0  0  0
    5.1763    0.8738    0.0778 N   0  0  0  0  0  0  0  0  0  0  0  0
    6.5352    2.5122    1.1005 N   0  0  0  0  0  0  0  0  0  0  0  0
   -1.5379   -2.6097   -0.8967 C   0  0  1  0  0  0  0  0  0  0  0  0
   -2.6723   -2.9091    0.1150 C   0  0  1  0  0  0  0  0  0  0  0  0
   -0.3505   -3.5571   -0.6667 C   0  0  0  0  0  0  0  0  0  0  0  0
    0.2223   -3.4381    0.7582 C   0  0  2  0  0  0  0  0  0  0  0  0
   -2.0220   -2.7270   -2.3453 C   0  0  0  0  0  0  0  0  0  0  0  0
   -0.8706   -3.4557    1.8076 C   0  0  0  0  0  0  0  0  0  0  0  0
   -2.1601   -3.2304    1.4994 C   0  0  0  0  0  0  0  0  0  0  0  0
   -3.6639   -1.7428    0.1952 C   0  0  0  0  0  0  0  0  0  0  0  0
    1.0980   -2.1882    0.8989 C   0  0  0  0  0  0  0  0  0  0  0  0
   -1.1460   -1.8866   -3.2689 C   0  0  0  0  0  0  0  0  0  0  0  0
   -2.0293   -4.1869   -2.7872 C   0  0  0  0  0  0  0  0  0  0  0  0
   -0.4533   -3.7838    3.2143 C   0  0  0  0  0  0  0  0  0  0  0  0
    2.4213   -2.4079    0.2076 C   0  0  0  0  0  0  0  0  0  0  0  0
    4.6262   -1.4788   -0.3960 C   0  0  0  0  0  0  0  0  0  0  0  0
    3.0444   -0.0570    0.8914 C   0  0  0  0  0  0  0  0  0  0  0  0
    5.1232   -0.1525   -0.9671 C   0  0  0  0  0  0  0  0  0  0  0  0
    4.3163    0.7103    1.2526 C   0  0  0  0  0  0  0  0  0  0  0  0
   -5.2220    0.8999    0.6555 C   0  0  0  0  0  0  0  0  0  0  0  0
    6.0482    1.9545   -0.0305 C   0  0  0  0  0  0  0  0  0  0  0  0
   -5.8378    2.2172    0.2973 C   0  0  0  0  0  0  0  0  0  0  0  0
    6.3614    2.3908   -1.3078 C   0  0  0  0  0  0  0  0  0  0  0  0
   -6.0300    2.5557   -1.0422 C   0  0  0  0  0  0  0  0  0  0  0  0
   -6.2192    3.1054    1.3027 C   0  0  0  0  0  0  0  0  0  0  0  0
    7.2306    3.4689   -1.4321 C   0  0  0  0  0  0  0  0  0  0  0  0
    7.3768    3.5580    0.9401 C   0  0  0  0  0  0  0  0  0  0  0  0
   -6.6035    3.7825   -1.3762 C   0  0  0  0  0  0  0  0  0  0  0  0
   -6.7929    4.3322    0.9688 C   0  0  0  0  0  0  0  0  0  0  0  0
    7.7524    4.0693   -0.2917 C   0  0  0  0  0  0  0  0  0  0  0  0
   -6.9850    4.6709   -0.3707 C   0  0  0  0  0  0  0  0  0  0  0  0
   -1.1894   -1.5820   -0.7381 H   0  0  0  0  0  0  0  0  0  0  0  0
   -3.2341   -3.7917   -0.2155 H   0  0  0  0  0  0  0  0  0  0  0  0
    0.4310   -3.3896   -1.4136 H   0  0  0  0  0  0  0  0  0  0  0  0
   -0.6650   -4.6036   -0.7718 H   0  0  0  0  0  0  0  0  0  0  0  0
    0.8302   -4.3376    0.9309 H   0  0  0  0  0  0  0  0  0  0  0  0
   -3.0416   -2.3403   -2.4416 H   0  0  0  0  0  0  0  0  0  0  0  0
   -2.9089   -3.3020    2.2861 H   0  0  0  0  0  0  0  0  0  0  0  0
   -4.5015   -2.0040    0.8530 H   0  0  0  0  0  0  0  0  0  0  0  0
   -4.0797   -1.5154   -0.7894 H   0  0  0  0  0  0  0  0  0  0  0  0
    1.3163   -2.0048    1.9561 H   0  0  0  0  0  0  0  0  0  0  0  0
    0.6112   -1.2963    0.4932 H   0  0  0  0  0  0  0  0  0  0  0  0
   -0.1040   -2.2210   -3.2735 H   0  0  0  0  0  0  0  0  0  0  0  0
   -1.1627   -0.8324   -2.9717 H   0  0  0  0  0  0  0  0  0  0  0  0
   -1.5135   -1.9426   -4.2996 H   0  0  0  0  0  0  0  0  0  0  0  0
   -1.0256   -4.5902   -2.9579 H   0  0  0  0  0  0  0  0  0  0  0  0
   -2.5500   -4.2685   -3.7495 H   0  0  0  0  0  0  0  0  0  0  0  0
   -2.5663   -4.8371   -2.0902 H   0  0  0  0  0  0  0  0  0  0  0  0
   -1.3136   -3.8819    3.8852 H   0  0  0  0  0  0  0  0  0  0  0  0
    0.1932   -3.0032    3.6251 H   0  0  0  0  0  0  0  0  0  0  0  0
    0.0890   -4.7346    3.2382 H   0  0  0  0  0  0  0  0  0  0  0  0
   -2.7205   -0.6706    1.7456 H   0  0  0  0  0  0  0  0  0  0  0  0
    4.5792   -2.2345   -1.1874 H   0  0  0  0  0  0  0  0  0  0  0  0
    5.3190   -1.8501    0.3693 H   0  0  0  0  0  0  0  0  0  0  0  0
    2.4454   -0.2020    1.7939 H   0  0  0  0  0  0  0  0  0  0  0  0
    2.4402    0.5241    0.1840 H   0  0  0  0  0  0  0  0  0  0  0  0
    6.1165   -0.3271   -1.3989 H   0  0  0  0  0  0  0  0  0  0  0  0
    4.4504    0.1772   -1.7684 H   0  0  0  0  0  0  0  0  0  0  0  0
    4.0264    1.6863    1.6605 H   0  0  0  0  0  0  0  0  0  0  0  0
    4.8730    0.1748    2.0312 H   0  0  0  0  0  0  0  0  0  0  0  0
   -5.6806    0.1025    0.0646 H   0  0  0  0  0  0  0  0  0  0  0  0
   -5.3349    0.6702    1.7195 H   0  0  0  0  0  0  0  0  0  0  0  0
    5.9508    1.9502   -2.2095 H   0  0  0  0  0  0  0  0  0  0  0  0
   -5.7601    1.8685   -1.8392 H   0  0  0  0  0  0  0  0  0  0  0  0
   -6.0739    2.8553    2.3502 H   0  0  0  0  0  0  0  0  0  0  0  0
    7.4976    3.8440   -2.4156 H   0  0  0  0  0  0  0  0  0  0  0  0
    7.7556    3.9908    1.8601 H   0  0  0  0  0  0  0  0  0  0  0  0
   -6.7578    4.0441   -2.4190 H   0  0  0  0  0  0  0  0  0  0  0  0
   -7.0898    5.0240    1.7517 H   0  0  0  0  0  0  0  0  0  0  0  0
    8.4308    4.9116   -0.3646 H   0  0  0  0  0  0  0  0  0  0  0  0
   -7.4326    5.6257   -0.6306 H   0  0  0  0  0  0  0  0  0  0  0  0
  1  3  2  0  0  0  0
  1  4  2  0  0  0  0
  1  5  1  0  0  0  0
  1 26  1  0  0  0  0
  2 21  2  0  0  0  0
  5 16  1  0  0  0  0
  5 58  1  0  0  0  0
  6 21  1  0  0  0  0
  6 22  1  0  0  0  0
  6 23  1  0  0  0  0
  7 24  1  0  0  0  0
  7 25  1  0  0  0  0
  7 27  1  0  0  0  0
  8 27  1  0  0  0  0
  8 33  2  0  0  0  0
  9 10  1  0  0  0  0
  9 11  1  0  0  0  0
  9 13  1  0  0  0  0
  9 38  1  0  0  0  0
 10 15  1  0  0  0  0
 10 16  1  0  0  0  0
 10 39  1  0  0  0  0
 11 12  1  0  0  0  0
 11 40  1  0  0  0  0
 11 41  1  0  0  0  0
 12 14  1  0  0  0  0
 12 17  1  0  0  0  0
 12 42  1  0  0  0  0
 13 18  1  0  0  0  0
 13 19  1  0  0  0  0
 13 43  1  0  0  0  0
 14 15  2  0  0  0  0
 14 20  1  0  0  0  0
 15 44  1  0  0  0  0
 16 45  1  0  0  0  0
 16 46  1  0  0  0  0
 17 21  1  0  0  0  0
 17 47  1  0  0  0  0
 17 48  1  0  0  0  0
 18 49  1  0  0  0  0
 18 50  1  0  0  0  0
 18 51  1  0  0  0  0
 19 52  1  0  0  0  0
 19 53  1  0  0  0  0
 19 54  1  0  0  0  0
 20 55  1  0  0  0  0
 20 56  1  0  0  0  0
 20 57  1  0  0  0  0
 22 24  1  0  0  0  0
 22 59  1  0  0  0  0
 22 60  1  0  0  0  0
 23 25  1  0  0  0  0
 23 61  1  0  0  0  0
 23 62  1  0  0  0  0
 24 63  1  0  0  0  0
 24 64  1  0  0  0  0
 25 65  1  0  0  0  0
 25 66  1  0  0  0  0
 26 28  1  0  0  0  0
 26 67  1  0  0  0  0
 26 68  1  0  0  0  0
 27 29  2  0  0  0  0
 28 30  2  0  0  0  0
 28 31  1  0  0  0  0
 29 32  1  0  0  0  0
 29 69  1  0  0  0  0
 30 34  1  0  0  0  0
 30 70  1  0  0  0  0
 31 35  2  0  0  0  0
 31 71  1  0  0  0  0
 32 36  2  0  0  0  0
 32 72  1  0  0  0  0
 33 36  1  0  0  0  0
 33 73  1  0  0  0  0
 34 37  2  0  0  0  0
 34 74  1  0  0  0  0
 35 37  1  0  0  0  0
 35 75  1  0  0  0  0
 36 76  1  0  0  0  0
 37 77  1  0  0  0  0
M  END
> <PUBCHEM_COMPOUND_CID>
38028891

> <PUBCHEM_CONFORMER_RMSD>
1.2

> <PUBCHEM_CONFORMER_DIVERSEORDER>
1
122
28
143
137
99
7
72
107
119
96
126
2
89
112
100
144
70
61
114
145
80
109
65
128
147
136
31
48
118
87
138
110
116
132
92
105
125
55
141
93
131
139
97
68
81
127
83
58
37
129
53
135
4
79
30
101
75
133
86
95
71
57
54
117
88
103
25
74
15
60
62
22
113
90
38
134
142
16
85
121
78
33
19
84
111
98
46
146
41
42
91
66
17
9
50
27
21
108
77
140
73
124
148
24
29
39
76
47
43
120
106
67
11
12
123
63
44
6
51
59
94
45
104
18
64
32
34
115
35
52
13
23
56
5
14
49
8
36
40
20
26
10
69
130
82
3
102

> <PUBCHEM_MMFF94_PARTIAL_CHARGES>
43
1 1.33
10 0.14
12 0.14
14 -0.28
15 -0.29
16 0.36
17 0.06
2 -0.57
20 0.14
21 0.57
22 0.3
23 0.3
24 0.37
25 0.37
26 0.25
27 0.41
28 -0.14
29 -0.15
3 -0.65
30 -0.15
31 -0.15
32 -0.15
33 0.16
34 -0.15
35 -0.15
36 -0.15
37 -0.15
4 -0.65
44 0.15
5 -0.91
58 0.42
6 -0.66
69 0.15
7 -0.84
70 0.15
71 0.15
72 0.15
73 0.15
74 0.15
75 0.15
76 0.15
77 0.15
8 -0.62

> <PUBCHEM_EFFECTIVE_ROTOR_COUNT>
12

> <PUBCHEM_PHARMACOPHORE_FEATURES>
11
1 2 acceptor
1 3 acceptor
1 4 acceptor
1 5 donor
1 7 cation
1 8 acceptor
3 13 18 19 hydrophobe
6 28 30 31 34 35 37 rings
6 6 7 22 23 24 25 rings
6 8 27 29 32 33 36 rings
6 9 10 11 12 14 15 rings

> <PUBCHEM_HEAVY_ATOM_COUNT>
37

> <PUBCHEM_ATOM_DEF_STEREO_COUNT>
3

> <PUBCHEM_ATOM_UDEF_STEREO_COUNT>
0

> <PUBCHEM_BOND_DEF_STEREO_COUNT>
0

> <PUBCHEM_BOND_UDEF_STEREO_COUNT>
0

> <PUBCHEM_ISOTOPIC_ATOM_COUNT>
0

> <PUBCHEM_COMPONENT_COUNT>
1

> <PUBCHEM_CACTVS_TAUTO_COUNT>
1

> <PUBCHEM_CONFORMER_ID>
0244465B00000001

> <PUBCHEM_MMFF94_ENERGY>
98.084

> <PUBCHEM_FEATURE_SELFOVERLAP>
55.839

> <PUBCHEM_SHAPE_FINGERPRINT>
10675989 125 18192714445074695768
10864689 126 18342181064208489296
11479125 193 18191005847155596501
11505856 67 18338507647373342927
11621639 254 18200304546478325295
12988421 55 17386554899370986474
13782708 43 11167644470386608889
14251764 75 18337954485243596825
14705955 166 17751933650877391203
15119646 57 18341044211327336182
15198563 99 17771047578911988519
15448158 71 18334863847972702240
15513586 35 16376642637572412062
15803439 3 17060337422564646519
15950262 2 18413111645230622383
16114785 44 18337394958179280483
18339144 43 16767908914052302801
19053607 189 18411972581728864472
19304671 126 18059022691913420788
19309040 13 18413668002567305358
20691028 202 18334579049018404084
208703 8 9727633873759619660
21223535 225 18199464549391040772
21716022 299 14617974458801790991
22033318 11 17821720677054677816
23191077 185 18341038675510954923
23516275 100 17120553525544074216
23569914 152 17771368391820515734
27425 322 18265616485839988495
394071 54 17908993098217340873
44249763 50 17631163277124369866
44426701 194 18118097240203453949
57527585 21 18196350710496252199
6036956 94 18120375624999686437
6058803 2 18267276834076217038
6201320 77 12606259911322630085
6898599 12 18343581867263818615
7288768 16 18113617910592578243

> <PUBCHEM_SHAPE_MULTIPOLES>
727.76
21.55
8.22
2.31
18.13
1.99
-0.8
46.85
-1.14
-5.21
-0.11
-1.21
-2.61
-1.23

> <PUBCHEM_SHAPE_SELFOVERLAP>
1512.686

> <PUBCHEM_SHAPE_VOLUME>
415.7

> <PUBCHEM_COORDINATE_TYPE>
2
5
10

$$$$
