40780420
  -OEChem-12032416353D

 53 56  0     1  0  0  0  0  0999 V2000
   -9.5554    0.8993   -0.7159 F   0  0  0  0  0  0  0  0  0  0  0  0
    5.7166    2.4109    0.0848 O   0  5  0  0  0  0  0  0  0  0  0  0
    5.1056    1.5308    2.0008 O   0  0  0  0  0  0  0  0  0  0  0  0
   -3.4360   -0.5394   -0.0223 N   0  0  0  0  0  0  0  0  0  0  0  0
    3.2944    0.0914   -0.4949 N   0  0  0  0  0  0  0  0  0  0  0  0
    3.1847    1.2593   -1.1509 N   0  0  0  0  0  0  0  0  0  0  0  0
    5.4700    1.4176    0.8074 N   0  3  0  0  0  0  0  0  0  0  0  0
   -0.3151    0.5256   -0.0450 C   0  0  2  0  0  0  0  0  0  0  0  0
   -1.0304   -0.7114   -0.6215 C   0  0  0  0  0  0  0  0  0  0  0  0
   -2.1395   -1.0715    0.3812 C   0  0  1  0  0  0  0  0  0  0  0  0
    1.1648    0.5555   -0.3492 C   0  0  0  0  0  0  0  0  0  0  0  0
   -0.6540    0.4367    1.4143 C   0  0  0  0  0  0  0  0  0  0  0  0
   -1.6507   -0.4259    1.6401 C   0  0  0  0  0  0  0  0  0  0  0  0
    2.1131   -0.3732    0.0044 C   0  0  0  0  0  0  0  0  0  0  0  0
    1.8816    1.5377   -1.0587 C   0  0  0  0  0  0  0  0  0  0  0  0
   -4.5130   -1.1435    0.7514 C   0  0  0  0  0  0  0  0  0  0  0  0
    1.9931   -1.6372    0.7592 C   0  0  0  0  0  0  0  0  0  0  0  0
    1.3590    2.7707   -1.6734 C   0  0  0  0  0  0  0  0  0  0  0  0
    4.5414   -0.5237   -0.3805 C   0  0  0  0  0  0  0  0  0  0  0  0
   -5.8600   -0.5971    0.3590 C   0  0  0  0  0  0  0  0  0  0  0  0
    5.6086    0.1137    0.2526 C   0  0  0  0  0  0  0  0  0  0  0  0
    4.7096   -1.8016   -0.9141 C   0  0  0  0  0  0  0  0  0  0  0  0
   -6.3743    0.5246    1.0094 C   0  0  0  0  0  0  0  0  0  0  0  0
   -6.5938   -1.2132   -0.6547 C   0  0  0  0  0  0  0  0  0  0  0  0
    6.8438   -0.5268    0.3522 C   0  0  0  0  0  0  0  0  0  0  0  0
    5.9448   -2.4421   -0.8142 C   0  0  0  0  0  0  0  0  0  0  0  0
    7.0119   -1.8047   -0.1813 C   0  0  0  0  0  0  0  0  0  0  0  0
   -7.6224    1.0305    0.6458 C   0  0  0  0  0  0  0  0  0  0  0  0
   -7.8422   -0.7076   -1.0181 C   0  0  0  0  0  0  0  0  0  0  0  0
   -8.3564    0.4143   -0.3679 C   0  0  0  0  0  0  0  0  0  0  0  0
   -0.7850    1.4349   -0.4418 H   0  0  0  0  0  0  0  0  0  0  0  0
   -1.4126   -0.5097   -1.6302 H   0  0  0  0  0  0  0  0  0  0  0  0
   -0.3555   -1.5695   -0.7321 H   0  0  0  0  0  0  0  0  0  0  0  0
   -2.1733   -2.1631    0.4823 H   0  0  0  0  0  0  0  0  0  0  0  0
   -0.1800    1.0276    2.1855 H   0  0  0  0  0  0  0  0  0  0  0  0
   -2.0648   -0.6191    2.6198 H   0  0  0  0  0  0  0  0  0  0  0  0
   -3.5875   -0.7365   -1.0118 H   0  0  0  0  0  0  0  0  0  0  0  0
   -4.5205   -2.2333    0.6162 H   0  0  0  0  0  0  0  0  0  0  0  0
   -4.3730   -0.9720    1.8262 H   0  0  0  0  0  0  0  0  0  0  0  0
    1.9353   -2.4908    0.0764 H   0  0  0  0  0  0  0  0  0  0  0  0
    2.8414   -1.7890    1.4347 H   0  0  0  0  0  0  0  0  0  0  0  0
    1.0994   -1.6618    1.3864 H   0  0  0  0  0  0  0  0  0  0  0  0
    0.5949    2.5334   -2.4207 H   0  0  0  0  0  0  0  0  0  0  0  0
    2.1474    3.3436   -2.1731 H   0  0  0  0  0  0  0  0  0  0  0  0
    0.9079    3.4171   -0.9136 H   0  0  0  0  0  0  0  0  0  0  0  0
    3.8983   -2.3117   -1.4275 H   0  0  0  0  0  0  0  0  0  0  0  0
   -5.8117    1.0147    1.7997 H   0  0  0  0  0  0  0  0  0  0  0  0
   -6.2035   -2.0869   -1.1701 H   0  0  0  0  0  0  0  0  0  0  0  0
    7.6852   -0.0431    0.8425 H   0  0  0  0  0  0  0  0  0  0  0  0
    6.0770   -3.4355   -1.2330 H   0  0  0  0  0  0  0  0  0  0  0  0
    7.9739   -2.3031   -0.1046 H   0  0  0  0  0  0  0  0  0  0  0  0
   -8.0230    1.9041    1.1516 H   0  0  0  0  0  0  0  0  0  0  0  0
   -8.4138   -1.1869   -1.8072 H   0  0  0  0  0  0  0  0  0  0  0  0
  1 30  1  0  0  0  0
  2  7  1  0  0  0  0
  3  7  2  0  0  0  0
  4 10  1  0  0  0  0
  4 16  1  0  0  0  0
  4 37  1  0  0  0  0
  5  6  1  0  0  0  0
  5 14  1  0  0  0  0
  5 19  1  0  0  0  0
  6 15  2  0  0  0  0
  7 21  1  0  0  0  0
  8  9  1  0  0  0  0
  8 11  1  0  0  0  0
  8 12  1  0  0  0  0
  8 31  1  0  0  0  0
  9 10  1  0  0  0  0
  9 32  1  0  0  0  0
  9 33  1  0  0  0  0
 10 13  1  0  0  0  0
 10 34  1  0  0  0  0
 11 14  2  0  0  0  0
 11 15  1  0  0  0  0
 12 13  2  0  0  0  0
 12 35  1  0  0  0  0
 13 36  1  0  0  0  0
 14 17  1  0  0  0  0
 15 18  1  0  0  0  0
 16 20  1  0  0  0  0
 16 38  1  0  0  0  0
 16 39  1  0  0  0  0
 17 40  1  0  0  0  0
 17 41  1  0  0  0  0
 17 42  1  0  0  0  0
 18 43  1  0  0  0  0
 18 44  1  0  0  0  0
 18 45  1  0  0  0  0
 19 21  1  0  0  0  0
 19 22  2  0  0  0  0
 20 23  2  0  0  0  0
 20 24  1  0  0  0  0
 21 25  2  0  0  0  0
 22 26  1  0  0  0  0
 22 46  1  0  0  0  0
 23 28  1  0  0  0  0
 23 47  1  0  0  0  0
 24 29  2  0  0  0  0
 24 48  1  0  0  0  0
 25 27  1  0  0  0  0
 25 49  1  0  0  0  0
 26 27  2  0  0  0  0
 26 50  1  0  0  0  0
 27 51  1  0  0  0  0
 28 30  2  0  0  0  0
 28 52  1  0  0  0  0
 29 30  1  0  0  0  0
 29 53  1  0  0  0  0
M  CHG  2   2  -1   7   1
M  END
> <PUBCHEM_COMPOUND_CID>
40780420

> <PUBCHEM_CONFORMER_RMSD>
0.8

> <PUBCHEM_CONFORMER_DIVERSEORDER>
1
153
148
123
5
177
92
34
45
154
197
167
184
200
111
203
186
112
88
52
137
176
108
30
77
185
196
156
194
180
172
202
118
16
164
187
170
175
139
82
134
62
19
107
163
193
57
83
74
56
68
89
69
100
60
110
195
128
201
169
79
51
76
44
179
29
96
130
192
205
24
138
141
142
207
43
146
109
183
182
91
32
98
10
40
198
101
13
159
191
151
75
190
181
41
178
59
147
99
53
199
22
28
21
102
145
17
11
39
117
144
189
97
50
114
188
67
36
160
135
126
209
61
155
165
54
93
133
48
157
23
6
95
72
58
15
150
124
173
204
26
104
129
46
149
94
90
152
131
161
55
103
65
66
171
127
120
122
33
174
20
70
71
206
132
49
166
63
25
115
105
106
8
37
80
85
119
86
9
64
162
116
35
125
140
121
73
113
42
168
208
27
7
87
47
81
18
3
4
84
12
143
38
2
136
158
78
31
14

> <PUBCHEM_MMFF94_PARTIAL_CHARGES>
40
1 -0.19
10 0.41
11 -0.18
12 -0.29
13 -0.29
14 -0.33
15 0.11
16 0.41
17 0.18
18 0.18
19 -0.02
2 -0.52
20 -0.14
21 0.13
22 -0.15
23 -0.15
24 -0.15
25 -0.15
26 -0.15
27 -0.15
28 -0.15
29 -0.15
3 -0.52
30 0.19
35 0.15
36 0.15
37 0.36
4 -0.9
46 0.15
47 0.15
48 0.15
49 0.15
5 0.59
50 0.15
51 0.15
52 0.15
53 0.15
6 -0.71
7 0.91
8 0.32

> <PUBCHEM_EFFECTIVE_ROTOR_COUNT>
6.6

> <PUBCHEM_PHARMACOPHORE_FEATURES>
10
1 2 acceptor
1 2 anion
1 3 acceptor
1 4 cation
1 4 donor
1 6 acceptor
5 5 6 11 14 15 rings
5 8 9 10 12 13 rings
6 19 21 22 25 26 27 rings
6 20 23 24 28 29 30 rings

> <PUBCHEM_HEAVY_ATOM_COUNT>
30

> <PUBCHEM_ATOM_DEF_STEREO_COUNT>
2

> <PUBCHEM_ATOM_UDEF_STEREO_COUNT>
0

> <PUBCHEM_BOND_DEF_STEREO_COUNT>
0

> <PUBCHEM_BOND_UDEF_STEREO_COUNT>
0

> <PUBCHEM_ISOTOPIC_ATOM_COUNT>
0

> <PUBCHEM_COMPONENT_COUNT>
1

> <PUBCHEM_CACTVS_TAUTO_COUNT>
1

> <PUBCHEM_CONFORMER_ID>
026E428400000001

> <PUBCHEM_MMFF94_ENERGY>
87.2775

> <PUBCHEM_FEATURE_SELFOVERLAP>
50.829

> <PUBCHEM_SHAPE_FINGERPRINT>
10554248 39 18114744953128721485
10835480 77 18340207504474481944
11181472 205 18271539627491984776
11719270 70 16774081760553784023
11796584 16 15936700349860637250
12082328 90 18343017810174426559
12236239 1 18202004339061073683
12516196 113 10879994649417338051
12741549 16 18342450423493915408
13533116 47 18202569471322124618
13914758 101 18412549777930238801
14117953 113 18335426742134110942
14170010 4 18261111885041359556
14347424 109 18413668020200575240
14856354 85 13768216017259805395
15131766 46 17200214131193112392
15183329 4 17821729429680373523
15728490 51 10231743488896983093
15849732 13 18273495667515204735
16120349 18 18272647960945013744
18335252 114 18261107487554005037
20771845 171 14907908197813817988
21130935 74 18411703222253917883
21150785 3 16272208596583090329
21781051 124 15719687514439203737
21792934 111 18272643533297994696
21792938 131 17241318050879576066
21792961 116 17168420463737281766
22224240 67 12247674963540739703
23559900 14 18115030826183695041
249057 25 18201736045729709793
249057 3 18187088364751304535
3103668 31 17532085004166458525
3178227 256 14490192709208267845
335352 9 18186807984374095702
3633792 109 18341051835390223507
4073 2 18262521514873031491
4144715 1 17460611457145041977
4325135 7 10303809874679919715
5758199 1 10087637096391533431
59682541 35 11743830375016417711
59755656 215 17458343022722922395
9663363 56 18113056022423876206
99344 41 18202001015089235719

> <PUBCHEM_SHAPE_MULTIPOLES>
578.45
25.73
2.12
1.32
40.61
0.65
-0.23
-2.43
2.01
-3.52
0.59
-0.15
0.36
0.59

> <PUBCHEM_SHAPE_SELFOVERLAP>
1260.335

> <PUBCHEM_SHAPE_VOLUME>
318

> <PUBCHEM_COORDINATE_TYPE>
2
5
10

$$$$
