28962283
  -OEChem-12032416283D

 57 59  0     1  0  0  0  0  0999 V2000
   -7.9931    1.0595    0.1580 Cl  0  0  0  0  0  0  0  0  0  0  0  0
    1.1533    3.0644   -0.6139 O   0  0  0  0  0  0  0  0  0  0  0  0
    3.4629    3.0054    1.2915 O   0  0  0  0  0  0  0  0  0  0  0  0
    1.2757    5.8654   -0.8242 O   0  0  0  0  0  0  0  0  0  0  0  0
   -1.2161   -0.6387    0.0423 O   0  0  0  0  0  0  0  0  0  0  0  0
    3.5104    0.3632    0.1787 N   0  0  1  0  0  0  0  0  0  0  0  0
   -0.6453    1.4496    0.8570 N   0  0  0  0  0  0  0  0  0  0  0  0
   -2.8715    0.9593    0.5079 N   0  0  0  0  0  0  0  0  0  0  0  0
    3.3288   -4.1261   -0.4183 N   0  0  0  0  0  0  0  0  0  0  0  0
    2.9364    1.4893   -0.5368 C   0  0  1  0  0  0  0  0  0  0  0  0
    1.4149    1.6549   -0.4320 C   0  0  1  0  0  0  0  0  0  0  0  0
    3.4594    2.8560   -0.1223 C   0  0  1  0  0  0  0  0  0  0  0  0
    2.4065    3.7620   -0.7495 C   0  0  2  0  0  0  0  0  0  0  0  0
    0.7716    1.2426    0.8873 C   0  0  0  0  0  0  0  0  0  0  0  0
    2.2805    5.1424   -0.1313 C   0  0  0  0  0  0  0  0  0  0  0  0
    2.8978   -0.8970   -0.2536 C   0  0  0  0  0  0  0  0  0  0  0  0
    4.9628    0.3077   -0.0142 C   0  0  0  0  0  0  0  0  0  0  0  0
    3.1492   -2.0069    0.7675 C   0  0  0  0  0  0  0  0  0  0  0  0
    2.5430   -3.3146    0.3243 C   0  0  0  0  0  0  0  0  0  0  0  0
   -1.5627    0.4752    0.4278 C   0  0  0  0  0  0  0  0  0  0  0  0
    1.2413   -3.6173    0.6900 C   0  0  0  0  0  0  0  0  0  0  0  0
    0.7122   -4.8315    0.2665 C   0  0  0  0  0  0  0  0  0  0  0  0
   -4.0682    0.2860    0.1690 C   0  0  0  0  0  0  0  0  0  0  0  0
    2.7804   -5.2976   -0.8117 C   0  0  0  0  0  0  0  0  0  0  0  0
    1.4899   -5.6933   -0.4989 C   0  0  0  0  0  0  0  0  0  0  0  0
   -5.2969    0.9303    0.3135 C   0  0  0  0  0  0  0  0  0  0  0  0
   -4.0193   -1.0234   -0.3100 C   0  0  0  0  0  0  0  0  0  0  0  0
   -6.4768    0.2654   -0.0208 C   0  0  0  0  0  0  0  0  0  0  0  0
   -5.1991   -1.6883   -0.6440 C   0  0  0  0  0  0  0  0  0  0  0  0
   -6.4279   -1.0438   -0.4997 C   0  0  0  0  0  0  0  0  0  0  0  0
    3.1601    1.3809   -1.6107 H   0  0  0  0  0  0  0  0  0  0  0  0
    0.9213    1.1284   -1.2584 H   0  0  0  0  0  0  0  0  0  0  0  0
    4.4628    3.0756   -0.5009 H   0  0  0  0  0  0  0  0  0  0  0  0
    2.5803    3.8537   -1.8294 H   0  0  0  0  0  0  0  0  0  0  0  0
    1.1412    1.8690    1.7061 H   0  0  0  0  0  0  0  0  0  0  0  0
    0.9514    0.2031    1.1641 H   0  0  0  0  0  0  0  0  0  0  0  0
    3.2240    5.6921   -0.2010 H   0  0  0  0  0  0  0  0  0  0  0  0
    1.9672    5.0836    0.9159 H   0  0  0  0  0  0  0  0  0  0  0  0
    1.8178   -0.8289   -0.4100 H   0  0  0  0  0  0  0  0  0  0  0  0
    3.2948   -1.1945   -1.2353 H   0  0  0  0  0  0  0  0  0  0  0  0
    5.4208   -0.5150    0.5421 H   0  0  0  0  0  0  0  0  0  0  0  0
    5.4507    1.2081    0.3735 H   0  0  0  0  0  0  0  0  0  0  0  0
    5.2370    0.1988   -1.0701 H   0  0  0  0  0  0  0  0  0  0  0  0
    3.9028    3.8476    1.4972 H   0  0  0  0  0  0  0  0  0  0  0  0
    2.7427   -1.7250    1.7474 H   0  0  0  0  0  0  0  0  0  0  0  0
    4.2190   -2.1834    0.9218 H   0  0  0  0  0  0  0  0  0  0  0  0
   -1.0039    2.3533    1.1499 H   0  0  0  0  0  0  0  0  0  0  0  0
    1.2190    6.7440   -0.4115 H   0  0  0  0  0  0  0  0  0  0  0  0
    0.6418   -2.9371    1.2855 H   0  0  0  0  0  0  0  0  0  0  0  0
   -2.9857    1.9100    0.8502 H   0  0  0  0  0  0  0  0  0  0  0  0
   -0.3046   -5.1051    0.5317 H   0  0  0  0  0  0  0  0  0  0  0  0
    3.4276   -5.9336   -1.4064 H   0  0  0  0  0  0  0  0  0  0  0  0
    1.0980   -6.6446   -0.8403 H   0  0  0  0  0  0  0  0  0  0  0  0
   -5.3339    1.9514    0.6872 H   0  0  0  0  0  0  0  0  0  0  0  0
   -3.1084   -1.5883   -0.4490 H   0  0  0  0  0  0  0  0  0  0  0  0
   -5.1624   -2.7079   -1.0169 H   0  0  0  0  0  0  0  0  0  0  0  0
   -7.3390   -1.5744   -0.7640 H   0  0  0  0  0  0  0  0  0  0  0  0
  1 28  1  0  0  0  0
  2 11  1  0  0  0  0
  2 13  1  0  0  0  0
  3 12  1  0  0  0  0
  3 44  1  0  0  0  0
  4 15  1  0  0  0  0
  4 48  1  0  0  0  0
  5 20  2  0  0  0  0
  6 10  1  0  0  0  0
  6 16  1  0  0  0  0
  6 17  1  0  0  0  0
  7 14  1  0  0  0  0
  7 20  1  0  0  0  0
  7 47  1  0  0  0  0
  8 20  1  0  0  0  0
  8 23  1  0  0  0  0
  8 50  1  0  0  0  0
  9 19  1  0  0  0  0
  9 24  2  0  0  0  0
 10 11  1  0  0  0  0
 10 12  1  0  0  0  0
 10 31  1  0  0  0  0
 11 14  1  0  0  0  0
 11 32  1  0  0  0  0
 12 13  1  0  0  0  0
 12 33  1  0  0  0  0
 13 15  1  0  0  0  0
 13 34  1  0  0  0  0
 14 35  1  0  0  0  0
 14 36  1  0  0  0  0
 15 37  1  0  0  0  0
 15 38  1  0  0  0  0
 16 18  1  0  0  0  0
 16 39  1  0  0  0  0
 16 40  1  0  0  0  0
 17 41  1  0  0  0  0
 17 42  1  0  0  0  0
 17 43  1  0  0  0  0
 18 19  1  0  0  0  0
 18 45  1  0  0  0  0
 18 46  1  0  0  0  0
 19 21  2  0  0  0  0
 21 22  1  0  0  0  0
 21 49  1  0  0  0  0
 22 25  2  0  0  0  0
 22 51  1  0  0  0  0
 23 26  2  0  0  0  0
 23 27  1  0  0  0  0
 24 25  1  0  0  0  0
 24 52  1  0  0  0  0
 25 53  1  0  0  0  0
 26 28  1  0  0  0  0
 26 54  1  0  0  0  0
 27 29  2  0  0  0  0
 27 55  1  0  0  0  0
 28 30  2  0  0  0  0
 29 30  1  0  0  0  0
 29 56  1  0  0  0  0
 30 57  1  0  0  0  0
M  END
> <PUBCHEM_COMPOUND_CID>
28962283

> <PUBCHEM_CONFORMER_RMSD>
1

> <PUBCHEM_CONFORMER_DIVERSEORDER>
1
40
179
29
31
53
87
145
48
142
140
100
67
117
167
55
58
33
176
134
64
164
131
120
43
75
36
109
161
168
85
79
93
102
25
166
151
27
196
78
136
122
121
56
60
129
110
7
88
76
41
146
165
86
128
82
152
68
13
180
197
186
169
38
94
138
174
70
80
97
188
106
192
10
77
114
105
171
59
17
155
125
84
19
74
65
195
71
119
127
149
49
123
147
194
62
23
191
103
61
115
112
81
175
28
181
135
91
46
132
9
137
190
189
172
73
42
185
54
92
95
118
130
98
178
39
141
101
34
156
44
63
133
83
4
96
90
150
47
89
50
159
116
8
104
144
124
15
173
32
3
163
111
157
108
107
22
2
99
6
37
66
177
183
139
148
72
113
51
154
69
182
57
193
184
52
126
35
20
45
160
5
11
187
170
30
16
12
14
162
21
143
153
18
26
158
24

> <PUBCHEM_MMFF94_PARTIAL_CHARGES>
42
1 -0.18
10 0.27
11 0.28
12 0.28
13 0.28
14 0.3
15 0.28
16 0.27
17 0.27
18 0.14
19 0.17
2 -0.56
20 0.69
21 -0.15
22 -0.15
23 0.12
24 0.16
25 -0.15
26 -0.15
27 -0.15
28 0.18
29 -0.15
3 -0.68
30 -0.15
4 -0.68
44 0.4
47 0.37
48 0.4
49 0.15
5 -0.57
50 0.37
51 0.15
52 0.15
53 0.15
54 0.15
55 0.15
56 0.15
57 0.15
6 -0.81
7 -0.73
8 -0.55
9 -0.62

> <PUBCHEM_EFFECTIVE_ROTOR_COUNT>
11

> <PUBCHEM_PHARMACOPHORE_FEATURES>
13
1 2 acceptor
1 3 acceptor
1 3 donor
1 4 acceptor
1 4 donor
1 5 acceptor
1 6 cation
1 7 donor
1 8 donor
1 9 acceptor
5 2 10 11 12 13 rings
6 23 26 27 28 29 30 rings
6 9 19 21 22 24 25 rings

> <PUBCHEM_HEAVY_ATOM_COUNT>
30

> <PUBCHEM_ATOM_DEF_STEREO_COUNT>
4

> <PUBCHEM_ATOM_UDEF_STEREO_COUNT>
0

> <PUBCHEM_BOND_DEF_STEREO_COUNT>
0

> <PUBCHEM_BOND_UDEF_STEREO_COUNT>
0

> <PUBCHEM_ISOTOPIC_ATOM_COUNT>
0

> <PUBCHEM_COMPONENT_COUNT>
1

> <PUBCHEM_CACTVS_TAUTO_COUNT>
6

> <PUBCHEM_CONFORMER_ID>
01B9EDEB00000001

> <PUBCHEM_MMFF94_ENERGY>
79.4594

> <PUBCHEM_FEATURE_SELFOVERLAP>
66.027

> <PUBCHEM_SHAPE_FINGERPRINT>
10411042 1 18050006584559111842
10483366 6 18338530664414273566
10554248 39 18339063919116200149
10675989 125 18410574011343605601
11014199 57 17763747594354504506
11756154 67 17620761583097864583
12107183 9 17910685259260078569
13533116 47 18340769248196051747
1361 2 18410293601255261130
13692114 37 18054778748997565650
13785724 45 18053953844472254663
138480 1 18266460906226830178
14675020 138 18270668870459681464
14790565 3 18122626329860305527
15250474 111 18270949254921393559
15400415 2 18122625217738420293
15484559 13 18410863178728225382
16993438 75 17686341279678915051
18681886 176 18337385054490461864
19319366 153 18200026395162781495
19427546 62 18121217837984600897
20028762 73 18343581863306883678
20511986 3 17845643867677438797
21133410 171 16958968854740061859
23559900 14 18408601470461573515
3004659 81 18271810146270639969
3103668 31 17040361783132074974
4144715 1 18115317679340668689
5309563 4 18122344575663384406
613672 6 17832680418900106343
6700243 42 16908081210011522254
9777508 108 17548414160487392768

> <PUBCHEM_SHAPE_MULTIPOLES>
575.85
13.98
8.76
0.88
36.43
3.26
0.05
-0.36
-0.59
-15.1
-1.92
-0.26
-0.08
-0.47

> <PUBCHEM_SHAPE_SELFOVERLAP>
1198.388

> <PUBCHEM_SHAPE_VOLUME>
326.5

> <PUBCHEM_COORDINATE_TYPE>
2
5
10

$$$$
