71693286
  -OEChem-12032416233D

 59 62  0     1  0  0  0  0  0999 V2000
   -3.5269   -1.9622   -0.2518 S   0  0  0  0  0  0  0  0  0  0  0  0
    3.9217   -1.6848   -0.9850 O   0  0  0  0  0  0  0  0  0  0  0  0
    3.9375    0.0394    3.3965 O   0  0  0  0  0  0  0  0  0  0  0  0
    5.4091    1.3958   -1.0594 O   0  0  0  0  0  0  0  0  0  0  0  0
   -4.8076   -2.5212   -0.6427 O   0  0  0  0  0  0  0  0  0  0  0  0
   -3.1304   -1.9329    1.1421 O   0  0  0  0  0  0  0  0  0  0  0  0
    3.8300    0.6002    0.4640 N   0  0  0  0  0  0  0  0  0  0  0  0
   -2.3004   -2.6783   -1.2261 N   0  0  0  0  0  0  0  0  0  0  0  0
    3.3183   -0.5773    1.1737 C   0  0  1  0  0  0  0  0  0  0  0  0
    3.1762   -1.8017    0.2316 C   0  0  1  0  0  0  0  0  0  0  0  0
    4.2036   -0.9080    2.3828 C   0  0  0  0  0  0  0  0  0  0  0  0
    1.7271   -2.0327   -0.1536 C   0  0  0  0  0  0  0  0  0  0  0  0
    3.3772    1.9126    0.8999 C   0  0  0  0  0  0  0  0  0  0  0  0
    4.8168    0.4694   -0.5100 C   0  0  0  0  0  0  0  0  0  0  0  0
    5.1316   -0.9691   -0.8446 C   0  0  0  0  0  0  0  0  0  0  0  0
    0.9179   -2.8508    0.6350 C   0  0  0  0  0  0  0  0  0  0  0  0
    1.2039   -1.4280   -1.2966 C   0  0  0  0  0  0  0  0  0  0  0  0
    2.1931    2.3895    0.1096 C   0  0  0  0  0  0  0  0  0  0  0  0
   -0.9371   -2.4596   -0.8625 C   0  0  0  0  0  0  0  0  0  0  0  0
   -0.4141   -3.0643    0.2806 C   0  0  0  0  0  0  0  0  0  0  0  0
   -0.1280   -1.6415   -1.6511 C   0  0  0  0  0  0  0  0  0  0  0  0
    0.9009    2.0896    0.5406 C   0  0  0  0  0  0  0  0  0  0  0  0
    2.3848    3.1318   -1.0558 C   0  0  0  0  0  0  0  0  0  0  0  0
   -3.4828   -0.2938   -0.8671 C   0  0  0  0  0  0  0  0  0  0  0  0
   -0.1995    2.5319   -0.1935 C   0  0  0  0  0  0  0  0  0  0  0  0
    1.2844    3.5742   -1.7900 C   0  0  0  0  0  0  0  0  0  0  0  0
   -0.0078    3.2743   -1.3588 C   0  0  0  0  0  0  0  0  0  0  0  0
   -4.5099    0.4964   -0.1165 C   0  0  0  0  0  0  0  0  0  0  0  0
   -4.2763    0.8641    1.2086 C   0  0  0  0  0  0  0  0  0  0  0  0
   -5.7002    0.8652   -0.7431 C   0  0  0  0  0  0  0  0  0  0  0  0
   -5.2331    1.6006    1.9072 C   0  0  0  0  0  0  0  0  0  0  0  0
   -6.6569    1.6018   -0.0446 C   0  0  0  0  0  0  0  0  0  0  0  0
   -6.4233    1.9693    1.2805 C   0  0  0  0  0  0  0  0  0  0  0  0
    2.3283   -0.3154    1.5690 H   0  0  0  0  0  0  0  0  0  0  0  0
    3.5368   -2.7138    0.7240 H   0  0  0  0  0  0  0  0  0  0  0  0
    5.2701   -0.8771    2.1413 H   0  0  0  0  0  0  0  0  0  0  0  0
    3.9593   -1.8952    2.7882 H   0  0  0  0  0  0  0  0  0  0  0  0
    4.2001    2.6293    0.7842 H   0  0  0  0  0  0  0  0  0  0  0  0
    3.1419    1.9007    1.9689 H   0  0  0  0  0  0  0  0  0  0  0  0
    5.7769   -1.4197   -0.0847 H   0  0  0  0  0  0  0  0  0  0  0  0
    5.6546   -1.0007   -1.8052 H   0  0  0  0  0  0  0  0  0  0  0  0
    1.3143   -3.3274    1.5277 H   0  0  0  0  0  0  0  0  0  0  0  0
    1.8077   -0.7734   -1.9192 H   0  0  0  0  0  0  0  0  0  0  0  0
   -1.0282   -3.7140    0.8985 H   0  0  0  0  0  0  0  0  0  0  0  0
   -0.5265   -1.1606   -2.5408 H   0  0  0  0  0  0  0  0  0  0  0  0
    4.4996   -0.1865    4.1571 H   0  0  0  0  0  0  0  0  0  0  0  0
    0.7351    1.5157    1.4482 H   0  0  0  0  0  0  0  0  0  0  0  0
    3.3852    3.3749   -1.4031 H   0  0  0  0  0  0  0  0  0  0  0  0
   -2.4723   -2.6420   -2.2399 H   0  0  0  0  0  0  0  0  0  0  0  0
   -2.4857    0.1233   -0.7011 H   0  0  0  0  0  0  0  0  0  0  0  0
   -3.6873   -0.3179   -1.9418 H   0  0  0  0  0  0  0  0  0  0  0  0
   -1.2056    2.2997    0.1430 H   0  0  0  0  0  0  0  0  0  0  0  0
    1.4336    4.1523   -2.6972 H   0  0  0  0  0  0  0  0  0  0  0  0
   -0.8648    3.6185   -1.9302 H   0  0  0  0  0  0  0  0  0  0  0  0
   -3.3455    0.6072    1.7066 H   0  0  0  0  0  0  0  0  0  0  0  0
   -5.8960    0.5843   -1.7745 H   0  0  0  0  0  0  0  0  0  0  0  0
   -5.0488    1.8917    2.9372 H   0  0  0  0  0  0  0  0  0  0  0  0
   -7.5838    1.8890   -0.5324 H   0  0  0  0  0  0  0  0  0  0  0  0
   -7.1678    2.5438    1.8240 H   0  0  0  0  0  0  0  0  0  0  0  0
  1  5  2  0  0  0  0
  1  6  2  0  0  0  0
  1  8  1  0  0  0  0
  1 24  1  0  0  0  0
  2 10  1  0  0  0  0
  2 15  1  0  0  0  0
  3 11  1  0  0  0  0
  3 46  1  0  0  0  0
  4 14  2  0  0  0  0
  7  9  1  0  0  0  0
  7 13  1  0  0  0  0
  7 14  1  0  0  0  0
  8 19  1  0  0  0  0
  8 49  1  0  0  0  0
  9 10  1  0  0  0  0
  9 11  1  0  0  0  0
  9 34  1  0  0  0  0
 10 12  1  0  0  0  0
 10 35  1  0  0  0  0
 11 36  1  0  0  0  0
 11 37  1  0  0  0  0
 12 16  2  0  0  0  0
 12 17  1  0  0  0  0
 13 18  1  0  0  0  0
 13 38  1  0  0  0  0
 13 39  1  0  0  0  0
 14 15  1  0  0  0  0
 15 40  1  0  0  0  0
 15 41  1  0  0  0  0
 16 20  1  0  0  0  0
 16 42  1  0  0  0  0
 17 21  2  0  0  0  0
 17 43  1  0  0  0  0
 18 22  2  0  0  0  0
 18 23  1  0  0  0  0
 19 20  2  0  0  0  0
 19 21  1  0  0  0  0
 20 44  1  0  0  0  0
 21 45  1  0  0  0  0
 22 25  1  0  0  0  0
 22 47  1  0  0  0  0
 23 26  2  0  0  0  0
 23 48  1  0  0  0  0
 24 28  1  0  0  0  0
 24 50  1  0  0  0  0
 24 51  1  0  0  0  0
 25 27  2  0  0  0  0
 25 52  1  0  0  0  0
 26 27  1  0  0  0  0
 26 53  1  0  0  0  0
 27 54  1  0  0  0  0
 28 29  2  0  0  0  0
 28 30  1  0  0  0  0
 29 31  1  0  0  0  0
 29 55  1  0  0  0  0
 30 32  2  0  0  0  0
 30 56  1  0  0  0  0
 31 33  2  0  0  0  0
 31 57  1  0  0  0  0
 32 33  1  0  0  0  0
 32 58  1  0  0  0  0
 33 59  1  0  0  0  0
M  END
> <PUBCHEM_COMPOUND_CID>
71693286

> <PUBCHEM_CONFORMER_RMSD>
1.2

> <PUBCHEM_CONFORMER_DIVERSEORDER>
1
79
30
36
18
103
89
125
26
16
48
136
123
32
25
70
101
107
134
114
108
88
49
121
118
66
126
113
9
76
124
95
11
120
135
38
92
94
75
87
59
54
58
83
39
99
27
119
72
131
7
98
106
111
112
116
62
42
28
130
20
34
80
115
17
10
81
61
78
24
129
50
71
40
35
41
15
56
46
104
117
73
84
77
90
127
96
109
5
51
8
100
97
43
102
12
22
64
85
19
52
13
37
82
93
133
60
57
132
14
69
29
47
21
74
2
6
31
55
45
4
44
33
91
110
67
63
128
68
122
3
65
53
23
105
86

> <PUBCHEM_MMFF94_PARTIAL_CHARGES>
49
1 1.33
10 0.42
11 0.28
12 -0.14
13 0.44
14 0.57
15 0.34
16 -0.15
17 -0.15
18 -0.14
19 0.2
2 -0.56
20 -0.15
21 -0.15
22 -0.15
23 -0.15
24 0.25
25 -0.15
26 -0.15
27 -0.15
28 -0.14
29 -0.15
3 -0.68
30 -0.15
31 -0.15
32 -0.15
33 -0.15
4 -0.57
42 0.15
43 0.15
44 0.15
45 0.15
46 0.4
47 0.15
48 0.15
49 0.42
5 -0.65
52 0.15
53 0.15
54 0.15
55 0.15
56 0.15
57 0.15
58 0.15
59 0.15
6 -0.65
7 -0.66
8 -0.76
9 0.3

> <PUBCHEM_EFFECTIVE_ROTOR_COUNT>
9

> <PUBCHEM_PHARMACOPHORE_FEATURES>
11
1 2 acceptor
1 3 acceptor
1 3 donor
1 4 acceptor
1 5 acceptor
1 6 acceptor
1 8 donor
6 12 16 17 19 20 21 rings
6 18 22 23 25 26 27 rings
6 2 7 9 10 14 15 rings
6 28 29 30 31 32 33 rings

> <PUBCHEM_HEAVY_ATOM_COUNT>
33

> <PUBCHEM_ATOM_DEF_STEREO_COUNT>
2

> <PUBCHEM_ATOM_UDEF_STEREO_COUNT>
0

> <PUBCHEM_BOND_DEF_STEREO_COUNT>
0

> <PUBCHEM_BOND_UDEF_STEREO_COUNT>
0

> <PUBCHEM_ISOTOPIC_ATOM_COUNT>
0

> <PUBCHEM_COMPONENT_COUNT>
1

> <PUBCHEM_CACTVS_TAUTO_COUNT>
2

> <PUBCHEM_CONFORMER_ID>
0445F3E600000001

> <PUBCHEM_MMFF94_ENERGY>
93.3317

> <PUBCHEM_FEATURE_SELFOVERLAP>
55.842

> <PUBCHEM_SHAPE_FINGERPRINT>
10006869 2 18192987119457870311
10439779 11 18197766911289087728
11513181 2 17775290438825593559
12107698 1 18339082709134402419
12422481 6 18197472135309916352
12633257 1 18260537923039730635
13560911 23 18188475995069072091
14020679 6 17967827041626886187
14117953 113 18267017263151783695
14251764 38 18338521962313899127
14790565 3 17689156034353145708
14840074 17 18410018697863226317
15001296 14 18410852200586250785
15210252 30 18188213203996131644
15238133 3 18335129921887837938
15297060 5 17917726702942487026
15475509 84 17683231469932382754
1601671 61 18412545431507731142
16760501 71 18410301302875012011
17818456 19 18272938228115879665
20764821 26 18262224595293625389
21033648 29 18060129968414897610
21585483 110 18264201414601524037
22121540 332 17346589803827805016
338550 245 18337960098576085061
3388396 114 16688214605360868124
3680242 22 18262511498813670154
4144715 1 18339092578262698359
463206 1 18342182171998549265
5081480 168 17199431102482243079
513532 50 16988563481215449276
550186 83 18113607972349095224
7064713 232 18130496492215301601

> <PUBCHEM_SHAPE_MULTIPOLES>
643.67
13.76
4.53
1.93
15.07
0.9
-1.17
4.14
-3.68
-0.15
1.52
-1.22
0.3
-1.82

> <PUBCHEM_SHAPE_SELFOVERLAP>
1370.372

> <PUBCHEM_SHAPE_VOLUME>
357.3

> <PUBCHEM_COORDINATE_TYPE>
2
5
10

$$$$
