11865808
  -OEChem-12032416173D

 62 64  0     1  0  0  0  0  0999 V2000
    1.6776    0.3365    1.4357 O   0  0  0  0  0  0  0  0  0  0  0  0
    4.5315    3.3428    0.3890 O   0  0  0  0  0  0  0  0  0  0  0  0
    1.5484   -1.3878   -1.6511 O   0  0  0  0  0  0  0  0  0  0  0  0
    3.6888    1.5189   -0.7511 O   0  0  0  0  0  0  0  0  0  0  0  0
   -4.0078    1.4741    1.5104 O   0  0  0  0  0  0  0  0  0  0  0  0
    0.0895   -1.3432    0.1353 N   0  0  0  0  0  0  0  0  0  0  0  0
    1.2080    2.0654   -0.0295 N   0  0  0  0  0  0  0  0  0  0  0  0
   -2.6716    0.1230    0.1760 N   0  0  0  0  0  0  0  0  0  0  0  0
    2.0472   -4.0196    0.1860 N   0  0  0  0  0  0  0  0  0  0  0  0
   -4.8908    0.4103   -0.3530 N   0  0  0  0  0  0  0  0  0  0  0  0
   -0.2231    0.0791    0.0248 C   0  0  1  0  0  0  0  0  0  0  0  0
   -1.4452    0.2860    0.9201 C   0  0  2  0  0  0  0  0  0  0  0  0
   -1.2963   -0.8080    1.9802 C   0  0  0  0  0  0  0  0  0  0  0  0
   -0.6761   -1.9691    1.2138 C   0  0  0  0  0  0  0  0  0  0  0  0
    0.9740    0.8293    0.5523 C   0  0  0  0  0  0  0  0  0  0  0  0
    2.2208    2.9865    0.4696 C   0  0  2  0  0  0  0  0  0  0  0  0
    0.4016    2.6865   -1.0772 C   0  0  0  0  0  0  0  0  0  0  0  0
    1.8376    4.3393   -0.1189 C   0  0  0  0  0  0  0  0  0  0  0  0
    1.1359    3.9726   -1.4243 C   0  0  0  0  0  0  0  0  0  0  0  0
    0.9372   -1.9907   -0.7677 C   0  0  0  0  0  0  0  0  0  0  0  0
    3.5447    2.5092   -0.0472 C   0  0  0  0  0  0  0  0  0  0  0  0
    1.0916   -3.4297   -0.5967 C   0  0  0  0  0  0  0  0  0  0  0  0
   -3.8691    0.7371    0.5350 C   0  0  0  0  0  0  0  0  0  0  0  0
    0.3355   -4.4263   -1.1693 C   0  0  0  0  0  0  0  0  0  0  0  0
   -6.2378    0.9118   -0.2148 C   0  0  0  0  0  0  0  0  0  0  0  0
    1.9125   -5.3821    0.1228 C   0  0  0  0  0  0  0  0  0  0  0  0
    0.8553   -5.6632   -0.7141 C   0  0  0  0  0  0  0  0  0  0  0  0
    3.0506   -3.3292    0.9661 C   0  0  0  0  0  0  0  0  0  0  0  0
    5.8558    3.0017   -0.0331 C   0  0  0  0  0  0  0  0  0  0  0  0
   -7.2393   -0.1095   -0.7382 C   0  0  0  0  0  0  0  0  0  0  0  0
   -6.3870    2.2483   -0.9310 C   0  0  0  0  0  0  0  0  0  0  0  0
   -0.4149    0.2950   -1.0280 H   0  0  0  0  0  0  0  0  0  0  0  0
   -1.4583    1.2765    1.3889 H   0  0  0  0  0  0  0  0  0  0  0  0
   -0.6023   -0.4740    2.7611 H   0  0  0  0  0  0  0  0  0  0  0  0
   -2.2360   -1.0897    2.4651 H   0  0  0  0  0  0  0  0  0  0  0  0
   -1.4450   -2.6017    0.7571 H   0  0  0  0  0  0  0  0  0  0  0  0
   -0.0322   -2.5900    1.8422 H   0  0  0  0  0  0  0  0  0  0  0  0
    2.2367    2.9725    1.5642 H   0  0  0  0  0  0  0  0  0  0  0  0
    0.3126    2.0312   -1.9475 H   0  0  0  0  0  0  0  0  0  0  0  0
   -0.5941    2.8883   -0.6683 H   0  0  0  0  0  0  0  0  0  0  0  0
    1.1211    4.8387    0.5451 H   0  0  0  0  0  0  0  0  0  0  0  0
    2.6784    5.0196   -0.2823 H   0  0  0  0  0  0  0  0  0  0  0  0
    1.8823    3.7804   -2.2046 H   0  0  0  0  0  0  0  0  0  0  0  0
    0.4637    4.7571   -1.7828 H   0  0  0  0  0  0  0  0  0  0  0  0
   -2.6809   -0.5244   -0.6066 H   0  0  0  0  0  0  0  0  0  0  0  0
   -4.6595   -0.1437   -1.1722 H   0  0  0  0  0  0  0  0  0  0  0  0
   -0.4998   -4.2834   -1.8411 H   0  0  0  0  0  0  0  0  0  0  0  0
   -6.4344    1.0712    0.8523 H   0  0  0  0  0  0  0  0  0  0  0  0
    2.5727   -6.0392    0.6728 H   0  0  0  0  0  0  0  0  0  0  0  0
    0.4981   -6.6513   -0.9674 H   0  0  0  0  0  0  0  0  0  0  0  0
    2.5460   -2.7507    1.7438 H   0  0  0  0  0  0  0  0  0  0  0  0
    3.6161   -2.6718    0.3008 H   0  0  0  0  0  0  0  0  0  0  0  0
    3.7247   -4.0578    1.4236 H   0  0  0  0  0  0  0  0  0  0  0  0
    6.5460    3.7411    0.3815 H   0  0  0  0  0  0  0  0  0  0  0  0
    6.1310    2.0128    0.3457 H   0  0  0  0  0  0  0  0  0  0  0  0
    5.9241    3.0307   -1.1248 H   0  0  0  0  0  0  0  0  0  0  0  0
   -7.1379   -1.0610   -0.2046 H   0  0  0  0  0  0  0  0  0  0  0  0
   -7.0828   -0.3113   -1.8038 H   0  0  0  0  0  0  0  0  0  0  0  0
   -8.2666    0.2454   -0.6056 H   0  0  0  0  0  0  0  0  0  0  0  0
   -7.4010    2.6444   -0.8138 H   0  0  0  0  0  0  0  0  0  0  0  0
   -5.6871    2.9888   -0.5289 H   0  0  0  0  0  0  0  0  0  0  0  0
   -6.1805    2.1492   -2.0026 H   0  0  0  0  0  0  0  0  0  0  0  0
  1 15  2  0  0  0  0
  2 21  1  0  0  0  0
  2 29  1  0  0  0  0
  3 20  2  0  0  0  0
  4 21  2  0  0  0  0
  5 23  2  0  0  0  0
  6 11  1  0  0  0  0
  6 14  1  0  0  0  0
  6 20  1  0  0  0  0
  7 15  1  0  0  0  0
  7 16  1  0  0  0  0
  7 17  1  0  0  0  0
  8 12  1  0  0  0  0
  8 23  1  0  0  0  0
  8 45  1  0  0  0  0
  9 22  1  0  0  0  0
  9 26  1  0  0  0  0
  9 28  1  0  0  0  0
 10 23  1  0  0  0  0
 10 25  1  0  0  0  0
 10 46  1  0  0  0  0
 11 12  1  0  0  0  0
 11 15  1  0  0  0  0
 11 32  1  0  0  0  0
 12 13  1  0  0  0  0
 12 33  1  0  0  0  0
 13 14  1  0  0  0  0
 13 34  1  0  0  0  0
 13 35  1  0  0  0  0
 14 36  1  0  0  0  0
 14 37  1  0  0  0  0
 16 18  1  0  0  0  0
 16 21  1  0  0  0  0
 16 38  1  0  0  0  0
 17 19  1  0  0  0  0
 17 39  1  0  0  0  0
 17 40  1  0  0  0  0
 18 19  1  0  0  0  0
 18 41  1  0  0  0  0
 18 42  1  0  0  0  0
 19 43  1  0  0  0  0
 19 44  1  0  0  0  0
 20 22  1  0  0  0  0
 22 24  2  0  0  0  0
 24 27  1  0  0  0  0
 24 47  1  0  0  0  0
 25 30  1  0  0  0  0
 25 31  1  0  0  0  0
 25 48  1  0  0  0  0
 26 27  2  0  0  0  0
 26 49  1  0  0  0  0
 27 50  1  0  0  0  0
 28 51  1  0  0  0  0
 28 52  1  0  0  0  0
 28 53  1  0  0  0  0
 29 54  1  0  0  0  0
 29 55  1  0  0  0  0
 29 56  1  0  0  0  0
 30 57  1  0  0  0  0
 30 58  1  0  0  0  0
 30 59  1  0  0  0  0
 31 60  1  0  0  0  0
 31 61  1  0  0  0  0
 31 62  1  0  0  0  0
M  END
> <PUBCHEM_COMPOUND_CID>
11865808

> <PUBCHEM_CONFORMER_RMSD>
1.2

> <PUBCHEM_CONFORMER_DIVERSEORDER>
1
46
45
37
50
41
20
49
21
35
27
51
48
30
26
34
2
28
47
25
19
43
18
29
12
36
22
39
9
11
42
44
24
17
10
3
38
32
13
7
14
31
16
4
33
6
8
23
40
15
5

> <PUBCHEM_MMFF94_PARTIAL_CHARGES>
31
1 -0.57
10 -0.73
11 0.36
12 0.3
14 0.3
15 0.57
16 0.36
17 0.3
2 -0.43
20 0.71
21 0.66
22 -0.24
23 0.69
24 -0.15
25 0.3
26 -0.3
27 -0.15
28 0.26
29 0.28
3 -0.57
4 -0.57
45 0.37
46 0.37
47 0.15
49 0.15
5 -0.57
50 0.15
6 -0.66
7 -0.66
8 -0.73
9 0.05

> <PUBCHEM_EFFECTIVE_ROTOR_COUNT>
12

> <PUBCHEM_PHARMACOPHORE_FEATURES>
11
1 1 acceptor
1 10 donor
1 3 acceptor
1 4 acceptor
1 5 acceptor
1 8 donor
1 9 cation
3 25 30 31 hydrophobe
5 6 11 12 13 14 rings
5 7 16 17 18 19 rings
5 9 22 24 26 27 rings

> <PUBCHEM_HEAVY_ATOM_COUNT>
31

> <PUBCHEM_ATOM_DEF_STEREO_COUNT>
3

> <PUBCHEM_ATOM_UDEF_STEREO_COUNT>
0

> <PUBCHEM_BOND_DEF_STEREO_COUNT>
0

> <PUBCHEM_BOND_UDEF_STEREO_COUNT>
0

> <PUBCHEM_ISOTOPIC_ATOM_COUNT>
0

> <PUBCHEM_COMPONENT_COUNT>
1

> <PUBCHEM_CACTVS_TAUTO_COUNT>
3

> <PUBCHEM_CONFORMER_ID>
00B50ED000000001

> <PUBCHEM_MMFF94_ENERGY>
64.1807

> <PUBCHEM_FEATURE_SELFOVERLAP>
55.872

> <PUBCHEM_SHAPE_FINGERPRINT>
10721379 63 18199479774606506109
10940486 97 17829336027305554836
11115154 58 17686624537810513741
11488393 25 18191569887898438949
11621639 208 17756121425145002549
11763715 3 17475539186564964230
12788726 201 17111601907291486198
13590594 115 17761503491401736993
1361 2 18411978057485073074
13692114 37 18121773096352916215
13899415 180 17977373946429960951
13968360 50 18411414042558895949
14150023 79 18409448111294052143
15420108 30 18193257797387608168
15439362 3 18410292463547714033
15484559 13 18413113848691380830
15775530 1 17898320357504600035
1813 80 17979632338892059563
19319366 153 18200869695196675269
20721686 124 18335976545424565503
21033648 29 18126840736191523816
21304303 282 17695885001862919117
23419403 2 17678159517651621254
23559900 14 18194953055913940913
23598288 3 17612597034845819128
3380486 145 17332263995359965290
376196 1 18188201126374353273
38695281 34 18338797930541260057
4017518 198 18341900744703789678
46194498 28 18263915550336450589
5385378 56 18411146818373870793
57527306 92 15337681973978814082
59444896 2 17915994993725181870
6004065 56 18265051336588933451
6700243 42 16693036518406460390
7164475 11 17114101625903253660
79837 15 18053677050692989306
9981440 41 18266180719919163425

> <PUBCHEM_SHAPE_MULTIPOLES>
583.71
10.89
8.16
1.33
23.48
8.56
0.18
-10.36
-1.61
-12.07
-2.31
0.29
0.2
0.19

> <PUBCHEM_SHAPE_SELFOVERLAP>
1222.03

> <PUBCHEM_SHAPE_VOLUME>
333.1

> <PUBCHEM_COORDINATE_TYPE>
2
5
10

$$$$
