51137096
  -OEChem-12032416243D

 46 49  0     1  0  0  0  0  0999 V2000
   -2.5216    0.7177    0.3088 N   0  0  1  0  0  0  0  0  0  0  0  0
    2.1836    0.6668    1.2138 N   0  0  0  0  0  0  0  0  0  0  0  0
    1.5047    0.0967   -0.8243 N   0  0  0  0  0  0  0  0  0  0  0  0
   -3.5981   -0.1558   -0.1543 C   0  0  0  0  0  0  0  0  0  0  0  0
   -0.2407    1.0829    0.7142 C   0  0  2  0  0  0  0  0  0  0  0  0
   -1.3008   -0.0237    0.6327 C   0  0  0  0  0  0  0  0  0  0  0  0
   -2.1150    1.6877   -0.7079 C   0  0  0  0  0  0  0  0  0  0  0  0
   -0.7965    2.2198   -0.1611 C   0  0  0  0  0  0  0  0  0  0  0  0
   -4.8055    0.6866   -0.5804 C   0  0  0  0  0  0  0  0  0  0  0  0
   -3.9778   -1.1460    0.9522 C   0  0  0  0  0  0  0  0  0  0  0  0
   -5.9798   -0.1964   -0.9993 C   0  0  0  0  0  0  0  0  0  0  0  0
   -5.1534   -2.0264    0.5319 C   0  0  0  0  0  0  0  0  0  0  0  0
   -6.3540   -1.1916    0.0953 C   0  0  0  0  0  0  0  0  0  0  0  0
    1.1409    0.6047    0.3319 C   0  0  0  0  0  0  0  0  0  0  0  0
    3.2942    0.1653    0.5851 C   0  0  0  0  0  0  0  0  0  0  0  0
    2.8447   -0.1835   -0.6854 C   0  0  0  0  0  0  0  0  0  0  0  0
    4.6132   -0.0079    1.0057 C   0  0  0  0  0  0  0  0  0  0  0  0
    3.7511   -0.7393   -1.6039 C   0  0  0  0  0  0  0  0  0  0  0  0
    5.5020   -0.5624    0.0788 C   0  0  0  0  0  0  0  0  0  0  0  0
    5.0807   -0.9222   -1.2034 C   0  0  0  0  0  0  0  0  0  0  0  0
    6.9281   -0.7731    0.4696 C   0  0  0  0  0  0  0  0  0  0  0  0
   -3.2624   -0.7318   -1.0291 H   0  0  0  0  0  0  0  0  0  0  0  0
   -0.2065    1.4542    1.7489 H   0  0  0  0  0  0  0  0  0  0  0  0
   -1.0519   -0.7579   -0.1450 H   0  0  0  0  0  0  0  0  0  0  0  0
   -1.3666   -0.5447    1.5938 H   0  0  0  0  0  0  0  0  0  0  0  0
   -2.8239    2.5129   -0.8263 H   0  0  0  0  0  0  0  0  0  0  0  0
   -1.9480    1.2149   -1.6843 H   0  0  0  0  0  0  0  0  0  0  0  0
   -0.1204    2.5158   -0.9702 H   0  0  0  0  0  0  0  0  0  0  0  0
   -0.9757    3.1045    0.4628 H   0  0  0  0  0  0  0  0  0  0  0  0
   -5.1235    1.3410    0.2419 H   0  0  0  0  0  0  0  0  0  0  0  0
   -4.5682    1.3311   -1.4340 H   0  0  0  0  0  0  0  0  0  0  0  0
   -3.1428   -1.8108    1.2000 H   0  0  0  0  0  0  0  0  0  0  0  0
   -4.2438   -0.6062    1.8707 H   0  0  0  0  0  0  0  0  0  0  0  0
   -5.7186   -0.7418   -1.9147 H   0  0  0  0  0  0  0  0  0  0  0  0
   -6.8462    0.4310   -1.2378 H   0  0  0  0  0  0  0  0  0  0  0  0
   -5.4419   -2.6783    1.3643 H   0  0  0  0  0  0  0  0  0  0  0  0
   -4.8438   -2.6797   -0.2932 H   0  0  0  0  0  0  0  0  0  0  0  0
   -7.1515   -1.8520   -0.2635 H   0  0  0  0  0  0  0  0  0  0  0  0
   -6.7537   -0.6483    0.9604 H   0  0  0  0  0  0  0  0  0  0  0  0
    2.1465    1.0186    2.1614 H   0  0  0  0  0  0  0  0  0  0  0  0
    4.9273    0.2777    2.0039 H   0  0  0  0  0  0  0  0  0  0  0  0
    3.4335   -1.0218   -2.6025 H   0  0  0  0  0  0  0  0  0  0  0  0
    5.7860   -1.3505   -1.9122 H   0  0  0  0  0  0  0  0  0  0  0  0
    7.3335   -1.6775    0.0031 H   0  0  0  0  0  0  0  0  0  0  0  0
    7.0296   -0.8989    1.5530 H   0  0  0  0  0  0  0  0  0  0  0  0
    7.5326    0.0852    0.1598 H   0  0  0  0  0  0  0  0  0  0  0  0
  1  4  1  0  0  0  0
  1  6  1  0  0  0  0
  1  7  1  0  0  0  0
  2 14  1  0  0  0  0
  2 15  1  0  0  0  0
  2 40  1  0  0  0  0
  3 14  2  0  0  0  0
  3 16  1  0  0  0  0
  4  9  1  0  0  0  0
  4 10  1  0  0  0  0
  4 22  1  0  0  0  0
  5  6  1  0  0  0  0
  5  8  1  0  0  0  0
  5 14  1  0  0  0  0
  5 23  1  0  0  0  0
  6 24  1  0  0  0  0
  6 25  1  0  0  0  0
  7  8  1  0  0  0  0
  7 26  1  0  0  0  0
  7 27  1  0  0  0  0
  8 28  1  0  0  0  0
  8 29  1  0  0  0  0
  9 11  1  0  0  0  0
  9 30  1  0  0  0  0
  9 31  1  0  0  0  0
 10 12  1  0  0  0  0
 10 32  1  0  0  0  0
 10 33  1  0  0  0  0
 11 13  1  0  0  0  0
 11 34  1  0  0  0  0
 11 35  1  0  0  0  0
 12 13  1  0  0  0  0
 12 36  1  0  0  0  0
 12 37  1  0  0  0  0
 13 38  1  0  0  0  0
 13 39  1  0  0  0  0
 15 16  2  0  0  0  0
 15 17  1  0  0  0  0
 16 18  1  0  0  0  0
 17 19  2  0  0  0  0
 17 41  1  0  0  0  0
 18 20  2  0  0  0  0
 18 42  1  0  0  0  0
 19 20  1  0  0  0  0
 19 21  1  0  0  0  0
 20 43  1  0  0  0  0
 21 44  1  0  0  0  0
 21 45  1  0  0  0  0
 21 46  1  0  0  0  0
M  END
> <PUBCHEM_COMPOUND_CID>
51137096

> <PUBCHEM_CONFORMER_RMSD>
0.6

> <PUBCHEM_CONFORMER_DIVERSEORDER>
1
61
53
13
65
62
34
11
60
48
18
64
16
56
52
43
46
58
41
39
54
22
40
63
44
2
59
51
35
14
45
23
55
49
25
17
37
57
10
7
27
6
9
42
28
50
24
12
33
38
5
4
47
19
8
36
15
29
3
30
21
20
31
32
26

> <PUBCHEM_MMFF94_PARTIAL_CHARGES>
19
1 -0.81
14 0.01
15 -0.15
16 0.23
17 -0.15
18 -0.15
19 -0.14
2 0.03
20 -0.15
21 0.14
3 -0.57
4 0.27
40 0.27
41 0.15
42 0.15
43 0.15
5 0.18
6 0.27
7 0.27

> <PUBCHEM_EFFECTIVE_ROTOR_COUNT>
4.2

> <PUBCHEM_PHARMACOPHORE_FEATURES>
7
1 1 cation
1 2 donor
3 2 3 14 cation
5 1 5 6 7 8 rings
5 2 3 14 15 16 rings
6 15 16 17 18 19 20 rings
6 4 9 10 11 12 13 rings

> <PUBCHEM_HEAVY_ATOM_COUNT>
21

> <PUBCHEM_ATOM_DEF_STEREO_COUNT>
1

> <PUBCHEM_ATOM_UDEF_STEREO_COUNT>
0

> <PUBCHEM_BOND_DEF_STEREO_COUNT>
0

> <PUBCHEM_BOND_UDEF_STEREO_COUNT>
0

> <PUBCHEM_ISOTOPIC_ATOM_COUNT>
0

> <PUBCHEM_COMPONENT_COUNT>
1

> <PUBCHEM_CACTVS_TAUTO_COUNT>
2

> <PUBCHEM_CONFORMER_ID>
030C4A4800000001

> <PUBCHEM_MMFF94_ENERGY>
29.5957

> <PUBCHEM_FEATURE_SELFOVERLAP>
35.63

> <PUBCHEM_SHAPE_FINGERPRINT>
10 15 18130493211846491034
10354089 29 14333127481717530026
106641 1 13326565289872619223
10670039 82 11530750492851556526
10693767 8 16371555987697682210
11089746 13 15430038755882734908
11128504 68 16443347602362131085
11315181 36 18410857668263877497
11796584 16 18408039602386535403
11963148 33 18410567401210595806
12166972 35 17313106366877442244
12236239 1 17167579375780045216
12403259 118 13254802347918889507
12516196 113 17489587870218556145
12633257 1 15913328022171643845
12788726 201 17677322815162715353
12969540 114 12252179714562204451
13288520 33 18335419071807257721
13402501 40 18273218598969568687
13533116 47 15410620255350101734
13544653 18 17846784013853483249
13668630 136 17749109976458152466
13685833 64 18273217521465085315
13862211 1 18409448111447351323
1420 363 18202003230727214358
14251752 14 17385716981173103127
14251764 18 14261346972661633480
14294032 229 17387683904713511301
14341114 176 15985109600136287572
14386348 63 18272369776118954207
14528608 73 15357698616967727499
14848160 23 18342737420574065243
14849402 71 14691989437055918210
15183329 4 15430031058832056171
15238133 3 12103846778312684186
15716309 27 17418092117795097054
17844677 252 18411985766914732097
17870717 6 18260831506083156119
1813 80 17203060641794706253
18222031 100 18410577300961493508
18681886 176 17894346713701900472
19141452 34 17703788167438201439
193927 3 18342749532777381449
19489759 90 18186519886953050485
200 152 16587744226406869188
20281389 69 9871746888829651254
20374829 77 18335138704763245905
21054139 6 17749106690881881482
21150785 3 17894355488705065222
21267235 1 18114183073487293523
21623969 137 17561366171249851414
221357 26 14418127418156611278
22224240 67 16200424780608422790
23035841 295 18259705597290836963
23198884 109 15574713604062132031
23402539 116 17967532358966265845
23402655 69 14418134027894657296
23536379 177 16153705418852096563
23557571 272 18340202990511845996
23559900 14 18114461270317825897
239999 70 18342175592208280698
26918003 58 17561363984900273611
2838139 119 13695583352016282399
293599 30 8790886280705324425
29717793 49 17095244692475888846
3004659 81 17676203589149149640
312425 54 17203060629331745699
314173 85 18343589538207537801
335352 9 18259979380603684397
3545911 37 11241972568366725361
3663271 9 14477244859762944679
4325135 7 18410294748739308556
44062 13 18188493613774129515
465052 167 18202002127616919086
5104073 3 16915947262567650450
5283156 175 17676486120619275946
542803 24 15068620483244333257
56616090 284 18113340821103757633
5718773 13 18270401556455037854
5758199 1 15123499334028773258
59682541 35 17774713234898959754
59682541 52 14996551898010906282
59755656 215 18335419045584487914
7495541 125 18342458162449527368

> <PUBCHEM_SHAPE_MULTIPOLES>
417.23
16.94
1.58
1.19
0.66
0.26
-0.19
-8.84
-1.21
-1.81
0.03
0.77
-0.12
1.05

> <PUBCHEM_SHAPE_SELFOVERLAP>
898.474

> <PUBCHEM_SHAPE_VOLUME>
230.2

> <PUBCHEM_COORDINATE_TYPE>
2
5
10

$$$$
