45784320
  -OEChem-12032416343D

 41 44  0     1  0  0  0  0  0999 V2000
   -8.3333   -0.1868    0.5560 F   0  0  0  0  0  0  0  0  0  0  0  0
   -2.0481   -0.2661   -0.1242 N   0  0  1  0  0  0  0  0  0  0  0  0
    2.6100   -1.1902    0.5143 N   0  0  0  0  0  0  0  0  0  0  0  0
    2.0229    0.8767   -0.0543 N   0  0  0  0  0  0  0  0  0  0  0  0
    8.5786   -0.6839   -0.1308 N   0  0  0  0  0  0  0  0  0  0  0  0
    0.1491   -0.6998    0.5713 C   0  0  1  0  0  0  0  0  0  0  0  0
   -0.5794    0.1213    1.6495 C   0  0  0  0  0  0  0  0  0  0  0  0
   -0.7259   -0.5591   -0.6815 C   0  0  0  0  0  0  0  0  0  0  0  0
   -1.8004    0.6998    0.9462 C   0  0  0  0  0  0  0  0  0  0  0  0
    1.5873   -0.3011    0.3333 C   0  0  0  0  0  0  0  0  0  0  0  0
   -2.9729    0.2424   -1.1264 C   0  0  0  0  0  0  0  0  0  0  0  0
   -4.4053    0.1279   -0.6769 C   0  0  0  0  0  0  0  0  0  0  0  0
    3.7836   -0.5431    0.2239 C   0  0  0  0  0  0  0  0  0  0  0  0
    3.3905    0.7451   -0.1281 C   0  0  0  0  0  0  0  0  0  0  0  0
   -5.1361   -1.0251   -0.9641 C   0  0  0  0  0  0  0  0  0  0  0  0
   -5.0016    1.1743    0.0267 C   0  0  0  0  0  0  0  0  0  0  0  0
    5.1146   -0.9612    0.2386 C   0  0  0  0  0  0  0  0  0  0  0  0
    4.3701    1.6852   -0.4898 C   0  0  0  0  0  0  0  0  0  0  0  0
    6.0765   -0.0126   -0.1242 C   0  0  0  0  0  0  0  0  0  0  0  0
    5.7130    1.2877   -0.4821 C   0  0  0  0  0  0  0  0  0  0  0  0
   -6.4631   -1.1315   -0.5480 C   0  0  0  0  0  0  0  0  0  0  0  0
   -6.3286    1.0680    0.4429 C   0  0  0  0  0  0  0  0  0  0  0  0
   -7.0594   -0.0849    0.1556 C   0  0  0  0  0  0  0  0  0  0  0  0
    7.4577   -0.3831   -0.1278 C   0  0  0  0  0  0  0  0  0  0  0  0
    0.1279   -1.7518    0.8910 H   0  0  0  0  0  0  0  0  0  0  0  0
   -0.8931   -0.5444    2.4634 H   0  0  0  0  0  0  0  0  0  0  0  0
    0.0400    0.9114    2.0870 H   0  0  0  0  0  0  0  0  0  0  0  0
   -0.3736    0.2573   -1.3262 H   0  0  0  0  0  0  0  0  0  0  0  0
   -0.7288   -1.4833   -1.2697 H   0  0  0  0  0  0  0  0  0  0  0  0
   -1.5615    1.6967    0.5539 H   0  0  0  0  0  0  0  0  0  0  0  0
   -2.6388    0.7869    1.6437 H   0  0  0  0  0  0  0  0  0  0  0  0
   -2.7442    1.2765   -1.4186 H   0  0  0  0  0  0  0  0  0  0  0  0
   -2.8731   -0.3423   -2.0518 H   0  0  0  0  0  0  0  0  0  0  0  0
    2.5212   -2.1535    0.8092 H   0  0  0  0  0  0  0  0  0  0  0  0
   -4.6831   -1.8488   -1.5094 H   0  0  0  0  0  0  0  0  0  0  0  0
   -4.4462    2.0806    0.2526 H   0  0  0  0  0  0  0  0  0  0  0  0
    5.3808   -1.9751    0.5192 H   0  0  0  0  0  0  0  0  0  0  0  0
    4.0977    2.6979   -0.7695 H   0  0  0  0  0  0  0  0  0  0  0  0
    6.4721    2.0157   -0.7621 H   0  0  0  0  0  0  0  0  0  0  0  0
   -7.0323   -2.0291   -0.7709 H   0  0  0  0  0  0  0  0  0  0  0  0
   -6.7935    1.8830    0.9897 H   0  0  0  0  0  0  0  0  0  0  0  0
  1 23  1  0  0  0  0
  2  8  1  0  0  0  0
  2  9  1  0  0  0  0
  2 11  1  0  0  0  0
  3 10  1  0  0  0  0
  3 13  1  0  0  0  0
  3 34  1  0  0  0  0
  4 10  2  0  0  0  0
  4 14  1  0  0  0  0
  5 24  3  0  0  0  0
  6  7  1  0  0  0  0
  6  8  1  0  0  0  0
  6 10  1  0  0  0  0
  6 25  1  0  0  0  0
  7  9  1  0  0  0  0
  7 26  1  0  0  0  0
  7 27  1  0  0  0  0
  8 28  1  0  0  0  0
  8 29  1  0  0  0  0
  9 30  1  0  0  0  0
  9 31  1  0  0  0  0
 11 12  1  0  0  0  0
 11 32  1  0  0  0  0
 11 33  1  0  0  0  0
 12 15  2  0  0  0  0
 12 16  1  0  0  0  0
 13 14  2  0  0  0  0
 13 17  1  0  0  0  0
 14 18  1  0  0  0  0
 15 21  1  0  0  0  0
 15 35  1  0  0  0  0
 16 22  2  0  0  0  0
 16 36  1  0  0  0  0
 17 19  2  0  0  0  0
 17 37  1  0  0  0  0
 18 20  2  0  0  0  0
 18 38  1  0  0  0  0
 19 20  1  0  0  0  0
 19 24  1  0  0  0  0
 20 39  1  0  0  0  0
 21 23  2  0  0  0  0
 21 40  1  0  0  0  0
 22 23  1  0  0  0  0
 22 41  1  0  0  0  0
M  END
> <PUBCHEM_COMPOUND_CID>
45784320

> <PUBCHEM_CONFORMER_RMSD>
0.8

> <PUBCHEM_CONFORMER_DIVERSEORDER>
1
49
40
34
47
17
42
22
14
41
48
39
5
50
23
46
36
15
31
20
13
3
35
9
45
44
12
27
33
21
29
24
26
38
32
18
19
7
43
16
8
11
6
28
30
10
4
37
25
2

> <PUBCHEM_MMFF94_PARTIAL_CHARGES>
31
1 -0.19
10 0.01
11 0.41
12 -0.14
13 -0.15
14 0.23
15 -0.15
16 -0.15
17 -0.15
18 -0.15
19 0.07
2 -0.81
20 -0.15
21 -0.15
22 -0.15
23 0.19
24 0.48
3 0.03
34 0.27
35 0.15
36 0.15
37 0.15
38 0.15
39 0.15
4 -0.57
40 0.15
41 0.15
5 -0.56
6 0.18
8 0.27
9 0.27

> <PUBCHEM_EFFECTIVE_ROTOR_COUNT>
4

> <PUBCHEM_PHARMACOPHORE_FEATURES>
8
1 2 cation
1 3 donor
1 5 acceptor
3 3 4 10 cation
5 2 6 7 8 9 rings
5 3 4 10 13 14 rings
6 12 15 16 21 22 23 rings
6 13 14 17 18 19 20 rings

> <PUBCHEM_HEAVY_ATOM_COUNT>
24

> <PUBCHEM_ATOM_DEF_STEREO_COUNT>
1

> <PUBCHEM_ATOM_UDEF_STEREO_COUNT>
0

> <PUBCHEM_BOND_DEF_STEREO_COUNT>
0

> <PUBCHEM_BOND_UDEF_STEREO_COUNT>
0

> <PUBCHEM_ISOTOPIC_ATOM_COUNT>
0

> <PUBCHEM_COMPONENT_COUNT>
1

> <PUBCHEM_CACTVS_TAUTO_COUNT>
2

> <PUBCHEM_CONFORMER_ID>
02BA9D0000000001

> <PUBCHEM_MMFF94_ENERGY>
45.8486

> <PUBCHEM_FEATURE_SELFOVERLAP>
40.704

> <PUBCHEM_SHAPE_FINGERPRINT>
10 15 14273738482029557444
10066227 49 17846223186052198534
10299344 5 18341894100015037351
10595046 47 18409727348824897217
106641 1 12396305863030661060
11315181 36 15913328013777141491
11408170 108 17916308243951928406
11524674 6 15626221347383548479
11646440 116 16805326586891410181
12166972 35 18408604781518076172
12236239 1 18272368676501844372
12643181 29 14979951480207949677
12730499 353 17603302639891963770
12838862 33 12823008673840114148
13533116 47 16878212074957167736
13668630 136 18131635569677907430
14123256 10 16988846068235131403
14170010 4 18113617906930145604
14251752 14 17775849008154750649
14251764 18 17603863386822210274
14251764 46 18343019990783189239
14294032 229 17487916509370885097
14849402 71 18189341323874467989
14856354 85 18060139873568908943
14933364 13 18409449185167861981
15183329 4 18408035208513243375
15419008 47 15936403455534564069
15537594 2 16271923809669753935
17093844 174 13973965411772356159
18006028 8 12679461984467461339
18335252 98 18410298008361140195
20157964 124 18260830414997770128
20567600 254 15791725308767593347
21033648 29 17459189754593915432
21095086 128 18334293184722273279
21150785 3 18410012135358569042
21267235 1 18408887317746685396
21315763 28 18411418422977281461
21792961 116 17703508805600970789
221357 26 18187361026355014332
22224240 67 9871745789602840716
23035841 295 17989205958517764015
23198884 109 18408886248299692233
23536379 177 18412824677222302657
23622692 88 14056722361327511110
249057 3 18408322211281896558
29717793 49 18060143137633322932
3004659 81 18343861121990246538
314173 85 14620797115339074347
335352 9 18259990375735799206
3545911 37 17603584131984953746
4073 2 17895479240638091394
4325135 7 18408603665237152527
4339292 15 16629950149667707319
5283156 175 17561086886949015494
59682541 35 15936698142189631913
59755656 520 17894907459884035403
9663363 56 15770053921562082907

> <PUBCHEM_SHAPE_MULTIPOLES>
466.71
23.81
1.25
0.98
0.62
0.21
-0.12
-1.46
1.93
-0.32
0.09
0.61
0.02
-0.98

> <PUBCHEM_SHAPE_SELFOVERLAP>
1026.986

> <PUBCHEM_SHAPE_VOLUME>
255.2

> <PUBCHEM_COORDINATE_TYPE>
2
5
10

$$$$
