51137103
  -OEChem-12032416363D

 30 32  0     1  0  0  0  0  0999 V2000
    5.2366   -0.4490   -0.2575 F   0  0  0  0  0  0  0  0  0  0  0  0
   -4.1754   -0.0793   -0.3789 N   0  0  1  0  0  0  0  0  0  0  0  0
    0.4427   -1.3252   -0.0941 N   0  0  0  0  0  0  0  0  0  0  0  0
   -0.0853    0.8104    0.2230 N   0  0  0  0  0  0  0  0  0  0  0  0
   -2.0082   -0.8261    0.1160 C   0  0  1  0  0  0  0  0  0  0  0  0
   -2.7497   -0.4956    1.4230 C   0  0  0  0  0  0  0  0  0  0  0  0
   -2.8443   -0.1591   -0.9844 C   0  0  0  0  0  0  0  0  0  0  0  0
   -3.9381    0.3567    0.9971 C   0  0  0  0  0  0  0  0  0  0  0  0
   -0.5559   -0.4091    0.0870 C   0  0  0  0  0  0  0  0  0  0  0  0
   -5.0608    0.8223   -1.1011 C   0  0  0  0  0  0  0  0  0  0  0  0
    1.6371   -0.6519   -0.0739 C   0  0  0  0  0  0  0  0  0  0  0  0
    1.2809    0.6790    0.1254 C   0  0  0  0  0  0  0  0  0  0  0  0
    2.9583   -1.0799   -0.2087 C   0  0  0  0  0  0  0  0  0  0  0  0
    2.2896    1.6546    0.1973 C   0  0  0  0  0  0  0  0  0  0  0  0
    3.9494   -0.0956   -0.1348 C   0  0  0  0  0  0  0  0  0  0  0  0
    3.6231    1.2479    0.0646 C   0  0  0  0  0  0  0  0  0  0  0  0
   -2.0602   -1.9158   -0.0233 H   0  0  0  0  0  0  0  0  0  0  0  0
   -2.1269    0.0274    2.1564 H   0  0  0  0  0  0  0  0  0  0  0  0
   -3.1005   -1.4256    1.8877 H   0  0  0  0  0  0  0  0  0  0  0  0
   -2.4551    0.8372   -1.2329 H   0  0  0  0  0  0  0  0  0  0  0  0
   -2.8509   -0.7613   -1.8994 H   0  0  0  0  0  0  0  0  0  0  0  0
   -4.8066    0.1854    1.6407 H   0  0  0  0  0  0  0  0  0  0  0  0
   -3.6691    1.4198    1.0461 H   0  0  0  0  0  0  0  0  0  0  0  0
   -5.2148    0.4656   -2.1253 H   0  0  0  0  0  0  0  0  0  0  0  0
   -4.6699    1.8451   -1.1491 H   0  0  0  0  0  0  0  0  0  0  0  0
   -6.0455    0.8538   -0.6223 H   0  0  0  0  0  0  0  0  0  0  0  0
    0.3256   -2.3218   -0.2209 H   0  0  0  0  0  0  0  0  0  0  0  0
    3.2092   -2.1230   -0.3633 H   0  0  0  0  0  0  0  0  0  0  0  0
    2.0464    2.7009    0.3519 H   0  0  0  0  0  0  0  0  0  0  0  0
    4.4158    1.9897    0.1177 H   0  0  0  0  0  0  0  0  0  0  0  0
  1 15  1  0  0  0  0
  2  7  1  0  0  0  0
  2  8  1  0  0  0  0
  2 10  1  0  0  0  0
  3  9  1  0  0  0  0
  3 11  1  0  0  0  0
  3 27  1  0  0  0  0
  4  9  2  0  0  0  0
  4 12  1  0  0  0  0
  5  6  1  0  0  0  0
  5  7  1  0  0  0  0
  5  9  1  0  0  0  0
  5 17  1  0  0  0  0
  6  8  1  0  0  0  0
  6 18  1  0  0  0  0
  6 19  1  0  0  0  0
  7 20  1  0  0  0  0
  7 21  1  0  0  0  0
  8 22  1  0  0  0  0
  8 23  1  0  0  0  0
 10 24  1  0  0  0  0
 10 25  1  0  0  0  0
 10 26  1  0  0  0  0
 11 12  2  0  0  0  0
 11 13  1  0  0  0  0
 12 14  1  0  0  0  0
 13 15  2  0  0  0  0
 13 28  1  0  0  0  0
 14 16  2  0  0  0  0
 14 29  1  0  0  0  0
 15 16  1  0  0  0  0
 16 30  1  0  0  0  0
M  END
> <PUBCHEM_COMPOUND_CID>
51137103

> <PUBCHEM_CONFORMER_RMSD>
0.6

> <PUBCHEM_CONFORMER_DIVERSEORDER>
1
3
2
4

> <PUBCHEM_MMFF94_PARTIAL_CHARGES>
19
1 -0.19
10 0.27
11 -0.15
12 0.23
13 -0.15
14 -0.15
15 0.19
16 -0.15
2 -0.81
27 0.27
28 0.15
29 0.15
3 0.03
30 0.15
4 -0.57
5 0.18
7 0.27
8 0.27
9 0.01

> <PUBCHEM_EFFECTIVE_ROTOR_COUNT>
2

> <PUBCHEM_PHARMACOPHORE_FEATURES>
6
1 2 cation
1 3 donor
3 3 4 9 cation
5 2 5 6 7 8 rings
5 3 4 9 11 12 rings
6 11 12 13 14 15 16 rings

> <PUBCHEM_HEAVY_ATOM_COUNT>
16

> <PUBCHEM_ATOM_DEF_STEREO_COUNT>
1

> <PUBCHEM_ATOM_UDEF_STEREO_COUNT>
0

> <PUBCHEM_BOND_DEF_STEREO_COUNT>
0

> <PUBCHEM_BOND_UDEF_STEREO_COUNT>
0

> <PUBCHEM_ISOTOPIC_ATOM_COUNT>
0

> <PUBCHEM_COMPONENT_COUNT>
1

> <PUBCHEM_CACTVS_TAUTO_COUNT>
2

> <PUBCHEM_CONFORMER_ID>
030C4A4F00000001

> <PUBCHEM_MMFF94_ENERGY>
26.1396

> <PUBCHEM_FEATURE_SELFOVERLAP>
30.553

> <PUBCHEM_SHAPE_FINGERPRINT>
10014705 185 18260826033909569285
11401426 45 18202278117535218866
11471102 20 18413388748267728748
11543360 7 15338838719733542216
11796584 16 17167861933637550754
12236239 1 17346880043898628319
124424 183 18334296474202680243
12500047 106 17530965804165419027
12670546 56 17418092100836767776
13675066 3 18114749329457750256
13760787 19 16588022420276343106
13760787 5 18272660060026252648
13922767 16 18411981377547261064
14911166 2 18411983563859792070
14993402 34 17561080319479757391
15219456 202 18187366557882039939
15242439 84 18186238424433967286
15375358 24 18187081754416509603
15653759 3 17385726923811377305
17834072 33 18131064978613585055
17834072 8 18412266129531245300
18175812 5 18040999578408451167
18186145 218 18411425028700169234
200 152 17775282759692761297
20279233 1 18113058242241486307
20300324 65 16415480458913427073
20612939 158 18412829114161305684
20645477 56 17530963571309523149
20645477 70 18340204102966294206
21503847 285 16443068322056011684
231179 274 18260543424597314213
23402539 116 15697998514084586081
23402655 69 18272367568432060557
23557571 272 17603876611021415059
23559900 14 17313385591613114170
29717793 49 17132116827138915213
3268164 11 15339117906094220505
3545911 37 18408042918607339047
4028521 119 18188199923820355453
4072396 5 18337093589404074146
474 4 17487040409294055112
5104073 3 18340205305788889034
542803 24 14996004341425689982
573450 72 16056603105959794511
602551 16 16298960873299940986
633830 44 17458903842187636830
90127 26 17676211302847479937
9971528 1 18060701685076564456
9981440 41 16908596253883133088

> <PUBCHEM_SHAPE_MULTIPOLES>
307.06
9.92
1.28
0.97
1.74
0.21
-0.11
1.39
1.46
-0.77
-0.01
1.19
0.02
0.54

> <PUBCHEM_SHAPE_SELFOVERLAP>
669.02

> <PUBCHEM_SHAPE_VOLUME>
172.2

> <PUBCHEM_COORDINATE_TYPE>
2
5
10

$$$$
