75367730
  -OEChem-12032416383D

 44 46  0     1  0  0  0  0  0999 V2000
    5.3859    0.4386    0.7714 F   0  0  0  0  0  0  0  0  0  0  0  0
    5.1611   -0.9530   -0.8986 F   0  0  0  0  0  0  0  0  0  0  0  0
    3.6651    0.6127   -0.6044 F   0  0  0  0  0  0  0  0  0  0  0  0
   -4.8000   -0.4775    1.0420 O   0  0  0  0  0  0  0  0  0  0  0  0
   -2.5027    2.0222   -0.3754 O   0  0  0  0  0  0  0  0  0  0  0  0
    3.7448   -1.1527    0.8475 O   0  0  0  0  0  0  0  0  0  0  0  0
   -2.4936   -1.6584   -0.2116 N   0  0  1  0  0  0  0  0  0  0  0  0
   -0.3991    1.6747    0.5519 N   0  0  0  0  0  0  0  0  0  0  0  0
    0.4324    4.1453   -0.4830 N   0  0  0  0  0  0  0  0  0  0  0  0
   -2.4472   -0.3310   -0.8240 C   0  0  0  0  0  0  0  0  0  0  0  0
   -2.8413    0.7539    0.1868 C   0  0  2  0  0  0  0  0  0  0  0  0
   -3.8124   -2.3000   -0.2494 C   0  0  0  0  0  0  0  0  0  0  0  0
   -1.4865   -2.5499   -0.7882 C   0  0  0  0  0  0  0  0  0  0  0  0
   -4.3153    0.7787    0.5834 C   0  0  0  0  0  0  0  0  0  0  0  0
   -5.0198   -1.3928   -0.0246 C   0  0  0  0  0  0  0  0  0  0  0  0
   -0.0939   -2.1784   -0.3532 C   0  0  0  0  0  0  0  0  0  0  0  0
    0.8720   -1.8547   -1.3062 C   0  0  0  0  0  0  0  0  0  0  0  0
    0.2303   -2.1574    1.0033 C   0  0  0  0  0  0  0  0  0  0  0  0
   -1.2257    2.4636   -0.1630 C   0  0  0  0  0  0  0  0  0  0  0  0
    2.1620   -1.5104   -0.9028 C   0  0  0  0  0  0  0  0  0  0  0  0
    1.5204   -1.8132    1.4068 C   0  0  0  0  0  0  0  0  0  0  0  0
    2.4862   -1.4897    0.4538 C   0  0  0  0  0  0  0  0  0  0  0  0
   -0.8173    3.6771   -0.6713 C   0  0  0  0  0  0  0  0  0  0  0  0
    0.8506    2.1431    0.7402 C   0  0  0  0  0  0  0  0  0  0  0  0
    1.2590    3.3565    0.2320 C   0  0  0  0  0  0  0  0  0  0  0  0
    4.4850   -0.2474    0.0364 C   0  0  0  0  0  0  0  0  0  0  0  0
   -3.0728   -0.2749   -1.7253 H   0  0  0  0  0  0  0  0  0  0  0  0
   -1.4411   -0.0979   -1.1907 H   0  0  0  0  0  0  0  0  0  0  0  0
   -2.3008    0.5727    1.1270 H   0  0  0  0  0  0  0  0  0  0  0  0
   -3.8186   -3.0651    0.5376 H   0  0  0  0  0  0  0  0  0  0  0  0
   -3.9687   -2.8242   -1.2016 H   0  0  0  0  0  0  0  0  0  0  0  0
   -1.5690   -2.5763   -1.8831 H   0  0  0  0  0  0  0  0  0  0  0  0
   -1.6481   -3.5824   -0.4476 H   0  0  0  0  0  0  0  0  0  0  0  0
   -4.4444    1.4961    1.4029 H   0  0  0  0  0  0  0  0  0  0  0  0
   -4.9425    1.1617   -0.2321 H   0  0  0  0  0  0  0  0  0  0  0  0
   -5.3062   -0.8723   -0.9468 H   0  0  0  0  0  0  0  0  0  0  0  0
   -5.8758   -2.0163    0.2569 H   0  0  0  0  0  0  0  0  0  0  0  0
    0.6349   -1.8732   -2.3666 H   0  0  0  0  0  0  0  0  0  0  0  0
   -0.5101   -2.4114    1.7573 H   0  0  0  0  0  0  0  0  0  0  0  0
    2.8902   -1.3013   -1.6802 H   0  0  0  0  0  0  0  0  0  0  0  0
    1.7672   -1.7985    2.4648 H   0  0  0  0  0  0  0  0  0  0  0  0
   -1.4783    4.3142   -1.2466 H   0  0  0  0  0  0  0  0  0  0  0  0
    1.5151    1.5123    1.3170 H   0  0  0  0  0  0  0  0  0  0  0  0
    2.2634    3.7318    0.3841 H   0  0  0  0  0  0  0  0  0  0  0  0
  1 26  1  0  0  0  0
  2 26  1  0  0  0  0
  3 26  1  0  0  0  0
  4 14  1  0  0  0  0
  4 15  1  0  0  0  0
  5 11  1  0  0  0  0
  5 19  1  0  0  0  0
  6 22  1  0  0  0  0
  6 26  1  0  0  0  0
  7 10  1  0  0  0  0
  7 12  1  0  0  0  0
  7 13  1  0  0  0  0
  8 19  2  0  0  0  0
  8 24  1  0  0  0  0
  9 23  2  0  0  0  0
  9 25  1  0  0  0  0
 10 11  1  0  0  0  0
 10 27  1  0  0  0  0
 10 28  1  0  0  0  0
 11 14  1  0  0  0  0
 11 29  1  0  0  0  0
 12 15  1  0  0  0  0
 12 30  1  0  0  0  0
 12 31  1  0  0  0  0
 13 16  1  0  0  0  0
 13 32  1  0  0  0  0
 13 33  1  0  0  0  0
 14 34  1  0  0  0  0
 14 35  1  0  0  0  0
 15 36  1  0  0  0  0
 15 37  1  0  0  0  0
 16 17  2  0  0  0  0
 16 18  1  0  0  0  0
 17 20  1  0  0  0  0
 17 38  1  0  0  0  0
 18 21  2  0  0  0  0
 18 39  1  0  0  0  0
 19 23  1  0  0  0  0
 20 22  2  0  0  0  0
 20 40  1  0  0  0  0
 21 22  1  0  0  0  0
 21 41  1  0  0  0  0
 23 42  1  0  0  0  0
 24 25  2  0  0  0  0
 24 43  1  0  0  0  0
 25 44  1  0  0  0  0
M  END
> <PUBCHEM_COMPOUND_CID>
75367730

> <PUBCHEM_CONFORMER_RMSD>
1

> <PUBCHEM_CONFORMER_DIVERSEORDER>
4
72
120
93
73
7
121
130
108
115
100
88
38
24
28
20
127
65
124
51
61
133
137
85
109
128
102
110
77
32
46
66
57
30
114
122
26
76
68
5
53
54
82
83
39
25
22
113
112
126
11
80
45
75
101
67
59
87
50
3
92
17
10
16
18
64
131
70
19
69
129
35
52
9
55
91
14
41
12
134
56
135
44
43
40
42
123
111
90
8
74
34
49
1
13
23
116
31
104
95
119
15
107
2
71
37
29
97
125
21
86
96
103
6
99
36
117
48
33
63
98
79
78
84
105
60
136
132
94
81
58
106
62
47
27
118
89

> <PUBCHEM_MMFF94_PARTIAL_CHARGES>
33
1 -0.34
10 0.27
11 0.28
12 0.27
13 0.41
14 0.28
15 0.28
16 -0.14
17 -0.15
18 -0.15
19 0.39
2 -0.34
20 -0.15
21 -0.15
22 0.08
23 0.16
24 0.16
25 0.16
26 1.3
3 -0.34
38 0.15
39 0.15
4 -0.56
40 0.15
41 0.15
42 0.15
43 0.15
44 0.15
5 -0.36
6 -0.36
7 -0.81
8 -0.62
9 -0.62

> <PUBCHEM_EFFECTIVE_ROTOR_COUNT>
7.4

> <PUBCHEM_PHARMACOPHORE_FEATURES>
7
1 4 acceptor
1 6 acceptor
1 7 cation
1 9 acceptor
6 16 17 18 20 21 22 rings
6 8 9 19 23 24 25 rings
7 4 7 10 11 12 14 15 rings

> <PUBCHEM_HEAVY_ATOM_COUNT>
26

> <PUBCHEM_ATOM_DEF_STEREO_COUNT>
1

> <PUBCHEM_ATOM_UDEF_STEREO_COUNT>
0

> <PUBCHEM_BOND_DEF_STEREO_COUNT>
0

> <PUBCHEM_BOND_UDEF_STEREO_COUNT>
0

> <PUBCHEM_ISOTOPIC_ATOM_COUNT>
0

> <PUBCHEM_COMPONENT_COUNT>
1

> <PUBCHEM_CACTVS_TAUTO_COUNT>
1

> <PUBCHEM_CONFORMER_ID>
047E053200000004

> <PUBCHEM_MMFF94_ENERGY>
86.5633

> <PUBCHEM_FEATURE_SELFOVERLAP>
35.522

> <PUBCHEM_SHAPE_FINGERPRINT>
10498660 4 18267019466580964559
10670039 82 18336273328107564870
10759866 29 18044094553812936722
1100329 8 18265051521156021151
11112241 14 16556747980313642048
11578080 2 17677593381143436831
11595378 159 18115572773900156410
12054548 360 18337666425807688849
12156800 1 13824002874103066569
12422481 6 17984109786621587184
12553582 1 18410564076841461785
12788726 201 18334295336601083234
13140716 1 18341051938400808161
13402501 40 18342175557231402656
138480 1 15024427395529735813
13941206 138 17035019230099722468
14020679 6 18042425585904445379
14787075 74 18041001760283856379
14790565 3 17547572583221714097
14955137 171 18341067275586681771
15927050 60 17546735214568447375
1601671 61 18273217495078285082
17492 54 18262812881275059996
18336668 15 18113899390143343876
18769570 83 18411695517625524730
19591789 44 18410292557625440369
19930381 70 16608847488424008638
20715895 44 17250320701220780365
338550 245 18263643042529481764
3680242 22 18336835199227570666
392239 28 18335422344086924112
469060 322 17603877662729201285
5265222 85 17040078109069922284
6287921 2 18058728142876620491
9925002 15 16983190373727484006

> <PUBCHEM_SHAPE_MULTIPOLES>
480.7
8.86
4.58
1.08
2.34
4.85
0.05
-3.46
0.93
-0.47
-0.62
0.28
-0.38
-0.09

> <PUBCHEM_SHAPE_SELFOVERLAP>
1022.332

> <PUBCHEM_SHAPE_VOLUME>
266.8

> <PUBCHEM_COORDINATE_TYPE>
2
5
10

$$$$
