11879617
  -OEChem-12032416353D

 63 68  0     1  0  0  0  0  0999 V2000
   -2.3940   -3.4692    0.8670 S   0  0  0  0  0  0  0  0  0  0  0  0
   -4.6726    0.5921    0.1322 O   0  0  0  0  0  0  0  0  0  0  0  0
   -2.2884    0.4517   -1.9342 O   0  0  0  0  0  0  0  0  0  0  0  0
   -0.3108    2.1030   -0.3188 O   0  0  0  0  0  0  0  0  0  0  0  0
   -3.3271   -4.3021    0.1324 O   0  0  0  0  0  0  0  0  0  0  0  0
   -2.0149   -3.8187    2.2227 O   0  0  0  0  0  0  0  0  0  0  0  0
    6.6679   -0.2827   -1.1644 O   0  0  0  0  0  0  0  0  0  0  0  0
   -2.9363   -1.8606    0.8489 N   0  0  0  0  0  0  0  0  0  0  0  0
   -2.3320    3.3419   -0.3994 N   0  0  0  0  0  0  0  0  0  0  0  0
   -2.7278    4.5962   -0.1629 N   0  0  0  0  0  0  0  0  0  0  0  0
   -0.5395    4.3853    0.2077 N   0  0  0  0  0  0  0  0  0  0  0  0
   -1.6243    5.2329    0.2099 N   0  0  0  0  0  0  0  0  0  0  0  0
    4.2212    0.5264   -0.0427 N   0  0  0  0  0  0  0  0  0  0  0  0
    0.2408   -1.6095    2.7670 N   0  0  0  0  0  0  0  0  0  0  0  0
   -2.4492    0.0876   -0.5544 C   0  0  1  0  0  0  0  0  0  0  0  0
   -3.3382    1.1296    0.0970 C   0  0  1  0  0  0  0  0  0  0  0  0
   -3.2338   -1.1975   -0.4436 C   0  0  2  0  0  0  0  0  0  0  0  0
   -3.2875    2.3220   -0.8395 C   0  0  2  0  0  0  0  0  0  0  0  0
   -4.6708   -0.7184   -0.4506 C   0  0  0  0  0  0  0  0  0  0  0  0
   -2.9747    1.6847   -2.1885 C   0  0  0  0  0  0  0  0  0  0  0  0
   -1.0033    3.2173   -0.1733 C   0  0  0  0  0  0  0  0  0  0  0  0
   -0.9014   -3.3621   -0.0741 C   0  0  0  0  0  0  0  0  0  0  0  0
    0.2203   -2.7162    0.4246 C   0  0  0  0  0  0  0  0  0  0  0  0
   -0.8906   -3.9473   -1.3326 C   0  0  0  0  0  0  0  0  0  0  0  0
    0.8163    1.8187    0.4398 C   0  0  0  0  0  0  0  0  0  0  0  0
    1.3780   -2.6540   -0.3512 C   0  0  0  0  0  0  0  0  0  0  0  0
    0.2670   -3.8851   -2.1081 C   0  0  0  0  0  0  0  0  0  0  0  0
    3.0724    1.0333    0.5733 C   0  0  0  0  0  0  0  0  0  0  0  0
    1.9400    1.3187   -0.1895 C   0  0  0  0  0  0  0  0  0  0  0  0
    4.8648    1.3374   -1.0855 C   0  0  0  0  0  0  0  0  0  0  0  0
    5.1216   -0.3590    0.7038 C   0  0  0  0  0  0  0  0  0  0  0  0
    0.7813    2.0442    1.8025 C   0  0  0  0  0  0  0  0  0  0  0  0
    1.4012   -3.2384   -1.6176 C   0  0  0  0  0  0  0  0  0  0  0  0
    5.7376    0.4478   -1.9635 C   0  0  0  0  0  0  0  0  0  0  0  0
    5.9825   -1.1573   -0.2690 C   0  0  0  0  0  0  0  0  0  0  0  0
    3.0592    1.2534    1.9506 C   0  0  0  0  0  0  0  0  0  0  0  0
    0.2316   -2.1046    1.7190 C   0  0  0  0  0  0  0  0  0  0  0  0
    1.9138    1.7588    2.5652 C   0  0  0  0  0  0  0  0  0  0  0  0
   -1.4576    0.0067   -0.1067 H   0  0  0  0  0  0  0  0  0  0  0  0
   -3.0521    1.3504    1.1304 H   0  0  0  0  0  0  0  0  0  0  0  0
   -3.0664   -1.8813   -1.2806 H   0  0  0  0  0  0  0  0  0  0  0  0
   -4.2566    2.8337   -0.8991 H   0  0  0  0  0  0  0  0  0  0  0  0
   -5.3554   -1.3639    0.1078 H   0  0  0  0  0  0  0  0  0  0  0  0
   -5.0467   -0.6199   -1.4749 H   0  0  0  0  0  0  0  0  0  0  0  0
   -3.8986    1.4354   -2.7218 H   0  0  0  0  0  0  0  0  0  0  0  0
   -2.3608    2.3133   -2.8407 H   0  0  0  0  0  0  0  0  0  0  0  0
   -2.8364   -1.2644    1.6791 H   0  0  0  0  0  0  0  0  0  0  0  0
   -1.7569   -4.4543   -1.7454 H   0  0  0  0  0  0  0  0  0  0  0  0
    2.2720   -2.1559    0.0161 H   0  0  0  0  0  0  0  0  0  0  0  0
    1.9266    1.1403   -1.2613 H   0  0  0  0  0  0  0  0  0  0  0  0
    0.2853   -4.3389   -3.0947 H   0  0  0  0  0  0  0  0  0  0  0  0
    5.4839    2.1015   -0.5992 H   0  0  0  0  0  0  0  0  0  0  0  0
    4.1353    1.8514   -1.7206 H   0  0  0  0  0  0  0  0  0  0  0  0
    4.5597   -1.0608    1.3315 H   0  0  0  0  0  0  0  0  0  0  0  0
    5.7712    0.2465    1.3477 H   0  0  0  0  0  0  0  0  0  0  0  0
   -0.1071    2.4217    2.3000 H   0  0  0  0  0  0  0  0  0  0  0  0
    2.3026   -3.1895   -2.2214 H   0  0  0  0  0  0  0  0  0  0  0  0
    5.1312   -0.2531   -2.5499 H   0  0  0  0  0  0  0  0  0  0  0  0
    6.3084    1.0622   -2.6669 H   0  0  0  0  0  0  0  0  0  0  0  0
    6.7337   -1.7320    0.2819 H   0  0  0  0  0  0  0  0  0  0  0  0
    5.3778   -1.8682   -0.8456 H   0  0  0  0  0  0  0  0  0  0  0  0
    3.9266    1.0543    2.5734 H   0  0  0  0  0  0  0  0  0  0  0  0
    1.9027    1.9289    3.6379 H   0  0  0  0  0  0  0  0  0  0  0  0
  1  5  2  0  0  0  0
  1  6  2  0  0  0  0
  1  8  1  0  0  0  0
  1 22  1  0  0  0  0
  2 16  1  0  0  0  0
  2 19  1  0  0  0  0
  3 15  1  0  0  0  0
  3 20  1  0  0  0  0
  4 21  1  0  0  0  0
  4 25  1  0  0  0  0
  7 34  1  0  0  0  0
  7 35  1  0  0  0  0
  8 17  1  0  0  0  0
  8 47  1  0  0  0  0
  9 10  1  0  0  0  0
  9 18  1  0  0  0  0
  9 21  1  0  0  0  0
 10 12  2  0  0  0  0
 11 12  1  0  0  0  0
 11 21  2  0  0  0  0
 13 28  1  0  0  0  0
 13 30  1  0  0  0  0
 13 31  1  0  0  0  0
 14 37  3  0  0  0  0
 15 16  1  0  0  0  0
 15 17  1  0  0  0  0
 15 39  1  0  0  0  0
 16 18  1  0  0  0  0
 16 40  1  0  0  0  0
 17 19  1  0  0  0  0
 17 41  1  0  0  0  0
 18 20  1  0  0  0  0
 18 42  1  0  0  0  0
 19 43  1  0  0  0  0
 19 44  1  0  0  0  0
 20 45  1  0  0  0  0
 20 46  1  0  0  0  0
 22 23  1  0  0  0  0
 22 24  2  0  0  0  0
 23 26  2  0  0  0  0
 23 37  1  0  0  0  0
 24 27  1  0  0  0  0
 24 48  1  0  0  0  0
 25 29  1  0  0  0  0
 25 32  2  0  0  0  0
 26 33  1  0  0  0  0
 26 49  1  0  0  0  0
 27 33  2  0  0  0  0
 27 51  1  0  0  0  0
 28 29  2  0  0  0  0
 28 36  1  0  0  0  0
 29 50  1  0  0  0  0
 30 34  1  0  0  0  0
 30 52  1  0  0  0  0
 30 53  1  0  0  0  0
 31 35  1  0  0  0  0
 31 54  1  0  0  0  0
 31 55  1  0  0  0  0
 32 38  1  0  0  0  0
 32 56  1  0  0  0  0
 33 57  1  0  0  0  0
 34 58  1  0  0  0  0
 34 59  1  0  0  0  0
 35 60  1  0  0  0  0
 35 61  1  0  0  0  0
 36 38  2  0  0  0  0
 36 62  1  0  0  0  0
 38 63  1  0  0  0  0
M  END
> <PUBCHEM_COMPOUND_CID>
11879617

> <PUBCHEM_CONFORMER_RMSD>
1.2

> <PUBCHEM_CONFORMER_DIVERSEORDER>
1
109
32
35
146
180
267
60
50
247
103
218
253
181
73
387
204
398
85
278
341
391
160
232
287
127
330
190
349
405
56
54
57
195
353
65
76
359
82
79
379
52
276
348
273
145
19
351
84
216
400
149
245
372
321
240
71
378
272
63
249
264
29
156
352
239
221
34
137
125
51
3
212
257
304
96
193
319
223
209
41
115
83
194
199
116
46
403
334
261
231
373
133
36
320
277
338
241
189
176
279
153
92
49
396
25
179
102
243
316
139
339
266
5
132
238
10
296
178
7
27
293
371
323
354
382
98
4
344
122
357
340
173
271
361
342
16
165
356
298
89
113
70
275
336
370
167
346
314
358
100
197
263
130
110
112
244
252
185
229
211
377
123
234
233
285
163
364
331
311
333
297
152
246
38
142
401
119
169
126
219
135
374
166
226
171
251
390
58
325
15
117
37
128
202
31
350
75
283
362
187
20
288
208
104
129
235
327
2
290
177
172
81
14
206
268
291
237
182
376
8
45
228
269
381
118
55
151
162
404
200
164
88
384
220
143
53
315
191
345
168
42
310
61
225
174
159
292
201
6
161
294
332
280
388
67
360
248
12
86
120
307
158
121
302
136
68
282
141
43
155
175
23
188
306
150
210
289
254
26
154
258
78
301
198
308
329
328
11
399
124
203
326
365
144
64
242
300
17
305
337
80
101
322
230
299
355
335
281
367
77
192
170
111
40
260
147
205
385
259
270
90
318
24
97
107
284
108
217
30
22
380
134
395
324
303
222
39
9
183
224
140
393
33
313
215
309
363
227
256
69
397
369
131
18
383
368
62
213
74
138
255
262
274
317
28
265
184
21
402
286
295
94
394
157
59
312
105
392
347
91
214
386
114
66
186
13
207
87
95
148
106
44
99
47
343
389
72
366
375
196
236
250
93
48

> <PUBCHEM_MMFF94_PARTIAL_CHARGES>
46
1 1.45
10 -0.42
11 -0.34
13 -0.84
14 -0.56
15 0.28
16 0.28
17 0.36
18 0.26
19 0.28
2 -0.56
20 0.28
21 0.25
22 -0.01
23 0.07
24 -0.15
25 0.08
26 -0.15
27 -0.15
28 0.1
29 -0.15
3 -0.56
30 0.37
31 0.37
32 -0.15
33 -0.15
34 0.28
35 0.28
36 -0.15
37 0.48
38 -0.15
4 -0.15
47 0.42
48 0.15
49 0.15
5 -0.65
50 0.15
51 0.15
56 0.15
57 0.15
6 -0.65
62 0.15
63 0.15
7 -0.56
8 -0.91
9 0.31

> <PUBCHEM_EFFECTIVE_ROTOR_COUNT>
9.4

> <PUBCHEM_PHARMACOPHORE_FEATURES>
15
1 13 cation
1 14 acceptor
1 2 acceptor
1 3 acceptor
1 5 acceptor
1 6 acceptor
1 7 acceptor
1 8 donor
3 9 11 21 cation
5 2 15 16 17 19 rings
5 3 15 16 18 20 rings
5 9 10 11 12 21 rings
6 22 23 24 26 27 33 rings
6 25 28 29 32 36 38 rings
6 7 13 30 31 34 35 rings

> <PUBCHEM_HEAVY_ATOM_COUNT>
38

> <PUBCHEM_ATOM_DEF_STEREO_COUNT>
4

> <PUBCHEM_ATOM_UDEF_STEREO_COUNT>
0

> <PUBCHEM_BOND_DEF_STEREO_COUNT>
0

> <PUBCHEM_BOND_UDEF_STEREO_COUNT>
0

> <PUBCHEM_ISOTOPIC_ATOM_COUNT>
0

> <PUBCHEM_COMPONENT_COUNT>
1

> <PUBCHEM_CACTVS_TAUTO_COUNT>
1

> <PUBCHEM_CONFORMER_ID>
00B544C100000001

> <PUBCHEM_MMFF94_ENERGY>
96.2989

> <PUBCHEM_FEATURE_SELFOVERLAP>
76.833

> <PUBCHEM_SHAPE_FINGERPRINT>
10032420 55 18127389195104240004
10462674 296 17263276732573619110
11578080 2 17025985230675660021
12156800 1 16665198185106883273
12422481 6 17977679928685976019
12788726 201 18334298703865999208
13402501 40 18413392054949805479
14251757 5 18335706069721845788
14363568 33 17398411091812890210
15001296 14 18042684090695046836
15927050 60 17982164518698104845
20764821 26 18196097857011913742
3027735 51 18129953256398996106
3298306 158 18271237227676818038
3493558 16 18114475504382783854
35225 105 18044634611263454119
5085150 59 18126273152848863810
508706 21 18338793523889542550
5265222 85 18413113844781573844
563151 40 18053967064097080000
5776283 40 17764045574874417686
59755656 215 18409725145390746991
70634741 139 18342187674584709636

> <PUBCHEM_SHAPE_MULTIPOLES>
715.79
9.86
6.84
2.1
14.35
0.85
0.6
0.41
-3.49
-6.47
-0.38
0.86
-0.77
1.93

> <PUBCHEM_SHAPE_SELFOVERLAP>
1552.712

> <PUBCHEM_SHAPE_VOLUME>
391.8

> <PUBCHEM_COORDINATE_TYPE>
2
5
10

$$$$
