75536766
  -OEChem-12032416323D

 44 45  0     1  0  0  0  0  0999 V2000
   -1.7107   -1.3068    0.1711 O   0  0  0  0  0  0  0  0  0  0  0  0
   -2.7462    2.1086    0.5809 O   0  0  0  0  0  0  0  0  0  0  0  0
    1.8349    1.3911    0.4876 O   0  0  0  0  0  0  0  0  0  0  0  0
   -5.0853    0.0508    0.1691 N   0  0  0  0  0  0  0  0  0  0  0  0
    0.7953   -0.4968    1.3271 N   0  0  0  0  0  0  0  0  0  0  0  0
    2.9548   -0.6713    0.5432 N   0  0  0  0  0  0  0  0  0  0  0  0
   -3.6750   -0.0179   -0.1776 C   0  0  1  0  0  0  0  0  0  0  0  0
   -2.7716    0.7115    0.7995 C   0  0  1  0  0  0  0  0  0  0  0  0
   -1.4272    0.0647    0.4947 C   0  0  1  0  0  0  0  0  0  0  0  0
   -3.1165   -1.4297   -0.1072 C   0  0  0  0  0  0  0  0  0  0  0  0
   -0.4535    0.1269    1.6579 C   0  0  0  0  0  0  0  0  0  0  0  0
   -5.9222   -0.3610   -0.9516 C   0  0  0  0  0  0  0  0  0  0  0  0
   -7.2904   -0.7913   -0.4324 C   0  0  0  0  0  0  0  0  0  0  0  0
   -6.0518    0.7763   -1.9609 C   0  0  0  0  0  0  0  0  0  0  0  0
    1.8759    0.1920    0.7529 C   0  0  0  0  0  0  0  0  0  0  0  0
    4.2186   -0.3624   -0.0119 C   0  0  0  0  0  0  0  0  0  0  0  0
    5.1833   -1.3606   -0.1478 C   0  0  0  0  0  0  0  0  0  0  0  0
    4.5001    0.9403   -0.4232 C   0  0  0  0  0  0  0  0  0  0  0  0
    6.4298   -1.0560   -0.6949 C   0  0  0  0  0  0  0  0  0  0  0  0
    5.7464    1.2449   -0.9704 C   0  0  0  0  0  0  0  0  0  0  0  0
    6.7113    0.2468   -1.1062 C   0  0  0  0  0  0  0  0  0  0  0  0
   -3.4865    0.4045   -1.1722 H   0  0  0  0  0  0  0  0  0  0  0  0
   -3.0760    0.5211    1.8362 H   0  0  0  0  0  0  0  0  0  0  0  0
   -0.9685    0.5214   -0.3923 H   0  0  0  0  0  0  0  0  0  0  0  0
   -3.5573   -2.0118    0.7104 H   0  0  0  0  0  0  0  0  0  0  0  0
   -3.2515   -1.9872   -1.0389 H   0  0  0  0  0  0  0  0  0  0  0  0
   -5.3305    0.9979    0.4562 H   0  0  0  0  0  0  0  0  0  0  0  0
   -0.8495   -0.4188    2.5213 H   0  0  0  0  0  0  0  0  0  0  0  0
   -0.2726    1.1651    1.9559 H   0  0  0  0  0  0  0  0  0  0  0  0
   -5.4946   -1.2343   -1.4595 H   0  0  0  0  0  0  0  0  0  0  0  0
   -2.4781    2.2695   -0.3396 H   0  0  0  0  0  0  0  0  0  0  0  0
    0.8965   -1.4911    1.5064 H   0  0  0  0  0  0  0  0  0  0  0  0
   -7.9295   -1.1278   -1.2559 H   0  0  0  0  0  0  0  0  0  0  0  0
   -7.1975   -1.6218    0.2764 H   0  0  0  0  0  0  0  0  0  0  0  0
   -7.8048    0.0319    0.0763 H   0  0  0  0  0  0  0  0  0  0  0  0
   -6.7303    0.4882   -2.7721 H   0  0  0  0  0  0  0  0  0  0  0  0
   -5.0967    1.0389   -2.4248 H   0  0  0  0  0  0  0  0  0  0  0  0
   -6.4630    1.6807   -1.4977 H   0  0  0  0  0  0  0  0  0  0  0  0
    2.8235   -1.6410    0.8201 H   0  0  0  0  0  0  0  0  0  0  0  0
    4.9768   -2.3797    0.1688 H   0  0  0  0  0  0  0  0  0  0  0  0
    3.8064    1.7658   -0.3505 H   0  0  0  0  0  0  0  0  0  0  0  0
    7.1811   -1.8331   -0.8007 H   0  0  0  0  0  0  0  0  0  0  0  0
    5.9671    2.2590   -1.2911 H   0  0  0  0  0  0  0  0  0  0  0  0
    7.6818    0.4840   -1.5322 H   0  0  0  0  0  0  0  0  0  0  0  0
  1  9  1  0  0  0  0
  1 10  1  0  0  0  0
  2  8  1  0  0  0  0
  2 31  1  0  0  0  0
  3 15  2  0  0  0  0
  4  7  1  0  0  0  0
  4 12  1  0  0  0  0
  4 27  1  0  0  0  0
  5 11  1  0  0  0  0
  5 15  1  0  0  0  0
  5 32  1  0  0  0  0
  6 15  1  0  0  0  0
  6 16  1  0  0  0  0
  6 39  1  0  0  0  0
  7  8  1  0  0  0  0
  7 10  1  0  0  0  0
  7 22  1  0  0  0  0
  8  9  1  0  0  0  0
  8 23  1  0  0  0  0
  9 11  1  0  0  0  0
  9 24  1  0  0  0  0
 10 25  1  0  0  0  0
 10 26  1  0  0  0  0
 11 28  1  0  0  0  0
 11 29  1  0  0  0  0
 12 13  1  0  0  0  0
 12 14  1  0  0  0  0
 12 30  1  0  0  0  0
 13 33  1  0  0  0  0
 13 34  1  0  0  0  0
 13 35  1  0  0  0  0
 14 36  1  0  0  0  0
 14 37  1  0  0  0  0
 14 38  1  0  0  0  0
 16 17  2  0  0  0  0
 16 18  1  0  0  0  0
 17 19  1  0  0  0  0
 17 40  1  0  0  0  0
 18 20  2  0  0  0  0
 18 41  1  0  0  0  0
 19 21  2  0  0  0  0
 19 42  1  0  0  0  0
 20 21  1  0  0  0  0
 20 43  1  0  0  0  0
 21 44  1  0  0  0  0
M  END
> <PUBCHEM_COMPOUND_CID>
75536766

> <PUBCHEM_CONFORMER_RMSD>
0.8

> <PUBCHEM_CONFORMER_DIVERSEORDER>
1
119
50
94
56
19
69
114
75
113
20
38
7
120
96
123
41
30
23
137
117
134
33
101
124
105
110
85
51
121
67
103
43
125
127
25
26
126
72
122
57
131
93
13
143
95
136
128
97
27
84
118
53
8
14
68
32
77
16
91
65
64
142
144
138
48
21
135
111
71
87
55
116
92
11
79
108
52
115
76
46
61
10
62
31
82
81
109
49
40
70
78
104
100
22
130
83
47
63
106
15
107
129
145
132
146
80
133
36
24
141
39
139
37
29
66
74
44
45
2
73
140
4
5
35
90
9
99
54
28
58
102
86
18
17
3
112
6
98
12
88
42
60
89
59
34

> <PUBCHEM_MMFF94_PARTIAL_CHARGES>
28
1 -0.56
10 0.28
11 0.3
12 0.27
15 0.69
16 0.12
17 -0.15
18 -0.15
19 -0.15
2 -0.68
20 -0.15
21 -0.15
27 0.36
3 -0.57
31 0.4
32 0.37
39 0.37
4 -0.9
40 0.15
41 0.15
42 0.15
43 0.15
44 0.15
5 -0.73
6 -0.55
7 0.27
8 0.28
9 0.28

> <PUBCHEM_EFFECTIVE_ROTOR_COUNT>
8

> <PUBCHEM_PHARMACOPHORE_FEATURES>
11
1 1 acceptor
1 2 acceptor
1 2 donor
1 3 acceptor
1 4 cation
1 4 donor
1 5 donor
1 6 donor
3 12 13 14 hydrophobe
5 1 7 8 9 10 rings
6 16 17 18 19 20 21 rings

> <PUBCHEM_HEAVY_ATOM_COUNT>
21

> <PUBCHEM_ATOM_DEF_STEREO_COUNT>
3

> <PUBCHEM_ATOM_UDEF_STEREO_COUNT>
0

> <PUBCHEM_BOND_DEF_STEREO_COUNT>
0

> <PUBCHEM_BOND_UDEF_STEREO_COUNT>
0

> <PUBCHEM_ISOTOPIC_ATOM_COUNT>
0

> <PUBCHEM_COMPONENT_COUNT>
1

> <PUBCHEM_CACTVS_TAUTO_COUNT>
3

> <PUBCHEM_CONFORMER_ID>
0480997E00000001

> <PUBCHEM_MMFF94_ENERGY>
41.9025

> <PUBCHEM_FEATURE_SELFOVERLAP>
55.871

> <PUBCHEM_SHAPE_FINGERPRINT>
10 15 8862940589103943950
10354089 29 8718827579420486874
106641 1 11746944166519275821
11524674 6 14620792717598668397
12166972 35 17132113567306191289
12516196 113 15410895158910584050
12954195 1 18060136488897751065
13288520 33 16917067763853101753
13668630 136 16343990204158903052
13673619 4 16845570924782006921
13685833 64 15123790686712729426
13885169 127 14620518900807030803
14123256 34 16128658582641934975
14251752 14 18186795863970767159
14251757 52 14201408205155976158
15048467 5 14634866440432164439
15183329 4 18411420591972500802
15348495 7 11167644508597839167
15475509 35 14764071087522116902
15716309 27 13830129498895529245
17834072 8 18413106173399705603
17844677 252 16200155387395568552
1813 80 13901921028779602720
18222031 100 16271930428478048792
18335252 98 17385448735070581491
19784866 240 15698001864090362355
2026 5 16987451815426812838
20281389 69 14562522977191235111
21033648 29 15430322494439410668
21150785 3 18040151838475788047
21267235 1 18273215331422076651
21637258 2 16415473852779114841
221357 26 18408602561172698628
22224240 67 11241971494693583769
22956985 138 16268859342441839702
2297311 6 17918276446198540305
23198884 109 18260267438958079407
23522609 53 17273443713872488161
23559900 14 18058159695254329977
246663 6 17632860850200654175
2767999 5 14923941258314095223
29717793 49 18272938206925282108
3004659 81 18413390917637942794
351380 3 16559030480526846654
4340502 62 9367350348824084496
465052 167 13901911111826787336
59682541 35 13542455463576468494
59682541 52 18412258415891404806
59755656 215 16773800289824522470
59755656 520 15936406770996374907

> <PUBCHEM_SHAPE_MULTIPOLES>
399.62
20.28
1.41
1.31
0.36
0.21
0.04
-0.31
11.27
-0.37
0.07
0.76
0.23
-0.06

> <PUBCHEM_SHAPE_SELFOVERLAP>
817.898

> <PUBCHEM_SHAPE_VOLUME>
231.7

> <PUBCHEM_COORDINATE_TYPE>
2
5
10

$$$$
