75368472
  -OEChem-12032416393D

 36 38  0     1  0  0  0  0  0999 V2000
   -4.6674   -0.7308   -0.2247 O   0  0  0  0  0  0  0  0  0  0  0  0
    2.0773   -2.5522   -0.1723 O   0  0  0  0  0  0  0  0  0  0  0  0
   -2.3280   -0.5165   -0.2569 N   0  0  0  0  0  0  0  0  0  0  0  0
    0.3140   -1.1154    0.3633 N   0  0  0  0  0  0  0  0  0  0  0  0
   -3.5637    1.3335    0.0590 N   0  0  0  0  0  0  0  0  0  0  0  0
   -1.3633    0.5701   -0.2393 C   0  0  2  0  0  0  0  0  0  0  0  0
   -0.2020    0.2286    0.6887 C   0  0  0  0  0  0  0  0  0  0  0  0
   -2.1880    1.7814    0.1875 C   0  0  0  0  0  0  0  0  0  0  0  0
   -1.8769   -1.8803   -0.4736 C   0  0  0  0  0  0  0  0  0  0  0  0
   -0.6873   -2.1887    0.4340 C   0  0  0  0  0  0  0  0  0  0  0  0
   -3.6482   -0.0568   -0.1539 C   0  0  0  0  0  0  0  0  0  0  0  0
    1.6398   -1.4255    0.0558 C   0  0  0  0  0  0  0  0  0  0  0  0
   -4.6821    2.2258    0.2689 C   0  0  0  0  0  0  0  0  0  0  0  0
    2.6083   -0.3240   -0.0182 C   0  0  0  0  0  0  0  0  0  0  0  0
    3.3101    0.0660    1.1223 C   0  0  0  0  0  0  0  0  0  0  0  0
    2.8275    0.3310   -1.2300 C   0  0  0  0  0  0  0  0  0  0  0  0
    4.2312    1.1114    1.0512 C   0  0  0  0  0  0  0  0  0  0  0  0
    3.7484    1.3761   -1.3013 C   0  0  0  0  0  0  0  0  0  0  0  0
    4.4502    1.7663   -0.1606 C   0  0  0  0  0  0  0  0  0  0  0  0
   -1.0062    0.6921   -1.2699 H   0  0  0  0  0  0  0  0  0  0  0  0
    0.5712    0.9964    0.6185 H   0  0  0  0  0  0  0  0  0  0  0  0
   -0.5306    0.1895    1.7347 H   0  0  0  0  0  0  0  0  0  0  0  0
   -2.0166    2.0670    1.2304 H   0  0  0  0  0  0  0  0  0  0  0  0
   -2.0146    2.6451   -0.4614 H   0  0  0  0  0  0  0  0  0  0  0  0
   -1.5814   -1.9536   -1.5263 H   0  0  0  0  0  0  0  0  0  0  0  0
   -2.7026   -2.5773   -0.3007 H   0  0  0  0  0  0  0  0  0  0  0  0
   -1.0128   -2.2506    1.4794 H   0  0  0  0  0  0  0  0  0  0  0  0
   -0.2492   -3.1546    0.1646 H   0  0  0  0  0  0  0  0  0  0  0  0
   -5.6248    1.6947    0.1157 H   0  0  0  0  0  0  0  0  0  0  0  0
   -4.6085    3.0570   -0.4370 H   0  0  0  0  0  0  0  0  0  0  0  0
   -4.6412    2.6052    1.2934 H   0  0  0  0  0  0  0  0  0  0  0  0
    3.1468   -0.4376    2.0716 H   0  0  0  0  0  0  0  0  0  0  0  0
    2.2853    0.0354   -2.1245 H   0  0  0  0  0  0  0  0  0  0  0  0
    4.7774    1.4153    1.9393 H   0  0  0  0  0  0  0  0  0  0  0  0
    3.9189    1.8864   -2.2447 H   0  0  0  0  0  0  0  0  0  0  0  0
    5.1671    2.5802   -0.2161 H   0  0  0  0  0  0  0  0  0  0  0  0
  1 11  2  0  0  0  0
  2 12  2  0  0  0  0
  3  6  1  0  0  0  0
  3  9  1  0  0  0  0
  3 11  1  0  0  0  0
  4  7  1  0  0  0  0
  4 10  1  0  0  0  0
  4 12  1  0  0  0  0
  5  8  1  0  0  0  0
  5 11  1  0  0  0  0
  5 13  1  0  0  0  0
  6  7  1  0  0  0  0
  6  8  1  0  0  0  0
  6 20  1  0  0  0  0
  7 21  1  0  0  0  0
  7 22  1  0  0  0  0
  8 23  1  0  0  0  0
  8 24  1  0  0  0  0
  9 10  1  0  0  0  0
  9 25  1  0  0  0  0
  9 26  1  0  0  0  0
 10 27  1  0  0  0  0
 10 28  1  0  0  0  0
 12 14  1  0  0  0  0
 13 29  1  0  0  0  0
 13 30  1  0  0  0  0
 13 31  1  0  0  0  0
 14 15  2  0  0  0  0
 14 16  1  0  0  0  0
 15 17  1  0  0  0  0
 15 32  1  0  0  0  0
 16 18  2  0  0  0  0
 16 33  1  0  0  0  0
 17 19  2  0  0  0  0
 17 34  1  0  0  0  0
 18 19  1  0  0  0  0
 18 35  1  0  0  0  0
 19 36  1  0  0  0  0
M  END
> <PUBCHEM_COMPOUND_CID>
75368472

> <PUBCHEM_CONFORMER_RMSD>
0.6

> <PUBCHEM_CONFORMER_DIVERSEORDER>
1
5
13
7
10
2
11
9
6
8
12
3
4

> <PUBCHEM_MMFF94_PARTIAL_CHARGES>
24
1 -0.57
10 0.3
11 0.69
12 0.54
13 0.3
14 0.09
15 -0.15
16 -0.15
17 -0.15
18 -0.15
19 -0.15
2 -0.57
3 -0.66
32 0.15
33 0.15
34 0.15
35 0.15
36 0.15
4 -0.66
5 -0.66
6 0.3
7 0.3
8 0.3
9 0.3

> <PUBCHEM_EFFECTIVE_ROTOR_COUNT>
3.2

> <PUBCHEM_PHARMACOPHORE_FEATURES>
5
1 1 acceptor
1 2 acceptor
5 3 5 6 8 11 rings
6 14 15 16 17 18 19 rings
6 3 4 6 7 9 10 rings

> <PUBCHEM_HEAVY_ATOM_COUNT>
19

> <PUBCHEM_ATOM_DEF_STEREO_COUNT>
1

> <PUBCHEM_ATOM_UDEF_STEREO_COUNT>
0

> <PUBCHEM_BOND_DEF_STEREO_COUNT>
0

> <PUBCHEM_BOND_UDEF_STEREO_COUNT>
0

> <PUBCHEM_ISOTOPIC_ATOM_COUNT>
0

> <PUBCHEM_COMPONENT_COUNT>
1

> <PUBCHEM_CACTVS_TAUTO_COUNT>
1

> <PUBCHEM_CONFORMER_ID>
047E081800000001

> <PUBCHEM_MMFF94_ENERGY>
51.6937

> <PUBCHEM_FEATURE_SELFOVERLAP>
25.47

> <PUBCHEM_SHAPE_FINGERPRINT>
10498660 4 18342741805767712864
10646746 165 18340484569136944728
10670039 82 18334305262186297092
11640471 11 17895762919090812444
11715629 250 18410570669547501188
12173636 292 18341608153903590229
122479 349 18334579039990496258
12390115 104 18129958801497525441
12403814 3 17676198096255282461
12633257 1 15936964267006026256
12788726 201 17391364279057878186
13675066 3 13045940222264107093
13965767 371 18041548183804444284
14251764 38 16805871910204142877
14739800 52 17906158913771355576
14787075 74 18042969959760924443
14790565 3 17984148050654752785
15196674 1 18411698760088085611
15239154 128 18342460301068927665
15239191 94 10592046855789738516
15342168 16 18260272931994735941
15536298 74 18340207392826457070
15885798 251 9655576305417200611
1741750 31 18412827988288829010
1798214 55 18410858754637408556
18186145 218 18263363586102575583
193927 3 9222939409421623421
200 152 14333140675804205218
20645477 70 16415212169528520028
20715895 44 17827903041310332845
21524375 3 18333729139462397418
2255824 54 18189337857872471242
23227448 37 18270116958255822573
23366157 5 18116151060807803690
235170 7 16415761929142029013
23557571 272 18057892535524890214
23559900 14 18128532670101659798
2838139 119 17769368663522387752
3472631 163 18413109480488152853
350125 39 18265336101620537382
4028521 119 18202286913391052648
4340502 62 16732984215679579499
474 4 17894351098684018428
5104073 3 18336549313794207667
6333272 397 18334015016532439194
633830 44 18269553841236429319
7064713 232 18408036303883482396
7364860 26 18270679749860163982
76465 3 9727634985965907320
7808743 9 18265336286520987060
960060 61 12751234813573128344
9709674 26 18412830165843003543
9981440 41 18336823195200569874

> <PUBCHEM_SHAPE_MULTIPOLES>
364.33
9.54
2.45
0.98
1.93
0.53
-0.06
-5.88
-0.12
0.74
0
-1.02
-0.18
-0.5

> <PUBCHEM_SHAPE_SELFOVERLAP>
776.937

> <PUBCHEM_SHAPE_VOLUME>
202.7

> <PUBCHEM_COORDINATE_TYPE>
2
5
10

$$$$
