7134278
  -OEChem-12032416123D

 62 64  0     1  0  0  0  0  0999 V2000
    4.9908    2.1253   -0.5638 S   0  0  0  0  0  0  0  0  0  0  0  0
    5.5396   -0.6770   -1.3158 S   0  0  0  0  0  0  0  0  0  0  0  0
   -3.6587   -3.8373   -1.4394 S   0  0  0  0  0  0  0  0  0  0  0  0
    0.3680   -0.2602    1.5883 O   0  0  0  0  0  0  0  0  0  0  0  0
   -2.2197    3.2000    1.3517 O   0  0  0  0  0  0  0  0  0  0  0  0
    4.9946    2.9166    0.6512 O   0  0  0  0  0  0  0  0  0  0  0  0
    5.9652    2.3507   -1.6135 O   0  0  0  0  0  0  0  0  0  0  0  0
   -4.1378    2.1775    0.0668 O   0  0  0  0  0  0  0  0  0  0  0  0
    1.9733   -3.0971   -0.6977 O   0  0  0  0  0  0  0  0  0  0  0  0
   -7.5392    1.6781   -0.9576 O   0  0  0  0  0  0  0  0  0  0  0  0
   -6.6604    3.0172    0.6617 O   0  0  0  0  0  0  0  0  0  0  0  0
   -0.5222    1.9557    0.3562 N   0  0  0  0  0  0  0  0  0  0  0  0
    3.4250    2.1459   -1.2514 N   0  0  0  0  0  0  0  0  0  0  0  0
   -0.2541   -1.5516   -0.2459 N   0  0  0  0  0  0  0  0  0  0  0  0
    1.6855   -4.0061    1.3922 N   0  0  0  0  0  0  0  0  0  0  0  0
    2.2863    1.7435   -0.3900 C   0  0  2  0  0  0  0  0  0  0  0  0
    1.1990    1.1067   -1.2563 C   0  0  0  0  0  0  0  0  0  0  0  0
   -0.0948    0.8272   -0.4878 C   0  0  1  0  0  0  0  0  0  0  0  0
    1.7423    2.9686    0.3380 C   0  0  0  0  0  0  0  0  0  0  0  0
    0.5178    2.6019    1.1666 C   0  0  0  0  0  0  0  0  0  0  0  0
    0.0298   -0.3673    0.4124 C   0  0  0  0  0  0  0  0  0  0  0  0
   -1.8545    2.3425    0.5429 C   0  0  0  0  0  0  0  0  0  0  0  0
   -0.1847   -2.8467    0.3915 C   0  0  1  0  0  0  0  0  0  0  0  0
   -2.8879    1.6600   -0.3189 C   0  0  0  0  0  0  0  0  0  0  0  0
    5.3174    0.4426   -0.0393 C   0  0  0  0  0  0  0  0  0  0  0  0
   -1.1417   -3.8612   -0.2460 C   0  0  0  0  0  0  0  0  0  0  0  0
    1.2545   -3.3269    0.2719 C   0  0  0  0  0  0  0  0  0  0  0  0
    5.4295   -0.1544    1.1972 C   0  0  0  0  0  0  0  0  0  0  0  0
   -2.5827   -3.4133   -0.1766 C   0  0  0  0  0  0  0  0  0  0  0  0
    5.7017   -1.5492    1.0951 C   0  0  0  0  0  0  0  0  0  0  0  0
   -5.2091    1.6059   -0.6820 C   0  0  0  0  0  0  0  0  0  0  0  0
    5.7871   -1.9653   -0.2152 C   0  0  0  0  0  0  0  0  0  0  0  0
   -3.2032   -2.6710    0.8039 C   0  0  0  0  0  0  0  0  0  0  0  0
   -4.5803   -2.4475    0.5148 C   0  0  0  0  0  0  0  0  0  0  0  0
   -4.9597   -3.0274   -0.6757 C   0  0  0  0  0  0  0  0  0  0  0  0
   -6.5169    2.1936   -0.2294 C   0  0  0  0  0  0  0  0  0  0  0  0
    2.6207    1.0000    0.3418 H   0  0  0  0  0  0  0  0  0  0  0  0
    0.9643    1.7882   -2.0860 H   0  0  0  0  0  0  0  0  0  0  0  0
    1.5834    0.1873   -1.7160 H   0  0  0  0  0  0  0  0  0  0  0  0
   -0.8704    0.6157   -1.2295 H   0  0  0  0  0  0  0  0  0  0  0  0
    2.4999    3.4086    0.9942 H   0  0  0  0  0  0  0  0  0  0  0  0
    1.4702    3.7447   -0.3898 H   0  0  0  0  0  0  0  0  0  0  0  0
    0.1192    3.5172    1.6182 H   0  0  0  0  0  0  0  0  0  0  0  0
    0.7928    1.9532    2.0020 H   0  0  0  0  0  0  0  0  0  0  0  0
    3.2129    2.8994   -1.9183 H   0  0  0  0  0  0  0  0  0  0  0  0
   -0.4451   -1.5274   -1.2436 H   0  0  0  0  0  0  0  0  0  0  0  0
   -0.4195   -2.7129    1.4548 H   0  0  0  0  0  0  0  0  0  0  0  0
   -2.8625    0.5804   -0.1412 H   0  0  0  0  0  0  0  0  0  0  0  0
   -2.6943    1.8916   -1.3712 H   0  0  0  0  0  0  0  0  0  0  0  0
   -1.0505   -4.8284    0.2648 H   0  0  0  0  0  0  0  0  0  0  0  0
   -0.8493   -4.0306   -1.2912 H   0  0  0  0  0  0  0  0  0  0  0  0
    5.3206    0.3806    2.1317 H   0  0  0  0  0  0  0  0  0  0  0  0
    5.8271   -2.2139    1.9399 H   0  0  0  0  0  0  0  0  0  0  0  0
   -5.2349    0.5243   -0.5158 H   0  0  0  0  0  0  0  0  0  0  0  0
   -5.0711    1.8330   -1.7444 H   0  0  0  0  0  0  0  0  0  0  0  0
    5.9817   -2.9643   -0.5789 H   0  0  0  0  0  0  0  0  0  0  0  0
    2.6323   -4.3662    1.4494 H   0  0  0  0  0  0  0  0  0  0  0  0
    1.0822   -4.1859    2.1884 H   0  0  0  0  0  0  0  0  0  0  0  0
   -2.7105   -2.3026    1.6943 H   0  0  0  0  0  0  0  0  0  0  0  0
   -5.2580   -1.8894    1.1475 H   0  0  0  0  0  0  0  0  0  0  0  0
   -5.9387   -3.0133   -1.1337 H   0  0  0  0  0  0  0  0  0  0  0  0
   -8.4063    2.0455   -0.6825 H   0  0  0  0  0  0  0  0  0  0  0  0
  1  6  2  0  0  0  0
  1  7  2  0  0  0  0
  1 13  1  0  0  0  0
  1 25  1  0  0  0  0
  2 25  1  0  0  0  0
  2 32  1  0  0  0  0
  3 29  1  0  0  0  0
  3 35  1  0  0  0  0
  4 21  2  0  0  0  0
  5 22  2  0  0  0  0
  8 24  1  0  0  0  0
  8 31  1  0  0  0  0
  9 27  2  0  0  0  0
 10 36  1  0  0  0  0
 10 62  1  0  0  0  0
 11 36  2  0  0  0  0
 12 18  1  0  0  0  0
 12 20  1  0  0  0  0
 12 22  1  0  0  0  0
 13 16  1  0  0  0  0
 13 45  1  0  0  0  0
 14 21  1  0  0  0  0
 14 23  1  0  0  0  0
 14 46  1  0  0  0  0
 15 27  1  0  0  0  0
 15 57  1  0  0  0  0
 15 58  1  0  0  0  0
 16 17  1  0  0  0  0
 16 19  1  0  0  0  0
 16 37  1  0  0  0  0
 17 18  1  0  0  0  0
 17 38  1  0  0  0  0
 17 39  1  0  0  0  0
 18 21  1  0  0  0  0
 18 40  1  0  0  0  0
 19 20  1  0  0  0  0
 19 41  1  0  0  0  0
 19 42  1  0  0  0  0
 20 43  1  0  0  0  0
 20 44  1  0  0  0  0
 22 24  1  0  0  0  0
 23 26  1  0  0  0  0
 23 27  1  0  0  0  0
 23 47  1  0  0  0  0
 24 48  1  0  0  0  0
 24 49  1  0  0  0  0
 25 28  2  0  0  0  0
 26 29  1  0  0  0  0
 26 50  1  0  0  0  0
 26 51  1  0  0  0  0
 28 30  1  0  0  0  0
 28 52  1  0  0  0  0
 29 33  2  0  0  0  0
 30 32  2  0  0  0  0
 30 53  1  0  0  0  0
 31 36  1  0  0  0  0
 31 54  1  0  0  0  0
 31 55  1  0  0  0  0
 32 56  1  0  0  0  0
 33 34  1  0  0  0  0
 33 59  1  0  0  0  0
 34 35  2  0  0  0  0
 34 60  1  0  0  0  0
 35 61  1  0  0  0  0
M  END
> <PUBCHEM_COMPOUND_CID>
7134278

> <PUBCHEM_CONFORMER_RMSD>
1.2

> <PUBCHEM_CONFORMER_DIVERSEORDER>
1
72
41
31
15
76
51
66
40
65
56
30
27
75
38
52
24
69
17
71
73
42
46
37
54
18
74
13
34
8
67
44
25
14
55
19
21
4
43
7
35
36
12
32
64
28
22
62
68
63
23
39
26
48
20
29
59
70
5
2
49
53
3
16
11
9
45
58
47
50
6
61
60
10
33
57

> <PUBCHEM_MMFF94_PARTIAL_CHARGES>
45
1 1.5
10 -0.65
11 -0.57
12 -0.66
13 -0.91
14 -0.73
15 -0.8
16 0.36
18 0.36
2 -0.08
20 0.3
21 0.57
22 0.57
23 0.36
24 0.34
25 -0.02
26 0.18
27 0.57
28 -0.15
29 -0.14
3 -0.08
30 -0.15
31 0.34
32 -0.11
33 -0.15
34 -0.15
35 -0.11
36 0.66
4 -0.57
45 0.42
46 0.37
5 -0.57
52 0.15
53 0.15
56 0.15
57 0.37
58 0.37
59 0.15
6 -0.65
60 0.15
61 0.15
62 0.5
7 -0.65
8 -0.56
9 -0.57

> <PUBCHEM_EFFECTIVE_ROTOR_COUNT>
15.2

> <PUBCHEM_PHARMACOPHORE_FEATURES>
15
1 10 acceptor
1 11 acceptor
1 13 donor
1 14 donor
1 15 donor
1 4 acceptor
1 5 acceptor
1 6 acceptor
1 7 acceptor
1 8 acceptor
1 9 acceptor
3 10 11 36 anion
5 2 25 28 30 32 rings
5 3 29 33 34 35 rings
6 12 16 17 18 19 20 rings

> <PUBCHEM_HEAVY_ATOM_COUNT>
36

> <PUBCHEM_ATOM_DEF_STEREO_COUNT>
3

> <PUBCHEM_ATOM_UDEF_STEREO_COUNT>
0

> <PUBCHEM_BOND_DEF_STEREO_COUNT>
0

> <PUBCHEM_BOND_UDEF_STEREO_COUNT>
0

> <PUBCHEM_ISOTOPIC_ATOM_COUNT>
0

> <PUBCHEM_COMPONENT_COUNT>
1

> <PUBCHEM_CACTVS_TAUTO_COUNT>
4

> <PUBCHEM_CONFORMER_ID>
006CDC4600000001

> <PUBCHEM_MMFF94_ENERGY>
60.699

> <PUBCHEM_FEATURE_SELFOVERLAP>
76.225

> <PUBCHEM_SHAPE_FINGERPRINT>
1100329 8 18411135801444619822
12422481 6 18260835903238370555
12788726 201 18267311018088989154
1361 2 18121783833365078618
13692114 37 18272640238836668823
14790565 3 18336264647346000698
15001296 14 18334851715112045232
15183329 4 18194120956580554318
15351339 4 18336816610720266635
15927050 60 18412823578175087199
16067689 134 18337116669935895676
21703447 108 17839177755769349560
338550 245 18334580178520742110
5171179 24 17842268457295753777

> <PUBCHEM_SHAPE_MULTIPOLES>
685.53
15.85
6.3
1.29
2.73
3.17
-0.04
-6.54
-2.92
5.56
0.37
-0.73
0.06
-1.52

> <PUBCHEM_SHAPE_SELFOVERLAP>
1390.541

> <PUBCHEM_SHAPE_VOLUME>
396.8

> <PUBCHEM_COORDINATE_TYPE>
2
5
10

$$$$
