45783677
  -OEChem-12032416263D

 55 60  0     1  0  0  0  0  0999 V2000
   -1.9905   -2.3589    1.5726 O   0  0  0  0  0  0  0  0  0  0  0  0
   -4.0574   -0.4504   -0.7918 N   0  0  1  0  0  0  0  0  0  0  0  0
   -1.5625    2.2487    1.8641 N   0  0  0  0  0  0  0  0  0  0  0  0
   -1.2327   -1.2073   -0.1926 N   0  0  0  0  0  0  0  0  0  0  0  0
   -0.6002   -2.2838    1.7245 N   0  0  0  0  0  0  0  0  0  0  0  0
    3.4655   -1.3837    1.0401 N   0  0  0  0  0  0  0  0  0  0  0  0
    5.1062   -0.3815   -0.3028 N   0  0  0  0  0  0  0  0  0  0  0  0
    7.3038   -0.3015    0.0064 N   0  0  0  0  0  0  0  0  0  0  0  0
   -3.7402   -1.6383    0.0258 C   0  0  1  0  0  0  0  0  0  0  0  0
   -4.1746   -2.8359   -0.8391 C   0  0  0  0  0  0  0  0  0  0  0  0
   -5.1783   -0.8285   -1.6527 C   0  0  0  0  0  0  0  0  0  0  0  0
   -4.7784   -2.2218   -2.0942 C   0  0  0  0  0  0  0  0  0  0  0  0
   -4.3531    0.7332    0.0052 C   0  0  0  0  0  0  0  0  0  0  0  0
   -2.2792   -1.7009    0.4194 C   0  0  0  0  0  0  0  0  0  0  0  0
   -3.0993    1.3995    0.5061 C   0  0  0  0  0  0  0  0  0  0  0  0
   -2.0351    1.9088   -0.2896 C   0  0  0  0  0  0  0  0  0  0  0  0
   -2.7797    1.6231    1.8254 C   0  0  0  0  0  0  0  0  0  0  0  0
   -1.0841    2.4360    0.5868 C   0  0  0  0  0  0  0  0  0  0  0  0
   -1.7890    1.9721   -1.6755 C   0  0  0  0  0  0  0  0  0  0  0  0
   -0.2260   -1.5901    0.6452 C   0  0  0  0  0  0  0  0  0  0  0  0
    0.1055    3.0256    0.1447 C   0  0  0  0  0  0  0  0  0  0  0  0
   -0.8895    2.6488    3.0809 C   0  0  0  0  0  0  0  0  0  0  0  0
   -0.6033    2.5591   -2.1322 C   0  0  0  0  0  0  0  0  0  0  0  0
    0.3280    3.0771   -1.2344 C   0  0  0  0  0  0  0  0  0  0  0  0
    1.1445   -1.2646    0.3742 C   0  0  0  0  0  0  0  0  0  0  0  0
    1.4992   -0.5422   -0.7597 C   0  0  0  0  0  0  0  0  0  0  0  0
    2.1561   -1.6585    1.2350 C   0  0  0  0  0  0  0  0  0  0  0  0
    2.8360   -0.2403   -0.9948 C   0  0  0  0  0  0  0  0  0  0  0  0
    3.7722   -0.6800   -0.0728 C   0  0  0  0  0  0  0  0  0  0  0  0
    5.6085    0.3156   -1.3653 C   0  0  0  0  0  0  0  0  0  0  0  0
    6.1611   -0.7312    0.4935 C   0  0  0  0  0  0  0  0  0  0  0  0
    6.9663    0.3519   -1.1524 C   0  0  0  0  0  0  0  0  0  0  0  0
   -4.3470   -1.6533    0.9422 H   0  0  0  0  0  0  0  0  0  0  0  0
   -3.3559   -3.5174   -1.0947 H   0  0  0  0  0  0  0  0  0  0  0  0
   -4.9409   -3.4146   -0.3091 H   0  0  0  0  0  0  0  0  0  0  0  0
   -6.1246   -0.8619   -1.0978 H   0  0  0  0  0  0  0  0  0  0  0  0
   -5.2890   -0.1526   -2.5062 H   0  0  0  0  0  0  0  0  0  0  0  0
   -4.0201   -2.1695   -2.8853 H   0  0  0  0  0  0  0  0  0  0  0  0
   -5.6254   -2.8017   -2.4724 H   0  0  0  0  0  0  0  0  0  0  0  0
   -4.8654    1.4787   -0.6193 H   0  0  0  0  0  0  0  0  0  0  0  0
   -5.0380    0.5106    0.8337 H   0  0  0  0  0  0  0  0  0  0  0  0
   -3.3178    1.3867    2.7339 H   0  0  0  0  0  0  0  0  0  0  0  0
   -2.5036    1.5755   -2.3908 H   0  0  0  0  0  0  0  0  0  0  0  0
    0.8354    3.4292    0.8384 H   0  0  0  0  0  0  0  0  0  0  0  0
    0.0698    2.1272    3.1309 H   0  0  0  0  0  0  0  0  0  0  0  0
   -0.7421    3.7314    3.0539 H   0  0  0  0  0  0  0  0  0  0  0  0
   -1.5021    2.3800    3.9452 H   0  0  0  0  0  0  0  0  0  0  0  0
   -0.4076    2.6099   -3.2000 H   0  0  0  0  0  0  0  0  0  0  0  0
    1.2431    3.5268   -1.6109 H   0  0  0  0  0  0  0  0  0  0  0  0
    0.7562   -0.2110   -1.4797 H   0  0  0  0  0  0  0  0  0  0  0  0
    1.9637   -2.2244    2.1417 H   0  0  0  0  0  0  0  0  0  0  0  0
    3.0624    0.3227   -1.8911 H   0  0  0  0  0  0  0  0  0  0  0  0
    5.0287    0.7315   -2.1760 H   0  0  0  0  0  0  0  0  0  0  0  0
    6.0550   -1.2941    1.4119 H   0  0  0  0  0  0  0  0  0  0  0  0
    7.7181    0.8153   -1.7745 H   0  0  0  0  0  0  0  0  0  0  0  0
  1  5  1  0  0  0  0
  1 14  1  0  0  0  0
  2  9  1  0  0  0  0
  2 11  1  0  0  0  0
  2 13  1  0  0  0  0
  3 17  1  0  0  0  0
  3 18  1  0  0  0  0
  3 22  1  0  0  0  0
  4 14  2  0  0  0  0
  4 20  1  0  0  0  0
  5 20  2  0  0  0  0
  6 27  1  0  0  0  0
  6 29  2  0  0  0  0
  7 29  1  0  0  0  0
  7 30  1  0  0  0  0
  7 31  1  0  0  0  0
  8 31  2  0  0  0  0
  8 32  1  0  0  0  0
  9 10  1  0  0  0  0
  9 14  1  0  0  0  0
  9 33  1  0  0  0  0
 10 12  1  0  0  0  0
 10 34  1  0  0  0  0
 10 35  1  0  0  0  0
 11 12  1  0  0  0  0
 11 36  1  0  0  0  0
 11 37  1  0  0  0  0
 12 38  1  0  0  0  0
 12 39  1  0  0  0  0
 13 15  1  0  0  0  0
 13 40  1  0  0  0  0
 13 41  1  0  0  0  0
 15 16  1  0  0  0  0
 15 17  2  0  0  0  0
 16 18  1  0  0  0  0
 16 19  2  0  0  0  0
 17 42  1  0  0  0  0
 18 21  2  0  0  0  0
 19 23  1  0  0  0  0
 19 43  1  0  0  0  0
 20 25  1  0  0  0  0
 21 24  1  0  0  0  0
 21 44  1  0  0  0  0
 22 45  1  0  0  0  0
 22 46  1  0  0  0  0
 22 47  1  0  0  0  0
 23 24  2  0  0  0  0
 23 48  1  0  0  0  0
 24 49  1  0  0  0  0
 25 26  1  0  0  0  0
 25 27  2  0  0  0  0
 26 28  2  0  0  0  0
 26 50  1  0  0  0  0
 27 51  1  0  0  0  0
 28 29  1  0  0  0  0
 28 52  1  0  0  0  0
 30 32  2  0  0  0  0
 30 53  1  0  0  0  0
 31 54  1  0  0  0  0
 32 55  1  0  0  0  0
M  END
> <PUBCHEM_COMPOUND_CID>
45783677

> <PUBCHEM_CONFORMER_RMSD>
0.8

> <PUBCHEM_CONFORMER_DIVERSEORDER>
1
101
181
142
4
279
145
257
205
248
6
193
194
259
223
138
230
45
290
208
179
282
218
57
301
130
206
112
296
79
265
305
121
74
125
175
2
235
270
299
255
178
22
32
38
268
76
209
144
80
260
220
26
62
251
232
300
100
284
187
5
69
207
33
267
233
50
291
237
137
304
88
127
54
132
75
294
160
58
288
124
81
129
170
113
229
215
184
134
246
293
245
302
186
37
217
3
12
210
21
234
238
18
195
148
258
105
286
240
19
39
273
94
106
285
276
78
250
298
10
203
261
147
95
244
59
188
269
28
23
177
151
24
256
297
155
136
253
264
295
158
159
231
123
135
247
199
107
212
16
97
222
118
115
174
91
227
283
190
307
221
163
262
85
61
216
211
139
72
162
84
281
15
266
77
167
239
96
213
274
182
173
197
166
29
35
306
275
42
53
60
196
161
154
48
249
214
228
143
25
243
289
287
204
150
180
109
70
226
40
92
164
87
51
157
108
86
14
168
198
63
20
242
56
263
64
68
219
117
119
27
224
114
41
280
65
47
169
104
171
103
13
83
254
67
98
9
152
102
71
172
133
252
156
126
183
99
146
202
66
272
140
34
116
141
73
8
36
191
82
200
165
111
89
46
292
189
153
90
128
176
110
225
192
49
31
303
11
201
52
241
43
122
149
236
55
278
7
277
120
271
30
185
131
93
17
44

> <PUBCHEM_MMFF94_PARTIAL_CHARGES>
40
1 -0.02
11 0.27
13 0.45
14 0.3
15 -0.18
17 -0.3
18 -0.15
19 -0.15
2 -0.81
20 0.46
21 -0.15
22 0.26
23 -0.15
24 -0.15
25 0.05
26 -0.15
27 0.16
28 -0.15
29 0.29
3 0.05
30 -0.3
31 0.04
32 0.08
4 -0.57
42 0.15
43 0.15
44 0.15
48 0.15
49 0.15
5 -0.41
50 0.15
51 0.15
52 0.15
53 0.15
54 0.15
55 0.15
6 -0.62
7 0.33
8 -0.57
9 0.45

> <PUBCHEM_EFFECTIVE_ROTOR_COUNT>
6

> <PUBCHEM_PHARMACOPHORE_FEATURES>
11
1 2 cation
1 3 cation
3 4 5 20 cation
3 6 7 29 cation
3 7 8 31 cation
5 1 4 5 14 20 rings
5 2 9 10 11 12 rings
5 3 15 16 17 18 rings
5 7 8 30 31 32 rings
6 16 18 19 21 23 24 rings
6 6 25 26 27 28 29 rings

> <PUBCHEM_HEAVY_ATOM_COUNT>
32

> <PUBCHEM_ATOM_DEF_STEREO_COUNT>
1

> <PUBCHEM_ATOM_UDEF_STEREO_COUNT>
0

> <PUBCHEM_BOND_DEF_STEREO_COUNT>
0

> <PUBCHEM_BOND_UDEF_STEREO_COUNT>
0

> <PUBCHEM_ISOTOPIC_ATOM_COUNT>
0

> <PUBCHEM_COMPONENT_COUNT>
1

> <PUBCHEM_CACTVS_TAUTO_COUNT>
1

> <PUBCHEM_CONFORMER_ID>
02BA9A7D00000001

> <PUBCHEM_MMFF94_ENERGY>
58.3896

> <PUBCHEM_FEATURE_SELFOVERLAP>
56.038

> <PUBCHEM_SHAPE_FINGERPRINT>
10454371 7 18342750624226829476
10670039 82 18334859403557172522
10871710 139 18188769440609746213
12107698 1 18201435909045666500
12156800 1 16885202756843805573
12166972 35 17677616525957621775
12655364 131 15793111720828749568
12788726 201 18187071833079154722
13782708 43 17417823807811463158
14068700 675 18271804669997193317
14142880 1 18193005820278383017
14394314 77 18260271802476911453
14931854 50 18260256448026454591
15183329 4 18260553274081560686
15274700 242 17313660430643832945
15297060 5 17988929920932974099
15876981 60 17989213659162458953
17492 54 18040986333330534543
17686467 74 18267579294952738474
18336668 15 18408891754442867541
20691752 17 17968919982065423201
20775438 99 16975302546510045271
20775530 9 18339631365267389911
21236236 1 18410015420998085486
21304303 282 15286469925912032453
21304303 64 17676206832593504037
21344244 246 17835229422324717303
21623110 236 18336277820274603956
23419403 2 17839135841246596889
23559900 14 18190173688340376637
27425 322 16553711966437097384
392239 28 18201728348926535560
4280585 95 18261102015243605676
469060 322 17967823729568881264
484989 97 17825107262920291587
57527585 103 17825139053608547947

> <PUBCHEM_SHAPE_MULTIPOLES>
617.81
12.87
3.7
2.11
24.07
1.63
0.54
-6.15
-5.12
-3.87
0.43
-1.3
1
-1.94

> <PUBCHEM_SHAPE_SELFOVERLAP>
1383.364

> <PUBCHEM_SHAPE_VOLUME>
332.4

> <PUBCHEM_COORDINATE_TYPE>
2
5
10

$$$$
