11912475
  -OEChem-12032416373D

 53 57  0     1  0  0  0  0  0999 V2000
   -6.4303   -1.6957    0.7562 S   0  0  0  0  0  0  0  0  0  0  0  0
    9.5970    0.7410   -0.0422 F   0  0  0  0  0  0  0  0  0  0  0  0
    8.9826   -1.3387   -0.0078 F   0  0  0  0  0  0  0  0  0  0  0  0
    8.5748   -0.1163   -1.7594 F   0  0  0  0  0  0  0  0  0  0  0  0
   -0.0463    0.0061   -1.4356 O   0  0  0  0  0  0  0  0  0  0  0  0
   -1.8973   -2.1481   -0.2753 O   0  0  0  0  0  0  0  0  0  0  0  0
    1.6261   -1.6075    0.0812 O   0  0  0  0  0  0  0  0  0  0  0  0
    2.0431    0.2825    1.2994 O   0  0  0  0  0  0  0  0  0  0  0  0
   -2.8485    1.3011   -1.0656 N   0  0  0  0  0  0  0  0  0  0  0  0
   -4.9697    0.5964   -0.3508 N   0  0  0  0  0  0  0  0  0  0  0  0
   -4.3691    2.9302   -0.3318 N   0  0  0  0  0  0  0  0  0  0  0  0
    3.7458   -0.8399    0.1497 N   0  0  0  0  0  0  0  0  0  0  0  0
   -1.8813   -0.7136   -0.1174 C   0  0  1  0  0  0  0  0  0  0  0  0
   -0.4258   -0.2922   -0.0822 C   0  0  1  0  0  0  0  0  0  0  0  0
   -2.4238   -0.0504   -1.3616 C   0  0  2  0  0  0  0  0  0  0  0  0
    0.2623   -1.5346    0.4305 C   0  0  1  0  0  0  0  0  0  0  0  0
   -1.2105   -0.0334   -2.2751 C   0  0  0  0  0  0  0  0  0  0  0  0
   -0.5495   -2.6366   -0.2122 C   0  0  0  0  0  0  0  0  0  0  0  0
   -4.1000    1.6187   -0.5678 C   0  0  0  0  0  0  0  0  0  0  0  0
    2.4520   -0.6228    0.5825 C   0  0  0  0  0  0  0  0  0  0  0  0
   -6.1799    0.9422    0.1351 C   0  0  0  0  0  0  0  0  0  0  0  0
   -5.5978    3.2043    0.1536 C   0  0  0  0  0  0  0  0  0  0  0  0
    4.8981   -0.0710    0.4304 C   0  0  0  0  0  0  0  0  0  0  0  0
   -6.5534    2.2422    0.4091 C   0  0  0  0  0  0  0  0  0  0  0  0
   -7.0785   -0.1599    0.3537 C   0  0  0  0  0  0  0  0  0  0  0  0
    6.1180   -0.4547   -0.1035 C   0  0  0  0  0  0  0  0  0  0  0  0
    4.7852    1.0531    1.2333 C   0  0  0  0  0  0  0  0  0  0  0  0
    7.2546    0.3052    0.1727 C   0  0  0  0  0  0  0  0  0  0  0  0
   -8.4574   -0.1880    0.2894 C   0  0  0  0  0  0  0  0  0  0  0  0
    5.9218    1.8129    1.5094 C   0  0  0  0  0  0  0  0  0  0  0  0
    7.1566    1.4389    0.9792 C   0  0  0  0  0  0  0  0  0  0  0  0
    8.5751   -0.0938   -0.3948 C   0  0  0  0  0  0  0  0  0  0  0  0
   -8.9838   -1.4813    0.5733 C   0  0  0  0  0  0  0  0  0  0  0  0
   -7.9903   -2.3962    0.8445 C   0  0  0  0  0  0  0  0  0  0  0  0
   -2.4190   -0.4795    0.8068 H   0  0  0  0  0  0  0  0  0  0  0  0
   -0.2619    0.6077    0.5164 H   0  0  0  0  0  0  0  0  0  0  0  0
   -3.2297   -0.6136   -1.8462 H   0  0  0  0  0  0  0  0  0  0  0  0
    0.1482   -1.6065    1.5205 H   0  0  0  0  0  0  0  0  0  0  0  0
   -1.1865    0.8146   -2.9665 H   0  0  0  0  0  0  0  0  0  0  0  0
   -1.1517   -0.9560   -2.8631 H   0  0  0  0  0  0  0  0  0  0  0  0
   -0.5222   -3.5646    0.3668 H   0  0  0  0  0  0  0  0  0  0  0  0
   -0.2083   -2.8674   -1.2276 H   0  0  0  0  0  0  0  0  0  0  0  0
   -2.1907    2.0648   -1.1739 H   0  0  0  0  0  0  0  0  0  0  0  0
    3.8893   -1.6526   -0.4449 H   0  0  0  0  0  0  0  0  0  0  0  0
   -5.7990    4.2540    0.3391 H   0  0  0  0  0  0  0  0  0  0  0  0
   -7.5233    2.5155    0.8051 H   0  0  0  0  0  0  0  0  0  0  0  0
    6.1957   -1.3381   -0.7325 H   0  0  0  0  0  0  0  0  0  0  0  0
    3.8660    1.4049    1.6786 H   0  0  0  0  0  0  0  0  0  0  0  0
   -9.0717    0.6702    0.0461 H   0  0  0  0  0  0  0  0  0  0  0  0
    5.8466    2.6961    2.1372 H   0  0  0  0  0  0  0  0  0  0  0  0
    8.0304    2.0437    1.2057 H   0  0  0  0  0  0  0  0  0  0  0  0
  -10.0374   -1.7284    0.5770 H   0  0  0  0  0  0  0  0  0  0  0  0
   -8.1059   -3.4425    1.0897 H   0  0  0  0  0  0  0  0  0  0  0  0
  1 25  1  0  0  0  0
  1 34  1  0  0  0  0
  2 32  1  0  0  0  0
  3 32  1  0  0  0  0
  4 32  1  0  0  0  0
  5 14  1  0  0  0  0
  5 17  1  0  0  0  0
  6 13  1  0  0  0  0
  6 18  1  0  0  0  0
  7 16  1  0  0  0  0
  7 20  1  0  0  0  0
  8 20  2  0  0  0  0
  9 15  1  0  0  0  0
  9 19  1  0  0  0  0
  9 43  1  0  0  0  0
 10 19  1  0  0  0  0
 10 21  2  0  0  0  0
 11 19  2  0  0  0  0
 11 22  1  0  0  0  0
 12 20  1  0  0  0  0
 12 23  1  0  0  0  0
 12 44  1  0  0  0  0
 13 14  1  0  0  0  0
 13 15  1  0  0  0  0
 13 35  1  0  0  0  0
 14 16  1  0  0  0  0
 14 36  1  0  0  0  0
 15 17  1  0  0  0  0
 15 37  1  0  0  0  0
 16 18  1  0  0  0  0
 16 38  1  0  0  0  0
 17 39  1  0  0  0  0
 17 40  1  0  0  0  0
 18 41  1  0  0  0  0
 18 42  1  0  0  0  0
 21 24  1  0  0  0  0
 21 25  1  0  0  0  0
 22 24  2  0  0  0  0
 22 45  1  0  0  0  0
 23 26  1  0  0  0  0
 23 27  2  0  0  0  0
 24 46  1  0  0  0  0
 25 29  2  0  0  0  0
 26 28  2  0  0  0  0
 26 47  1  0  0  0  0
 27 30  1  0  0  0  0
 27 48  1  0  0  0  0
 28 31  1  0  0  0  0
 28 32  1  0  0  0  0
 29 33  1  0  0  0  0
 29 49  1  0  0  0  0
 30 31  2  0  0  0  0
 30 50  1  0  0  0  0
 31 51  1  0  0  0  0
 33 34  2  0  0  0  0
 33 52  1  0  0  0  0
 34 53  1  0  0  0  0
M  END
> <PUBCHEM_COMPOUND_CID>
11912475

> <PUBCHEM_CONFORMER_RMSD>
1.2

> <PUBCHEM_CONFORMER_DIVERSEORDER>
1
290
49
68
96
268
143
335
300
355
27
64
245
315
30
42
207
256
339
259
286
277
69
325
373
147
309
321
357
270
343
350
26
258
169
328
38
372
310
356
257
314
126
122
279
111
195
227
170
228
102
124
193
215
374
378
322
345
139
311
206
266
239
368
186
295
238
157
319
233
236
84
219
10
369
271
92
260
313
353
297
402
19
362
98
164
160
346
165
130
152
114
317
282
31
47
97
342
305
103
86
229
220
192
291
344
179
255
137
301
80
303
218
340
348
337
187
367
316
232
334
221
7
108
283
400
222
18
6
212
347
155
401
85
274
380
366
249
306
398
15
185
199
298
248
394
76
168
70
324
133
142
67
354
198
90
293
338
292
390
66
387
132
285
120
99
45
36
365
71
51
288
83
370
332
134
138
371
37
217
223
363
63
262
158
386
181
48
74
149
361
43
393
61
8
194
304
269
144
201
264
263
91
125
312
230
50
188
205
204
174
225
341
358
40
327
22
234
21
117
172
278
336
392
307
110
106
403
275
385
14
273
54
112
24
115
196
176
331
93
253
287
62
203
318
82
360
177
109
226
320
89
72
235
41
20
213
251
289
359
299
127
34
247
113
11
237
190
352
302
397
383
261
94
129
183
78
100
128
173
323
395
9
382
246
329
391
116
32
389
145
44
77
396
326
333
13
364
161
182
240
210
308
384
171
81
87
272
119
294
151
25
216
5
148
280
388
53
231
197
33
104
17
141
250
166
244
242
330
224
208
131
52
35
381
140
150
265
191
28
153
29
180
73
211
107
379
75
214
281
57
123
136
178
95
79
189
167
101
284
399
156
375
59
349
241
56
154
118
121
163
16
252
58
351
267
2
39
12
159
209
377
175
254
60
105
162
376
276
243
55
65
88
46
146
200
184
3
202
135
23
4
296

> <PUBCHEM_MMFF94_PARTIAL_CHARGES>
45
1 -0.08
10 -0.62
11 -0.62
12 -0.55
13 0.28
14 0.28
15 0.37
16 0.28
17 0.28
18 0.28
19 0.72
2 -0.34
20 0.78
21 0.36
22 0.16
23 0.12
24 -0.15
25 -0.01
26 -0.15
27 -0.15
28 -0.14
29 -0.15
3 -0.34
30 -0.15
31 -0.15
32 1.16
33 -0.15
34 -0.11
4 -0.34
43 0.4
44 0.37
45 0.15
46 0.15
47 0.15
48 0.15
49 0.15
5 -0.56
50 0.15
51 0.15
52 0.15
53 0.15
6 -0.56
7 -0.43
8 -0.57
9 -0.87

> <PUBCHEM_EFFECTIVE_ROTOR_COUNT>
9.2

> <PUBCHEM_PHARMACOPHORE_FEATURES>
12
1 10 acceptor
1 12 donor
1 5 acceptor
1 6 acceptor
1 8 acceptor
1 9 donor
4 9 10 11 19 cation
5 1 25 29 33 34 rings
5 5 13 14 15 17 rings
5 6 13 14 16 18 rings
6 10 11 19 21 22 24 rings
6 23 26 27 28 30 31 rings

> <PUBCHEM_HEAVY_ATOM_COUNT>
34

> <PUBCHEM_ATOM_DEF_STEREO_COUNT>
4

> <PUBCHEM_ATOM_UDEF_STEREO_COUNT>
0

> <PUBCHEM_BOND_DEF_STEREO_COUNT>
0

> <PUBCHEM_BOND_UDEF_STEREO_COUNT>
0

> <PUBCHEM_ISOTOPIC_ATOM_COUNT>
0

> <PUBCHEM_COMPONENT_COUNT>
1

> <PUBCHEM_CACTVS_TAUTO_COUNT>
6

> <PUBCHEM_CONFORMER_ID>
00B5C51B00000001

> <PUBCHEM_MMFF94_ENERGY>
91.59

> <PUBCHEM_FEATURE_SELFOVERLAP>
61.613

> <PUBCHEM_SHAPE_FINGERPRINT>
10 15 18407757036757007563
10076449 9 17989490727233361177
10369192 42 18273210881292470687
10391435 84 10809346645854262344
10577160 183 11383842554162756983
106641 1 17821730541923824835
10670039 82 15554446254735268009
10842051 180 15502372318264575024
11135609 99 17532382040405572739
11135926 11 15267342907523537229
11211813 128 18342739646232723191
12104220 1 18260263058692934943
12144600 37 18339927004408517543
12202916 173 8790885194353600464
12643181 29 9511460022705063097
13740195 50 18260266390970209450
13914758 101 11527950066562407009
14294032 229 17822286868642212822
15183329 4 16056593236124837912
15188451 53 10735877275476973906
15444296 9 13183029505464480473
15728490 51 18259703415637815755
18335252 98 18411140225176980443
18603816 31 13262685872318336441
18608769 82 18341327877296530147
19611394 137 18338239375067227513
21585482 111 18195808462290764313
21792961 116 17846499205660352210
22224240 67 17967249797610983227
24771293 8 17967818210989483117
3092352 35 17821446864346719354
335507 130 18342739637067405831
397830 11 18342460305648679863
4098825 35 18060133237248642886
4403749 210 18335693924392628757
444769 64 10807934895184609255
58902169 19 13326848963413637339
59682541 35 18334295396846553083
6126387 218 9367345929265495486
6523845 18 17203606000015270355
6691757 9 16371017299813854369
6703917 75 18335991921017108035
9689198 14 18202001014587587980
9953998 17 18410295801348979681

> <PUBCHEM_SHAPE_MULTIPOLES>
638.33
31.95
2.6
1.26
30.45
0.9
-0.42
1.14
5.31
-5.21
0.38
0.68
0.15
2.12

> <PUBCHEM_SHAPE_SELFOVERLAP>
1392.527

> <PUBCHEM_SHAPE_VOLUME>
349.4

> <PUBCHEM_COORDINATE_TYPE>
2
5
10

$$$$
