51136637
  -OEChem-12032416143D

 64 67  0     1  0  0  0  0  0999 V2000
   -0.7046    1.8600   -0.7298 S   0  0  0  0  0  0  0  0  0  0  0  0
   -5.8937    3.9209    1.1599 F   0  0  0  0  0  0  0  0  0  0  0  0
   -0.5640    2.2239   -2.1230 O   0  0  0  0  0  0  0  0  0  0  0  0
    0.3019    2.2266    0.2428 O   0  0  0  0  0  0  0  0  0  0  0  0
   -3.1848   -5.9675   -0.7325 O   0  0  0  0  0  0  0  0  0  0  0  0
   -4.3287   -4.0025   -0.8390 O   0  0  0  0  0  0  0  0  0  0  0  0
    4.1299    0.1627   -2.4788 O   0  0  0  0  0  0  0  0  0  0  0  0
    5.4282    1.8542   -0.7015 O   0  0  0  0  0  0  0  0  0  0  0  0
   -0.9956    0.1748   -0.6196 N   0  0  1  0  0  0  0  0  0  0  0  0
    1.4446   -2.0080    2.4932 N   0  0  0  0  0  0  0  0  0  0  0  0
   -0.9028   -1.9109    0.7281 C   0  0  2  0  0  0  0  0  0  0  0  0
   -2.0279   -2.5050   -0.1536 C   0  0  1  0  0  0  0  0  0  0  0  0
   -1.0232   -0.3790    0.7669 C   0  0  0  0  0  0  0  0  0  0  0  0
   -2.0542   -1.8529   -1.5445 C   0  0  0  0  0  0  0  0  0  0  0  0
   -2.1267   -0.3324   -1.4474 C   0  0  0  0  0  0  0  0  0  0  0  0
    0.5109   -2.3293    0.3039 C   0  0  0  0  0  0  0  0  0  0  0  0
   -1.9580   -4.0272   -0.2729 C   0  0  0  0  0  0  0  0  0  0  0  0
    1.5280   -1.7173    1.2369 C   0  0  0  0  0  0  0  0  0  0  0  0
   -3.2909   -4.6167   -0.6426 C   0  0  0  0  0  0  0  0  0  0  0  0
    2.5624   -0.8128    0.6732 C   0  0  0  0  0  0  0  0  0  0  0  0
   -2.2582    2.4778   -0.1634 C   0  0  0  0  0  0  0  0  0  0  0  0
    3.2275    0.0257    1.5769 C   0  0  0  0  0  0  0  0  0  0  0  0
    2.8482   -0.0326    3.0268 C   0  0  0  0  0  0  0  0  0  0  0  0
    2.4688   -1.4622    3.3902 C   0  0  0  0  0  0  0  0  0  0  0  0
    2.8667   -0.7695   -0.6887 C   0  0  0  0  0  0  0  0  0  0  0  0
   -2.4577    2.7245    1.1950 C   0  0  0  0  0  0  0  0  0  0  0  0
   -3.2865    2.7189   -1.0746 C   0  0  0  0  0  0  0  0  0  0  0  0
    4.1835    0.9291    1.1045 C   0  0  0  0  0  0  0  0  0  0  0  0
    3.8341    0.1249   -1.1488 C   0  0  0  0  0  0  0  0  0  0  0  0
    4.4887    0.9738   -0.2559 C   0  0  0  0  0  0  0  0  0  0  0  0
   -3.6855    3.2123    1.6421 C   0  0  0  0  0  0  0  0  0  0  0  0
   -4.5143    3.2066   -0.6274 C   0  0  0  0  0  0  0  0  0  0  0  0
   -4.7139    3.4536    0.7309 C   0  0  0  0  0  0  0  0  0  0  0  0
    3.3696    1.0597   -3.2856 C   0  0  0  0  0  0  0  0  0  0  0  0
    6.7781    1.3957   -0.7417 C   0  0  0  0  0  0  0  0  0  0  0  0
   -1.0709   -2.2728    1.7523 H   0  0  0  0  0  0  0  0  0  0  0  0
   -2.9729   -2.2411    0.3441 H   0  0  0  0  0  0  0  0  0  0  0  0
   -0.2405    0.0673    1.3844 H   0  0  0  0  0  0  0  0  0  0  0  0
   -1.9794   -0.1184    1.2371 H   0  0  0  0  0  0  0  0  0  0  0  0
   -2.9144   -2.2075   -2.1232 H   0  0  0  0  0  0  0  0  0  0  0  0
   -1.1602   -2.1377   -2.1129 H   0  0  0  0  0  0  0  0  0  0  0  0
   -2.0724    0.0830   -2.4588 H   0  0  0  0  0  0  0  0  0  0  0  0
   -3.0865   -0.0527   -1.0013 H   0  0  0  0  0  0  0  0  0  0  0  0
    0.6255   -3.4172    0.3799 H   0  0  0  0  0  0  0  0  0  0  0  0
    0.6683   -2.0723   -0.7407 H   0  0  0  0  0  0  0  0  0  0  0  0
   -1.6782   -4.4593    0.6953 H   0  0  0  0  0  0  0  0  0  0  0  0
   -1.2185   -4.3295   -1.0226 H   0  0  0  0  0  0  0  0  0  0  0  0
    2.0018    0.6437    3.1964 H   0  0  0  0  0  0  0  0  0  0  0  0
    3.6787    0.2955    3.6618 H   0  0  0  0  0  0  0  0  0  0  0  0
    3.3477   -2.1188    3.3688 H   0  0  0  0  0  0  0  0  0  0  0  0
    2.0815   -1.4809    4.4148 H   0  0  0  0  0  0  0  0  0  0  0  0
    2.4047   -1.4286   -1.4143 H   0  0  0  0  0  0  0  0  0  0  0  0
   -1.6723    2.5406    1.9226 H   0  0  0  0  0  0  0  0  0  0  0  0
   -3.1548    2.5332   -2.1367 H   0  0  0  0  0  0  0  0  0  0  0  0
    4.6909    1.5975    1.7957 H   0  0  0  0  0  0  0  0  0  0  0  0
   -4.0388   -6.3861   -0.9731 H   0  0  0  0  0  0  0  0  0  0  0  0
   -3.8418    3.4035    2.6996 H   0  0  0  0  0  0  0  0  0  0  0  0
   -5.3155    3.3938   -1.3362 H   0  0  0  0  0  0  0  0  0  0  0  0
    2.3076    0.7957   -3.2562 H   0  0  0  0  0  0  0  0  0  0  0  0
    3.5089    2.0923   -2.9503 H   0  0  0  0  0  0  0  0  0  0  0  0
    3.7225    0.9762   -4.3171 H   0  0  0  0  0  0  0  0  0  0  0  0
    7.1231    1.1308    0.2628 H   0  0  0  0  0  0  0  0  0  0  0  0
    6.8732    0.5349   -1.4111 H   0  0  0  0  0  0  0  0  0  0  0  0
    7.4041    2.2065   -1.1241 H   0  0  0  0  0  0  0  0  0  0  0  0
  1  3  2  0  0  0  0
  1  4  2  0  0  0  0
  1  9  1  0  0  0  0
  1 21  1  0  0  0  0
  2 33  1  0  0  0  0
  5 19  1  0  0  0  0
  5 56  1  0  0  0  0
  6 19  2  0  0  0  0
  7 29  1  0  0  0  0
  7 34  1  0  0  0  0
  8 30  1  0  0  0  0
  8 35  1  0  0  0  0
  9 13  1  0  0  0  0
  9 15  1  0  0  0  0
 10 18  2  0  0  0  0
 10 24  1  0  0  0  0
 11 12  1  0  0  0  0
 11 13  1  0  0  0  0
 11 16  1  0  0  0  0
 11 36  1  0  0  0  0
 12 14  1  0  0  0  0
 12 17  1  0  0  0  0
 12 37  1  0  0  0  0
 13 38  1  0  0  0  0
 13 39  1  0  0  0  0
 14 15  1  0  0  0  0
 14 40  1  0  0  0  0
 14 41  1  0  0  0  0
 15 42  1  0  0  0  0
 15 43  1  0  0  0  0
 16 18  1  0  0  0  0
 16 44  1  0  0  0  0
 16 45  1  0  0  0  0
 17 19  1  0  0  0  0
 17 46  1  0  0  0  0
 17 47  1  0  0  0  0
 18 20  1  0  0  0  0
 20 22  1  0  0  0  0
 20 25  2  0  0  0  0
 21 26  2  0  0  0  0
 21 27  1  0  0  0  0
 22 23  1  0  0  0  0
 22 28  2  0  0  0  0
 23 24  1  0  0  0  0
 23 48  1  0  0  0  0
 23 49  1  0  0  0  0
 24 50  1  0  0  0  0
 24 51  1  0  0  0  0
 25 29  1  0  0  0  0
 25 52  1  0  0  0  0
 26 31  1  0  0  0  0
 26 53  1  0  0  0  0
 27 32  2  0  0  0  0
 27 54  1  0  0  0  0
 28 30  1  0  0  0  0
 28 55  1  0  0  0  0
 29 30  2  0  0  0  0
 31 33  2  0  0  0  0
 31 57  1  0  0  0  0
 32 33  1  0  0  0  0
 32 58  1  0  0  0  0
 34 59  1  0  0  0  0
 34 60  1  0  0  0  0
 34 61  1  0  0  0  0
 35 62  1  0  0  0  0
 35 63  1  0  0  0  0
 35 64  1  0  0  0  0
M  END
> <PUBCHEM_COMPOUND_CID>
51136637

> <PUBCHEM_CONFORMER_RMSD>
1

> <PUBCHEM_CONFORMER_DIVERSEORDER>
1
10
98
85
41
13
116
68
115
29
121
25
103
32
88
45
91
16
78
74
125
61
101
39
47
89
95
120
44
104
20
37
65
31
30
69
26
96
79
114
49
17
117
105
102
42
126
43
111
34
64
84
56
106
51
124
119
110
72
71
108
6
70
92
36
82
46
58
80
93
76
11
107
99
94
23
75
90
62
87
113
54
15
73
33
21
66
109
97
12
123
18
48
52
53
5
112
22
28
4
40
57
50
81
63
9
122
35
3
59
27
77
8
55
2
7
60
83
67
86
19
24
100
118
14
38

> <PUBCHEM_MMFF94_PARTIAL_CHARGES>
39
1 1.45
10 -0.7
13 0.36
15 0.36
16 0.06
17 0.06
18 0.3
19 0.66
2 -0.19
20 0.09
21 -0.01
22 -0.14
23 0.14
24 0.25
25 -0.15
26 -0.15
27 -0.15
28 -0.15
29 0.08
3 -0.65
30 0.08
31 -0.15
32 -0.15
33 0.19
34 0.28
35 0.28
4 -0.65
5 -0.65
52 0.15
53 0.15
54 0.15
55 0.15
56 0.5
57 0.15
58 0.15
6 -0.57
7 -0.36
8 -0.36
9 -0.85

> <PUBCHEM_EFFECTIVE_ROTOR_COUNT>
9.6

> <PUBCHEM_PHARMACOPHORE_FEATURES>
12
1 10 acceptor
1 3 acceptor
1 4 acceptor
1 5 acceptor
1 6 acceptor
1 7 acceptor
1 8 acceptor
3 5 6 19 anion
6 10 18 20 22 23 24 rings
6 20 22 25 28 29 30 rings
6 21 26 27 31 32 33 rings
6 9 11 12 13 14 15 rings

> <PUBCHEM_HEAVY_ATOM_COUNT>
35

> <PUBCHEM_ATOM_DEF_STEREO_COUNT>
2

> <PUBCHEM_ATOM_UDEF_STEREO_COUNT>
0

> <PUBCHEM_BOND_DEF_STEREO_COUNT>
0

> <PUBCHEM_BOND_UDEF_STEREO_COUNT>
0

> <PUBCHEM_ISOTOPIC_ATOM_COUNT>
0

> <PUBCHEM_COMPONENT_COUNT>
1

> <PUBCHEM_CACTVS_TAUTO_COUNT>
1

> <PUBCHEM_CONFORMER_ID>
030C487D00000001

> <PUBCHEM_MMFF94_ENERGY>
98.3045

> <PUBCHEM_FEATURE_SELFOVERLAP>
61.006

> <PUBCHEM_SHAPE_FINGERPRINT>
10010297 198 17895767188109658867
10794284 68 18117865380503900459
11049842 53 18126272061331494026
11115154 58 18051966215829703791
12107698 1 18121215639799849348
12160290 23 18126817513677049543
12788726 201 18263635320394522499
13540713 5 18042105644858227234
13583140 156 16229127355120012777
13782708 43 17559687329107148718
14068700 675 17973717275339745910
14468879 13 16628805496788995552
14790565 3 18267303132429092933
14840074 17 18115314358635097485
150020 26 17113523823572816057
15297060 5 18128263293957755281
15448158 71 17676775275536310300
15968369 153 17902820748232412873
19311894 1 18409731755767648948
19319366 153 17895200948401056056
21120745 212 18194399116263875165
21315764 21 14116930454081122929
21756936 100 17170146792056930620
244849 19 17489575784676457586
469060 322 16732990855071329669
5252454 2 18262228933453693584
57527585 21 17412990500139558736
7808743 9 18410573981273585792
9658208 31 18201719501103533649

> <PUBCHEM_SHAPE_MULTIPOLES>
671.68
10.98
6.26
2.66
5.8
7.03
-0.63
-9.31
1.31
-13.43
0.72
2.96
-0.23
-3.84

> <PUBCHEM_SHAPE_SELFOVERLAP>
1423.065

> <PUBCHEM_SHAPE_VOLUME>
380.2

> <PUBCHEM_COORDINATE_TYPE>
2
5
10

$$$$
