26742713
  -OEChem-12032416173D

 55 57  0     1  0  0  0  0  0999 V2000
    2.9846   -2.6337    0.0488 O   0  0  0  0  0  0  0  0  0  0  0  0
   -4.9781   -1.0668   -0.4642 O   0  0  0  0  0  0  0  0  0  0  0  0
    2.5842   -0.3705   -0.2800 N   0  0  0  0  0  0  0  0  0  0  0  0
   -2.7022   -0.6287   -0.3015 N   0  0  0  0  0  0  0  0  0  0  0  0
   -4.2726    1.1073   -0.6540 N   0  0  0  0  0  0  0  0  0  0  0  0
   -0.5001    0.0436    0.6776 C   0  0  1  0  0  0  0  0  0  0  0  0
   -0.1045   -1.4422    0.8254 C   0  0  1  0  0  0  0  0  0  0  0  0
    0.6950    1.0041    0.5480 C   0  0  0  0  0  0  0  0  0  0  0  0
   -1.3908   -2.2652    1.0197 C   0  0  0  0  0  0  0  0  0  0  0  0
   -1.5394    0.2652   -0.4414 C   0  0  0  0  0  0  0  0  0  0  0  0
    0.7254   -1.9951   -0.3458 C   0  0  0  0  0  0  0  0  0  0  0  0
    3.9584    0.0088   -0.0562 C   0  0  0  0  0  0  0  0  0  0  0  0
    1.6511    0.7089   -0.6034 C   0  0  0  0  0  0  0  0  0  0  0  0
   -2.3884   -2.0472   -0.1119 C   0  0  0  0  0  0  0  0  0  0  0  0
    2.2046   -1.7052   -0.1767 C   0  0  0  0  0  0  0  0  0  0  0  0
    4.5607    0.6324   -1.3180 C   0  0  0  0  0  0  0  0  0  0  0  0
    4.0649    0.9580    1.1397 C   0  0  0  0  0  0  0  0  0  0  0  0
    5.9982    1.0908   -1.0870 C   0  0  0  0  0  0  0  0  0  0  0  0
    5.5027    1.4176    1.3670 C   0  0  0  0  0  0  0  0  0  0  0  0
    6.1024    2.0354    0.1070 C   0  0  0  0  0  0  0  0  0  0  0  0
   -4.0489   -0.2525   -0.4696 C   0  0  0  0  0  0  0  0  0  0  0  0
   -5.5983    1.6500   -0.8498 C   0  0  0  0  0  0  0  0  0  0  0  0
   -6.1832    1.9994    0.4782 C   0  0  0  0  0  0  0  0  0  0  0  0
   -7.3256    1.4857    0.9482 C   0  0  0  0  0  0  0  0  0  0  0  0
   -1.0058    0.3245    1.6146 H   0  0  0  0  0  0  0  0  0  0  0  0
    0.4884   -1.5447    1.7450 H   0  0  0  0  0  0  0  0  0  0  0  0
    1.2405    1.0082    1.4993 H   0  0  0  0  0  0  0  0  0  0  0  0
    0.3029    2.0213    0.4194 H   0  0  0  0  0  0  0  0  0  0  0  0
   -1.8591   -1.9715    1.9683 H   0  0  0  0  0  0  0  0  0  0  0  0
   -1.1540   -3.3321    1.1061 H   0  0  0  0  0  0  0  0  0  0  0  0
   -1.8162    1.3178   -0.4434 H   0  0  0  0  0  0  0  0  0  0  0  0
   -1.1170    0.0585   -1.4303 H   0  0  0  0  0  0  0  0  0  0  0  0
    0.3857   -1.6410   -1.3230 H   0  0  0  0  0  0  0  0  0  0  0  0
    0.6324   -3.0889   -0.3780 H   0  0  0  0  0  0  0  0  0  0  0  0
    4.5470   -0.8860    0.1820 H   0  0  0  0  0  0  0  0  0  0  0  0
    1.1116    0.4417   -1.5167 H   0  0  0  0  0  0  0  0  0  0  0  0
    2.1839    1.6343   -0.8325 H   0  0  0  0  0  0  0  0  0  0  0  0
   -1.9901   -2.4198   -1.0626 H   0  0  0  0  0  0  0  0  0  0  0  0
   -3.2979   -2.6196    0.0976 H   0  0  0  0  0  0  0  0  0  0  0  0
    3.9942    1.4981   -1.6746 H   0  0  0  0  0  0  0  0  0  0  0  0
    4.5415   -0.0989   -2.1358 H   0  0  0  0  0  0  0  0  0  0  0  0
    3.6941    0.4627    2.0456 H   0  0  0  0  0  0  0  0  0  0  0  0
    3.4490    1.8538    1.0002 H   0  0  0  0  0  0  0  0  0  0  0  0
    6.3767    1.5893   -1.9867 H   0  0  0  0  0  0  0  0  0  0  0  0
    6.6368    0.2154   -0.9159 H   0  0  0  0  0  0  0  0  0  0  0  0
    6.1136    0.5617    1.6796 H   0  0  0  0  0  0  0  0  0  0  0  0
    5.5328    2.1460    2.1853 H   0  0  0  0  0  0  0  0  0  0  0  0
    7.1532    2.2900    0.2853 H   0  0  0  0  0  0  0  0  0  0  0  0
    5.5807    2.9726   -0.1231 H   0  0  0  0  0  0  0  0  0  0  0  0
   -3.5257    1.7843   -0.6059 H   0  0  0  0  0  0  0  0  0  0  0  0
   -5.4982    2.5529   -1.4604 H   0  0  0  0  0  0  0  0  0  0  0  0
   -6.2151    0.9307   -1.3989 H   0  0  0  0  0  0  0  0  0  0  0  0
   -5.6520    2.7261    1.0879 H   0  0  0  0  0  0  0  0  0  0  0  0
   -7.7038    1.7851    1.9196 H   0  0  0  0  0  0  0  0  0  0  0  0
   -7.8990    0.7627    0.3789 H   0  0  0  0  0  0  0  0  0  0  0  0
  1 15  2  0  0  0  0
  2 21  2  0  0  0  0
  3 12  1  0  0  0  0
  3 13  1  0  0  0  0
  3 15  1  0  0  0  0
  4 10  1  0  0  0  0
  4 14  1  0  0  0  0
  4 21  1  0  0  0  0
  5 21  1  0  0  0  0
  5 22  1  0  0  0  0
  5 50  1  0  0  0  0
  6  7  1  0  0  0  0
  6  8  1  0  0  0  0
  6 10  1  0  0  0  0
  6 25  1  0  0  0  0
  7  9  1  0  0  0  0
  7 11  1  0  0  0  0
  7 26  1  0  0  0  0
  8 13  1  0  0  0  0
  8 27  1  0  0  0  0
  8 28  1  0  0  0  0
  9 14  1  0  0  0  0
  9 29  1  0  0  0  0
  9 30  1  0  0  0  0
 10 31  1  0  0  0  0
 10 32  1  0  0  0  0
 11 15  1  0  0  0  0
 11 33  1  0  0  0  0
 11 34  1  0  0  0  0
 12 16  1  0  0  0  0
 12 17  1  0  0  0  0
 12 35  1  0  0  0  0
 13 36  1  0  0  0  0
 13 37  1  0  0  0  0
 14 38  1  0  0  0  0
 14 39  1  0  0  0  0
 16 18  1  0  0  0  0
 16 40  1  0  0  0  0
 16 41  1  0  0  0  0
 17 19  1  0  0  0  0
 17 42  1  0  0  0  0
 17 43  1  0  0  0  0
 18 20  1  0  0  0  0
 18 44  1  0  0  0  0
 18 45  1  0  0  0  0
 19 20  1  0  0  0  0
 19 46  1  0  0  0  0
 19 47  1  0  0  0  0
 20 48  1  0  0  0  0
 20 49  1  0  0  0  0
 22 23  1  0  0  0  0
 22 51  1  0  0  0  0
 22 52  1  0  0  0  0
 23 24  2  0  0  0  0
 23 53  1  0  0  0  0
 24 54  1  0  0  0  0
 24 55  1  0  0  0  0
M  END
> <PUBCHEM_COMPOUND_CID>
26742713

> <PUBCHEM_CONFORMER_RMSD>
0.8

> <PUBCHEM_CONFORMER_DIVERSEORDER>
1
13
23
22
42
24
37
3
48
35
64
10
33
8
9
12
16
45
50
68
21
18
62
40
61
32
58
34
31
20
26
38
19
60
39
5
65
49
36
29
41
51
6
25
54
47
4
30
53
27
67
59
56
15
66
28
57
2
63
7
14
46
43
52
55
11
17
44

> <PUBCHEM_MMFF94_PARTIAL_CHARGES>
19
1 -0.57
10 0.3
11 0.06
12 0.3
13 0.3
14 0.3
15 0.57
2 -0.57
21 0.69
22 0.44
23 -0.29
24 -0.3
3 -0.66
4 -0.66
5 -0.73
50 0.37
53 0.15
54 0.15
55 0.15

> <PUBCHEM_EFFECTIVE_ROTOR_COUNT>
7.8

> <PUBCHEM_PHARMACOPHORE_FEATURES>
7
1 1 acceptor
1 2 acceptor
1 24 hydrophobe
1 5 donor
6 12 16 17 18 19 20 rings
6 4 6 7 9 10 14 rings
7 3 6 7 8 11 13 15 rings

> <PUBCHEM_HEAVY_ATOM_COUNT>
24

> <PUBCHEM_ATOM_DEF_STEREO_COUNT>
2

> <PUBCHEM_ATOM_UDEF_STEREO_COUNT>
0

> <PUBCHEM_BOND_DEF_STEREO_COUNT>
0

> <PUBCHEM_BOND_UDEF_STEREO_COUNT>
0

> <PUBCHEM_ISOTOPIC_ATOM_COUNT>
0

> <PUBCHEM_COMPONENT_COUNT>
1

> <PUBCHEM_CACTVS_TAUTO_COUNT>
4

> <PUBCHEM_CONFORMER_ID>
01980FB900000001

> <PUBCHEM_MMFF94_ENERGY>
45.1293

> <PUBCHEM_FEATURE_SELFOVERLAP>
35.538

> <PUBCHEM_SHAPE_FINGERPRINT>
10 15 17748831804669826113
10906281 52 18186812408533080892
117890 112 18408318908768550304
12293681 160 18060703883408763323
12403259 415 18199750417807610816
12633257 1 16950554545538574342
12788726 201 17417535705050997761
12969540 114 17917705846760652326
13073987 5 18409166606643343931
13540713 4 18264791950745291434
13690498 29 16915647289351471263
14123256 34 9727635037463498988
14251764 18 18408602574537135237
14790565 3 18125162628692812881
15081414 286 18334859364148398757
15188451 53 11314311663636470925
15196674 1 18409445860858198935
1601671 61 18335135410428611852
17980427 23 17823135782124366758
18222031 100 11455886970713564562
18608769 82 18337676425330350035
200 152 15769505304257477898
20621476 66 18335706073784756492
20715895 44 18408884057803509356
21033648 29 18200302351360107952
21304253 335 18407762529629639893
21421861 104 17459452400159564538
21424621 283 18341899550355176393
21774942 28 17489309629690206672
22182313 1 18265918975822600838
22224240 67 17967255283043641577
22393880 68 17774713272525108086
23402655 69 18343298154730628399
23559900 14 18408606959804512454
23569914 152 17053880884154497260
2838139 119 18339912749416739468
293599 30 18410575072284605205
3014063 24 10881691225886916065
34934 24 18412257346180972662
350125 39 18336261255155007238
3680242 22 18040427776997035168
4073 2 18260833717574998251
4340502 62 18261111846286362067
5104073 3 18333730191761267963
5283173 99 18343019995205276888
5385378 56 18261109634768919882
5758199 1 18410579462263713785
59682541 35 18114474422683813641
59682541 52 16916796149968562796

> <PUBCHEM_SHAPE_MULTIPOLES>
467.23
16.6
2.56
1.13
10.73
1.02
0.09
-14.43
0.1
0.62
0.32
-0.63
-0.27
0.08

> <PUBCHEM_SHAPE_SELFOVERLAP>
953.785

> <PUBCHEM_SHAPE_VOLUME>
264.4

> <PUBCHEM_COORDINATE_TYPE>
2
5
10

$$$$
