75368712
  -OEChem-12032416393D

 44 46  0     1  0  0  0  0  0999 V2000
    3.6548    1.8164   -0.4706 O   0  0  0  0  0  0  0  0  0  0  0  0
    4.9288   -0.7811    0.9166 O   0  0  0  0  0  0  0  0  0  0  0  0
    1.3883    1.1987   -0.4507 N   0  0  0  0  0  0  0  0  0  0  0  0
   -1.2613    0.9672    0.4642 N   0  0  2  0  0  0  0  0  0  0  0  0
    2.9043   -0.3379   -1.0708 N   0  0  0  0  0  0  0  0  0  0  0  0
   -5.2758   -0.5200   -0.4055 N   0  0  0  0  0  0  0  0  0  0  0  0
   -4.9114   -1.7045    0.1142 N   0  0  0  0  0  0  0  0  0  0  0  0
    0.5998    0.0569   -0.8645 C   0  0  2  0  0  0  0  0  0  0  0  0
   -0.4772   -0.2507    0.1753 C   0  0  0  0  0  0  0  0  0  0  0  0
    1.6365   -1.0474   -1.0611 C   0  0  0  0  0  0  0  0  0  0  0  0
    0.7151    2.4003   -0.0034 C   0  0  0  0  0  0  0  0  0  0  0  0
   -0.3930    2.0403    0.9894 C   0  0  0  0  0  0  0  0  0  0  0  0
    2.7614    0.9984   -0.6458 C   0  0  0  0  0  0  0  0  0  0  0  0
   -2.3336    0.6692    1.4133 C   0  0  0  0  0  0  0  0  0  0  0  0
    4.1560   -1.0088   -1.3439 C   0  0  0  0  0  0  0  0  0  0  0  0
   -3.4878   -0.0359    0.7520 C   0  0  0  0  0  0  0  0  0  0  0  0
    4.6830   -1.7277   -0.1154 C   0  0  0  0  0  0  0  0  0  0  0  0
   -4.4559    0.5118   -0.0538 C   0  0  0  0  0  0  0  0  0  0  0  0
   -3.8186   -1.4026    0.8203 C   0  0  0  0  0  0  0  0  0  0  0  0
   -6.4434   -0.4357   -1.2494 C   0  0  0  0  0  0  0  0  0  0  0  0
    5.4301   -1.4070    2.0896 C   0  0  0  0  0  0  0  0  0  0  0  0
    0.1403    0.3167   -1.8273 H   0  0  0  0  0  0  0  0  0  0  0  0
   -1.1140   -1.0466   -0.2264 H   0  0  0  0  0  0  0  0  0  0  0  0
   -0.0170   -0.6309    1.0977 H   0  0  0  0  0  0  0  0  0  0  0  0
    1.6470   -1.7670   -0.2363 H   0  0  0  0  0  0  0  0  0  0  0  0
    1.4960   -1.5777   -2.0077 H   0  0  0  0  0  0  0  0  0  0  0  0
    0.2943    2.8868   -0.8908 H   0  0  0  0  0  0  0  0  0  0  0  0
    1.4432    3.0836    0.4450 H   0  0  0  0  0  0  0  0  0  0  0  0
    0.0578    1.7277    1.9409 H   0  0  0  0  0  0  0  0  0  0  0  0
   -0.9823    2.9441    1.1853 H   0  0  0  0  0  0  0  0  0  0  0  0
   -2.7401    1.6027    1.8270 H   0  0  0  0  0  0  0  0  0  0  0  0
   -1.9699    0.0891    2.2716 H   0  0  0  0  0  0  0  0  0  0  0  0
    4.8788   -0.2449   -1.6519 H   0  0  0  0  0  0  0  0  0  0  0  0
    4.0070   -1.7040   -2.1760 H   0  0  0  0  0  0  0  0  0  0  0  0
    3.9593   -2.4726    0.2352 H   0  0  0  0  0  0  0  0  0  0  0  0
    5.6179   -2.2406   -0.3689 H   0  0  0  0  0  0  0  0  0  0  0  0
   -4.6239    1.5239   -0.3964 H   0  0  0  0  0  0  0  0  0  0  0  0
   -3.3101   -2.1927    1.3543 H   0  0  0  0  0  0  0  0  0  0  0  0
   -6.2895   -1.0844   -2.1152 H   0  0  0  0  0  0  0  0  0  0  0  0
   -7.3103   -0.7649   -0.6710 H   0  0  0  0  0  0  0  0  0  0  0  0
   -6.5837    0.5973   -1.5771 H   0  0  0  0  0  0  0  0  0  0  0  0
    5.6016   -0.6353    2.8448 H   0  0  0  0  0  0  0  0  0  0  0  0
    6.3800   -1.9088    1.8811 H   0  0  0  0  0  0  0  0  0  0  0  0
    4.7027   -2.1240    2.4825 H   0  0  0  0  0  0  0  0  0  0  0  0
  1 13  2  0  0  0  0
  2 17  1  0  0  0  0
  2 21  1  0  0  0  0
  3  8  1  0  0  0  0
  3 11  1  0  0  0  0
  3 13  1  0  0  0  0
  4  9  1  0  0  0  0
  4 12  1  0  0  0  0
  4 14  1  0  0  0  0
  5 10  1  0  0  0  0
  5 13  1  0  0  0  0
  5 15  1  0  0  0  0
  6  7  1  0  0  0  0
  6 18  1  0  0  0  0
  6 20  1  0  0  0  0
  7 19  2  0  0  0  0
  8  9  1  0  0  0  0
  8 10  1  0  0  0  0
  8 22  1  0  0  0  0
  9 23  1  0  0  0  0
  9 24  1  0  0  0  0
 10 25  1  0  0  0  0
 10 26  1  0  0  0  0
 11 12  1  0  0  0  0
 11 27  1  0  0  0  0
 11 28  1  0  0  0  0
 12 29  1  0  0  0  0
 12 30  1  0  0  0  0
 14 16  1  0  0  0  0
 14 31  1  0  0  0  0
 14 32  1  0  0  0  0
 15 17  1  0  0  0  0
 15 33  1  0  0  0  0
 15 34  1  0  0  0  0
 16 18  2  0  0  0  0
 16 19  1  0  0  0  0
 17 35  1  0  0  0  0
 17 36  1  0  0  0  0
 18 37  1  0  0  0  0
 19 38  1  0  0  0  0
 20 39  1  0  0  0  0
 20 40  1  0  0  0  0
 20 41  1  0  0  0  0
 21 42  1  0  0  0  0
 21 43  1  0  0  0  0
 21 44  1  0  0  0  0
M  END
> <PUBCHEM_COMPOUND_CID>
75368712

> <PUBCHEM_CONFORMER_RMSD>
0.8

> <PUBCHEM_CONFORMER_DIVERSEORDER>
1
69
10
38
84
103
127
94
55
99
25
86
19
37
71
115
124
108
126
11
40
76
3
125
93
98
49
14
59
75
72
88
119
21
54
30
18
80
91
95
89
96
29
77
67
64
70
45
101
57
20
63
81
23
53
42
87
7
41
73
104
36
13
111
100
114
117
113
47
24
121
90
60
31
116
5
106
17
83
66
22
82
8
50
16
105
58
32
102
27
26
68
74
6
78
110
79
48
107
85
12
28
56
9
15
39
118
112
4
46
122
61
44
109
120
43
97
123
35
51
92
2
52
33
62
65
34

> <PUBCHEM_MMFF94_PARTIAL_CHARGES>
23
1 -0.57
10 0.3
11 0.3
12 0.27
13 0.69
14 0.45
15 0.3
16 -0.18
17 0.28
18 -0.3
19 0.14
2 -0.56
20 0.26
21 0.28
3 -0.66
37 0.15
38 0.15
4 -0.81
5 -0.66
6 0.31
7 -0.71
8 0.3
9 0.27

> <PUBCHEM_EFFECTIVE_ROTOR_COUNT>
6.2

> <PUBCHEM_PHARMACOPHORE_FEATURES>
7
1 1 acceptor
1 2 acceptor
1 4 cation
1 7 acceptor
5 3 5 8 10 13 rings
5 6 7 16 18 19 rings
6 3 4 8 9 11 12 rings

> <PUBCHEM_HEAVY_ATOM_COUNT>
21

> <PUBCHEM_ATOM_DEF_STEREO_COUNT>
1

> <PUBCHEM_ATOM_UDEF_STEREO_COUNT>
0

> <PUBCHEM_BOND_DEF_STEREO_COUNT>
0

> <PUBCHEM_BOND_UDEF_STEREO_COUNT>
0

> <PUBCHEM_ISOTOPIC_ATOM_COUNT>
0

> <PUBCHEM_COMPONENT_COUNT>
1

> <PUBCHEM_CACTVS_TAUTO_COUNT>
1

> <PUBCHEM_CONFORMER_ID>
047E090800000001

> <PUBCHEM_MMFF94_ENERGY>
36.6364

> <PUBCHEM_FEATURE_SELFOVERLAP>
35.618

> <PUBCHEM_SHAPE_FINGERPRINT>
10378564 45 14634864232787533542
10447042 23 18343585165535055437
10613725 11 16515400738129261451
10670039 82 13768195065718583399
10803635 8 18040714762754558983
11796584 16 17458348545760832282
12596602 18 14836405822287096655
12892183 10 16701744830791242576
12895836 83 10231169582334232170
12954195 1 13768476506245865206
13083527 12 18411418393503542348
13899415 180 18335976528191975085
14251751 18 17967806137614984626
14251752 14 18260547784917742413
14848178 5 18341896272714718051
15183329 4 14779545643365521634
15188451 53 18341886343172355578
15788980 27 17821453469320221667
17349148 13 18342188759981982619
17857418 61 18114179713963239298
18222031 100 18271534121765183590
18785283 64 16558169636121346376
200 152 17917720119295627125
20028762 73 17988645177149100238
20567600 234 17202749501757821002
20621476 91 16271631361183606743
20645477 70 18410865373013031470
22079108 93 15482661382277525590
23253445 4 16702296854115708994
23402539 116 18272094846693449789
23559900 14 18335426810763435704
2637199 183 10953461838108716165
3004659 81 18335991912664147702
3009799 131 18410568466593313965
32948 21 16877944931832694575
339767 52 18411412899834357995
4325135 7 14836115567922128211
439807 62 18199463458870619103
4990 188 13334748946259493640
5104073 3 18342187686614907217
5283173 99 18335137536601402053
56616090 89 18202002101177527529
59682541 52 16371272377695047563
633830 44 13046233826186445723
76465 3 18260268516984301848
8988823 20 18187079568726548784
960060 61 16732990821080940614
9971528 1 16878227545002158276

> <PUBCHEM_SHAPE_MULTIPOLES>
395.53
13.55
2.04
1.44
6.96
0.78
-0.38
-8
-0.25
-1.02
-0.22
-1.14
-0.36
-0.85

> <PUBCHEM_SHAPE_SELFOVERLAP>
819.243

> <PUBCHEM_SHAPE_VOLUME>
230

> <PUBCHEM_COORDINATE_TYPE>
2
5
10

$$$$
