75367758
  -OEChem-12032416403D

 36 37  0     1  0  0  0  0  0999 V2000
    3.2919   -0.6988   -1.7560 O   0  0  0  0  0  0  0  0  0  0  0  0
    4.5631   -0.6670    1.6114 O   0  0  0  0  0  0  0  0  0  0  0  0
   -3.3968   -1.8902    0.4244 O   0  0  0  0  0  0  0  0  0  0  0  0
    1.2675    0.4865    0.2989 N   0  0  2  0  0  0  0  0  0  0  0  0
    2.4352    0.3581    1.1776 C   0  0  0  0  0  0  0  0  0  0  0  0
    3.7455   -0.1539    0.5586 C   0  0  2  0  0  0  0  0  0  0  0  0
    1.5794    0.9402   -1.0573 C   0  0  0  0  0  0  0  0  0  0  0  0
    0.2553    1.3355    0.9284 C   0  0  0  0  0  0  0  0  0  0  0  0
    3.5628   -1.2573   -0.4748 C   0  0  0  0  0  0  0  0  0  0  0  0
    1.9539   -0.2556   -1.9340 C   0  0  0  0  0  0  0  0  0  0  0  0
   -1.1350    0.9848    0.4692 C   0  0  0  0  0  0  0  0  0  0  0  0
   -1.6284   -0.3055    0.6624 C   0  0  0  0  0  0  0  0  0  0  0  0
   -1.9294    1.9500   -0.1501 C   0  0  0  0  0  0  0  0  0  0  0  0
   -2.9162   -0.6308    0.2365 C   0  0  0  0  0  0  0  0  0  0  0  0
   -3.2171    1.6246   -0.5762 C   0  0  0  0  0  0  0  0  0  0  0  0
   -3.7107    0.3343   -0.3827 C   0  0  0  0  0  0  0  0  0  0  0  0
   -4.7212   -2.1550   -0.0362 C   0  0  0  0  0  0  0  0  0  0  0  0
    2.1577   -0.3042    2.0091 H   0  0  0  0  0  0  0  0  0  0  0  0
    2.6682    1.3259    1.6452 H   0  0  0  0  0  0  0  0  0  0  0  0
    4.2844    0.6845    0.1002 H   0  0  0  0  0  0  0  0  0  0  0  0
    2.3636    1.7068   -1.0575 H   0  0  0  0  0  0  0  0  0  0  0  0
    0.6957    1.3925   -1.5233 H   0  0  0  0  0  0  0  0  0  0  0  0
    0.4785    2.3997    0.7729 H   0  0  0  0  0  0  0  0  0  0  0  0
    0.2519    1.1911    2.0184 H   0  0  0  0  0  0  0  0  0  0  0  0
    4.4959   -1.8243   -0.5727 H   0  0  0  0  0  0  0  0  0  0  0  0
    2.7928   -1.9831   -0.1860 H   0  0  0  0  0  0  0  0  0  0  0  0
    1.8720    0.0493   -2.9835 H   0  0  0  0  0  0  0  0  0  0  0  0
    1.2601   -1.0952   -1.8010 H   0  0  0  0  0  0  0  0  0  0  0  0
    4.7055    0.0536    2.2488 H   0  0  0  0  0  0  0  0  0  0  0  0
   -1.0182   -1.0629    1.1486 H   0  0  0  0  0  0  0  0  0  0  0  0
   -1.5576    2.9588   -0.3082 H   0  0  0  0  0  0  0  0  0  0  0  0
   -3.8347    2.3767   -1.0587 H   0  0  0  0  0  0  0  0  0  0  0  0
   -4.7188    0.1498   -0.7378 H   0  0  0  0  0  0  0  0  0  0  0  0
   -4.9399   -3.2029    0.1940 H   0  0  0  0  0  0  0  0  0  0  0  0
   -4.7991   -2.0434   -1.1230 H   0  0  0  0  0  0  0  0  0  0  0  0
   -5.4614   -1.5492    0.4975 H   0  0  0  0  0  0  0  0  0  0  0  0
  1  9  1  0  0  0  0
  1 10  1  0  0  0  0
  2  6  1  0  0  0  0
  2 29  1  0  0  0  0
  3 14  1  0  0  0  0
  3 17  1  0  0  0  0
  4  5  1  0  0  0  0
  4  7  1  0  0  0  0
  4  8  1  0  0  0  0
  5  6  1  0  0  0  0
  5 18  1  0  0  0  0
  5 19  1  0  0  0  0
  6  9  1  0  0  0  0
  6 20  1  0  0  0  0
  7 10  1  0  0  0  0
  7 21  1  0  0  0  0
  7 22  1  0  0  0  0
  8 11  1  0  0  0  0
  8 23  1  0  0  0  0
  8 24  1  0  0  0  0
  9 25  1  0  0  0  0
  9 26  1  0  0  0  0
 10 27  1  0  0  0  0
 10 28  1  0  0  0  0
 11 12  2  0  0  0  0
 11 13  1  0  0  0  0
 12 14  1  0  0  0  0
 12 30  1  0  0  0  0
 13 15  2  0  0  0  0
 13 31  1  0  0  0  0
 14 16  2  0  0  0  0
 15 16  1  0  0  0  0
 15 32  1  0  0  0  0
 16 33  1  0  0  0  0
 17 34  1  0  0  0  0
 17 35  1  0  0  0  0
 17 36  1  0  0  0  0
M  END
> <PUBCHEM_COMPOUND_CID>
75367758

> <PUBCHEM_CONFORMER_RMSD>
0.6

> <PUBCHEM_CONFORMER_DIVERSEORDER>
1
122
118
35
123
4
66
83
141
126
136
68
80
127
43
89
101
92
113
55
75
60
110
50
134
13
18
69
45
120
19
99
94
115
52
107
96
112
105
138
2
106
88
91
93
98
24
129
65
54
73
33
130
104
28
38
102
128
11
78
57
117
140
84
7
49
70
15
23
124
133
71
114
95
135
72
74
142
131
125
47
87
90
22
48
76
31
139
116
39
103
34
61
17
119
108
8
12
6
137
46
30
97
16
121
85
111
14
77
79
44
27
132
5
67
3
63
41
56
62
109
20
10
59
29
100
51
9
32
21
37
25
53
86
42
26
82
64
36
40
81
58

> <PUBCHEM_MMFF94_PARTIAL_CHARGES>
22
1 -0.56
10 0.28
11 -0.14
12 -0.15
13 -0.15
14 0.08
15 -0.15
16 -0.15
17 0.28
2 -0.68
29 0.4
3 -0.36
30 0.15
31 0.15
32 0.15
33 0.15
4 -0.81
5 0.27
6 0.28
7 0.27
8 0.41
9 0.28

> <PUBCHEM_EFFECTIVE_ROTOR_COUNT>
4.4

> <PUBCHEM_PHARMACOPHORE_FEATURES>
7
1 1 acceptor
1 2 acceptor
1 2 donor
1 3 acceptor
1 4 cation
6 11 12 13 14 15 16 rings
7 1 4 5 6 7 9 10 rings

> <PUBCHEM_HEAVY_ATOM_COUNT>
17

> <PUBCHEM_ATOM_DEF_STEREO_COUNT>
1

> <PUBCHEM_ATOM_UDEF_STEREO_COUNT>
0

> <PUBCHEM_BOND_DEF_STEREO_COUNT>
0

> <PUBCHEM_BOND_UDEF_STEREO_COUNT>
0

> <PUBCHEM_ISOTOPIC_ATOM_COUNT>
0

> <PUBCHEM_COMPONENT_COUNT>
1

> <PUBCHEM_CACTVS_TAUTO_COUNT>
1

> <PUBCHEM_CONFORMER_ID>
047E054E00000001

> <PUBCHEM_MMFF94_ENERGY>
57.9887

> <PUBCHEM_FEATURE_SELFOVERLAP>
35.522

> <PUBCHEM_SHAPE_FINGERPRINT>
10062212 137 17676486103639853953
11471102 22 16630243606859179228
11578080 2 17241860204084586332
11796584 16 18123756357584336134
12202030 40 18131641096862940981
12346177 29 18335133164186927493
12363563 72 18341055206749425619
13296908 3 18131636664103237648
13693222 15 16200147655990497008
14115302 16 18260831471127565637
14252887 29 17346884450841100650
14289901 80 15410610329137055954
14341114 328 13542459882258980858
14386348 63 18060419097091244991
15375358 24 17774432789706882933
16752209 62 18114174255376271899
17834072 14 18131346375969725620
19107657 162 18130790040255234798
19433438 15 17095807611678704629
19862831 5 16732701666396548265
20279233 1 18060416893804859093
20281475 54 18271538553918407153
20374829 77 18409725205910756907
20403669 9 18341613767468297119
204376 136 16342837959181298416
20626108 58 18040990756935963346
20645477 70 16558182683810394068
20671657 53 18040432230561739925
21728266 224 18261096461692636539
23557571 272 18342451539314590409
23559900 14 18270681936045379894
23598291 2 17240482485553740845
3082319 5 17313392235484129941
4028521 119 12107780822369084423
458136 41 15482674589602557012
5352402 22 17346609598677768639
573450 72 18114171995706451056
59027123 10 16443340953599795855
633830 44 13542459917003770040
74978 22 16443642262762106144
81228 2 17629498405344593472
9709674 26 18059010575340751420
9882013 296 14908173132122053924
9971528 1 16370721505510967264

> <PUBCHEM_SHAPE_MULTIPOLES>
327.26
8.99
1.88
1.42
0.13
0.27
0.39
4.74
-0.47
-2.33
0.03
1.74
0.08
0.58

> <PUBCHEM_SHAPE_SELFOVERLAP>
672.385

> <PUBCHEM_SHAPE_VOLUME>
187

> <PUBCHEM_COORDINATE_TYPE>
2
5
10

$$$$
