71693481
  -OEChem-12032416233D

 49 50  0     1  0  0  0  0  0999 V2000
   -5.9598   -1.2055    0.0121 S   0  0  0  0  0  0  0  0  0  0  0  0
    0.5752    2.5450   -0.0052 O   0  0  0  0  0  0  0  0  0  0  0  0
    1.3735   -1.2969   -1.3363 O   0  0  0  0  0  0  0  0  0  0  0  0
    4.1267    2.4426    0.2587 O   0  0  0  0  0  0  0  0  0  0  0  0
    4.0217   -0.6811   -1.3422 O   0  0  0  0  0  0  0  0  0  0  0  0
   -7.4078   -1.1291   -0.0422 O   0  0  0  0  0  0  0  0  0  0  0  0
   -5.2206   -1.9182   -1.0111 O   0  0  0  0  0  0  0  0  0  0  0  0
    2.5954    0.6951    0.4435 N   0  0  0  0  0  0  0  0  0  0  0  0
    5.2733   -1.8740    0.2044 N   0  0  0  0  0  0  0  0  0  0  0  0
   -5.3383    0.3866    0.2245 N   0  0  0  0  0  0  0  0  0  0  0  0
    1.1754    0.2662    0.4598 C   0  0  1  0  0  0  0  0  0  0  0  0
    0.3013    1.2000   -0.3997 C   0  0  1  0  0  0  0  0  0  0  0  0
    0.9974   -1.1947    0.0218 C   0  0  0  0  0  0  0  0  0  0  0  0
   -1.1886    0.9841   -0.2344 C   0  0  0  0  0  0  0  0  0  0  0  0
    2.9769    2.0083    0.1617 C   0  0  0  0  0  0  0  0  0  0  0  0
    3.5975   -0.2258    0.9727 C   0  0  0  0  0  0  0  0  0  0  0  0
    1.8838    2.9160   -0.3665 C   0  0  0  0  0  0  0  0  0  0  0  0
   -1.7695    1.0665    1.0311 C   0  0  0  0  0  0  0  0  0  0  0  0
   -1.9802    0.7037   -1.3482 C   0  0  0  0  0  0  0  0  0  0  0  0
    4.3049   -0.9353   -0.1685 C   0  0  0  0  0  0  0  0  0  0  0  0
   -3.1418    0.8687    1.1827 C   0  0  0  0  0  0  0  0  0  0  0  0
   -3.3524    0.5059   -1.1967 C   0  0  0  0  0  0  0  0  0  0  0  0
   -3.9334    0.5885    0.0689 C   0  0  0  0  0  0  0  0  0  0  0  0
    5.5902   -2.1569    1.5988 C   0  0  0  0  0  0  0  0  0  0  0  0
    6.0386   -2.6404   -0.7760 C   0  0  0  0  0  0  0  0  0  0  0  0
   -5.5395   -1.9194    1.5863 C   0  0  0  0  0  0  0  0  0  0  0  0
    0.8883    0.3480    1.5156 H   0  0  0  0  0  0  0  0  0  0  0  0
    0.5617    1.1012   -1.4626 H   0  0  0  0  0  0  0  0  0  0  0  0
   -0.0478   -1.5072    0.1154 H   0  0  0  0  0  0  0  0  0  0  0  0
    1.5919   -1.8990    0.6084 H   0  0  0  0  0  0  0  0  0  0  0  0
    3.1308   -0.9253    1.6702 H   0  0  0  0  0  0  0  0  0  0  0  0
    4.3443    0.3606    1.5201 H   0  0  0  0  0  0  0  0  0  0  0  0
    2.0600    3.9218    0.0287 H   0  0  0  0  0  0  0  0  0  0  0  0
    1.9696    2.9665   -1.4581 H   0  0  0  0  0  0  0  0  0  0  0  0
   -1.1736    1.2951    1.9101 H   0  0  0  0  0  0  0  0  0  0  0  0
   -1.5424    0.6384   -2.3406 H   0  0  0  0  0  0  0  0  0  0  0  0
   -3.5840    0.9368    2.1733 H   0  0  0  0  0  0  0  0  0  0  0  0
   -3.9576    0.3009   -2.0759 H   0  0  0  0  0  0  0  0  0  0  0  0
    1.2419   -2.2225   -1.6030 H   0  0  0  0  0  0  0  0  0  0  0  0
   -5.7517    0.9160    1.0040 H   0  0  0  0  0  0  0  0  0  0  0  0
    6.6741   -2.0782    1.7314 H   0  0  0  0  0  0  0  0  0  0  0  0
    5.1179   -1.4924    2.3201 H   0  0  0  0  0  0  0  0  0  0  0  0
    5.2800   -3.1835    1.8170 H   0  0  0  0  0  0  0  0  0  0  0  0
    5.7325   -2.3897   -1.7947 H   0  0  0  0  0  0  0  0  0  0  0  0
    5.8682   -3.7066   -0.6020 H   0  0  0  0  0  0  0  0  0  0  0  0
    7.1007   -2.4096   -0.6543 H   0  0  0  0  0  0  0  0  0  0  0  0
   -5.9453   -2.9332    1.6136 H   0  0  0  0  0  0  0  0  0  0  0  0
   -4.4538   -1.9569    1.6880 H   0  0  0  0  0  0  0  0  0  0  0  0
   -5.9900   -1.3210    2.3804 H   0  0  0  0  0  0  0  0  0  0  0  0
  1  6  2  0  0  0  0
  1  7  2  0  0  0  0
  1 10  1  0  0  0  0
  1 26  1  0  0  0  0
  2 12  1  0  0  0  0
  2 17  1  0  0  0  0
  3 13  1  0  0  0  0
  3 39  1  0  0  0  0
  4 15  2  0  0  0  0
  5 20  2  0  0  0  0
  8 11  1  0  0  0  0
  8 15  1  0  0  0  0
  8 16  1  0  0  0  0
  9 20  1  0  0  0  0
  9 24  1  0  0  0  0
  9 25  1  0  0  0  0
 10 23  1  0  0  0  0
 10 40  1  0  0  0  0
 11 12  1  0  0  0  0
 11 13  1  0  0  0  0
 11 27  1  0  0  0  0
 12 14  1  0  0  0  0
 12 28  1  0  0  0  0
 13 29  1  0  0  0  0
 13 30  1  0  0  0  0
 14 18  2  0  0  0  0
 14 19  1  0  0  0  0
 15 17  1  0  0  0  0
 16 20  1  0  0  0  0
 16 31  1  0  0  0  0
 16 32  1  0  0  0  0
 17 33  1  0  0  0  0
 17 34  1  0  0  0  0
 18 21  1  0  0  0  0
 18 35  1  0  0  0  0
 19 22  2  0  0  0  0
 19 36  1  0  0  0  0
 21 23  2  0  0  0  0
 21 37  1  0  0  0  0
 22 23  1  0  0  0  0
 22 38  1  0  0  0  0
 24 41  1  0  0  0  0
 24 42  1  0  0  0  0
 24 43  1  0  0  0  0
 25 44  1  0  0  0  0
 25 45  1  0  0  0  0
 25 46  1  0  0  0  0
 26 47  1  0  0  0  0
 26 48  1  0  0  0  0
 26 49  1  0  0  0  0
M  END
> <PUBCHEM_COMPOUND_CID>
71693481

> <PUBCHEM_CONFORMER_RMSD>
0.8

> <PUBCHEM_CONFORMER_DIVERSEORDER>
1
77
63
136
144
57
223
235
137
154
225
61
121
172
197
226
133
120
81
183
78
240
39
178
149
130
231
220
181
230
22
75
99
146
236
98
76
239
162
10
124
45
79
109
96
54
91
86
207
189
173
152
161
21
101
102
210
203
82
88
151
237
234
42
31
28
110
219
212
93
218
233
188
19
150
47
135
97
59
26
139
156
83
122
87
167
36
204
53
216
166
62
84
194
2
118
208
7
89
134
213
112
192
56
123
221
67
72
69
18
202
198
209
141
116
44
48
58
186
196
15
174
68
126
148
229
66
70
214
177
111
241
24
8
37
80
138
125
40
182
179
27
201
175
5
215
74
158
34
143
206
131
104
132
50
113
171
127
46
25
92
6
29
205
224
190
200
85
227
20
155
71
51
114
23
115
108
117
12
55
238
60
217
153
232
169
119
90
187
106
65
13
180
73
184
176
140
17
41
195
165
145
142
43
9
191
164
100
159
185
107
33
30
157
16
170
193
199
35
160
168
163
147
38
49
228
4
129
64
95
32
211
105
3
52
103
128
222
11
14
94

> <PUBCHEM_MMFF94_PARTIAL_CHARGES>
32
1 1.33
10 -0.76
11 0.3
12 0.42
13 0.28
14 -0.14
15 0.57
16 0.36
17 0.34
18 -0.15
19 -0.15
2 -0.56
20 0.57
21 -0.15
22 -0.15
23 0.2
24 0.3
25 0.3
26 0.11
3 -0.68
35 0.15
36 0.15
37 0.15
38 0.15
39 0.4
4 -0.57
40 0.42
5 -0.57
6 -0.65
7 -0.65
8 -0.66
9 -0.66

> <PUBCHEM_EFFECTIVE_ROTOR_COUNT>
8

> <PUBCHEM_PHARMACOPHORE_FEATURES>
10
1 10 donor
1 2 acceptor
1 3 acceptor
1 3 donor
1 4 acceptor
1 5 acceptor
1 6 acceptor
1 7 acceptor
6 14 18 19 21 22 23 rings
6 2 8 11 12 15 17 rings

> <PUBCHEM_HEAVY_ATOM_COUNT>
26

> <PUBCHEM_ATOM_DEF_STEREO_COUNT>
2

> <PUBCHEM_ATOM_UDEF_STEREO_COUNT>
0

> <PUBCHEM_BOND_DEF_STEREO_COUNT>
0

> <PUBCHEM_BOND_UDEF_STEREO_COUNT>
0

> <PUBCHEM_ISOTOPIC_ATOM_COUNT>
0

> <PUBCHEM_COMPONENT_COUNT>
1

> <PUBCHEM_CACTVS_TAUTO_COUNT>
2

> <PUBCHEM_CONFORMER_ID>
0445F4A900000001

> <PUBCHEM_MMFF94_ENERGY>
76.2138

> <PUBCHEM_FEATURE_SELFOVERLAP>
50.773

> <PUBCHEM_SHAPE_FINGERPRINT>
10 15 13039183732387038107
10366900 7 17240767254775882985
12107183 9 18197787600716537817
12166972 35 17968101893457941286
12236239 1 18131634495693756273
12422481 6 17489307455872031631
12616971 3 17989478632705675853
13009979 54 18059861623432681848
13533116 47 18342738558814414465
13540713 4 18191565511760151308
13685833 64 18410011018150062090
13782708 43 17967812734521331451
13862211 1 18335137532374668730
13955234 65 18269832180935019472
14123256 34 18340492179555528566
14251764 30 18339364037834104022
14294032 229 15286742601507595285
14341114 176 18341051899772248693
14739800 52 16772935039368521632
14955137 171 18273495650213918464
15188451 53 17988920064003862131
17349148 13 18272092699141230011
17844677 252 18412267229328203065
17980427 23 13541879335682331657
1813 80 18270971124794404060
18222031 100 18409729526362825432
19377110 9 17489590094742603408
19784866 240 18409452475244646917
20028762 73 18272650147068413951
20554085 129 12108082132158714604
20645477 70 18334853943852152472
21033650 10 15936681568053164573
21267235 1 18342179942403645926
21344244 78 17775559836665705504
21682296 61 18412549777803975711
22393880 68 17968365763395418549
23522609 53 18045815357803238901
23559900 14 16153721932758860716
25122255 55 18261398866588565947
2838139 119 9078299711887689723
34797466 226 16443352004498173892
465052 167 18341614793996811294
5104073 3 18273498966081977361
5718773 13 18260542282326548146
636775 8 18196097643382803166
7495541 125 18334017185570135870
7970288 3 18265612091988107258
8863177 126 18260833734469887803

> <PUBCHEM_SHAPE_MULTIPOLES>
488.76
15.9
2.88
1.28
10.01
0.42
-0.04
-13.88
-1.22
-3.1
-0.11
0.09
-0.45
0.36

> <PUBCHEM_SHAPE_SELFOVERLAP>
997.769

> <PUBCHEM_SHAPE_VOLUME>
284.8

> <PUBCHEM_COORDINATE_TYPE>
2
5
10

$$$$
