45361509
  -OEChem-12032416353D

 73 75  0     1  0  0  0  0  0999 V2000
   -0.5915   -2.2061   -1.7205 O   0  0  0  0  0  0  0  0  0  0  0  0
    4.2626   -2.6315    0.4766 O   0  0  0  0  0  0  0  0  0  0  0  0
   -5.9199    2.0252   -0.6519 O   0  0  0  0  0  0  0  0  0  0  0  0
   -8.4957    1.2485   -0.5563 O   0  0  0  0  0  0  0  0  0  0  0  0
    3.9372    1.9758   -1.8973 O   0  0  0  0  0  0  0  0  0  0  0  0
   -5.1745   -0.0198    0.1658 N   0  0  0  0  0  0  0  0  0  0  0  0
    3.7806   -1.1757   -1.2636 N   0  0  0  0  0  0  0  0  0  0  0  0
   -1.0463   -0.0376    1.3885 C   0  0  1  0  0  0  0  0  0  0  0  0
   -1.3743   -0.6513   -0.0132 C   0  0  2  0  0  0  0  0  0  0  0  0
   -2.9042   -0.9879   -0.1320 C   0  0  1  0  0  0  0  0  0  0  0  0
   -0.4045   -1.8179   -0.3588 C   0  0  2  0  0  0  0  0  0  0  0  0
    0.4409    0.3858    1.4312 C   0  0  0  0  0  0  0  0  0  0  0  0
   -1.9033    1.2326    1.5958 C   0  0  0  0  0  0  0  0  0  0  0  0
    1.0823   -1.4180   -0.2134 C   0  0  1  0  0  0  0  0  0  0  0  0
   -3.7581    0.2797    0.1524 C   0  0  2  0  0  0  0  0  0  0  0  0
    1.3948   -0.7632    1.1321 C   0  0  0  0  0  0  0  0  0  0  0  0
   -3.3974    0.9732    1.4659 C   0  0  0  0  0  0  0  0  0  0  0  0
   -1.3150   -1.0293    2.5488 C   0  0  0  0  0  0  0  0  0  0  0  0
    2.0171   -2.6143   -0.4304 C   0  0  2  0  0  0  0  0  0  0  0  0
   -3.3024   -1.5697   -1.4989 C   0  0  0  0  0  0  0  0  0  0  0  0
    1.7107   -3.7106    0.5840 C   0  0  0  0  0  0  0  0  0  0  0  0
    3.4709   -2.1615   -0.3378 C   0  0  0  0  0  0  0  0  0  0  0  0
   -6.1368    0.8883   -0.2414 C   0  0  0  0  0  0  0  0  0  0  0  0
   -7.5317    0.3121   -0.1241 C   0  0  0  0  0  0  0  0  0  0  0  0
    5.0956   -0.5870   -1.3677 C   0  0  0  0  0  0  0  0  0  0  0  0
    5.2574    0.5919   -0.4522 C   0  0  0  0  0  0  0  0  0  0  0  0
   -9.8199    0.7322   -0.4568 C   0  0  0  0  0  0  0  0  0  0  0  0
    4.6703    1.8192   -0.7595 C   0  0  0  0  0  0  0  0  0  0  0  0
    6.0054    0.4498    0.7166 C   0  0  0  0  0  0  0  0  0  0  0  0
    4.8311    2.9045    0.1018 C   0  0  0  0  0  0  0  0  0  0  0  0
    6.1663    1.5351    1.5781 C   0  0  0  0  0  0  0  0  0  0  0  0
    5.5791    2.7625    1.2706 C   0  0  0  0  0  0  0  0  0  0  0  0
    3.3735    3.2647   -2.1321 C   0  0  0  0  0  0  0  0  0  0  0  0
   -1.1883    0.1310   -0.7667 H   0  0  0  0  0  0  0  0  0  0  0  0
   -3.1572   -1.7544    0.6114 H   0  0  0  0  0  0  0  0  0  0  0  0
   -0.6760   -2.6723    0.2634 H   0  0  0  0  0  0  0  0  0  0  0  0
    0.6190    1.1858    0.6997 H   0  0  0  0  0  0  0  0  0  0  0  0
    0.6874    0.8101    2.4130 H   0  0  0  0  0  0  0  0  0  0  0  0
   -1.7007    1.6712    2.5812 H   0  0  0  0  0  0  0  0  0  0  0  0
   -1.6187    1.9940    0.8571 H   0  0  0  0  0  0  0  0  0  0  0  0
    1.2777   -0.6677   -0.9912 H   0  0  0  0  0  0  0  0  0  0  0  0
   -3.5797    0.9964   -0.6614 H   0  0  0  0  0  0  0  0  0  0  0  0
    1.3515   -1.4681    1.9649 H   0  0  0  0  0  0  0  0  0  0  0  0
    2.4108   -0.3518    1.1389 H   0  0  0  0  0  0  0  0  0  0  0  0
   -3.7522    0.3793    2.3170 H   0  0  0  0  0  0  0  0  0  0  0  0
   -3.9295    1.9306    1.5386 H   0  0  0  0  0  0  0  0  0  0  0  0
   -1.0304   -0.5840    3.5094 H   0  0  0  0  0  0  0  0  0  0  0  0
   -0.7514   -1.9604    2.4431 H   0  0  0  0  0  0  0  0  0  0  0  0
   -2.3675   -1.3128    2.6297 H   0  0  0  0  0  0  0  0  0  0  0  0
    1.8765   -3.0250   -1.4385 H   0  0  0  0  0  0  0  0  0  0  0  0
   -2.9364   -0.9438   -2.3193 H   0  0  0  0  0  0  0  0  0  0  0  0
   -4.3886   -1.6550   -1.6067 H   0  0  0  0  0  0  0  0  0  0  0  0
   -2.9172   -2.5857   -1.6229 H   0  0  0  0  0  0  0  0  0  0  0  0
   -5.4699   -0.9129    0.5502 H   0  0  0  0  0  0  0  0  0  0  0  0
   -0.4070   -1.4348   -2.2831 H   0  0  0  0  0  0  0  0  0  0  0  0
    1.8494   -3.4103    1.6251 H   0  0  0  0  0  0  0  0  0  0  0  0
    2.4048   -4.5469    0.4276 H   0  0  0  0  0  0  0  0  0  0  0  0
    0.7130   -4.1390    0.4659 H   0  0  0  0  0  0  0  0  0  0  0  0
    3.0840   -0.8777   -1.9388 H   0  0  0  0  0  0  0  0  0  0  0  0
   -7.7111    0.0492    0.9250 H   0  0  0  0  0  0  0  0  0  0  0  0
   -7.5868   -0.5922   -0.7413 H   0  0  0  0  0  0  0  0  0  0  0  0
    5.8479   -1.3552   -1.1529 H   0  0  0  0  0  0  0  0  0  0  0  0
    5.2462   -0.2837   -2.4100 H   0  0  0  0  0  0  0  0  0  0  0  0
  -10.0575    0.4884    0.5831 H   0  0  0  0  0  0  0  0  0  0  0  0
  -10.5151    1.5009   -0.8044 H   0  0  0  0  0  0  0  0  0  0  0  0
   -9.9325   -0.1543   -1.0884 H   0  0  0  0  0  0  0  0  0  0  0  0
    6.4677   -0.5003    0.9708 H   0  0  0  0  0  0  0  0  0  0  0  0
    4.4051    3.8868   -0.0704 H   0  0  0  0  0  0  0  0  0  0  0  0
    6.7481    1.4244    2.4884 H   0  0  0  0  0  0  0  0  0  0  0  0
    5.7048    3.6067    1.9424 H   0  0  0  0  0  0  0  0  0  0  0  0
    2.8250    3.2082   -3.0782 H   0  0  0  0  0  0  0  0  0  0  0  0
    4.1487    4.0279   -2.2601 H   0  0  0  0  0  0  0  0  0  0  0  0
    2.6451    3.5336   -1.3594 H   0  0  0  0  0  0  0  0  0  0  0  0
  1 11  1  0  0  0  0
  1 55  1  0  0  0  0
  2 22  2  0  0  0  0
  3 23  2  0  0  0  0
  4 24  1  0  0  0  0
  4 27  1  0  0  0  0
  5 28  1  0  0  0  0
  5 33  1  0  0  0  0
  6 15  1  0  0  0  0
  6 23  1  0  0  0  0
  6 54  1  0  0  0  0
  7 22  1  0  0  0  0
  7 25  1  0  0  0  0
  7 59  1  0  0  0  0
  8  9  1  0  0  0  0
  8 12  1  0  0  0  0
  8 13  1  0  0  0  0
  8 18  1  0  0  0  0
  9 10  1  0  0  0  0
  9 11  1  0  0  0  0
  9 34  1  0  0  0  0
 10 15  1  0  0  0  0
 10 20  1  0  0  0  0
 10 35  1  0  0  0  0
 11 14  1  0  0  0  0
 11 36  1  0  0  0  0
 12 16  1  0  0  0  0
 12 37  1  0  0  0  0
 12 38  1  0  0  0  0
 13 17  1  0  0  0  0
 13 39  1  0  0  0  0
 13 40  1  0  0  0  0
 14 16  1  0  0  0  0
 14 19  1  0  0  0  0
 14 41  1  0  0  0  0
 15 17  1  0  0  0  0
 15 42  1  0  0  0  0
 16 43  1  0  0  0  0
 16 44  1  0  0  0  0
 17 45  1  0  0  0  0
 17 46  1  0  0  0  0
 18 47  1  0  0  0  0
 18 48  1  0  0  0  0
 18 49  1  0  0  0  0
 19 21  1  0  0  0  0
 19 22  1  0  0  0  0
 19 50  1  0  0  0  0
 20 51  1  0  0  0  0
 20 52  1  0  0  0  0
 20 53  1  0  0  0  0
 21 56  1  0  0  0  0
 21 57  1  0  0  0  0
 21 58  1  0  0  0  0
 23 24  1  0  0  0  0
 24 60  1  0  0  0  0
 24 61  1  0  0  0  0
 25 26  1  0  0  0  0
 25 62  1  0  0  0  0
 25 63  1  0  0  0  0
 26 28  1  0  0  0  0
 26 29  2  0  0  0  0
 27 64  1  0  0  0  0
 27 65  1  0  0  0  0
 27 66  1  0  0  0  0
 28 30  2  0  0  0  0
 29 31  1  0  0  0  0
 29 67  1  0  0  0  0
 30 32  1  0  0  0  0
 30 68  1  0  0  0  0
 31 32  2  0  0  0  0
 31 69  1  0  0  0  0
 32 70  1  0  0  0  0
 33 71  1  0  0  0  0
 33 72  1  0  0  0  0
 33 73  1  0  0  0  0
M  END
> <PUBCHEM_COMPOUND_CID>
45361509

> <PUBCHEM_CONFORMER_RMSD>
1

> <PUBCHEM_CONFORMER_DIVERSEORDER>
1
45
42
35
21
24
75
95
123
67
62
36
101
112
83
122
30
82
105
103
127
107
60
59
55
20
111
72
78
74
40
94
51
104
119
2
43
89
106
65
53
44
97
93
109
54
34
3
129
70
52
57
4
113
84
117
6
32
66
99
124
61
86
12
14
118
7
96
37
85
79
100
17
121
28
18
47
64
31
39
128
91
80
116
10
69
33
19
46
88
11
41
63
77
58
48
5
114
76
115
27
22
126
125
38
68
25
49
50
73
15
120
23
102
98
13
90
29
108
8
26
110
71
81
87
92
56
16
9

> <PUBCHEM_MMFF94_PARTIAL_CHARGES>
29
1 -0.68
11 0.28
15 0.3
19 0.06
2 -0.57
22 0.57
23 0.57
24 0.34
25 0.44
26 -0.14
27 0.28
28 0.08
29 -0.15
3 -0.57
30 -0.15
31 -0.15
32 -0.15
33 0.28
4 -0.56
5 -0.36
54 0.37
55 0.4
59 0.37
6 -0.73
67 0.15
68 0.15
69 0.15
7 -0.73
70 0.15

> <PUBCHEM_EFFECTIVE_ROTOR_COUNT>
11.6

> <PUBCHEM_PHARMACOPHORE_FEATURES>
12
1 1 acceptor
1 1 donor
1 2 acceptor
1 21 hydrophobe
1 3 acceptor
1 4 acceptor
1 5 acceptor
1 6 donor
1 7 donor
6 26 28 29 30 31 32 rings
6 8 9 10 13 15 17 rings
6 8 9 11 12 14 16 rings

> <PUBCHEM_HEAVY_ATOM_COUNT>
33

> <PUBCHEM_ATOM_DEF_STEREO_COUNT>
6

> <PUBCHEM_ATOM_UDEF_STEREO_COUNT>
1

> <PUBCHEM_BOND_DEF_STEREO_COUNT>
0

> <PUBCHEM_BOND_UDEF_STEREO_COUNT>
0

> <PUBCHEM_ISOTOPIC_ATOM_COUNT>
0

> <PUBCHEM_COMPONENT_COUNT>
1

> <PUBCHEM_CACTVS_TAUTO_COUNT>
4

> <PUBCHEM_CONFORMER_ID>
02B4296500000001

> <PUBCHEM_MMFF94_ENERGY>
100.7253

> <PUBCHEM_FEATURE_SELFOVERLAP>
60.919

> <PUBCHEM_SHAPE_FINGERPRINT>
10673678 19 18343585139960553863
10692045 39 14924216097577058976
11007060 377 18410864248707488043
11135609 187 18128532863427864832
11211813 74 18341609296755586177
12422481 6 17894345592610181828
12633257 1 16805886303372325400
13150687 139 17775013397183326014
13583140 156 17168987966893932098
13617811 41 18202558488632268385
14117953 113 18409455791350082484
14790565 3 17487641644311230817
15082195 135 18201159858212048922
15183329 4 17917719015030557689
15840311 113 18412545392726464351
19319366 153 18343579616469730319
20157964 124 18410294687728434306
20511986 3 18130498712765998396
20578428 11 14979657936768919178
20715895 44 18411135874986578064
21033648 29 16732996343981413978
21049683 118 18187074096875547946
21298829 104 18338514252848168212
23522609 53 17274281460813718385
23559900 14 17969239879730412994
23569914 2 17391024306542427949
25269216 80 16342562020348887389
3044373 193 17821732723334623055
34797466 226 17632300046897178007
4149490 64 18334294245358260667
44317340 157 18342462546967623270
474 4 18335994142327420730
5372103 7 14978809165959592698

> <PUBCHEM_SHAPE_MULTIPOLES>
639.82
20.35
3.48
1.83
39.23
0.63
0.2
-15.31
-3.69
-5.33
-0.73
-1.16
-0.49
0

> <PUBCHEM_SHAPE_SELFOVERLAP>
1323.525

> <PUBCHEM_SHAPE_VOLUME>
362.9

> <PUBCHEM_COORDINATE_TYPE>
2
5
10

$$$$
