71693889
  -OEChem-12032416273D

 48 50  0     1  0  0  0  0  0999 V2000
   -6.8895    0.5293    0.3020 F   0  0  0  0  0  0  0  0  0  0  0  0
   -6.4491   -1.3184    1.3486 F   0  0  0  0  0  0  0  0  0  0  0  0
   -6.7334   -1.3344   -0.8070 F   0  0  0  0  0  0  0  0  0  0  0  0
    1.2777    3.9390   -1.2486 O   0  0  0  0  0  0  0  0  0  0  0  0
    3.8788    3.1554   -0.8485 O   0  0  0  0  0  0  0  0  0  0  0  0
    0.1159   -0.5257   -1.2948 O   0  0  0  0  0  0  0  0  0  0  0  0
    4.4194   -3.9037   -0.0452 O   0  0  0  0  0  0  0  0  0  0  0  0
    0.0081    1.3963   -0.0009 N   0  0  0  0  0  0  0  0  0  0  0  0
    2.2531    1.2188    1.0302 C   0  0  2  0  0  0  0  0  0  0  0  0
    1.3943    1.7675   -0.1315 C   0  0  2  0  0  0  0  0  0  0  0  0
    1.5914    3.2797   -0.0364 C   0  0  1  0  0  0  0  0  0  0  0  0
    3.3128    2.3118    1.3249 C   0  0  0  0  0  0  0  0  0  0  0  0
    3.0724    3.4151    0.2965 C   0  0  1  0  0  0  0  0  0  0  0  0
    2.8323   -0.1504    0.7433 C   0  0  0  0  0  0  0  0  0  0  0  0
    2.5210   -1.2277    1.5730 C   0  0  0  0  0  0  0  0  0  0  0  0
    3.6770   -0.3346   -0.3513 C   0  0  0  0  0  0  0  0  0  0  0  0
   -0.5225    0.2632   -0.6030 C   0  0  0  0  0  0  0  0  0  0  0  0
    3.0546   -2.4889    1.3082 C   0  0  0  0  0  0  0  0  0  0  0  0
    4.2106   -1.5957   -0.6161 C   0  0  0  0  0  0  0  0  0  0  0  0
   -1.9754    0.0342   -0.3939 C   0  0  0  0  0  0  0  0  0  0  0  0
    3.8995   -2.6729    0.2136 C   0  0  0  0  0  0  0  0  0  0  0  0
   -2.7130   -0.6775   -1.3400 C   0  0  0  0  0  0  0  0  0  0  0  0
   -2.6020    0.5316    0.7486 C   0  0  0  0  0  0  0  0  0  0  0  0
   -4.0772   -0.8916   -1.1437 C   0  0  0  0  0  0  0  0  0  0  0  0
   -3.9663    0.3177    0.9451 C   0  0  0  0  0  0  0  0  0  0  0  0
   -4.7038   -0.3940   -0.0011 C   0  0  0  0  0  0  0  0  0  0  0  0
    5.2758   -4.0210   -1.1805 C   0  0  0  0  0  0  0  0  0  0  0  0
   -6.1627   -0.6232    0.2085 C   0  0  0  0  0  0  0  0  0  0  0  0
    1.6234    1.1409    1.9288 H   0  0  0  0  0  0  0  0  0  0  0  0
    1.7391    1.4175   -1.1123 H   0  0  0  0  0  0  0  0  0  0  0  0
    0.9761    3.7063    0.7658 H   0  0  0  0  0  0  0  0  0  0  0  0
    3.1269    2.7103    2.3302 H   0  0  0  0  0  0  0  0  0  0  0  0
    4.3401    1.9326    1.3041 H   0  0  0  0  0  0  0  0  0  0  0  0
    3.3256    4.4125    0.6680 H   0  0  0  0  0  0  0  0  0  0  0  0
   -0.5846    2.0177    0.5384 H   0  0  0  0  0  0  0  0  0  0  0  0
    1.5165    4.8755   -1.1418 H   0  0  0  0  0  0  0  0  0  0  0  0
    4.8087    3.2162   -0.5707 H   0  0  0  0  0  0  0  0  0  0  0  0
    1.8636   -1.1010    2.4288 H   0  0  0  0  0  0  0  0  0  0  0  0
    3.9360    0.4892   -1.0090 H   0  0  0  0  0  0  0  0  0  0  0  0
    2.8082   -3.3244    1.9577 H   0  0  0  0  0  0  0  0  0  0  0  0
    4.8598   -1.6682   -1.4821 H   0  0  0  0  0  0  0  0  0  0  0  0
   -2.2437   -1.0690   -2.2387 H   0  0  0  0  0  0  0  0  0  0  0  0
   -2.0604    1.0612    1.5266 H   0  0  0  0  0  0  0  0  0  0  0  0
   -4.6339   -1.4475   -1.8931 H   0  0  0  0  0  0  0  0  0  0  0  0
   -4.4449    0.7026    1.8418 H   0  0  0  0  0  0  0  0  0  0  0  0
    5.5980   -5.0661   -1.2356 H   0  0  0  0  0  0  0  0  0  0  0  0
    6.1800   -3.4134   -1.0670 H   0  0  0  0  0  0  0  0  0  0  0  0
    4.7422   -3.8015   -2.1115 H   0  0  0  0  0  0  0  0  0  0  0  0
  1 28  1  0  0  0  0
  2 28  1  0  0  0  0
  3 28  1  0  0  0  0
  4 11  1  0  0  0  0
  4 36  1  0  0  0  0
  5 13  1  0  0  0  0
  5 37  1  0  0  0  0
  6 17  2  0  0  0  0
  7 21  1  0  0  0  0
  7 27  1  0  0  0  0
  8 10  1  0  0  0  0
  8 17  1  0  0  0  0
  8 35  1  0  0  0  0
  9 10  1  0  0  0  0
  9 12  1  0  0  0  0
  9 14  1  0  0  0  0
  9 29  1  0  0  0  0
 10 11  1  0  0  0  0
 10 30  1  0  0  0  0
 11 13  1  0  0  0  0
 11 31  1  0  0  0  0
 12 13  1  0  0  0  0
 12 32  1  0  0  0  0
 12 33  1  0  0  0  0
 13 34  1  0  0  0  0
 14 15  2  0  0  0  0
 14 16  1  0  0  0  0
 15 18  1  0  0  0  0
 15 38  1  0  0  0  0
 16 19  2  0  0  0  0
 16 39  1  0  0  0  0
 17 20  1  0  0  0  0
 18 21  2  0  0  0  0
 18 40  1  0  0  0  0
 19 21  1  0  0  0  0
 19 41  1  0  0  0  0
 20 22  2  0  0  0  0
 20 23  1  0  0  0  0
 22 24  1  0  0  0  0
 22 42  1  0  0  0  0
 23 25  2  0  0  0  0
 23 43  1  0  0  0  0
 24 26  2  0  0  0  0
 24 44  1  0  0  0  0
 25 26  1  0  0  0  0
 25 45  1  0  0  0  0
 26 28  1  0  0  0  0
 27 46  1  0  0  0  0
 27 47  1  0  0  0  0
 27 48  1  0  0  0  0
M  END
> <PUBCHEM_COMPOUND_CID>
71693889

> <PUBCHEM_CONFORMER_RMSD>
0.8

> <PUBCHEM_CONFORMER_DIVERSEORDER>
1
14
8
13
17
11
3
10
16
6
12
2
4
7
15
5
9

> <PUBCHEM_MMFF94_PARTIAL_CHARGES>
38
1 -0.34
10 0.3
11 0.28
13 0.28
14 -0.14
15 -0.15
16 -0.15
17 0.54
18 -0.15
19 -0.15
2 -0.34
20 0.09
21 0.08
22 -0.15
23 -0.15
24 -0.15
25 -0.15
26 -0.14
27 0.28
28 1.16
3 -0.34
35 0.37
36 0.4
37 0.4
38 0.15
39 0.15
4 -0.68
40 0.15
41 0.15
42 0.15
43 0.15
44 0.15
45 0.15
5 -0.68
6 -0.57
7 -0.36
8 -0.73
9 0.14

> <PUBCHEM_EFFECTIVE_ROTOR_COUNT>
7

> <PUBCHEM_PHARMACOPHORE_FEATURES>
10
1 4 acceptor
1 4 donor
1 5 acceptor
1 5 donor
1 6 acceptor
1 7 acceptor
1 8 donor
5 9 10 11 12 13 rings
6 14 15 16 18 19 21 rings
6 20 22 23 24 25 26 rings

> <PUBCHEM_HEAVY_ATOM_COUNT>
28

> <PUBCHEM_ATOM_DEF_STEREO_COUNT>
4

> <PUBCHEM_ATOM_UDEF_STEREO_COUNT>
0

> <PUBCHEM_BOND_DEF_STEREO_COUNT>
0

> <PUBCHEM_BOND_UDEF_STEREO_COUNT>
0

> <PUBCHEM_ISOTOPIC_ATOM_COUNT>
0

> <PUBCHEM_COMPONENT_COUNT>
1

> <PUBCHEM_CACTVS_TAUTO_COUNT>
2

> <PUBCHEM_CONFORMER_ID>
0445F64100000001

> <PUBCHEM_MMFF94_ENERGY>
83.282

> <PUBCHEM_FEATURE_SELFOVERLAP>
50.758

> <PUBCHEM_SHAPE_FINGERPRINT>
10554248 39 18341598331798701029
11059845 2 16985483615996652211
114674 6 18114174242196094730
117089 54 18053675676299511462
11954058 11 18412827962519291798
12107183 9 18055361245294423673
12403259 327 15410313517122677830
12553582 1 18266729204460141514
13009979 54 17916872300892984608
13533116 47 18412544340591234771
13673619 4 18114466647611365647
13690498 29 18189898612875584486
13692114 37 17836070544535911282
13785724 45 18270687437276351334
13911852 28 18267585693415545687
13955234 65 18341891960889378136
14251764 30 18268150847019687598
14341114 176 18272088288384221675
14863182 85 18266167504690492992
15250474 111 18056744654113051479
15927050 60 18125441062489988230
17349148 13 17704067400505098509
17492 89 18412824677359446393
17818456 19 17988647333459877393
17844677 252 18408602565884137417
1813 80 18270405971285103670
1979834 28 18337661044477833536
20505436 4 17701540846885262804
20645477 70 18334287703789992337
20775438 99 18264476463516453490
21049683 271 18409735045949649788
21344244 78 18201423792442278713
21365058 113 18335995163922729398
21421861 104 18339631326359613344
22033318 11 17984734189278680081
22950370 63 18268153054785429782
23081809 10 17917710241213575317
23559900 14 18408885153077854627
239999 70 17968089871712805752
255183 451 18340772546330158126
3421961 26 18411696578360847880
345986 75 17988921124438869648
34797466 226 16660652885784441087
4073 2 18116997891552039659
4144715 1 18114466734592256529
4394409 98 14591828935571453566
4409770 3 17472136177018658324
4516262 110 18267858578900990693
46194498 28 17676207991759725588
465052 167 18343586209207210159
5104073 3 18130798888800663595
5309563 4 18267020544618333790
56633871 153 17845084069676560574
5912855 24 17913202341850130383
70251023 43 18337675205174295146
7970288 3 18267303119165012770
8272917 22 18263640821867677388
8509985 295 16917344848893279227
86090 222 17530689827015996755
9962374 69 18271514373427208343

> <PUBCHEM_SHAPE_MULTIPOLES>
525.95
14.32
4.56
1.34
26.17
1.1
-0.1
-10.81
-0.64
-10.33
0.95
-0.21
-0.21
0.26

> <PUBCHEM_SHAPE_SELFOVERLAP>
1133.885

> <PUBCHEM_SHAPE_VOLUME>
291.5

> <PUBCHEM_COORDINATE_TYPE>
2
5
10

$$$$
