45360868
  -OEChem-12032416183D

 60 63  0     1  0  0  0  0  0999 V2000
   -4.9509   -4.0115   -0.3652 Cl  0  0  0  0  0  0  0  0  0  0  0  0
   -0.6436   -0.7771   -1.1218 O   0  0  0  0  0  0  0  0  0  0  0  0
    5.7299    0.6798   -0.2953 O   0  0  0  0  0  0  0  0  0  0  0  0
    1.1447    2.1412    0.6879 N   0  0  1  0  0  0  0  0  0  0  0  0
   -2.2792    0.9933    0.0961 N   0  0  1  0  0  0  0  0  0  0  0  0
    0.8517    0.7957   -1.8473 N   0  0  0  0  0  0  0  0  0  0  0  0
    4.8608   -1.4079    0.1775 N   0  0  0  0  0  0  0  0  0  0  0  0
   -0.3148    2.3440    0.5529 C   0  0  1  0  0  0  0  0  0  0  0  0
   -1.0748    1.5491   -0.5492 C   0  0  1  0  0  0  0  0  0  0  0  0
   -1.1155    1.9833    1.8181 C   0  0  0  0  0  0  0  0  0  0  0  0
    1.9384    2.5665   -0.4988 C   0  0  2  0  0  0  0  0  0  0  0  0
   -2.5234    1.7819    1.2986 C   0  0  0  0  0  0  0  0  0  0  0  0
    1.3393    2.1607   -1.8596 C   0  0  0  0  0  0  0  0  0  0  0  0
   -0.2888    0.3996   -1.1748 C   0  0  0  0  0  0  0  0  0  0  0  0
    3.3666    1.9862   -0.4290 C   0  0  0  0  0  0  0  0  0  0  0  0
   -3.4413    0.9591   -0.7825 C   0  0  0  0  0  0  0  0  0  0  0  0
    1.6543    2.7971    1.9041 C   0  0  0  0  0  0  0  0  0  0  0  0
    3.3608    0.4999   -0.1287 C   0  0  0  0  0  0  0  0  0  0  0  0
   -4.4662   -0.0413   -0.3179 C   0  0  0  0  0  0  0  0  0  0  0  0
    4.7622   -0.0547   -0.0905 C   0  0  0  0  0  0  0  0  0  0  0  0
    6.1419   -2.0959    0.2422 C   0  0  0  0  0  0  0  0  0  0  0  0
    3.7581   -2.3296    0.4321 C   0  0  0  0  0  0  0  0  0  0  0  0
    5.8187   -3.4438    0.8681 C   0  0  0  0  0  0  0  0  0  0  0  0
    4.3985   -3.7096    0.3851 C   0  0  0  0  0  0  0  0  0  0  0  0
   -4.2578   -1.4038   -0.5312 C   0  0  0  0  0  0  0  0  0  0  0  0
   -5.6239    0.3949    0.3266 C   0  0  0  0  0  0  0  0  0  0  0  0
   -5.2071   -2.3306   -0.0999 C   0  0  0  0  0  0  0  0  0  0  0  0
   -6.5733   -0.5318    0.7576 C   0  0  0  0  0  0  0  0  0  0  0  0
   -6.3649   -1.8945    0.5446 C   0  0  0  0  0  0  0  0  0  0  0  0
   -0.4971    3.4132    0.3631 H   0  0  0  0  0  0  0  0  0  0  0  0
   -1.3655    2.2452   -1.3473 H   0  0  0  0  0  0  0  0  0  0  0  0
   -1.0816    2.7738    2.5750 H   0  0  0  0  0  0  0  0  0  0  0  0
   -0.7438    1.0532    2.2686 H   0  0  0  0  0  0  0  0  0  0  0  0
    2.0230    3.6621   -0.5119 H   0  0  0  0  0  0  0  0  0  0  0  0
   -2.9855    2.7521    1.0766 H   0  0  0  0  0  0  0  0  0  0  0  0
   -3.1412    1.2510    2.0292 H   0  0  0  0  0  0  0  0  0  0  0  0
    2.0789    2.2338   -2.6648 H   0  0  0  0  0  0  0  0  0  0  0  0
    0.5215    2.8338   -2.1360 H   0  0  0  0  0  0  0  0  0  0  0  0
    3.8956    2.1812   -1.3715 H   0  0  0  0  0  0  0  0  0  0  0  0
    3.9519    2.5170    0.3320 H   0  0  0  0  0  0  0  0  0  0  0  0
   -3.1427    0.6515   -1.7947 H   0  0  0  0  0  0  0  0  0  0  0  0
   -3.8896    1.9537   -0.9104 H   0  0  0  0  0  0  0  0  0  0  0  0
    1.3769    0.0886   -2.3522 H   0  0  0  0  0  0  0  0  0  0  0  0
    2.7241    2.6249    2.0509 H   0  0  0  0  0  0  0  0  0  0  0  0
    1.1891    2.3883    2.8066 H   0  0  0  0  0  0  0  0  0  0  0  0
    1.4822    3.8791    1.8825 H   0  0  0  0  0  0  0  0  0  0  0  0
    2.8467   -0.0636   -0.9044 H   0  0  0  0  0  0  0  0  0  0  0  0
    2.8938    0.2848    0.8377 H   0  0  0  0  0  0  0  0  0  0  0  0
    6.5121   -2.2065   -0.7830 H   0  0  0  0  0  0  0  0  0  0  0  0
    6.8679   -1.5160    0.8195 H   0  0  0  0  0  0  0  0  0  0  0  0
    3.3583   -2.1068    1.4273 H   0  0  0  0  0  0  0  0  0  0  0  0
    2.9617   -2.2158   -0.3078 H   0  0  0  0  0  0  0  0  0  0  0  0
    5.8285   -3.3628    1.9618 H   0  0  0  0  0  0  0  0  0  0  0  0
    6.5246   -4.2254    0.5748 H   0  0  0  0  0  0  0  0  0  0  0  0
    4.4221   -4.0777   -0.6478 H   0  0  0  0  0  0  0  0  0  0  0  0
    3.8670   -4.4421    0.9986 H   0  0  0  0  0  0  0  0  0  0  0  0
   -3.3561   -1.7430   -1.0356 H   0  0  0  0  0  0  0  0  0  0  0  0
   -5.7977    1.4534    0.5006 H   0  0  0  0  0  0  0  0  0  0  0  0
   -7.4746   -0.1923    1.2597 H   0  0  0  0  0  0  0  0  0  0  0  0
   -7.1133   -2.6051    0.8859 H   0  0  0  0  0  0  0  0  0  0  0  0
  1 27  1  0  0  0  0
  2 14  2  0  0  0  0
  3 20  2  0  0  0  0
  4  8  1  0  0  0  0
  4 11  1  0  0  0  0
  4 17  1  0  0  0  0
  5  9  1  0  0  0  0
  5 12  1  0  0  0  0
  5 16  1  0  0  0  0
  6 13  1  0  0  0  0
  6 14  1  0  0  0  0
  6 43  1  0  0  0  0
  7 20  1  0  0  0  0
  7 21  1  0  0  0  0
  7 22  1  0  0  0  0
  8  9  1  0  0  0  0
  8 10  1  0  0  0  0
  8 30  1  0  0  0  0
  9 14  1  0  0  0  0
  9 31  1  0  0  0  0
 10 12  1  0  0  0  0
 10 32  1  0  0  0  0
 10 33  1  0  0  0  0
 11 13  1  0  0  0  0
 11 15  1  0  0  0  0
 11 34  1  0  0  0  0
 12 35  1  0  0  0  0
 12 36  1  0  0  0  0
 13 37  1  0  0  0  0
 13 38  1  0  0  0  0
 15 18  1  0  0  0  0
 15 39  1  0  0  0  0
 15 40  1  0  0  0  0
 16 19  1  0  0  0  0
 16 41  1  0  0  0  0
 16 42  1  0  0  0  0
 17 44  1  0  0  0  0
 17 45  1  0  0  0  0
 17 46  1  0  0  0  0
 18 20  1  0  0  0  0
 18 47  1  0  0  0  0
 18 48  1  0  0  0  0
 19 25  2  0  0  0  0
 19 26  1  0  0  0  0
 21 23  1  0  0  0  0
 21 49  1  0  0  0  0
 21 50  1  0  0  0  0
 22 24  1  0  0  0  0
 22 51  1  0  0  0  0
 22 52  1  0  0  0  0
 23 24  1  0  0  0  0
 23 53  1  0  0  0  0
 23 54  1  0  0  0  0
 24 55  1  0  0  0  0
 24 56  1  0  0  0  0
 25 27  1  0  0  0  0
 25 57  1  0  0  0  0
 26 28  2  0  0  0  0
 26 58  1  0  0  0  0
 27 29  2  0  0  0  0
 28 29  1  0  0  0  0
 28 59  1  0  0  0  0
 29 60  1  0  0  0  0
M  END
> <PUBCHEM_COMPOUND_CID>
45360868

> <PUBCHEM_CONFORMER_RMSD>
1

> <PUBCHEM_CONFORMER_DIVERSEORDER>
1
133
114
56
110
161
206
10
64
170
22
84
91
67
193
71
173
136
152
43
178
83
106
187
49
185
112
53
151
3
44
212
182
201
169
25
179
192
111
103
194
196
165
195
205
77
171
211
153
181
2
108
209
155
11
214
149
5
164
75
85
58
38
92
63
47
130
107
208
104
162
154
86
57
46
118
183
33
166
186
174
97
12
94
109
198
188
73
131
139
65
184
200
189
191
82
190
175
69
158
210
125
30
98
121
122
199
45
168
4
142
116
180
163
78
113
137
66
134
13
28
14
60
41
177
145
203
39
172
21
156
72
101
8
79
26
15
36
207
89
29
9
176
120
129
96
202
215
124
7
90
140
132
23
160
48
213
40
197
16
204
34
167
115
138
52
61
81
144
159
93
32
143
141
19
157
17
70
126
87
76
24
95
80
55
146
119
88
20
128
68
31
59
50
127
100
99
135
123
18
74
148
27
150
62
51
147
42
35
37
102
117
105
6
54

> <PUBCHEM_MMFF94_PARTIAL_CHARGES>
30
1 -0.18
11 0.27
12 0.27
13 0.3
14 0.57
16 0.41
17 0.27
18 0.06
19 -0.14
2 -0.57
20 0.57
21 0.3
22 0.3
25 -0.15
26 -0.15
27 0.18
28 -0.15
29 -0.15
3 -0.57
4 -0.81
43 0.37
5 -0.81
57 0.15
58 0.15
59 0.15
6 -0.73
60 0.15
7 -0.66
8 0.27
9 0.33

> <PUBCHEM_EFFECTIVE_ROTOR_COUNT>
8.4

> <PUBCHEM_PHARMACOPHORE_FEATURES>
9
1 2 acceptor
1 3 acceptor
1 4 cation
1 5 cation
1 6 donor
5 5 8 9 10 12 rings
5 7 21 22 23 24 rings
6 19 25 26 27 28 29 rings
7 4 6 8 9 11 13 14 rings

> <PUBCHEM_HEAVY_ATOM_COUNT>
29

> <PUBCHEM_ATOM_DEF_STEREO_COUNT>
3

> <PUBCHEM_ATOM_UDEF_STEREO_COUNT>
0

> <PUBCHEM_BOND_DEF_STEREO_COUNT>
0

> <PUBCHEM_BOND_UDEF_STEREO_COUNT>
0

> <PUBCHEM_ISOTOPIC_ATOM_COUNT>
0

> <PUBCHEM_COMPONENT_COUNT>
1

> <PUBCHEM_CACTVS_TAUTO_COUNT>
3

> <PUBCHEM_CONFORMER_ID>
02B426E400000001

> <PUBCHEM_MMFF94_ENERGY>
75.3743

> <PUBCHEM_FEATURE_SELFOVERLAP>
45.708

> <PUBCHEM_SHAPE_FINGERPRINT>
11497681 19 18336270029915702622
117089 54 17770795520171790190
11756154 67 18265054627008681486
11796584 16 18413112762270077517
11963148 33 17836642294877893799
12107183 9 18267874882818145657
12166972 35 18114187406434159510
12422481 6 16486978388326558085
12596602 18 18131070403516145008
12633257 1 15482087445776538880
131258 38 18337940299151585274
13533116 47 18409733992807235080
13690498 29 17895471419449410541
13782708 43 17967809440159797219
14251751 18 18408323298187995973
14251764 30 18334852780084657914
15019793 15 18124029293770975387
15064981 113 12685666443712706778
15475509 35 18341610481269280632
15927050 60 17768525346191521382
16728300 4 18269830917686847343
19319366 153 18053663852823666684
19841028 212 18261391097219574466
20567600 247 18409729603376805035
20567600 70 18411981351651226906
20775530 9 18337655435408683094
21033648 29 15195286365694710513
21304253 335 10879992488420677450
21315764 119 18113892759178016861
21344244 181 17241335793204339643
22122407 14 10375876298331897118
23559900 14 18334849546243315941
25222932 49 17842555424923459573
2838139 119 9439402432444871306
32027 91 18340474630440203481
33382 64 18408324405883726992
3472631 163 8790880791943076296
3680242 22 18343032107450407803
3886686 26 17407971985308656566
439807 62 18407479959995541435
46194498 28 17240765129067914628
465052 167 18343025509916670932
484985 159 17614836315351770572
5104073 3 17918277549504482633
7970288 3 18193270794112184970

> <PUBCHEM_SHAPE_MULTIPOLES>
567.01
16.34
4.62
1.39
3.98
3.75
0.04
17.99
2.45
-2.97
0.94
-0.08
-1
-1.62

> <PUBCHEM_SHAPE_SELFOVERLAP>
1185.356

> <PUBCHEM_SHAPE_VOLUME>
321.4

> <PUBCHEM_COORDINATE_TYPE>
2
5
10

$$$$
