40481335
  -OEChem-12032416373D

 44 48  0     1  0  0  0  0  0999 V2000
   -4.6105    0.5052   -0.7970 O   0  0  0  0  0  0  0  0  0  0  0  0
   -2.1870    2.2009    0.0442 O   0  0  0  0  0  0  0  0  0  0  0  0
   -5.7068    2.7319    0.4404 O   0  0  0  0  0  0  0  0  0  0  0  0
   -2.0728   -1.5048   -0.2208 N   0  0  0  0  0  0  0  0  0  0  0  0
   -3.1012   -2.3512   -0.0710 N   0  0  0  0  0  0  0  0  0  0  0  0
   -1.1947   -3.3437    0.5209 N   0  0  0  0  0  0  0  0  0  0  0  0
   -2.5582   -3.4743    0.3826 N   0  0  0  0  0  0  0  0  0  0  0  0
   -2.5983    0.8646    0.4087 C   0  0  1  0  0  0  0  0  0  0  0  0
   -4.1117    0.8827    0.4961 C   0  0  1  0  0  0  0  0  0  0  0  0
   -2.2975   -0.0932   -0.7300 C   0  0  2  0  0  0  0  0  0  0  0  0
   -4.4069    2.3301    0.8091 C   0  0  1  0  0  0  0  0  0  0  0  0
   -3.5148    0.1000   -1.6306 C   0  0  0  0  0  0  0  0  0  0  0  0
   -3.3418    3.0514    0.0154 C   0  0  0  0  0  0  0  0  0  0  0  0
   -0.9160   -2.1177    0.1421 C   0  0  0  0  0  0  0  0  0  0  0  0
    0.3830   -1.4964    0.1052 C   0  0  0  0  0  0  0  0  0  0  0  0
    1.1641   -1.5806   -1.0475 C   0  0  0  0  0  0  0  0  0  0  0  0
    0.8597   -0.8107    1.2224 C   0  0  0  0  0  0  0  0  0  0  0  0
    2.4219   -0.9790   -1.0827 C   0  0  0  0  0  0  0  0  0  0  0  0
    2.1176   -0.2092    1.1870 C   0  0  0  0  0  0  0  0  0  0  0  0
    2.8987   -0.2931    0.0344 C   0  0  0  0  0  0  0  0  0  0  0  0
    4.2038    0.3305   -0.0021 C   0  0  0  0  0  0  0  0  0  0  0  0
    5.3318   -0.3890    0.3925 C   0  0  0  0  0  0  0  0  0  0  0  0
    4.3343    1.6506   -0.4328 C   0  0  0  0  0  0  0  0  0  0  0  0
    6.5902    0.2118    0.3566 C   0  0  0  0  0  0  0  0  0  0  0  0
    5.5926    2.2515   -0.4690 C   0  0  0  0  0  0  0  0  0  0  0  0
    6.7205    1.5320   -0.0742 C   0  0  0  0  0  0  0  0  0  0  0  0
   -2.1150    0.6175    1.3589 H   0  0  0  0  0  0  0  0  0  0  0  0
   -4.5263    0.1840    1.2283 H   0  0  0  0  0  0  0  0  0  0  0  0
   -1.3838    0.1537   -1.2811 H   0  0  0  0  0  0  0  0  0  0  0  0
   -4.2613    2.5105    1.8809 H   0  0  0  0  0  0  0  0  0  0  0  0
   -3.3387    0.9110   -2.3460 H   0  0  0  0  0  0  0  0  0  0  0  0
   -3.7963   -0.7939   -2.1948 H   0  0  0  0  0  0  0  0  0  0  0  0
   -3.6366    3.2142   -1.0274 H   0  0  0  0  0  0  0  0  0  0  0  0
   -3.0909    4.0252    0.4463 H   0  0  0  0  0  0  0  0  0  0  0  0
   -5.7718    3.6900    0.5930 H   0  0  0  0  0  0  0  0  0  0  0  0
    0.8062   -2.1113   -1.9265 H   0  0  0  0  0  0  0  0  0  0  0  0
    0.2626   -0.7362    2.1282 H   0  0  0  0  0  0  0  0  0  0  0  0
    3.0180   -1.0540   -1.9892 H   0  0  0  0  0  0  0  0  0  0  0  0
    2.4742    0.3216    2.0667 H   0  0  0  0  0  0  0  0  0  0  0  0
    5.2479   -1.4192    0.7308 H   0  0  0  0  0  0  0  0  0  0  0  0
    3.4653    2.2258   -0.7441 H   0  0  0  0  0  0  0  0  0  0  0  0
    7.4685   -0.3484    0.6639 H   0  0  0  0  0  0  0  0  0  0  0  0
    5.6943    3.2794   -0.8045 H   0  0  0  0  0  0  0  0  0  0  0  0
    7.7003    1.9997   -0.1022 H   0  0  0  0  0  0  0  0  0  0  0  0
  1  9  1  0  0  0  0
  1 12  1  0  0  0  0
  2  8  1  0  0  0  0
  2 13  1  0  0  0  0
  3 11  1  0  0  0  0
  3 35  1  0  0  0  0
  4  5  1  0  0  0  0
  4 10  1  0  0  0  0
  4 14  1  0  0  0  0
  5  7  2  0  0  0  0
  6  7  1  0  0  0  0
  6 14  2  0  0  0  0
  8  9  1  0  0  0  0
  8 10  1  0  0  0  0
  8 27  1  0  0  0  0
  9 11  1  0  0  0  0
  9 28  1  0  0  0  0
 10 12  1  0  0  0  0
 10 29  1  0  0  0  0
 11 13  1  0  0  0  0
 11 30  1  0  0  0  0
 12 31  1  0  0  0  0
 12 32  1  0  0  0  0
 13 33  1  0  0  0  0
 13 34  1  0  0  0  0
 14 15  1  0  0  0  0
 15 16  2  0  0  0  0
 15 17  1  0  0  0  0
 16 18  1  0  0  0  0
 16 36  1  0  0  0  0
 17 19  2  0  0  0  0
 17 37  1  0  0  0  0
 18 20  2  0  0  0  0
 18 38  1  0  0  0  0
 19 20  1  0  0  0  0
 19 39  1  0  0  0  0
 20 21  1  0  0  0  0
 21 22  2  0  0  0  0
 21 23  1  0  0  0  0
 22 24  1  0  0  0  0
 22 40  1  0  0  0  0
 23 25  2  0  0  0  0
 23 41  1  0  0  0  0
 24 26  2  0  0  0  0
 24 42  1  0  0  0  0
 25 26  1  0  0  0  0
 25 43  1  0  0  0  0
 26 44  1  0  0  0  0
M  END
> <PUBCHEM_COMPOUND_CID>
40481335

> <PUBCHEM_CONFORMER_RMSD>
0.8

> <PUBCHEM_CONFORMER_DIVERSEORDER>
1
13
2
10
6
5
8
15
9
7
12
11
4
3
14

> <PUBCHEM_MMFF94_PARTIAL_CHARGES>
33
1 -0.56
10 0.26
11 0.28
12 0.28
13 0.28
14 0.13
15 0.05
16 -0.15
17 -0.15
18 -0.15
19 -0.15
2 -0.56
22 -0.15
23 -0.15
24 -0.15
25 -0.15
26 -0.15
3 -0.68
35 0.4
36 0.15
37 0.15
38 0.15
39 0.15
4 0.31
40 0.15
41 0.15
42 0.15
43 0.15
44 0.15
5 -0.42
6 -0.34
8 0.28
9 0.28

> <PUBCHEM_EFFECTIVE_ROTOR_COUNT>
4.2

> <PUBCHEM_PHARMACOPHORE_FEATURES>
10
1 1 acceptor
1 2 acceptor
1 3 acceptor
1 3 donor
3 4 6 14 cation
5 1 8 9 10 12 rings
5 2 8 9 11 13 rings
5 4 5 6 7 14 rings
6 15 16 17 18 19 20 rings
6 21 22 23 24 25 26 rings

> <PUBCHEM_HEAVY_ATOM_COUNT>
26

> <PUBCHEM_ATOM_DEF_STEREO_COUNT>
4

> <PUBCHEM_ATOM_UDEF_STEREO_COUNT>
0

> <PUBCHEM_BOND_DEF_STEREO_COUNT>
0

> <PUBCHEM_BOND_UDEF_STEREO_COUNT>
0

> <PUBCHEM_ISOTOPIC_ATOM_COUNT>
0

> <PUBCHEM_COMPONENT_COUNT>
1

> <PUBCHEM_CACTVS_TAUTO_COUNT>
1

> <PUBCHEM_CONFORMER_ID>
0269B23700000001

> <PUBCHEM_MMFF94_ENERGY>
81.4816

> <PUBCHEM_FEATURE_SELFOVERLAP>
51.464

> <PUBCHEM_SHAPE_FINGERPRINT>
10291535 26 18412829117880987371
10411042 1 17834677471936307379
10493431 412 18409735019668363677
10595046 47 18191022503481536938
11405975 8 18334855022516671946
12107183 9 18191014613653235458
12390115 104 18339655489576413195
12788726 201 18118111692141169843
13073987 5 18335418037015727202
13103583 49 11530766963808056045
13583140 156 17022618671841964241
13965767 371 17678740033688681455
14251764 38 18265339589356190620
14251764 75 17912374126005358209
14347329 18 18343578556139445800
14713325 29 18339084898808074963
14739800 52 18266718347099179896
14790565 3 18267309737788542585
14840074 17 17821733822931349116
14950920 106 13479142288796101245
15163728 17 18264507198992539534
15183329 4 18409445882918155986
15463212 79 18187075169952421291
15604295 49 18055633074561408656
17844677 252 18191030195773115398
17980427 23 18187930637628242750
18608769 82 18342459279346609803
20715895 44 18341334397141398248
21236236 1 18339079392791460774
21756936 100 18413384332698586995
22393880 68 16271630261418719430
22956985 138 16097141390854026114
23227448 37 18411986874905271221
23557571 272 18267026231196926510
23559900 14 18343023243018405518
23569914 152 16553145701522972756
23569943 247 16517062088068583938
283562 15 18189612916347753723
2838139 119 18342172280815362812
3472631 163 18411700950453198941
3610482 184 18188506769158178580
397830 11 10881681373727317852
4144715 1 18263371433757158474
441001 317 18411135883259988534
469060 322 16443060651381661575
508706 21 18271230737860181128
5104073 3 18041551547069351074
5171179 24 17629750438536319601
5283173 99 18412826919617315632
531348 171 18059855073818714582
563151 74 15792280493789479993
5969126 39 18128249193981640511
59755656 520 18334011662105335426
613672 6 10014426050052581493
6299153 45 18335414609600046858
6327066 14 18337106770426720229
633830 44 18126564527355621631
6673363 416 17327195737337673572
6700243 42 17480901870214737126
7288768 16 18187088317332370547
76465 3 8862938372932253318
7808743 9 18410572877134538441
9981440 41 18410857659162746826

> <PUBCHEM_SHAPE_MULTIPOLES>
497.54
14.47
3.49
1.05
15.36
0.56
0.13
-11.66
-0.04
-4.35
-0.39
-0.28
0.1
-0.72

> <PUBCHEM_SHAPE_SELFOVERLAP>
1105.598

> <PUBCHEM_SHAPE_VOLUME>
267.9

> <PUBCHEM_COORDINATE_TYPE>
2
5
10

$$$$
