51136739
  -OEChem-12032416143D

 56 58  0     1  0  0  0  0  0999 V2000
   -1.2474    5.1520   -0.6768 O   0  0  0  0  0  0  0  0  0  0  0  0
    4.7632   -0.4309   -0.5717 O   0  0  0  0  0  0  0  0  0  0  0  0
    0.5678    5.0978    0.6953 O   0  0  0  0  0  0  0  0  0  0  0  0
    2.9047    0.3065    0.6027 N   0  0  0  0  0  0  0  0  0  0  0  0
   -0.0049   -2.3001   -0.0855 N   0  0  0  0  0  0  0  0  0  0  0  0
    3.2998   -1.9967    0.2437 N   0  0  0  0  0  0  0  0  0  0  0  0
    0.4738    0.7876    0.6661 C   0  0  2  0  0  0  0  0  0  0  0  0
    0.8011    2.2888    0.4491 C   0  0  1  0  0  0  0  0  0  0  0  0
    2.1529    2.4820   -0.2617 C   0  0  0  0  0  0  0  0  0  0  0  0
    1.6611    0.0959    1.3579 C   0  0  0  0  0  0  0  0  0  0  0  0
    0.0921    0.0400   -0.6169 C   0  0  0  0  0  0  0  0  0  0  0  0
    3.2705    1.7146    0.4431 C   0  0  0  0  0  0  0  0  0  0  0  0
   -0.3065    3.0444   -0.2848 C   0  0  0  0  0  0  0  0  0  0  0  0
   -0.6771   -1.2124   -0.2716 C   0  0  0  0  0  0  0  0  0  0  0  0
    3.7280   -0.6887    0.0516 C   0  0  0  0  0  0  0  0  0  0  0  0
   -2.1559   -1.1346   -0.1561 C   0  0  0  0  0  0  0  0  0  0  0  0
   -0.2455    4.5218   -0.0115 C   0  0  0  0  0  0  0  0  0  0  0  0
   -2.7912   -2.1789    0.5277 C   0  0  0  0  0  0  0  0  0  0  0  0
   -1.9508   -3.2807    1.1016 C   0  0  0  0  0  0  0  0  0  0  0  0
   -0.7565   -3.5293    0.1898 C   0  0  0  0  0  0  0  0  0  0  0  0
   -2.8997   -0.0763   -0.6816 C   0  0  0  0  0  0  0  0  0  0  0  0
   -4.1769   -2.1444    0.7062 C   0  0  0  0  0  0  0  0  0  0  0  0
   -4.2849   -0.0588   -0.5123 C   0  0  0  0  0  0  0  0  0  0  0  0
    4.0350   -3.1302   -0.2711 C   0  0  0  0  0  0  0  0  0  0  0  0
   -4.9217   -1.0878    0.1820 C   0  0  0  0  0  0  0  0  0  0  0  0
   -5.0882    1.0669   -1.0715 C   0  0  0  0  0  0  0  0  0  0  0  0
    3.7572   -3.3488   -1.7439 C   0  0  0  0  0  0  0  0  0  0  0  0
   -0.3777    0.7429    1.3597 H   0  0  0  0  0  0  0  0  0  0  0  0
    0.9053    2.7210    1.4555 H   0  0  0  0  0  0  0  0  0  0  0  0
    2.0769    2.1288   -1.2982 H   0  0  0  0  0  0  0  0  0  0  0  0
    2.4250    3.5420   -0.3072 H   0  0  0  0  0  0  0  0  0  0  0  0
    1.8206    0.5561    2.3423 H   0  0  0  0  0  0  0  0  0  0  0  0
    1.4487   -0.9493    1.5694 H   0  0  0  0  0  0  0  0  0  0  0  0
    0.9860   -0.2565   -1.1802 H   0  0  0  0  0  0  0  0  0  0  0  0
   -0.4675    0.6594   -1.3145 H   0  0  0  0  0  0  0  0  0  0  0  0
    4.2012    1.8192   -0.1229 H   0  0  0  0  0  0  0  0  0  0  0  0
    3.4489    2.1266    1.4434 H   0  0  0  0  0  0  0  0  0  0  0  0
   -0.2403    2.8932   -1.3676 H   0  0  0  0  0  0  0  0  0  0  0  0
   -1.2852    2.6979    0.0671 H   0  0  0  0  0  0  0  0  0  0  0  0
   -2.5314   -4.2047    1.1998 H   0  0  0  0  0  0  0  0  0  0  0  0
   -1.6139   -2.9823    2.1016 H   0  0  0  0  0  0  0  0  0  0  0  0
   -1.0749   -3.9727   -0.7620 H   0  0  0  0  0  0  0  0  0  0  0  0
   -0.0836   -4.2495    0.6680 H   0  0  0  0  0  0  0  0  0  0  0  0
    2.4180   -2.2055    0.6897 H   0  0  0  0  0  0  0  0  0  0  0  0
   -2.4456    0.7412   -1.2281 H   0  0  0  0  0  0  0  0  0  0  0  0
   -4.6828   -2.9370    1.2508 H   0  0  0  0  0  0  0  0  0  0  0  0
    3.7299   -4.0080    0.3071 H   0  0  0  0  0  0  0  0  0  0  0  0
    5.1054   -2.9660   -0.1084 H   0  0  0  0  0  0  0  0  0  0  0  0
   -1.2374    6.1205   -0.5207 H   0  0  0  0  0  0  0  0  0  0  0  0
   -5.9991   -1.0767    0.3252 H   0  0  0  0  0  0  0  0  0  0  0  0
   -6.1344    0.7781   -1.2192 H   0  0  0  0  0  0  0  0  0  0  0  0
   -4.7002    1.3758   -2.0481 H   0  0  0  0  0  0  0  0  0  0  0  0
   -5.0577    1.9241   -0.3915 H   0  0  0  0  0  0  0  0  0  0  0  0
    2.6879   -3.5076   -1.9202 H   0  0  0  0  0  0  0  0  0  0  0  0
    4.0671   -2.4860   -2.3424 H   0  0  0  0  0  0  0  0  0  0  0  0
    4.2985   -4.2274   -2.1078 H   0  0  0  0  0  0  0  0  0  0  0  0
  1 17  1  0  0  0  0
  1 49  1  0  0  0  0
  2 15  2  0  0  0  0
  3 17  2  0  0  0  0
  4 10  1  0  0  0  0
  4 12  1  0  0  0  0
  4 15  1  0  0  0  0
  5 14  2  0  0  0  0
  5 20  1  0  0  0  0
  6 15  1  0  0  0  0
  6 24  1  0  0  0  0
  6 44  1  0  0  0  0
  7  8  1  0  0  0  0
  7 10  1  0  0  0  0
  7 11  1  0  0  0  0
  7 28  1  0  0  0  0
  8  9  1  0  0  0  0
  8 13  1  0  0  0  0
  8 29  1  0  0  0  0
  9 12  1  0  0  0  0
  9 30  1  0  0  0  0
  9 31  1  0  0  0  0
 10 32  1  0  0  0  0
 10 33  1  0  0  0  0
 11 14  1  0  0  0  0
 11 34  1  0  0  0  0
 11 35  1  0  0  0  0
 12 36  1  0  0  0  0
 12 37  1  0  0  0  0
 13 17  1  0  0  0  0
 13 38  1  0  0  0  0
 13 39  1  0  0  0  0
 14 16  1  0  0  0  0
 16 18  2  0  0  0  0
 16 21  1  0  0  0  0
 18 19  1  0  0  0  0
 18 22  1  0  0  0  0
 19 20  1  0  0  0  0
 19 40  1  0  0  0  0
 19 41  1  0  0  0  0
 20 42  1  0  0  0  0
 20 43  1  0  0  0  0
 21 23  2  0  0  0  0
 21 45  1  0  0  0  0
 22 25  2  0  0  0  0
 22 46  1  0  0  0  0
 23 25  1  0  0  0  0
 23 26  1  0  0  0  0
 24 27  1  0  0  0  0
 24 47  1  0  0  0  0
 24 48  1  0  0  0  0
 25 50  1  0  0  0  0
 26 51  1  0  0  0  0
 26 52  1  0  0  0  0
 26 53  1  0  0  0  0
 27 54  1  0  0  0  0
 27 55  1  0  0  0  0
 27 56  1  0  0  0  0
M  END
> <PUBCHEM_COMPOUND_CID>
51136739

> <PUBCHEM_CONFORMER_RMSD>
1

> <PUBCHEM_CONFORMER_DIVERSEORDER>
1
7
75
83
41
63
14
13
6
79
10
69
52
30
66
27
51
68
33
31
64
38
44
84
40
70
24
16
58
34
53
72
32
81
62
5
46
3
71
85
80
57
20
28
45
43
56
48
76
55
73
23
26
65
17
82
67
29
19
2
25
8
37
36
78
21
61
4
47
39
77
15
35
22
12
49
54
60
74
9
59
42
18
50
11

> <PUBCHEM_MMFF94_PARTIAL_CHARGES>
28
1 -0.65
10 0.3
11 0.06
12 0.3
13 0.06
14 0.3
15 0.69
16 0.09
17 0.66
18 -0.14
19 0.14
2 -0.57
20 0.25
21 -0.15
22 -0.15
23 -0.14
24 0.3
25 -0.15
26 0.14
3 -0.57
4 -0.66
44 0.37
45 0.15
46 0.15
49 0.5
5 -0.7
50 0.15
6 -0.73

> <PUBCHEM_EFFECTIVE_ROTOR_COUNT>
8.6

> <PUBCHEM_PHARMACOPHORE_FEATURES>
9
1 1 acceptor
1 2 acceptor
1 3 acceptor
1 5 acceptor
1 6 donor
3 1 3 17 anion
6 16 18 21 22 23 25 rings
6 4 7 8 9 10 12 rings
6 5 14 16 18 19 20 rings

> <PUBCHEM_HEAVY_ATOM_COUNT>
27

> <PUBCHEM_ATOM_DEF_STEREO_COUNT>
2

> <PUBCHEM_ATOM_UDEF_STEREO_COUNT>
0

> <PUBCHEM_BOND_DEF_STEREO_COUNT>
0

> <PUBCHEM_BOND_UDEF_STEREO_COUNT>
0

> <PUBCHEM_ISOTOPIC_ATOM_COUNT>
0

> <PUBCHEM_COMPONENT_COUNT>
1

> <PUBCHEM_CACTVS_TAUTO_COUNT>
2

> <PUBCHEM_CONFORMER_ID>
030C48E300000001

> <PUBCHEM_MMFF94_ENERGY>
59.2197

> <PUBCHEM_FEATURE_SELFOVERLAP>
45.754

> <PUBCHEM_SHAPE_FINGERPRINT>
10675989 125 18336541612680383808
116883 192 18339640032310816204
12553582 1 18339913905353863406
12788726 201 18336263423596319458
13140716 1 18339925905239417465
138480 1 14879752547529751408
14022347 108 18335129865488630994
14223421 5 17686615054137225555
14251757 5 18334298630244978244
144659 178 18264497186907256052
14466204 15 18049432944584987584
14725015 67 18195799679066436602
14790565 3 16683165034234273904
14866123 147 17762619486522949642
15081414 286 18339930406032373160
15420108 30 17476336771061761928
15664445 248 18197519500352038564
17349148 13 16056604278581156455
18335252 114 18339066126666106133
19591789 44 17834678188794035824
21033648 29 17916852638638101355
21133410 127 17247222716158038253
21279426 13 18266737983257055535
21285901 2 18059577914872276966
23559900 14 18194679500044911019
38695281 34 17691970779677201848
6287921 2 17323236390884704525
79837 15 17548976659501215024
9709674 26 18048032162476207435

> <PUBCHEM_SHAPE_MULTIPOLES>
523.1
8.74
6.43
1.05
3.25
7.19
0.1
-5.6
1.49
-2.36
0.35
-0.15
-0.39
2.24

> <PUBCHEM_SHAPE_SELFOVERLAP>
1094.634

> <PUBCHEM_SHAPE_VOLUME>
293.8

> <PUBCHEM_COORDINATE_TYPE>
2
5
10

$$$$
