38029183
  -OEChem-12032416253D

 69 71  0     1  0  0  0  0  0999 V2000
    5.0167   -3.8701    2.0024 F   0  0  0  0  0  0  0  0  0  0  0  0
   -3.7987    0.7806    0.9570 O   0  0  0  0  0  0  0  0  0  0  0  0
    3.0971    1.1908   -1.8070 O   0  0  0  0  0  0  0  0  0  0  0  0
    2.4384    2.4189    0.0398 N   0  0  0  0  0  0  0  0  0  0  0  0
   -2.6364   -1.0601    1.7572 N   0  0  0  0  0  0  0  0  0  0  0  0
    3.3261    0.3113    0.3574 N   0  0  0  0  0  0  0  0  0  0  0  0
   -3.2677   -4.7167   -0.9657 N   0  0  0  0  0  0  0  0  0  0  0  0
   -0.3784    2.6993   -0.9752 C   0  0  1  0  0  0  0  0  0  0  0  0
    0.5027    3.8361   -0.3998 C   0  0  1  0  0  0  0  0  0  0  0  0
   -1.7808    2.7388   -0.3492 C   0  0  0  0  0  0  0  0  0  0  0  0
   -1.7388    2.5954    1.1839 C   0  0  2  0  0  0  0  0  0  0  0  0
   -0.4890    2.7821   -2.5009 C   0  0  0  0  0  0  0  0  0  0  0  0
   -0.6945    3.5002    1.8056 C   0  0  0  0  0  0  0  0  0  0  0  0
    0.2918    4.0563    1.0798 C   0  0  0  0  0  0  0  0  0  0  0  0
    1.9889    3.5749   -0.6704 C   0  0  0  0  0  0  0  0  0  0  0  0
   -1.5160    1.1361    1.5962 C   0  0  0  0  0  0  0  0  0  0  0  0
   -1.5472    3.8044   -2.9029 C   0  0  0  0  0  0  0  0  0  0  0  0
   -0.8114    1.4109   -3.0862 C   0  0  0  0  0  0  0  0  0  0  0  0
   -0.8363    3.7885    3.2744 C   0  0  0  0  0  0  0  0  0  0  0  0
   -2.7589    0.2874    1.4020 C   0  0  0  0  0  0  0  0  0  0  0  0
    2.9742    1.2790   -0.5876 C   0  0  0  0  0  0  0  0  0  0  0  0
   -3.7413   -2.0074    1.6299 C   0  0  0  0  0  0  0  0  0  0  0  0
   -1.3968   -1.6205    2.2812 C   0  0  0  0  0  0  0  0  0  0  0  0
   -3.7280   -2.7113    0.3039 C   0  0  0  0  0  0  0  0  0  0  0  0
    3.8926   -0.9636    0.1246 C   0  0  0  0  0  0  0  0  0  0  0  0
   -4.1380   -2.0625   -0.8557 C   0  0  0  0  0  0  0  0  0  0  0  0
   -3.3056   -4.0266    0.1963 C   0  0  0  0  0  0  0  0  0  0  0  0
    4.1809   -1.8048    1.1994 C   0  0  0  0  0  0  0  0  0  0  0  0
    4.1641   -1.3795   -1.1789 C   0  0  0  0  0  0  0  0  0  0  0  0
   -4.1131   -2.7392   -2.0702 C   0  0  0  0  0  0  0  0  0  0  0  0
   -3.6735   -4.0532   -2.0715 C   0  0  0  0  0  0  0  0  0  0  0  0
    4.7407   -3.0617    0.9706 C   0  0  0  0  0  0  0  0  0  0  0  0
    4.7239   -2.6364   -1.4075 C   0  0  0  0  0  0  0  0  0  0  0  0
    5.0124   -3.4775   -0.3328 C   0  0  0  0  0  0  0  0  0  0  0  0
    0.0793    1.7366   -0.7204 H   0  0  0  0  0  0  0  0  0  0  0  0
    0.2446    4.7836   -0.8892 H   0  0  0  0  0  0  0  0  0  0  0  0
   -2.4274    1.9721   -0.7869 H   0  0  0  0  0  0  0  0  0  0  0  0
   -2.2642    3.7053   -0.5424 H   0  0  0  0  0  0  0  0  0  0  0  0
   -2.7170    2.9290    1.5580 H   0  0  0  0  0  0  0  0  0  0  0  0
    0.4658    3.0940   -2.9365 H   0  0  0  0  0  0  0  0  0  0  0  0
    0.9862    4.7357    1.5704 H   0  0  0  0  0  0  0  0  0  0  0  0
    2.5918    4.4173   -0.3101 H   0  0  0  0  0  0  0  0  0  0  0  0
    2.1989    3.4771   -1.7387 H   0  0  0  0  0  0  0  0  0  0  0  0
   -1.2724    1.0919    2.6636 H   0  0  0  0  0  0  0  0  0  0  0  0
   -0.6860    0.6980    1.0333 H   0  0  0  0  0  0  0  0  0  0  0  0
   -2.5704    3.4585   -2.7224 H   0  0  0  0  0  0  0  0  0  0  0  0
   -1.4806    3.9847   -3.9830 H   0  0  0  0  0  0  0  0  0  0  0  0
   -1.4031    4.7750   -2.4189 H   0  0  0  0  0  0  0  0  0  0  0  0
   -1.7735    1.0242   -2.7365 H   0  0  0  0  0  0  0  0  0  0  0  0
   -0.0373    0.6815   -2.8240 H   0  0  0  0  0  0  0  0  0  0  0  0
   -0.8560    1.4630   -4.1797 H   0  0  0  0  0  0  0  0  0  0  0  0
   -1.8359    4.1794    3.4903 H   0  0  0  0  0  0  0  0  0  0  0  0
   -0.1127    4.5359    3.6176 H   0  0  0  0  0  0  0  0  0  0  0  0
   -0.6791    2.8849    3.8699 H   0  0  0  0  0  0  0  0  0  0  0  0
    2.4345    2.4424    1.0550 H   0  0  0  0  0  0  0  0  0  0  0  0
   -4.6888   -1.4629    1.7273 H   0  0  0  0  0  0  0  0  0  0  0  0
   -3.7088   -2.7182    2.4641 H   0  0  0  0  0  0  0  0  0  0  0  0
   -1.6082   -2.0839    3.2503 H   0  0  0  0  0  0  0  0  0  0  0  0
   -0.5893   -0.9056    2.4273 H   0  0  0  0  0  0  0  0  0  0  0  0
   -1.0424   -2.3908    1.5894 H   0  0  0  0  0  0  0  0  0  0  0  0
    3.1556    0.5434    1.3327 H   0  0  0  0  0  0  0  0  0  0  0  0
   -4.4872   -1.0351   -0.8312 H   0  0  0  0  0  0  0  0  0  0  0  0
   -2.9718   -4.5860    1.0647 H   0  0  0  0  0  0  0  0  0  0  0  0
    3.9741   -1.4934    2.2200 H   0  0  0  0  0  0  0  0  0  0  0  0
    3.9692   -0.7861   -2.0609 H   0  0  0  0  0  0  0  0  0  0  0  0
   -4.4295   -2.2540   -2.9863 H   0  0  0  0  0  0  0  0  0  0  0  0
   -3.6355   -4.6251   -2.9928 H   0  0  0  0  0  0  0  0  0  0  0  0
    4.9358   -2.9616   -2.4220 H   0  0  0  0  0  0  0  0  0  0  0  0
    5.4481   -4.4562   -0.5106 H   0  0  0  0  0  0  0  0  0  0  0  0
  1 32  1  0  0  0  0
  2 20  2  0  0  0  0
  3 21  2  0  0  0  0
  4 15  1  0  0  0  0
  4 21  1  0  0  0  0
  4 55  1  0  0  0  0
  5 20  1  0  0  0  0
  5 22  1  0  0  0  0
  5 23  1  0  0  0  0
  6 21  1  0  0  0  0
  6 25  1  0  0  0  0
  6 61  1  0  0  0  0
  7 27  1  0  0  0  0
  7 31  2  0  0  0  0
  8  9  1  0  0  0  0
  8 10  1  0  0  0  0
  8 12  1  0  0  0  0
  8 35  1  0  0  0  0
  9 14  1  0  0  0  0
  9 15  1  0  0  0  0
  9 36  1  0  0  0  0
 10 11  1  0  0  0  0
 10 37  1  0  0  0  0
 10 38  1  0  0  0  0
 11 13  1  0  0  0  0
 11 16  1  0  0  0  0
 11 39  1  0  0  0  0
 12 17  1  0  0  0  0
 12 18  1  0  0  0  0
 12 40  1  0  0  0  0
 13 14  2  0  0  0  0
 13 19  1  0  0  0  0
 14 41  1  0  0  0  0
 15 42  1  0  0  0  0
 15 43  1  0  0  0  0
 16 20  1  0  0  0  0
 16 44  1  0  0  0  0
 16 45  1  0  0  0  0
 17 46  1  0  0  0  0
 17 47  1  0  0  0  0
 17 48  1  0  0  0  0
 18 49  1  0  0  0  0
 18 50  1  0  0  0  0
 18 51  1  0  0  0  0
 19 52  1  0  0  0  0
 19 53  1  0  0  0  0
 19 54  1  0  0  0  0
 22 24  1  0  0  0  0
 22 56  1  0  0  0  0
 22 57  1  0  0  0  0
 23 58  1  0  0  0  0
 23 59  1  0  0  0  0
 23 60  1  0  0  0  0
 24 26  1  0  0  0  0
 24 27  2  0  0  0  0
 25 28  2  0  0  0  0
 25 29  1  0  0  0  0
 26 30  2  0  0  0  0
 26 62  1  0  0  0  0
 27 63  1  0  0  0  0
 28 32  1  0  0  0  0
 28 64  1  0  0  0  0
 29 33  2  0  0  0  0
 29 65  1  0  0  0  0
 30 31  1  0  0  0  0
 30 66  1  0  0  0  0
 31 67  1  0  0  0  0
 32 34  2  0  0  0  0
 33 34  1  0  0  0  0
 33 68  1  0  0  0  0
 34 69  1  0  0  0  0
M  END
> <PUBCHEM_COMPOUND_CID>
38029183

> <PUBCHEM_CONFORMER_RMSD>
1.4

> <PUBCHEM_CONFORMER_DIVERSEORDER>
1
79
50
13
122
17
12
124
46
121
105
99
55
11
117
88
16
111
37
48
51
131
8
29
9
22
113
106
36
132
76
66
41
110
45
83
91
40
108
126
72
23
109
101
6
128
119
98
89
44
63
74
85
134
67
73
112
86
62
65
133
90
61
4
92
33
54
64
68
107
70
114
24
57
123
87
97
103
120
58
20
49
94
43
78
28
80
15
95
71
96
81
31
100
38
60
35
104
77
115
125
56
26
27
25
39
130
5
42
69
93
82
102
19
116
135
18
2
84
59
129
136
10
32
3
30
75
34
118
47
52
127
137
21
7
53
14

> <PUBCHEM_MMFF94_PARTIAL_CHARGES>
40
1 -0.19
11 0.14
13 -0.28
14 -0.29
15 0.3
16 0.06
19 0.14
2 -0.57
20 0.57
21 0.69
22 0.44
23 0.3
24 -0.14
25 0.12
26 -0.15
27 0.16
28 -0.15
29 -0.15
3 -0.57
30 -0.15
31 0.16
32 0.19
33 -0.15
34 -0.15
4 -0.73
41 0.15
5 -0.66
55 0.37
6 -0.55
61 0.37
62 0.15
63 0.15
64 0.15
65 0.15
66 0.15
67 0.15
68 0.15
69 0.15
7 -0.62
9 0.14

> <PUBCHEM_EFFECTIVE_ROTOR_COUNT>
11.8

> <PUBCHEM_PHARMACOPHORE_FEATURES>
9
1 2 acceptor
1 3 acceptor
1 4 donor
1 6 donor
1 7 acceptor
3 12 17 18 hydrophobe
6 25 28 29 32 33 34 rings
6 7 24 26 27 30 31 rings
6 8 9 10 11 13 14 rings

> <PUBCHEM_HEAVY_ATOM_COUNT>
34

> <PUBCHEM_ATOM_DEF_STEREO_COUNT>
3

> <PUBCHEM_ATOM_UDEF_STEREO_COUNT>
0

> <PUBCHEM_BOND_DEF_STEREO_COUNT>
0

> <PUBCHEM_BOND_UDEF_STEREO_COUNT>
0

> <PUBCHEM_ISOTOPIC_ATOM_COUNT>
0

> <PUBCHEM_COMPONENT_COUNT>
1

> <PUBCHEM_CACTVS_TAUTO_COUNT>
3

> <PUBCHEM_CONFORMER_ID>
0244477F00000001

> <PUBCHEM_MMFF94_ENERGY>
84.4683

> <PUBCHEM_FEATURE_SELFOVERLAP>
45.72

> <PUBCHEM_SHAPE_FINGERPRINT>
10254770 206 18265322907107250883
10928967 22 18045802095544803450
11285246 1 18114167640868088463
11513181 2 18198643183628325966
11552529 35 18271534091774434296
12156800 1 17029883132276724497
12977781 61 17977905177786553536
13165053 137 16893408184467720995
14674994 50 18191580857012986357
20764821 26 17254283323894420842
20775530 9 18337122227881727616
21458453 9 11671222037222072919
46194498 28 16087561256368542005
5080951 261 18118959192541568482
5081480 168 17677884811870409839

> <PUBCHEM_SHAPE_MULTIPOLES>
660.77
9.99
8.24
3.06
8.97
0.74
0.55
17.63
0.23
-1.75
0.67
-1.78
-1.85
-2.4

> <PUBCHEM_SHAPE_SELFOVERLAP>
1380.138

> <PUBCHEM_SHAPE_VOLUME>
374.7

> <PUBCHEM_COORDINATE_TYPE>
2
5
10

$$$$
