75536652
  -OEChem-12032416383D

 33 33  0     1  0  0  0  0  0999 V2000
    3.7721    0.2254   -0.1536 S   0  0  0  0  0  0  0  0  0  0  0  0
   -0.2360    1.2034    0.5045 O   0  0  0  0  0  0  0  0  0  0  0  0
   -1.6704   -2.0899    0.4548 O   0  0  0  0  0  0  0  0  0  0  0  0
    4.8385    0.5342    0.7786 O   0  0  0  0  0  0  0  0  0  0  0  0
    3.4760    1.1120   -1.2625 O   0  0  0  0  0  0  0  0  0  0  0  0
   -3.5688    0.2023   -0.5543 N   0  0  0  0  0  0  0  0  0  0  0  0
    2.3250   -0.0732    0.6997 N   0  0  0  0  0  0  0  0  0  0  0  0
   -2.3962    0.2363    0.3044 C   0  0  1  0  0  0  0  0  0  0  0  0
   -1.3523   -0.8070   -0.0488 C   0  0  1  0  0  0  0  0  0  0  0  0
   -0.1162   -0.2241    0.6228 C   0  0  1  0  0  0  0  0  0  0  0  0
   -1.5967    1.5213    0.1635 C   0  0  0  0  0  0  0  0  0  0  0  0
    1.1846   -0.6843   -0.0108 C   0  0  0  0  0  0  0  0  0  0  0  0
   -4.2714   -1.0779   -0.4259 C   0  0  0  0  0  0  0  0  0  0  0  0
   -4.4774    1.3086   -0.2393 C   0  0  0  0  0  0  0  0  0  0  0  0
    4.0892   -1.3870   -0.8331 C   0  0  0  0  0  0  0  0  0  0  0  0
   -2.6912    0.1100    1.3569 H   0  0  0  0  0  0  0  0  0  0  0  0
   -1.2140   -0.8770   -1.1351 H   0  0  0  0  0  0  0  0  0  0  0  0
   -0.1052   -0.4638    1.6943 H   0  0  0  0  0  0  0  0  0  0  0  0
   -1.5853    1.8984   -0.8658 H   0  0  0  0  0  0  0  0  0  0  0  0
   -1.9521    2.3191    0.8229 H   0  0  0  0  0  0  0  0  0  0  0  0
    1.2048   -0.3747   -1.0616 H   0  0  0  0  0  0  0  0  0  0  0  0
    1.2715   -1.7742    0.0430 H   0  0  0  0  0  0  0  0  0  0  0  0
   -1.7992   -2.0173    1.4157 H   0  0  0  0  0  0  0  0  0  0  0  0
    2.4284   -0.4069    1.6673 H   0  0  0  0  0  0  0  0  0  0  0  0
   -5.2161   -1.0528   -0.9825 H   0  0  0  0  0  0  0  0  0  0  0  0
   -4.5048   -1.3257    0.6159 H   0  0  0  0  0  0  0  0  0  0  0  0
   -3.7005   -1.8956   -0.8755 H   0  0  0  0  0  0  0  0  0  0  0  0
   -5.3692    1.2639   -0.8755 H   0  0  0  0  0  0  0  0  0  0  0  0
   -4.0180    2.2811   -0.4436 H   0  0  0  0  0  0  0  0  0  0  0  0
   -4.8054    1.2884    0.8065 H   0  0  0  0  0  0  0  0  0  0  0  0
    5.0501   -1.3459   -1.3517 H   0  0  0  0  0  0  0  0  0  0  0  0
    4.1451   -2.1111   -0.0181 H   0  0  0  0  0  0  0  0  0  0  0  0
    3.3056   -1.6502   -1.5448 H   0  0  0  0  0  0  0  0  0  0  0  0
  1  4  2  0  0  0  0
  1  5  2  0  0  0  0
  1  7  1  0  0  0  0
  1 15  1  0  0  0  0
  2 10  1  0  0  0  0
  2 11  1  0  0  0  0
  3  9  1  0  0  0  0
  3 23  1  0  0  0  0
  6  8  1  0  0  0  0
  6 13  1  0  0  0  0
  6 14  1  0  0  0  0
  7 12  1  0  0  0  0
  7 24  1  0  0  0  0
  8  9  1  0  0  0  0
  8 11  1  0  0  0  0
  8 16  1  0  0  0  0
  9 10  1  0  0  0  0
  9 17  1  0  0  0  0
 10 12  1  0  0  0  0
 10 18  1  0  0  0  0
 11 19  1  0  0  0  0
 11 20  1  0  0  0  0
 12 21  1  0  0  0  0
 12 22  1  0  0  0  0
 13 25  1  0  0  0  0
 13 26  1  0  0  0  0
 13 27  1  0  0  0  0
 14 28  1  0  0  0  0
 14 29  1  0  0  0  0
 14 30  1  0  0  0  0
 15 31  1  0  0  0  0
 15 32  1  0  0  0  0
 15 33  1  0  0  0  0
M  END
> <PUBCHEM_COMPOUND_CID>
75536652

> <PUBCHEM_CONFORMER_RMSD>
0.6

> <PUBCHEM_CONFORMER_DIVERSEORDER>
1
75
49
69
121
158
146
10
171
144
64
154
62
162
167
68
118
156
145
44
151
21
135
100
74
152
96
12
101
133
22
90
57
56
78
88
33
61
130
54
110
111
172
165
92
150
157
125
164
9
161
53
163
93
170
73
113
51
77
80
37
31
83
159
60
35
82
67
137
13
55
3
72
139
105
126
63
58
109
168
147
155
166
17
123
15
45
129
32
70
30
26
23
98
28
50
149
138
136
85
36
25
20
5
76
18
16
124
41
114
160
29
38
99
169
84
106
116
27
52
140
103
81
104
87
65
148
142
141
131
59
19
79
102
86
119
95
14
46
115
117
24
6
34
128
122
112
42
120
71
89
91
40
143
108
153
132
8
47
7
134
107
11
43
127
39
2
97
4
94
48
66

> <PUBCHEM_MMFF94_PARTIAL_CHARGES>
17
1 1.33
10 0.28
11 0.28
12 0.36
13 0.27
14 0.27
15 0.11
2 -0.56
23 0.4
24 0.42
3 -0.68
4 -0.65
5 -0.65
6 -0.81
7 -0.91
8 0.27
9 0.28

> <PUBCHEM_EFFECTIVE_ROTOR_COUNT>
5

> <PUBCHEM_PHARMACOPHORE_FEATURES>
8
1 2 acceptor
1 3 acceptor
1 3 donor
1 4 acceptor
1 5 acceptor
1 6 cation
1 7 donor
5 2 8 9 10 11 rings

> <PUBCHEM_HEAVY_ATOM_COUNT>
15

> <PUBCHEM_ATOM_DEF_STEREO_COUNT>
3

> <PUBCHEM_ATOM_UDEF_STEREO_COUNT>
0

> <PUBCHEM_BOND_DEF_STEREO_COUNT>
0

> <PUBCHEM_BOND_UDEF_STEREO_COUNT>
0

> <PUBCHEM_ISOTOPIC_ATOM_COUNT>
0

> <PUBCHEM_COMPONENT_COUNT>
1

> <PUBCHEM_CACTVS_TAUTO_COUNT>
1

> <PUBCHEM_CONFORMER_ID>
0480990C00000001

> <PUBCHEM_MMFF94_ENERGY>
29.657

> <PUBCHEM_FEATURE_SELFOVERLAP>
40.614

> <PUBCHEM_SHAPE_FINGERPRINT>
11132069 177 18408322194275964088
11401426 45 18412538808372891297
12032990 46 18272932747737142067
12119455 92 13984657057860119595
14911166 2 18412256247048919173
14993402 34 18187359935348392189
15375358 24 18201717370937047570
18186145 218 17530683216702169678
200 152 16917348112915527362
20279233 1 17989490740635227274
20300324 65 18201717358099573009
20645476 183 17967530185971725283
20645477 56 18408322198476083336
20645477 70 17489874800289224558
20671657 53 17775568653922086993
20871999 31 18337669819116819063
21119208 17 18260269633607194492
22485316 2 17632855330423536062
23402539 116 18411410704973668325
23402655 69 18272649013190973780
23559900 14 18342455924776632874
2838139 119 16226867992459484519
474 4 17023754549374729484
4990 188 18131070415672916462
9709674 26 18342183245571613510

> <PUBCHEM_SHAPE_MULTIPOLES>
279.1
9.77
1.59
0.88
3.72
0.25
0.09
-0.59
1.85
-0.66
0.06
0.52
-0.04
0.21

> <PUBCHEM_SHAPE_SELFOVERLAP>
534.927

> <PUBCHEM_SHAPE_VOLUME>
174.5

> <PUBCHEM_COORDINATE_TYPE>
2
5
10

$$$$
