11865554
  -OEChem-12032416123D

 54 57  0     1  0  0  0  0  0999 V2000
   -0.9490    1.3285    0.9564 O   0  0  0  0  0  0  0  0  0  0  0  0
   -2.1621    3.6352   -0.6596 O   0  0  0  0  0  0  0  0  0  0  0  0
    1.2341    2.5905   -0.2046 O   0  0  0  0  0  0  0  0  0  0  0  0
   -5.6624    0.6064    1.3794 O   0  0  0  0  0  0  0  0  0  0  0  0
    1.6166    0.5839   -1.2330 O   0  0  0  0  0  0  0  0  0  0  0  0
   -3.7923    0.4218    0.0203 N   0  0  0  0  0  0  0  0  0  0  0  0
    3.1796    1.5344    0.2279 N   0  0  0  0  0  0  0  0  0  0  0  0
   -6.6367   -3.3725    0.6135 N   0  0  0  0  0  0  0  0  0  0  0  0
   -5.4506   -3.1164   -1.4685 N   0  0  0  0  0  0  0  0  0  0  0  0
   -2.3261    2.2054   -0.7634 C   0  0  1  0  0  0  0  0  0  0  0  0
   -0.9776    1.5852   -0.4576 C   0  0  1  0  0  0  0  0  0  0  0  0
   -3.2167    1.7031    0.3490 C   0  0  2  0  0  0  0  0  0  0  0  0
   -0.0175    2.6836   -0.8465 C   0  0  1  0  0  0  0  0  0  0  0  0
   -2.2465    1.5911    1.5125 C   0  0  0  0  0  0  0  0  0  0  0  0
   -0.7744    3.9278   -0.4399 C   0  0  0  0  0  0  0  0  0  0  0  0
   -4.9849   -0.0244    0.5722 C   0  0  0  0  0  0  0  0  0  0  0  0
    1.9920    1.4698   -0.4748 C   0  0  0  0  0  0  0  0  0  0  0  0
   -5.4304   -1.3778    0.1516 C   0  0  0  0  0  0  0  0  0  0  0  0
    4.2371    0.5965    0.2379 C   0  0  0  0  0  0  0  0  0  0  0  0
   -6.2146   -2.1396    0.9630 C   0  0  0  0  0  0  0  0  0  0  0  0
   -5.0650   -1.8913   -1.0553 C   0  0  0  0  0  0  0  0  0  0  0  0
    7.4268   -2.2315    0.2686 C   0  0  0  0  0  0  0  0  0  0  0  0
    6.3109   -1.2419    0.2579 C   0  0  0  0  0  0  0  0  0  0  0  0
    5.3569    0.8443    1.0159 C   0  0  0  0  0  0  0  0  0  0  0  0
    4.1337   -0.5522   -0.5302 C   0  0  0  0  0  0  0  0  0  0  0  0
    6.4007   -0.0811    1.0259 C   0  0  0  0  0  0  0  0  0  0  0  0
    5.1773   -1.4775   -0.5201 C   0  0  0  0  0  0  0  0  0  0  0  0
    6.9922   -3.6032    0.8182 C   0  0  0  0  0  0  0  0  0  0  0  0
    8.0726   -2.4055   -1.1191 C   0  0  0  0  0  0  0  0  0  0  0  0
   -6.2238   -3.7925   -0.5975 C   0  0  0  0  0  0  0  0  0  0  0  0
   -2.6878    1.9850   -1.7729 H   0  0  0  0  0  0  0  0  0  0  0  0
   -0.8241    0.6333   -0.9728 H   0  0  0  0  0  0  0  0  0  0  0  0
   -4.0251    2.4001    0.5948 H   0  0  0  0  0  0  0  0  0  0  0  0
    0.1184    2.6978   -1.9364 H   0  0  0  0  0  0  0  0  0  0  0  0
   -2.4994    0.8023    2.2275 H   0  0  0  0  0  0  0  0  0  0  0  0
   -2.1777    2.5394    2.0567 H   0  0  0  0  0  0  0  0  0  0  0  0
   -0.4857    4.8019   -1.0313 H   0  0  0  0  0  0  0  0  0  0  0  0
   -0.6280    4.1778    0.6169 H   0  0  0  0  0  0  0  0  0  0  0  0
   -3.2395   -0.1980   -0.5631 H   0  0  0  0  0  0  0  0  0  0  0  0
    3.3117    2.3574    0.8109 H   0  0  0  0  0  0  0  0  0  0  0  0
   -6.5459   -1.8072    1.9405 H   0  0  0  0  0  0  0  0  0  0  0  0
   -4.4664   -1.3555   -1.7827 H   0  0  0  0  0  0  0  0  0  0  0  0
    8.2188   -1.8657    0.9364 H   0  0  0  0  0  0  0  0  0  0  0  0
    5.4369    1.7453    1.6178 H   0  0  0  0  0  0  0  0  0  0  0  0
    3.2896   -0.8031   -1.1560 H   0  0  0  0  0  0  0  0  0  0  0  0
    7.2765    0.1181    1.6378 H   0  0  0  0  0  0  0  0  0  0  0  0
    5.0874   -2.3754   -1.1255 H   0  0  0  0  0  0  0  0  0  0  0  0
    6.2532   -4.0883    0.1714 H   0  0  0  0  0  0  0  0  0  0  0  0
    7.8542   -4.2741    0.9009 H   0  0  0  0  0  0  0  0  0  0  0  0
    6.5494   -3.5002    1.8152 H   0  0  0  0  0  0  0  0  0  0  0  0
    8.4073   -1.4406   -1.5161 H   0  0  0  0  0  0  0  0  0  0  0  0
    8.9457   -3.0641   -1.0561 H   0  0  0  0  0  0  0  0  0  0  0  0
    7.3767   -2.8429   -1.8429 H   0  0  0  0  0  0  0  0  0  0  0  0
   -6.5480   -4.7795   -0.9037 H   0  0  0  0  0  0  0  0  0  0  0  0
  1 11  1  0  0  0  0
  1 14  1  0  0  0  0
  2 10  1  0  0  0  0
  2 15  1  0  0  0  0
  3 13  1  0  0  0  0
  3 17  1  0  0  0  0
  4 16  2  0  0  0  0
  5 17  2  0  0  0  0
  6 12  1  0  0  0  0
  6 16  1  0  0  0  0
  6 39  1  0  0  0  0
  7 17  1  0  0  0  0
  7 19  1  0  0  0  0
  7 40  1  0  0  0  0
  8 20  2  0  0  0  0
  8 30  1  0  0  0  0
  9 21  1  0  0  0  0
  9 30  2  0  0  0  0
 10 11  1  0  0  0  0
 10 12  1  0  0  0  0
 10 31  1  0  0  0  0
 11 13  1  0  0  0  0
 11 32  1  0  0  0  0
 12 14  1  0  0  0  0
 12 33  1  0  0  0  0
 13 15  1  0  0  0  0
 13 34  1  0  0  0  0
 14 35  1  0  0  0  0
 14 36  1  0  0  0  0
 15 37  1  0  0  0  0
 15 38  1  0  0  0  0
 16 18  1  0  0  0  0
 18 20  1  0  0  0  0
 18 21  2  0  0  0  0
 19 24  2  0  0  0  0
 19 25  1  0  0  0  0
 20 41  1  0  0  0  0
 21 42  1  0  0  0  0
 22 23  1  0  0  0  0
 22 28  1  0  0  0  0
 22 29  1  0  0  0  0
 22 43  1  0  0  0  0
 23 26  2  0  0  0  0
 23 27  1  0  0  0  0
 24 26  1  0  0  0  0
 24 44  1  0  0  0  0
 25 27  2  0  0  0  0
 25 45  1  0  0  0  0
 26 46  1  0  0  0  0
 27 47  1  0  0  0  0
 28 48  1  0  0  0  0
 28 49  1  0  0  0  0
 28 50  1  0  0  0  0
 29 51  1  0  0  0  0
 29 52  1  0  0  0  0
 29 53  1  0  0  0  0
 30 54  1  0  0  0  0
M  END
> <PUBCHEM_COMPOUND_CID>
11865554

> <PUBCHEM_CONFORMER_RMSD>
1

> <PUBCHEM_CONFORMER_DIVERSEORDER>
1
8
4
18
14
9
5
10
33
17
28
29
25
23
3
7
15
32
30
13
22
24
16
19
2
20
11
27
12
21
31
6
26

> <PUBCHEM_MMFF94_PARTIAL_CHARGES>
37
1 -0.56
10 0.28
11 0.28
12 0.3
13 0.28
14 0.28
15 0.28
16 0.54
17 0.78
18 0.09
19 0.12
2 -0.56
20 0.16
21 0.16
22 0.14
23 -0.14
24 -0.15
25 -0.15
26 -0.15
27 -0.15
3 -0.43
30 0.47
39 0.37
4 -0.57
40 0.37
41 0.15
42 0.15
44 0.15
45 0.15
46 0.15
47 0.15
5 -0.57
54 0.15
6 -0.73
7 -0.55
8 -0.62
9 -0.62

> <PUBCHEM_EFFECTIVE_ROTOR_COUNT>
9.2

> <PUBCHEM_PHARMACOPHORE_FEATURES>
13
1 1 acceptor
1 2 acceptor
1 4 acceptor
1 5 acceptor
1 6 donor
1 7 donor
1 8 acceptor
3 22 28 29 hydrophobe
3 8 9 30 cation
5 1 10 11 12 14 rings
5 2 10 11 13 15 rings
6 19 23 24 25 26 27 rings
6 8 9 18 20 21 30 rings

> <PUBCHEM_HEAVY_ATOM_COUNT>
30

> <PUBCHEM_ATOM_DEF_STEREO_COUNT>
4

> <PUBCHEM_ATOM_UDEF_STEREO_COUNT>
0

> <PUBCHEM_BOND_DEF_STEREO_COUNT>
0

> <PUBCHEM_BOND_UDEF_STEREO_COUNT>
0

> <PUBCHEM_ISOTOPIC_ATOM_COUNT>
0

> <PUBCHEM_COMPONENT_COUNT>
1

> <PUBCHEM_CACTVS_TAUTO_COUNT>
4

> <PUBCHEM_CONFORMER_ID>
00B50DD200000001

> <PUBCHEM_MMFF94_ENERGY>
89.4272

> <PUBCHEM_FEATURE_SELFOVERLAP>
66.689

> <PUBCHEM_SHAPE_FINGERPRINT>
10280341 67 8502368872496662518
10622 236 18338517555698682525
10939801 23 17914052255589463724
11135609 201 9439410155529656949
11463208 1 18055361228458368462
11475781 23 8070026684365810762
11478447 58 16689327289760025326
11497681 19 18408889551425377492
117089 54 18335989743463693530
11761917 116 18409737270616622086
12174731 88 18342454894079992999
12422481 6 17632583759863041287
12522641 68 17539116260893861717
13540713 5 18189919611119433405
1361 4 18265335190713294650
13782708 43 18341888568197133896
13885169 86 10231758911491533843
13944108 23 8428947947873451135
13947947 140 18272374139595249975
14344974 204 18340487777452050934
14671636 106 18411421718277572150
15064981 113 13767917993362503800
15152005 304 18335996366435782635
15183329 4 14129056997772467508
15361156 5 17896617115082852268
15950262 2 8214142971346698360
16120349 21 18342745087222420991
16126227 98 9367343752091557871
16992779 147 16485829506814541936
17492 89 18408602569836707268
17627616 140 17750223717149304011
19303781 99 18113621204800468547
20028762 73 18411138056498181230
2026 5 18411132576690000807
208703 8 18336540620717576875
21424621 283 9655578517288551788
21585483 132 18335688490337067651
229767 44 18059855116520493847
23522609 53 18048916027885933324
270888 7 9799699190116661917
2748736 6 9871751269411365502
2838139 119 8142090848976045585
32027 91 18267859670243923229
3504750 166 18340771455778243001
3610482 184 15069163586465247077
3711267 37 12246808596710311978
392239 28 16630243705601190065
393628 179 7997391768860599038
393628 194 10015572909252538555
397830 11 18272078389107129328
406291 66 18410574015348980987
474113 269 18341885347278156527
5104073 3 17846225513718569073
563151 74 14692579809747387134
5718773 13 18408884048791224378
5719381 36 18115578241715953506
5776283 40 8214135244875158623
5874358 3 16806428238399207562
6201460 15 17768240568275516247
636775 8 18270409270674783078
6712543 237 16559039302680297975
7970288 3 18336825389828403167
8863177 126 18412823561047841912
96874 4 18270677688191524455

> <PUBCHEM_SHAPE_MULTIPOLES>
568.12
23.33
5.1
1.21
18.52
1.15
-0.06
32.07
-2.41
-4.97
1.01
-0.4
0.17
-0.52

> <PUBCHEM_SHAPE_SELFOVERLAP>
1226.889

> <PUBCHEM_SHAPE_VOLUME>
309.6

> <PUBCHEM_COORDINATE_TYPE>
2
5
10

$$$$
