38029578
  -OEChem-12032416413D

 52 53  0     1  0  0  0  0  0999 V2000
   -1.8295   -0.6139    1.4706 S   0  0  0  0  0  0  0  0  0  0  0  0
   -5.7968    1.8153   -0.6483 F   0  0  0  0  0  0  0  0  0  0  0  0
    5.0478   -1.8058    2.0997 O   0  0  0  0  0  0  0  0  0  0  0  0
    5.7974   -0.2631    0.6033 O   0  0  0  0  0  0  0  0  0  0  0  0
   -1.7218    0.6145    2.2344 O   0  0  0  0  0  0  0  0  0  0  0  0
   -1.7352   -1.8982    2.1377 O   0  0  0  0  0  0  0  0  0  0  0  0
   -0.7182   -0.5723    0.1798 N   0  0  0  0  0  0  0  0  0  0  0  0
    1.6629    1.2147   -0.1611 C   0  0  1  0  0  0  0  0  0  0  0  0
    0.7034    0.7690   -1.2928 C   0  0  1  0  0  0  0  0  0  0  0  0
    3.1250    1.0130   -0.5874 C   0  0  0  0  0  0  0  0  0  0  0  0
    3.4325   -0.4550   -0.9381 C   0  0  2  0  0  0  0  0  0  0  0  0
    1.4351    2.6768    0.2350 C   0  0  0  0  0  0  0  0  0  0  0  0
    2.3749   -1.0506   -1.8452 C   0  0  0  0  0  0  0  0  0  0  0  0
    1.1660   -0.4824   -2.0015 C   0  0  0  0  0  0  0  0  0  0  0  0
   -0.7189    0.5586   -0.7611 C   0  0  0  0  0  0  0  0  0  0  0  0
    3.6086   -1.3003    0.3282 C   0  0  0  0  0  0  0  0  0  0  0  0
    2.1506    3.6090   -0.7374 C   0  0  0  0  0  0  0  0  0  0  0  0
    1.9071    2.9206    1.6648 C   0  0  0  0  0  0  0  0  0  0  0  0
    2.7550   -2.2910   -2.6049 C   0  0  0  0  0  0  0  0  0  0  0  0
    4.9339   -1.0386    0.9851 C   0  0  0  0  0  0  0  0  0  0  0  0
   -3.3760   -0.5893    0.6146 C   0  0  0  0  0  0  0  0  0  0  0  0
   -3.9880    0.6277    0.3150 C   0  0  0  0  0  0  0  0  0  0  0  0
   -3.9845   -1.7870    0.2395 C   0  0  0  0  0  0  0  0  0  0  0  0
   -5.2087    0.6469   -0.3598 C   0  0  0  0  0  0  0  0  0  0  0  0
   -5.2052   -1.7678   -0.4352 C   0  0  0  0  0  0  0  0  0  0  0  0
   -5.8174   -0.5508   -0.7349 C   0  0  0  0  0  0  0  0  0  0  0  0
    1.4757    0.5918    0.7218 H   0  0  0  0  0  0  0  0  0  0  0  0
    0.6517    1.5527   -2.0591 H   0  0  0  0  0  0  0  0  0  0  0  0
    3.8144    1.3695    0.1845 H   0  0  0  0  0  0  0  0  0  0  0  0
    3.3464    1.5870   -1.4965 H   0  0  0  0  0  0  0  0  0  0  0  0
    4.3771   -0.4516   -1.5005 H   0  0  0  0  0  0  0  0  0  0  0  0
    0.3677    2.9187    0.2108 H   0  0  0  0  0  0  0  0  0  0  0  0
    0.4624   -0.9280   -2.7021 H   0  0  0  0  0  0  0  0  0  0  0  0
   -1.3974    0.3193   -1.5887 H   0  0  0  0  0  0  0  0  0  0  0  0
   -1.0959    1.4644   -0.2810 H   0  0  0  0  0  0  0  0  0  0  0  0
    2.8126   -1.1115    1.0555 H   0  0  0  0  0  0  0  0  0  0  0  0
    3.5937   -2.3687    0.0849 H   0  0  0  0  0  0  0  0  0  0  0  0
    1.8258    4.6404   -0.5515 H   0  0  0  0  0  0  0  0  0  0  0  0
    3.2381    3.6129   -0.6087 H   0  0  0  0  0  0  0  0  0  0  0  0
    1.9111    3.3943   -1.7830 H   0  0  0  0  0  0  0  0  0  0  0  0
    1.3728    2.2737    2.3690 H   0  0  0  0  0  0  0  0  0  0  0  0
    2.9798    2.7406    1.7858 H   0  0  0  0  0  0  0  0  0  0  0  0
    1.7127    3.9576    1.9599 H   0  0  0  0  0  0  0  0  0  0  0  0
    1.9758   -2.5938   -3.3128 H   0  0  0  0  0  0  0  0  0  0  0  0
    3.6701   -2.1185   -3.1808 H   0  0  0  0  0  0  0  0  0  0  0  0
    2.9237   -3.1318   -1.9262 H   0  0  0  0  0  0  0  0  0  0  0  0
   -0.3992   -1.4742   -0.1951 H   0  0  0  0  0  0  0  0  0  0  0  0
    5.9034   -1.6611    2.5571 H   0  0  0  0  0  0  0  0  0  0  0  0
   -3.5315    1.5725    0.5954 H   0  0  0  0  0  0  0  0  0  0  0  0
   -3.5222   -2.7459    0.4560 H   0  0  0  0  0  0  0  0  0  0  0  0
   -5.6784   -2.7002   -0.7288 H   0  0  0  0  0  0  0  0  0  0  0  0
   -6.7675   -0.5355   -1.2607 H   0  0  0  0  0  0  0  0  0  0  0  0
  1  5  2  0  0  0  0
  1  6  2  0  0  0  0
  1  7  1  0  0  0  0
  1 21  1  0  0  0  0
  2 24  1  0  0  0  0
  3 20  1  0  0  0  0
  3 48  1  0  0  0  0
  4 20  2  0  0  0  0
  7 15  1  0  0  0  0
  7 47  1  0  0  0  0
  8  9  1  0  0  0  0
  8 10  1  0  0  0  0
  8 12  1  0  0  0  0
  8 27  1  0  0  0  0
  9 14  1  0  0  0  0
  9 15  1  0  0  0  0
  9 28  1  0  0  0  0
 10 11  1  0  0  0  0
 10 29  1  0  0  0  0
 10 30  1  0  0  0  0
 11 13  1  0  0  0  0
 11 16  1  0  0  0  0
 11 31  1  0  0  0  0
 12 17  1  0  0  0  0
 12 18  1  0  0  0  0
 12 32  1  0  0  0  0
 13 14  2  0  0  0  0
 13 19  1  0  0  0  0
 14 33  1  0  0  0  0
 15 34  1  0  0  0  0
 15 35  1  0  0  0  0
 16 20  1  0  0  0  0
 16 36  1  0  0  0  0
 16 37  1  0  0  0  0
 17 38  1  0  0  0  0
 17 39  1  0  0  0  0
 17 40  1  0  0  0  0
 18 41  1  0  0  0  0
 18 42  1  0  0  0  0
 18 43  1  0  0  0  0
 19 44  1  0  0  0  0
 19 45  1  0  0  0  0
 19 46  1  0  0  0  0
 21 22  1  0  0  0  0
 21 23  2  0  0  0  0
 22 24  2  0  0  0  0
 22 49  1  0  0  0  0
 23 25  1  0  0  0  0
 23 50  1  0  0  0  0
 24 26  1  0  0  0  0
 25 26  2  0  0  0  0
 25 51  1  0  0  0  0
 26 52  1  0  0  0  0
M  END
> <PUBCHEM_COMPOUND_CID>
38029578

> <PUBCHEM_CONFORMER_RMSD>
1

> <PUBCHEM_CONFORMER_DIVERSEORDER>
1
143
59
135
61
150
6
71
136
112
29
66
54
158
83
109
119
58
35
85
5
130
163
47
101
134
26
102
118
133
140
164
63
14
50
121
24
44
152
46
39
100
75
28
142
159
45
108
69
125
111
145
97
95
93
52
11
90
62
113
92
43
18
10
49
89
165
106
110
30
86
53
56
126
40
81
116
37
105
98
154
156
141
78
8
122
160
120
48
99
76
96
2
51
42
41
127
60
94
3
55
149
15
115
132
17
88
74
9
107
32
139
7
87
147
68
36
57
82
114
128
144
137
77
65
25
67
70
138
34
151
157
123
155
129
20
27
38
33
131
148
80
13
146
23
153
117
16
21
103
104
19
91
22
31
4
162
73
84
64
12
124
72
161
79

> <PUBCHEM_MMFF94_PARTIAL_CHARGES>
28
1 1.45
11 0.14
13 -0.28
14 -0.29
15 0.36
16 0.06
19 0.14
2 -0.19
20 0.66
21 -0.01
22 -0.15
23 -0.15
24 0.19
25 -0.15
26 -0.15
3 -0.65
33 0.15
4 -0.57
47 0.42
48 0.5
49 0.15
5 -0.65
50 0.15
51 0.15
52 0.15
6 -0.65
7 -0.91
9 0.14

> <PUBCHEM_EFFECTIVE_ROTOR_COUNT>
7.8

> <PUBCHEM_PHARMACOPHORE_FEATURES>
9
1 3 acceptor
1 4 acceptor
1 5 acceptor
1 6 acceptor
1 7 donor
3 12 17 18 hydrophobe
3 3 4 20 anion
6 21 22 23 24 25 26 rings
6 8 9 10 11 13 14 rings

> <PUBCHEM_HEAVY_ATOM_COUNT>
26

> <PUBCHEM_ATOM_DEF_STEREO_COUNT>
3

> <PUBCHEM_ATOM_UDEF_STEREO_COUNT>
0

> <PUBCHEM_BOND_DEF_STEREO_COUNT>
0

> <PUBCHEM_BOND_UDEF_STEREO_COUNT>
0

> <PUBCHEM_ISOTOPIC_ATOM_COUNT>
0

> <PUBCHEM_COMPONENT_COUNT>
1

> <PUBCHEM_CACTVS_TAUTO_COUNT>
1

> <PUBCHEM_CONFORMER_ID>
0244490A00000001

> <PUBCHEM_MMFF94_ENERGY>
40.3354

> <PUBCHEM_FEATURE_SELFOVERLAP>
45.746

> <PUBCHEM_SHAPE_FINGERPRINT>
10369192 42 10087630508038640098
11405975 8 18412270553843575049
11796584 16 17749403554779375162
11828532 37 18114747144416538327
12549972 3 17605005877771525833
12633257 1 18341063955297264017
12895836 83 9942938102318032682
13083527 12 17988645219866241640
13224815 77 15123245333514496439
13583140 156 18120948466409872675
14251764 38 18411987996456562557
14341114 328 12895070704400033991
14466204 15 18337106753051438197
14840074 17 13542452181593317531
14955137 171 17989210361075721852
15183329 4 16153429428274784230
15301273 46 18060416881753537054
15961568 22 13038904451774710714
17349148 13 17632590369722717907
18222031 100 18130518461379033694
192875 21 17704082789019609057
20465049 17 13118005482824024416
20645477 70 18270976759152861613
20832881 197 18040712532911937832
21315764 371 15626225740549873535
23559900 14 18188489197924873505
2637199 183 12612755726317046176
3411729 13 18268145547499380288
4098825 35 12180432144412990638
4325135 7 12391509784973523153
5104073 3 18341621472939754945
633830 44 12540991753586937094
67856867 119 18129377258245544553
7615 1 17201390475305333273
8509985 295 18260264140396958906

> <PUBCHEM_SHAPE_MULTIPOLES>
503.19
12.53
2.95
2.08
10.52
2.22
-0.38
-3.94
-1.14
-2.34
0.33
-1.57
-0.89
0.34

> <PUBCHEM_SHAPE_SELFOVERLAP>
1026.919

> <PUBCHEM_SHAPE_VOLUME>
293.2

> <PUBCHEM_COORDINATE_TYPE>
2
5
10

$$$$
