45360893
  -OEChem-12032416403D

 66 69  0     1  0  0  0  0  0999 V2000
   -1.9876   -1.3217   -1.0288 O   0  0  0  0  0  0  0  0  0  0  0  0
    3.5937    2.1236   -0.4784 O   0  0  0  0  0  0  0  0  0  0  0  0
   -4.0497   -0.1560    0.2678 N   0  0  1  0  0  0  0  0  0  0  0  0
   -1.1524    2.0350    0.7104 N   0  0  1  0  0  0  0  0  0  0  0  0
   -1.1088    0.6397   -1.8143 N   0  0  0  0  0  0  0  0  0  0  0  0
    3.4683   -0.1523    0.0236 N   0  0  0  0  0  0  0  0  0  0  0  0
   -2.6043    1.7578    0.6415 C   0  0  1  0  0  0  0  0  0  0  0  0
   -3.1166    0.7495   -0.4285 C   0  0  1  0  0  0  0  0  0  0  0  0
   -3.1911    1.1731    1.9399 C   0  0  0  0  0  0  0  0  0  0  0  0
   -4.4812    0.5255    1.4831 C   0  0  0  0  0  0  0  0  0  0  0  0
   -0.5895    2.6796   -0.5089 C   0  0  2  0  0  0  0  0  0  0  0  0
   -5.1767   -0.5704   -0.5581 C   0  0  0  0  0  0  0  0  0  0  0  0
   -2.0315   -0.0939   -1.0930 C   0  0  0  0  0  0  0  0  0  0  0  0
   -5.8202   -1.9117   -0.1225 C   0  0  0  0  0  0  0  0  0  0  0  0
   -1.0856    2.0886   -1.8431 C   0  0  0  0  0  0  0  0  0  0  0  0
    0.9508    2.5885   -0.5052 C   0  0  0  0  0  0  0  0  0  0  0  0
   -0.8276    2.8325    1.9051 C   0  0  0  0  0  0  0  0  0  0  0  0
    1.4351    1.1820   -0.2108 C   0  0  0  0  0  0  0  0  0  0  0  0
   -6.9665   -2.3030   -1.0717 C   0  0  0  0  0  0  0  0  0  0  0  0
   -4.7799   -3.0453   -0.0901 C   0  0  0  0  0  0  0  0  0  0  0  0
   -6.3946   -1.7341    1.2958 C   0  0  0  0  0  0  0  0  0  0  0  0
    2.9435    1.1062   -0.2373 C   0  0  0  0  0  0  0  0  0  0  0  0
    2.6853   -1.3721    0.3126 C   0  0  0  0  0  0  0  0  0  0  0  0
    4.8383   -0.4861    0.0569 C   0  0  0  0  0  0  0  0  0  0  0  0
    3.6750   -2.5192    0.5432 C   0  0  0  0  0  0  0  0  0  0  0  0
    4.9925   -1.8421    0.3526 C   0  0  0  0  0  0  0  0  0  0  0  0
    5.9466    0.3210   -0.1543 C   0  0  0  0  0  0  0  0  0  0  0  0
    6.2489   -2.4217    0.4441 C   0  0  0  0  0  0  0  0  0  0  0  0
    7.2175   -0.2557   -0.0644 C   0  0  0  0  0  0  0  0  0  0  0  0
    7.3684   -1.6172    0.2328 C   0  0  0  0  0  0  0  0  0  0  0  0
   -3.1279    2.7101    0.4643 H   0  0  0  0  0  0  0  0  0  0  0  0
   -3.6492    1.3084   -1.2096 H   0  0  0  0  0  0  0  0  0  0  0  0
   -2.5202    0.4172    2.3702 H   0  0  0  0  0  0  0  0  0  0  0  0
   -3.3793    1.9423    2.6962 H   0  0  0  0  0  0  0  0  0  0  0  0
   -5.2388    1.2950    1.2879 H   0  0  0  0  0  0  0  0  0  0  0  0
   -4.8205   -0.1160    2.2924 H   0  0  0  0  0  0  0  0  0  0  0  0
   -0.8616    3.7442   -0.5216 H   0  0  0  0  0  0  0  0  0  0  0  0
   -5.9360    0.2210   -0.6262 H   0  0  0  0  0  0  0  0  0  0  0  0
   -4.8247   -0.7211   -1.5888 H   0  0  0  0  0  0  0  0  0  0  0  0
   -0.4443    2.3862   -2.6803 H   0  0  0  0  0  0  0  0  0  0  0  0
   -2.0872    2.4611   -2.0802 H   0  0  0  0  0  0  0  0  0  0  0  0
    1.3469    2.9326   -1.4700 H   0  0  0  0  0  0  0  0  0  0  0  0
    1.3668    3.2875    0.2307 H   0  0  0  0  0  0  0  0  0  0  0  0
   -0.4069    0.1329   -2.3448 H   0  0  0  0  0  0  0  0  0  0  0  0
   -1.3388    3.8018    1.8955 H   0  0  0  0  0  0  0  0  0  0  0  0
   -1.0970    2.3057    2.8259 H   0  0  0  0  0  0  0  0  0  0  0  0
    0.2461    3.0143    2.0032 H   0  0  0  0  0  0  0  0  0  0  0  0
    1.0928    0.4706   -0.9592 H   0  0  0  0  0  0  0  0  0  0  0  0
    1.1045    0.8493    0.7778 H   0  0  0  0  0  0  0  0  0  0  0  0
   -7.7460   -1.5331   -1.0846 H   0  0  0  0  0  0  0  0  0  0  0  0
   -6.6006   -2.4249   -2.0973 H   0  0  0  0  0  0  0  0  0  0  0  0
   -7.4330   -3.2477   -0.7707 H   0  0  0  0  0  0  0  0  0  0  0  0
   -3.9715   -2.8439    0.6209 H   0  0  0  0  0  0  0  0  0  0  0  0
   -5.2432   -3.9939    0.2049 H   0  0  0  0  0  0  0  0  0  0  0  0
   -4.3291   -3.1899   -1.0783 H   0  0  0  0  0  0  0  0  0  0  0  0
   -5.6437   -1.8821    2.0762 H   0  0  0  0  0  0  0  0  0  0  0  0
   -7.1476   -2.5088    1.4928 H   0  0  0  0  0  0  0  0  0  0  0  0
   -6.9065   -0.7747    1.4245 H   0  0  0  0  0  0  0  0  0  0  0  0
    2.0230   -1.5830   -0.5343 H   0  0  0  0  0  0  0  0  0  0  0  0
    2.0630   -1.1996    1.1977 H   0  0  0  0  0  0  0  0  0  0  0  0
    3.5287   -3.3194   -0.1888 H   0  0  0  0  0  0  0  0  0  0  0  0
    3.5796   -2.9245    1.5552 H   0  0  0  0  0  0  0  0  0  0  0  0
    5.8676    1.3760   -0.3856 H   0  0  0  0  0  0  0  0  0  0  0  0
    6.3642   -3.4755    0.6745 H   0  0  0  0  0  0  0  0  0  0  0  0
    8.0995    0.3584   -0.2265 H   0  0  0  0  0  0  0  0  0  0  0  0
    8.3640   -2.0470    0.2987 H   0  0  0  0  0  0  0  0  0  0  0  0
  1 13  2  0  0  0  0
  2 22  2  0  0  0  0
  3  8  1  0  0  0  0
  3 10  1  0  0  0  0
  3 12  1  0  0  0  0
  4  7  1  0  0  0  0
  4 11  1  0  0  0  0
  4 17  1  0  0  0  0
  5 13  1  0  0  0  0
  5 15  1  0  0  0  0
  5 44  1  0  0  0  0
  6 22  1  0  0  0  0
  6 23  1  0  0  0  0
  6 24  1  0  0  0  0
  7  8  1  0  0  0  0
  7  9  1  0  0  0  0
  7 31  1  0  0  0  0
  8 13  1  0  0  0  0
  8 32  1  0  0  0  0
  9 10  1  0  0  0  0
  9 33  1  0  0  0  0
  9 34  1  0  0  0  0
 10 35  1  0  0  0  0
 10 36  1  0  0  0  0
 11 15  1  0  0  0  0
 11 16  1  0  0  0  0
 11 37  1  0  0  0  0
 12 14  1  0  0  0  0
 12 38  1  0  0  0  0
 12 39  1  0  0  0  0
 14 19  1  0  0  0  0
 14 20  1  0  0  0  0
 14 21  1  0  0  0  0
 15 40  1  0  0  0  0
 15 41  1  0  0  0  0
 16 18  1  0  0  0  0
 16 42  1  0  0  0  0
 16 43  1  0  0  0  0
 17 45  1  0  0  0  0
 17 46  1  0  0  0  0
 17 47  1  0  0  0  0
 18 22  1  0  0  0  0
 18 48  1  0  0  0  0
 18 49  1  0  0  0  0
 19 50  1  0  0  0  0
 19 51  1  0  0  0  0
 19 52  1  0  0  0  0
 20 53  1  0  0  0  0
 20 54  1  0  0  0  0
 20 55  1  0  0  0  0
 21 56  1  0  0  0  0
 21 57  1  0  0  0  0
 21 58  1  0  0  0  0
 23 25  1  0  0  0  0
 23 59  1  0  0  0  0
 23 60  1  0  0  0  0
 24 26  1  0  0  0  0
 24 27  2  0  0  0  0
 25 26  1  0  0  0  0
 25 61  1  0  0  0  0
 25 62  1  0  0  0  0
 26 28  2  0  0  0  0
 27 29  1  0  0  0  0
 27 63  1  0  0  0  0
 28 30  1  0  0  0  0
 28 64  1  0  0  0  0
 29 30  2  0  0  0  0
 29 65  1  0  0  0  0
 30 66  1  0  0  0  0
M  END
> <PUBCHEM_COMPOUND_CID>
45360893

> <PUBCHEM_CONFORMER_RMSD>
1

> <PUBCHEM_CONFORMER_DIVERSEORDER>
1
9
22
44
36
40
101
79
65
51
104
37
2
108
69
55
31
32
41
13
100
56
85
81
98
26
106
24
89
62
97
39
91
34
61
107
23
80
77
28
76
105
86
30
68
14
25
70
47
54
43
110
12
75
64
72
60
29
3
19
67
109
66
48
94
53
7
103
95
90
15
45
42
10
4
99
57
5
50
18
16
93
49
74
73
20
84
111
6
11
59
82
58
33
112
92
38
27
8
35
83
102
78
71
17
21
96
88
87
46
63
52

> <PUBCHEM_MMFF94_PARTIAL_CHARGES>
29
1 -0.57
10 0.27
11 0.27
12 0.27
13 0.57
15 0.3
17 0.27
18 0.06
2 -0.57
22 0.57
23 0.3
24 0.12
25 0.14
26 -0.14
27 -0.15
28 -0.15
29 -0.15
3 -0.81
30 -0.15
4 -0.81
44 0.37
5 -0.73
6 -0.48
63 0.15
64 0.15
65 0.15
66 0.15
7 0.27
8 0.33

> <PUBCHEM_EFFECTIVE_ROTOR_COUNT>
8

> <PUBCHEM_PHARMACOPHORE_FEATURES>
10
1 1 acceptor
1 2 acceptor
1 3 cation
1 4 cation
1 5 donor
4 14 19 20 21 hydrophobe
5 3 7 8 9 10 rings
5 6 23 24 25 26 rings
6 24 26 27 28 29 30 rings
7 4 5 7 8 11 13 15 rings

> <PUBCHEM_HEAVY_ATOM_COUNT>
30

> <PUBCHEM_ATOM_DEF_STEREO_COUNT>
3

> <PUBCHEM_ATOM_UDEF_STEREO_COUNT>
0

> <PUBCHEM_BOND_DEF_STEREO_COUNT>
0

> <PUBCHEM_BOND_UDEF_STEREO_COUNT>
0

> <PUBCHEM_ISOTOPIC_ATOM_COUNT>
0

> <PUBCHEM_COMPONENT_COUNT>
1

> <PUBCHEM_CACTVS_TAUTO_COUNT>
3

> <PUBCHEM_CONFORMER_ID>
02B426FD00000001

> <PUBCHEM_MMFF94_ENERGY>
99.1885

> <PUBCHEM_FEATURE_SELFOVERLAP>
50.868

> <PUBCHEM_SHAPE_FINGERPRINT>
10939801 23 18129660937125702724
11456790 92 18129958879476967171
117089 54 18044946907364162451
11963148 33 18262513668696119570
12107183 9 18339652131577158993
12166972 35 18187085087063302844
12596602 18 18060702796982542704
12633257 1 15625935490923204809
12760667 363 18411979183082976775
12895836 83 11241969295991996917
12895837 130 8718531831370796098
13103583 49 18201450146630410833
13533116 47 18339924938739802953
13631057 29 18409727336029640242
13690498 29 17967244287505383893
13782708 43 17821725035591213130
14251764 30 18408320012137113607
14394314 77 18343306937691394545
14705955 166 15698013915969640203
14950920 106 17846780706317319833
15064986 96 17130434484096316879
15361156 5 17676499297716694660
15510800 12 17749679592200506115
15728490 51 18341893026589574966
15927050 60 17550384476760657196
16728300 4 18272086085340370767
17780758 139 18130505245348205145
19246450 95 18127712465356910761
19315092 285 18272656770266498960
19319366 153 17837775895144152780
19841028 212 18336542823967176331
19958102 18 15574714652013002138
20028762 73 18413389826358053686
20775530 9 18338218444953459478
21223535 225 14924216084755448303
21307412 95 17386008407884775955
21315759 148 17346041052919745086
21756936 100 9799683797038639557
23389318 12 18114186363353069276
23522609 53 18121251777412909700
23559900 14 18117835736839933761
25222932 49 18334574608433962510
2838139 119 9223226338816389234
392239 28 18131080350507583931
437815 12 18333729143683310287
439807 62 18408324410695425227
445580 204 8430316831212592206
4461854 278 18059583524332570750
44880568 143 16588299501406643189
46194498 28 17241041127934923268
474113 269 18130779093317566903
484985 159 18264201414263809653
5028188 123 18199481995964714644
508180 173 11602827891073019718
5104073 3 17989490735749878216
54039377 194 18409451363286370422
6431902 208 18334299751157550619
7288768 16 12103841267769546749
7970288 3 18409445873563791722
96874 4 18342172306432348239
9896288 288 17630899200316617273

> <PUBCHEM_SHAPE_MULTIPOLES>
585.72
18.98
3.56
1.41
12.05
0.01
0.18
-18.45
1.59
-1.4
0.22
-1.89
0.69
-1.61

> <PUBCHEM_SHAPE_SELFOVERLAP>
1235.614

> <PUBCHEM_SHAPE_VOLUME>
330.8

> <PUBCHEM_COORDINATE_TYPE>
2
5
10

$$$$
