75537010
  -OEChem-12032416313D

 49 52  0     1  0  0  0  0  0999 V2000
    2.7623    2.7128   -0.2947 O   0  0  0  0  0  0  0  0  0  0  0  0
   -4.1810    2.0080    0.0321 O   0  0  0  0  0  0  0  0  0  0  0  0
    2.4734    0.3772   -0.1475 N   0  0  0  0  0  0  0  0  0  0  0  0
    0.6507    1.6827   -0.2963 N   0  0  0  0  0  0  0  0  0  0  0  0
   -2.0012    1.2612    0.4209 N   0  0  0  0  0  0  0  0  0  0  0  0
    0.1341    0.3252   -0.3423 C   0  0  1  0  0  0  0  0  0  0  0  0
    3.8404   -0.0696   -0.0291 C   0  0  0  0  0  0  0  0  0  0  0  0
    1.3522   -0.5382   -0.0260 C   0  0  0  0  0  0  0  0  0  0  0  0
    4.0575   -0.8042    1.2964 C   0  0  0  0  0  0  0  0  0  0  0  0
    4.2228   -0.9486   -1.2223 C   0  0  0  0  0  0  0  0  0  0  0  0
   -1.0292    0.1708    0.6322 C   0  0  0  0  0  0  0  0  0  0  0  0
    2.0514    1.7171   -0.2552 C   0  0  0  0  0  0  0  0  0  0  0  0
   -0.2627    2.8077   -0.3989 C   0  0  0  0  0  0  0  0  0  0  0  0
    5.4842   -1.3331    1.4187 C   0  0  0  0  0  0  0  0  0  0  0  0
    5.6487   -1.4788   -1.0965 C   0  0  0  0  0  0  0  0  0  0  0  0
    5.8640   -2.2075    0.2270 C   0  0  0  0  0  0  0  0  0  0  0  0
   -1.4415    2.6136    0.5532 C   0  0  0  0  0  0  0  0  0  0  0  0
   -3.3635    1.0984    0.1648 C   0  0  0  0  0  0  0  0  0  0  0  0
   -3.8827   -0.2682    0.0262 C   0  0  0  0  0  0  0  0  0  0  0  0
   -4.3482   -0.9549    1.1475 C   0  0  0  0  0  0  0  0  0  0  0  0
   -3.9116   -0.8791   -1.2274 C   0  0  0  0  0  0  0  0  0  0  0  0
   -4.8426   -2.2527    1.0153 C   0  0  0  0  0  0  0  0  0  0  0  0
   -4.4061   -2.1766   -1.3598 C   0  0  0  0  0  0  0  0  0  0  0  0
   -4.8716   -2.8634   -0.2384 C   0  0  0  0  0  0  0  0  0  0  0  0
   -0.2035    0.1514   -1.3721 H   0  0  0  0  0  0  0  0  0  0  0  0
    4.4844    0.8192   -0.0400 H   0  0  0  0  0  0  0  0  0  0  0  0
    1.3142   -0.9244    0.9970 H   0  0  0  0  0  0  0  0  0  0  0  0
    1.4424   -1.3705   -0.7284 H   0  0  0  0  0  0  0  0  0  0  0  0
    3.8385   -0.1361    2.1382 H   0  0  0  0  0  0  0  0  0  0  0  0
    3.3742   -1.6573    1.3872 H   0  0  0  0  0  0  0  0  0  0  0  0
    3.5435   -1.8050   -1.3091 H   0  0  0  0  0  0  0  0  0  0  0  0
    4.1239   -0.3793   -2.1546 H   0  0  0  0  0  0  0  0  0  0  0  0
   -1.4834   -0.8156    0.5192 H   0  0  0  0  0  0  0  0  0  0  0  0
   -0.6883    0.2573    1.6714 H   0  0  0  0  0  0  0  0  0  0  0  0
   -0.6130    2.8385   -1.4369 H   0  0  0  0  0  0  0  0  0  0  0  0
    0.2705    3.7401   -0.1900 H   0  0  0  0  0  0  0  0  0  0  0  0
    5.5865   -1.9086    2.3457 H   0  0  0  0  0  0  0  0  0  0  0  0
    6.1810   -0.4887    1.4886 H   0  0  0  0  0  0  0  0  0  0  0  0
    6.3558   -0.6436   -1.1721 H   0  0  0  0  0  0  0  0  0  0  0  0
    5.8654   -2.1564   -1.9300 H   0  0  0  0  0  0  0  0  0  0  0  0
    6.9127   -2.5132    0.3133 H   0  0  0  0  0  0  0  0  0  0  0  0
    5.2615   -3.1241    0.2407 H   0  0  0  0  0  0  0  0  0  0  0  0
   -1.1112    2.7199    1.5935 H   0  0  0  0  0  0  0  0  0  0  0  0
   -2.2045    3.3757    0.3673 H   0  0  0  0  0  0  0  0  0  0  0  0
   -4.3299   -0.4883    2.1290 H   0  0  0  0  0  0  0  0  0  0  0  0
   -3.5505   -0.3531   -2.1074 H   0  0  0  0  0  0  0  0  0  0  0  0
   -5.2048   -2.7875    1.8884 H   0  0  0  0  0  0  0  0  0  0  0  0
   -4.4283   -2.6524   -2.3358 H   0  0  0  0  0  0  0  0  0  0  0  0
   -5.2563   -3.8737   -0.3415 H   0  0  0  0  0  0  0  0  0  0  0  0
  1 12  2  0  0  0  0
  2 18  2  0  0  0  0
  3  7  1  0  0  0  0
  3  8  1  0  0  0  0
  3 12  1  0  0  0  0
  4  6  1  0  0  0  0
  4 12  1  0  0  0  0
  4 13  1  0  0  0  0
  5 11  1  0  0  0  0
  5 17  1  0  0  0  0
  5 18  1  0  0  0  0
  6  8  1  0  0  0  0
  6 11  1  0  0  0  0
  6 25  1  0  0  0  0
  7  9  1  0  0  0  0
  7 10  1  0  0  0  0
  7 26  1  0  0  0  0
  8 27  1  0  0  0  0
  8 28  1  0  0  0  0
  9 14  1  0  0  0  0
  9 29  1  0  0  0  0
  9 30  1  0  0  0  0
 10 15  1  0  0  0  0
 10 31  1  0  0  0  0
 10 32  1  0  0  0  0
 11 33  1  0  0  0  0
 11 34  1  0  0  0  0
 13 17  1  0  0  0  0
 13 35  1  0  0  0  0
 13 36  1  0  0  0  0
 14 16  1  0  0  0  0
 14 37  1  0  0  0  0
 14 38  1  0  0  0  0
 15 16  1  0  0  0  0
 15 39  1  0  0  0  0
 15 40  1  0  0  0  0
 16 41  1  0  0  0  0
 16 42  1  0  0  0  0
 17 43  1  0  0  0  0
 17 44  1  0  0  0  0
 18 19  1  0  0  0  0
 19 20  2  0  0  0  0
 19 21  1  0  0  0  0
 20 22  1  0  0  0  0
 20 45  1  0  0  0  0
 21 23  2  0  0  0  0
 21 46  1  0  0  0  0
 22 24  2  0  0  0  0
 22 47  1  0  0  0  0
 23 24  1  0  0  0  0
 23 48  1  0  0  0  0
 24 49  1  0  0  0  0
M  END
> <PUBCHEM_COMPOUND_CID>
75537010

> <PUBCHEM_CONFORMER_RMSD>
0.8

> <PUBCHEM_CONFORMER_DIVERSEORDER>
1
26
8
12
27
25
10
5
21
33
28
13
34
14
31
4
17
19
2
15
18
30
23
3
22
24
16
11
29
6
35
20
7
32
9
36

> <PUBCHEM_MMFF94_PARTIAL_CHARGES>
24
1 -0.57
11 0.3
12 0.69
13 0.3
17 0.3
18 0.54
19 0.09
2 -0.57
20 -0.15
21 -0.15
22 -0.15
23 -0.15
24 -0.15
3 -0.66
4 -0.66
45 0.15
46 0.15
47 0.15
48 0.15
49 0.15
5 -0.66
6 0.3
7 0.3
8 0.3

> <PUBCHEM_EFFECTIVE_ROTOR_COUNT>
5.4

> <PUBCHEM_PHARMACOPHORE_FEATURES>
6
1 1 acceptor
1 2 acceptor
5 3 4 6 8 12 rings
6 19 20 21 22 23 24 rings
6 4 5 6 11 13 17 rings
6 7 9 10 14 15 16 rings

> <PUBCHEM_HEAVY_ATOM_COUNT>
24

> <PUBCHEM_ATOM_DEF_STEREO_COUNT>
1

> <PUBCHEM_ATOM_UDEF_STEREO_COUNT>
0

> <PUBCHEM_BOND_DEF_STEREO_COUNT>
0

> <PUBCHEM_BOND_UDEF_STEREO_COUNT>
0

> <PUBCHEM_ISOTOPIC_ATOM_COUNT>
0

> <PUBCHEM_COMPONENT_COUNT>
1

> <PUBCHEM_CACTVS_TAUTO_COUNT>
1

> <PUBCHEM_CONFORMER_ID>
04809A7200000001

> <PUBCHEM_MMFF94_ENERGY>
55.4009

> <PUBCHEM_FEATURE_SELFOVERLAP>
30.546

> <PUBCHEM_SHAPE_FINGERPRINT>
10 15 11743839183846642159
10074138 170 17273152188946527169
11405975 8 18413110550377913273
11545043 162 18059850641037385914
11607047 403 16479343615912056083
11796584 16 18339641131674679640
12166972 35 17676492786603997215
12403259 226 18410290328369121896
12422481 6 17417818330905143366
12969540 114 13767936719071780240
13009979 54 18343312460860905913
13167823 11 18410576210097491279
13540713 5 18337974353488696329
13583140 156 16199858488737739984
13782708 43 17916865713036209494
14251740 57 18269835466320704378
14251751 18 18272930518527965234
14848178 5 18411692205715083130
14848178 96 8862673381945267727
14950920 106 16128653076325569659
15163728 17 11314577680857124185
15188451 53 18059844069616317623
15348495 7 17703784817010159434
17138139 8 17822007631776357218
17349148 13 18186809071169554938
17492 89 18338800134191805271
17780758 139 17703516523572897219
17857418 61 18334290963870747074
18222031 100 18410571778118529206
18927931 339 18341615893308056959
193927 3 18411422834008921183
20028762 73 18272368706625638542
20691028 202 8357994289723310567
21033648 29 16986853672109921096
21267235 1 18409459076640880083
21968339 14 15502663754177280886
221490 88 18410580625313679397
22393880 68 17968083227535295181
2303208 19 17489311841798700478
23402539 116 18335138657091337818
23559900 14 18410567388103491840
249057 3 18335981966011072125
2838139 119 11386363777011474518
312423 11 18337685199046643813
312425 54 17632018546293510738
335352 9 18337392630749890437
4015057 19 16805617983553771612
44062 13 18334856091652129909
5104073 3 18343586256557248633
559249 180 18337951195736374285
59682541 52 13912591746156481138
6431902 208 18409164415656355778
76465 3 18409163333239623041
7970288 3 18338796822730718499
9709674 26 18262525925867241113

> <PUBCHEM_SHAPE_MULTIPOLES>
467.23
14.16
3.28
1.2
7.09
0.98
0.02
-12.97
0.5
-1.88
-0.17
0.24
-0.61
-0.6

> <PUBCHEM_SHAPE_SELFOVERLAP>
994.922

> <PUBCHEM_SHAPE_VOLUME>
257.8

> <PUBCHEM_COORDINATE_TYPE>
2
5
10

$$$$
