26743888
  -OEChem-12032416373D

 52 55  0     1  0  0  0  0  0999 V2000
   -2.5698   -3.2456   -0.3096 S   0  0  0  0  0  0  0  0  0  0  0  0
    6.3658    1.7229   -0.4030 O   0  0  0  0  0  0  0  0  0  0  0  0
    1.3800    1.3073   -1.2201 O   0  0  0  0  0  0  0  0  0  0  0  0
   -2.5964   -4.0598   -1.5171 O   0  0  0  0  0  0  0  0  0  0  0  0
   -3.1257   -3.7715    0.9290 O   0  0  0  0  0  0  0  0  0  0  0  0
    3.4969   -0.3699   -0.0017 N   0  0  1  0  0  0  0  0  0  0  0  0
    0.5125    1.4302    0.8411 N   0  0  0  0  0  0  0  0  0  0  0  0
    0.0224    1.6094   -1.3863 N   0  0  0  0  0  0  0  0  0  0  0  0
    2.9948    0.8970    0.5678 C   0  0  1  0  0  0  0  0  0  0  0  0
    4.0174    1.9602    0.1254 C   0  0  0  0  0  0  0  0  0  0  0  0
    5.0794    1.1884   -0.6477 C   0  0  2  0  0  0  0  0  0  0  0  0
    4.9470   -0.2262   -0.1166 C   0  0  0  0  0  0  0  0  0  0  0  0
    3.1222   -1.5401    0.7814 C   0  0  0  0  0  0  0  0  0  0  0  0
    1.5846    1.2189    0.1202 C   0  0  0  0  0  0  0  0  0  0  0  0
    1.7038   -1.9660    0.5094 C   0  0  0  0  0  0  0  0  0  0  0  0
    0.7800   -2.0213    1.5530 C   0  0  0  0  0  0  0  0  0  0  0  0
    1.3135   -2.3051   -0.7862 C   0  0  0  0  0  0  0  0  0  0  0  0
   -0.4202    1.6655   -0.1266 C   0  0  0  0  0  0  0  0  0  0  0  0
   -0.5339   -2.4159    1.3013 C   0  0  0  0  0  0  0  0  0  0  0  0
   -0.0003   -2.6997   -1.0380 C   0  0  0  0  0  0  0  0  0  0  0  0
   -0.9241   -2.7551    0.0057 C   0  0  0  0  0  0  0  0  0  0  0  0
   -1.7874    1.9525    0.1988 C   0  0  0  0  0  0  0  0  0  0  0  0
   -2.7125    2.1875   -0.8183 C   0  0  0  0  0  0  0  0  0  0  0  0
   -2.1916    1.9962    1.5332 C   0  0  0  0  0  0  0  0  0  0  0  0
   -3.4184   -1.7292   -0.6892 C   0  0  0  0  0  0  0  0  0  0  0  0
   -4.0419    2.4663   -0.5011 C   0  0  0  0  0  0  0  0  0  0  0  0
   -3.5209    2.2750    1.8503 C   0  0  0  0  0  0  0  0  0  0  0  0
   -4.4461    2.5102    0.8332 C   0  0  0  0  0  0  0  0  0  0  0  0
   -5.0312    2.7180   -1.5882 C   0  0  0  0  0  0  0  0  0  0  0  0
    3.0057    0.8661    1.6662 H   0  0  0  0  0  0  0  0  0  0  0  0
    3.5888    2.7507   -0.5012 H   0  0  0  0  0  0  0  0  0  0  0  0
    4.4562    2.4497    1.0041 H   0  0  0  0  0  0  0  0  0  0  0  0
    4.8750    1.2204   -1.7249 H   0  0  0  0  0  0  0  0  0  0  0  0
    5.3824   -0.9533   -0.8101 H   0  0  0  0  0  0  0  0  0  0  0  0
    5.4582   -0.3304    0.8496 H   0  0  0  0  0  0  0  0  0  0  0  0
    3.2979   -1.3846    1.8539 H   0  0  0  0  0  0  0  0  0  0  0  0
    3.7542   -2.3946    0.5009 H   0  0  0  0  0  0  0  0  0  0  0  0
    6.3577    2.6497   -0.6970 H   0  0  0  0  0  0  0  0  0  0  0  0
    1.0691   -1.7559    2.5663 H   0  0  0  0  0  0  0  0  0  0  0  0
    2.0228   -2.2698   -1.6090 H   0  0  0  0  0  0  0  0  0  0  0  0
   -1.2385   -2.4427    2.1275 H   0  0  0  0  0  0  0  0  0  0  0  0
   -0.2845   -2.9533   -2.0553 H   0  0  0  0  0  0  0  0  0  0  0  0
   -2.4226    2.1599   -1.8663 H   0  0  0  0  0  0  0  0  0  0  0  0
   -1.4950    1.8165    2.3482 H   0  0  0  0  0  0  0  0  0  0  0  0
   -4.4615   -1.9688   -0.9061 H   0  0  0  0  0  0  0  0  0  0  0  0
   -3.3619   -1.0667    0.1764 H   0  0  0  0  0  0  0  0  0  0  0  0
   -2.9523   -1.2689   -1.5625 H   0  0  0  0  0  0  0  0  0  0  0  0
   -3.8359    2.3090    2.8891 H   0  0  0  0  0  0  0  0  0  0  0  0
   -5.4783    2.7279    1.0944 H   0  0  0  0  0  0  0  0  0  0  0  0
   -4.9593    3.7556   -1.9291 H   0  0  0  0  0  0  0  0  0  0  0  0
   -4.8528    2.0521   -2.4394 H   0  0  0  0  0  0  0  0  0  0  0  0
   -6.0560    2.5351   -1.2475 H   0  0  0  0  0  0  0  0  0  0  0  0
  1  4  2  0  0  0  0
  1  5  2  0  0  0  0
  1 21  1  0  0  0  0
  1 25  1  0  0  0  0
  2 11  1  0  0  0  0
  2 38  1  0  0  0  0
  3  8  1  0  0  0  0
  3 14  1  0  0  0  0
  6  9  1  0  0  0  0
  6 12  1  0  0  0  0
  6 13  1  0  0  0  0
  7 14  2  0  0  0  0
  7 18  1  0  0  0  0
  8 18  2  0  0  0  0
  9 10  1  0  0  0  0
  9 14  1  0  0  0  0
  9 30  1  0  0  0  0
 10 11  1  0  0  0  0
 10 31  1  0  0  0  0
 10 32  1  0  0  0  0
 11 12  1  0  0  0  0
 11 33  1  0  0  0  0
 12 34  1  0  0  0  0
 12 35  1  0  0  0  0
 13 15  1  0  0  0  0
 13 36  1  0  0  0  0
 13 37  1  0  0  0  0
 15 16  2  0  0  0  0
 15 17  1  0  0  0  0
 16 19  1  0  0  0  0
 16 39  1  0  0  0  0
 17 20  2  0  0  0  0
 17 40  1  0  0  0  0
 18 22  1  0  0  0  0
 19 21  2  0  0  0  0
 19 41  1  0  0  0  0
 20 21  1  0  0  0  0
 20 42  1  0  0  0  0
 22 23  1  0  0  0  0
 22 24  2  0  0  0  0
 23 26  2  0  0  0  0
 23 43  1  0  0  0  0
 24 27  1  0  0  0  0
 24 44  1  0  0  0  0
 25 45  1  0  0  0  0
 25 46  1  0  0  0  0
 25 47  1  0  0  0  0
 26 28  1  0  0  0  0
 26 29  1  0  0  0  0
 27 28  2  0  0  0  0
 27 48  1  0  0  0  0
 28 49  1  0  0  0  0
 29 50  1  0  0  0  0
 29 51  1  0  0  0  0
 29 52  1  0  0  0  0
M  END
> <PUBCHEM_COMPOUND_CID>
26743888

> <PUBCHEM_CONFORMER_RMSD>
0.8

> <PUBCHEM_CONFORMER_DIVERSEORDER>
1
165
48
138
151
162
124
174
180
6
198
153
152
167
104
4
65
187
185
88
5
159
176
168
188
7
67
213
98
109
79
224
163
186
132
3
166
179
116
217
49
113
191
210
26
193
183
121
145
10
192
175
197
120
40
107
203
119
117
122
85
20
178
84
127
170
2
169
194
72
83
57
184
125
82
211
14
36
92
27
8
212
15
126
164
135
157
177
172
200
16
156
97
137
112
128
50
25
68
223
59
60
171
150
147
37
30
9
161
58
95
123
34
226
155
148
118
81
32
41
209
69
201
222
75
158
21
43
94
89
114
96
173
45
160
61
142
64
91
110
76
53
73
74
202
101
111
54
195
35
115
154
100
102
218
24
108
133
11
55
225
143
77
17
214
52
190
63
189
105
219
46
136
19
39
70
139
205
51
206
134
62
12
86
149
129
13
216
33
131
196
146
215
18
144
22
23
106
42
66
93
47
44
130
207
199
56
208
220
221
38
28
29
31
90
141
140
182
204
80
71
78
87
99
103
181

> <PUBCHEM_MMFF94_PARTIAL_CHARGES>
37
1 1.2
11 0.28
12 0.27
13 0.41
14 0.3
15 -0.14
16 -0.15
17 -0.15
18 0.46
19 -0.15
2 -0.68
20 -0.15
21 -0.01
22 0.05
23 -0.15
24 -0.15
25 0.11
26 -0.14
27 -0.15
28 -0.15
29 0.14
3 -0.02
38 0.4
39 0.15
4 -0.65
40 0.15
41 0.15
42 0.15
43 0.15
44 0.15
48 0.15
49 0.15
5 -0.65
6 -0.81
7 -0.57
8 -0.41
9 0.45

> <PUBCHEM_EFFECTIVE_ROTOR_COUNT>
6

> <PUBCHEM_PHARMACOPHORE_FEATURES>
10
1 2 acceptor
1 2 donor
1 4 acceptor
1 5 acceptor
1 6 cation
3 7 8 18 cation
5 3 7 8 14 18 rings
5 6 9 10 11 12 rings
6 15 16 17 19 20 21 rings
6 22 23 24 26 27 28 rings

> <PUBCHEM_HEAVY_ATOM_COUNT>
29

> <PUBCHEM_ATOM_DEF_STEREO_COUNT>
2

> <PUBCHEM_ATOM_UDEF_STEREO_COUNT>
0

> <PUBCHEM_BOND_DEF_STEREO_COUNT>
0

> <PUBCHEM_BOND_UDEF_STEREO_COUNT>
0

> <PUBCHEM_ISOTOPIC_ATOM_COUNT>
0

> <PUBCHEM_COMPONENT_COUNT>
1

> <PUBCHEM_CACTVS_TAUTO_COUNT>
1

> <PUBCHEM_CONFORMER_ID>
0198145000000001

> <PUBCHEM_MMFF94_ENERGY>
56.2686

> <PUBCHEM_FEATURE_SELFOVERLAP>
50.764

> <PUBCHEM_SHAPE_FINGERPRINT>
10064457 181 18341899532710940600
104564 63 18339080518215343122
1100329 8 18192987128554265466
11112662 9 18127407852199216910
11135609 187 18267857303749345061
11513181 2 18059289868891542151
12156800 1 18051659361225726419
12293681 4 17972886031701922178
12422481 6 18196682720131501435
12788726 201 18048589615002774272
13631057 29 18269551813500188453
13692114 37 18128795530584419879
14028597 1 17534034623123483970
140371 6 17827648268424076786
14117953 113 17761196731308352823
14363568 33 16965776407656593307
14681490 219 18051120690701888383
14931854 50 18267845294925041999
17138139 8 17841958257693546125
20645477 70 18047746001468546245
21197605 99 18336561464515300123
21236236 1 18410858806635705168
21796203 349 17330866537545849419
23419403 2 16843878887623362976
25147074 1 18187356646031243210
3052486 1 18261685838885668326
338550 245 18260556648759680741
38695281 34 18264769848711191105
4340502 62 18339931411081659101
469060 322 17168420557888751295
5171179 24 17770497839977126416
6287921 2 17338433381458885963
6669772 16 18264497179082231462

> <PUBCHEM_SHAPE_MULTIPOLES>
562.24
9.93
5.29
1.46
5.74
4.97
-0.17
-8.96
1.46
-5.04
0.51
-1.2
-0.07
-0.8

> <PUBCHEM_SHAPE_SELFOVERLAP>
1204.468

> <PUBCHEM_SHAPE_VOLUME>
315

> <PUBCHEM_COORDINATE_TYPE>
2
5
10

$$$$
