40779638
  -OEChem-12032416293D

 50 52  0     1  0  0  0  0  0999 V2000
    4.2036   -0.1870   -1.3743 O   0  0  0  0  0  0  0  0  0  0  0  0
    6.1310    0.9284    0.1385 O   0  0  0  0  0  0  0  0  0  0  0  0
   -0.1393   -1.6224   -1.1393 N   0  0  2  0  0  0  0  0  0  0  0  0
   -3.5848    0.8649    0.0337 N   0  0  0  0  0  0  0  0  0  0  0  0
    2.5221    0.8825   -0.1779 N   0  0  0  0  0  0  0  0  0  0  0  0
   -0.8928   -1.5425    1.3493 C   0  0  2  0  0  0  0  0  0  0  0  0
   -1.9834   -0.9569    0.4235 C   0  0  2  0  0  0  0  0  0  0  0  0
    0.4215   -0.7674    1.1427 C   0  0  0  0  0  0  0  0  0  0  0  0
    0.9061   -0.9624   -0.3113 C   0  0  2  0  0  0  0  0  0  0  0  0
   -1.4266   -0.8966   -1.0167 C   0  0  0  0  0  0  0  0  0  0  0  0
   -0.6453   -2.9916    0.8881 C   0  0  0  0  0  0  0  0  0  0  0  0
   -0.3329   -2.9978   -0.6188 C   0  0  0  0  0  0  0  0  0  0  0  0
   -2.4986    0.4042    0.8857 C   0  0  0  0  0  0  0  0  0  0  0  0
    1.3967    0.3497   -0.9277 C   0  0  0  0  0  0  0  0  0  0  0  0
   -4.8594    0.2254    0.3591 C   0  0  0  0  0  0  0  0  0  0  0  0
   -3.8334    2.2994    0.1727 C   0  0  0  0  0  0  0  0  0  0  0  0
   -5.8755    1.1101   -0.3481 C   0  0  0  0  0  0  0  0  0  0  0  0
   -5.1999    2.4721   -0.4739 C   0  0  0  0  0  0  0  0  0  0  0  0
    3.8325    0.5614   -0.4741 C   0  0  0  0  0  0  0  0  0  0  0  0
    4.7968    1.2566    0.4630 C   0  0  0  0  0  0  0  0  0  0  0  0
    7.0618    1.5698    1.0057 C   0  0  0  0  0  0  0  0  0  0  0  0
   -1.2010   -1.5191    2.3999 H   0  0  0  0  0  0  0  0  0  0  0  0
   -2.8220   -1.6672    0.4381 H   0  0  0  0  0  0  0  0  0  0  0  0
    0.2796    0.2889    1.3932 H   0  0  0  0  0  0  0  0  0  0  0  0
    1.1838   -1.1520    1.8322 H   0  0  0  0  0  0  0  0  0  0  0  0
    1.7767   -1.6345   -0.2868 H   0  0  0  0  0  0  0  0  0  0  0  0
   -2.1553   -1.3468   -1.7039 H   0  0  0  0  0  0  0  0  0  0  0  0
   -1.3065    0.1323   -1.3734 H   0  0  0  0  0  0  0  0  0  0  0  0
   -1.5265   -3.6123    1.0883 H   0  0  0  0  0  0  0  0  0  0  0  0
    0.1917   -3.4252    1.4488 H   0  0  0  0  0  0  0  0  0  0  0  0
    0.5634   -3.6002   -0.8116 H   0  0  0  0  0  0  0  0  0  0  0  0
   -1.1422   -3.4927   -1.1708 H   0  0  0  0  0  0  0  0  0  0  0  0
   -1.6772    1.1290    0.8294 H   0  0  0  0  0  0  0  0  0  0  0  0
   -2.8005    0.3659    1.9403 H   0  0  0  0  0  0  0  0  0  0  0  0
    0.6235    1.1244   -0.9190 H   0  0  0  0  0  0  0  0  0  0  0  0
    1.7091    0.1924   -1.9665 H   0  0  0  0  0  0  0  0  0  0  0  0
   -5.0576    0.2297    1.4386 H   0  0  0  0  0  0  0  0  0  0  0  0
   -4.9204   -0.8054   -0.0028 H   0  0  0  0  0  0  0  0  0  0  0  0
   -3.0712    2.9024   -0.3310 H   0  0  0  0  0  0  0  0  0  0  0  0
   -3.8800    2.6018    1.2268 H   0  0  0  0  0  0  0  0  0  0  0  0
   -6.8128    1.1732    0.2140 H   0  0  0  0  0  0  0  0  0  0  0  0
   -6.1070    0.7179   -1.3454 H   0  0  0  0  0  0  0  0  0  0  0  0
   -5.0987    2.7393   -1.5324 H   0  0  0  0  0  0  0  0  0  0  0  0
   -5.7800    3.2598    0.0173 H   0  0  0  0  0  0  0  0  0  0  0  0
    2.3232    1.5121    0.5943 H   0  0  0  0  0  0  0  0  0  0  0  0
    4.6474    2.3391    0.3756 H   0  0  0  0  0  0  0  0  0  0  0  0
    4.5734    0.9392    1.4884 H   0  0  0  0  0  0  0  0  0  0  0  0
    8.0708    1.2763    0.7038 H   0  0  0  0  0  0  0  0  0  0  0  0
    6.8996    1.2541    2.0408 H   0  0  0  0  0  0  0  0  0  0  0  0
    6.9734    2.6574    0.9237 H   0  0  0  0  0  0  0  0  0  0  0  0
  1 19  2  0  0  0  0
  2 20  1  0  0  0  0
  2 21  1  0  0  0  0
  3  9  1  0  0  0  0
  3 10  1  0  0  0  0
  3 12  1  0  0  0  0
  4 13  1  0  0  0  0
  4 15  1  0  0  0  0
  4 16  1  0  0  0  0
  5 14  1  0  0  0  0
  5 19  1  0  0  0  0
  5 45  1  0  0  0  0
  6  7  1  0  0  0  0
  6  8  1  0  0  0  0
  6 11  1  0  0  0  0
  6 22  1  0  0  0  0
  7 10  1  0  0  0  0
  7 13  1  0  0  0  0
  7 23  1  0  0  0  0
  8  9  1  0  0  0  0
  8 24  1  0  0  0  0
  8 25  1  0  0  0  0
  9 14  1  0  0  0  0
  9 26  1  0  0  0  0
 10 27  1  0  0  0  0
 10 28  1  0  0  0  0
 11 12  1  0  0  0  0
 11 29  1  0  0  0  0
 11 30  1  0  0  0  0
 12 31  1  0  0  0  0
 12 32  1  0  0  0  0
 13 33  1  0  0  0  0
 13 34  1  0  0  0  0
 14 35  1  0  0  0  0
 14 36  1  0  0  0  0
 15 17  1  0  0  0  0
 15 37  1  0  0  0  0
 15 38  1  0  0  0  0
 16 18  1  0  0  0  0
 16 39  1  0  0  0  0
 16 40  1  0  0  0  0
 17 18  1  0  0  0  0
 17 41  1  0  0  0  0
 17 42  1  0  0  0  0
 18 43  1  0  0  0  0
 18 44  1  0  0  0  0
 19 20  1  0  0  0  0
 20 46  1  0  0  0  0
 20 47  1  0  0  0  0
 21 48  1  0  0  0  0
 21 49  1  0  0  0  0
 21 50  1  0  0  0  0
M  END
> <PUBCHEM_COMPOUND_CID>
40779638

> <PUBCHEM_CONFORMER_RMSD>
0.8

> <PUBCHEM_CONFORMER_DIVERSEORDER>
1
54
48
24
40
23
16
45
13
35
6
26
47
12
36
2
17
25
43
53
14
19
42
4
44
21
50
41
11
10
3
46
18
5
33
20
34
15
27
29
22
52
7
39
51
30
31
8
32
28
49
37
9
38

> <PUBCHEM_MMFF94_PARTIAL_CHARGES>
16
1 -0.57
10 0.27
12 0.27
13 0.27
14 0.3
15 0.27
16 0.27
19 0.57
2 -0.56
20 0.34
21 0.28
3 -0.81
4 -0.81
45 0.37
5 -0.73
9 0.27

> <PUBCHEM_EFFECTIVE_ROTOR_COUNT>
9.2

> <PUBCHEM_PHARMACOPHORE_FEATURES>
7
1 1 acceptor
1 2 acceptor
1 3 cation
1 4 cation
1 5 donor
5 4 15 16 17 18 rings
8 3 6 7 8 9 10 11 12 rings

> <PUBCHEM_HEAVY_ATOM_COUNT>
21

> <PUBCHEM_ATOM_DEF_STEREO_COUNT>
3

> <PUBCHEM_ATOM_UDEF_STEREO_COUNT>
0

> <PUBCHEM_BOND_DEF_STEREO_COUNT>
0

> <PUBCHEM_BOND_UDEF_STEREO_COUNT>
0

> <PUBCHEM_ISOTOPIC_ATOM_COUNT>
0

> <PUBCHEM_COMPONENT_COUNT>
1

> <PUBCHEM_CACTVS_TAUTO_COUNT>
2

> <PUBCHEM_CONFORMER_ID>
026E3F7600000001

> <PUBCHEM_MMFF94_ENERGY>
42.5614

> <PUBCHEM_FEATURE_SELFOVERLAP>
35.527

> <PUBCHEM_SHAPE_FINGERPRINT>
10014705 185 18059859523430459224
10042902 136 8790583902234132489
10692045 39 18264765472514128426
11135609 201 18200322018310892345
11823591 26 18335690633645897957
11961588 58 18059848471936404723
12107183 9 18187638103659507008
12293681 160 17847062159971817595
12596602 18 15936702552599156273
12633257 1 15864076493800720528
12760667 363 10953454141822734097
12788726 201 17391941505086893635
13103583 49 14346087407888930825
13673619 4 12175608595723603573
13740256 8 10015574009058915045
13941219 33 16226036800408259832
14123256 34 10231746816948277797
14251732 14 10087642615767672816
14347332 77 10303553683991538588
14350574 20 11097849697359248508
14466204 15 18333730186976014348
14739800 52 18335690607618041248
15061688 2 18410858737383588851
15238133 3 18040723584606809780
17093844 174 18200591531966817008
173720 79 18334005086420332152
200 152 13470415473939170850
20197701 30 18411420583430272839
20554085 129 18058713754820484706
20567600 254 18335132077660649149
20645477 56 18200881789291804818
212916 134 18409441505687157282
21403212 168 17749379347789254849
21452121 103 18188209776105820175
21521239 73 17846499180075308159
21524375 3 18408047307863520519
21756936 100 18337101354066550611
22182313 1 18194434184472075551
23402539 116 18341328984944217015
23559900 14 18116737135229046454
2838139 119 18412820304645506293
2916195 48 18342174479205511656
474 4 18113910325467487893
5104073 3 17896891963272652833
5385378 56 18189621548840660691
53917941 68 18271800250555045111
56616090 46 18335991900064400582
59755656 520 18335413586585680638
6327066 14 18409443683098848421
67856867 119 18119243966169128867
7226269 152 18341893004814643208
77188 2 17183338418433754067
9981440 41 18187654583195736611
999808 66 12829477139818114984

> <PUBCHEM_SHAPE_MULTIPOLES>
405.49
13.67
2.86
1.18
13.82
1.35
-0.01
-14.9
-1.27
-1.78
-0.15
0.45
0.35
0.95

> <PUBCHEM_SHAPE_SELFOVERLAP>
828.386

> <PUBCHEM_SHAPE_VOLUME>
232.2

> <PUBCHEM_COORDINATE_TYPE>
2
5
10

$$$$
