45361003
  -OEChem-12032416293D

 64 66  0     1  0  0  0  0  0999 V2000
    3.5615   -1.6401   -1.2342 O   0  0  0  0  0  0  0  0  0  0  0  0
   -3.4226   -0.9184   -1.3102 O   0  0  0  0  0  0  0  0  0  0  0  0
    4.7113    0.4328    0.0595 N   0  0  1  0  0  0  0  0  0  0  0  0
    1.1175    1.1146   -0.0394 N   0  0  1  0  0  0  0  0  0  0  0  0
    1.7048   -1.7065    0.1015 N   0  0  0  0  0  0  0  0  0  0  0  0
   -4.4549   -1.3445    0.7249 N   0  0  0  0  0  0  0  0  0  0  0  0
   -7.7416    1.0358   -1.4213 N   0  0  0  0  0  0  0  0  0  0  0  0
    2.4753    1.2497    0.5330 C   0  0  1  0  0  0  0  0  0  0  0  0
    3.3958   -0.0058    0.5620 C   0  0  1  0  0  0  0  0  0  0  0  0
    3.3603    2.2794   -0.1937 C   0  0  0  0  0  0  0  0  0  0  0  0
    4.7651    1.8827    0.2083 C   0  0  0  0  0  0  0  0  0  0  0  0
    0.2240    0.1848    0.7063 C   0  0  2  0  0  0  0  0  0  0  0  0
    5.8307   -0.2280    0.7184 C   0  0  0  0  0  0  0  0  0  0  0  0
    2.9184   -1.1765   -0.2935 C   0  0  0  0  0  0  0  0  0  0  0  0
    7.1301   -0.2633   -0.1261 C   0  0  0  0  0  0  0  0  0  0  0  0
    0.8860   -1.1339    1.1516 C   0  0  0  0  0  0  0  0  0  0  0  0
   -1.0086   -0.1801   -0.1476 C   0  0  0  0  0  0  0  0  0  0  0  0
    0.4762    2.4326   -0.1831 C   0  0  0  0  0  0  0  0  0  0  0  0
    8.2458   -1.0193    0.6168 C   0  0  0  0  0  0  0  0  0  0  0  0
    6.8897   -0.9294   -1.4924 C   0  0  0  0  0  0  0  0  0  0  0  0
    7.5919    1.1872   -0.3632 C   0  0  0  0  0  0  0  0  0  0  0  0
   -2.1692   -0.5977    0.7363 C   0  0  0  0  0  0  0  0  0  0  0  0
   -3.3940   -0.9628   -0.0832 C   0  0  0  0  0  0  0  0  0  0  0  0
   -5.7339   -1.7381    0.1831 C   0  0  0  0  0  0  0  0  0  0  0  0
   -6.6632   -0.5689    0.0303 C   0  0  0  0  0  0  0  0  0  0  0  0
   -7.2937   -0.0052    1.1340 C   0  0  0  0  0  0  0  0  0  0  0  0
   -6.9183   -0.0165   -1.2145 C   0  0  0  0  0  0  0  0  0  0  0  0
   -8.1479    1.0784    0.9616 C   0  0  0  0  0  0  0  0  0  0  0  0
   -8.3365    1.5572   -0.3249 C   0  0  0  0  0  0  0  0  0  0  0  0
    2.3773    1.6014    1.5719 H   0  0  0  0  0  0  0  0  0  0  0  0
    3.4873   -0.3492    1.6011 H   0  0  0  0  0  0  0  0  0  0  0  0
    3.2427    2.2012   -1.2831 H   0  0  0  0  0  0  0  0  0  0  0  0
    3.1363    3.3082    0.1072 H   0  0  0  0  0  0  0  0  0  0  0  0
    4.9611    2.1929    1.2425 H   0  0  0  0  0  0  0  0  0  0  0  0
    5.4472    2.4037   -0.4587 H   0  0  0  0  0  0  0  0  0  0  0  0
   -0.1143    0.6943    1.6196 H   0  0  0  0  0  0  0  0  0  0  0  0
    6.0234    0.2038    1.7103 H   0  0  0  0  0  0  0  0  0  0  0  0
    5.5614   -1.2770    0.9085 H   0  0  0  0  0  0  0  0  0  0  0  0
    0.1586   -1.8992    1.4351 H   0  0  0  0  0  0  0  0  0  0  0  0
    1.5047   -0.9678    2.0394 H   0  0  0  0  0  0  0  0  0  0  0  0
   -1.3577    0.6450   -0.7727 H   0  0  0  0  0  0  0  0  0  0  0  0
   -0.7614   -0.9806   -0.8577 H   0  0  0  0  0  0  0  0  0  0  0  0
    1.3408   -2.5032   -0.4121 H   0  0  0  0  0  0  0  0  0  0  0  0
    0.4036    2.9481    0.7818 H   0  0  0  0  0  0  0  0  0  0  0  0
    1.0375    3.0717   -0.8725 H   0  0  0  0  0  0  0  0  0  0  0  0
   -0.5265    2.3951   -0.6122 H   0  0  0  0  0  0  0  0  0  0  0  0
    9.1717   -1.0464    0.0315 H   0  0  0  0  0  0  0  0  0  0  0  0
    7.9493   -2.0547    0.8183 H   0  0  0  0  0  0  0  0  0  0  0  0
    8.4702   -0.5432    1.5778 H   0  0  0  0  0  0  0  0  0  0  0  0
    6.1464   -0.3905   -2.0897 H   0  0  0  0  0  0  0  0  0  0  0  0
    7.8148   -0.9642   -2.0794 H   0  0  0  0  0  0  0  0  0  0  0  0
    6.5374   -1.9594   -1.3680 H   0  0  0  0  0  0  0  0  0  0  0  0
    7.0928    1.6542   -1.2162 H   0  0  0  0  0  0  0  0  0  0  0  0
    8.6569    1.2003   -0.6309 H   0  0  0  0  0  0  0  0  0  0  0  0
    7.4972    1.8097    0.5325 H   0  0  0  0  0  0  0  0  0  0  0  0
   -1.9192   -1.4649    1.3553 H   0  0  0  0  0  0  0  0  0  0  0  0
   -2.4476    0.2246    1.4069 H   0  0  0  0  0  0  0  0  0  0  0  0
   -4.3448   -1.3337    1.7349 H   0  0  0  0  0  0  0  0  0  0  0  0
   -5.5820   -2.2426   -0.7782 H   0  0  0  0  0  0  0  0  0  0  0  0
   -6.1712   -2.4750    0.8665 H   0  0  0  0  0  0  0  0  0  0  0  0
   -7.1263   -0.4018    2.1316 H   0  0  0  0  0  0  0  0  0  0  0  0
   -6.4554   -0.4104   -2.1140 H   0  0  0  0  0  0  0  0  0  0  0  0
   -8.6500    1.5338    1.8074 H   0  0  0  0  0  0  0  0  0  0  0  0
   -8.9928    2.4005   -0.5129 H   0  0  0  0  0  0  0  0  0  0  0  0
  1 14  2  0  0  0  0
  2 23  2  0  0  0  0
  3  9  1  0  0  0  0
  3 11  1  0  0  0  0
  3 13  1  0  0  0  0
  4  8  1  0  0  0  0
  4 12  1  0  0  0  0
  4 18  1  0  0  0  0
  5 14  1  0  0  0  0
  5 16  1  0  0  0  0
  5 43  1  0  0  0  0
  6 23  1  0  0  0  0
  6 24  1  0  0  0  0
  6 58  1  0  0  0  0
  7 27  1  0  0  0  0
  7 29  2  0  0  0  0
  8  9  1  0  0  0  0
  8 10  1  0  0  0  0
  8 30  1  0  0  0  0
  9 14  1  0  0  0  0
  9 31  1  0  0  0  0
 10 11  1  0  0  0  0
 10 32  1  0  0  0  0
 10 33  1  0  0  0  0
 11 34  1  0  0  0  0
 11 35  1  0  0  0  0
 12 16  1  0  0  0  0
 12 17  1  0  0  0  0
 12 36  1  0  0  0  0
 13 15  1  0  0  0  0
 13 37  1  0  0  0  0
 13 38  1  0  0  0  0
 15 19  1  0  0  0  0
 15 20  1  0  0  0  0
 15 21  1  0  0  0  0
 16 39  1  0  0  0  0
 16 40  1  0  0  0  0
 17 22  1  0  0  0  0
 17 41  1  0  0  0  0
 17 42  1  0  0  0  0
 18 44  1  0  0  0  0
 18 45  1  0  0  0  0
 18 46  1  0  0  0  0
 19 47  1  0  0  0  0
 19 48  1  0  0  0  0
 19 49  1  0  0  0  0
 20 50  1  0  0  0  0
 20 51  1  0  0  0  0
 20 52  1  0  0  0  0
 21 53  1  0  0  0  0
 21 54  1  0  0  0  0
 21 55  1  0  0  0  0
 22 23  1  0  0  0  0
 22 56  1  0  0  0  0
 22 57  1  0  0  0  0
 24 25  1  0  0  0  0
 24 59  1  0  0  0  0
 24 60  1  0  0  0  0
 25 26  1  0  0  0  0
 25 27  2  0  0  0  0
 26 28  2  0  0  0  0
 26 61  1  0  0  0  0
 27 62  1  0  0  0  0
 28 29  1  0  0  0  0
 28 63  1  0  0  0  0
 29 64  1  0  0  0  0
M  END
> <PUBCHEM_COMPOUND_CID>
45361003

> <PUBCHEM_CONFORMER_RMSD>
1

> <PUBCHEM_CONFORMER_DIVERSEORDER>
2
196
218
42
57
129
264
250
260
161
165
48
183
168
115
45
249
205
189
53
110
92
228
266
268
155
78
270
55
94
107
254
99
187
143
273
193
192
222
1
245
84
148
130
46
253
93
177
91
167
90
243
39
238
11
68
89
246
128
154
87
251
5
163
162
221
275
95
19
83
204
117
101
252
262
203
51
226
120
223
220
132
142
219
164
125
86
33
67
85
186
232
158
76
121
35
269
265
217
180
149
14
41
271
137
61
113
231
119
208
123
60
207
64
114
50
28
255
233
36
140
44
198
190
96
102
70
134
199
88
197
138
144
227
133
71
124
259
176
174
58
169
237
3
17
159
178
135
105
172
21
103
230
8
27
258
188
153
66
34
256
234
59
210
214
191
16
261
200
274
52
37
9
98
263
100
267
212
145
224
173
206
131
106
150
235
139
112
62
116
213
126
31
160
12
211
152
216
63
77
240
184
122
43
185
182
244
141
166
215
22
82
10
24
6
49
80
15
73
7
97
257
241
23
56
175
127
40
202
38
69
136
109
72
30
54
239
146
25
272
4
81
171
104
201
20
26
32
74
65
108
194
13
18
75
170
157
236
181
29
47
151
118
111
225
229
179
276
248
247
242
209
79
156
147
195

> <PUBCHEM_MMFF94_PARTIAL_CHARGES>
29
1 -0.57
11 0.27
12 0.27
13 0.27
14 0.57
16 0.3
18 0.27
2 -0.57
22 0.06
23 0.57
24 0.44
25 -0.14
26 -0.15
27 0.16
28 -0.15
29 0.16
3 -0.81
4 -0.81
43 0.37
5 -0.73
58 0.37
6 -0.73
61 0.15
62 0.15
63 0.15
64 0.15
7 -0.62
8 0.27
9 0.33

> <PUBCHEM_EFFECTIVE_ROTOR_COUNT>
9.4

> <PUBCHEM_PHARMACOPHORE_FEATURES>
11
1 1 acceptor
1 2 acceptor
1 3 cation
1 4 cation
1 5 donor
1 6 donor
1 7 acceptor
4 15 19 20 21 hydrophobe
5 3 8 9 10 11 rings
6 7 25 26 27 28 29 rings
7 4 5 8 9 12 14 16 rings

> <PUBCHEM_HEAVY_ATOM_COUNT>
29

> <PUBCHEM_ATOM_DEF_STEREO_COUNT>
3

> <PUBCHEM_ATOM_UDEF_STEREO_COUNT>
0

> <PUBCHEM_BOND_DEF_STEREO_COUNT>
0

> <PUBCHEM_BOND_UDEF_STEREO_COUNT>
0

> <PUBCHEM_ISOTOPIC_ATOM_COUNT>
0

> <PUBCHEM_COMPONENT_COUNT>
1

> <PUBCHEM_CACTVS_TAUTO_COUNT>
6

> <PUBCHEM_CONFORMER_ID>
02B4276B00000002

> <PUBCHEM_MMFF94_ENERGY>
80.9316

> <PUBCHEM_FEATURE_SELFOVERLAP>
55.857

> <PUBCHEM_SHAPE_FINGERPRINT>
10066227 112 18411416212029050849
100830 39 18408885106197886529
10577160 183 17346309380943852711
106641 1 11527943461398642914
10674148 151 17967529086533814528
11719270 70 18202002131923040158
12236239 1 17917432080975905083
12664476 115 17967532368753926477
12838862 33 17988912367201278702
14117953 113 18272655640895178806
14251764 18 17989489606141356049
14251764 46 18131633387507466578
14856354 85 15357983395834651027
15142383 8 18343017787470254136
15183329 4 18412822482974172897
15301273 46 18201998833118462538
15439362 3 17899702555317036604
15461852 350 15913606177687221797
18335252 114 18273491286564224844
18335252 98 8646772205432472561
20238998 120 18413107260053656528
21095123 145 15068350021038575859
21150785 3 13183019622949888331
21792934 111 18412535523730641512
21792961 116 18041550352530469430
22224240 67 10592044652571787932
249057 3 18343864437209412639
255183 451 17914625956358535854
28498 318 18343866610731662342
335352 9 18410011069652843846
3633792 109 17846787273549038107
4073 2 18041283282980000403
59682541 35 10015578402916064558
6009941 240 18259989288750325635

> <PUBCHEM_SHAPE_MULTIPOLES>
560.16
28.09
2.01
1.13
25.01
0.73
0.2
2.56
2.45
-0.56
0.12
0.63
-0.17
0.55

> <PUBCHEM_SHAPE_SELFOVERLAP>
1155.462

> <PUBCHEM_SHAPE_VOLUME>
320.9

> <PUBCHEM_COORDINATE_TYPE>
2
5
10

$$$$
