75536872
  -OEChem-12032416323D

 41 43  0     1  0  0  0  0  0999 V2000
   -5.4233    1.5265   -0.7042 F   0  0  0  0  0  0  0  0  0  0  0  0
   -4.7362    1.7921    1.3356 F   0  0  0  0  0  0  0  0  0  0  0  0
   -5.8593    0.0112    0.7930 F   0  0  0  0  0  0  0  0  0  0  0  0
    2.7332   -2.4102    1.3862 O   0  0  0  0  0  0  0  0  0  0  0  0
    2.2318    1.9029   -1.3721 O   0  0  0  0  0  0  0  0  0  0  0  0
   -0.0861   -1.8542   -0.9115 O   0  0  0  0  0  0  0  0  0  0  0  0
    3.1075   -0.0865   -0.5145 N   0  0  0  0  0  0  0  0  0  0  0  0
    4.0799    2.1229    0.0436 C   0  0  0  0  0  0  0  0  0  0  0  0
    3.7475    3.5353    0.3841 C   0  0  0  0  0  0  0  0  0  0  0  0
    3.8081    2.4942    1.4613 C   0  0  0  0  0  0  0  0  0  0  0  0
    3.0581    1.3076   -0.6856 C   0  0  0  0  0  0  0  0  0  0  0  0
    2.0953   -0.9138   -1.1725 C   0  0  0  0  0  0  0  0  0  0  0  0
    4.1254   -0.7333    0.3229 C   0  0  0  0  0  0  0  0  0  0  0  0
    1.0767   -1.4717   -0.1791 C   0  0  2  0  0  0  0  0  0  0  0  0
    3.9187   -2.2119    0.6228 C   0  0  0  0  0  0  0  0  0  0  0  0
    1.5874   -2.6872    0.5910 C   0  0  0  0  0  0  0  0  0  0  0  0
   -1.2471   -1.1981   -0.6045 C   0  0  0  0  0  0  0  0  0  0  0  0
   -2.3504   -1.9138   -0.1393 C   0  0  0  0  0  0  0  0  0  0  0  0
   -1.3275    0.1859   -0.7576 C   0  0  0  0  0  0  0  0  0  0  0  0
   -3.5340   -1.2453    0.1728 C   0  0  0  0  0  0  0  0  0  0  0  0
   -2.5113    0.8544   -0.4455 C   0  0  0  0  0  0  0  0  0  0  0  0
   -3.6146    0.1389    0.0199 C   0  0  0  0  0  0  0  0  0  0  0  0
   -4.8797    0.8540    0.3532 C   0  0  0  0  0  0  0  0  0  0  0  0
    5.1105    1.9287   -0.2363 H   0  0  0  0  0  0  0  0  0  0  0  0
    2.7727    3.9373    0.1372 H   0  0  0  0  0  0  0  0  0  0  0  0
    4.5471    4.2658    0.3457 H   0  0  0  0  0  0  0  0  0  0  0  0
    4.6469    2.5242    2.1459 H   0  0  0  0  0  0  0  0  0  0  0  0
    2.8739    2.1838    1.9134 H   0  0  0  0  0  0  0  0  0  0  0  0
    1.5760   -0.3148   -1.9295 H   0  0  0  0  0  0  0  0  0  0  0  0
    2.5946   -1.7099   -1.7369 H   0  0  0  0  0  0  0  0  0  0  0  0
    4.1638   -0.1901    1.2727 H   0  0  0  0  0  0  0  0  0  0  0  0
    5.0892   -0.5916   -0.1791 H   0  0  0  0  0  0  0  0  0  0  0  0
    0.8453   -0.6898    0.5592 H   0  0  0  0  0  0  0  0  0  0  0  0
    3.9296   -2.8335   -0.2797 H   0  0  0  0  0  0  0  0  0  0  0  0
    4.7526   -2.5533    1.2463 H   0  0  0  0  0  0  0  0  0  0  0  0
    0.7986   -3.0312    1.2706 H   0  0  0  0  0  0  0  0  0  0  0  0
    1.7828   -3.5338   -0.0797 H   0  0  0  0  0  0  0  0  0  0  0  0
   -2.2927   -2.9921   -0.0179 H   0  0  0  0  0  0  0  0  0  0  0  0
   -0.4821    0.7583   -1.1274 H   0  0  0  0  0  0  0  0  0  0  0  0
   -4.3817   -1.8212    0.5337 H   0  0  0  0  0  0  0  0  0  0  0  0
   -2.5652    1.9327   -0.5700 H   0  0  0  0  0  0  0  0  0  0  0  0
  1 23  1  0  0  0  0
  2 23  1  0  0  0  0
  3 23  1  0  0  0  0
  4 15  1  0  0  0  0
  4 16  1  0  0  0  0
  5 11  2  0  0  0  0
  6 14  1  0  0  0  0
  6 17  1  0  0  0  0
  7 11  1  0  0  0  0
  7 12  1  0  0  0  0
  7 13  1  0  0  0  0
  8  9  1  0  0  0  0
  8 10  1  0  0  0  0
  8 11  1  0  0  0  0
  8 24  1  0  0  0  0
  9 10  1  0  0  0  0
  9 25  1  0  0  0  0
  9 26  1  0  0  0  0
 10 27  1  0  0  0  0
 10 28  1  0  0  0  0
 12 14  1  0  0  0  0
 12 29  1  0  0  0  0
 12 30  1  0  0  0  0
 13 15  1  0  0  0  0
 13 31  1  0  0  0  0
 13 32  1  0  0  0  0
 14 16  1  0  0  0  0
 14 33  1  0  0  0  0
 15 34  1  0  0  0  0
 15 35  1  0  0  0  0
 16 36  1  0  0  0  0
 16 37  1  0  0  0  0
 17 18  2  0  0  0  0
 17 19  1  0  0  0  0
 18 20  1  0  0  0  0
 18 38  1  0  0  0  0
 19 21  2  0  0  0  0
 19 39  1  0  0  0  0
 20 22  2  0  0  0  0
 20 40  1  0  0  0  0
 21 22  1  0  0  0  0
 21 41  1  0  0  0  0
 22 23  1  0  0  0  0
M  END
> <PUBCHEM_COMPOUND_CID>
75536872

> <PUBCHEM_CONFORMER_RMSD>
0.8

> <PUBCHEM_CONFORMER_DIVERSEORDER>
1
79
104
86
63
112
26
84
82
93
73
76
109
36
92
21
55
40
29
105
20
16
33
58
53
44
57
85
62
66
68
99
77
24
111
49
113
25
75
15
47
67
43
87
52
83
34
48
8
23
88
106
41
10
102
101
54
27
30
91
100
74
59
35
45
64
19
32
51
22
80
56
6
11
71
7
2
89
50
17
61
70
9
107
5
39
78
72
38
28
96
98
81
108
60
95
12
103
65
90
31
14
94
46
3
18
69
97
110
4
42
13
37

> <PUBCHEM_MMFF94_PARTIAL_CHARGES>
32
1 -0.34
10 -0.2
11 0.63
12 0.3
13 0.3
14 0.28
15 0.28
16 0.28
17 0.08
18 -0.15
19 -0.15
2 -0.34
20 -0.15
21 -0.15
22 -0.14
23 1.16
24 0.1
25 0.1
26 0.1
27 0.1
28 0.1
3 -0.34
38 0.15
39 0.15
4 -0.56
40 0.15
41 0.15
5 -0.57
6 -0.36
7 -0.66
8 -0.1
9 -0.2

> <PUBCHEM_EFFECTIVE_ROTOR_COUNT>
7

> <PUBCHEM_PHARMACOPHORE_FEATURES>
5
1 4 acceptor
1 5 acceptor
1 6 acceptor
6 17 18 19 20 21 22 rings
7 4 7 12 13 14 15 16 rings

> <PUBCHEM_HEAVY_ATOM_COUNT>
23

> <PUBCHEM_ATOM_DEF_STEREO_COUNT>
1

> <PUBCHEM_ATOM_UDEF_STEREO_COUNT>
0

> <PUBCHEM_BOND_DEF_STEREO_COUNT>
0

> <PUBCHEM_BOND_UDEF_STEREO_COUNT>
0

> <PUBCHEM_ISOTOPIC_ATOM_COUNT>
0

> <PUBCHEM_COMPONENT_COUNT>
1

> <PUBCHEM_CACTVS_TAUTO_COUNT>
1

> <PUBCHEM_CONFORMER_ID>
048099E800000001

> <PUBCHEM_MMFF94_ENERGY>
63.671

> <PUBCHEM_FEATURE_SELFOVERLAP>
25.373

> <PUBCHEM_SHAPE_FINGERPRINT>
10382601 240 18041263466359150552
10674148 151 18338231700773838696
11045977 3 17895483531342042419
11089746 13 18413103944327581591
12166972 35 17987234439216047530
12633257 1 16516241971904012808
12788726 201 17418105290697762921
12925494 130 18264485084349155633
13140716 1 18409165523789287390
13878862 14 18189594091347106253
13965767 371 18043229418803678388
14178342 30 17970069065504499294
14251764 38 18195805164056106621
14251764 75 18270691989952754409
14341114 176 18261959544113767162
146900 427 18342187669608909569
14739800 52 18058718225760204912
14848178 96 18341891934803199296
14849402 71 18334576884845386752
14955137 171 18266177241265529242
15142526 21 18263923409404104266
15295992 7 18260274053129062226
15475509 84 17973713685116403176
17810953 82 18412265021182184980
17868525 174 18191014604530089168
17980427 23 17915148331486379182
19752476 56 18130790100902027584
20715895 44 18197214737930987601
21033648 144 18335971039138907327
21285901 2 12679457556393336610
21452121 103 18413386557871389510
21503847 285 18412830166343793118
21859007 373 17242435137296943853
21864079 5 18202001074748571102
22122407 14 18269848514969849057
235170 7 13830130547105264353
23559900 14 17749396918812056375
268830 7 18411975854388143191
34797466 226 17775294859222218119
350125 39 18335984194935081244
4463277 69 8358268024724964922
474 4 18115311201543204908
49207404 50 18041849548489736410
5104073 3 18408045126073044715
5895379 119 16987735488851505504
633830 44 18341891939493624086
7808743 9 17907295804029613384
960060 61 9511456719289422595

> <PUBCHEM_SHAPE_MULTIPOLES>
428.92
11.68
3.53
1.15
11.69
0.83
-0.08
6.91
-2.92
-4.31
-0.92
-0.42
0.16
-0.46

> <PUBCHEM_SHAPE_SELFOVERLAP>
903.425

> <PUBCHEM_SHAPE_VOLUME>
241.3

> <PUBCHEM_COORDINATE_TYPE>
2
5
10

$$$$
