11882853
  -OEChem-12032416203D

 77 81  0     1  0  0  0  0  0999 V2000
    0.0047   -2.8142    0.2515 S   0  0  0  0  0  0  0  0  0  0  0  0
    7.6348   -1.2001   -0.6447 O   0  0  0  0  0  0  0  0  0  0  0  0
    7.1246   -2.8887    0.9777 O   0  0  0  0  0  0  0  0  0  0  0  0
    0.3622    2.1763   -1.6222 O   0  0  0  0  0  0  0  0  0  0  0  0
   -3.0571    0.6461   -0.3179 O   0  0  0  0  0  0  0  0  0  0  0  0
   -8.5998   -2.3385   -0.1127 O   0  0  0  0  0  0  0  0  0  0  0  0
   -0.2505   -0.2677   -0.1269 N   0  0  0  0  0  0  0  0  0  0  0  0
    0.2796    3.7851    0.0530 N   0  0  0  0  0  0  0  0  0  0  0  0
   -2.2833   -1.5541    0.0227 N   0  0  0  0  0  0  0  0  0  0  0  0
    3.5677    0.0483    0.3086 C   0  0  2  0  0  0  0  0  0  0  0  0
    3.8352   -1.4030   -0.2895 C   0  0  1  0  0  0  0  0  0  0  0  0
    5.3230   -1.9260   -0.2610 C   0  0  1  0  0  0  0  0  0  0  0  0
    2.1381    0.5394   -0.2098 C   0  0  1  0  0  0  0  0  0  0  0  0
    4.6438    1.0310   -0.2219 C   0  0  0  0  0  0  0  0  0  0  0  0
    6.2695   -0.8061   -0.7788 C   0  0  1  0  0  0  0  0  0  0  0  0
    2.7973   -2.4359    0.2386 C   0  0  0  0  0  0  0  0  0  0  0  0
    6.0711    0.5262   -0.0647 C   0  0  0  0  0  0  0  0  0  0  0  0
    3.5908    0.0744    1.8567 C   0  0  0  0  0  0  0  0  0  0  0  0
    1.1022   -0.5435   -0.0491 C   0  0  0  0  0  0  0  0  0  0  0  0
    5.7914   -2.4507    1.1143 C   0  0  0  0  0  0  0  0  0  0  0  0
    5.4556   -3.1306   -1.2352 C   0  0  0  0  0  0  0  0  0  0  0  0
    1.4198   -1.8741    0.1329 C   0  0  0  0  0  0  0  0  0  0  0  0
    1.6617    1.8668    0.3952 C   0  0  0  0  0  0  0  0  0  0  0  0
    0.7048    2.5954   -0.5199 C   0  0  0  0  0  0  0  0  0  0  0  0
   -0.9239   -1.3874    0.0252 C   0  0  0  0  0  0  0  0  0  0  0  0
   -0.6369    4.6892   -0.5968 C   0  0  0  0  0  0  0  0  0  0  0  0
   -2.0829    4.4148   -0.2013 C   0  0  0  0  0  0  0  0  0  0  0  0
   -0.4286    6.1269   -0.1381 C   0  0  0  0  0  0  0  0  0  0  0  0
   -2.2764    5.1504    1.1236 C   0  0  0  0  0  0  0  0  0  0  0  0
   -1.1874    6.2220    1.1826 C   0  0  0  0  0  0  0  0  0  0  0  0
   -3.2527   -0.5519   -0.1448 C   0  0  0  0  0  0  0  0  0  0  0  0
   -4.6632   -1.0227   -0.1353 C   0  0  0  0  0  0  0  0  0  0  0  0
   -5.6428   -0.3037   -0.8202 C   0  0  0  0  0  0  0  0  0  0  0  0
   -5.0066   -2.1835    0.5577 C   0  0  0  0  0  0  0  0  0  0  0  0
   -6.9657   -0.7454   -0.8121 C   0  0  0  0  0  0  0  0  0  0  0  0
   -6.3296   -2.6253    0.5659 C   0  0  0  0  0  0  0  0  0  0  0  0
   -7.3092   -1.9063   -0.1190 C   0  0  0  0  0  0  0  0  0  0  0  0
   -8.8811   -3.5326    0.6159 C   0  0  0  0  0  0  0  0  0  0  0  0
    3.6125   -1.2909   -1.3650 H   0  0  0  0  0  0  0  0  0  0  0  0
    2.2459    0.6712   -1.2970 H   0  0  0  0  0  0  0  0  0  0  0  0
    4.4674    1.2284   -1.2876 H   0  0  0  0  0  0  0  0  0  0  0  0
    4.5700    2.0001    0.2842 H   0  0  0  0  0  0  0  0  0  0  0  0
    6.0895   -0.6557   -1.8517 H   0  0  0  0  0  0  0  0  0  0  0  0
    2.8547   -3.3601   -0.3461 H   0  0  0  0  0  0  0  0  0  0  0  0
    2.9984   -2.6938    1.2837 H   0  0  0  0  0  0  0  0  0  0  0  0
    6.3515    0.4460    0.9913 H   0  0  0  0  0  0  0  0  0  0  0  0
    6.7624    1.2680   -0.4849 H   0  0  0  0  0  0  0  0  0  0  0  0
    3.3752    1.0781    2.2392 H   0  0  0  0  0  0  0  0  0  0  0  0
    4.5624   -0.1844    2.2724 H   0  0  0  0  0  0  0  0  0  0  0  0
    2.8502   -0.5974    2.2994 H   0  0  0  0  0  0  0  0  0  0  0  0
    5.1863   -3.2964    1.4550 H   0  0  0  0  0  0  0  0  0  0  0  0
    5.7831   -1.6866    1.8873 H   0  0  0  0  0  0  0  0  0  0  0  0
    6.4982   -3.4305   -1.3893 H   0  0  0  0  0  0  0  0  0  0  0  0
    4.9193   -4.0122   -0.8689 H   0  0  0  0  0  0  0  0  0  0  0  0
    5.0500   -2.8826   -2.2230 H   0  0  0  0  0  0  0  0  0  0  0  0
    1.1698    1.7081    1.3632 H   0  0  0  0  0  0  0  0  0  0  0  0
    2.5011    2.5503    0.5579 H   0  0  0  0  0  0  0  0  0  0  0  0
    8.1843   -0.4922   -1.0222 H   0  0  0  0  0  0  0  0  0  0  0  0
    7.4090   -3.2264    1.8440 H   0  0  0  0  0  0  0  0  0  0  0  0
    0.5880    4.0123    0.9943 H   0  0  0  0  0  0  0  0  0  0  0  0
   -0.5044    4.5974   -1.6802 H   0  0  0  0  0  0  0  0  0  0  0  0
   -2.5727   -2.5225    0.1167 H   0  0  0  0  0  0  0  0  0  0  0  0
   -2.3168    3.3497   -0.1136 H   0  0  0  0  0  0  0  0  0  0  0  0
   -2.7577    4.8457   -0.9512 H   0  0  0  0  0  0  0  0  0  0  0  0
   -0.8799    6.8154   -0.8631 H   0  0  0  0  0  0  0  0  0  0  0  0
    0.6254    6.3996   -0.0251 H   0  0  0  0  0  0  0  0  0  0  0  0
   -2.1641    4.4587    1.9664 H   0  0  0  0  0  0  0  0  0  0  0  0
   -3.2785    5.5864    1.1901 H   0  0  0  0  0  0  0  0  0  0  0  0
   -1.6069    7.2220    1.3315 H   0  0  0  0  0  0  0  0  0  0  0  0
   -0.5147    6.0213    2.0245 H   0  0  0  0  0  0  0  0  0  0  0  0
   -5.3958    0.6001   -1.3710 H   0  0  0  0  0  0  0  0  0  0  0  0
   -4.2844   -2.7539    1.1339 H   0  0  0  0  0  0  0  0  0  0  0  0
   -7.7243   -0.1823   -1.3487 H   0  0  0  0  0  0  0  0  0  0  0  0
   -6.5289   -3.5299    1.1303 H   0  0  0  0  0  0  0  0  0  0  0  0
   -8.3557   -4.3955    0.1928 H   0  0  0  0  0  0  0  0  0  0  0  0
   -8.6808   -3.4078    1.6855 H   0  0  0  0  0  0  0  0  0  0  0  0
   -9.9533   -3.7292    0.5125 H   0  0  0  0  0  0  0  0  0  0  0  0
  1 22  1  0  0  0  0
  1 25  1  0  0  0  0
  2 15  1  0  0  0  0
  2 58  1  0  0  0  0
  3 20  1  0  0  0  0
  3 59  1  0  0  0  0
  4 24  2  0  0  0  0
  5 31  2  0  0  0  0
  6 37  1  0  0  0  0
  6 38  1  0  0  0  0
  7 19  1  0  0  0  0
  7 25  2  0  0  0  0
  8 24  1  0  0  0  0
  8 26  1  0  0  0  0
  8 60  1  0  0  0  0
  9 25  1  0  0  0  0
  9 31  1  0  0  0  0
  9 62  1  0  0  0  0
 10 11  1  0  0  0  0
 10 13  1  0  0  0  0
 10 14  1  0  0  0  0
 10 18  1  0  0  0  0
 11 12  1  0  0  0  0
 11 16  1  0  0  0  0
 11 39  1  0  0  0  0
 12 15  1  0  0  0  0
 12 20  1  0  0  0  0
 12 21  1  0  0  0  0
 13 19  1  0  0  0  0
 13 23  1  0  0  0  0
 13 40  1  0  0  0  0
 14 17  1  0  0  0  0
 14 41  1  0  0  0  0
 14 42  1  0  0  0  0
 15 17  1  0  0  0  0
 15 43  1  0  0  0  0
 16 22  1  0  0  0  0
 16 44  1  0  0  0  0
 16 45  1  0  0  0  0
 17 46  1  0  0  0  0
 17 47  1  0  0  0  0
 18 48  1  0  0  0  0
 18 49  1  0  0  0  0
 18 50  1  0  0  0  0
 19 22  2  0  0  0  0
 20 51  1  0  0  0  0
 20 52  1  0  0  0  0
 21 53  1  0  0  0  0
 21 54  1  0  0  0  0
 21 55  1  0  0  0  0
 23 24  1  0  0  0  0
 23 56  1  0  0  0  0
 23 57  1  0  0  0  0
 26 27  1  0  0  0  0
 26 28  1  0  0  0  0
 26 61  1  0  0  0  0
 27 29  1  0  0  0  0
 27 63  1  0  0  0  0
 27 64  1  0  0  0  0
 28 30  1  0  0  0  0
 28 65  1  0  0  0  0
 28 66  1  0  0  0  0
 29 30  1  0  0  0  0
 29 67  1  0  0  0  0
 29 68  1  0  0  0  0
 30 69  1  0  0  0  0
 30 70  1  0  0  0  0
 31 32  1  0  0  0  0
 32 33  2  0  0  0  0
 32 34  1  0  0  0  0
 33 35  1  0  0  0  0
 33 71  1  0  0  0  0
 34 36  2  0  0  0  0
 34 72  1  0  0  0  0
 35 37  2  0  0  0  0
 35 73  1  0  0  0  0
 36 37  1  0  0  0  0
 36 74  1  0  0  0  0
 38 75  1  0  0  0  0
 38 76  1  0  0  0  0
 38 77  1  0  0  0  0
M  END
> <PUBCHEM_COMPOUND_CID>
11882853

> <PUBCHEM_CONFORMER_RMSD>
1.2

> <PUBCHEM_CONFORMER_DIVERSEORDER>
1
4
16
14
10
12
8
11
7
15
13
9
6
3
5
2

> <PUBCHEM_MMFF94_PARTIAL_CHARGES>
35
1 -0.08
13 0.18
15 0.28
16 0.18
19 0.05
2 -0.68
20 0.28
22 -0.14
23 0.06
24 0.57
25 0.44
26 0.3
3 -0.68
31 0.54
32 0.09
33 -0.15
34 -0.15
35 -0.15
36 -0.15
37 0.08
38 0.28
4 -0.57
5 -0.57
58 0.4
59 0.4
6 -0.36
60 0.37
62 0.37
7 -0.57
71 0.15
72 0.15
73 0.15
74 0.15
8 -0.73
9 -0.49

> <PUBCHEM_EFFECTIVE_ROTOR_COUNT>
11.2

> <PUBCHEM_PHARMACOPHORE_FEATURES>
14
1 2 acceptor
1 2 donor
1 3 acceptor
1 3 donor
1 4 acceptor
1 5 acceptor
1 6 acceptor
1 8 donor
1 9 donor
5 1 7 19 22 25 rings
5 26 27 28 29 30 rings
6 10 11 12 14 15 17 rings
6 10 11 13 16 19 22 rings
6 32 33 34 35 36 37 rings

> <PUBCHEM_HEAVY_ATOM_COUNT>
38

> <PUBCHEM_ATOM_DEF_STEREO_COUNT>
5

> <PUBCHEM_ATOM_UDEF_STEREO_COUNT>
0

> <PUBCHEM_BOND_DEF_STEREO_COUNT>
0

> <PUBCHEM_BOND_UDEF_STEREO_COUNT>
0

> <PUBCHEM_ISOTOPIC_ATOM_COUNT>
0

> <PUBCHEM_COMPONENT_COUNT>
1

> <PUBCHEM_CACTVS_TAUTO_COUNT>
6

> <PUBCHEM_CONFORMER_ID>
00B5516500000001

> <PUBCHEM_MMFF94_ENERGY>
122.7316

> <PUBCHEM_FEATURE_SELFOVERLAP>
71.195

> <PUBCHEM_SHAPE_FINGERPRINT>
10050765 1 18050568435776332958
10411042 1 18410575093648814821
11331351 85 18343015614633696517
12166972 35 18271809081476946929
12516196 113 18409447007313728142
12788726 201 18334290934143391560
13347071 3 18271807857717989097
13617811 41 18336267950903981612
13835254 42 18412824668506417272
14040222 275 18266764491800624119
14068700 675 18408606946049335053
14400156 188 18262800791185176275
14790565 3 17258218467478513780
14849402 71 18266464398446581533
14937079 2 18337954623215228543
14955137 171 18337390551642372847
15198563 99 18339365162709588069
15347591 1 18195247703777641438
15351339 4 17894900807475183475
15419008 47 18130781252762840369
15483637 11 18123190104326043876
15927050 60 17689720753268057546
15968369 153 18128795513510104212
16090146 7 17168445770038245378
16992752 21 18411147913643045164
18365409 1 18048323241205936493
18681886 176 18411975901728450027
19301679 30 18411981326066156566
19611394 137 18115880766416987547
21049683 271 18260552272472881997
21133410 127 17464523588696284125
21133410 38 17192917386043679961
23516275 137 16197609863206055172
23559900 14 18263921210993031507
244849 19 17486746642669075664
24771293 8 17984684878331489536
24771750 20 17612319945015361685
283562 15 18262520278032576602
4461854 278 17765173678680375009
4625314 4 18264767844138331367
4760202 170 18338502124730339093
59521099 67 18270960267402176121
653340 110 18267859476427426904
6697151 62 18193530429480278463
9777508 108 17979629035661418600
9962374 69 18268424819358633831

> <PUBCHEM_SHAPE_MULTIPOLES>
741.58
20.38
7.72
1.05
21.54
18.2
-0.14
-30.26
0.24
5.65
-1.47
-0.58
0.19
0.21

> <PUBCHEM_SHAPE_SELFOVERLAP>
1574.228

> <PUBCHEM_SHAPE_VOLUME>
417.2

> <PUBCHEM_COORDINATE_TYPE>
2
5
10

$$$$
