40777397
  -OEChem-12032416173D

 64 68  0     1  0  0  0  0  0999 V2000
    1.9704    2.6301   -1.5552 O   0  0  0  0  0  0  0  0  0  0  0  0
   -5.4206   -0.0961   -1.6122 O   0  0  0  0  0  0  0  0  0  0  0  0
   -1.7978    2.8504    2.1893 N   0  0  0  0  0  0  0  0  0  0  0  0
    3.1814    0.8802   -0.6220 N   0  0  0  0  0  0  0  0  0  0  0  0
    5.6701   -0.5268   -0.1667 N   0  0  0  0  0  0  0  0  0  0  0  0
   -4.1123    0.3200   -1.8275 N   0  0  0  0  0  0  0  0  0  0  0  0
    6.9491   -2.5120   -0.1592 N   0  0  0  0  0  0  0  0  0  0  0  0
   -0.3440    2.1998   -0.2947 C   0  0  1  0  0  0  0  0  0  0  0  0
   -1.7364    1.6125    0.0376 C   0  0  2  0  0  0  0  0  0  0  0  0
   -0.1649    3.5260    0.4632 C   0  0  0  0  0  0  0  0  0  0  0  0
   -1.9766    1.5438    1.5551 C   0  0  0  0  0  0  0  0  0  0  0  0
    0.8207    1.2451   -0.0064 C   0  0  0  0  0  0  0  0  0  0  0  0
   -0.4593    3.3888    1.9564 C   0  0  0  0  0  0  0  0  0  0  0  0
   -1.9804    0.2474   -0.6073 C   0  0  0  0  0  0  0  0  0  0  0  0
    2.0361    1.6569   -0.8005 C   0  0  0  0  0  0  0  0  0  0  0  0
   -3.4477   -0.0463   -0.7278 C   0  0  0  0  0  0  0  0  0  0  0  0
    4.3980    1.2114   -1.3593 C   0  0  0  0  0  0  0  0  0  0  0  0
    3.2608   -0.2689    0.2828 C   0  0  0  0  0  0  0  0  0  0  0  0
    5.6574    0.8852   -0.5594 C   0  0  0  0  0  0  0  0  0  0  0  0
    4.3894   -1.2332   -0.0826 C   0  0  0  0  0  0  0  0  0  0  0  0
   -4.2764   -0.6912    0.2066 C   0  0  0  0  0  0  0  0  0  0  0  0
    6.8720   -1.1844    0.0837 C   0  0  0  0  0  0  0  0  0  0  0  0
   -5.5056   -0.6968   -0.3978 C   0  0  0  0  0  0  0  0  0  0  0  0
    7.9217   -0.4228    0.5718 C   0  0  0  0  0  0  0  0  0  0  0  0
   -6.8054   -1.1818   -0.0343 C   0  0  0  0  0  0  0  0  0  0  0  0
    9.1281   -1.0653    0.8269 C   0  0  0  0  0  0  0  0  0  0  0  0
    8.1374   -3.1021    0.1008 C   0  0  0  0  0  0  0  0  0  0  0  0
   -6.9952   -1.8144    1.1942 C   0  0  0  0  0  0  0  0  0  0  0  0
   -7.8796   -1.0210   -0.9094 C   0  0  0  0  0  0  0  0  0  0  0  0
    9.2463   -2.4303    0.5895 C   0  0  0  0  0  0  0  0  0  0  0  0
   -8.2594   -2.2863    1.5478 C   0  0  0  0  0  0  0  0  0  0  0  0
   -9.1437   -1.4928   -0.5559 C   0  0  0  0  0  0  0  0  0  0  0  0
   -9.3336   -2.1255    0.6727 C   0  0  0  0  0  0  0  0  0  0  0  0
   -0.3633    2.4285   -1.3694 H   0  0  0  0  0  0  0  0  0  0  0  0
   -2.4724    2.3217   -0.3733 H   0  0  0  0  0  0  0  0  0  0  0  0
   -0.8508    4.2698    0.0353 H   0  0  0  0  0  0  0  0  0  0  0  0
    0.8434    3.9328    0.3309 H   0  0  0  0  0  0  0  0  0  0  0  0
   -3.0011    1.2239    1.7663 H   0  0  0  0  0  0  0  0  0  0  0  0
   -1.3109    0.8079    2.0231 H   0  0  0  0  0  0  0  0  0  0  0  0
    0.5666    0.2354   -0.3395 H   0  0  0  0  0  0  0  0  0  0  0  0
    1.0675    1.2024    1.0578 H   0  0  0  0  0  0  0  0  0  0  0  0
    0.2929    2.7669    2.4538 H   0  0  0  0  0  0  0  0  0  0  0  0
   -0.3988    4.3801    2.4195 H   0  0  0  0  0  0  0  0  0  0  0  0
   -1.5037   -0.5559   -0.0323 H   0  0  0  0  0  0  0  0  0  0  0  0
   -1.5411    0.2212   -1.6131 H   0  0  0  0  0  0  0  0  0  0  0  0
   -1.9561    2.7629    3.1927 H   0  0  0  0  0  0  0  0  0  0  0  0
    4.3933    2.2708   -1.6371 H   0  0  0  0  0  0  0  0  0  0  0  0
    4.3734    0.6298   -2.2891 H   0  0  0  0  0  0  0  0  0  0  0  0
    2.3137   -0.8143    0.2945 H   0  0  0  0  0  0  0  0  0  0  0  0
    3.4209    0.1363    1.2894 H   0  0  0  0  0  0  0  0  0  0  0  0
    6.5232    1.1273   -1.1879 H   0  0  0  0  0  0  0  0  0  0  0  0
    5.6949    1.5139    0.3387 H   0  0  0  0  0  0  0  0  0  0  0  0
    4.4299   -2.0214    0.6790 H   0  0  0  0  0  0  0  0  0  0  0  0
    4.1810   -1.7114   -1.0474 H   0  0  0  0  0  0  0  0  0  0  0  0
   -4.0089   -1.0922    1.1733 H   0  0  0  0  0  0  0  0  0  0  0  0
    7.8455    0.6381    0.7825 H   0  0  0  0  0  0  0  0  0  0  0  0
    9.9736   -0.5047    1.2142 H   0  0  0  0  0  0  0  0  0  0  0  0
    8.1775   -4.1675   -0.1006 H   0  0  0  0  0  0  0  0  0  0  0  0
   -6.1779   -1.9543    1.8969 H   0  0  0  0  0  0  0  0  0  0  0  0
   -7.7720   -0.5337   -1.8751 H   0  0  0  0  0  0  0  0  0  0  0  0
   10.1766   -2.9521    0.7821 H   0  0  0  0  0  0  0  0  0  0  0  0
   -8.4076   -2.7789    2.5044 H   0  0  0  0  0  0  0  0  0  0  0  0
   -9.9806   -1.3679   -1.2369 H   0  0  0  0  0  0  0  0  0  0  0  0
  -10.3179   -2.4928    0.9480 H   0  0  0  0  0  0  0  0  0  0  0  0
  1 15  2  0  0  0  0
  2  6  1  0  0  0  0
  2 23  1  0  0  0  0
  3 11  1  0  0  0  0
  3 13  1  0  0  0  0
  3 46  1  0  0  0  0
  4 15  1  0  0  0  0
  4 17  1  0  0  0  0
  4 18  1  0  0  0  0
  5 19  1  0  0  0  0
  5 20  1  0  0  0  0
  5 22  1  0  0  0  0
  6 16  2  0  0  0  0
  7 22  1  0  0  0  0
  7 27  2  0  0  0  0
  8  9  1  0  0  0  0
  8 10  1  0  0  0  0
  8 12  1  0  0  0  0
  8 34  1  0  0  0  0
  9 11  1  0  0  0  0
  9 14  1  0  0  0  0
  9 35  1  0  0  0  0
 10 13  1  0  0  0  0
 10 36  1  0  0  0  0
 10 37  1  0  0  0  0
 11 38  1  0  0  0  0
 11 39  1  0  0  0  0
 12 15  1  0  0  0  0
 12 40  1  0  0  0  0
 12 41  1  0  0  0  0
 13 42  1  0  0  0  0
 13 43  1  0  0  0  0
 14 16  1  0  0  0  0
 14 44  1  0  0  0  0
 14 45  1  0  0  0  0
 16 21  1  0  0  0  0
 17 19  1  0  0  0  0
 17 47  1  0  0  0  0
 17 48  1  0  0  0  0
 18 20  1  0  0  0  0
 18 49  1  0  0  0  0
 18 50  1  0  0  0  0
 19 51  1  0  0  0  0
 19 52  1  0  0  0  0
 20 53  1  0  0  0  0
 20 54  1  0  0  0  0
 21 23  2  0  0  0  0
 21 55  1  0  0  0  0
 22 24  2  0  0  0  0
 23 25  1  0  0  0  0
 24 26  1  0  0  0  0
 24 56  1  0  0  0  0
 25 28  2  0  0  0  0
 25 29  1  0  0  0  0
 26 30  2  0  0  0  0
 26 57  1  0  0  0  0
 27 30  1  0  0  0  0
 27 58  1  0  0  0  0
 28 31  1  0  0  0  0
 28 59  1  0  0  0  0
 29 32  2  0  0  0  0
 29 60  1  0  0  0  0
 30 61  1  0  0  0  0
 31 33  2  0  0  0  0
 31 62  1  0  0  0  0
 32 33  1  0  0  0  0
 32 63  1  0  0  0  0
 33 64  1  0  0  0  0
M  END
> <PUBCHEM_COMPOUND_CID>
40777397

> <PUBCHEM_CONFORMER_RMSD>
1

> <PUBCHEM_CONFORMER_DIVERSEORDER>
1
146
78
180
139
142
88
170
181
115
157
60
81
36
45
61
138
163
187
184
64
183
117
148
116
169
161
58
97
129
164
124
140
121
144
123
109
175
165
87
137
70
33
172
31
96
113
119
10
189
68
91
133
35
150
173
145
167
125
190
17
34
46
135
53
178
149
62
54
14
44
120
11
93
3
80
141
100
39
75
107
42
143
66
18
118
191
27
9
56
128
127
182
90
174
185
108
102
79
155
84
32
21
132
159
112
67
101
23
40
104
43
86
99
152
38
19
59
151
83
186
73
6
105
69
30
72
130
4
103
24
47
65
158
49
29
22
41
25
162
63
106
110
52
94
188
26
20
153
8
160
171
77
5
15
37
166
55
122
12
92
48
85
134
114
176
136
147
51
82
111
177
2
7
131
179
76
57
168
16
98
89
28
95
156
154
126
74
50
71
13

> <PUBCHEM_MMFF94_PARTIAL_CHARGES>
41
1 -0.57
11 0.27
12 0.06
13 0.27
14 0.18
15 0.57
16 0.11
17 0.3
18 0.3
19 0.37
2 -0.02
20 0.37
21 -0.15
22 0.41
23 0.09
24 -0.15
25 0.05
26 -0.15
27 0.16
28 -0.15
29 -0.15
3 -0.9
30 -0.15
31 -0.15
32 -0.15
33 -0.15
4 -0.66
46 0.36
5 -0.84
55 0.15
56 0.15
57 0.15
58 0.15
59 0.15
6 -0.41
60 0.15
61 0.15
62 0.15
63 0.15
64 0.15
7 -0.62

> <PUBCHEM_EFFECTIVE_ROTOR_COUNT>
9.4

> <PUBCHEM_PHARMACOPHORE_FEATURES>
11
1 1 acceptor
1 3 cation
1 3 donor
1 5 cation
1 6 acceptor
1 7 acceptor
5 2 6 16 21 23 rings
6 25 28 29 31 32 33 rings
6 3 8 9 10 11 13 rings
6 4 5 17 18 19 20 rings
6 7 22 24 26 27 30 rings

> <PUBCHEM_HEAVY_ATOM_COUNT>
33

> <PUBCHEM_ATOM_DEF_STEREO_COUNT>
2

> <PUBCHEM_ATOM_UDEF_STEREO_COUNT>
0

> <PUBCHEM_BOND_DEF_STEREO_COUNT>
0

> <PUBCHEM_BOND_UDEF_STEREO_COUNT>
0

> <PUBCHEM_ISOTOPIC_ATOM_COUNT>
0

> <PUBCHEM_COMPONENT_COUNT>
1

> <PUBCHEM_CACTVS_TAUTO_COUNT>
1

> <PUBCHEM_CONFORMER_ID>
026E36B500000001

> <PUBCHEM_MMFF94_ENERGY>
83.4083

> <PUBCHEM_FEATURE_SELFOVERLAP>
55.823

> <PUBCHEM_SHAPE_FINGERPRINT>
10 15 12535630474638793302
10100884 174 18410290307691072242
10258705 36 17823148989708945923
10625338 86 14189580710972744187
10930396 42 15195284223249899723
11135609 99 18408323311432074910
11273773 46 18186522116352839931
11297750 10 18343011216524953889
11386260 185 15575003905159889478
11456790 92 18130238142328904611
11607047 74 18115031943883423812
11672396 167 18340200912929537863
11973863 73 18343026562784674923
12013929 94 18410856531020683934
12539745 222 18409165481335766245
12838863 1 18259981549130100402
13150687 139 12107779679565133328
13165054 27 10951772945932634331
13668630 136 18113614569550379702
13673619 4 18334574677195442613
13782708 43 18265052621627602063
13947934 56 18336262363009078693
14359421 15 17676201347282444850
14664723 55 8142085399010830078
14705955 166 15626233381592086091
15064981 194 11891635510834328077
15131766 46 10015575069873697692
15145347 29 18267598906022442550
15198563 99 16226314959759792351
15320294 125 18202560700492537631
15347590 135 16774080644347784286
15350500 55 11600012037594282267
15419008 145 17988653982928841681
15773216 30 18044382849356632244
16993427 108 18273210893829452913
17134984 74 17531241773226022002
1754911 235 8070027770111925898
17852330 53 15984276101878329254
19246450 95 17703517597963450489
19301679 30 17988093196499064543
19302320 297 12607396694724332658
19841028 212 18333450967331303394
20105231 36 17822296825537383099
2026 5 18187642470940308834
20691028 202 10663516220324897634
20721686 146 10231765482986500779
20771845 65 18411981398733025444
208703 8 18409728447988430424
212700 22 18333444331618146938
21756936 100 10159400034288491740
21792961 116 18410004413197242917
22899556 105 17458337529327707603
23389318 12 18040443175377678494
23524908 199 11530753779518974104
23528940 14 18338230463528046626
23569917 315 18336268930288828954
23569943 247 18341893035401737767
23576562 1 10954042402166584735
24771293 8 12535627176694812097
2851757 41 18333739008844427066
3383291 50 18410857667768752379
406291 66 18408886209597955366
4149490 64 18115306812403373272
4169191 19 8862676698667933295
439807 62 18259988201532859551
4403749 210 10663812001753587821
4461854 278 17917992785195123518
44880568 143 17022615360654698076
5219985 9 18060139868725880289
5372103 7 9799700290214021075
54039377 194 18408041809873079638
5470011 282 17822295729491891700
5718773 13 18335421253560999380
58083652 198 17489293222983986681
58260988 647 18187370969262339673
6201320 82 8213326052052956615
9689198 14 10663817499163351052
9937071 3 18335138700025764827
9953998 17 14979952579809208909

> <PUBCHEM_SHAPE_MULTIPOLES>
642.48
32.84
3.66
1.47
2.54
1.69
0.29
-41.52
3.75
1.93
1.47
-1.64
0.82
-0.61

> <PUBCHEM_SHAPE_SELFOVERLAP>
1380.867

> <PUBCHEM_SHAPE_VOLUME>
350.5

> <PUBCHEM_COORDINATE_TYPE>
2
5
10

$$$$
