11886654
  -OEChem-12032416123D

 58 61  0     1  0  0  0  0  0999 V2000
   -1.4278   -1.0091   -1.0575 O   0  0  0  0  0  0  0  0  0  0  0  0
   -2.8494   -3.3392    0.3934 O   0  0  0  0  0  0  0  0  0  0  0  0
    0.6189   -2.5160    0.0425 O   0  0  0  0  0  0  0  0  0  0  0  0
    1.1236   -0.6187    1.2153 O   0  0  0  0  0  0  0  0  0  0  0  0
   -7.4540    3.0153   -0.6081 O   0  0  0  0  0  0  0  0  0  0  0  0
   -4.4517   -0.0892   -0.1428 N   0  0  0  0  0  0  0  0  0  0  0  0
   -3.7713    0.9593    0.3396 N   0  0  0  0  0  0  0  0  0  0  0  0
   -4.6621    1.9000    0.6333 N   0  0  0  0  0  0  0  0  0  0  0  0
    2.6448   -1.5791   -0.2827 N   0  0  0  0  0  0  0  0  0  0  0  0
   -2.9187   -1.9059    0.5608 C   0  0  1  0  0  0  0  0  0  0  0  0
   -1.5197   -1.3700    0.3295 C   0  0  1  0  0  0  0  0  0  0  0  0
   -3.7464   -1.3039   -0.5581 C   0  0  2  0  0  0  0  0  0  0  0  0
   -0.6495   -2.5605    0.6555 C   0  0  1  0  0  0  0  0  0  0  0  0
   -2.7205   -1.1157   -1.6711 C   0  0  0  0  0  0  0  0  0  0  0  0
   -1.4862   -3.7127    0.1503 C   0  0  0  0  0  0  0  0  0  0  0  0
   -5.7888    0.1416   -0.1744 C   0  0  0  0  0  0  0  0  0  0  0  0
   -5.9027    1.4149    0.3245 C   0  0  0  0  0  0  0  0  0  0  0  0
    1.4500   -1.4756    0.4030 C   0  0  0  0  0  0  0  0  0  0  0  0
   -7.1114    2.2217    0.5352 C   0  0  0  0  0  0  0  0  0  0  0  0
    7.1536    1.8569    0.0109 C   0  0  0  0  0  0  0  0  0  0  0  0
    3.7674   -0.7234   -0.2095 C   0  0  0  0  0  0  0  0  0  0  0  0
    5.9689    0.9540   -0.0663 C   0  0  0  0  0  0  0  0  0  0  0  0
    7.4753    2.4879   -1.3792 C   0  0  0  0  0  0  0  0  0  0  0  0
    7.0131    3.0660    0.9944 C   0  0  0  0  0  0  0  0  0  0  0  0
    8.4243    1.0841    0.4823 C   0  0  0  0  0  0  0  0  0  0  0  0
    5.9909   -0.1547   -0.9123 C   0  0  0  0  0  0  0  0  0  0  0  0
    4.8389    1.2186    0.7076 C   0  0  0  0  0  0  0  0  0  0  0  0
    4.8828   -0.9990   -0.9844 C   0  0  0  0  0  0  0  0  0  0  0  0
    3.7310    0.3743    0.6356 C   0  0  0  0  0  0  0  0  0  0  0  0
   -8.6234    3.7782   -0.3671 C   0  0  0  0  0  0  0  0  0  0  0  0
   -3.2970   -1.7134    1.5699 H   0  0  0  0  0  0  0  0  0  0  0  0
   -1.3078   -0.4757    0.9209 H   0  0  0  0  0  0  0  0  0  0  0  0
   -4.5281   -1.9927   -0.9018 H   0  0  0  0  0  0  0  0  0  0  0  0
   -0.5390   -2.6597    1.7438 H   0  0  0  0  0  0  0  0  0  0  0  0
   -2.6939   -1.9934   -2.3261 H   0  0  0  0  0  0  0  0  0  0  0  0
   -2.9014   -0.2310   -2.2891 H   0  0  0  0  0  0  0  0  0  0  0  0
   -1.3511   -3.8870   -0.9231 H   0  0  0  0  0  0  0  0  0  0  0  0
   -1.2629   -4.6492    0.6702 H   0  0  0  0  0  0  0  0  0  0  0  0
   -6.5111   -0.5798   -0.5296 H   0  0  0  0  0  0  0  0  0  0  0  0
   -6.9566    2.8871    1.3936 H   0  0  0  0  0  0  0  0  0  0  0  0
   -7.9552    1.5625    0.7748 H   0  0  0  0  0  0  0  0  0  0  0  0
    2.7294   -2.3676   -0.9197 H   0  0  0  0  0  0  0  0  0  0  0  0
    8.3282    3.1738   -1.3180 H   0  0  0  0  0  0  0  0  0  0  0  0
    7.7261    1.7265   -2.1260 H   0  0  0  0  0  0  0  0  0  0  0  0
    6.6157    3.0527   -1.7587 H   0  0  0  0  0  0  0  0  0  0  0  0
    6.8532    2.7289    2.0252 H   0  0  0  0  0  0  0  0  0  0  0  0
    6.1828    3.7222    0.7085 H   0  0  0  0  0  0  0  0  0  0  0  0
    7.9212    3.6811    0.9960 H   0  0  0  0  0  0  0  0  0  0  0  0
    8.2578    0.6229    1.4629 H   0  0  0  0  0  0  0  0  0  0  0  0
    9.2890    1.7525    0.5670 H   0  0  0  0  0  0  0  0  0  0  0  0
    8.7002    0.2860   -0.2157 H   0  0  0  0  0  0  0  0  0  0  0  0
    6.8573   -0.3842   -1.5260 H   0  0  0  0  0  0  0  0  0  0  0  0
    4.7694    2.0661    1.3809 H   0  0  0  0  0  0  0  0  0  0  0  0
    4.9101   -1.8600   -1.6465 H   0  0  0  0  0  0  0  0  0  0  0  0
    2.8936    0.6425    1.2633 H   0  0  0  0  0  0  0  0  0  0  0  0
   -9.4765    3.1237   -0.1634 H   0  0  0  0  0  0  0  0  0  0  0  0
   -8.4696    4.4673    0.4691 H   0  0  0  0  0  0  0  0  0  0  0  0
   -8.8433    4.3648   -1.2632 H   0  0  0  0  0  0  0  0  0  0  0  0
  1 11  1  0  0  0  0
  1 14  1  0  0  0  0
  2 10  1  0  0  0  0
  2 15  1  0  0  0  0
  3 13  1  0  0  0  0
  3 18  1  0  0  0  0
  4 18  2  0  0  0  0
  5 19  1  0  0  0  0
  5 30  1  0  0  0  0
  6  7  1  0  0  0  0
  6 12  1  0  0  0  0
  6 16  1  0  0  0  0
  7  8  2  0  0  0  0
  8 17  1  0  0  0  0
  9 18  1  0  0  0  0
  9 21  1  0  0  0  0
  9 42  1  0  0  0  0
 10 11  1  0  0  0  0
 10 12  1  0  0  0  0
 10 31  1  0  0  0  0
 11 13  1  0  0  0  0
 11 32  1  0  0  0  0
 12 14  1  0  0  0  0
 12 33  1  0  0  0  0
 13 15  1  0  0  0  0
 13 34  1  0  0  0  0
 14 35  1  0  0  0  0
 14 36  1  0  0  0  0
 15 37  1  0  0  0  0
 15 38  1  0  0  0  0
 16 17  2  0  0  0  0
 16 39  1  0  0  0  0
 17 19  1  0  0  0  0
 19 40  1  0  0  0  0
 19 41  1  0  0  0  0
 20 22  1  0  0  0  0
 20 23  1  0  0  0  0
 20 24  1  0  0  0  0
 20 25  1  0  0  0  0
 21 28  2  0  0  0  0
 21 29  1  0  0  0  0
 22 26  2  0  0  0  0
 22 27  1  0  0  0  0
 23 43  1  0  0  0  0
 23 44  1  0  0  0  0
 23 45  1  0  0  0  0
 24 46  1  0  0  0  0
 24 47  1  0  0  0  0
 24 48  1  0  0  0  0
 25 49  1  0  0  0  0
 25 50  1  0  0  0  0
 25 51  1  0  0  0  0
 26 28  1  0  0  0  0
 26 52  1  0  0  0  0
 27 29  2  0  0  0  0
 27 53  1  0  0  0  0
 28 54  1  0  0  0  0
 29 55  1  0  0  0  0
 30 56  1  0  0  0  0
 30 57  1  0  0  0  0
 30 58  1  0  0  0  0
M  END
> <PUBCHEM_COMPOUND_CID>
11886654

> <PUBCHEM_CONFORMER_RMSD>
1

> <PUBCHEM_CONFORMER_DIVERSEORDER>
1
50
5
39
59
58
19
55
33
35
43
25
47
22
45
28
38
32
44
51
46
57
18
56
31
52
27
21
60
41
20
26
2
29
8
11
54
23
49
36
10
37
42
15
9
48
3
17
40
14
24
34
30
53
6
13
12
7
16
4

> <PUBCHEM_MMFF94_PARTIAL_CHARGES>
33
1 -0.56
10 0.28
11 0.28
12 0.26
13 0.28
14 0.28
15 0.28
16 -0.3
17 0.05
18 0.78
19 0.46
2 -0.56
20 0.14
21 0.12
22 -0.14
26 -0.15
27 -0.15
28 -0.15
29 -0.15
3 -0.43
30 0.28
39 0.15
4 -0.57
42 0.37
5 -0.56
52 0.15
53 0.15
54 0.15
55 0.15
6 0.31
7 -0.42
8 -0.23
9 -0.55

> <PUBCHEM_EFFECTIVE_ROTOR_COUNT>
9.2

> <PUBCHEM_PHARMACOPHORE_FEATURES>
10
1 1 acceptor
1 2 acceptor
1 4 acceptor
1 5 acceptor
1 9 donor
4 20 23 24 25 hydrophobe
5 1 10 11 12 14 rings
5 2 10 11 13 15 rings
5 6 7 8 16 17 rings
6 21 22 26 27 28 29 rings

> <PUBCHEM_HEAVY_ATOM_COUNT>
30

> <PUBCHEM_ATOM_DEF_STEREO_COUNT>
4

> <PUBCHEM_ATOM_UDEF_STEREO_COUNT>
0

> <PUBCHEM_BOND_DEF_STEREO_COUNT>
0

> <PUBCHEM_BOND_UDEF_STEREO_COUNT>
0

> <PUBCHEM_ISOTOPIC_ATOM_COUNT>
0

> <PUBCHEM_COMPONENT_COUNT>
1

> <PUBCHEM_CACTVS_TAUTO_COUNT>
2

> <PUBCHEM_CONFORMER_ID>
00B5603E00000001

> <PUBCHEM_MMFF94_ENERGY>
88.3031

> <PUBCHEM_FEATURE_SELFOVERLAP>
51.448

> <PUBCHEM_SHAPE_FINGERPRINT>
10280341 67 18342443864282347024
10411042 1 17689999359861755739
10533779 1 18411689968164515161
10622 236 11460435706880756641
10740516 88 10663518453777016189
10835480 77 18273217521639002754
10883706 163 18186235147501379284
11393246 34 8790619103927813488
11409948 8 18261970596457083969
11421887 45 18339909476769087865
11475781 23 18343589547240239942
12013929 112 18264793038199128294
12522641 68 18273492369344883911
12895837 130 18270682081441421471
13248334 5 17977945688061150755
13668630 136 11023819557548494989
13690498 29 17130696374565730175
13782708 43 8646501708666042014
14068700 675 10447928381900845546
14359421 15 12463568448802174605
14394314 77 18410577258640263049
14395042 24 17896332488291113067
14565420 104 17969223344079904331
14931854 50 17846780676458413233
15152005 290 18410009923271083031
15152005 77 11241973685787081089
15183329 4 16630532825371800394
15188451 53 8358259228552951266
1577012 14 18410851041081756299
15778101 99 18409167748793395282
15803439 3 16845569816501467487
16126227 98 18411142441901799147
16994733 274 18334011700633389169
19438510 23 18259704501552321050
2026 5 9294994762225698785
20609170 45 18193851354285933366
20691028 202 18408324397383469860
21033648 29 18040721346237940239
21298829 104 18408886235003879477
21424621 283 18407761443335502474
21585482 111 18335700494897052581
21623969 137 12757415173545177370
21756936 100 18411979187383459151
21781055 127 17895472644845126416
22899556 105 12607396651695344021
23522609 53 17314802995772415692
23523787 8 16271633513083678727
23523788 1 12757429393559662977
23569914 152 17127353593223977356
23569943 247 9727631718398259325
24771293 8 18334575733683395269
25242607 90 8213848268156019997
270888 7 18410009910344074139
3627633 1 17977667834142680219
3918712 181 18339355275753011545
392239 28 14996293530416995151
393628 194 18335701676139484509
406291 66 9367338233001209645
4073 2 18262522606374908226
4403749 210 18260553312788663499
44249763 50 17703214239574679930
44802255 64 17417815084052253799
5104073 3 16372142207456526598
5385378 56 18040149592298076634
54583773 228 18411411797372695173
5718773 13 9439401324327646977
5776283 40 18343299288650020161
58260988 647 10591174965477341421
6201320 82 18266478666597854428
6327066 14 18410855439196813191
636775 72 18340203111092696824
636775 8 7853308561954748056
6712543 237 15285646469491969329
8863177 126 8214149538842277838
9689198 14 18410581656548584841
9980921 7 18114176437726301309

> <PUBCHEM_SHAPE_MULTIPOLES>
568.12
25.92
4.27
1.07
5.14
0.6
-0.22
35.32
-1.79
-6.18
0.23
0.66
0.09
0.65

> <PUBCHEM_SHAPE_SELFOVERLAP>
1212.7

> <PUBCHEM_SHAPE_VOLUME>
317.7

> <PUBCHEM_COORDINATE_TYPE>
2
5
10

$$$$
