45784373
  -OEChem-12032416143D

 76 79  0     1  0  0  0  0  0999 V2000
   -2.0512   -1.0403    2.0902 O   0  0  0  0  0  0  0  0  0  0  0  0
   -6.7025   -1.8758   -0.4078 O   0  0  0  0  0  0  0  0  0  0  0  0
    3.8789    1.9071    0.1974 O   0  0  0  0  0  0  0  0  0  0  0  0
    6.3227    0.9298    0.7630 O   0  0  0  0  0  0  0  0  0  0  0  0
    2.9372   -0.2181    0.1457 N   0  0  0  0  0  0  0  0  0  0  0  0
   -6.1834    0.1073    0.6776 N   0  0  0  0  0  0  0  0  0  0  0  0
   -1.0290   -0.3555   -1.5240 C   0  0  1  0  0  0  0  0  0  0  0  0
   -0.9143   -0.3805    0.0366 C   0  0  2  0  0  0  0  0  0  0  0  0
    0.5385   -0.7767    0.4840 C   0  0  1  0  0  0  0  0  0  0  0  0
   -2.0612   -1.2174    0.6728 C   0  0  2  0  0  0  0  0  0  0  0  0
   -2.4348    0.1467   -1.9300 C   0  0  0  0  0  0  0  0  0  0  0  0
   -3.4605   -0.7780    0.1824 C   0  0  1  0  0  0  0  0  0  0  0  0
    0.0085    0.6417   -2.0899 C   0  0  0  0  0  0  0  0  0  0  0  0
    1.5795    0.1874   -0.1516 C   0  0  2  0  0  0  0  0  0  0  0  0
   -3.5594   -0.6942   -1.3407 C   0  0  0  0  0  0  0  0  0  0  0  0
    1.4355    0.3235   -1.6670 C   0  0  0  0  0  0  0  0  0  0  0  0
   -0.7958   -1.7496   -2.1592 C   0  0  0  0  0  0  0  0  0  0  0  0
   -4.5656   -1.6969    0.7178 C   0  0  2  0  0  0  0  0  0  0  0  0
    0.7300   -0.7930    2.0100 C   0  0  0  0  0  0  0  0  0  0  0  0
   -4.3225   -3.1313    0.2614 C   0  0  0  0  0  0  0  0  0  0  0  0
   -5.9299   -1.1910    0.2594 C   0  0  0  0  0  0  0  0  0  0  0  0
    3.9742    0.6867    0.2947 C   0  0  0  0  0  0  0  0  0  0  0  0
   -7.4075    0.8024    0.3649 C   0  0  0  0  0  0  0  0  0  0  0  0
   -7.7460    1.8569    1.4120 C   0  0  0  0  0  0  0  0  0  0  0  0
   -7.2776    1.6237   -0.9114 C   0  0  0  0  0  0  0  0  0  0  0  0
    5.2823   -0.0108    0.6018 C   0  0  0  0  0  0  0  0  0  0  0  0
   -6.9310    3.0859    1.0126 C   0  0  0  0  0  0  0  0  0  0  0  0
   -6.5947    2.9149   -0.4690 C   0  0  0  0  0  0  0  0  0  0  0  0
    7.5922    0.5257    0.4229 C   0  0  0  0  0  0  0  0  0  0  0  0
    7.9542   -0.8155    0.5478 C   0  0  0  0  0  0  0  0  0  0  0  0
    8.5179    1.4570   -0.0473 C   0  0  0  0  0  0  0  0  0  0  0  0
    9.2421   -1.2255    0.2027 C   0  0  0  0  0  0  0  0  0  0  0  0
    9.8057    1.0473   -0.3925 C   0  0  0  0  0  0  0  0  0  0  0  0
   10.1679   -0.2940   -0.2674 C   0  0  0  0  0  0  0  0  0  0  0  0
   -1.0582    0.6520    0.3937 H   0  0  0  0  0  0  0  0  0  0  0  0
    0.7498   -1.7967    0.1390 H   0  0  0  0  0  0  0  0  0  0  0  0
   -1.8546   -2.2705    0.4750 H   0  0  0  0  0  0  0  0  0  0  0  0
   -2.5323    0.1606   -3.0232 H   0  0  0  0  0  0  0  0  0  0  0  0
   -2.5662    1.1857   -1.5986 H   0  0  0  0  0  0  0  0  0  0  0  0
   -3.6187    0.2362    0.5727 H   0  0  0  0  0  0  0  0  0  0  0  0
   -0.0435    0.6632   -3.1859 H   0  0  0  0  0  0  0  0  0  0  0  0
   -0.2343    1.6580   -1.7515 H   0  0  0  0  0  0  0  0  0  0  0  0
    1.4288    1.1836    0.2871 H   0  0  0  0  0  0  0  0  0  0  0  0
   -3.5386   -1.6754   -1.8196 H   0  0  0  0  0  0  0  0  0  0  0  0
   -4.5050   -0.2313   -1.6450 H   0  0  0  0  0  0  0  0  0  0  0  0
    1.7804   -0.5917   -2.1635 H   0  0  0  0  0  0  0  0  0  0  0  0
    2.0977    1.1189   -2.0329 H   0  0  0  0  0  0  0  0  0  0  0  0
    0.2111   -2.1349   -1.9794 H   0  0  0  0  0  0  0  0  0  0  0  0
   -0.9300   -1.7047   -3.2464 H   0  0  0  0  0  0  0  0  0  0  0  0
   -1.4884   -2.5050   -1.7778 H   0  0  0  0  0  0  0  0  0  0  0  0
   -4.5731   -1.6783    1.8152 H   0  0  0  0  0  0  0  0  0  0  0  0
    0.3812    0.1400    2.4644 H   0  0  0  0  0  0  0  0  0  0  0  0
    1.7803   -0.9248    2.2893 H   0  0  0  0  0  0  0  0  0  0  0  0
    0.2001   -1.6343    2.4654 H   0  0  0  0  0  0  0  0  0  0  0  0
    3.1405   -1.2131    0.1837 H   0  0  0  0  0  0  0  0  0  0  0  0
   -2.1782   -0.0947    2.2778 H   0  0  0  0  0  0  0  0  0  0  0  0
   -4.3252   -3.2639   -0.8229 H   0  0  0  0  0  0  0  0  0  0  0  0
   -5.1355   -3.7681    0.6344 H   0  0  0  0  0  0  0  0  0  0  0  0
   -3.4074   -3.5637    0.6717 H   0  0  0  0  0  0  0  0  0  0  0  0
   -5.4992    0.5937    1.2479 H   0  0  0  0  0  0  0  0  0  0  0  0
   -8.2129    0.0655    0.2756 H   0  0  0  0  0  0  0  0  0  0  0  0
   -7.5301    1.5378    2.4366 H   0  0  0  0  0  0  0  0  0  0  0  0
   -8.8138    2.1024    1.3550 H   0  0  0  0  0  0  0  0  0  0  0  0
   -8.2754    1.8604   -1.3011 H   0  0  0  0  0  0  0  0  0  0  0  0
   -6.7191    1.1170   -1.7046 H   0  0  0  0  0  0  0  0  0  0  0  0
    5.4703   -0.6913   -0.2395 H   0  0  0  0  0  0  0  0  0  0  0  0
    5.1618   -0.5848    1.5278 H   0  0  0  0  0  0  0  0  0  0  0  0
   -7.4922    4.0078    1.1969 H   0  0  0  0  0  0  0  0  0  0  0  0
   -6.0075    3.1426    1.6002 H   0  0  0  0  0  0  0  0  0  0  0  0
   -5.5087    2.8314   -0.5945 H   0  0  0  0  0  0  0  0  0  0  0  0
   -6.9286    3.7698   -1.0654 H   0  0  0  0  0  0  0  0  0  0  0  0
    7.2714   -1.5661    0.9347 H   0  0  0  0  0  0  0  0  0  0  0  0
    8.2413    2.5031   -0.1468 H   0  0  0  0  0  0  0  0  0  0  0  0
    9.5264   -2.2687    0.3056 H   0  0  0  0  0  0  0  0  0  0  0  0
   10.5267    1.7725   -0.7583 H   0  0  0  0  0  0  0  0  0  0  0  0
   11.1711   -0.6129   -0.5348 H   0  0  0  0  0  0  0  0  0  0  0  0
  1 10  1  0  0  0  0
  1 56  1  0  0  0  0
  2 21  2  0  0  0  0
  3 22  2  0  0  0  0
  4 26  1  0  0  0  0
  4 29  1  0  0  0  0
  5 14  1  0  0  0  0
  5 22  1  0  0  0  0
  5 55  1  0  0  0  0
  6 21  1  0  0  0  0
  6 23  1  0  0  0  0
  6 60  1  0  0  0  0
  7  8  1  0  0  0  0
  7 11  1  0  0  0  0
  7 13  1  0  0  0  0
  7 17  1  0  0  0  0
  8  9  1  0  0  0  0
  8 10  1  0  0  0  0
  8 35  1  0  0  0  0
  9 14  1  0  0  0  0
  9 19  1  0  0  0  0
  9 36  1  0  0  0  0
 10 12  1  0  0  0  0
 10 37  1  0  0  0  0
 11 15  1  0  0  0  0
 11 38  1  0  0  0  0
 11 39  1  0  0  0  0
 12 15  1  0  0  0  0
 12 18  1  0  0  0  0
 12 40  1  0  0  0  0
 13 16  1  0  0  0  0
 13 41  1  0  0  0  0
 13 42  1  0  0  0  0
 14 16  1  0  0  0  0
 14 43  1  0  0  0  0
 15 44  1  0  0  0  0
 15 45  1  0  0  0  0
 16 46  1  0  0  0  0
 16 47  1  0  0  0  0
 17 48  1  0  0  0  0
 17 49  1  0  0  0  0
 17 50  1  0  0  0  0
 18 20  1  0  0  0  0
 18 21  1  0  0  0  0
 18 51  1  0  0  0  0
 19 52  1  0  0  0  0
 19 53  1  0  0  0  0
 19 54  1  0  0  0  0
 20 57  1  0  0  0  0
 20 58  1  0  0  0  0
 20 59  1  0  0  0  0
 22 26  1  0  0  0  0
 23 24  1  0  0  0  0
 23 25  1  0  0  0  0
 23 61  1  0  0  0  0
 24 27  1  0  0  0  0
 24 62  1  0  0  0  0
 24 63  1  0  0  0  0
 25 28  1  0  0  0  0
 25 64  1  0  0  0  0
 25 65  1  0  0  0  0
 26 66  1  0  0  0  0
 26 67  1  0  0  0  0
 27 28  1  0  0  0  0
 27 68  1  0  0  0  0
 27 69  1  0  0  0  0
 28 70  1  0  0  0  0
 28 71  1  0  0  0  0
 29 30  2  0  0  0  0
 29 31  1  0  0  0  0
 30 32  1  0  0  0  0
 30 72  1  0  0  0  0
 31 33  2  0  0  0  0
 31 73  1  0  0  0  0
 32 34  2  0  0  0  0
 32 74  1  0  0  0  0
 33 34  1  0  0  0  0
 33 75  1  0  0  0  0
 34 76  1  0  0  0  0
M  END
> <PUBCHEM_COMPOUND_CID>
45784373

> <PUBCHEM_CONFORMER_RMSD>
1.2

> <PUBCHEM_CONFORMER_DIVERSEORDER>
1
93
43
139
80
168
149
63
99
172
117
122
74
108
147
34
40
97
173
109
155
36
138
114
26
126
84
135
6
115
169
128
83
33
16
77
148
38
165
162
68
143
45
129
89
116
58
174
113
100
157
67
161
110
105
133
48
121
146
55
153
103
96
73
75
4
140
61
28
141
120
159
98
39
119
150
57
167
87
88
160
124
23
131
30
49
86
123
94
144
81
47
132
85
66
166
152
2
82
13
54
90
151
29
91
69
106
170
18
112
72
41
118
50
163
10
71
142
31
12
137
111
104
92
24
171
145
102
32
78
154
15
79
53
127
56
76
95
125
65
158
20
70
11
107
134
37
64
136
19
101
130
17
7
21
44
42
27
164
25
62
8
3
156
52
46
22
5
14
9
59
51
35
60

> <PUBCHEM_MMFF94_PARTIAL_CHARGES>
27
1 -0.68
10 0.28
14 0.3
18 0.06
2 -0.57
21 0.57
22 0.57
23 0.3
26 0.34
29 0.08
3 -0.57
30 -0.15
31 -0.15
32 -0.15
33 -0.15
34 -0.15
4 -0.36
5 -0.73
55 0.37
56 0.4
6 -0.73
60 0.37
72 0.15
73 0.15
74 0.15
75 0.15
76 0.15

> <PUBCHEM_EFFECTIVE_ROTOR_COUNT>
11.6

> <PUBCHEM_PHARMACOPHORE_FEATURES>
12
1 1 acceptor
1 1 donor
1 2 acceptor
1 20 hydrophobe
1 3 acceptor
1 4 acceptor
1 5 donor
1 6 donor
5 23 24 25 27 28 rings
6 29 30 31 32 33 34 rings
6 7 8 10 11 12 15 rings
6 7 8 9 13 14 16 rings

> <PUBCHEM_HEAVY_ATOM_COUNT>
34

> <PUBCHEM_ATOM_DEF_STEREO_COUNT>
6

> <PUBCHEM_ATOM_UDEF_STEREO_COUNT>
1

> <PUBCHEM_BOND_DEF_STEREO_COUNT>
0

> <PUBCHEM_BOND_UDEF_STEREO_COUNT>
0

> <PUBCHEM_ISOTOPIC_ATOM_COUNT>
0

> <PUBCHEM_COMPONENT_COUNT>
1

> <PUBCHEM_CACTVS_TAUTO_COUNT>
4

> <PUBCHEM_CONFORMER_ID>
02BA9D3500000001

> <PUBCHEM_MMFF94_ENERGY>
97.7544

> <PUBCHEM_FEATURE_SELFOVERLAP>
60.918

> <PUBCHEM_SHAPE_FINGERPRINT>
10076449 9 13262401063576519645
10162869 55 9943519714373281872
10533779 1 18194404382675957097
10577160 183 16702295733224320559
10580692 12 18408322176753314146
10674148 151 18186799197725446880
11135926 11 16153421757605696883
11181472 205 18130795512793007208
12104220 1 18334572417911055509
12539745 222 18341335595743463235
12539747 164 17915445302352011439
12838862 33 15339113521085344878
13885169 127 18410011048109442051
14040221 310 14979951451087404345
14150023 24 17489585654263813262
14444916 359 16877942720220372218
15131766 46 17555160721451029064
15392192 29 16877952650237332018
15461852 350 17346592002428645013
18335252 98 14562527363244426936
20105231 36 15574714690746822576
20721686 146 18339922594320928909
21150785 3 9871750195658803652
21267235 1 16588023541183763742
21772524 286 18338799992306241812
21781055 127 17895492323361227812
21792961 116 17132117910055937400
21792965 68 18130234762010671553
21927370 108 15140678051327855252
23576562 1 16557885953637524545
23729398 52 12758021021205684774
24771293 8 17967250896906436710
249057 3 16200430304120741426
335352 9 16370716076361646927
437795 83 16200157543585780577
44280117 145 18117281569652482946
44802255 64 17489585658938049367
4625314 4 18341333370881409346
5028188 123 18261394498865152126
54039377 194 12757157883096936593
6009941 240 18342741827221314091
6201320 215 18200877271124191105
6691757 9 15051737533470903070
9953998 17 18040998449022014671
999808 66 14201115700407765081

> <PUBCHEM_SHAPE_MULTIPOLES>
666.26
31.76
2.43
1.67
61.26
0.52
-0.48
13.02
5.57
-5.9
0.32
-1.47
-0.18
-0.67

> <PUBCHEM_SHAPE_SELFOVERLAP>
1391.712

> <PUBCHEM_SHAPE_VOLUME>
374.7

> <PUBCHEM_COORDINATE_TYPE>
2
5
10

$$$$
