25338738
  -OEChem-12032416203D

 50 53  0     1  0  0  0  0  0999 V2000
   -3.8535    1.7618   -0.5495 O   0  0  0  0  0  0  0  0  0  0  0  0
    2.9390    2.2401   -1.8370 O   0  0  0  0  0  0  0  0  0  0  0  0
    5.4351   -2.8884    0.9040 O   0  0  0  0  0  0  0  0  0  0  0  0
   -1.0607    3.0130    1.1974 N   0  0  1  0  0  0  0  0  0  0  0  0
    1.5477    2.0715    0.0105 N   0  0  0  0  0  0  0  0  0  0  0  0
   -2.2275    0.3280    0.0135 N   0  0  0  0  0  0  0  0  0  0  0  0
   -4.4369    0.4885   -0.5582 N   0  0  0  0  0  0  0  0  0  0  0  0
    0.7123    3.2063   -0.3037 C   0  0  1  0  0  0  0  0  0  0  0  0
   -1.6935    2.8210   -0.1215 C   0  0  1  0  0  0  0  0  0  0  0  0
   -0.5155    2.7935   -1.1153 C   0  0  0  0  0  0  0  0  0  0  0  0
    0.1313    3.8317    0.9554 C   0  0  0  0  0  0  0  0  0  0  0  0
   -2.5526    1.5774   -0.2035 C   0  0  0  0  0  0  0  0  0  0  0  0
   -1.9506    3.6239    2.1775 C   0  0  0  0  0  0  0  0  0  0  0  0
    2.6054    1.6803   -0.7960 C   0  0  0  0  0  0  0  0  0  0  0  0
   -3.4156   -0.3026   -0.2162 C   0  0  0  0  0  0  0  0  0  0  0  0
    3.3514    0.4762   -0.3481 C   0  0  0  0  0  0  0  0  0  0  0  0
   -3.5484   -1.7258   -0.0969 C   0  0  0  0  0  0  0  0  0  0  0  0
    4.0128   -0.3219   -1.2817 C   0  0  0  0  0  0  0  0  0  0  0  0
    3.3903    0.1437    1.0060 C   0  0  0  0  0  0  0  0  0  0  0  0
   -2.4459   -2.5014    0.2622 C   0  0  0  0  0  0  0  0  0  0  0  0
   -4.7797   -2.3344   -0.3407 C   0  0  0  0  0  0  0  0  0  0  0  0
    4.7135   -1.4523   -0.8610 C   0  0  0  0  0  0  0  0  0  0  0  0
    4.0908   -0.9869    1.4267 C   0  0  0  0  0  0  0  0  0  0  0  0
    4.7524   -1.7848    0.4932 C   0  0  0  0  0  0  0  0  0  0  0  0
   -2.5748   -3.8856    0.3775 C   0  0  0  0  0  0  0  0  0  0  0  0
   -4.9085   -3.7186   -0.2254 C   0  0  0  0  0  0  0  0  0  0  0  0
   -3.8061   -4.4941    0.1341 C   0  0  0  0  0  0  0  0  0  0  0  0
    6.0879   -3.6601   -0.1033 C   0  0  0  0  0  0  0  0  0  0  0  0
    1.3142    3.9346   -0.8589 H   0  0  0  0  0  0  0  0  0  0  0  0
   -2.3147    3.6937   -0.3702 H   0  0  0  0  0  0  0  0  0  0  0  0
   -0.3802    1.8211   -1.6032 H   0  0  0  0  0  0  0  0  0  0  0  0
   -0.6987    3.5345   -1.9037 H   0  0  0  0  0  0  0  0  0  0  0  0
    0.8250    3.8011    1.8023 H   0  0  0  0  0  0  0  0  0  0  0  0
   -0.1413    4.8769    0.7591 H   0  0  0  0  0  0  0  0  0  0  0  0
    1.2625    1.4962    0.7962 H   0  0  0  0  0  0  0  0  0  0  0  0
   -2.3102    4.6086    1.8580 H   0  0  0  0  0  0  0  0  0  0  0  0
   -1.4349    3.7423    3.1368 H   0  0  0  0  0  0  0  0  0  0  0  0
   -2.8200    2.9843    2.3630 H   0  0  0  0  0  0  0  0  0  0  0  0
    3.9897   -0.0812   -2.3414 H   0  0  0  0  0  0  0  0  0  0  0  0
    2.9149    0.7542    1.7680 H   0  0  0  0  0  0  0  0  0  0  0  0
   -1.4732   -2.0571    0.4583 H   0  0  0  0  0  0  0  0  0  0  0  0
   -5.6606   -1.7631   -0.6226 H   0  0  0  0  0  0  0  0  0  0  0  0
    5.2037   -2.0282   -1.6385 H   0  0  0  0  0  0  0  0  0  0  0  0
    4.1234   -1.2378    2.4835 H   0  0  0  0  0  0  0  0  0  0  0  0
   -1.7167   -4.4899    0.6571 H   0  0  0  0  0  0  0  0  0  0  0  0
   -5.8669   -4.1930   -0.4151 H   0  0  0  0  0  0  0  0  0  0  0  0
   -3.9065   -5.5718    0.2240 H   0  0  0  0  0  0  0  0  0  0  0  0
    6.5805   -4.4983    0.4003 H   0  0  0  0  0  0  0  0  0  0  0  0
    6.8719   -3.0841   -0.6065 H   0  0  0  0  0  0  0  0  0  0  0  0
    5.3696   -4.0893   -0.8100 H   0  0  0  0  0  0  0  0  0  0  0  0
  1  7  1  0  0  0  0
  1 12  1  0  0  0  0
  2 14  2  0  0  0  0
  3 24  1  0  0  0  0
  3 28  1  0  0  0  0
  4  9  1  0  0  0  0
  4 11  1  0  0  0  0
  4 13  1  0  0  0  0
  5  8  1  0  0  0  0
  5 14  1  0  0  0  0
  5 35  1  0  0  0  0
  6 12  2  0  0  0  0
  6 15  1  0  0  0  0
  7 15  2  0  0  0  0
  8 10  1  0  0  0  0
  8 11  1  0  0  0  0
  8 29  1  0  0  0  0
  9 10  1  0  0  0  0
  9 12  1  0  0  0  0
  9 30  1  0  0  0  0
 10 31  1  0  0  0  0
 10 32  1  0  0  0  0
 11 33  1  0  0  0  0
 11 34  1  0  0  0  0
 13 36  1  0  0  0  0
 13 37  1  0  0  0  0
 13 38  1  0  0  0  0
 14 16  1  0  0  0  0
 15 17  1  0  0  0  0
 16 18  2  0  0  0  0
 16 19  1  0  0  0  0
 17 20  2  0  0  0  0
 17 21  1  0  0  0  0
 18 22  1  0  0  0  0
 18 39  1  0  0  0  0
 19 23  2  0  0  0  0
 19 40  1  0  0  0  0
 20 25  1  0  0  0  0
 20 41  1  0  0  0  0
 21 26  2  0  0  0  0
 21 42  1  0  0  0  0
 22 24  2  0  0  0  0
 22 43  1  0  0  0  0
 23 24  1  0  0  0  0
 23 44  1  0  0  0  0
 25 27  2  0  0  0  0
 25 45  1  0  0  0  0
 26 27  1  0  0  0  0
 26 46  1  0  0  0  0
 27 47  1  0  0  0  0
 28 48  1  0  0  0  0
 28 49  1  0  0  0  0
 28 50  1  0  0  0  0
M  END
> <PUBCHEM_COMPOUND_CID>
25338738

> <PUBCHEM_CONFORMER_RMSD>
0.8

> <PUBCHEM_CONFORMER_DIVERSEORDER>
1
44
10
50
43
17
41
47
24
35
25
9
54
11
49
42
45
53
8
39
16
38
36
31
48
27
18
7
13
34
46
37
21
23
6
14
5
26
40
19
22
52
12
33
28
4
20
3
29
51
30
32
2
15

> <PUBCHEM_MMFF94_PARTIAL_CHARGES>
37
1 -0.02
11 0.27
12 0.3
13 0.27
14 0.54
15 0.46
16 0.09
17 0.05
18 -0.15
19 -0.15
2 -0.57
20 -0.15
21 -0.15
22 -0.15
23 -0.15
24 0.08
25 -0.15
26 -0.15
27 -0.15
28 0.28
3 -0.36
35 0.37
39 0.15
4 -0.81
40 0.15
41 0.15
42 0.15
43 0.15
44 0.15
45 0.15
46 0.15
47 0.15
5 -0.73
6 -0.57
7 -0.41
8 0.3
9 0.45

> <PUBCHEM_EFFECTIVE_ROTOR_COUNT>
7

> <PUBCHEM_PHARMACOPHORE_FEATURES>
9
1 2 acceptor
1 3 acceptor
1 4 cation
1 5 donor
3 6 7 15 cation
5 1 6 7 12 15 rings
5 4 8 9 10 11 rings
6 16 18 19 22 23 24 rings
6 17 20 21 25 26 27 rings

> <PUBCHEM_HEAVY_ATOM_COUNT>
28

> <PUBCHEM_ATOM_DEF_STEREO_COUNT>
2

> <PUBCHEM_ATOM_UDEF_STEREO_COUNT>
0

> <PUBCHEM_BOND_DEF_STEREO_COUNT>
0

> <PUBCHEM_BOND_UDEF_STEREO_COUNT>
0

> <PUBCHEM_ISOTOPIC_ATOM_COUNT>
0

> <PUBCHEM_COMPONENT_COUNT>
1

> <PUBCHEM_CACTVS_TAUTO_COUNT>
2

> <PUBCHEM_CONFORMER_ID>
0182A37200000001

> <PUBCHEM_MMFF94_ENERGY>
73.4454

> <PUBCHEM_FEATURE_SELFOVERLAP>
45.672

> <PUBCHEM_SHAPE_FINGERPRINT>
10622 236 18187639176921581610
10838868 229 17830746709683652611
10928967 22 18121801657268626519
11285246 1 17967533514413066307
114674 6 17403742645128900305
12969540 37 18121777493672050997
1361 2 16825870175852014531
13631057 29 18267314303655159564
14117953 113 18119243957257473925
14508693 111 18187918508883438762
14705955 166 16987151613474670105
14866123 147 18341054017645007897
15439362 3 16533690822016611205
17492 89 18337389443393435734
17909252 39 18194683897948640560
19319366 153 17761497293542162316
20775530 9 18268716184863343879
21049683 118 16122206382170393801
21315759 227 18046050829426549943
22440779 20 15765603021996200948
23379529 103 18410013204642006030
23559900 14 17687178004496952357
23572383 38 18341033203320660342
25222932 49 17911802684520979276
3146121 3 18334855036087239482
325973 47 18336266854959697578
3383291 50 18340202969753706921
345986 75 17629499733105893369
4017518 198 17472696932095663300
4394409 98 17827334623862621439
44062 13 18334292050708138317
4435113 14 17342109096281605990
463206 1 18335983094874697459
474144 1 17460574953622472883
484985 159 18120367662061455541
50080093 196 17390496407764478818
508706 21 17984713220652020398
56633871 153 18411708660209567659
6433294 58 17906453586242744451
6679774 75 17471617276196687723
7970288 3 18337106766094875070
88748 71 18335423525456222095
9831232 110 17468756742706855999

> <PUBCHEM_SHAPE_MULTIPOLES>
538.69
12.66
6.9
1.3
7.74
1.42
-0.26
17.57
0.65
-3.71
-1.48
0.86
-1.03
-1.28

> <PUBCHEM_SHAPE_SELFOVERLAP>
1167.211

> <PUBCHEM_SHAPE_VOLUME>
296.7

> <PUBCHEM_COORDINATE_TYPE>
2
5
10

$$$$
