40777705
  -OEChem-12032416173D

 70 73  0     1  0  0  0  0  0999 V2000
   -4.4958   -2.2798    1.3540 S   0  0  0  0  0  0  0  0  0  0  0  0
   -4.0684   -1.9999    2.7116 O   0  0  0  0  0  0  0  0  0  0  0  0
   -5.4420   -3.3475    1.0927 O   0  0  0  0  0  0  0  0  0  0  0  0
   -5.8029    4.4232    0.3480 O   0  0  0  0  0  0  0  0  0  0  0  0
   -3.1271   -2.4976    0.3663 N   0  0  0  0  0  0  0  0  0  0  0  0
    3.4833   -1.2230   -0.4058 N   0  0  0  0  0  0  0  0  0  0  0  0
    3.7377   -2.5008   -0.7355 N   0  0  0  0  0  0  0  0  0  0  0  0
   -6.8378    2.7089   -0.8962 N   0  0  0  0  0  0  0  0  0  0  0  0
   -0.0005   -2.3249   -0.6674 C   0  0  2  0  0  0  0  0  0  0  0  0
   -0.7043   -2.0385    0.6731 C   0  0  0  0  0  0  0  0  0  0  0  0
   -2.0900   -1.4737    0.3178 C   0  0  1  0  0  0  0  0  0  0  0  0
    1.4926   -2.0965   -0.6186 C   0  0  0  0  0  0  0  0  0  0  0  0
   -0.7420   -1.4262   -1.6133 C   0  0  0  0  0  0  0  0  0  0  0  0
   -1.8801   -0.9728   -1.0770 C   0  0  0  0  0  0  0  0  0  0  0  0
    2.1537   -0.9296   -0.3225 C   0  0  0  0  0  0  0  0  0  0  0  0
    2.5179   -3.0294   -0.8642 C   0  0  0  0  0  0  0  0  0  0  0  0
    1.6395    0.4104    0.0263 C   0  0  0  0  0  0  0  0  0  0  0  0
    4.5418   -0.3410   -0.1858 C   0  0  0  0  0  0  0  0  0  0  0  0
    7.7961    2.3557    0.4956 C   0  0  0  0  0  0  0  0  0  0  0  0
    2.3789   -4.4507   -1.2272 C   0  0  0  0  0  0  0  0  0  0  0  0
    6.6620    1.4166    0.2584 C   0  0  0  0  0  0  0  0  0  0  0  0
   -5.1915   -0.7986    0.6858 C   0  0  0  0  0  0  0  0  0  0  0  0
    5.4587   -0.0827   -1.2048 C   0  0  0  0  0  0  0  0  0  0  0  0
    4.6850    0.2794    1.0552 C   0  0  0  0  0  0  0  0  0  0  0  0
    6.5189    0.7960   -0.9825 C   0  0  0  0  0  0  0  0  0  0  0  0
    5.7452    1.1582    1.2774 C   0  0  0  0  0  0  0  0  0  0  0  0
    7.7476    3.5622   -0.4924 C   0  0  0  0  0  0  0  0  0  0  0  0
    9.1708    1.6435    0.3009 C   0  0  0  0  0  0  0  0  0  0  0  0
    7.8550    2.9902    1.9249 C   0  0  0  0  0  0  0  0  0  0  0  0
   -4.8058    0.4428    1.1918 C   0  0  0  0  0  0  0  0  0  0  0  0
   -6.1261   -0.8709   -0.3471 C   0  0  0  0  0  0  0  0  0  0  0  0
   -5.3548    1.6117    0.6647 C   0  0  0  0  0  0  0  0  0  0  0  0
   -6.6751    0.2980   -0.8741 C   0  0  0  0  0  0  0  0  0  0  0  0
   -6.2894    1.5394   -0.3683 C   0  0  0  0  0  0  0  0  0  0  0  0
   -6.5751    4.0332   -0.5217 C   0  0  0  0  0  0  0  0  0  0  0  0
   -7.3762    5.0148   -1.3398 C   0  0  0  0  0  0  0  0  0  0  0  0
   -0.1992   -3.3618   -0.9676 H   0  0  0  0  0  0  0  0  0  0  0  0
   -0.7673   -2.9473    1.2843 H   0  0  0  0  0  0  0  0  0  0  0  0
   -0.1581   -1.3026    1.2760 H   0  0  0  0  0  0  0  0  0  0  0  0
   -2.3000   -0.6454    0.9974 H   0  0  0  0  0  0  0  0  0  0  0  0
   -0.4182   -1.2038   -2.6205 H   0  0  0  0  0  0  0  0  0  0  0  0
   -2.5783   -0.3299   -1.5943 H   0  0  0  0  0  0  0  0  0  0  0  0
   -3.1269   -3.2197   -0.3642 H   0  0  0  0  0  0  0  0  0  0  0  0
    1.6582    0.5604    1.1106 H   0  0  0  0  0  0  0  0  0  0  0  0
    2.2275    1.2054   -0.4442 H   0  0  0  0  0  0  0  0  0  0  0  0
    0.6095    0.5591   -0.3046 H   0  0  0  0  0  0  0  0  0  0  0  0
    1.8386   -4.5541   -2.1739 H   0  0  0  0  0  0  0  0  0  0  0  0
    3.3520   -4.9397   -1.3436 H   0  0  0  0  0  0  0  0  0  0  0  0
    1.8244   -4.9924   -0.4540 H   0  0  0  0  0  0  0  0  0  0  0  0
    5.3600   -0.5550   -2.1793 H   0  0  0  0  0  0  0  0  0  0  0  0
    3.9908    0.0795    1.8677 H   0  0  0  0  0  0  0  0  0  0  0  0
    7.2178    0.9796   -1.7936 H   0  0  0  0  0  0  0  0  0  0  0  0
    5.8112    1.6099    2.2609 H   0  0  0  0  0  0  0  0  0  0  0  0
    6.8014    4.1074   -0.3947 H   0  0  0  0  0  0  0  0  0  0  0  0
    7.8373    3.2405   -1.5358 H   0  0  0  0  0  0  0  0  0  0  0  0
    8.5641    4.2679   -0.3005 H   0  0  0  0  0  0  0  0  0  0  0  0
    9.2980    1.2718   -0.7217 H   0  0  0  0  0  0  0  0  0  0  0  0
    9.2645    0.7866    0.9783 H   0  0  0  0  0  0  0  0  0  0  0  0
   10.0052    2.3251    0.5030 H   0  0  0  0  0  0  0  0  0  0  0  0
    7.9633    2.2232    2.7007 H   0  0  0  0  0  0  0  0  0  0  0  0
    6.9563    3.5800    2.1398 H   0  0  0  0  0  0  0  0  0  0  0  0
    8.7129    3.6667    2.0215 H   0  0  0  0  0  0  0  0  0  0  0  0
   -4.0854    0.5237    2.0007 H   0  0  0  0  0  0  0  0  0  0  0  0
   -6.4351   -1.8265   -0.7613 H   0  0  0  0  0  0  0  0  0  0  0  0
   -5.0089    2.5347    1.1086 H   0  0  0  0  0  0  0  0  0  0  0  0
   -7.4009    0.2269   -1.6802 H   0  0  0  0  0  0  0  0  0  0  0  0
   -7.5119    2.5721   -1.6466 H   0  0  0  0  0  0  0  0  0  0  0  0
   -7.1697    6.0342   -1.0023 H   0  0  0  0  0  0  0  0  0  0  0  0
   -7.1017    4.9269   -2.3948 H   0  0  0  0  0  0  0  0  0  0  0  0
   -8.4444    4.8122   -1.2216 H   0  0  0  0  0  0  0  0  0  0  0  0
  1  2  2  0  0  0  0
  1  3  2  0  0  0  0
  1  5  1  0  0  0  0
  1 22  1  0  0  0  0
  4 35  2  0  0  0  0
  5 11  1  0  0  0  0
  5 43  1  0  0  0  0
  6  7  1  0  0  0  0
  6 15  1  0  0  0  0
  6 18  1  0  0  0  0
  7 16  2  0  0  0  0
  8 34  1  0  0  0  0
  8 35  1  0  0  0  0
  8 67  1  0  0  0  0
  9 10  1  0  0  0  0
  9 12  1  0  0  0  0
  9 13  1  0  0  0  0
  9 37  1  0  0  0  0
 10 11  1  0  0  0  0
 10 38  1  0  0  0  0
 10 39  1  0  0  0  0
 11 14  1  0  0  0  0
 11 40  1  0  0  0  0
 12 15  2  0  0  0  0
 12 16  1  0  0  0  0
 13 14  2  0  0  0  0
 13 41  1  0  0  0  0
 14 42  1  0  0  0  0
 15 17  1  0  0  0  0
 16 20  1  0  0  0  0
 17 44  1  0  0  0  0
 17 45  1  0  0  0  0
 17 46  1  0  0  0  0
 18 23  2  0  0  0  0
 18 24  1  0  0  0  0
 19 21  1  0  0  0  0
 19 27  1  0  0  0  0
 19 28  1  0  0  0  0
 19 29  1  0  0  0  0
 20 47  1  0  0  0  0
 20 48  1  0  0  0  0
 20 49  1  0  0  0  0
 21 25  2  0  0  0  0
 21 26  1  0  0  0  0
 22 30  2  0  0  0  0
 22 31  1  0  0  0  0
 23 25  1  0  0  0  0
 23 50  1  0  0  0  0
 24 26  2  0  0  0  0
 24 51  1  0  0  0  0
 25 52  1  0  0  0  0
 26 53  1  0  0  0  0
 27 54  1  0  0  0  0
 27 55  1  0  0  0  0
 27 56  1  0  0  0  0
 28 57  1  0  0  0  0
 28 58  1  0  0  0  0
 28 59  1  0  0  0  0
 29 60  1  0  0  0  0
 29 61  1  0  0  0  0
 29 62  1  0  0  0  0
 30 32  1  0  0  0  0
 30 63  1  0  0  0  0
 31 33  2  0  0  0  0
 31 64  1  0  0  0  0
 32 34  2  0  0  0  0
 32 65  1  0  0  0  0
 33 34  1  0  0  0  0
 33 66  1  0  0  0  0
 35 36  1  0  0  0  0
 36 68  1  0  0  0  0
 36 69  1  0  0  0  0
 36 70  1  0  0  0  0
M  END
> <PUBCHEM_COMPOUND_CID>
40777705

> <PUBCHEM_CONFORMER_RMSD>
1

> <PUBCHEM_CONFORMER_DIVERSEORDER>
1
161
123
132
177
238
128
221
79
23
183
58
21
105
167
207
17
74
82
236
117
94
68
239
24
118
87
179
25
159
11
247
47
204
172
26
200
190
174
62
176
56
231
71
20
134
145
108
244
202
5
14
113
65
122
106
184
22
241
125
164
246
27
34
37
61
100
126
143
38
127
230
142
226
237
154
178
195
33
64
45
135
170
85
91
234
233
220
219
131
129
121
249
43
222
153
137
166
171
245
46
210
10
93
156
63
98
197
228
189
30
19
130
216
32
66
109
41
235
136
15
107
155
229
186
114
152
196
75
133
194
112
181
111
97
40
168
110
116
70
213
165
28
88
36
158
103
163
223
84
185
242
119
104
31
60
151
199
218
67
115
150
192
205
149
72
169
78
212
59
44
77
120
209
214
3
250
187
89
188
193
83
206
215
182
208
69
101
48
2
140
4
86
160
224
102
217
147
96
252
148
99
76
9
211
144
191
198
180
251
39
157
54
73
173
49
139
146
29
201
243
81
55
50
248
124
57
51
18
35
92
8
232
138
225
90
240
162
203
16
227
80
52
53
175
141
42
13
95
12
6
7

> <PUBCHEM_MMFF94_PARTIAL_CHARGES>
44
1 1.45
11 0.49
12 -0.18
13 -0.29
14 -0.29
15 -0.33
16 0.11
17 0.18
18 -0.02
19 0.14
2 -0.65
20 0.18
21 -0.14
22 -0.01
23 -0.15
24 -0.15
25 -0.15
26 -0.15
3 -0.65
30 -0.15
31 -0.15
32 -0.15
33 -0.15
34 0.12
35 0.57
36 0.06
4 -0.57
41 0.15
42 0.15
43 0.42
5 -0.91
50 0.15
51 0.15
52 0.15
53 0.15
6 0.59
63 0.15
64 0.15
65 0.15
66 0.15
67 0.37
7 -0.71
8 -0.55
9 0.32

> <PUBCHEM_EFFECTIVE_ROTOR_COUNT>
8.6

> <PUBCHEM_PHARMACOPHORE_FEATURES>
11
1 2 acceptor
1 3 acceptor
1 4 acceptor
1 5 donor
1 7 acceptor
1 8 donor
4 19 27 28 29 hydrophobe
5 6 7 12 15 16 rings
5 9 10 11 13 14 rings
6 18 21 23 24 25 26 rings
6 22 30 31 32 33 34 rings

> <PUBCHEM_HEAVY_ATOM_COUNT>
36

> <PUBCHEM_ATOM_DEF_STEREO_COUNT>
2

> <PUBCHEM_ATOM_UDEF_STEREO_COUNT>
0

> <PUBCHEM_BOND_DEF_STEREO_COUNT>
0

> <PUBCHEM_BOND_UDEF_STEREO_COUNT>
0

> <PUBCHEM_ISOTOPIC_ATOM_COUNT>
0

> <PUBCHEM_COMPONENT_COUNT>
1

> <PUBCHEM_CACTVS_TAUTO_COUNT>
2

> <PUBCHEM_CONFORMER_ID>
026E37E900000001

> <PUBCHEM_MMFF94_ENERGY>
100.1904

> <PUBCHEM_FEATURE_SELFOVERLAP>
55.84

> <PUBCHEM_SHAPE_FINGERPRINT>
10 15 18337391651291488698
10554248 39 16630260125662116038
10625338 86 18408042935507874177
11411753 3 18265916703975039151
11476731 118 18341611490809063329
11621639 183 18114186332318029089
12013929 29 17913214152888764321
12133447 93 18337404790050186932
12522641 68 17917430990756716446
13560911 23 17604713411899300331
13782708 43 9871743585625319287
13911987 19 17132115715523276023
14294032 229 18270677709761254990
14512766 119 18410014299990763109
14598715 104 18341607152970417104
14904525 67 18267864063917281100
15289351 153 18060142021195111594
15350500 55 18410007728421657556
15538507 64 18340480093977143624
16664035 7 18192715768684102303
16994733 274 18333729117723934096
19053607 189 18270105829958778720
20691028 202 18197494246224029268
21033648 144 18201726154583466075
21033648 29 17969231045193135611
21057603 285 14562811006473306637
21130935 74 18113898277958583938
21585482 111 18411136905573722100
21585482 310 11169903975492371114
21647283 7 18115025337685463568
21792965 106 18341043004489486216
23516275 100 18336821975177546613
3525247 154 18202278083155564953
3525247 18 17974281024417145389
3862424 121 12678308661843598645
3918712 181 18341889658634446344
4073 2 18335986389684448843
4169191 19 18272939331531604065
437795 83 17917998265198391721
4403749 210 18411979200088668743
44802255 64 17918273177881760359
44880168 125 11242552046088193873
563151 97 18200586011943195598
5718773 13 8790887384839019324
6289498 60 18407759253166634024
636775 72 18408321099260257509
636775 8 7997705220685979928
999808 66 7853581196675446954

> <PUBCHEM_SHAPE_MULTIPOLES>
707.18
27.69
5.79
1.53
16.82
4.05
0.51
36.1
2.31
-6.84
-1.28
-0.45
-0.24
5.59

> <PUBCHEM_SHAPE_SELFOVERLAP>
1503.912

> <PUBCHEM_SHAPE_VOLUME>
398.7

> <PUBCHEM_COORDINATE_TYPE>
2
5
10

$$$$
