11886097
  -OEChem-12032416123D

 48 51  0     1  0  0  0  0  0999 V2000
   -0.8659   -0.2446   -1.0491 O   0  0  0  0  0  0  0  0  0  0  0  0
   -2.4681   -2.4765    0.3675 O   0  0  0  0  0  0  0  0  0  0  0  0
    1.0379   -1.7476    0.2875 O   0  0  0  0  0  0  0  0  0  0  0  0
    1.4888    0.1874    1.4200 O   0  0  0  0  0  0  0  0  0  0  0  0
   -3.9325    0.7821   -0.4415 N   0  0  0  0  0  0  0  0  0  0  0  0
   -3.3092    1.9610   -0.5334 N   0  0  0  0  0  0  0  0  0  0  0  0
   -5.4264    2.2463    0.1039 N   0  0  0  0  0  0  0  0  0  0  0  0
   -4.2300    2.8565   -0.1982 N   0  0  0  0  0  0  0  0  0  0  0  0
    3.1081   -0.8715    0.1021 N   0  0  0  0  0  0  0  0  0  0  0  0
    8.7350   -0.1483   -1.5154 N   0  0  0  0  0  0  0  0  0  0  0  0
   -2.5141   -1.0361    0.4685 C   0  0  1  0  0  0  0  0  0  0  0  0
   -1.0868   -0.5424    0.3384 C   0  0  1  0  0  0  0  0  0  0  0  0
   -3.2259   -0.4651   -0.7426 C   0  0  2  0  0  0  0  0  0  0  0  0
   -0.2795   -1.7367    0.7884 C   0  0  1  0  0  0  0  0  0  0  0  0
   -2.1031   -0.3488   -1.7684 C   0  0  0  0  0  0  0  0  0  0  0  0
   -1.0992   -2.8908    0.2603 C   0  0  0  0  0  0  0  0  0  0  0  0
   -5.2179    0.9596   -0.0546 C   0  0  0  0  0  0  0  0  0  0  0  0
   -6.1761   -0.1408    0.1385 C   0  0  0  0  0  0  0  0  0  0  0  0
    1.8617   -0.7113    0.6758 C   0  0  0  0  0  0  0  0  0  0  0  0
   -6.9247   -0.5369   -1.1586 C   0  0  0  0  0  0  0  0  0  0  0  0
   -7.2120    0.1364    1.2565 C   0  0  0  0  0  0  0  0  0  0  0  0
    4.2422   -0.0388    0.2376 C   0  0  0  0  0  0  0  0  0  0  0  0
    5.4133   -0.3721   -0.4244 C   0  0  0  0  0  0  0  0  0  0  0  0
    4.1607    1.0953    1.0301 C   0  0  0  0  0  0  0  0  0  0  0  0
    6.5320    0.4503   -0.2903 C   0  0  0  0  0  0  0  0  0  0  0  0
    5.2794    1.9177    1.1639 C   0  0  0  0  0  0  0  0  0  0  0  0
    6.4650    1.5952    0.5038 C   0  0  0  0  0  0  0  0  0  0  0  0
    7.7471    0.1202   -0.9661 C   0  0  0  0  0  0  0  0  0  0  0  0
   -2.9719   -0.7892    1.4317 H   0  0  0  0  0  0  0  0  0  0  0  0
   -0.9078    0.3740    0.9070 H   0  0  0  0  0  0  0  0  0  0  0  0
   -3.9815   -1.1498   -1.1423 H   0  0  0  0  0  0  0  0  0  0  0  0
   -0.2662   -1.7906    1.8855 H   0  0  0  0  0  0  0  0  0  0  0  0
   -2.0415   -1.2620   -2.3711 H   0  0  0  0  0  0  0  0  0  0  0  0
   -2.2005    0.4973   -2.4552 H   0  0  0  0  0  0  0  0  0  0  0  0
   -0.8765   -3.1149   -0.7890 H   0  0  0  0  0  0  0  0  0  0  0  0
   -0.9463   -3.8084    0.8363 H   0  0  0  0  0  0  0  0  0  0  0  0
   -5.6278   -1.0319    0.4719 H   0  0  0  0  0  0  0  0  0  0  0  0
   -6.2211   -0.8049   -1.9536 H   0  0  0  0  0  0  0  0  0  0  0  0
   -7.5806   -1.3956   -0.9817 H   0  0  0  0  0  0  0  0  0  0  0  0
   -7.5377    0.2946   -1.5240 H   0  0  0  0  0  0  0  0  0  0  0  0
   -7.8500    0.9896    1.0006 H   0  0  0  0  0  0  0  0  0  0  0  0
   -7.8542   -0.7360    1.4161 H   0  0  0  0  0  0  0  0  0  0  0  0
   -6.7076    0.3655    2.2016 H   0  0  0  0  0  0  0  0  0  0  0  0
    3.2267   -1.6887   -0.4917 H   0  0  0  0  0  0  0  0  0  0  0  0
    5.4610   -1.2659   -1.0427 H   0  0  0  0  0  0  0  0  0  0  0  0
    3.2800    1.4099    1.5707 H   0  0  0  0  0  0  0  0  0  0  0  0
    5.2285    2.8094    1.7820 H   0  0  0  0  0  0  0  0  0  0  0  0
    7.3285    2.2461    0.6181 H   0  0  0  0  0  0  0  0  0  0  0  0
  1 12  1  0  0  0  0
  1 15  1  0  0  0  0
  2 11  1  0  0  0  0
  2 16  1  0  0  0  0
  3 14  1  0  0  0  0
  3 19  1  0  0  0  0
  4 19  2  0  0  0  0
  5  6  1  0  0  0  0
  5 13  1  0  0  0  0
  5 17  1  0  0  0  0
  6  8  2  0  0  0  0
  7  8  1  0  0  0  0
  7 17  2  0  0  0  0
  9 19  1  0  0  0  0
  9 22  1  0  0  0  0
  9 44  1  0  0  0  0
 10 28  3  0  0  0  0
 11 12  1  0  0  0  0
 11 13  1  0  0  0  0
 11 29  1  0  0  0  0
 12 14  1  0  0  0  0
 12 30  1  0  0  0  0
 13 15  1  0  0  0  0
 13 31  1  0  0  0  0
 14 16  1  0  0  0  0
 14 32  1  0  0  0  0
 15 33  1  0  0  0  0
 15 34  1  0  0  0  0
 16 35  1  0  0  0  0
 16 36  1  0  0  0  0
 17 18  1  0  0  0  0
 18 20  1  0  0  0  0
 18 21  1  0  0  0  0
 18 37  1  0  0  0  0
 20 38  1  0  0  0  0
 20 39  1  0  0  0  0
 20 40  1  0  0  0  0
 21 41  1  0  0  0  0
 21 42  1  0  0  0  0
 21 43  1  0  0  0  0
 22 23  1  0  0  0  0
 22 24  2  0  0  0  0
 23 25  2  0  0  0  0
 23 45  1  0  0  0  0
 24 26  1  0  0  0  0
 24 46  1  0  0  0  0
 25 27  1  0  0  0  0
 25 28  1  0  0  0  0
 26 27  2  0  0  0  0
 26 47  1  0  0  0  0
 27 48  1  0  0  0  0
M  END
> <PUBCHEM_COMPOUND_CID>
11886097

> <PUBCHEM_CONFORMER_RMSD>
0.8

> <PUBCHEM_CONFORMER_DIVERSEORDER>
1
194
62
3
29
76
163
108
201
138
31
174
149
206
40
152
52
211
75
197
167
187
112
72
32
47
12
189
165
121
57
129
151
68
20
172
120
123
154
145
111
137
135
61
184
126
190
200
139
196
148
209
17
59
207
10
26
127
124
97
82
204
134
144
193
4
119
27
104
67
188
130
181
118
64
140
179
39
180
205
142
81
85
86
195
102
150
36
80
157
19
171
35
11
91
177
30
192
16
37
41
100
106
199
143
5
84
99
186
146
132
58
83
55
198
170
71
155
109
70
14
125
94
133
54
185
183
53
208
25
176
153
38
178
7
115
13
114
107
15
164
101
49
50
6
128
210
103
162
105
56
96
202
79
166
117
34
92
24
69
28
44
8
159
2
78
43
89
158
131
156
9
113
23
51
74
46
95
77
182
203
65
88
175
122
136
42
73
63
173
147
21
18
66
90
33
87
169
116
98
168
93
45
191
110
160
60
48
141
22
161

> <PUBCHEM_MMFF94_PARTIAL_CHARGES>
30
1 -0.56
10 -0.56
11 0.28
12 0.28
13 0.26
14 0.28
15 0.28
16 0.28
17 0.01
18 0.18
19 0.78
2 -0.56
22 0.12
23 -0.15
24 -0.15
25 0.07
26 -0.15
27 -0.15
28 0.48
3 -0.43
4 -0.57
44 0.37
45 0.15
46 0.15
47 0.15
48 0.15
5 0.31
6 -0.42
7 -0.34
9 -0.55

> <PUBCHEM_EFFECTIVE_ROTOR_COUNT>
7.2

> <PUBCHEM_PHARMACOPHORE_FEATURES>
11
1 1 acceptor
1 10 acceptor
1 2 acceptor
1 4 acceptor
1 9 donor
3 18 20 21 hydrophobe
3 5 7 17 cation
5 1 11 12 13 15 rings
5 2 11 12 14 16 rings
5 5 6 7 8 17 rings
6 22 23 24 25 26 27 rings

> <PUBCHEM_HEAVY_ATOM_COUNT>
28

> <PUBCHEM_ATOM_DEF_STEREO_COUNT>
4

> <PUBCHEM_ATOM_UDEF_STEREO_COUNT>
0

> <PUBCHEM_BOND_DEF_STEREO_COUNT>
0

> <PUBCHEM_BOND_UDEF_STEREO_COUNT>
0

> <PUBCHEM_ISOTOPIC_ATOM_COUNT>
0

> <PUBCHEM_COMPONENT_COUNT>
1

> <PUBCHEM_CACTVS_TAUTO_COUNT>
2

> <PUBCHEM_CONFORMER_ID>
00B55E1100000001

> <PUBCHEM_MMFF94_ENERGY>
66.4114

> <PUBCHEM_FEATURE_SELFOVERLAP>
56.523

> <PUBCHEM_SHAPE_FINGERPRINT>
10 15 15864068780176502982
10369192 42 18412826871998220287
106641 1 16950570991173929563
10670039 82 18408881802529103508
11973863 73 13254532945668311391
12082328 90 16415482649167432145
12390115 104 18408605855174893779
12596602 18 17023177193942813561
12760667 363 8646774400287147131
13177829 20 14273456994115008644
13914758 101 15554459474196029722
14251752 14 13758358864887396411
14257110 125 18334293158382595002
14394314 77 9871753494436345399
14933364 13 18342458144863222732
15119646 104 15051463678266880510
15183329 4 17060340708288369498
15188451 53 11312062037297647210
17492 89 9725902195150085757
17857418 61 10087640416280193512
18608769 82 18339360868248382107
19611394 137 17896332474867394585
20281389 69 18334008385224357632
20737093 133 10660948869644836546
21033648 29 18270952575067600952
21623969 137 12612746913872343000
21756936 100 18411972568680210695
21792961 116 18273222980521733362
22224240 67 13334737946895897032
23198884 109 18413668015214582807
23559900 14 13254213026249540098
25019877 29 18343866628133611375
2838139 119 18342729715587274716
312425 54 11170183220964505500
4073 2 18261393408043698890
4098825 35 18060138725958416854
44317340 157 16987710376309393104
444769 64 10592046882324316831
445580 37 18335145297364056436
5104073 3 17968088673390634771
559249 180 10015575117667126485
5718773 13 9078529518302600857
5758199 1 18408605847260108003
59682541 35 14779555612121908564
59755656 520 18408878555460052775
6703917 75 18261688020423268307
7808743 9 18336256899161143257
9953998 17 11530484441143992836

> <PUBCHEM_SHAPE_MULTIPOLES>
522.86
22.54
2.28
1.23
20.13
0.15
-0.18
8.68
-4.3
-1.95
0.4
0.28
0
0.96

> <PUBCHEM_SHAPE_SELFOVERLAP>
1125.936

> <PUBCHEM_SHAPE_VOLUME>
288.1

> <PUBCHEM_COORDINATE_TYPE>
2
5
10

$$$$
