75536737
  -OEChem-12032416333D

 44 45  0     1  0  0  0  0  0999 V2000
    0.5389   -1.1520    0.3060 O   0  0  0  0  0  0  0  0  0  0  0  0
   -0.4322    2.2493   -0.3218 O   0  0  0  0  0  0  0  0  0  0  0  0
    4.1502    1.3914   -0.4603 O   0  0  0  0  0  0  0  0  0  0  0  0
   -2.8144    0.2383    0.0743 N   0  0  0  0  0  0  0  0  0  0  0  0
    3.1232   -0.0966    0.9984 N   0  0  0  0  0  0  0  0  0  0  0  0
    5.2284   -0.5624    0.1751 N   0  0  0  0  0  0  0  0  0  0  0  0
   -5.7038   -0.9339    0.6628 N   0  0  0  0  0  0  0  0  0  0  0  0
   -6.0451    0.4999   -0.9985 N   0  0  0  0  0  0  0  0  0  0  0  0
   -1.4306    0.0214   -0.3152 C   0  0  1  0  0  0  0  0  0  0  0  0
   -0.4578    0.9928    0.3272 C   0  0  1  0  0  0  0  0  0  0  0  0
    0.8571    0.2424    0.1634 C   0  0  1  0  0  0  0  0  0  0  0  0
   -0.8833   -1.3132    0.1637 C   0  0  0  0  0  0  0  0  0  0  0  0
    1.9053    0.6371    1.1884 C   0  0  0  0  0  0  0  0  0  0  0  0
   -3.7270   -0.4789   -0.8083 C   0  0  0  0  0  0  0  0  0  0  0  0
   -5.1650   -0.2792   -0.4097 C   0  0  0  0  0  0  0  0  0  0  0  0
    4.1677    0.3399    0.1782 C   0  0  0  0  0  0  0  0  0  0  0  0
    6.4337   -0.3506   -0.5913 C   0  0  0  0  0  0  0  0  0  0  0  0
   -7.0107   -0.5476    0.7644 C   0  0  0  0  0  0  0  0  0  0  0  0
    7.4478    0.4490    0.2171 C   0  0  0  0  0  0  0  0  0  0  0  0
    7.0153   -1.6841   -1.0424 C   0  0  0  0  0  0  0  0  0  0  0  0
   -7.1977    0.3371   -0.2714 C   0  0  0  0  0  0  0  0  0  0  0  0
   -1.3259    0.1070   -1.4062 H   0  0  0  0  0  0  0  0  0  0  0  0
   -0.6959    1.1471    1.3870 H   0  0  0  0  0  0  0  0  0  0  0  0
    1.2614    0.3834   -0.8476 H   0  0  0  0  0  0  0  0  0  0  0  0
   -1.2759   -1.5959    1.1473 H   0  0  0  0  0  0  0  0  0  0  0  0
   -1.0869   -2.1292   -0.5363 H   0  0  0  0  0  0  0  0  0  0  0  0
    1.5610    0.4033    2.2018 H   0  0  0  0  0  0  0  0  0  0  0  0
    2.1169    1.7101    1.1312 H   0  0  0  0  0  0  0  0  0  0  0  0
   -3.0228    1.2359    0.0246 H   0  0  0  0  0  0  0  0  0  0  0  0
   -3.5155   -1.5550   -0.7970 H   0  0  0  0  0  0  0  0  0  0  0  0
   -3.6096   -0.1323   -1.8426 H   0  0  0  0  0  0  0  0  0  0  0  0
   -0.2219    2.1047   -1.2599 H   0  0  0  0  0  0  0  0  0  0  0  0
    3.2256   -0.9878    1.4743 H   0  0  0  0  0  0  0  0  0  0  0  0
    5.1802   -1.3658    0.7946 H   0  0  0  0  0  0  0  0  0  0  0  0
    6.1723    0.2305   -1.4839 H   0  0  0  0  0  0  0  0  0  0  0  0
   -5.2246   -1.5846    1.2710 H   0  0  0  0  0  0  0  0  0  0  0  0
    8.3572    0.6304   -0.3652 H   0  0  0  0  0  0  0  0  0  0  0  0
    7.0362    1.4206    0.5112 H   0  0  0  0  0  0  0  0  0  0  0  0
    7.7293   -0.0799    1.1346 H   0  0  0  0  0  0  0  0  0  0  0  0
    6.2863   -2.2436   -1.6389 H   0  0  0  0  0  0  0  0  0  0  0  0
    7.9104   -1.5341   -1.6549 H   0  0  0  0  0  0  0  0  0  0  0  0
    7.2892   -2.3098   -0.1855 H   0  0  0  0  0  0  0  0  0  0  0  0
   -7.6637   -0.9251    1.5378 H   0  0  0  0  0  0  0  0  0  0  0  0
   -8.1037    0.8652   -0.5305 H   0  0  0  0  0  0  0  0  0  0  0  0
  1 11  1  0  0  0  0
  1 12  1  0  0  0  0
  2 10  1  0  0  0  0
  2 32  1  0  0  0  0
  3 16  2  0  0  0  0
  4  9  1  0  0  0  0
  4 14  1  0  0  0  0
  4 29  1  0  0  0  0
  5 13  1  0  0  0  0
  5 16  1  0  0  0  0
  5 33  1  0  0  0  0
  6 16  1  0  0  0  0
  6 17  1  0  0  0  0
  6 34  1  0  0  0  0
  7 15  1  0  0  0  0
  7 18  1  0  0  0  0
  7 36  1  0  0  0  0
  8 15  2  0  0  0  0
  8 21  1  0  0  0  0
  9 10  1  0  0  0  0
  9 12  1  0  0  0  0
  9 22  1  0  0  0  0
 10 11  1  0  0  0  0
 10 23  1  0  0  0  0
 11 13  1  0  0  0  0
 11 24  1  0  0  0  0
 12 25  1  0  0  0  0
 12 26  1  0  0  0  0
 13 27  1  0  0  0  0
 13 28  1  0  0  0  0
 14 15  1  0  0  0  0
 14 30  1  0  0  0  0
 14 31  1  0  0  0  0
 17 19  1  0  0  0  0
 17 20  1  0  0  0  0
 17 35  1  0  0  0  0
 18 21  2  0  0  0  0
 18 43  1  0  0  0  0
 19 37  1  0  0  0  0
 19 38  1  0  0  0  0
 19 39  1  0  0  0  0
 20 40  1  0  0  0  0
 20 41  1  0  0  0  0
 20 42  1  0  0  0  0
 21 44  1  0  0  0  0
M  END
> <PUBCHEM_COMPOUND_CID>
75536737

> <PUBCHEM_CONFORMER_RMSD>
0.8

> <PUBCHEM_CONFORMER_DIVERSEORDER>
1
77
71
24
78
102
98
51
116
9
108
109
105
94
5
36
64
117
50
25
48
111
75
86
90
31
61
119
93
103
30
45
82
29
76
104
40
99
21
26
35
92
58
43
121
91
107
33
112
49
37
42
125
100
32
16
39
81
2
8
83
60
54
13
106
124
53
55
74
87
14
113
88
62
118
115
44
80
95
20
70
23
123
110
68
28
84
56
19
27
89
66
57
47
18
15
79
114
101
12
11
122
85
4
17
69
65
7
96
3
34
59
72
22
6
10
97
38
52
41
67
63
73
120
46

> <PUBCHEM_MMFF94_PARTIAL_CHARGES>
26
1 -0.56
10 0.28
11 0.28
12 0.28
13 0.3
14 0.45
15 0.01
16 0.69
17 0.3
18 -0.3
2 -0.68
21 0.08
29 0.36
3 -0.57
32 0.4
33 0.37
34 0.37
36 0.27
4 -0.9
43 0.15
44 0.15
5 -0.73
6 -0.73
7 0.03
8 -0.57
9 0.27

> <PUBCHEM_EFFECTIVE_ROTOR_COUNT>
9

> <PUBCHEM_PHARMACOPHORE_FEATURES>
13
1 1 acceptor
1 2 acceptor
1 2 donor
1 3 acceptor
1 4 cation
1 4 donor
1 5 donor
1 6 donor
1 7 donor
3 17 19 20 hydrophobe
3 7 8 15 cation
5 1 9 10 11 12 rings
5 7 8 15 18 21 rings

> <PUBCHEM_HEAVY_ATOM_COUNT>
21

> <PUBCHEM_ATOM_DEF_STEREO_COUNT>
3

> <PUBCHEM_ATOM_UDEF_STEREO_COUNT>
0

> <PUBCHEM_BOND_DEF_STEREO_COUNT>
0

> <PUBCHEM_BOND_UDEF_STEREO_COUNT>
0

> <PUBCHEM_ISOTOPIC_ATOM_COUNT>
0

> <PUBCHEM_COMPONENT_COUNT>
1

> <PUBCHEM_CACTVS_TAUTO_COUNT>
3

> <PUBCHEM_CONFORMER_ID>
0480996100000001

> <PUBCHEM_MMFF94_ENERGY>
23.2541

> <PUBCHEM_FEATURE_SELFOVERLAP>
66.023

> <PUBCHEM_SHAPE_FINGERPRINT>
10299344 5 17561084709015552598
106641 1 8790876389395551149
10968037 39 14417851449944807819
11315181 36 15697998570288484419
11638347 137 9871755697944868548
12091667 2 18413386545429475951
13533116 47 16702024141495294030
13685833 64 17918275342497270950
13885169 127 17917433081550564336
13914758 101 15338847442891534171
14123256 10 17603585227122531920
14251752 14 18411978044351984996
14251764 18 16917352536979716920
14251764 46 18334011701113111723
14429380 56 11891338698350724078
14933364 13 17894629257935479221
15048467 5 15213017146064771753
15183329 4 17131833166071290895
15849732 13 18261111889262415799
17834076 25 15068337912866326400
18006028 8 17203889664908369976
18335252 98 16443067192574370043
19489759 90 14261636140663528923
20157964 124 13117997787113068152
20281389 69 8286202747465512478
21095086 128 18273494598659379951
21150785 3 16877665660427479166
21267235 1 18409452483338780809
220451 1 16732697251465587059
22224240 67 11386368153598908480
23035841 295 18408321094722255323
23402539 116 14620792713435530089
23536379 177 15052016775396545155
23559900 14 17916857049321665592
23622692 88 12031785881650497496
246663 6 18412831282560490906
28498 318 17846780680573479935
328311 84 18410578387583016107
33532 11 17988924453060096966
34797466 226 15140965032558529570
4325135 7 14490189418909975699
4463277 17 18334855034852752505
5207 217 13551193290312449777
5283156 175 18113331986836116722
5758199 1 14345794933469092825
59755656 215 18410855430069217862
6438161 24 18336260147175193090
8209 1 18410572889934790656

> <PUBCHEM_SHAPE_MULTIPOLES>
389.66
22.31
1.34
0.94
1.79
0.11
0.03
-4.57
-2.65
1.15
-0.18
-0.14
-0.02
0.93

> <PUBCHEM_SHAPE_SELFOVERLAP>
790.735

> <PUBCHEM_SHAPE_VOLUME>
227.1

> <PUBCHEM_COORDINATE_TYPE>
2
5
10

$$$$
