11911727
  -OEChem-12032416353D

 66 71  0     1  0  0  0  0  0999 V2000
    4.0067    2.4868   -0.8350 S   0  0  0  0  0  0  0  0  0  0  0  0
   -0.1270    1.7767    1.3522 O   0  0  0  0  0  0  0  0  0  0  0  0
    1.9418   -0.2422    2.5272 O   0  0  0  0  0  0  0  0  0  0  0  0
    4.3981    3.6323   -0.0360 O   0  0  0  0  0  0  0  0  0  0  0  0
    4.0385    2.5620   -2.2831 O   0  0  0  0  0  0  0  0  0  0  0  0
    2.4685    1.9572   -0.3482 N   0  0  0  0  0  0  0  0  0  0  0  0
   -0.5430   -1.8415    1.6070 N   0  0  0  0  0  0  0  0  0  0  0  0
   -2.6478   -1.3566    0.6899 N   0  0  0  0  0  0  0  0  0  0  0  0
   -1.6755   -3.5500    0.4648 N   0  0  0  0  0  0  0  0  0  0  0  0
    4.0798   -0.2216   -2.0785 N   0  0  0  0  0  0  0  0  0  0  0  0
   -7.7894    2.0223   -0.8370 N   0  0  0  0  0  0  0  0  0  0  0  0
    1.6850    0.2430    1.1989 C   0  0  1  0  0  0  0  0  0  0  0  0
    0.1837    0.4039    1.0598 C   0  0  1  0  0  0  0  0  0  0  0  0
    2.2218    1.6471    1.0393 C   0  0  2  0  0  0  0  0  0  0  0  0
   -0.3854   -0.5009    2.1270 C   0  0  2  0  0  0  0  0  0  0  0  0
    1.0921    2.4926    1.5998 C   0  0  0  0  0  0  0  0  0  0  0  0
    0.6928   -0.4753    3.1948 C   0  0  0  0  0  0  0  0  0  0  0  0
   -1.6551   -2.2619    0.8993 C   0  0  0  0  0  0  0  0  0  0  0  0
    5.0275    1.1215   -0.3673 C   0  0  0  0  0  0  0  0  0  0  0  0
    4.9400   -0.0803   -1.0521 C   0  0  0  0  0  0  0  0  0  0  0  0
    5.9013    1.3127    0.6985 C   0  0  0  0  0  0  0  0  0  0  0  0
    5.7789   -1.1343   -0.6335 C   0  0  0  0  0  0  0  0  0  0  0  0
   -3.7170   -1.8002   -0.0032 C   0  0  0  0  0  0  0  0  0  0  0  0
    6.7247    0.2702    1.1055 C   0  0  0  0  0  0  0  0  0  0  0  0
   -2.7746   -3.9262   -0.2214 C   0  0  0  0  0  0  0  0  0  0  0  0
    6.6650   -0.9517    0.4416 C   0  0  0  0  0  0  0  0  0  0  0  0
   -3.8365   -3.0866   -0.4882 C   0  0  0  0  0  0  0  0  0  0  0  0
   -4.7582   -0.8233   -0.2151 C   0  0  0  0  0  0  0  0  0  0  0  0
    5.6983   -2.3537   -1.3194 C   0  0  0  0  0  0  0  0  0  0  0  0
    4.0329   -1.4148   -2.7139 C   0  0  0  0  0  0  0  0  0  0  0  0
    4.8130   -2.5023   -2.3773 C   0  0  0  0  0  0  0  0  0  0  0  0
   -6.0897   -1.2301   -0.3247 C   0  0  0  0  0  0  0  0  0  0  0  0
   -4.4374    0.5325   -0.3133 C   0  0  0  0  0  0  0  0  0  0  0  0
   -7.0954   -0.2859   -0.5313 C   0  0  0  0  0  0  0  0  0  0  0  0
   -5.4432    1.4767   -0.5198 C   0  0  0  0  0  0  0  0  0  0  0  0
   -6.7722    1.0675   -0.6290 C   0  0  0  0  0  0  0  0  0  0  0  0
   -7.6536    3.3657   -0.3104 C   0  0  0  0  0  0  0  0  0  0  0  0
   -8.9897    1.6683   -1.5680 C   0  0  0  0  0  0  0  0  0  0  0  0
    2.1037   -0.4848    0.4968 H   0  0  0  0  0  0  0  0  0  0  0  0
   -0.1724    0.2002    0.0449 H   0  0  0  0  0  0  0  0  0  0  0  0
    3.1174    1.8171    1.6449 H   0  0  0  0  0  0  0  0  0  0  0  0
   -1.3260   -0.1386    2.5575 H   0  0  0  0  0  0  0  0  0  0  0  0
    1.1874    2.6087    2.6850 H   0  0  0  0  0  0  0  0  0  0  0  0
    1.0236    3.4884    1.1514 H   0  0  0  0  0  0  0  0  0  0  0  0
    0.5365    0.3589    3.8876 H   0  0  0  0  0  0  0  0  0  0  0  0
    0.7619   -1.3976    3.7799 H   0  0  0  0  0  0  0  0  0  0  0  0
    1.7882    1.6365   -1.0473 H   0  0  0  0  0  0  0  0  0  0  0  0
    0.2132   -2.5085    1.7116 H   0  0  0  0  0  0  0  0  0  0  0  0
    5.9644    2.2541    1.2350 H   0  0  0  0  0  0  0  0  0  0  0  0
    7.4099    0.4066    1.9366 H   0  0  0  0  0  0  0  0  0  0  0  0
   -2.7750   -4.9544   -0.5674 H   0  0  0  0  0  0  0  0  0  0  0  0
    7.3137   -1.7614    0.7684 H   0  0  0  0  0  0  0  0  0  0  0  0
   -4.6778   -3.4479   -1.0656 H   0  0  0  0  0  0  0  0  0  0  0  0
    6.3253   -3.1949   -1.0327 H   0  0  0  0  0  0  0  0  0  0  0  0
    3.3222   -1.4719   -3.5319 H   0  0  0  0  0  0  0  0  0  0  0  0
    4.7375   -3.4381   -2.9183 H   0  0  0  0  0  0  0  0  0  0  0  0
   -6.3890   -2.2704   -0.2271 H   0  0  0  0  0  0  0  0  0  0  0  0
   -3.4102    0.8837   -0.2461 H   0  0  0  0  0  0  0  0  0  0  0  0
   -8.1221   -0.6354   -0.5942 H   0  0  0  0  0  0  0  0  0  0  0  0
   -5.1568    2.5211   -0.6054 H   0  0  0  0  0  0  0  0  0  0  0  0
   -8.6255    3.8688   -0.2547 H   0  0  0  0  0  0  0  0  0  0  0  0
   -7.2440    3.3586    0.7061 H   0  0  0  0  0  0  0  0  0  0  0  0
   -7.0064    3.9711   -0.9537 H   0  0  0  0  0  0  0  0  0  0  0  0
   -9.6890    1.1233   -0.9253 H   0  0  0  0  0  0  0  0  0  0  0  0
   -9.5069    2.5623   -1.9343 H   0  0  0  0  0  0  0  0  0  0  0  0
   -8.7586    1.0565   -2.4475 H   0  0  0  0  0  0  0  0  0  0  0  0
  1  4  2  0  0  0  0
  1  5  2  0  0  0  0
  1  6  1  0  0  0  0
  1 19  1  0  0  0  0
  2 13  1  0  0  0  0
  2 16  1  0  0  0  0
  3 12  1  0  0  0  0
  3 17  1  0  0  0  0
  6 14  1  0  0  0  0
  6 47  1  0  0  0  0
  7 15  1  0  0  0  0
  7 18  1  0  0  0  0
  7 48  1  0  0  0  0
  8 18  1  0  0  0  0
  8 23  2  0  0  0  0
  9 18  2  0  0  0  0
  9 25  1  0  0  0  0
 10 20  1  0  0  0  0
 10 30  2  0  0  0  0
 11 36  1  0  0  0  0
 11 37  1  0  0  0  0
 11 38  1  0  0  0  0
 12 13  1  0  0  0  0
 12 14  1  0  0  0  0
 12 39  1  0  0  0  0
 13 15  1  0  0  0  0
 13 40  1  0  0  0  0
 14 16  1  0  0  0  0
 14 41  1  0  0  0  0
 15 17  1  0  0  0  0
 15 42  1  0  0  0  0
 16 43  1  0  0  0  0
 16 44  1  0  0  0  0
 17 45  1  0  0  0  0
 17 46  1  0  0  0  0
 19 20  1  0  0  0  0
 19 21  2  0  0  0  0
 20 22  2  0  0  0  0
 21 24  1  0  0  0  0
 21 49  1  0  0  0  0
 22 26  1  0  0  0  0
 22 29  1  0  0  0  0
 23 27  1  0  0  0  0
 23 28  1  0  0  0  0
 24 26  2  0  0  0  0
 24 50  1  0  0  0  0
 25 27  2  0  0  0  0
 25 51  1  0  0  0  0
 26 52  1  0  0  0  0
 27 53  1  0  0  0  0
 28 32  2  0  0  0  0
 28 33  1  0  0  0  0
 29 31  2  0  0  0  0
 29 54  1  0  0  0  0
 30 31  1  0  0  0  0
 30 55  1  0  0  0  0
 31 56  1  0  0  0  0
 32 34  1  0  0  0  0
 32 57  1  0  0  0  0
 33 35  2  0  0  0  0
 33 58  1  0  0  0  0
 34 36  2  0  0  0  0
 34 59  1  0  0  0  0
 35 36  1  0  0  0  0
 35 60  1  0  0  0  0
 37 61  1  0  0  0  0
 37 62  1  0  0  0  0
 37 63  1  0  0  0  0
 38 64  1  0  0  0  0
 38 65  1  0  0  0  0
 38 66  1  0  0  0  0
M  END
> <PUBCHEM_COMPOUND_CID>
11911727

> <PUBCHEM_CONFORMER_RMSD>
1

> <PUBCHEM_CONFORMER_DIVERSEORDER>
1
266
290
114
126
127
143
124
71
46
217
222
26
116
134
135
194
159
92
185
190
132
104
181
276
58
213
177
295
246
210
85
182
273
225
292
183
133
274
123
191
296
215
224
160
28
113
277
66
139
150
200
175
144
8
101
227
80
293
131
163
89
221
5
103
264
173
73
63
77
256
202
230
87
100
52
220
153
236
30
40
169
155
265
79
59
234
199
141
238
255
180
242
23
152
201
67
219
6
99
13
54
280
12
178
109
241
70
251
22
263
166
226
147
228
278
24
211
47
76
218
212
38
249
90
129
214
189
11
51
298
172
188
164
96
117
252
128
291
33
197
176
174
16
179
95
154
55
235
107
283
288
142
149
261
207
20
56
138
258
161
120
279
111
61
282
187
122
156
81
272
196
157
208
119
206
36
257
216
247
41
184
140
105
297
239
69
39
240
253
27
168
9
35
108
91
254
110
275
88
284
193
2
299
192
48
112
148
68
294
146
171
260
232
136
259
34
49
115
31
158
72
43
195
118
285
229
57
244
162
94
125
271
18
167
42
45
83
233
3
237
50
62
223
268
10
287
267
262
93
170
250
198
97
98
204
281
17
86
21
102
106
245
289
78
286
37
19
121
231
269
209
4
137
248
60
203
32
186
15
151
74
75
25
64
53
84
82
29
14
270
243
7
145
205
44
165
130
65

> <PUBCHEM_MMFF94_PARTIAL_CHARGES>
50
1 1.45
10 -0.62
11 -0.84
12 0.28
13 0.28
14 0.36
15 0.37
16 0.28
17 0.28
18 0.72
19 -0.01
2 -0.56
20 0.31
21 -0.15
23 0.31
24 -0.15
25 0.16
26 -0.15
27 -0.15
29 -0.15
3 -0.56
30 0.16
31 -0.15
32 -0.15
33 -0.15
34 -0.15
35 -0.15
36 0.1
37 0.37
38 0.37
4 -0.65
47 0.42
48 0.4
49 0.15
5 -0.65
50 0.15
51 0.15
52 0.15
53 0.15
54 0.15
55 0.15
56 0.15
57 0.15
58 0.15
59 0.15
6 -0.91
60 0.15
7 -0.87
8 -0.62
9 -0.62

> <PUBCHEM_EFFECTIVE_ROTOR_COUNT>
8.2

> <PUBCHEM_PHARMACOPHORE_FEATURES>
16
1 10 acceptor
1 11 cation
1 2 acceptor
1 3 acceptor
1 4 acceptor
1 5 acceptor
1 6 donor
1 7 donor
1 8 acceptor
4 7 8 9 18 cation
5 2 12 13 14 16 rings
5 3 12 13 15 17 rings
6 10 20 22 29 30 31 rings
6 19 20 21 22 24 26 rings
6 28 32 33 34 35 36 rings
6 8 9 18 23 25 27 rings

> <PUBCHEM_HEAVY_ATOM_COUNT>
38

> <PUBCHEM_ATOM_DEF_STEREO_COUNT>
4

> <PUBCHEM_ATOM_UDEF_STEREO_COUNT>
0

> <PUBCHEM_BOND_DEF_STEREO_COUNT>
0

> <PUBCHEM_BOND_UDEF_STEREO_COUNT>
0

> <PUBCHEM_ISOTOPIC_ATOM_COUNT>
0

> <PUBCHEM_COMPONENT_COUNT>
1

> <PUBCHEM_CACTVS_TAUTO_COUNT>
3

> <PUBCHEM_CONFORMER_ID>
00B5C22F00000001

> <PUBCHEM_MMFF94_ENERGY>
120.8637

> <PUBCHEM_FEATURE_SELFOVERLAP>
81.961

> <PUBCHEM_SHAPE_FINGERPRINT>
10483366 6 18339928091198208547
10794284 68 8357667743095519568
10816530 90 18261665974640857787
10985338 15 14779556634250351219
11720765 8 17775563156348494536
11828532 37 18190747634006538263
1200032 147 18114181874985657537
12098696 120 18335980883995623057
12728209 76 17895196644828026901
14664723 55 18334858291266553925
15183329 4 18341338859026544626
15419008 42 18273219681248521726
15684389 69 11455881499379098866
15721738 15 18341346513128648406
15781502 685 17489875925333422113
16992727 255 18409728452600350801
19304144 158 17981043338822637824
19309040 13 15721394025780781406
19315092 285 14260807014243765598
19958102 18 18272378546452624891
20715895 44 18407761447894239506
21315764 119 18411982472479013363
21458453 9 8358253757107397525
23559900 14 17988074608118250739
23572383 38 18131078155800654526
25222932 49 15410901743469864962
38570 142 17748825224531755963
4173938 306 17846203489178639458
4173938 77 16733270157206345037
437795 139 15697419144608252063
4394409 98 18408888408611181182
4408954 87 8646474215980305525
44575985 397 16343697708285802831
4461854 278 10809635762153423233
4756261 7 8789728469376218771
508180 173 18411978083745819681
613672 6 15482123780857244222
6697151 62 15482381050010289723

> <PUBCHEM_SHAPE_MULTIPOLES>
732.51
22.81
4.12
2.3
28.71
0.8
0.39
-8.92
-12.23
1.84
-0.89
-2.77
0.3
2.78

> <PUBCHEM_SHAPE_SELFOVERLAP>
1606.205

> <PUBCHEM_SHAPE_VOLUME>
399.2

> <PUBCHEM_COORDINATE_TYPE>
2
5
10

$$$$
