86769450
  -OEChem-12032416393D

 44 47  0     1  0  0  0  0  0999 V2000
   -6.3851   -0.9784   -0.0147 O   0  0  0  0  0  0  0  0  0  0  0  0
    2.1877    2.4045    0.1755 O   0  0  0  0  0  0  0  0  0  0  0  0
   -2.4063    0.3351   -0.2811 N   0  0  1  0  0  0  0  0  0  0  0  0
    0.2808    1.1670   -0.3409 N   0  0  0  0  0  0  0  0  0  0  0  0
    2.2360    0.0371   -0.1749 N   0  0  0  0  0  0  0  0  0  0  0  0
    4.4843    0.6881    0.2905 N   0  0  0  0  0  0  0  0  0  0  0  0
   -0.0464   -0.1754   -0.7521 C   0  0  2  0  0  0  0  0  0  0  0  0
   -1.3275   -0.6502   -0.0676 C   0  0  0  0  0  0  0  0  0  0  0  0
   -3.6523   -0.1363    0.3187 C   0  0  0  0  0  0  0  0  0  0  0  0
   -2.0327    1.6511    0.2749 C   0  0  0  0  0  0  0  0  0  0  0  0
   -0.7501    2.1851   -0.3672 C   0  0  0  0  0  0  0  0  0  0  0  0
    1.2045   -0.9704   -0.3967 C   0  0  0  0  0  0  0  0  0  0  0  0
   -4.0250   -1.5265   -0.2055 C   0  0  0  0  0  0  0  0  0  0  0  0
   -4.7871    0.8521    0.0354 C   0  0  0  0  0  0  0  0  0  0  0  0
    1.6514    1.3356   -0.0857 C   0  0  0  0  0  0  0  0  0  0  0  0
   -5.3913   -1.9448    0.3267 C   0  0  0  0  0  0  0  0  0  0  0  0
   -6.1112    0.3020    0.5541 C   0  0  0  0  0  0  0  0  0  0  0  0
    3.6086   -0.3010    0.0038 C   0  0  0  0  0  0  0  0  0  0  0  0
    3.9607   -1.6345   -0.1289 C   0  0  0  0  0  0  0  0  0  0  0  0
    5.2977   -1.9747    0.0440 C   0  0  0  0  0  0  0  0  0  0  0  0
    5.7750    0.3195    0.4515 C   0  0  0  0  0  0  0  0  0  0  0  0
    6.2285   -0.9850    0.3401 C   0  0  0  0  0  0  0  0  0  0  0  0
   -0.1799   -0.1514   -1.8420 H   0  0  0  0  0  0  0  0  0  0  0  0
   -1.5505   -1.6195   -0.5217 H   0  0  0  0  0  0  0  0  0  0  0  0
   -1.1586   -0.8062    1.0063 H   0  0  0  0  0  0  0  0  0  0  0  0
   -3.5324   -0.2124    1.4098 H   0  0  0  0  0  0  0  0  0  0  0  0
   -2.7889    2.4156    0.0800 H   0  0  0  0  0  0  0  0  0  0  0  0
   -1.8947    1.5819    1.3621 H   0  0  0  0  0  0  0  0  0  0  0  0
   -0.9229    2.4445   -1.4182 H   0  0  0  0  0  0  0  0  0  0  0  0
   -0.3926    3.0824    0.1478 H   0  0  0  0  0  0  0  0  0  0  0  0
    1.0805   -1.5512    0.5242 H   0  0  0  0  0  0  0  0  0  0  0  0
    1.4659   -1.6332   -1.2279 H   0  0  0  0  0  0  0  0  0  0  0  0
   -3.3202   -2.3009    0.1113 H   0  0  0  0  0  0  0  0  0  0  0  0
   -4.0567   -1.5148   -1.3026 H   0  0  0  0  0  0  0  0  0  0  0  0
   -4.8700    1.0217   -1.0460 H   0  0  0  0  0  0  0  0  0  0  0  0
   -4.6397    1.8201    0.5224 H   0  0  0  0  0  0  0  0  0  0  0  0
   -5.6886   -2.8993   -0.1193 H   0  0  0  0  0  0  0  0  0  0  0  0
   -5.3729   -2.0796    1.4147 H   0  0  0  0  0  0  0  0  0  0  0  0
   -6.1104    0.2224    1.6477 H   0  0  0  0  0  0  0  0  0  0  0  0
   -6.9292    0.9728    0.2724 H   0  0  0  0  0  0  0  0  0  0  0  0
    3.2617   -2.4317   -0.3499 H   0  0  0  0  0  0  0  0  0  0  0  0
    5.6143   -3.0092   -0.0496 H   0  0  0  0  0  0  0  0  0  0  0  0
    6.4608    1.1283    0.6811 H   0  0  0  0  0  0  0  0  0  0  0  0
    7.2758   -1.2272    0.4795 H   0  0  0  0  0  0  0  0  0  0  0  0
  1 16  1  0  0  0  0
  1 17  1  0  0  0  0
  2 15  2  0  0  0  0
  3  8  1  0  0  0  0
  3  9  1  0  0  0  0
  3 10  1  0  0  0  0
  4  7  1  0  0  0  0
  4 11  1  0  0  0  0
  4 15  1  0  0  0  0
  5 12  1  0  0  0  0
  5 15  1  0  0  0  0
  5 18  1  0  0  0  0
  6 18  1  0  0  0  0
  6 21  2  0  0  0  0
  7  8  1  0  0  0  0
  7 12  1  0  0  0  0
  7 23  1  0  0  0  0
  8 24  1  0  0  0  0
  8 25  1  0  0  0  0
  9 13  1  0  0  0  0
  9 14  1  0  0  0  0
  9 26  1  0  0  0  0
 10 11  1  0  0  0  0
 10 27  1  0  0  0  0
 10 28  1  0  0  0  0
 11 29  1  0  0  0  0
 11 30  1  0  0  0  0
 12 31  1  0  0  0  0
 12 32  1  0  0  0  0
 13 16  1  0  0  0  0
 13 33  1  0  0  0  0
 13 34  1  0  0  0  0
 14 17  1  0  0  0  0
 14 35  1  0  0  0  0
 14 36  1  0  0  0  0
 16 37  1  0  0  0  0
 16 38  1  0  0  0  0
 17 39  1  0  0  0  0
 17 40  1  0  0  0  0
 18 19  2  0  0  0  0
 19 20  1  0  0  0  0
 19 41  1  0  0  0  0
 20 22  2  0  0  0  0
 20 42  1  0  0  0  0
 21 22  1  0  0  0  0
 21 43  1  0  0  0  0
 22 44  1  0  0  0  0
M  END
> <PUBCHEM_COMPOUND_CID>
86769450

> <PUBCHEM_CONFORMER_RMSD>
0.8

> <PUBCHEM_CONFORMER_DIVERSEORDER>
1
11
6
9
4
8
10
12
5
3
7
2

> <PUBCHEM_MMFF94_PARTIAL_CHARGES>
24
1 -0.56
10 0.27
11 0.3
12 0.3
15 0.69
16 0.28
17 0.28
18 0.43
19 -0.15
2 -0.57
20 -0.15
21 0.16
22 -0.15
3 -0.81
4 -0.66
41 0.15
42 0.15
43 0.15
44 0.15
5 -0.48
6 -0.62
7 0.3
8 0.27
9 0.27

> <PUBCHEM_EFFECTIVE_ROTOR_COUNT>
4.4

> <PUBCHEM_PHARMACOPHORE_FEATURES>
8
1 1 acceptor
1 2 acceptor
1 3 cation
1 6 acceptor
5 4 5 7 12 15 rings
6 1 9 13 14 16 17 rings
6 3 4 7 8 10 11 rings
6 6 18 19 20 21 22 rings

> <PUBCHEM_HEAVY_ATOM_COUNT>
22

> <PUBCHEM_ATOM_DEF_STEREO_COUNT>
1

> <PUBCHEM_ATOM_UDEF_STEREO_COUNT>
0

> <PUBCHEM_BOND_DEF_STEREO_COUNT>
0

> <PUBCHEM_BOND_UDEF_STEREO_COUNT>
0

> <PUBCHEM_ISOTOPIC_ATOM_COUNT>
0

> <PUBCHEM_COMPONENT_COUNT>
1

> <PUBCHEM_CACTVS_TAUTO_COUNT>
1

> <PUBCHEM_CONFORMER_ID>
052BFF2A00000001

> <PUBCHEM_MMFF94_ENERGY>
58.9832

> <PUBCHEM_FEATURE_SELFOVERLAP>
40.693

> <PUBCHEM_SHAPE_FINGERPRINT>
10 15 18342446076780490752
106641 1 18131346445148099650
11315181 36 18343585153414843017
11524674 6 16917347039258594119
11796584 16 17240483636832050915
12107183 9 17547574782069929002
12166972 35 17749112188418752636
12236239 1 18202283610845921707
12516196 113 18411981364382790832
12596602 18 17918276450124470154
12670543 26 10881396522035925856
13288520 33 18335421266561854815
13402501 40 18409168805028445370
13533116 47 18412263969363486616
13685833 64 18334017207187540251
13862211 1 18408885135412837831
14251752 14 17386278805871479821
14251764 18 18341895211846908646
14341114 176 18341615905881423538
15196674 1 18410856559645194333
15461852 350 16773790399543480949
15927050 60 17695625543558981116
17492 89 18048037669136016211
17857418 61 18410293622787807823
17959699 21 9223225252511598630
1813 80 17603587417777419172
18222031 100 17458347429443394236
19141452 34 18272647973814436023
200 152 18272368676923785489
20028762 73 18272368689255832823
21033648 29 17130971093120248050
21130935 74 18272371962041666867
21150785 3 15574723503735175446
21236236 1 18340767027534961837
21267235 1 18340771451809868494
21279426 13 18191584151236753279
21637258 2 17385435514712538978
22224240 67 17275096236899036902
23035841 295 18261110759786438299
23402539 116 18411415116269123583
23522609 53 18119843306748200116
23559900 14 18336822087262290377
26918003 58 18342458145190205457
2838139 119 9511462203936539307
2916195 48 10447926165918837783
293599 30 9583519815259571391
3004659 81 18040155119640670726
335352 9 18409729552464958269
350125 39 18412826893204439956
351380 3 18260545619336496411
4073 2 18042128811289206043
4214541 1 18410576172054936181
4325135 7 18187369840038849276
4340502 62 14476965592335861173
4463277 17 18410575080568727660
465052 167 18412548721278833942
5104073 3 18199459983761132248
542803 24 12463569582240139466
559249 180 18409166598343215219
5718773 13 18265614467653784443
59682541 35 18341042009000591536
59755656 215 18187360996031812483
67856867 119 18269837665302034497
7495541 125 17989201577287158056

> <PUBCHEM_SHAPE_MULTIPOLES>
421.09
15.96
2.13
0.69
1.55
0.35
0.01
-7.34
-2.96
-0.02
0.01
0.03
-0.01
0.1

> <PUBCHEM_SHAPE_SELFOVERLAP>
898.798

> <PUBCHEM_SHAPE_VOLUME>
231.8

> <PUBCHEM_COORDINATE_TYPE>
2
5
10

$$$$
