75367055
  -OEChem-12032416393D

 36 37  0     1  0  0  0  0  0999 V2000
    0.6942    1.2098   -0.0499 O   0  0  0  0  0  0  0  0  0  0  0  0
    0.1182   -2.3348    0.0450 O   0  0  0  0  0  0  0  0  0  0  0  0
    4.5445   -0.9653    0.7591 O   0  0  0  0  0  0  0  0  0  0  0  0
   -2.4605   -0.5788   -0.3329 N   0  0  0  0  0  0  0  0  0  0  0  0
    3.4417    0.5665   -0.6060 N   0  0  0  0  0  0  0  0  0  0  0  0
   -3.4990   -0.0094    0.5133 C   0  0  0  0  0  0  0  0  0  0  0  0
   -1.1538   -0.2582    0.2179 C   0  0  1  0  0  0  0  0  0  0  0  0
   -4.8432   -0.7048    0.2070 C   0  0  0  0  0  0  0  0  0  0  0  0
   -4.0786    1.2488   -0.1687 C   0  0  0  0  0  0  0  0  0  0  0  0
   -0.0136   -1.0129   -0.4403 C   0  0  1  0  0  0  0  0  0  0  0  0
   -5.4746    0.7060    0.2135 C   0  0  0  0  0  0  0  0  0  0  0  0
    1.1755   -0.1445   -0.0523 C   0  0  1  0  0  0  0  0  0  0  0  0
   -0.7439    1.1839   -0.0322 C   0  0  0  0  0  0  0  0  0  0  0  0
    2.3484   -0.2707   -1.0082 C   0  0  0  0  0  0  0  0  0  0  0  0
    4.4551    0.1484    0.2489 C   0  0  0  0  0  0  0  0  0  0  0  0
    5.4895    1.2159    0.4858 C   0  0  0  0  0  0  0  0  0  0  0  0
   -3.2948    0.0820    1.5867 H   0  0  0  0  0  0  0  0  0  0  0  0
   -1.1288   -0.4813    1.2942 H   0  0  0  0  0  0  0  0  0  0  0  0
   -5.2118   -1.3856    0.9793 H   0  0  0  0  0  0  0  0  0  0  0  0
   -4.9192   -1.2026   -0.7679 H   0  0  0  0  0  0  0  0  0  0  0  0
   -3.9286    1.3220   -1.2532 H   0  0  0  0  0  0  0  0  0  0  0  0
   -3.8091    2.2042    0.2897 H   0  0  0  0  0  0  0  0  0  0  0  0
   -0.1398   -1.0471   -1.5297 H   0  0  0  0  0  0  0  0  0  0  0  0
   -6.2686    0.8762   -0.5177 H   0  0  0  0  0  0  0  0  0  0  0  0
   -5.8202    1.0313    1.2015 H   0  0  0  0  0  0  0  0  0  0  0  0
   -2.5302   -1.5934   -0.4192 H   0  0  0  0  0  0  0  0  0  0  0  0
    1.5079   -0.3747    0.9685 H   0  0  0  0  0  0  0  0  0  0  0  0
   -1.0824    1.5514   -1.0078 H   0  0  0  0  0  0  0  0  0  0  0  0
   -1.1089    1.8672    0.7405 H   0  0  0  0  0  0  0  0  0  0  0  0
    2.6909   -1.3095   -1.0639 H   0  0  0  0  0  0  0  0  0  0  0  0
    2.0636    0.0572   -2.0139 H   0  0  0  0  0  0  0  0  0  0  0  0
    0.2292   -2.2967    1.0101 H   0  0  0  0  0  0  0  0  0  0  0  0
    3.4667    1.5153   -0.9685 H   0  0  0  0  0  0  0  0  0  0  0  0
    5.0059    2.1710    0.7101 H   0  0  0  0  0  0  0  0  0  0  0  0
    6.1198    0.9359    1.3343 H   0  0  0  0  0  0  0  0  0  0  0  0
    6.1120    1.3234   -0.4066 H   0  0  0  0  0  0  0  0  0  0  0  0
  1 12  1  0  0  0  0
  1 13  1  0  0  0  0
  2 10  1  0  0  0  0
  2 32  1  0  0  0  0
  3 15  2  0  0  0  0
  4  6  1  0  0  0  0
  4  7  1  0  0  0  0
  4 26  1  0  0  0  0
  5 14  1  0  0  0  0
  5 15  1  0  0  0  0
  5 33  1  0  0  0  0
  6  8  1  0  0  0  0
  6  9  1  0  0  0  0
  6 17  1  0  0  0  0
  7 10  1  0  0  0  0
  7 13  1  0  0  0  0
  7 18  1  0  0  0  0
  8 11  1  0  0  0  0
  8 19  1  0  0  0  0
  8 20  1  0  0  0  0
  9 11  1  0  0  0  0
  9 21  1  0  0  0  0
  9 22  1  0  0  0  0
 10 12  1  0  0  0  0
 10 23  1  0  0  0  0
 11 24  1  0  0  0  0
 11 25  1  0  0  0  0
 12 14  1  0  0  0  0
 12 27  1  0  0  0  0
 13 28  1  0  0  0  0
 13 29  1  0  0  0  0
 14 30  1  0  0  0  0
 14 31  1  0  0  0  0
 15 16  1  0  0  0  0
 16 34  1  0  0  0  0
 16 35  1  0  0  0  0
 16 36  1  0  0  0  0
M  END
> <PUBCHEM_COMPOUND_CID>
75367055

> <PUBCHEM_CONFORMER_RMSD>
0.8

> <PUBCHEM_CONFORMER_DIVERSEORDER>
1
53
4
50
24
36
13
46
35
52
44
21
12
31
17
41
26
3
45
23
30
33
43
38
11
40
42
55
39
6
8
16
28
34
29
15
18
47
54
9
48
27
2
37
49
22
19
25
32
14
7
5
10
51
20

> <PUBCHEM_MMFF94_PARTIAL_CHARGES>
16
1 -0.56
10 0.28
12 0.28
13 0.28
14 0.3
15 0.57
16 0.06
2 -0.68
26 0.36
3 -0.57
32 0.4
33 0.37
4 -0.84
5 -0.73
6 0.21
7 0.27

> <PUBCHEM_EFFECTIVE_ROTOR_COUNT>
6.8

> <PUBCHEM_PHARMACOPHORE_FEATURES>
9
1 1 acceptor
1 2 acceptor
1 2 donor
1 3 acceptor
1 4 cation
1 4 donor
1 5 donor
4 6 8 9 11 rings
5 1 7 10 12 13 rings

> <PUBCHEM_HEAVY_ATOM_COUNT>
16

> <PUBCHEM_ATOM_DEF_STEREO_COUNT>
3

> <PUBCHEM_ATOM_UDEF_STEREO_COUNT>
0

> <PUBCHEM_BOND_DEF_STEREO_COUNT>
0

> <PUBCHEM_BOND_UDEF_STEREO_COUNT>
0

> <PUBCHEM_ISOTOPIC_ATOM_COUNT>
0

> <PUBCHEM_COMPONENT_COUNT>
1

> <PUBCHEM_CACTVS_TAUTO_COUNT>
2

> <PUBCHEM_CONFORMER_ID>
047E028F00000001

> <PUBCHEM_MMFF94_ENERGY>
34.7648

> <PUBCHEM_FEATURE_SELFOVERLAP>
45.672

> <PUBCHEM_SHAPE_FINGERPRINT>
11287383 113 15769770286301250559
11401426 45 18342458144905349373
117890 112 18131351908035491056
12236239 1 17967532380899986192
12670546 56 17022614269363491556
13533116 47 18187360983626803218
13675066 3 18259706704970483946
13862211 1 18409445890738236663
14123238 8 16415480449964873989
14251718 22 15769770269506464517
14943859 89 18343301474429040215
15048467 5 15339121234150250457
15375358 24 18131638880369718199
17834072 33 15697710484718834213
17834076 25 16200434675864782948
18222031 100 8358254804831445519
19784866 9 18261672588716407219
20645477 70 16702034023829557030
23402539 116 18342733039686194748
23402655 69 18271241613513608453
23559900 14 18201170905585015214
265663 24 17603305959642914979
2916195 48 18202278138714922872
34797466 226 16128661898103882393
34934 24 18202280290799441311
366044 4 18411138051828375242
4072396 5 18336539426257310547
42 15 17748826306689330170
42630746 31 18341896242755689062
42788 4 18412826888824615424
474229 33 18411981368751702031
5104073 3 18264497191686916147
5374978 207 18411415103647965832
542803 24 13470692538031889291

> <PUBCHEM_SHAPE_MULTIPOLES>
301.7
12.15
1.46
0.77
1.67
0.35
0.04
-3.16
-2.16
0.07
-0.04
0.34
0.03
0.1

> <PUBCHEM_SHAPE_SELFOVERLAP>
607.252

> <PUBCHEM_SHAPE_VOLUME>
179.6

> <PUBCHEM_COORDINATE_TYPE>
2
5
10

$$$$
