75537039
  -OEChem-12032416343D

 37 39  0     1  0  0  0  0  0999 V2000
   -5.1026    0.5334    0.0622 O   0  0  0  0  0  0  0  0  0  0  0  0
   -2.7643    0.3181    0.2151 N   0  0  0  0  0  0  0  0  0  0  0  0
   -0.0431    0.7041   -0.3787 N   0  0  2  0  0  0  0  0  0  0  0  0
   -4.0275   -1.5362    0.3239 N   0  0  0  0  0  0  0  0  0  0  0  0
   -1.8259   -0.7467    0.5007 C   0  0  2  0  0  0  0  0  0  0  0  0
   -0.6189   -0.6552   -0.4322 C   0  0  0  0  0  0  0  0  0  0  0  0
   -2.2806    1.6777    0.0977 C   0  0  0  0  0  0  0  0  0  0  0  0
   -2.6632   -2.0137    0.3463 C   0  0  0  0  0  0  0  0  0  0  0  0
   -1.0371    1.7145   -0.7944 C   0  0  0  0  0  0  0  0  0  0  0  0
   -4.0867   -0.1363    0.1880 C   0  0  0  0  0  0  0  0  0  0  0  0
    1.1491    0.7856   -1.2223 C   0  0  0  0  0  0  0  0  0  0  0  0
    2.3444    0.1464   -0.5671 C   0  0  0  0  0  0  0  0  0  0  0  0
    3.0325    0.7942    0.4587 C   0  0  0  0  0  0  0  0  0  0  0  0
    2.7611   -1.1124   -1.0001 C   0  0  0  0  0  0  0  0  0  0  0  0
    4.1374    0.1833    1.0516 C   0  0  0  0  0  0  0  0  0  0  0  0
    2.6051    2.1421    0.9392 C   0  0  0  0  0  0  0  0  0  0  0  0
    3.8661   -1.7234   -0.4072 C   0  0  0  0  0  0  0  0  0  0  0  0
    4.5542   -1.0756    0.6187 C   0  0  0  0  0  0  0  0  0  0  0  0
   -1.5129   -0.6273    1.5464 H   0  0  0  0  0  0  0  0  0  0  0  0
    0.1068   -1.4086   -0.1081 H   0  0  0  0  0  0  0  0  0  0  0  0
   -0.9141   -0.9011   -1.4614 H   0  0  0  0  0  0  0  0  0  0  0  0
   -2.0397    2.0258    1.1087 H   0  0  0  0  0  0  0  0  0  0  0  0
   -3.0749    2.3165   -0.3011 H   0  0  0  0  0  0  0  0  0  0  0  0
   -2.5330   -2.7080    1.1808 H   0  0  0  0  0  0  0  0  0  0  0  0
   -2.4775   -2.5398   -0.5951 H   0  0  0  0  0  0  0  0  0  0  0  0
   -1.3326    1.5443   -1.8384 H   0  0  0  0  0  0  0  0  0  0  0  0
   -0.6035    2.7200   -0.7342 H   0  0  0  0  0  0  0  0  0  0  0  0
    0.9661    0.3425   -2.2116 H   0  0  0  0  0  0  0  0  0  0  0  0
    1.4061    1.8305   -1.4404 H   0  0  0  0  0  0  0  0  0  0  0  0
   -4.8446   -2.1384    0.3201 H   0  0  0  0  0  0  0  0  0  0  0  0
    2.2356   -1.6302   -1.7981 H   0  0  0  0  0  0  0  0  0  0  0  0
    4.6851    0.6735    1.8522 H   0  0  0  0  0  0  0  0  0  0  0  0
    2.6499    2.8791    0.1312 H   0  0  0  0  0  0  0  0  0  0  0  0
    1.5938    2.1096    1.3555 H   0  0  0  0  0  0  0  0  0  0  0  0
    3.2620    2.5096    1.7359 H   0  0  0  0  0  0  0  0  0  0  0  0
    4.1906   -2.7035   -0.7442 H   0  0  0  0  0  0  0  0  0  0  0  0
    5.4144   -1.5515    1.0803 H   0  0  0  0  0  0  0  0  0  0  0  0
  1 10  2  0  0  0  0
  2  5  1  0  0  0  0
  2  7  1  0  0  0  0
  2 10  1  0  0  0  0
  3  6  1  0  0  0  0
  3  9  1  0  0  0  0
  3 11  1  0  0  0  0
  4  8  1  0  0  0  0
  4 10  1  0  0  0  0
  4 30  1  0  0  0  0
  5  6  1  0  0  0  0
  5  8  1  0  0  0  0
  5 19  1  0  0  0  0
  6 20  1  0  0  0  0
  6 21  1  0  0  0  0
  7  9  1  0  0  0  0
  7 22  1  0  0  0  0
  7 23  1  0  0  0  0
  8 24  1  0  0  0  0
  8 25  1  0  0  0  0
  9 26  1  0  0  0  0
  9 27  1  0  0  0  0
 11 12  1  0  0  0  0
 11 28  1  0  0  0  0
 11 29  1  0  0  0  0
 12 13  1  0  0  0  0
 12 14  2  0  0  0  0
 13 15  2  0  0  0  0
 13 16  1  0  0  0  0
 14 17  1  0  0  0  0
 14 31  1  0  0  0  0
 15 18  1  0  0  0  0
 15 32  1  0  0  0  0
 16 33  1  0  0  0  0
 16 34  1  0  0  0  0
 16 35  1  0  0  0  0
 17 18  2  0  0  0  0
 17 36  1  0  0  0  0
 18 37  1  0  0  0  0
M  END
> <PUBCHEM_COMPOUND_CID>
75537039

> <PUBCHEM_CONFORMER_RMSD>
0.6

> <PUBCHEM_CONFORMER_DIVERSEORDER>
1
16
2
20
15
11
12
17
19
22
14
5
13
9
10
21
7
18
3
8
4
6

> <PUBCHEM_MMFF94_PARTIAL_CHARGES>
23
1 -0.57
10 0.69
11 0.41
12 -0.14
13 -0.14
14 -0.15
15 -0.15
16 0.14
17 -0.15
18 -0.15
2 -0.66
3 -0.81
30 0.37
31 0.15
32 0.15
36 0.15
37 0.15
4 -0.73
5 0.3
6 0.27
7 0.3
8 0.3
9 0.27

> <PUBCHEM_EFFECTIVE_ROTOR_COUNT>
3.2

> <PUBCHEM_PHARMACOPHORE_FEATURES>
6
1 1 acceptor
1 3 cation
1 4 donor
5 2 4 5 8 10 rings
6 12 13 14 15 17 18 rings
6 2 3 5 6 7 9 rings

> <PUBCHEM_HEAVY_ATOM_COUNT>
18

> <PUBCHEM_ATOM_DEF_STEREO_COUNT>
1

> <PUBCHEM_ATOM_UDEF_STEREO_COUNT>
0

> <PUBCHEM_BOND_DEF_STEREO_COUNT>
0

> <PUBCHEM_BOND_UDEF_STEREO_COUNT>
0

> <PUBCHEM_ISOTOPIC_ATOM_COUNT>
0

> <PUBCHEM_COMPONENT_COUNT>
1

> <PUBCHEM_CACTVS_TAUTO_COUNT>
2

> <PUBCHEM_CONFORMER_ID>
04809A8F00000001

> <PUBCHEM_MMFF94_ENERGY>
45.2806

> <PUBCHEM_FEATURE_SELFOVERLAP>
30.542

> <PUBCHEM_SHAPE_FINGERPRINT>
10062212 137 18260830440678331947
10366900 7 18342742961382512080
10618630 7 18259988188478970702
11132069 177 18409169909219571111
11370993 70 18202562877861854270
12251169 10 18202560700782238620
12346177 29 18114736058198729413
12403814 3 14907896038317914633
12507560 40 18271802394065387892
12633257 1 18201167584752401504
13533116 47 18343303643577539187
13675066 3 18260832639505999483
14289901 80 17346883364066649143
14341114 176 18342741819068963056
14866123 147 16687114497223396962
15196674 1 18336267924484798391
15653759 3 18411417285259243424
15885798 251 18114183038204616389
16752209 62 16732971003732500461
17804303 29 18337959999854783444
17834072 14 18411698820296749135
1813 80 17167864166434566150
18186145 218 15357979013976095317
19049666 15 18054789481920125084
19141452 34 18411700998045933567
19784866 240 15502643863735287728
19862831 5 15719393936260482728
200 152 17775559832523120621
20361792 2 16443064997861814868
21065198 57 18413670214227301977
21065199 12 18343016688322597424
21501925 9 18408322207076385676
22646028 28 17822010912898787618
22854114 59 17846499240046275662
23402539 116 18412537700840931109
23559900 14 18410295830464321148
24859131 72 18411136922336249215
26918003 58 18272367564142192658
31174 14 18272366520745084728
3286 77 18412544301767944664
351380 180 18273210885350099433
42 15 18409167705642898370
4340502 62 15913614965095461855
474 4 13614230516905300866
5104073 3 18339087081083393915
5374978 207 18412828001237034433
5924683 9 18059568152939412879
69090 78 18272928323736392927
9709674 26 18337676420096541587
9981440 41 17105387961630133509

> <PUBCHEM_SHAPE_MULTIPOLES>
349.62
9.61
2.04
1.01
2.53
0.11
0.08
-2.64
-2.18
-0.08
-0.13
-0.72
0.12
0.81

> <PUBCHEM_SHAPE_SELFOVERLAP>
742.607

> <PUBCHEM_SHAPE_VOLUME>
196.5

> <PUBCHEM_COORDINATE_TYPE>
2
5
10

$$$$
