11886439
  -OEChem-12032416363D

 55 59  0     1  0  0  0  0  0999 V2000
    3.1710   -5.2101    0.4187 F   0  0  0  0  0  0  0  0  0  0  0  0
   -1.3816    2.3790   -1.4259 O   0  0  0  0  0  0  0  0  0  0  0  0
   -2.9776   -1.3881    1.1746 O   0  0  0  0  0  0  0  0  0  0  0  0
    3.3763    1.0082   -0.6441 N   0  0  2  0  0  0  0  0  0  0  0  0
    0.4887    2.2220   -0.0346 N   0  0  0  0  0  0  0  0  0  0  0  0
   -2.8804    0.6970    0.1484 N   0  0  0  0  0  0  0  0  0  0  0  0
    2.6988    3.4196   -0.5326 C   0  0  1  0  0  0  0  0  0  0  0  0
    2.5001    2.0190    1.4665 C   0  0  2  0  0  0  0  0  0  0  0  0
    2.8693    3.4181    0.9808 C   0  0  0  0  0  0  0  0  0  0  0  0
    3.6199    2.3574   -1.1694 C   0  0  0  0  0  0  0  0  0  0  0  0
    3.4499    0.9820    0.8245 C   0  0  0  0  0  0  0  0  0  0  0  0
    1.2180    3.1909   -0.8647 C   0  0  0  0  0  0  0  0  0  0  0  0
    1.0558    1.6961    1.1306 C   0  0  0  0  0  0  0  0  0  0  0  0
    4.3014    0.0422   -1.2314 C   0  0  0  0  0  0  0  0  0  0  0  0
    0.3331    0.8971    1.9333 C   0  0  0  0  0  0  0  0  0  0  0  0
   -0.8354    1.9281   -0.4181 C   0  0  0  0  0  0  0  0  0  0  0  0
   -1.5995    1.0157    0.4908 C   0  0  0  0  0  0  0  0  0  0  0  0
   -1.0207    0.5506    1.6030 C   0  0  0  0  0  0  0  0  0  0  0  0
    3.9986   -1.3648   -0.7892 C   0  0  0  0  0  0  0  0  0  0  0  0
    4.6029   -1.8663    0.3548 C   0  0  0  0  0  0  0  0  0  0  0  0
    3.1193   -2.1397   -1.5323 C   0  0  0  0  0  0  0  0  0  0  0  0
    4.3222   -3.1699    0.7643 C   0  0  0  0  0  0  0  0  0  0  0  0
    2.8384   -3.4432   -1.1228 C   0  0  0  0  0  0  0  0  0  0  0  0
   -3.4964   -0.4925    0.5128 C   0  0  0  0  0  0  0  0  0  0  0  0
    3.4398   -3.9583    0.0257 C   0  0  0  0  0  0  0  0  0  0  0  0
   -4.9049   -0.6519    0.0665 C   0  0  0  0  0  0  0  0  0  0  0  0
   -5.7487   -1.4583    0.8015 C   0  0  0  0  0  0  0  0  0  0  0  0
   -5.3230    0.0122   -1.0677 C   0  0  0  0  0  0  0  0  0  0  0  0
   -7.0708   -1.6077    0.3829 C   0  0  0  0  0  0  0  0  0  0  0  0
   -6.6453   -0.1372   -1.4861 C   0  0  0  0  0  0  0  0  0  0  0  0
   -7.5191   -0.9472   -0.7608 C   0  0  0  0  0  0  0  0  0  0  0  0
    2.9950    4.3968   -0.9339 H   0  0  0  0  0  0  0  0  0  0  0  0
    2.6411    1.9891    2.5551 H   0  0  0  0  0  0  0  0  0  0  0  0
    2.2302    4.1785    1.4466 H   0  0  0  0  0  0  0  0  0  0  0  0
    3.9049    3.6579    1.2511 H   0  0  0  0  0  0  0  0  0  0  0  0
    3.4619    2.3619   -2.2551 H   0  0  0  0  0  0  0  0  0  0  0  0
    4.6648    2.6495   -0.9971 H   0  0  0  0  0  0  0  0  0  0  0  0
    4.4752    1.1771    1.1671 H   0  0  0  0  0  0  0  0  0  0  0  0
    3.1419    0.0113    1.2244 H   0  0  0  0  0  0  0  0  0  0  0  0
    0.6826    4.1429   -0.7453 H   0  0  0  0  0  0  0  0  0  0  0  0
    1.0976    2.9085   -1.9182 H   0  0  0  0  0  0  0  0  0  0  0  0
    5.3447    0.2881   -0.9888 H   0  0  0  0  0  0  0  0  0  0  0  0
    4.2366    0.0820   -2.3272 H   0  0  0  0  0  0  0  0  0  0  0  0
    0.7523    0.4739    2.8402 H   0  0  0  0  0  0  0  0  0  0  0  0
   -1.5233   -0.0633    2.3403 H   0  0  0  0  0  0  0  0  0  0  0  0
   -3.3155    1.3221   -0.5213 H   0  0  0  0  0  0  0  0  0  0  0  0
    5.3035   -1.2702    0.9326 H   0  0  0  0  0  0  0  0  0  0  0  0
    2.6434   -1.7478   -2.4267 H   0  0  0  0  0  0  0  0  0  0  0  0
    4.7928   -3.5724    1.6564 H   0  0  0  0  0  0  0  0  0  0  0  0
    2.1510   -4.0571   -1.6973 H   0  0  0  0  0  0  0  0  0  0  0  0
   -5.4170   -1.9751    1.6970 H   0  0  0  0  0  0  0  0  0  0  0  0
   -4.6731    0.6167   -1.6902 H   0  0  0  0  0  0  0  0  0  0  0  0
   -7.7517   -2.2377    0.9480 H   0  0  0  0  0  0  0  0  0  0  0  0
   -6.9926    0.3687   -2.3823 H   0  0  0  0  0  0  0  0  0  0  0  0
   -8.5480   -1.0651   -1.0879 H   0  0  0  0  0  0  0  0  0  0  0  0
  1 25  1  0  0  0  0
  2 16  2  0  0  0  0
  3 24  2  0  0  0  0
  4 10  1  0  0  0  0
  4 11  1  0  0  0  0
  4 14  1  0  0  0  0
  5 12  1  0  0  0  0
  5 13  1  0  0  0  0
  5 16  1  0  0  0  0
  6 17  1  0  0  0  0
  6 24  1  0  0  0  0
  6 46  1  0  0  0  0
  7  9  1  0  0  0  0
  7 10  1  0  0  0  0
  7 12  1  0  0  0  0
  7 32  1  0  0  0  0
  8  9  1  0  0  0  0
  8 11  1  0  0  0  0
  8 13  1  0  0  0  0
  8 33  1  0  0  0  0
  9 34  1  0  0  0  0
  9 35  1  0  0  0  0
 10 36  1  0  0  0  0
 10 37  1  0  0  0  0
 11 38  1  0  0  0  0
 11 39  1  0  0  0  0
 12 40  1  0  0  0  0
 12 41  1  0  0  0  0
 13 15  2  0  0  0  0
 14 19  1  0  0  0  0
 14 42  1  0  0  0  0
 14 43  1  0  0  0  0
 15 18  1  0  0  0  0
 15 44  1  0  0  0  0
 16 17  1  0  0  0  0
 17 18  2  0  0  0  0
 18 45  1  0  0  0  0
 19 20  2  0  0  0  0
 19 21  1  0  0  0  0
 20 22  1  0  0  0  0
 20 47  1  0  0  0  0
 21 23  2  0  0  0  0
 21 48  1  0  0  0  0
 22 25  2  0  0  0  0
 22 49  1  0  0  0  0
 23 25  1  0  0  0  0
 23 50  1  0  0  0  0
 24 26  1  0  0  0  0
 26 27  2  0  0  0  0
 26 28  1  0  0  0  0
 27 29  1  0  0  0  0
 27 51  1  0  0  0  0
 28 30  2  0  0  0  0
 28 52  1  0  0  0  0
 29 31  2  0  0  0  0
 29 53  1  0  0  0  0
 30 31  1  0  0  0  0
 30 54  1  0  0  0  0
 31 55  1  0  0  0  0
M  END
> <PUBCHEM_COMPOUND_CID>
11886439

> <PUBCHEM_CONFORMER_RMSD>
0.8

> <PUBCHEM_CONFORMER_DIVERSEORDER>
1
8
9
11
12
2
13
10
4
3
6
5
7

> <PUBCHEM_MMFF94_PARTIAL_CHARGES>
41
1 -0.19
10 0.27
11 0.27
12 0.3
13 -0.03
14 0.41
15 -0.15
16 0.62
17 0.12
18 -0.15
19 -0.14
2 -0.57
20 -0.15
21 -0.15
22 -0.15
23 -0.15
24 0.54
25 0.19
26 0.09
27 -0.15
28 -0.15
29 -0.15
3 -0.57
30 -0.15
31 -0.15
4 -0.81
44 0.15
45 0.15
46 0.37
47 0.15
48 0.15
49 0.15
5 -0.47
50 0.15
51 0.15
52 0.15
53 0.15
54 0.15
55 0.15
6 -0.54
8 0.14

> <PUBCHEM_EFFECTIVE_ROTOR_COUNT>
6

> <PUBCHEM_PHARMACOPHORE_FEATURES>
9
1 2 acceptor
1 3 acceptor
1 4 cation
1 6 donor
6 19 20 21 22 23 25 rings
6 26 27 28 29 30 31 rings
6 4 7 8 9 10 11 rings
6 5 13 15 16 17 18 rings
6 5 7 8 9 12 13 rings

> <PUBCHEM_HEAVY_ATOM_COUNT>
31

> <PUBCHEM_ATOM_DEF_STEREO_COUNT>
2

> <PUBCHEM_ATOM_UDEF_STEREO_COUNT>
0

> <PUBCHEM_BOND_DEF_STEREO_COUNT>
0

> <PUBCHEM_BOND_UDEF_STEREO_COUNT>
0

> <PUBCHEM_ISOTOPIC_ATOM_COUNT>
0

> <PUBCHEM_COMPONENT_COUNT>
1

> <PUBCHEM_CACTVS_TAUTO_COUNT>
2

> <PUBCHEM_CONFORMER_ID>
00B55F6700000001

> <PUBCHEM_MMFF94_ENERGY>
92.9811

> <PUBCHEM_FEATURE_SELFOVERLAP>
47.222

> <PUBCHEM_SHAPE_FINGERPRINT>
10622 236 18200317589434653387
11135609 149 18193532545923248453
11719270 70 18337951320222270040
11828532 37 17313392278734750339
12147406 95 18042948930920385906
12202916 173 18113330943122069498
13533116 47 18130792304083132905
1361 2 18338238291991682702
13631057 29 18195255421648801422
14347332 77 18272932692319552153
14675020 138 18128527357559372880
15183329 4 18334577967008450681
15324884 4 17467380115240519272
15419008 42 18188468234716756757
15475509 35 17989199369716192003
15664445 248 17095808827397575780
17134984 74 18339927124667277094
17324776 126 17828193294894995483
17909252 39 18408884031564272329
18681886 176 14188743007287116049
19026451 147 18338517435371624162
19301679 30 18341619226788085401
19315092 285 17917429787858872250
20567600 247 18343017796461063439
20775438 99 18264757934382748219
20775530 9 18122928433796943506
21033650 10 16660923267145988885
21133410 171 17173743087827256154
21133410 58 18337379483987314511
21285901 2 17967810587022093309
21703447 108 18131630105910425088
23559900 14 18335707186202131849
23569914 152 17688277146873495399
239999 70 17968933222685303329
25222932 49 18271531905752164726
345986 75 17632581513410463929
34797466 226 17749390438202142525
397830 11 10087632746180785885
404807 14 17979080388455514563
46194498 28 18113897203757356284
463206 1 18130222782428971326
513532 50 17240762925744221580
5309563 4 18269559351758448134
5951187 136 15357990000724297254
59682541 52 18410003352298038247
70251023 43 18408604729935822921
9831232 110 18407757054438173023

> <PUBCHEM_SHAPE_MULTIPOLES>
604.01
15.44
5.18
1.57
34.55
3.77
0.07
10.76
-3.4
-10.13
-0.18
-0.17
-0.33
0.55

> <PUBCHEM_SHAPE_SELFOVERLAP>
1333.632

> <PUBCHEM_SHAPE_VOLUME>
321.8

> <PUBCHEM_COORDINATE_TYPE>
2
5
10

$$$$
