51136665
  -OEChem-12032416143D

 56 59  0     1  0  0  0  0  0999 V2000
    1.9052    2.2586   -0.8265 S   0  0  0  0  0  0  0  0  0  0  0  0
   -0.8442    3.6257   -1.5037 O   0  0  0  0  0  0  0  0  0  0  0  0
   -5.8275   -2.9627   -0.9185 O   0  0  0  0  0  0  0  0  0  0  0  0
   -6.2536   -0.8202   -0.2786 O   0  0  0  0  0  0  0  0  0  0  0  0
    5.3983   -1.3239   -1.3571 O   0  0  0  0  0  0  0  0  0  0  0  0
   -1.7938    2.0742   -0.0323 N   0  0  0  0  0  0  0  0  0  0  0  0
   -0.0909   -1.6811    1.9218 N   0  0  0  0  0  0  0  0  0  0  0  0
   -2.0937   -0.2778    0.7121 C   0  0  2  0  0  0  0  0  0  0  0  0
   -3.5004   -0.2632    0.0612 C   0  0  1  0  0  0  0  0  0  0  0  0
   -3.5786    0.7490   -1.0943 C   0  0  0  0  0  0  0  0  0  0  0  0
   -1.6840    1.1529    1.1075 C   0  0  0  0  0  0  0  0  0  0  0  0
   -1.0094   -0.9196   -0.1626 C   0  0  0  0  0  0  0  0  0  0  0  0
   -3.1180    2.1339   -0.6480 C   0  0  0  0  0  0  0  0  0  0  0  0
   -3.9630   -1.6448   -0.4006 C   0  0  0  0  0  0  0  0  0  0  0  0
    0.1547   -1.3499    0.6970 C   0  0  0  0  0  0  0  0  0  0  0  0
   -0.7581    2.8578   -0.5467 C   0  0  0  0  0  0  0  0  0  0  0  0
    1.5156   -1.3653    0.1025 C   0  0  0  0  0  0  0  0  0  0  0  0
   -5.4607   -1.7202   -0.5114 C   0  0  0  0  0  0  0  0  0  0  0  0
    2.5942   -1.3862    0.9959 C   0  0  0  0  0  0  0  0  0  0  0  0
    2.3102   -1.3767    2.4686 C   0  0  0  0  0  0  0  0  0  0  0  0
    1.0304   -2.1570    2.7389 C   0  0  0  0  0  0  0  0  0  0  0  0
    0.5574    2.7713    0.0970 C   0  0  0  0  0  0  0  0  0  0  0  0
    1.7379   -1.3457   -1.2756 C   0  0  0  0  0  0  0  0  0  0  0  0
    3.9009   -1.3608    0.5008 C   0  0  0  0  0  0  0  0  0  0  0  0
    3.0462   -1.3364   -1.7609 C   0  0  0  0  0  0  0  0  0  0  0  0
    4.1248   -1.3410   -0.8759 C   0  0  0  0  0  0  0  0  0  0  0  0
    0.9011    3.0529    1.4009 C   0  0  0  0  0  0  0  0  0  0  0  0
    2.2894    2.8452    1.6449 C   0  0  0  0  0  0  0  0  0  0  0  0
    2.9538    2.4126    0.5184 C   0  0  0  0  0  0  0  0  0  0  0  0
    5.5558   -1.3018   -2.7750 C   0  0  0  0  0  0  0  0  0  0  0  0
   -2.2192   -0.8470    1.6417 H   0  0  0  0  0  0  0  0  0  0  0  0
   -4.1907    0.0890    0.8423 H   0  0  0  0  0  0  0  0  0  0  0  0
   -4.5996    0.8237   -1.4837 H   0  0  0  0  0  0  0  0  0  0  0  0
   -2.9461    0.4114   -1.9253 H   0  0  0  0  0  0  0  0  0  0  0  0
   -2.3607    1.5327    1.8833 H   0  0  0  0  0  0  0  0  0  0  0  0
   -0.6874    1.1365    1.5443 H   0  0  0  0  0  0  0  0  0  0  0  0
   -0.6919   -0.2301   -0.9492 H   0  0  0  0  0  0  0  0  0  0  0  0
   -1.3734   -1.8313   -0.6469 H   0  0  0  0  0  0  0  0  0  0  0  0
   -3.1184    2.8166   -1.5037 H   0  0  0  0  0  0  0  0  0  0  0  0
   -3.8082    2.5449    0.0983 H   0  0  0  0  0  0  0  0  0  0  0  0
   -3.6591   -2.4010    0.3330 H   0  0  0  0  0  0  0  0  0  0  0  0
   -3.5331   -1.9000   -1.3755 H   0  0  0  0  0  0  0  0  0  0  0  0
    2.2023   -0.3372    2.8002 H   0  0  0  0  0  0  0  0  0  0  0  0
    3.1363   -1.8285    3.0291 H   0  0  0  0  0  0  0  0  0  0  0  0
    0.7620   -2.0505    3.7957 H   0  0  0  0  0  0  0  0  0  0  0  0
    1.1773   -3.2283    2.5528 H   0  0  0  0  0  0  0  0  0  0  0  0
    0.9201   -1.3521   -1.9892 H   0  0  0  0  0  0  0  0  0  0  0  0
    4.7450   -1.3571    1.1858 H   0  0  0  0  0  0  0  0  0  0  0  0
   -6.8012   -3.0475   -1.0019 H   0  0  0  0  0  0  0  0  0  0  0  0
    3.1526   -1.3246   -2.8404 H   0  0  0  0  0  0  0  0  0  0  0  0
    0.1981    3.3999    2.1478 H   0  0  0  0  0  0  0  0  0  0  0  0
    2.7762    3.0053    2.5981 H   0  0  0  0  0  0  0  0  0  0  0  0
    4.0045    2.1789    0.4209 H   0  0  0  0  0  0  0  0  0  0  0  0
    5.1529   -2.2084   -3.2390 H   0  0  0  0  0  0  0  0  0  0  0  0
    5.1363   -0.3893   -3.2123 H   0  0  0  0  0  0  0  0  0  0  0  0
    6.6313   -1.2889   -2.9803 H   0  0  0  0  0  0  0  0  0  0  0  0
  1 22  1  0  0  0  0
  1 29  1  0  0  0  0
  2 16  2  0  0  0  0
  3 18  1  0  0  0  0
  3 49  1  0  0  0  0
  4 18  2  0  0  0  0
  5 26  1  0  0  0  0
  5 30  1  0  0  0  0
  6 11  1  0  0  0  0
  6 13  1  0  0  0  0
  6 16  1  0  0  0  0
  7 15  2  0  0  0  0
  7 21  1  0  0  0  0
  8  9  1  0  0  0  0
  8 11  1  0  0  0  0
  8 12  1  0  0  0  0
  8 31  1  0  0  0  0
  9 10  1  0  0  0  0
  9 14  1  0  0  0  0
  9 32  1  0  0  0  0
 10 13  1  0  0  0  0
 10 33  1  0  0  0  0
 10 34  1  0  0  0  0
 11 35  1  0  0  0  0
 11 36  1  0  0  0  0
 12 15  1  0  0  0  0
 12 37  1  0  0  0  0
 12 38  1  0  0  0  0
 13 39  1  0  0  0  0
 13 40  1  0  0  0  0
 14 18  1  0  0  0  0
 14 41  1  0  0  0  0
 14 42  1  0  0  0  0
 15 17  1  0  0  0  0
 16 22  1  0  0  0  0
 17 19  2  0  0  0  0
 17 23  1  0  0  0  0
 19 20  1  0  0  0  0
 19 24  1  0  0  0  0
 20 21  1  0  0  0  0
 20 43  1  0  0  0  0
 20 44  1  0  0  0  0
 21 45  1  0  0  0  0
 21 46  1  0  0  0  0
 22 27  2  0  0  0  0
 23 25  2  0  0  0  0
 23 47  1  0  0  0  0
 24 26  2  0  0  0  0
 24 48  1  0  0  0  0
 25 26  1  0  0  0  0
 25 50  1  0  0  0  0
 27 28  1  0  0  0  0
 27 51  1  0  0  0  0
 28 29  2  0  0  0  0
 28 52  1  0  0  0  0
 29 53  1  0  0  0  0
 30 54  1  0  0  0  0
 30 55  1  0  0  0  0
 30 56  1  0  0  0  0
M  END
> <PUBCHEM_COMPOUND_CID>
51136665

> <PUBCHEM_CONFORMER_RMSD>
1

> <PUBCHEM_CONFORMER_DIVERSEORDER>
1
69
63
114
28
86
92
15
105
10
5
116
126
115
64
127
91
96
117
109
107
46
88
113
17
101
73
128
47
106
76
129
39
41
102
125
103
84
68
29
123
35
89
98
99
44
67
112
93
2
119
120
121
108
7
118
97
18
60
49
42
48
70
82
87
30
6
71
90
54
83
59
100
50
12
104
110
81
94
62
9
45
23
38
122
77
53
31
58
95
85
20
80
4
66
75
61
26
52
25
111
24
78
74
55
40
34
79
57
22
56
13
37
33
124
19
27
3
11
36
21
51
72
8
14
16
32
65
43

> <PUBCHEM_MMFF94_PARTIAL_CHARGES>
34
1 -0.08
11 0.3
12 0.06
13 0.3
14 0.06
15 0.3
16 0.71
17 0.09
18 0.66
19 -0.14
2 -0.57
20 0.14
21 0.25
22 -0.05
23 -0.15
24 -0.15
25 -0.15
26 0.08
27 -0.15
28 -0.15
29 -0.11
3 -0.65
30 0.28
4 -0.57
47 0.15
48 0.15
49 0.5
5 -0.36
50 0.15
51 0.15
52 0.15
53 0.15
6 -0.66
7 -0.7

> <PUBCHEM_EFFECTIVE_ROTOR_COUNT>
8.6

> <PUBCHEM_PHARMACOPHORE_FEATURES>
10
1 2 acceptor
1 3 acceptor
1 4 acceptor
1 5 acceptor
1 7 acceptor
3 3 4 18 anion
5 1 22 27 28 29 rings
6 17 19 23 24 25 26 rings
6 6 8 9 10 11 13 rings
6 7 15 17 19 20 21 rings

> <PUBCHEM_HEAVY_ATOM_COUNT>
30

> <PUBCHEM_ATOM_DEF_STEREO_COUNT>
2

> <PUBCHEM_ATOM_UDEF_STEREO_COUNT>
0

> <PUBCHEM_BOND_DEF_STEREO_COUNT>
0

> <PUBCHEM_BOND_UDEF_STEREO_COUNT>
0

> <PUBCHEM_ISOTOPIC_ATOM_COUNT>
0

> <PUBCHEM_COMPONENT_COUNT>
1

> <PUBCHEM_CACTVS_TAUTO_COUNT>
1

> <PUBCHEM_CONFORMER_ID>
030C489900000001

> <PUBCHEM_MMFF94_ENERGY>
83.2152

> <PUBCHEM_FEATURE_SELFOVERLAP>
50.831

> <PUBCHEM_SHAPE_FINGERPRINT>
10032420 55 18041274379037547821
10369192 42 17200483472886289864
11578080 2 17388222746608499421
11607047 141 17631470006672616667
11640471 11 17319309601254562816
12156800 1 13773225189686706584
12166972 35 17241311479083558442
12422481 6 17982131751680019120
12596599 1 18201158728535261209
12788726 201 18045783390709151497
13140716 1 18337375051480266465
133893 2 18193296271610011857
14251740 57 18130221683297060879
14787075 74 18335432235929518980
14790565 3 17474950922396436529
14931854 50 18113627759258042998
15721738 202 17846786233961055619
16112460 7 18125171678579835331
17138139 8 18187932742336322654
17492 54 17895208679346891508
17909252 39 18201449094447565934
19319366 153 17317047931875109313
20028762 73 16754091862426343347
20600515 1 17910086050527872448
20642791 35 18409162178653290057
20691752 17 17821447954255640417
20775438 99 17981873448137103959
20905425 154 18337376201951265960
21033648 29 11531063879725069262
21197605 99 17762049243999896355
22182313 1 18190158214180124077
22393880 68 18334850589561634005
23559900 14 18201716237366628279
46194498 28 18202565111661157606
463206 1 18122334950852111827
513532 50 18267578190296914738
59755656 215 18266735981385518324
6287921 2 17703212031597311066
6823239 73 18272081665264855560
70251023 43 18412549807910997051

> <PUBCHEM_SHAPE_MULTIPOLES>
587.8
10.23
4.18
2.17
7.89
3.59
-0.49
-8.65
6.22
0.18
-0.18
-2.79
-0.95
0.85

> <PUBCHEM_SHAPE_SELFOVERLAP>
1249.254

> <PUBCHEM_SHAPE_VOLUME>
328.7

> <PUBCHEM_COORDINATE_TYPE>
2
5
10

$$$$
