28959871
  -OEChem-12032416133D

 67 69  0     1  0  0  0  0  0999 V2000
    0.2381    3.2814   -0.6807 O   0  0  0  0  0  0  0  0  0  0  0  0
   -7.2380   -0.2352   -1.2969 O   0  0  0  0  0  0  0  0  0  0  0  0
   -6.7083    1.8376   -0.5198 O   0  0  0  0  0  0  0  0  0  0  0  0
    2.8101   -6.0343    0.7074 O   0  0  0  0  0  0  0  0  0  0  0  0
    6.1099    3.1888   -0.4780 O   0  0  0  0  0  0  0  0  0  0  0  0
   -1.4982    2.2758    0.4903 N   0  0  0  0  0  0  0  0  0  0  0  0
   -0.8264   -2.7512    0.3252 N   0  0  0  0  0  0  0  0  0  0  0  0
    1.3862   -4.4746   -0.2596 N   0  0  0  0  0  0  0  0  0  0  0  0
   -2.9606    0.3283    0.9823 C   0  0  2  0  0  0  0  0  0  0  0  0
   -4.0909    1.0215    0.1794 C   0  0  1  0  0  0  0  0  0  0  0  0
   -1.9963    1.3869    1.5477 C   0  0  0  0  0  0  0  0  0  0  0  0
   -3.5248    1.9803   -0.8817 C   0  0  0  0  0  0  0  0  0  0  0  0
   -2.1847   -0.7260    0.1829 C   0  0  0  0  0  0  0  0  0  0  0  0
   -2.5402    2.9707   -0.2653 C   0  0  0  0  0  0  0  0  0  0  0  0
   -5.0702    0.0338   -0.4544 C   0  0  0  0  0  0  0  0  0  0  0  0
   -1.5743   -1.7685    1.1085 C   0  0  0  0  0  0  0  0  0  0  0  0
   -0.6090   -3.9772    1.1069 C   0  0  0  0  0  0  0  0  0  0  0  0
    0.4579   -2.1891   -0.1178 C   0  0  0  0  0  0  0  0  0  0  0  0
   -0.1550    2.5085    0.1968 C   0  0  0  0  0  0  0  0  0  0  0  0
    0.1418   -5.0203    0.2801 C   0  0  0  0  0  0  0  0  0  0  0  0
    1.2349   -3.1985   -0.9649 C   0  0  0  0  0  0  0  0  0  0  0  0
   -6.3992    0.6765   -0.7409 C   0  0  0  0  0  0  0  0  0  0  0  0
    0.8575    1.7517    1.0189 C   0  0  0  0  0  0  0  0  0  0  0  0
    2.5615   -5.2208   -0.1861 C   0  0  0  0  0  0  0  0  0  0  0  0
    2.2498    2.1320    0.6221 C   0  0  0  0  0  0  0  0  0  0  0  0
    3.5745   -4.9927   -1.2796 C   0  0  0  0  0  0  0  0  0  0  0  0
    2.9059    1.4256   -0.3859 C   0  0  0  0  0  0  0  0  0  0  0  0
    2.8910    3.1937    1.2604 C   0  0  0  0  0  0  0  0  0  0  0  0
    4.2032    1.7804   -0.7553 C   0  0  0  0  0  0  0  0  0  0  0  0
    4.1883    3.5485    0.8911 C   0  0  0  0  0  0  0  0  0  0  0  0
    4.8444    2.8419   -0.1168 C   0  0  0  0  0  0  0  0  0  0  0  0
    6.7211    2.4245   -1.5165 C   0  0  0  0  0  0  0  0  0  0  0  0
   -3.4408   -0.1713    1.8352 H   0  0  0  0  0  0  0  0  0  0  0  0
   -4.6424    1.6363    0.9061 H   0  0  0  0  0  0  0  0  0  0  0  0
   -2.5289    2.0243    2.2650 H   0  0  0  0  0  0  0  0  0  0  0  0
   -1.1865    0.9147    2.1044 H   0  0  0  0  0  0  0  0  0  0  0  0
   -4.3271    2.5392   -1.3752 H   0  0  0  0  0  0  0  0  0  0  0  0
   -3.0117    1.4052   -1.6630 H   0  0  0  0  0  0  0  0  0  0  0  0
   -1.4369   -0.2342   -0.4454 H   0  0  0  0  0  0  0  0  0  0  0  0
   -2.8497   -1.2568   -0.5067 H   0  0  0  0  0  0  0  0  0  0  0  0
   -2.1025    3.5926   -1.0526 H   0  0  0  0  0  0  0  0  0  0  0  0
   -3.0572    3.6418    0.4308 H   0  0  0  0  0  0  0  0  0  0  0  0
   -4.6771   -0.3659   -1.3955 H   0  0  0  0  0  0  0  0  0  0  0  0
   -5.2588   -0.7963    0.2368 H   0  0  0  0  0  0  0  0  0  0  0  0
   -2.4000   -2.2676    1.6329 H   0  0  0  0  0  0  0  0  0  0  0  0
   -0.9417   -1.3148    1.8804 H   0  0  0  0  0  0  0  0  0  0  0  0
   -1.5708   -4.4086    1.4090 H   0  0  0  0  0  0  0  0  0  0  0  0
   -0.0432   -3.7553    2.0216 H   0  0  0  0  0  0  0  0  0  0  0  0
    1.0694   -1.8991    0.7474 H   0  0  0  0  0  0  0  0  0  0  0  0
    0.3193   -1.2967   -0.7347 H   0  0  0  0  0  0  0  0  0  0  0  0
    0.3457   -5.9087    0.8870 H   0  0  0  0  0  0  0  0  0  0  0  0
   -0.4660   -5.3432   -0.5743 H   0  0  0  0  0  0  0  0  0  0  0  0
    0.7094   -3.4047   -1.9051 H   0  0  0  0  0  0  0  0  0  0  0  0
    2.2174   -2.7860   -1.2127 H   0  0  0  0  0  0  0  0  0  0  0  0
    0.7114    0.6755    0.8828 H   0  0  0  0  0  0  0  0  0  0  0  0
    0.7099    1.9778    2.0814 H   0  0  0  0  0  0  0  0  0  0  0  0
   -8.1169    0.1515   -1.4977 H   0  0  0  0  0  0  0  0  0  0  0  0
    3.0798   -4.8378   -2.2422 H   0  0  0  0  0  0  0  0  0  0  0  0
    4.2190   -5.8724   -1.3675 H   0  0  0  0  0  0  0  0  0  0  0  0
    4.1892   -4.1233   -1.0328 H   0  0  0  0  0  0  0  0  0  0  0  0
    2.4155    0.5975   -0.8911 H   0  0  0  0  0  0  0  0  0  0  0  0
    2.3899    3.7535    2.0457 H   0  0  0  0  0  0  0  0  0  0  0  0
    4.6536    1.1897   -1.5456 H   0  0  0  0  0  0  0  0  0  0  0  0
    4.6825    4.3767    1.3916 H   0  0  0  0  0  0  0  0  0  0  0  0
    7.7230    2.8370   -1.6745 H   0  0  0  0  0  0  0  0  0  0  0  0
    6.1802    2.5272   -2.4634 H   0  0  0  0  0  0  0  0  0  0  0  0
    6.8494    1.3771   -1.2231 H   0  0  0  0  0  0  0  0  0  0  0  0
  1 19  2  0  0  0  0
  2 22  1  0  0  0  0
  2 57  1  0  0  0  0
  3 22  2  0  0  0  0
  4 24  2  0  0  0  0
  5 31  1  0  0  0  0
  5 32  1  0  0  0  0
  6 11  1  0  0  0  0
  6 14  1  0  0  0  0
  6 19  1  0  0  0  0
  7 16  1  0  0  0  0
  7 17  1  0  0  0  0
  7 18  1  0  0  0  0
  8 20  1  0  0  0  0
  8 21  1  0  0  0  0
  8 24  1  0  0  0  0
  9 10  1  0  0  0  0
  9 11  1  0  0  0  0
  9 13  1  0  0  0  0
  9 33  1  0  0  0  0
 10 12  1  0  0  0  0
 10 15  1  0  0  0  0
 10 34  1  0  0  0  0
 11 35  1  0  0  0  0
 11 36  1  0  0  0  0
 12 14  1  0  0  0  0
 12 37  1  0  0  0  0
 12 38  1  0  0  0  0
 13 16  1  0  0  0  0
 13 39  1  0  0  0  0
 13 40  1  0  0  0  0
 14 41  1  0  0  0  0
 14 42  1  0  0  0  0
 15 22  1  0  0  0  0
 15 43  1  0  0  0  0
 15 44  1  0  0  0  0
 16 45  1  0  0  0  0
 16 46  1  0  0  0  0
 17 20  1  0  0  0  0
 17 47  1  0  0  0  0
 17 48  1  0  0  0  0
 18 21  1  0  0  0  0
 18 49  1  0  0  0  0
 18 50  1  0  0  0  0
 19 23  1  0  0  0  0
 20 51  1  0  0  0  0
 20 52  1  0  0  0  0
 21 53  1  0  0  0  0
 21 54  1  0  0  0  0
 23 25  1  0  0  0  0
 23 55  1  0  0  0  0
 23 56  1  0  0  0  0
 24 26  1  0  0  0  0
 25 27  2  0  0  0  0
 25 28  1  0  0  0  0
 26 58  1  0  0  0  0
 26 59  1  0  0  0  0
 26 60  1  0  0  0  0
 27 29  1  0  0  0  0
 27 61  1  0  0  0  0
 28 30  2  0  0  0  0
 28 62  1  0  0  0  0
 29 31  2  0  0  0  0
 29 63  1  0  0  0  0
 30 31  1  0  0  0  0
 30 64  1  0  0  0  0
 32 65  1  0  0  0  0
 32 66  1  0  0  0  0
 32 67  1  0  0  0  0
M  END
> <PUBCHEM_COMPOUND_CID>
28959871

> <PUBCHEM_CONFORMER_RMSD>
1.2

> <PUBCHEM_CONFORMER_DIVERSEORDER>
1
41
68
14
58
99
10
63
91
15
27
98
40
112
21
75
19
54
88
82
103
51
77
36
108
105
79
4
87
95
50
43
56
78
22
106
66
113
33
30
39
97
46
117
13
65
96
71
115
101
61
48
45
110
93
53
47
80
114
44
18
42
76
94
57
69
23
85
37
84
5
116
59
104
55
3
107
62
100
49
111
38
52
109
72
89
8
86
81
34
92
26
12
17
11
24
60
7
16
28
70
20
83
32
74
90
67
64
102
6
9
31
29
25
35
73
2

> <PUBCHEM_MMFF94_PARTIAL_CHARGES>
33
1 -0.57
11 0.3
14 0.3
15 0.06
16 0.27
17 0.27
18 0.27
19 0.57
2 -0.65
20 0.3
21 0.3
22 0.66
23 0.2
24 0.57
25 -0.14
26 0.06
27 -0.15
28 -0.15
29 -0.15
3 -0.57
30 -0.15
31 0.08
32 0.28
4 -0.57
5 -0.36
57 0.5
6 -0.66
61 0.15
62 0.15
63 0.15
64 0.15
7 -0.81
8 -0.66

> <PUBCHEM_EFFECTIVE_ROTOR_COUNT>
12.4

> <PUBCHEM_PHARMACOPHORE_FEATURES>
10
1 1 acceptor
1 2 acceptor
1 3 acceptor
1 4 acceptor
1 5 acceptor
1 7 cation
3 2 3 22 anion
6 25 27 28 29 30 31 rings
6 6 9 10 11 12 14 rings
6 7 8 17 18 20 21 rings

> <PUBCHEM_HEAVY_ATOM_COUNT>
32

> <PUBCHEM_ATOM_DEF_STEREO_COUNT>
2

> <PUBCHEM_ATOM_UDEF_STEREO_COUNT>
0

> <PUBCHEM_BOND_DEF_STEREO_COUNT>
0

> <PUBCHEM_BOND_UDEF_STEREO_COUNT>
0

> <PUBCHEM_ISOTOPIC_ATOM_COUNT>
0

> <PUBCHEM_COMPONENT_COUNT>
1

> <PUBCHEM_CACTVS_TAUTO_COUNT>
1

> <PUBCHEM_CONFORMER_ID>
01B9E47F00000001

> <PUBCHEM_MMFF94_ENERGY>
79.6305

> <PUBCHEM_FEATURE_SELFOVERLAP>
50.805

> <PUBCHEM_SHAPE_FINGERPRINT>
10050765 1 18267581300935437981
10290309 65 18266192797225255258
10940486 97 17829053456885193996
11135609 187 18411417324093992481
11285246 1 17336719671959070831
11488393 25 18338239254544503115
11763389 116 18266186213109202635
12660671 118 17969764316310917970
14363568 33 18050029721653021842
14394314 77 16897654485352204688
14444916 359 18267608937915240800
15320294 125 18115846617437127592
15439362 3 18337108956966091385
15773216 30 18410851045788713119
15927050 60 18342171224353778047
15961568 22 17906445529486185938
16090146 7 18268165312416890969
16719943 64 18339080527047701930
17627616 140 18410858741852876486
20642791 239 17398666806030011913
21133410 230 17973469855396953043
21344244 246 18411696587304496183
23559900 14 18051114918761019545
3103668 31 17832984223902691719
3383291 50 17979348986777166251
340366 18 17898570036675563373
4017518 198 18338800134302523532
4394409 98 18189059844380939109
45266715 3 18341617039752965702
5085150 59 18339632451719887016
5265222 85 18265054824113063765
56633871 153 16972817680380119978
6669772 16 18412829100748688415
6898599 12 17830179360849737316

> <PUBCHEM_SHAPE_MULTIPOLES>
614.26
13.19
9.04
1.25
6.83
18.19
0.04
-14.2
-6.48
-12.24
0.23
-0.16
-0.13
1

> <PUBCHEM_SHAPE_SELFOVERLAP>
1267.4

> <PUBCHEM_SHAPE_VOLUME>
349.1

> <PUBCHEM_COORDINATE_TYPE>
2
5
10

$$$$
