11887495
  -OEChem-12032416413D

 64 69  0     1  0  0  0  0  0999 V2000
   -0.1862    3.2868    1.0746 O   0  0  0  0  0  0  0  0  0  0  0  0
   -3.5147   -0.2512    2.8548 O   0  0  0  0  0  0  0  0  0  0  0  0
    2.3083   -0.0284   -1.4292 O   0  0  0  0  0  0  0  0  0  0  0  0
    4.8935    0.4343   -0.8452 O   0  0  0  0  0  0  0  0  0  0  0  0
   -4.3030    0.4837    0.7780 N   0  0  0  0  0  0  0  0  0  0  0  0
   -2.0113    2.4761   -0.1383 N   0  0  0  0  0  0  0  0  0  0  0  0
    1.6415    2.0215   -0.5409 N   0  0  0  0  0  0  0  0  0  0  0  0
   -4.4383    2.9559    0.5263 C   0  0  1  0  0  0  0  0  0  0  0  0
   -3.9611    1.5509   -1.4382 C   0  0  2  0  0  0  0  0  0  0  0  0
   -4.7307    2.7812   -0.9600 C   0  0  0  0  0  0  0  0  0  0  0  0
   -4.8904    1.7119    1.3124 C   0  0  0  0  0  0  0  0  0  0  0  0
   -2.9417    3.2397    0.7054 C   0  0  0  0  0  0  0  0  0  0  0  0
   -4.4536    0.3048   -0.6753 C   0  0  0  0  0  0  0  0  0  0  0  0
   -2.4691    1.7240   -1.2251 C   0  0  0  0  0  0  0  0  0  0  0  0
   -1.5937    1.1282   -2.0521 C   0  0  0  0  0  0  0  0  0  0  0  0
   -0.6375    2.6221    0.1407 C   0  0  0  0  0  0  0  0  0  0  0  0
   -3.6437   -0.3953    1.6403 C   0  0  0  0  0  0  0  0  0  0  0  0
    0.3042    1.9199   -0.7880 C   0  0  0  0  0  0  0  0  0  0  0  0
   -0.1796    1.2291   -1.8256 C   0  0  0  0  0  0  0  0  0  0  0  0
   -3.0277   -1.5935    1.0609 C   0  0  0  0  0  0  0  0  0  0  0  0
   -1.7066   -1.5501    0.6221 C   0  0  0  0  0  0  0  0  0  0  0  0
   -3.7653   -2.7660    0.9536 C   0  0  0  0  0  0  0  0  0  0  0  0
   -1.1023   -2.6889    0.0653 C   0  0  0  0  0  0  0  0  0  0  0  0
    2.5628    1.0393   -0.8775 C   0  0  0  0  0  0  0  0  0  0  0  0
   -3.1808   -3.9070    0.4034 C   0  0  0  0  0  0  0  0  0  0  0  0
   -1.8502   -3.8852   -0.0456 C   0  0  0  0  0  0  0  0  0  0  0  0
    0.2284   -2.6669   -0.3832 C   0  0  0  0  0  0  0  0  0  0  0  0
    3.9689    1.4361   -0.4779 C   0  0  0  0  0  0  0  0  0  0  0  0
   -1.2459   -5.0241   -0.6024 C   0  0  0  0  0  0  0  0  0  0  0  0
    0.8130   -3.8078   -0.9339 C   0  0  0  0  0  0  0  0  0  0  0  0
    0.0772   -4.9840   -1.0434 C   0  0  0  0  0  0  0  0  0  0  0  0
    6.0296    0.3178   -0.0796 C   0  0  0  0  0  0  0  0  0  0  0  0
    6.5511    1.4420    0.5456 C   0  0  0  0  0  0  0  0  0  0  0  0
    6.6379   -0.9223    0.0564 C   0  0  0  0  0  0  0  0  0  0  0  0
    7.7035    1.3237    1.3223 C   0  0  0  0  0  0  0  0  0  0  0  0
    7.7905   -1.0406    0.8332 C   0  0  0  0  0  0  0  0  0  0  0  0
    8.3233    0.0824    1.4662 C   0  0  0  0  0  0  0  0  0  0  0  0
   -5.0008    3.8146    0.9132 H   0  0  0  0  0  0  0  0  0  0  0  0
   -4.1702    1.4094   -2.5065 H   0  0  0  0  0  0  0  0  0  0  0  0
   -5.8069    2.6485   -1.1254 H   0  0  0  0  0  0  0  0  0  0  0  0
   -4.4266    3.6735   -1.5215 H   0  0  0  0  0  0  0  0  0  0  0  0
   -4.6491    1.8269    2.3745 H   0  0  0  0  0  0  0  0  0  0  0  0
   -5.9792    1.6004    1.2396 H   0  0  0  0  0  0  0  0  0  0  0  0
   -2.7543    4.2960    0.4686 H   0  0  0  0  0  0  0  0  0  0  0  0
   -2.6491    3.1100    1.7550 H   0  0  0  0  0  0  0  0  0  0  0  0
   -3.9343   -0.5883   -1.0312 H   0  0  0  0  0  0  0  0  0  0  0  0
   -5.5224    0.1464   -0.8651 H   0  0  0  0  0  0  0  0  0  0  0  0
   -1.9249    0.5305   -2.8949 H   0  0  0  0  0  0  0  0  0  0  0  0
    0.4389    0.7403   -2.5687 H   0  0  0  0  0  0  0  0  0  0  0  0
    1.9332    2.7470    0.1096 H   0  0  0  0  0  0  0  0  0  0  0  0
   -1.1383   -0.6277    0.7227 H   0  0  0  0  0  0  0  0  0  0  0  0
   -4.7968   -2.8064    1.2938 H   0  0  0  0  0  0  0  0  0  0  0  0
   -3.7749   -4.8155    0.3277 H   0  0  0  0  0  0  0  0  0  0  0  0
    0.8221   -1.7624   -0.2938 H   0  0  0  0  0  0  0  0  0  0  0  0
    4.2216    2.3732   -0.9873 H   0  0  0  0  0  0  0  0  0  0  0  0
    3.9457    1.5928    0.6090 H   0  0  0  0  0  0  0  0  0  0  0  0
   -1.8019   -5.9544   -0.6975 H   0  0  0  0  0  0  0  0  0  0  0  0
    1.8439   -3.7777   -1.2744 H   0  0  0  0  0  0  0  0  0  0  0  0
    0.5332   -5.8719   -1.4716 H   0  0  0  0  0  0  0  0  0  0  0  0
    6.1138    2.4295    0.4365 H   0  0  0  0  0  0  0  0  0  0  0  0
    6.2254   -1.7986   -0.4350 H   0  0  0  0  0  0  0  0  0  0  0  0
    8.1224    2.1989    1.8103 H   0  0  0  0  0  0  0  0  0  0  0  0
    8.2732   -2.0070    0.9449 H   0  0  0  0  0  0  0  0  0  0  0  0
    9.2215   -0.0095    2.0698 H   0  0  0  0  0  0  0  0  0  0  0  0
  1 16  2  0  0  0  0
  2 17  2  0  0  0  0
  3 24  2  0  0  0  0
  4 28  1  0  0  0  0
  4 32  1  0  0  0  0
  5 11  1  0  0  0  0
  5 13  1  0  0  0  0
  5 17  1  0  0  0  0
  6 12  1  0  0  0  0
  6 14  1  0  0  0  0
  6 16  1  0  0  0  0
  7 18  1  0  0  0  0
  7 24  1  0  0  0  0
  7 50  1  0  0  0  0
  8 10  1  0  0  0  0
  8 11  1  0  0  0  0
  8 12  1  0  0  0  0
  8 38  1  0  0  0  0
  9 10  1  0  0  0  0
  9 13  1  0  0  0  0
  9 14  1  0  0  0  0
  9 39  1  0  0  0  0
 10 40  1  0  0  0  0
 10 41  1  0  0  0  0
 11 42  1  0  0  0  0
 11 43  1  0  0  0  0
 12 44  1  0  0  0  0
 12 45  1  0  0  0  0
 13 46  1  0  0  0  0
 13 47  1  0  0  0  0
 14 15  2  0  0  0  0
 15 19  1  0  0  0  0
 15 48  1  0  0  0  0
 16 18  1  0  0  0  0
 17 20  1  0  0  0  0
 18 19  2  0  0  0  0
 19 49  1  0  0  0  0
 20 21  2  0  0  0  0
 20 22  1  0  0  0  0
 21 23  1  0  0  0  0
 21 51  1  0  0  0  0
 22 25  2  0  0  0  0
 22 52  1  0  0  0  0
 23 26  1  0  0  0  0
 23 27  2  0  0  0  0
 24 28  1  0  0  0  0
 25 26  1  0  0  0  0
 25 53  1  0  0  0  0
 26 29  2  0  0  0  0
 27 30  1  0  0  0  0
 27 54  1  0  0  0  0
 28 55  1  0  0  0  0
 28 56  1  0  0  0  0
 29 31  1  0  0  0  0
 29 57  1  0  0  0  0
 30 31  2  0  0  0  0
 30 58  1  0  0  0  0
 31 59  1  0  0  0  0
 32 33  2  0  0  0  0
 32 34  1  0  0  0  0
 33 35  1  0  0  0  0
 33 60  1  0  0  0  0
 34 36  2  0  0  0  0
 34 61  1  0  0  0  0
 35 37  2  0  0  0  0
 35 62  1  0  0  0  0
 36 37  1  0  0  0  0
 36 63  1  0  0  0  0
 37 64  1  0  0  0  0
M  END
> <PUBCHEM_COMPOUND_CID>
11887495

> <PUBCHEM_CONFORMER_RMSD>
1

> <PUBCHEM_CONFORMER_DIVERSEORDER>
1
45
91
135
143
92
112
93
56
44
68
123
10
66
102
17
95
4
61
142
50
81
25
19
121
106
103
82
84
136
87
144
20
134
55
118
108
71
35
59
53
114
38
117
131
129
88
145
78
70
16
58
137
126
36
67
52
100
119
49
110
89
69
111
132
11
26
46
86
42
124
125
104
48
43
34
127
40
24
80
54
141
37
72
122
130
115
133
31
30
128
33
65
60
28
57
90
120
113
99
8
77
3
146
75
21
101
39
22
23
96
27
63
83
15
2
109
85
18
139
98
107
29
138
97
13
5
105
41
116
94
14
47
140
51
73
32
74
64
6
12
76
7
9
62
79

> <PUBCHEM_MMFF94_PARTIAL_CHARGES>
48
1 -0.57
11 0.3
12 0.3
13 0.3
14 -0.03
15 -0.15
16 0.62
17 0.54
18 0.12
19 -0.15
2 -0.57
20 0.09
21 -0.15
22 -0.15
24 0.57
25 -0.15
27 -0.15
28 0.34
29 -0.15
3 -0.57
30 -0.15
31 -0.15
32 0.08
33 -0.15
34 -0.15
35 -0.15
36 -0.15
37 -0.15
4 -0.36
48 0.15
49 0.15
5 -0.66
50 0.37
51 0.15
52 0.15
53 0.15
54 0.15
57 0.15
58 0.15
59 0.15
6 -0.47
60 0.15
61 0.15
62 0.15
63 0.15
64 0.15
7 -0.54
9 0.14

> <PUBCHEM_EFFECTIVE_ROTOR_COUNT>
8

> <PUBCHEM_PHARMACOPHORE_FEATURES>
11
1 1 acceptor
1 2 acceptor
1 3 acceptor
1 4 acceptor
1 7 donor
6 20 21 22 23 25 26 rings
6 23 26 27 29 30 31 rings
6 32 33 34 35 36 37 rings
6 5 8 9 10 11 13 rings
6 6 14 15 16 18 19 rings
6 6 8 9 10 12 14 rings

> <PUBCHEM_HEAVY_ATOM_COUNT>
37

> <PUBCHEM_ATOM_DEF_STEREO_COUNT>
2

> <PUBCHEM_ATOM_UDEF_STEREO_COUNT>
0

> <PUBCHEM_BOND_DEF_STEREO_COUNT>
0

> <PUBCHEM_BOND_UDEF_STEREO_COUNT>
0

> <PUBCHEM_ISOTOPIC_ATOM_COUNT>
0

> <PUBCHEM_COMPONENT_COUNT>
1

> <PUBCHEM_CACTVS_TAUTO_COUNT>
2

> <PUBCHEM_CONFORMER_ID>
00B5638700000001

> <PUBCHEM_MMFF94_ENERGY>
117.7953

> <PUBCHEM_FEATURE_SELFOVERLAP>
57.439

> <PUBCHEM_SHAPE_FINGERPRINT>
10483366 6 18266726061114014751
10675989 125 17252012841010487173
10939801 23 18193001650302734916
11112241 14 18201160932169910605
11524674 6 18410007710909297308
12422481 6 18187372008644217350
12655364 131 17984981493179045434
14068700 675 17842835796742947719
14395042 24 18052839215177704771
14725015 67 18192995039989656123
14844126 61 18336546126422071258
14866123 147 18336546113627242703
14904385 31 18340197484938357122
15021287 119 17022623096054145900
15297060 5 18272650099812243817
15320294 125 18113338617659193926
15439362 3 18049720716379249877
15950262 2 15408680669145607435
20764821 26 18337402534612016447
21987440 362 17681266668513002820
229767 44 18409452509573055122
238918 7 18341908376091054678
244849 19 17773898449332377278
3383291 50 18411979187003534103
373842 8 18119242871037371258
3882209 13 17553183811685215934
397830 11 18340198718026948960
4073 2 18412536631837354512
4403749 210 18409160030916746380
484985 159 18262511610862640975
5080951 261 18042381652378323940
5085150 59 18410009922801506663
513202 73 17895193371571914462
57527295 17 17913181215359844693
9961470 85 18340489942194500806

> <PUBCHEM_SHAPE_MULTIPOLES>
723.02
16.54
6.16
1.7
48.38
8.03
-0.26
-6.94
-7.69
-6.83
0.94
-0.99
-0.36
0.92

> <PUBCHEM_SHAPE_SELFOVERLAP>
1606.768

> <PUBCHEM_SHAPE_VOLUME>
378.7

> <PUBCHEM_COORDINATE_TYPE>
2
5
10

$$$$
