26745086
  -OEChem-12032416343D

 52 55  0     1  0  0  0  0  0999 V2000
   -2.4346    1.2936    1.1747 O   0  0  0  0  0  0  0  0  0  0  0  0
    1.1205    1.6040    1.2708 O   0  0  0  0  0  0  0  0  0  0  0  0
   -5.0697   -0.3258    1.5990 O   0  0  0  0  0  0  0  0  0  0  0  0
   -6.1632   -0.3810   -0.3893 O   0  0  0  0  0  0  0  0  0  0  0  0
   -1.1478   -0.3180    0.0892 N   0  0  0  0  0  0  0  0  0  0  0  0
   -0.1725   -3.5324   -1.5340 N   0  0  0  0  0  0  0  0  0  0  0  0
    0.4079   -4.1483    0.5337 N   0  0  0  0  0  0  0  0  0  0  0  0
    2.2318   -0.1789    0.4942 N   0  0  0  0  0  0  0  0  0  0  0  0
    2.4038    2.0582    0.9410 N   0  0  0  0  0  0  0  0  0  0  0  0
    7.0052    0.9080   -0.8652 N   0  0  0  0  0  0  0  0  0  0  0  0
   -4.0854    1.9162   -0.9109 C   0  0  0  0  0  0  0  0  0  0  0  0
   -0.2035   -0.4638    1.2499 C   0  0  1  0  0  0  0  0  0  0  0  0
   -3.0238    0.8092   -1.0681 C   0  0  0  0  0  0  0  0  0  0  0  0
   -0.0787   -1.9520    1.6985 C   0  0  0  0  0  0  0  0  0  0  0  0
   -0.8659   -1.1117   -1.1394 C   0  0  0  0  0  0  0  0  0  0  0  0
   -2.1815    0.6246    0.1697 C   0  0  0  0  0  0  0  0  0  0  0  0
   -0.3763   -2.4449   -0.7382 C   0  0  0  0  0  0  0  0  0  0  0  0
   -0.0103   -2.8476    0.5226 C   0  0  0  0  0  0  0  0  0  0  0  0
   -5.0511    1.6642    0.2718 C   0  0  0  0  0  0  0  0  0  0  0  0
   -4.8719    2.0030   -2.2347 C   0  0  0  0  0  0  0  0  0  0  0  0
   -3.3979    3.2803   -0.6859 C   0  0  0  0  0  0  0  0  0  0  0  0
    1.1039    0.2774    0.9775 C   0  0  0  0  0  0  0  0  0  0  0  0
    0.2990   -4.5333   -0.7221 C   0  0  0  0  0  0  0  0  0  0  0  0
   -5.4913    0.2264    0.4345 C   0  0  0  0  0  0  0  0  0  0  0  0
    2.9987    0.9497    0.4902 C   0  0  0  0  0  0  0  0  0  0  0  0
    4.3574    0.9356    0.0306 C   0  0  0  0  0  0  0  0  0  0  0  0
    4.9272   -0.2474   -0.4268 C   0  0  0  0  0  0  0  0  0  0  0  0
    5.1099    2.1049    0.0406 C   0  0  0  0  0  0  0  0  0  0  0  0
    6.2427   -0.2085   -0.8601 C   0  0  0  0  0  0  0  0  0  0  0  0
    6.4172    2.0386   -0.4136 C   0  0  0  0  0  0  0  0  0  0  0  0
   -0.6444    0.0594    2.1095 H   0  0  0  0  0  0  0  0  0  0  0  0
   -3.5138   -0.1420   -1.3036 H   0  0  0  0  0  0  0  0  0  0  0  0
   -2.3562    1.0581   -1.9028 H   0  0  0  0  0  0  0  0  0  0  0  0
   -0.9717   -2.2250    2.2746 H   0  0  0  0  0  0  0  0  0  0  0  0
    0.7930   -2.0910    2.3470 H   0  0  0  0  0  0  0  0  0  0  0  0
   -0.1007   -0.5705   -1.7061 H   0  0  0  0  0  0  0  0  0  0  0  0
   -1.7532   -1.2123   -1.7660 H   0  0  0  0  0  0  0  0  0  0  0  0
   -5.9650    2.2614    0.1514 H   0  0  0  0  0  0  0  0  0  0  0  0
   -4.6375    2.0094    1.2262 H   0  0  0  0  0  0  0  0  0  0  0  0
   -5.3639    1.0546   -2.4742 H   0  0  0  0  0  0  0  0  0  0  0  0
   -4.2099    2.2505   -3.0727 H   0  0  0  0  0  0  0  0  0  0  0  0
   -5.6468    2.7765   -2.1874 H   0  0  0  0  0  0  0  0  0  0  0  0
   -2.8965    3.3742    0.2802 H   0  0  0  0  0  0  0  0  0  0  0  0
   -2.6531    3.4775   -1.4658 H   0  0  0  0  0  0  0  0  0  0  0  0
   -4.1349    4.0917   -0.7304 H   0  0  0  0  0  0  0  0  0  0  0  0
   -0.3345   -3.5943   -2.5306 H   0  0  0  0  0  0  0  0  0  0  0  0
    0.5421   -5.5128   -1.1088 H   0  0  0  0  0  0  0  0  0  0  0  0
   -5.3635   -1.2573    1.6902 H   0  0  0  0  0  0  0  0  0  0  0  0
    4.3843   -1.1865   -0.4558 H   0  0  0  0  0  0  0  0  0  0  0  0
    4.7192    3.0565    0.3858 H   0  0  0  0  0  0  0  0  0  0  0  0
    6.7338   -1.1040   -1.2265 H   0  0  0  0  0  0  0  0  0  0  0  0
    7.0465    2.9225   -0.4264 H   0  0  0  0  0  0  0  0  0  0  0  0
  1 16  2  0  0  0  0
  2  9  1  0  0  0  0
  2 22  1  0  0  0  0
  3 24  1  0  0  0  0
  3 48  1  0  0  0  0
  4 24  2  0  0  0  0
  5 12  1  0  0  0  0
  5 15  1  0  0  0  0
  5 16  1  0  0  0  0
  6 17  1  0  0  0  0
  6 23  1  0  0  0  0
  6 46  1  0  0  0  0
  7 18  1  0  0  0  0
  7 23  2  0  0  0  0
  8 22  2  0  0  0  0
  8 25  1  0  0  0  0
  9 25  2  0  0  0  0
 10 29  2  0  0  0  0
 10 30  1  0  0  0  0
 11 13  1  0  0  0  0
 11 19  1  0  0  0  0
 11 20  1  0  0  0  0
 11 21  1  0  0  0  0
 12 14  1  0  0  0  0
 12 22  1  0  0  0  0
 12 31  1  0  0  0  0
 13 16  1  0  0  0  0
 13 32  1  0  0  0  0
 13 33  1  0  0  0  0
 14 18  1  0  0  0  0
 14 34  1  0  0  0  0
 14 35  1  0  0  0  0
 15 17  1  0  0  0  0
 15 36  1  0  0  0  0
 15 37  1  0  0  0  0
 17 18  2  0  0  0  0
 19 24  1  0  0  0  0
 19 38  1  0  0  0  0
 19 39  1  0  0  0  0
 20 40  1  0  0  0  0
 20 41  1  0  0  0  0
 20 42  1  0  0  0  0
 21 43  1  0  0  0  0
 21 44  1  0  0  0  0
 21 45  1  0  0  0  0
 23 47  1  0  0  0  0
 25 26  1  0  0  0  0
 26 27  2  0  0  0  0
 26 28  1  0  0  0  0
 27 29  1  0  0  0  0
 27 49  1  0  0  0  0
 28 30  2  0  0  0  0
 28 50  1  0  0  0  0
 29 51  1  0  0  0  0
 30 52  1  0  0  0  0
M  END
> <PUBCHEM_COMPOUND_CID>
26745086

> <PUBCHEM_CONFORMER_RMSD>
1

> <PUBCHEM_CONFORMER_DIVERSEORDER>
1
49
68
26
73
42
24
57
64
14
75
86
60
46
25
63
89
5
71
65
39
55
77
11
62
34
13
84
27
30
36
47
21
50
44
54
37
45
56
52
33
59
69
41
48
85
74
79
20
80
31
83
66
76
81
78
15
35
7
4
58
88
70
43
9
40
6
82
53
17
8
28
23
61
3
12
29
51
87
67
32
19
2
72
16
22
18
38
10

> <PUBCHEM_MMFF94_PARTIAL_CHARGES>
34
1 -0.57
10 -0.62
12 0.48
13 0.06
14 0.18
15 0.48
16 0.57
17 -0.33
18 0.05
19 0.06
2 -0.02
22 0.3
23 0.04
24 0.66
25 0.46
26 0.05
27 -0.15
28 -0.15
29 0.16
3 -0.65
30 0.16
4 -0.57
46 0.27
47 0.15
48 0.5
49 0.15
5 -0.66
50 0.15
51 0.15
52 0.15
6 0.03
7 -0.57
8 -0.57
9 -0.41

> <PUBCHEM_EFFECTIVE_ROTOR_COUNT>
7.8

> <PUBCHEM_PHARMACOPHORE_FEATURES>
13
1 1 acceptor
1 10 acceptor
1 3 acceptor
1 4 acceptor
1 6 donor
3 11 20 21 hydrophobe
3 3 4 24 anion
3 6 7 23 cation
3 8 9 25 cation
5 2 8 9 22 25 rings
5 6 7 17 18 23 rings
6 10 26 27 28 29 30 rings
6 5 12 14 15 17 18 rings

> <PUBCHEM_HEAVY_ATOM_COUNT>
30

> <PUBCHEM_ATOM_DEF_STEREO_COUNT>
1

> <PUBCHEM_ATOM_UDEF_STEREO_COUNT>
0

> <PUBCHEM_BOND_DEF_STEREO_COUNT>
0

> <PUBCHEM_BOND_UDEF_STEREO_COUNT>
0

> <PUBCHEM_ISOTOPIC_ATOM_COUNT>
0

> <PUBCHEM_COMPONENT_COUNT>
1

> <PUBCHEM_CACTVS_TAUTO_COUNT>
2

> <PUBCHEM_CONFORMER_ID>
019818FE00000001

> <PUBCHEM_MMFF94_ENERGY>
67.7098

> <PUBCHEM_FEATURE_SELFOVERLAP>
66.132

> <PUBCHEM_SHAPE_FINGERPRINT>
10165383 225 18342182176351090473
10190206 1 18267009738533202879
10369192 42 18334862714323025461
105312 117 18333732420680027918
107951 10 18412826919317161694
11488393 25 18195816163055778419
11578080 2 17752198384709430349
11796584 16 13254792430127597172
11991303 11 18336549433679219302
12516196 113 8718826483317707201
12760667 363 9439413410191681176
12788726 201 18048579714940360530
13257819 101 17458616762294449237
13257819 37 18409176523284798758
13540713 4 17628915931360829400
13911987 19 18412538812910977989
13944108 23 17832414307164553028
1454969 45 18409722998487354263
14930077 153 17971478647974655228
15183329 4 17917990568722387948
15357212 105 17979653238319654785
15849732 13 18041002877281113756
15927050 60 18413388761011290934
15961568 22 17749106643574243381
17980427 23 13118281435084897495
18608769 82 18338238283602539739
20775438 99 17123065840956478997
21033648 29 18340195371324480192
21344244 246 18129948866827168070
21756936 100 17822004363295370080
23559900 14 17905033756566079515
249057 3 18409735071851491284
25019877 29 18341057392613681543
314173 85 8142090895993728720
3298306 158 18411700954895956378
340366 18 18263370338245144524
3610482 184 17824271608275740732
3729539 64 18199196096612759974
3759504 43 18335701667359151506
4015057 19 16988277694455876120
4058900 60 18336550391340342393
44249763 50 18194960971418159888
44802255 64 18261122906544619774
5265222 85 18338526356076278628
58260988 521 18265073464523862179
59755656 520 18272936050403507887
613672 6 8718550553307676353
6523845 18 18272365404042707249
6669772 16 18271813402014255782

> <PUBCHEM_SHAPE_MULTIPOLES>
564.02
14.43
4.32
1.48
9.82
5.3
0.11
-13.02
3.75
-0.37
1.12
-1.1
0.1
1.06

> <PUBCHEM_SHAPE_SELFOVERLAP>
1222.117

> <PUBCHEM_SHAPE_VOLUME>
306.1

> <PUBCHEM_COORDINATE_TYPE>
2
5
10

$$$$
