26743050
  -OEChem-12032416193D

 61 64  0     1  0  0  0  0  0999 V2000
   -0.8880    2.2778    1.8000 O   0  0  0  0  0  0  0  0  0  0  0  0
    6.1953   -1.1481    1.4236 O   0  0  0  0  0  0  0  0  0  0  0  0
    8.4287   -1.1712   -0.5900 O   0  0  0  0  0  0  0  0  0  0  0  0
    2.8566    2.5456   -1.9650 N   0  0  0  0  0  0  0  0  0  0  0  0
   -2.2732    0.7698    0.7013 N   0  0  0  0  0  0  0  0  0  0  0  0
   -4.8923   -0.3276    0.1387 N   0  0  0  0  0  0  0  0  0  0  0  0
    4.9367   -0.6310    1.7055 N   0  0  0  0  0  0  0  0  0  0  0  0
   -6.3618   -2.1649   -0.0649 N   0  0  0  0  0  0  0  0  0  0  0  0
    1.3633    1.7669    0.4579 C   0  0  1  0  0  0  0  0  0  0  0  0
    2.6882    1.0871    0.0376 C   0  0  2  0  0  0  0  0  0  0  0  0
    1.3111    3.1805   -0.1456 C   0  0  0  0  0  0  0  0  0  0  0  0
    2.9095    1.1652   -1.4823 C   0  0  0  0  0  0  0  0  0  0  0  0
    0.1076    0.9688    0.0871 C   0  0  0  0  0  0  0  0  0  0  0  0
    1.5798    3.1829   -1.6498 C   0  0  0  0  0  0  0  0  0  0  0  0
    2.8002   -0.3587    0.5232 C   0  0  0  0  0  0  0  0  0  0  0  0
   -1.0553    1.4060    0.9438 C   0  0  0  0  0  0  0  0  0  0  0  0
    4.2320   -0.8060    0.5840 C   0  0  0  0  0  0  0  0  0  0  0  0
   -3.4457    1.1339    1.4927 C   0  0  0  0  0  0  0  0  0  0  0  0
   -2.4725   -0.2577   -0.3232 C   0  0  0  0  0  0  0  0  0  0  0  0
   -4.7368    1.0238    0.6846 C   0  0  0  0  0  0  0  0  0  0  0  0
   -3.6885   -1.1419   -0.0461 C   0  0  0  0  0  0  0  0  0  0  0  0
    4.9862   -1.4223   -0.4295 C   0  0  0  0  0  0  0  0  0  0  0  0
   -6.1552   -0.8324   -0.1610 C   0  0  0  0  0  0  0  0  0  0  0  0
    6.2124   -1.6161    0.1495 C   0  0  0  0  0  0  0  0  0  0  0  0
    7.4752   -2.2016   -0.3167 C   0  0  0  0  0  0  0  0  0  0  0  0
   -7.1277    0.0778   -0.5429 C   0  0  0  0  0  0  0  0  0  0  0  0
   -8.3936   -0.4112   -0.8454 C   0  0  0  0  0  0  0  0  0  0  0  0
   -7.6045   -2.6033   -0.3668 C   0  0  0  0  0  0  0  0  0  0  0  0
   -8.6448   -1.7760   -0.7581 C   0  0  0  0  0  0  0  0  0  0  0  0
    9.6571   -1.7162   -1.0421 C   0  0  0  0  0  0  0  0  0  0  0  0
    1.4128    1.8712    1.5508 H   0  0  0  0  0  0  0  0  0  0  0  0
    3.4938    1.6706    0.5108 H   0  0  0  0  0  0  0  0  0  0  0  0
    2.0704    3.8013    0.3494 H   0  0  0  0  0  0  0  0  0  0  0  0
    0.3491    3.6666    0.0491 H   0  0  0  0  0  0  0  0  0  0  0  0
    3.8956    0.7722   -1.7460 H   0  0  0  0  0  0  0  0  0  0  0  0
    2.1708    0.5549   -2.0165 H   0  0  0  0  0  0  0  0  0  0  0  0
   -0.1498    1.0695   -0.9707 H   0  0  0  0  0  0  0  0  0  0  0  0
    0.2627   -0.0918    0.3020 H   0  0  0  0  0  0  0  0  0  0  0  0
    0.7661    2.6969   -2.1991 H   0  0  0  0  0  0  0  0  0  0  0  0
    1.6146    4.2208   -1.9995 H   0  0  0  0  0  0  0  0  0  0  0  0
    2.3675   -0.4541    1.5278 H   0  0  0  0  0  0  0  0  0  0  0  0
    2.2422   -1.0423   -0.1283 H   0  0  0  0  0  0  0  0  0  0  0  0
    2.9983    2.5557   -2.9746 H   0  0  0  0  0  0  0  0  0  0  0  0
   -3.3339    2.1500    1.8856 H   0  0  0  0  0  0  0  0  0  0  0  0
   -3.4722    0.4525    2.3519 H   0  0  0  0  0  0  0  0  0  0  0  0
   -1.5843   -0.8883   -0.4123 H   0  0  0  0  0  0  0  0  0  0  0  0
   -2.5989    0.2711   -1.2759 H   0  0  0  0  0  0  0  0  0  0  0  0
   -5.5699    1.2776    1.3516 H   0  0  0  0  0  0  0  0  0  0  0  0
   -4.7182    1.7495   -0.1378 H   0  0  0  0  0  0  0  0  0  0  0  0
   -3.8124   -1.8323   -0.8893 H   0  0  0  0  0  0  0  0  0  0  0  0
   -3.5217   -1.7429    0.8560 H   0  0  0  0  0  0  0  0  0  0  0  0
    4.6851   -1.6900   -1.4316 H   0  0  0  0  0  0  0  0  0  0  0  0
   -6.9482    1.1431   -0.6365 H   0  0  0  0  0  0  0  0  0  0  0  0
    7.3032   -2.7848   -1.2291 H   0  0  0  0  0  0  0  0  0  0  0  0
    7.8774   -2.8751    0.4496 H   0  0  0  0  0  0  0  0  0  0  0  0
   -9.1821    0.2691   -1.1531 H   0  0  0  0  0  0  0  0  0  0  0  0
   -7.7486   -3.6755   -0.2836 H   0  0  0  0  0  0  0  0  0  0  0  0
   -9.6237   -2.1796   -0.9903 H   0  0  0  0  0  0  0  0  0  0  0  0
   10.0951   -2.3656   -0.2778 H   0  0  0  0  0  0  0  0  0  0  0  0
    9.5122   -2.2742   -1.9722 H   0  0  0  0  0  0  0  0  0  0  0  0
   10.3494   -0.8925   -1.2358 H   0  0  0  0  0  0  0  0  0  0  0  0
  1 16  2  0  0  0  0
  2  7  1  0  0  0  0
  2 24  1  0  0  0  0
  3 25  1  0  0  0  0
  3 30  1  0  0  0  0
  4 12  1  0  0  0  0
  4 14  1  0  0  0  0
  4 43  1  0  0  0  0
  5 16  1  0  0  0  0
  5 18  1  0  0  0  0
  5 19  1  0  0  0  0
  6 20  1  0  0  0  0
  6 21  1  0  0  0  0
  6 23  1  0  0  0  0
  7 17  2  0  0  0  0
  8 23  1  0  0  0  0
  8 28  2  0  0  0  0
  9 10  1  0  0  0  0
  9 11  1  0  0  0  0
  9 13  1  0  0  0  0
  9 31  1  0  0  0  0
 10 12  1  0  0  0  0
 10 15  1  0  0  0  0
 10 32  1  0  0  0  0
 11 14  1  0  0  0  0
 11 33  1  0  0  0  0
 11 34  1  0  0  0  0
 12 35  1  0  0  0  0
 12 36  1  0  0  0  0
 13 16  1  0  0  0  0
 13 37  1  0  0  0  0
 13 38  1  0  0  0  0
 14 39  1  0  0  0  0
 14 40  1  0  0  0  0
 15 17  1  0  0  0  0
 15 41  1  0  0  0  0
 15 42  1  0  0  0  0
 17 22  1  0  0  0  0
 18 20  1  0  0  0  0
 18 44  1  0  0  0  0
 18 45  1  0  0  0  0
 19 21  1  0  0  0  0
 19 46  1  0  0  0  0
 19 47  1  0  0  0  0
 20 48  1  0  0  0  0
 20 49  1  0  0  0  0
 21 50  1  0  0  0  0
 21 51  1  0  0  0  0
 22 24  2  0  0  0  0
 22 52  1  0  0  0  0
 23 26  2  0  0  0  0
 24 25  1  0  0  0  0
 25 54  1  0  0  0  0
 25 55  1  0  0  0  0
 26 27  1  0  0  0  0
 26 53  1  0  0  0  0
 27 29  2  0  0  0  0
 27 56  1  0  0  0  0
 28 29  1  0  0  0  0
 28 57  1  0  0  0  0
 29 58  1  0  0  0  0
 30 59  1  0  0  0  0
 30 60  1  0  0  0  0
 30 61  1  0  0  0  0
M  END
> <PUBCHEM_COMPOUND_CID>
26743050

> <PUBCHEM_CONFORMER_RMSD>
1

> <PUBCHEM_CONFORMER_DIVERSEORDER>
1
83
115
107
129
55
104
94
106
66
126
37
110
63
125
76
85
102
87
100
95
124
101
116
39
130
60
128
103
61
58
33
118
88
112
14
120
108
32
44
131
71
114
117
80
84
6
5
46
54
51
75
36
93
35
119
74
67
48
68
113
3
38
57
92
79
97
86
123
109
2
77
89
73
4
27
82
52
111
96
12
41
65
22
16
99
81
20
70
98
127
10
43
8
30
31
23
64
45
90
78
9
17
59
7
21
72
122
62
18
47
25
19
53
34
91
13
50
105
26
121
24
69
49
29
15
42
28
132
56
40
11

> <PUBCHEM_MMFF94_PARTIAL_CHARGES>
33
1 -0.57
12 0.27
13 0.06
14 0.27
15 0.18
16 0.57
17 0.11
18 0.3
19 0.3
2 -0.02
20 0.37
21 0.37
22 -0.15
23 0.41
24 -0.04
25 0.46
26 -0.15
27 -0.15
28 0.16
29 -0.15
3 -0.56
30 0.28
4 -0.9
43 0.36
5 -0.66
52 0.15
53 0.15
56 0.15
57 0.15
58 0.15
6 -0.84
7 -0.41
8 -0.62

> <PUBCHEM_EFFECTIVE_ROTOR_COUNT>
10.4

> <PUBCHEM_PHARMACOPHORE_FEATURES>
11
1 1 acceptor
1 3 acceptor
1 4 cation
1 4 donor
1 6 cation
1 7 acceptor
1 8 acceptor
5 2 7 17 22 24 rings
6 4 9 10 11 12 14 rings
6 5 6 18 19 20 21 rings
6 8 23 26 27 28 29 rings

> <PUBCHEM_HEAVY_ATOM_COUNT>
30

> <PUBCHEM_ATOM_DEF_STEREO_COUNT>
2

> <PUBCHEM_ATOM_UDEF_STEREO_COUNT>
0

> <PUBCHEM_BOND_DEF_STEREO_COUNT>
0

> <PUBCHEM_BOND_UDEF_STEREO_COUNT>
0

> <PUBCHEM_ISOTOPIC_ATOM_COUNT>
0

> <PUBCHEM_COMPONENT_COUNT>
1

> <PUBCHEM_CACTVS_TAUTO_COUNT>
1

> <PUBCHEM_CONFORMER_ID>
0198110A00000001

> <PUBCHEM_MMFF94_ENERGY>
71.4784

> <PUBCHEM_FEATURE_SELFOVERLAP>
55.823

> <PUBCHEM_SHAPE_FINGERPRINT>
10429389 143 13695884640679553398
10816530 90 12829492579740104886
11135609 99 18130786789028535934
11386260 185 17313663858201873829
11497681 19 18267871580521057638
11607047 74 18126561456401952488
12166972 35 18409165523720761113
12522641 33 17677620929544416132
12592606 108 18410291419664939359
12645989 146 18187082863040695077
13533116 47 18337389469680061233
13540713 4 16879651485469616513
13668630 136 18410006637594916387
13782708 43 18127688443652334863
14040221 8 18113615652483675133
14068700 675 18411419484098363680
14117953 113 18410572873119477639
14251757 52 7853858295175382587
1454969 45 18334867083122065854
14556957 393 16807317725988760124
15183329 4 17749384854644080251
15188451 53 18131068229777221089
15198563 99 16878510000006853724
15347590 135 13830137182814217503
15979999 66 17967816050711293132
16991971 28 18409176502384832310
16992610 120 10951758743070943066
19841028 212 18410289250310777394
20028762 73 18343021081737225990
2026 5 18343297068642758895
21267235 1 18272369767339245643
21304304 249 18202282506865650006
21360443 89 18411132499686141818
23389318 12 18334864914084388822
23559900 14 18266732671052462433
23576562 1 17168437076291052767
249057 3 18186800300994133627
255183 451 18334295375018691708
3004659 81 18333726936054283163
3383291 50 18272930544678356459
406291 66 18343016696844538195
4339292 15 18338231550128034514
5028188 123 18200605679678760764
5219985 9 18187366489722148076
54039377 194 18412547608592348911
5718773 13 18343300366643898107
57527293 21 16056301951511862832
58260988 521 16415200032373031996
5937810 71 13912874290933957391
59682541 52 16660361472211254562
6438161 24 18411976988322819051
9689198 14 7853572439600906241

> <PUBCHEM_SHAPE_MULTIPOLES>
574.87
27.9
3.15
1.38
1.38
1.46
0.01
-29.99
7.07
-1.57
0.84
-1.04
0.77
-1.69

> <PUBCHEM_SHAPE_SELFOVERLAP>
1205.48

> <PUBCHEM_SHAPE_VOLUME>
321.7

> <PUBCHEM_COORDINATE_TYPE>
2
5
10

$$$$
