7134370
  -OEChem-12032416123D

 65 67  0     1  0  0  0  0  0999 V2000
    3.5063    2.1183   -1.4234 S   0  0  0  0  0  0  0  0  0  0  0  0
    4.7157    3.5094    0.8834 S   0  0  0  0  0  0  0  0  0  0  0  0
   -0.4303   -0.0523    1.6600 O   0  0  0  0  0  0  0  0  0  0  0  0
   -3.8408    2.5497    1.0920 O   0  0  0  0  0  0  0  0  0  0  0  0
    4.4122    2.9612   -2.1795 O   0  0  0  0  0  0  0  0  0  0  0  0
    3.2836    0.7331   -1.7886 O   0  0  0  0  0  0  0  0  0  0  0  0
   -5.3516    0.9607   -0.1603 O   0  0  0  0  0  0  0  0  0  0  0  0
   -2.5818   -3.2827    0.7689 O   0  0  0  0  0  0  0  0  0  0  0  0
   -8.4422   -0.5122   -1.2315 O   0  0  0  0  0  0  0  0  0  0  0  0
   -8.0316    1.1204    0.3028 O   0  0  0  0  0  0  0  0  0  0  0  0
   -1.8271    1.7506    0.2391 N   0  0  0  0  0  0  0  0  0  0  0  0
    1.9922    2.8998   -1.2752 N   0  0  0  0  0  0  0  0  0  0  0  0
   -0.5969   -1.5835   -0.0855 N   0  0  0  0  0  0  0  0  0  0  0  0
   -1.2275   -3.9334    2.5065 N   0  0  0  0  0  0  0  0  0  0  0  0
    0.9658    2.2611   -0.4154 C   0  0  2  0  0  0  0  0  0  0  0  0
    0.1311    1.2963   -1.2584 C   0  0  0  0  0  0  0  0  0  0  0  0
   -1.0733    0.7273   -0.5045 C   0  0  1  0  0  0  0  0  0  0  0  0
    0.0792    3.3377    0.2023 C   0  0  0  0  0  0  0  0  0  0  0  0
   -1.0378    2.7078    1.0244 C   0  0  0  0  0  0  0  0  0  0  0  0
   -0.6729   -0.3256    0.4874 C   0  0  0  0  0  0  0  0  0  0  0  0
   -3.2215    1.7720    0.3610 C   0  0  0  0  0  0  0  0  0  0  0  0
   -0.2104   -2.7654    0.6508 C   0  0  2  0  0  0  0  0  0  0  0  0
   -3.9922    0.7783   -0.4726 C   0  0  0  0  0  0  0  0  0  0  0  0
    4.2118    2.0129    0.2212 C   0  0  0  0  0  0  0  0  0  0  0  0
    0.4445   -3.8201   -0.2482 C   0  0  0  0  0  0  0  0  0  0  0  0
   -1.4712   -3.3253    1.2929 C   0  0  0  0  0  0  0  0  0  0  0  0
    1.8917   -3.5143   -0.5485 C   0  0  0  0  0  0  0  0  0  0  0  0
    4.4400    0.9630    1.0834 C   0  0  0  0  0  0  0  0  0  0  0  0
    5.0362    1.3929    2.3039 C   0  0  0  0  0  0  0  0  0  0  0  0
   -6.1939    0.0708   -0.8908 C   0  0  0  0  0  0  0  0  0  0  0  0
    5.2410    2.7549    2.3280 C   0  0  0  0  0  0  0  0  0  0  0  0
    2.2253   -2.7471   -1.6648 C   0  0  0  0  0  0  0  0  0  0  0  0
    2.8956   -3.9982    0.2903 C   0  0  0  0  0  0  0  0  0  0  0  0
    3.5626   -2.4642   -1.9423 C   0  0  0  0  0  0  0  0  0  0  0  0
    4.2330   -3.7151    0.0129 C   0  0  0  0  0  0  0  0  0  0  0  0
    4.5664   -2.9480   -1.1035 C   0  0  0  0  0  0  0  0  0  0  0  0
   -7.6309    0.3094   -0.5185 C   0  0  0  0  0  0  0  0  0  0  0  0
    1.4530    1.7128    0.3983 H   0  0  0  0  0  0  0  0  0  0  0  0
   -0.2402    1.8341   -2.1420 H   0  0  0  0  0  0  0  0  0  0  0  0
    0.7522    0.4788   -1.6400 H   0  0  0  0  0  0  0  0  0  0  0  0
   -1.7289    0.2658   -1.2485 H   0  0  0  0  0  0  0  0  0  0  0  0
   -0.3575    3.9621   -0.5886 H   0  0  0  0  0  0  0  0  0  0  0  0
    0.6752    4.0047    0.8367 H   0  0  0  0  0  0  0  0  0  0  0  0
   -1.6882    3.5084    1.3944 H   0  0  0  0  0  0  0  0  0  0  0  0
   -0.6369    2.2155    1.9139 H   0  0  0  0  0  0  0  0  0  0  0  0
    2.0222    3.9256   -1.2072 H   0  0  0  0  0  0  0  0  0  0  0  0
   -0.8715   -1.7014   -1.0566 H   0  0  0  0  0  0  0  0  0  0  0  0
    0.4779   -2.4578    1.4488 H   0  0  0  0  0  0  0  0  0  0  0  0
   -3.6852   -0.2395   -0.2118 H   0  0  0  0  0  0  0  0  0  0  0  0
   -3.8202    0.9832   -1.5343 H   0  0  0  0  0  0  0  0  0  0  0  0
   -0.1118   -3.9308   -1.1889 H   0  0  0  0  0  0  0  0  0  0  0  0
    0.3943   -4.8083    0.2291 H   0  0  0  0  0  0  0  0  0  0  0  0
    4.1907   -0.0649    0.8540 H   0  0  0  0  0  0  0  0  0  0  0  0
    5.3008    0.7366    3.1227 H   0  0  0  0  0  0  0  0  0  0  0  0
   -5.9345   -0.9637   -0.6422 H   0  0  0  0  0  0  0  0  0  0  0  0
   -6.0737    0.2554   -1.9635 H   0  0  0  0  0  0  0  0  0  0  0  0
    5.6739    3.3430    3.1249 H   0  0  0  0  0  0  0  0  0  0  0  0
    1.4529   -2.3644   -2.3266 H   0  0  0  0  0  0  0  0  0  0  0  0
    2.6483   -4.5945    1.1646 H   0  0  0  0  0  0  0  0  0  0  0  0
   -1.9809   -4.3607    3.0350 H   0  0  0  0  0  0  0  0  0  0  0  0
   -0.3002   -3.9818    2.9162 H   0  0  0  0  0  0  0  0  0  0  0  0
    3.8234   -1.8731   -2.8152 H   0  0  0  0  0  0  0  0  0  0  0  0
    5.0147   -4.0909    0.6664 H   0  0  0  0  0  0  0  0  0  0  0  0
    5.6076   -2.7279   -1.3198 H   0  0  0  0  0  0  0  0  0  0  0  0
   -9.3877   -0.3769   -1.0082 H   0  0  0  0  0  0  0  0  0  0  0  0
  1  5  2  0  0  0  0
  1  6  2  0  0  0  0
  1 12  1  0  0  0  0
  1 24  1  0  0  0  0
  2 24  1  0  0  0  0
  2 31  1  0  0  0  0
  3 20  2  0  0  0  0
  4 21  2  0  0  0  0
  7 23  1  0  0  0  0
  7 30  1  0  0  0  0
  8 26  2  0  0  0  0
  9 37  1  0  0  0  0
  9 65  1  0  0  0  0
 10 37  2  0  0  0  0
 11 17  1  0  0  0  0
 11 19  1  0  0  0  0
 11 21  1  0  0  0  0
 12 15  1  0  0  0  0
 12 46  1  0  0  0  0
 13 20  1  0  0  0  0
 13 22  1  0  0  0  0
 13 47  1  0  0  0  0
 14 26  1  0  0  0  0
 14 60  1  0  0  0  0
 14 61  1  0  0  0  0
 15 16  1  0  0  0  0
 15 18  1  0  0  0  0
 15 38  1  0  0  0  0
 16 17  1  0  0  0  0
 16 39  1  0  0  0  0
 16 40  1  0  0  0  0
 17 20  1  0  0  0  0
 17 41  1  0  0  0  0
 18 19  1  0  0  0  0
 18 42  1  0  0  0  0
 18 43  1  0  0  0  0
 19 44  1  0  0  0  0
 19 45  1  0  0  0  0
 21 23  1  0  0  0  0
 22 25  1  0  0  0  0
 22 26  1  0  0  0  0
 22 48  1  0  0  0  0
 23 49  1  0  0  0  0
 23 50  1  0  0  0  0
 24 28  2  0  0  0  0
 25 27  1  0  0  0  0
 25 51  1  0  0  0  0
 25 52  1  0  0  0  0
 27 32  2  0  0  0  0
 27 33  1  0  0  0  0
 28 29  1  0  0  0  0
 28 53  1  0  0  0  0
 29 31  2  0  0  0  0
 29 54  1  0  0  0  0
 30 37  1  0  0  0  0
 30 55  1  0  0  0  0
 30 56  1  0  0  0  0
 31 57  1  0  0  0  0
 32 34  1  0  0  0  0
 32 58  1  0  0  0  0
 33 35  2  0  0  0  0
 33 59  1  0  0  0  0
 34 36  2  0  0  0  0
 34 62  1  0  0  0  0
 35 36  1  0  0  0  0
 35 63  1  0  0  0  0
 36 64  1  0  0  0  0
M  END
> <PUBCHEM_COMPOUND_CID>
7134370

> <PUBCHEM_CONFORMER_RMSD>
1.2

> <PUBCHEM_CONFORMER_DIVERSEORDER>
1
57
55
50
47
18
63
23
34
48
39
64
60
46
15
3
52
21
66
36
51
67
25
19
40
38
69
33
62
13
2
65
22
28
10
35
43
61
37
31
56
68
54
53
12
14
26
41
27
6
42
30
9
29
11
44
16
24
5
45
8
59
70
58
20
17
7
32
49
4

> <PUBCHEM_MMFF94_PARTIAL_CHARGES>
48
1 1.5
10 -0.57
11 -0.66
12 -0.91
13 -0.73
14 -0.8
15 0.36
17 0.36
19 0.3
2 -0.08
20 0.57
21 0.57
22 0.36
23 0.34
24 -0.02
25 0.14
26 0.57
27 -0.14
28 -0.15
29 -0.15
3 -0.57
30 0.34
31 -0.11
32 -0.15
33 -0.15
34 -0.15
35 -0.15
36 -0.15
37 0.66
4 -0.57
46 0.42
47 0.37
5 -0.65
53 0.15
54 0.15
57 0.15
58 0.15
59 0.15
6 -0.65
60 0.37
61 0.37
62 0.15
63 0.15
64 0.15
65 0.5
7 -0.56
8 -0.57
9 -0.65

> <PUBCHEM_EFFECTIVE_ROTOR_COUNT>
15.2

> <PUBCHEM_PHARMACOPHORE_FEATURES>
15
1 10 acceptor
1 12 donor
1 13 donor
1 14 donor
1 3 acceptor
1 4 acceptor
1 5 acceptor
1 6 acceptor
1 7 acceptor
1 8 acceptor
1 9 acceptor
3 9 10 37 anion
5 2 24 28 29 31 rings
6 11 15 16 17 18 19 rings
6 27 32 33 34 35 36 rings

> <PUBCHEM_HEAVY_ATOM_COUNT>
37

> <PUBCHEM_ATOM_DEF_STEREO_COUNT>
3

> <PUBCHEM_ATOM_UDEF_STEREO_COUNT>
0

> <PUBCHEM_BOND_DEF_STEREO_COUNT>
0

> <PUBCHEM_BOND_UDEF_STEREO_COUNT>
0

> <PUBCHEM_ISOTOPIC_ATOM_COUNT>
0

> <PUBCHEM_COMPONENT_COUNT>
1

> <PUBCHEM_CACTVS_TAUTO_COUNT>
4

> <PUBCHEM_CONFORMER_ID>
006CDCA200000001

> <PUBCHEM_MMFF94_ENERGY>
72.7929

> <PUBCHEM_FEATURE_SELFOVERLAP>
76.225

> <PUBCHEM_SHAPE_FINGERPRINT>
11719270 70 18408598189164834765
12522641 24 17846212220435786425
12522641 33 18411414037973927965
12788726 201 17685506742269438992
13533116 47 18343586209349479140
1361 2 18409449154760180034
13692114 37 18195516215909588731
14725015 67 18190173491104385202
19315092 285 17845652538942038216
20764821 26 18335720333714365926
20775438 99 18412535522855552335
21344244 246 18408888425663423679
21792965 2 18187919646881519267
23559900 14 18338814380957451492
35225 105 17342925264842558994
5265222 85 17686358850263444693
6669772 16 18408605881245397455

> <PUBCHEM_SHAPE_MULTIPOLES>
702.26
14.9
6.6
1.95
32.9
5.29
0.27
-7
-1.33
-7.82
1.05
-2.35
-0.06
2.05

> <PUBCHEM_SHAPE_SELFOVERLAP>
1441.393

> <PUBCHEM_SHAPE_VOLUME>
401.7

> <PUBCHEM_COORDINATE_TYPE>
2
5
10

$$$$
