7155428
  -OEChem-12032416113D

 58 62  0     1  0  0  0  0  0999 V2000
   -1.2377   -1.9468    0.6357 O   0  0  0  0  0  0  0  0  0  0  0  0
    0.1282    3.7731    1.2572 O   0  0  0  0  0  0  0  0  0  0  0  0
   -0.8851   -0.5076   -1.1512 N   0  0  0  0  0  0  0  0  0  0  0  0
    0.8119    2.0052   -0.1190 N   0  0  0  0  0  0  0  0  0  0  0  0
   -2.9181   -0.4967    0.0563 N   0  0  0  0  0  0  0  0  0  0  0  0
   -0.2803    1.5790   -2.3965 C   0  0  1  0  0  0  0  0  0  0  0  0
    1.4971    0.0890   -1.5948 C   0  0  2  0  0  0  0  0  0  0  0  0
    1.0573    0.9618   -2.7674 C   0  0  0  0  0  0  0  0  0  0  0  0
   -1.3418    0.4974   -2.1217 C   0  0  0  0  0  0  0  0  0  0  0  0
    0.4628   -1.0333   -1.3896 C   0  0  0  0  0  0  0  0  0  0  0  0
   -0.0723    2.4909   -1.1863 C   0  0  0  0  0  0  0  0  0  0  0  0
    1.6645    0.8997   -0.3070 C   0  0  0  0  0  0  0  0  0  0  0  0
    2.5723    0.5756    0.6507 C   0  0  0  0  0  0  0  0  0  0  0  0
   -1.6509   -1.0452   -0.1012 C   0  0  0  0  0  0  0  0  0  0  0  0
   -3.8279   -0.9447    1.0872 C   0  0  0  0  0  0  0  0  0  0  0  0
    0.8372    2.7881    1.0489 C   0  0  0  0  0  0  0  0  0  0  0  0
   -4.7144    0.2051    1.5772 C   0  0  0  0  0  0  0  0  0  0  0  0
   -4.6713   -2.1283    0.6014 C   0  0  0  0  0  0  0  0  0  0  0  0
   -5.7642    0.6154    0.5443 C   0  0  0  0  0  0  0  0  0  0  0  0
   -5.7211   -1.7142   -0.4299 C   0  0  0  0  0  0  0  0  0  0  0  0
   -6.5979   -0.5768    0.0848 C   0  0  0  0  0  0  0  0  0  0  0  0
    2.6228    1.3561    1.8723 C   0  0  0  0  0  0  0  0  0  0  0  0
    1.8109    2.3902    2.0905 C   0  0  0  0  0  0  0  0  0  0  0  0
    3.4992   -0.5665    0.4920 C   0  0  0  0  0  0  0  0  0  0  0  0
    3.1142   -1.8332    0.9202 C   0  0  0  0  0  0  0  0  0  0  0  0
    4.7497   -0.3660   -0.0844 C   0  0  0  0  0  0  0  0  0  0  0  0
    3.9882   -2.9099    0.7707 C   0  0  0  0  0  0  0  0  0  0  0  0
    5.6238   -1.4427   -0.2338 C   0  0  0  0  0  0  0  0  0  0  0  0
    5.2430   -2.7148    0.1935 C   0  0  0  0  0  0  0  0  0  0  0  0
   -0.6440    2.1929   -3.2300 H   0  0  0  0  0  0  0  0  0  0  0  0
    2.4481   -0.3715   -1.8852 H   0  0  0  0  0  0  0  0  0  0  0  0
    1.8022    1.7407   -2.9730 H   0  0  0  0  0  0  0  0  0  0  0  0
    0.9615    0.3607   -3.6798 H   0  0  0  0  0  0  0  0  0  0  0  0
   -2.2654    0.9920   -1.8236 H   0  0  0  0  0  0  0  0  0  0  0  0
   -1.5583   -0.0484   -3.0484 H   0  0  0  0  0  0  0  0  0  0  0  0
    0.4016   -1.6525   -2.2937 H   0  0  0  0  0  0  0  0  0  0  0  0
    0.7608   -1.7014   -0.5787 H   0  0  0  0  0  0  0  0  0  0  0  0
    0.3744    3.4337   -1.5316 H   0  0  0  0  0  0  0  0  0  0  0  0
   -1.0393    2.7631   -0.7444 H   0  0  0  0  0  0  0  0  0  0  0  0
   -3.2220   -1.2854    1.9361 H   0  0  0  0  0  0  0  0  0  0  0  0
   -4.0998    1.0759    1.8358 H   0  0  0  0  0  0  0  0  0  0  0  0
   -5.2274   -0.1065    2.4960 H   0  0  0  0  0  0  0  0  0  0  0  0
   -5.1832   -2.5768    1.4625 H   0  0  0  0  0  0  0  0  0  0  0  0
   -4.0311   -2.9088    0.1732 H   0  0  0  0  0  0  0  0  0  0  0  0
   -3.3024    0.1251   -0.6395 H   0  0  0  0  0  0  0  0  0  0  0  0
   -5.2795    1.0809   -0.3218 H   0  0  0  0  0  0  0  0  0  0  0  0
   -6.4237    1.3755    0.9787 H   0  0  0  0  0  0  0  0  0  0  0  0
   -6.3491   -2.5770   -0.6796 H   0  0  0  0  0  0  0  0  0  0  0  0
   -5.2261   -1.4040   -1.3582 H   0  0  0  0  0  0  0  0  0  0  0  0
   -7.2085   -0.9381    0.9216 H   0  0  0  0  0  0  0  0  0  0  0  0
   -7.2916   -0.2603   -0.7023 H   0  0  0  0  0  0  0  0  0  0  0  0
    3.3428    1.0725    2.6343 H   0  0  0  0  0  0  0  0  0  0  0  0
    1.8522    2.9646    3.0082 H   0  0  0  0  0  0  0  0  0  0  0  0
    2.1440   -2.0000    1.3812 H   0  0  0  0  0  0  0  0  0  0  0  0
    5.0596    0.6195   -0.4227 H   0  0  0  0  0  0  0  0  0  0  0  0
    3.6926   -3.8999    1.1056 H   0  0  0  0  0  0  0  0  0  0  0  0
    6.6007   -1.2909   -0.6832 H   0  0  0  0  0  0  0  0  0  0  0  0
    5.9237   -3.5530    0.0775 H   0  0  0  0  0  0  0  0  0  0  0  0
  1 14  2  0  0  0  0
  2 16  2  0  0  0  0
  3  9  1  0  0  0  0
  3 10  1  0  0  0  0
  3 14  1  0  0  0  0
  4 11  1  0  0  0  0
  4 12  1  0  0  0  0
  4 16  1  0  0  0  0
  5 14  1  0  0  0  0
  5 15  1  0  0  0  0
  5 45  1  0  0  0  0
  6  8  1  0  0  0  0
  6  9  1  0  0  0  0
  6 11  1  0  0  0  0
  6 30  1  0  0  0  0
  7  8  1  0  0  0  0
  7 10  1  0  0  0  0
  7 12  1  0  0  0  0
  7 31  1  0  0  0  0
  8 32  1  0  0  0  0
  8 33  1  0  0  0  0
  9 34  1  0  0  0  0
  9 35  1  0  0  0  0
 10 36  1  0  0  0  0
 10 37  1  0  0  0  0
 11 38  1  0  0  0  0
 11 39  1  0  0  0  0
 12 13  2  0  0  0  0
 13 22  1  0  0  0  0
 13 24  1  0  0  0  0
 15 17  1  0  0  0  0
 15 18  1  0  0  0  0
 15 40  1  0  0  0  0
 16 23  1  0  0  0  0
 17 19  1  0  0  0  0
 17 41  1  0  0  0  0
 17 42  1  0  0  0  0
 18 20  1  0  0  0  0
 18 43  1  0  0  0  0
 18 44  1  0  0  0  0
 19 21  1  0  0  0  0
 19 46  1  0  0  0  0
 19 47  1  0  0  0  0
 20 21  1  0  0  0  0
 20 48  1  0  0  0  0
 20 49  1  0  0  0  0
 21 50  1  0  0  0  0
 21 51  1  0  0  0  0
 22 23  2  0  0  0  0
 22 52  1  0  0  0  0
 23 53  1  0  0  0  0
 24 25  2  0  0  0  0
 24 26  1  0  0  0  0
 25 27  1  0  0  0  0
 25 54  1  0  0  0  0
 26 28  2  0  0  0  0
 26 55  1  0  0  0  0
 27 29  2  0  0  0  0
 27 56  1  0  0  0  0
 28 29  1  0  0  0  0
 28 57  1  0  0  0  0
 29 58  1  0  0  0  0
M  END
> <PUBCHEM_COMPOUND_CID>
7155428

> <PUBCHEM_CONFORMER_RMSD>
0.8

> <PUBCHEM_CONFORMER_DIVERSEORDER>
2
5
8
3
7
6
1
4

> <PUBCHEM_MMFF94_PARTIAL_CHARGES>
30
1 -0.57
10 0.3
11 0.3
12 -0.03
13 -0.03
14 0.69
15 0.3
16 0.62
2 -0.57
22 -0.15
23 -0.14
24 0.03
25 -0.15
26 -0.15
27 -0.15
28 -0.15
29 -0.15
3 -0.66
4 -0.47
45 0.37
5 -0.73
52 0.15
53 0.15
54 0.15
55 0.15
56 0.15
57 0.15
58 0.15
7 0.14
9 0.3

> <PUBCHEM_EFFECTIVE_ROTOR_COUNT>
6.2

> <PUBCHEM_PHARMACOPHORE_FEATURES>
8
1 1 acceptor
1 2 acceptor
1 5 donor
6 15 17 18 19 20 21 rings
6 24 25 26 27 28 29 rings
6 3 6 7 8 9 10 rings
6 4 12 13 16 22 23 rings
6 4 6 7 8 11 12 rings

> <PUBCHEM_HEAVY_ATOM_COUNT>
29

> <PUBCHEM_ATOM_DEF_STEREO_COUNT>
2

> <PUBCHEM_ATOM_UDEF_STEREO_COUNT>
0

> <PUBCHEM_BOND_DEF_STEREO_COUNT>
0

> <PUBCHEM_BOND_UDEF_STEREO_COUNT>
0

> <PUBCHEM_ISOTOPIC_ATOM_COUNT>
0

> <PUBCHEM_COMPONENT_COUNT>
1

> <PUBCHEM_CACTVS_TAUTO_COUNT>
2

> <PUBCHEM_CONFORMER_ID>
006D2EE400000002

> <PUBCHEM_MMFF94_ENERGY>
68.6601

> <PUBCHEM_FEATURE_SELFOVERLAP>
42.15

> <PUBCHEM_SHAPE_FINGERPRINT>
10764073 3 18056201267566565717
11140007 195 18187080680711530861
11456790 92 18270695195094798305
11954058 11 18261958573662297799
12128747 34 18412822469530128057
12156800 1 17697352558250633036
12166972 35 18335424595251180121
12403259 327 18272375325037541063
12633257 1 17775281668475721231
13103583 49 18202009793653553379
13135754 10 17771637758725151314
13150687 139 9079112267933106322
13533116 47 18266458900920253811
13583140 156 18125446564606539643
13631057 29 18189616056406209626
13726171 33 15936961934089322533
13911852 28 18340484452656577602
13911987 19 11314892128451175414
14251764 30 18261952955855676130
14747282 305 17609498229596589289
15131766 46 16270208666869296802
15664445 248 16660641895089848108
15721738 202 18041005033860858036
15849732 13 16702303460276693210
17349148 13 17346605213832501659
173720 79 15051726486899101575
17492 54 12757157857242522096
17492 89 17680722707195851467
17980427 23 16271631382299714517
1813 80 17312819385768189694
20567600 254 13326853305768257243
21033648 29 18188753025350339761
21774942 28 17559400146435295745
23559900 14 17895196670724171171
24893992 56 18411707553057681921
2838139 119 10879988034745761218
3117164 225 18200870785749583991
345986 75 18190449481080838034
3737641 26 18116152169194339266
437815 12 18410013212826005546
469060 322 17387424441332564530
484985 159 17760081818350476658
57527585 103 17112405616164144334
6086070 43 18271229570266899037
6823239 73 16443349844329772235
77296 10 18199177581177681623
8509985 295 18342742927012113905

> <PUBCHEM_SHAPE_MULTIPOLES>
570.12
12.32
3.33
2.12
13.33
1.09
0.86
-10.61
-3.66
-2.35
-1.15
-0.28
1.48
0.32

> <PUBCHEM_SHAPE_SELFOVERLAP>
1235.643

> <PUBCHEM_SHAPE_VOLUME>
302.1

> <PUBCHEM_COORDINATE_TYPE>
2
5
10

$$$$
