45784151
  -OEChem-12032416393D

 60 62  0     1  0  0  0  0  0999 V2000
   -1.5557   -0.6298   -0.7809 O   0  0  0  0  0  0  0  0  0  0  0  0
    2.6478    3.1514    0.6792 O   0  0  0  0  0  0  0  0  0  0  0  0
    3.5881    1.2198   -0.2063 N   0  0  0  0  0  0  0  0  0  0  0  0
   -1.8125   -2.7395   -1.4796 N   0  0  0  0  0  0  0  0  0  0  0  0
    2.7582    2.8520   -1.6189 N   0  0  0  0  0  0  0  0  0  0  0  0
   -3.0512   -2.2644   -1.0910 N   0  0  0  0  0  0  0  0  0  0  0  0
   -5.5747    1.8394    0.8090 N   0  0  0  0  0  0  0  0  0  0  0  0
    1.6716   -0.5758    1.2587 C   0  0  1  0  0  0  0  0  0  0  0  0
    3.2063   -0.7635    1.1609 C   0  0  1  0  0  0  0  0  0  0  0  0
    0.9497   -1.8992    0.9626 C   0  0  0  0  0  0  0  0  0  0  0  0
    1.2863   -2.4459   -0.4376 C   0  0  2  0  0  0  0  0  0  0  0  0
    1.2494   -0.0512    2.6346 C   0  0  0  0  0  0  0  0  0  0  0  0
    2.7761   -2.4117   -0.7123 C   0  0  0  0  0  0  0  0  0  0  0  0
    3.6202   -1.6644    0.0210 C   0  0  0  0  0  0  0  0  0  0  0  0
    3.9215    0.5861    1.0307 C   0  0  0  0  0  0  0  0  0  0  0  0
    0.5103   -1.6946   -1.5251 C   0  0  0  0  0  0  0  0  0  0  0  0
   -0.0882    0.6760    2.5393 C   0  0  0  0  0  0  0  0  0  0  0  0
    1.1723   -1.1959    3.6398 C   0  0  0  0  0  0  0  0  0  0  0  0
    3.2804   -3.2923   -1.8214 C   0  0  0  0  0  0  0  0  0  0  0  0
   -0.9705   -1.7521   -1.2815 C   0  0  0  0  0  0  0  0  0  0  0  0
    2.9673    2.4723   -0.2956 C   0  0  0  0  0  0  0  0  0  0  0  0
   -2.8535   -1.0302   -0.6906 C   0  0  0  0  0  0  0  0  0  0  0  0
    2.1343    4.1016   -1.9852 C   0  0  0  0  0  0  0  0  0  0  0  0
   -3.7763   -0.0568   -0.1828 C   0  0  0  0  0  0  0  0  0  0  0  0
    0.6261    4.0235   -1.8691 C   0  0  0  0  0  0  0  0  0  0  0  0
   -5.1242   -0.3733   -0.0546 C   0  0  0  0  0  0  0  0  0  0  0  0
   -3.3265    1.2066    0.1844 C   0  0  0  0  0  0  0  0  0  0  0  0
   -5.9748    0.6012    0.4420 C   0  0  0  0  0  0  0  0  0  0  0  0
   -4.2576    2.1105    0.6704 C   0  0  0  0  0  0  0  0  0  0  0  0
    1.3549    0.1522    0.5020 H   0  0  0  0  0  0  0  0  0  0  0  0
    3.5764   -1.2407    2.0770 H   0  0  0  0  0  0  0  0  0  0  0  0
    1.2884   -2.6759    1.6620 H   0  0  0  0  0  0  0  0  0  0  0  0
   -0.1299   -1.8179    1.1146 H   0  0  0  0  0  0  0  0  0  0  0  0
    0.9630   -3.4969   -0.4465 H   0  0  0  0  0  0  0  0  0  0  0  0
    1.9778    0.6771    3.0054 H   0  0  0  0  0  0  0  0  0  0  0  0
    4.6865   -1.7152   -0.1911 H   0  0  0  0  0  0  0  0  0  0  0  0
    5.0083    0.4386    1.0242 H   0  0  0  0  0  0  0  0  0  0  0  0
    3.7021    1.2486    1.8723 H   0  0  0  0  0  0  0  0  0  0  0  0
    0.6995   -2.1425   -2.5081 H   0  0  0  0  0  0  0  0  0  0  0  0
    0.8315   -0.6483   -1.5959 H   0  0  0  0  0  0  0  0  0  0  0  0
   -0.8984    0.0147    2.2176 H   0  0  0  0  0  0  0  0  0  0  0  0
   -0.0309    1.5116    1.8334 H   0  0  0  0  0  0  0  0  0  0  0  0
   -0.3693    1.0888    3.5144 H   0  0  0  0  0  0  0  0  0  0  0  0
    0.3084   -1.8502    3.4827 H   0  0  0  0  0  0  0  0  0  0  0  0
    1.0513   -0.7809    4.6482 H   0  0  0  0  0  0  0  0  0  0  0  0
    2.0838   -1.8004    3.6627 H   0  0  0  0  0  0  0  0  0  0  0  0
    2.9794   -4.3307   -1.6489 H   0  0  0  0  0  0  0  0  0  0  0  0
    4.3729   -3.2751   -1.8970 H   0  0  0  0  0  0  0  0  0  0  0  0
    2.8795   -2.9684   -2.7864 H   0  0  0  0  0  0  0  0  0  0  0  0
    3.8728    0.7722   -1.0723 H   0  0  0  0  0  0  0  0  0  0  0  0
    3.0432    2.2183   -2.3592 H   0  0  0  0  0  0  0  0  0  0  0  0
    2.5213    4.8942   -1.3362 H   0  0  0  0  0  0  0  0  0  0  0  0
    2.4262    4.3251   -3.0160 H   0  0  0  0  0  0  0  0  0  0  0  0
    0.1702    4.9705   -2.1739 H   0  0  0  0  0  0  0  0  0  0  0  0
    0.3152    3.8110   -0.8409 H   0  0  0  0  0  0  0  0  0  0  0  0
    0.2252    3.2287   -2.5072 H   0  0  0  0  0  0  0  0  0  0  0  0
   -5.5187   -1.3464   -0.3286 H   0  0  0  0  0  0  0  0  0  0  0  0
   -2.2880    1.5112    0.1065 H   0  0  0  0  0  0  0  0  0  0  0  0
   -7.0352    0.4047    0.5614 H   0  0  0  0  0  0  0  0  0  0  0  0
   -3.9580    3.1092    0.9706 H   0  0  0  0  0  0  0  0  0  0  0  0
  1 20  1  0  0  0  0
  1 22  1  0  0  0  0
  2 21  2  0  0  0  0
  3 15  1  0  0  0  0
  3 21  1  0  0  0  0
  3 50  1  0  0  0  0
  4  6  1  0  0  0  0
  4 20  2  0  0  0  0
  5 21  1  0  0  0  0
  5 23  1  0  0  0  0
  5 51  1  0  0  0  0
  6 22  2  0  0  0  0
  7 28  2  0  0  0  0
  7 29  1  0  0  0  0
  8  9  1  0  0  0  0
  8 10  1  0  0  0  0
  8 12  1  0  0  0  0
  8 30  1  0  0  0  0
  9 14  1  0  0  0  0
  9 15  1  0  0  0  0
  9 31  1  0  0  0  0
 10 11  1  0  0  0  0
 10 32  1  0  0  0  0
 10 33  1  0  0  0  0
 11 13  1  0  0  0  0
 11 16  1  0  0  0  0
 11 34  1  0  0  0  0
 12 17  1  0  0  0  0
 12 18  1  0  0  0  0
 12 35  1  0  0  0  0
 13 14  2  0  0  0  0
 13 19  1  0  0  0  0
 14 36  1  0  0  0  0
 15 37  1  0  0  0  0
 15 38  1  0  0  0  0
 16 20  1  0  0  0  0
 16 39  1  0  0  0  0
 16 40  1  0  0  0  0
 17 41  1  0  0  0  0
 17 42  1  0  0  0  0
 17 43  1  0  0  0  0
 18 44  1  0  0  0  0
 18 45  1  0  0  0  0
 18 46  1  0  0  0  0
 19 47  1  0  0  0  0
 19 48  1  0  0  0  0
 19 49  1  0  0  0  0
 22 24  1  0  0  0  0
 23 25  1  0  0  0  0
 23 52  1  0  0  0  0
 23 53  1  0  0  0  0
 24 26  2  0  0  0  0
 24 27  1  0  0  0  0
 25 54  1  0  0  0  0
 25 55  1  0  0  0  0
 25 56  1  0  0  0  0
 26 28  1  0  0  0  0
 26 57  1  0  0  0  0
 27 29  2  0  0  0  0
 27 58  1  0  0  0  0
 28 59  1  0  0  0  0
 29 60  1  0  0  0  0
M  END
> <PUBCHEM_COMPOUND_CID>
45784151

> <PUBCHEM_CONFORMER_RMSD>
1.2

> <PUBCHEM_CONFORMER_DIVERSEORDER>
1
46
23
33
104
43
17
53
133
84
7
114
136
48
145
130
127
25
51
106
108
64
22
144
67
97
129
88
89
31
118
86
101
14
131
125
69
44
99
50
6
54
134
132
9
73
16
29
27
45
70
61
40
121
113
77
34
75
68
135
37
19
79
117
137
80
4
71
55
142
30
95
140
138
115
120
82
32
87
39
100
81
141
28
59
107
93
92
38
8
111
76
57
90
139
124
20
94
56
116
143
74
52
103
122
62
105
109
128
123
35
65
42
36
58
78
18
112
49
119
12
10
3
91
96
110
24
21
146
5
66
11
47
41
63
60
83
2
13
102
126
85
26
98
15
72

> <PUBCHEM_MMFF94_PARTIAL_CHARGES>
30
1 -0.28
11 0.14
13 -0.28
14 -0.29
15 0.3
16 0.18
19 0.14
2 -0.57
20 0.3
21 0.69
22 0.43
23 0.3
24 0.05
26 -0.15
27 -0.15
28 0.16
29 0.16
3 -0.73
36 0.15
4 -0.34
5 -0.73
50 0.37
51 0.37
57 0.15
58 0.15
59 0.15
6 -0.34
60 0.15
7 -0.62
9 0.14

> <PUBCHEM_EFFECTIVE_ROTOR_COUNT>
9.8

> <PUBCHEM_PHARMACOPHORE_FEATURES>
8
1 2 acceptor
1 3 donor
1 5 donor
1 7 acceptor
3 12 17 18 hydrophobe
5 1 4 6 20 22 rings
6 7 24 26 27 28 29 rings
6 8 9 10 11 13 14 rings

> <PUBCHEM_HEAVY_ATOM_COUNT>
29

> <PUBCHEM_ATOM_DEF_STEREO_COUNT>
3

> <PUBCHEM_ATOM_UDEF_STEREO_COUNT>
0

> <PUBCHEM_BOND_DEF_STEREO_COUNT>
0

> <PUBCHEM_BOND_UDEF_STEREO_COUNT>
0

> <PUBCHEM_ISOTOPIC_ATOM_COUNT>
0

> <PUBCHEM_COMPONENT_COUNT>
1

> <PUBCHEM_CACTVS_TAUTO_COUNT>
3

> <PUBCHEM_CONFORMER_ID>
02BA9C5700000001

> <PUBCHEM_MMFF94_ENERGY>
46.0782

> <PUBCHEM_FEATURE_SELFOVERLAP>
40.644

> <PUBCHEM_SHAPE_FINGERPRINT>
10483366 6 18264514870268445428
10763959 59 18195525896728892597
11513181 2 17632010866775473871
11578080 2 16734702821147239374
12156800 1 15335493795109137364
12166972 35 17916030053569605295
12422481 6 18124001626038859480
13402501 40 17631161992797500515
13583140 156 17386830756535007895
13965767 371 18196625515593759480
14289585 56 17759546381609075240
14705955 166 13845266522972957582
17921350 177 17682658650096467077
21033648 29 17985526876752636409
21860390 5 18114192933867509284
23559900 14 18130787807215756191
245318 6 18263655120188437341
3493558 16 18341059596026660559
392239 28 16950829422975968050
4409770 3 16394380486847297182
474 4 18187924048810669804
5081480 168 18199190594358208214
54076057 255 18116738247408713982
6287921 2 18411417357893788678
7288768 16 17172083168744838760
7808743 9 18201709704367884755

> <PUBCHEM_SHAPE_MULTIPOLES>
560.16
9.77
4.68
2.58
15.35
4.65
-1.87
2
-0.65
-4.2
3.9
-1.77
-0.2
-1.32

> <PUBCHEM_SHAPE_SELFOVERLAP>
1169.104

> <PUBCHEM_SHAPE_VOLUME>
316

> <PUBCHEM_COORDINATE_TYPE>
2
5
10

$$$$
