9424320
  -OEChem-12032416163D

 51 54  0     1  0  0  0  0  0999 V2000
   -7.3861   -0.8554    2.3118 S   0  0  0  0  0  0  0  0  0  0  0  0
    1.5919    1.4620   -1.8981 O   0  0  0  0  0  0  0  0  0  0  0  0
   -1.7974   -2.4062   -1.0331 O   0  0  0  0  0  0  0  0  0  0  0  0
    5.3975    0.6118   -0.6385 O   0  0  0  0  0  0  0  0  0  0  0  0
    0.1180   -1.1580   -0.6282 N   0  0  0  0  0  0  0  0  0  0  0  0
    4.2801   -1.1709    0.3438 N   0  0  0  0  0  0  0  0  0  0  0  0
   -0.6692    1.5345   -1.5688 N   0  0  0  0  0  0  0  0  0  0  0  0
    6.4663   -0.7397    0.9154 N   0  0  0  0  0  0  0  0  0  0  0  0
    0.6963    0.0839   -0.1313 C   0  0  1  0  0  0  0  0  0  0  0  0
    3.0181   -0.9932   -0.3344 C   0  0  2  0  0  0  0  0  0  0  0  0
    2.1057   -0.0560    0.4561 C   0  0  0  0  0  0  0  0  0  0  0  0
    2.3164   -2.3323   -0.5345 C   0  0  0  0  0  0  0  0  0  0  0  0
    1.0005   -2.1364   -1.2688 C   0  0  0  0  0  0  0  0  0  0  0  0
    0.5996    1.0621   -1.2883 C   0  0  0  0  0  0  0  0  0  0  0  0
   -1.2622   -1.3425   -0.7180 C   0  0  0  0  0  0  0  0  0  0  0  0
   -2.1537   -0.1735   -0.4927 C   0  0  0  0  0  0  0  0  0  0  0  0
   -1.8933    1.1127   -1.0012 C   0  0  0  0  0  0  0  0  0  0  0  0
    5.3826   -0.3447    0.1351 C   0  0  0  0  0  0  0  0  0  0  0  0
   -3.4046   -0.4515    0.0844 C   0  0  0  0  0  0  0  0  0  0  0  0
   -2.9195    2.0713   -0.9790 C   0  0  0  0  0  0  0  0  0  0  0  0
   -4.3940    0.5288    0.1430 C   0  0  0  0  0  0  0  0  0  0  0  0
   -4.1565    1.7858   -0.4009 C   0  0  0  0  0  0  0  0  0  0  0  0
   -5.6666    0.2320    0.7384 C   0  0  0  0  0  0  0  0  0  0  0  0
    7.7373   -0.0549    0.8933 C   0  0  0  0  0  0  0  0  0  0  0  0
   -6.9343    0.7825    0.3850 C   0  0  0  0  0  0  0  0  0  0  0  0
   -5.7706   -0.6732    1.7737 C   0  0  0  0  0  0  0  0  0  0  0  0
    7.7278    1.0241    1.9245 C   0  0  0  0  0  0  0  0  0  0  0  0
   -7.9544    0.2780    1.1609 C   0  0  0  0  0  0  0  0  0  0  0  0
    7.9242    2.3188    1.6507 C   0  0  0  0  0  0  0  0  0  0  0  0
    0.0675    0.4731    0.6801 H   0  0  0  0  0  0  0  0  0  0  0  0
    3.2279   -0.5506   -1.3157 H   0  0  0  0  0  0  0  0  0  0  0  0
    2.0090   -0.4508    1.4777 H   0  0  0  0  0  0  0  0  0  0  0  0
    2.5746    0.9306    0.5608 H   0  0  0  0  0  0  0  0  0  0  0  0
    2.1298   -2.8087    0.4370 H   0  0  0  0  0  0  0  0  0  0  0  0
    2.9579   -3.0167   -1.1026 H   0  0  0  0  0  0  0  0  0  0  0  0
    1.1871   -1.7731   -2.2869 H   0  0  0  0  0  0  0  0  0  0  0  0
    0.4874   -3.0990   -1.3669 H   0  0  0  0  0  0  0  0  0  0  0  0
    4.3478   -1.8893    1.0585 H   0  0  0  0  0  0  0  0  0  0  0  0
   -0.7139    2.3463   -2.1800 H   0  0  0  0  0  0  0  0  0  0  0  0
   -3.5999   -1.4586    0.4483 H   0  0  0  0  0  0  0  0  0  0  0  0
   -2.7528    3.0672   -1.3852 H   0  0  0  0  0  0  0  0  0  0  0  0
   -4.9075    2.5714   -0.3789 H   0  0  0  0  0  0  0  0  0  0  0  0
    6.3546   -1.5323    1.5404 H   0  0  0  0  0  0  0  0  0  0  0  0
    8.5133   -0.7896    1.1292 H   0  0  0  0  0  0  0  0  0  0  0  0
    7.9239    0.3357   -0.1127 H   0  0  0  0  0  0  0  0  0  0  0  0
   -7.1075    1.5071   -0.4010 H   0  0  0  0  0  0  0  0  0  0  0  0
   -4.9938   -1.2383    2.2706 H   0  0  0  0  0  0  0  0  0  0  0  0
    7.5665    0.7317    2.9592 H   0  0  0  0  0  0  0  0  0  0  0  0
   -9.0066    0.5193    1.1058 H   0  0  0  0  0  0  0  0  0  0  0  0
    8.0968    2.6646    0.6375 H   0  0  0  0  0  0  0  0  0  0  0  0
    7.9131    3.0562    2.4458 H   0  0  0  0  0  0  0  0  0  0  0  0
  1 26  1  0  0  0  0
  1 28  1  0  0  0  0
  2 14  2  0  0  0  0
  3 15  2  0  0  0  0
  4 18  2  0  0  0  0
  5  9  1  0  0  0  0
  5 13  1  0  0  0  0
  5 15  1  0  0  0  0
  6 10  1  0  0  0  0
  6 18  1  0  0  0  0
  6 38  1  0  0  0  0
  7 14  1  0  0  0  0
  7 17  1  0  0  0  0
  7 39  1  0  0  0  0
  8 18  1  0  0  0  0
  8 24  1  0  0  0  0
  8 43  1  0  0  0  0
  9 11  1  0  0  0  0
  9 14  1  0  0  0  0
  9 30  1  0  0  0  0
 10 11  1  0  0  0  0
 10 12  1  0  0  0  0
 10 31  1  0  0  0  0
 11 32  1  0  0  0  0
 11 33  1  0  0  0  0
 12 13  1  0  0  0  0
 12 34  1  0  0  0  0
 12 35  1  0  0  0  0
 13 36  1  0  0  0  0
 13 37  1  0  0  0  0
 15 16  1  0  0  0  0
 16 17  2  0  0  0  0
 16 19  1  0  0  0  0
 17 20  1  0  0  0  0
 19 21  2  0  0  0  0
 19 40  1  0  0  0  0
 20 22  2  0  0  0  0
 20 41  1  0  0  0  0
 21 22  1  0  0  0  0
 21 23  1  0  0  0  0
 22 42  1  0  0  0  0
 23 25  1  0  0  0  0
 23 26  2  0  0  0  0
 24 27  1  0  0  0  0
 24 44  1  0  0  0  0
 24 45  1  0  0  0  0
 25 28  2  0  0  0  0
 25 46  1  0  0  0  0
 26 47  1  0  0  0  0
 27 29  2  0  0  0  0
 27 48  1  0  0  0  0
 28 49  1  0  0  0  0
 29 50  1  0  0  0  0
 29 51  1  0  0  0  0
M  END
> <PUBCHEM_COMPOUND_CID>
9424320

> <PUBCHEM_CONFORMER_RMSD>
0.8

> <PUBCHEM_CONFORMER_DIVERSEORDER>
1
39
11
30
55
19
13
10
15
40
29
16
50
48
9
24
26
51
47
5
46
22
35
23
12
28
3
33
45
17
36
52
38
44
34
7
54
31
53
32
14
8
49
20
41
4
6
18
43
2
42
37
21
27
25

> <PUBCHEM_MMFF94_PARTIAL_CHARGES>
39
1 -0.08
10 0.3
13 0.3
14 0.57
15 0.54
16 0.09
17 0.12
18 0.69
19 -0.15
2 -0.57
20 -0.15
21 0.05
22 -0.15
23 -0.05
24 0.44
25 -0.15
26 -0.11
27 -0.29
28 -0.11
29 -0.3
3 -0.57
38 0.37
39 0.37
4 -0.57
40 0.15
41 0.15
42 0.15
43 0.37
46 0.15
47 0.15
48 0.15
49 0.15
5 -0.66
50 0.15
51 0.15
6 -0.73
7 -0.55
8 -0.73
9 0.36

> <PUBCHEM_EFFECTIVE_ROTOR_COUNT>
7

> <PUBCHEM_PHARMACOPHORE_FEATURES>
11
1 2 acceptor
1 29 hydrophobe
1 3 acceptor
1 4 acceptor
1 6 donor
1 7 donor
1 8 donor
5 1 23 25 26 28 rings
6 16 17 19 20 21 22 rings
6 5 9 10 11 12 13 rings
7 5 7 9 14 15 16 17 rings

> <PUBCHEM_HEAVY_ATOM_COUNT>
29

> <PUBCHEM_ATOM_DEF_STEREO_COUNT>
2

> <PUBCHEM_ATOM_UDEF_STEREO_COUNT>
0

> <PUBCHEM_BOND_DEF_STEREO_COUNT>
0

> <PUBCHEM_BOND_UDEF_STEREO_COUNT>
0

> <PUBCHEM_ISOTOPIC_ATOM_COUNT>
0

> <PUBCHEM_COMPONENT_COUNT>
1

> <PUBCHEM_CACTVS_TAUTO_COUNT>
9

> <PUBCHEM_CONFORMER_ID>
008FCDC000000001

> <PUBCHEM_MMFF94_ENERGY>
78.8959

> <PUBCHEM_FEATURE_SELFOVERLAP>
55.897

> <PUBCHEM_SHAPE_FINGERPRINT>
10 15 18409165515552443066
10165383 225 18060136531061297195
106641 1 18409450297564313859
11135609 99 16951142780054450259
12035758 1 18409731763650448302
12539765 74 16917356930826128788
12838862 33 18040990731867805387
13383668 254 17989200431396858745
13383668 362 18117561957601190337
13540713 4 18048597014872891895
13540713 5 18120377824096477167
14068700 675 14851608782390982103
14849402 71 17775563177823188152
15183329 4 10735879464955746742
15188451 53 15430035448678873410
15706992 2 17131841996476306352
16126227 98 17989203776189301930
16994733 274 15698004011336900067
1768 4 18130783495289923024
18393751 57 18408880755042249986
18603816 31 15719396183166891163
2026 5 13190882188004546040
21033648 29 18200017444556763137
21095123 293 16559035990875339216
21130935 74 18189899716645587555
21267235 1 18040723532834853246
21307412 95 8862937299180256729
21637258 2 15213020453121206367
21792934 111 18113894957431470357
22149856 69 18265914474691067433
22224240 67 18342454841775208086
22393880 68 9510878333746129789
23576562 1 12606818372602053801
24771293 8 18201716284062642564
2747138 104 18260835869226694272
3009799 131 9007053548007273295
3178227 256 18412262844266652160
3383291 50 17385730209577839635
4058900 60 13038918698708349373
4093350 32 16486701273042112766
4403749 210 18411131412715913893
465052 167 17968112927703788319
5104073 3 18191023395995841442
5758199 1 17775003487744435003
57724786 102 16845277397805563968
59682541 35 18407761447303078032
5969126 39 12973598937379361551
9689198 14 16487259876045329938
9953998 17 18412825802751940347

> <PUBCHEM_SHAPE_MULTIPOLES>
563.12
22.89
2.13
1.77
15.23
0.25
-0.51
-7.26
-19.96
1.46
0.56
-0.49
-0.37
2.38

> <PUBCHEM_SHAPE_SELFOVERLAP>
1204.748

> <PUBCHEM_SHAPE_VOLUME>
311.6

> <PUBCHEM_COORDINATE_TYPE>
2
5
10

$$$$
