26743812
  -OEChem-12032416193D

 43 46  0     1  0  0  0  0  0999 V2000
    4.2698    1.6447    2.1250 F   0  0  0  0  0  0  0  0  0  0  0  0
   -4.5279    3.5426    0.4190 O   0  0  0  0  0  0  0  0  0  0  0  0
   -0.8350   -0.3119   -2.1162 O   0  0  0  0  0  0  0  0  0  0  0  0
   -3.0807    0.2767    0.5222 N   0  0  1  0  0  0  0  0  0  0  0  0
   -0.0764    0.7287   -0.2837 N   0  0  0  0  0  0  0  0  0  0  0  0
   -1.5256   -2.0850    1.6031 N   0  0  0  0  0  0  0  0  0  0  0  0
   -2.0982   -3.0033   -0.3360 N   0  0  0  0  0  0  0  0  0  0  0  0
    0.5533   -0.4967   -2.1100 N   0  0  0  0  0  0  0  0  0  0  0  0
   -2.5808    0.7578   -0.7817 C   0  0  1  0  0  0  0  0  0  0  0  0
   -2.8452    2.2749   -0.7693 C   0  0  0  0  0  0  0  0  0  0  0  0
   -3.5366    2.5440    0.5615 C   0  0  2  0  0  0  0  0  0  0  0  0
   -4.1389    1.2005    0.9263 C   0  0  0  0  0  0  0  0  0  0  0  0
   -3.5430   -1.1046    0.4859 C   0  0  0  0  0  0  0  0  0  0  0  0
   -1.1223    0.4194   -1.0077 C   0  0  0  0  0  0  0  0  0  0  0  0
   -2.3985   -2.0808    0.5509 C   0  0  0  0  0  0  0  0  0  0  0  0
    0.9281    0.1451   -0.9995 C   0  0  0  0  0  0  0  0  0  0  0  0
    2.2970    0.2233   -0.5781 C   0  0  0  0  0  0  0  0  0  0  0  0
   -0.6104   -3.0731    1.3723 C   0  0  0  0  0  0  0  0  0  0  0  0
   -0.9845   -3.6255    0.1699 C   0  0  0  0  0  0  0  0  0  0  0  0
    2.6291    0.9086    0.5905 C   0  0  0  0  0  0  0  0  0  0  0  0
    3.2961   -0.3864   -1.3369 C   0  0  0  0  0  0  0  0  0  0  0  0
    3.9603    0.9840    1.0005 C   0  0  0  0  0  0  0  0  0  0  0  0
    4.6272   -0.3107   -0.9271 C   0  0  0  0  0  0  0  0  0  0  0  0
    4.9594    0.3745    0.2417 C   0  0  0  0  0  0  0  0  0  0  0  0
    6.3836    0.4533    0.6770 C   0  0  0  0  0  0  0  0  0  0  0  0
   -3.1724    0.3325   -1.6046 H   0  0  0  0  0  0  0  0  0  0  0  0
   -1.9342    2.8786   -0.8530 H   0  0  0  0  0  0  0  0  0  0  0  0
   -3.4945    2.5531   -1.6090 H   0  0  0  0  0  0  0  0  0  0  0  0
   -2.8099    2.8633    1.3187 H   0  0  0  0  0  0  0  0  0  0  0  0
   -4.3556    1.1402    1.9980 H   0  0  0  0  0  0  0  0  0  0  0  0
   -5.0765    1.0312    0.3804 H   0  0  0  0  0  0  0  0  0  0  0  0
   -4.1670   -1.3101   -0.3927 H   0  0  0  0  0  0  0  0  0  0  0  0
   -4.1715   -1.3090    1.3637 H   0  0  0  0  0  0  0  0  0  0  0  0
   -4.0851    4.3521    0.1123 H   0  0  0  0  0  0  0  0  0  0  0  0
   -1.5497   -1.4686    2.4047 H   0  0  0  0  0  0  0  0  0  0  0  0
    0.1954   -3.2831    2.0605 H   0  0  0  0  0  0  0  0  0  0  0  0
   -0.5078   -4.4386   -0.3576 H   0  0  0  0  0  0  0  0  0  0  0  0
    1.8738    1.3938    1.2036 H   0  0  0  0  0  0  0  0  0  0  0  0
    3.0754   -0.9289   -2.2528 H   0  0  0  0  0  0  0  0  0  0  0  0
    5.3949   -0.7898   -1.5290 H   0  0  0  0  0  0  0  0  0  0  0  0
    6.7490    1.4813    0.5863 H   0  0  0  0  0  0  0  0  0  0  0  0
    6.4832    0.1296    1.7184 H   0  0  0  0  0  0  0  0  0  0  0  0
    7.0313   -0.1900    0.0720 H   0  0  0  0  0  0  0  0  0  0  0  0
  1 22  1  0  0  0  0
  2 11  1  0  0  0  0
  2 34  1  0  0  0  0
  3  8  1  0  0  0  0
  3 14  1  0  0  0  0
  4  9  1  0  0  0  0
  4 12  1  0  0  0  0
  4 13  1  0  0  0  0
  5 14  2  0  0  0  0
  5 16  1  0  0  0  0
  6 15  1  0  0  0  0
  6 18  1  0  0  0  0
  6 35  1  0  0  0  0
  7 15  2  0  0  0  0
  7 19  1  0  0  0  0
  8 16  2  0  0  0  0
  9 10  1  0  0  0  0
  9 14  1  0  0  0  0
  9 26  1  0  0  0  0
 10 11  1  0  0  0  0
 10 27  1  0  0  0  0
 10 28  1  0  0  0  0
 11 12  1  0  0  0  0
 11 29  1  0  0  0  0
 12 30  1  0  0  0  0
 12 31  1  0  0  0  0
 13 15  1  0  0  0  0
 13 32  1  0  0  0  0
 13 33  1  0  0  0  0
 16 17  1  0  0  0  0
 17 20  2  0  0  0  0
 17 21  1  0  0  0  0
 18 19  2  0  0  0  0
 18 36  1  0  0  0  0
 19 37  1  0  0  0  0
 20 22  1  0  0  0  0
 20 38  1  0  0  0  0
 21 23  2  0  0  0  0
 21 39  1  0  0  0  0
 22 24  2  0  0  0  0
 23 24  1  0  0  0  0
 23 40  1  0  0  0  0
 24 25  1  0  0  0  0
 25 41  1  0  0  0  0
 25 42  1  0  0  0  0
 25 43  1  0  0  0  0
M  END
> <PUBCHEM_COMPOUND_CID>
26743812

> <PUBCHEM_CONFORMER_RMSD>
0.8

> <PUBCHEM_CONFORMER_DIVERSEORDER>
1
76
12
51
31
62
33
66
48
61
50
70
10
26
77
65
43
19
57
38
47
67
15
44
7
59
37
60
17
56
45
46
75
35
58
30
73
27
41
53
49
71
72
68
8
2
20
55
74
24
6
11
5
34
13
3
63
69
64
54
32
9
39
18
25
16
23
29
52
4
28
42
21
36
22
40
14

> <PUBCHEM_MMFF94_PARTIAL_CHARGES>
31
1 -0.19
11 0.28
12 0.27
13 0.45
14 0.3
15 0.01
16 0.46
17 0.05
18 -0.3
19 0.08
2 -0.68
20 -0.15
21 -0.15
22 0.19
23 -0.15
24 -0.14
25 0.14
3 -0.02
34 0.4
35 0.27
36 0.15
37 0.15
38 0.15
39 0.15
4 -0.81
40 0.15
5 -0.57
6 0.03
7 -0.57
8 -0.41
9 0.45

> <PUBCHEM_EFFECTIVE_ROTOR_COUNT>
5

> <PUBCHEM_PHARMACOPHORE_FEATURES>
10
1 2 acceptor
1 2 donor
1 4 cation
1 6 donor
3 5 8 16 cation
3 6 7 15 cation
5 3 5 8 14 16 rings
5 4 9 10 11 12 rings
5 6 7 15 18 19 rings
6 17 20 21 22 23 24 rings

> <PUBCHEM_HEAVY_ATOM_COUNT>
25

> <PUBCHEM_ATOM_DEF_STEREO_COUNT>
2

> <PUBCHEM_ATOM_UDEF_STEREO_COUNT>
0

> <PUBCHEM_BOND_DEF_STEREO_COUNT>
0

> <PUBCHEM_BOND_UDEF_STEREO_COUNT>
0

> <PUBCHEM_ISOTOPIC_ATOM_COUNT>
0

> <PUBCHEM_COMPONENT_COUNT>
1

> <PUBCHEM_CACTVS_TAUTO_COUNT>
1

> <PUBCHEM_CONFORMER_ID>
0198140400000001

> <PUBCHEM_MMFF94_ENERGY>
40.1081

> <PUBCHEM_FEATURE_SELFOVERLAP>
50.749

> <PUBCHEM_SHAPE_FINGERPRINT>
11370993 144 18411699872817145542
11552529 35 18191581067893644842
11646440 116 18192720153793581307
11725454 13 17988641861386049159
12293681 4 18343586231230595312
12422481 6 17386839509530937154
12553582 1 16298375912229879568
12633257 1 18336556009173675633
12788726 201 17972899208608240567
13004483 165 17978795936892394375
13140716 1 17902242431176182507
13583140 156 17917713556348371410
14081887 123 18338230595653206402
14178342 30 18334581260488757158
16988056 13 10795652121225170338
20554085 129 18265319630658951425
21033648 29 18340204094313315888
212916 134 18336549313604536537
23559900 14 18267320759106595702
23598288 3 15864343597879948758
23728640 28 18187937230366573067
5265222 85 18119279279474977694
5364581 5 18124024900567681640
58807428 26 18115032887889283763
5924683 9 18269833275592348055
59755656 520 18338792330352182445
602551 16 18261114110388306702
7064713 232 18186803556410155482
90127 26 17988644138288681452
9862522 239 17676759865082102493

> <PUBCHEM_SHAPE_MULTIPOLES>
470.57
10.69
3.48
1.62
13.08
2.06
0.21
-6.36
-3.49
-5.6
-1.19
0.75
0.03
0.82

> <PUBCHEM_SHAPE_SELFOVERLAP>
1028.641

> <PUBCHEM_SHAPE_VOLUME>
259.7

> <PUBCHEM_COORDINATE_TYPE>
2
5
10

$$$$
