45361094
  -OEChem-12032416233D

 49 50  0     1  0  0  0  0  0999 V2000
   -3.5262   -1.8672    1.7024 O   0  0  0  0  0  0  0  0  0  0  0  0
    3.0104    0.5245    1.7164 O   0  0  0  0  0  0  0  0  0  0  0  0
   -1.7137    1.0960   -0.0718 N   0  0  1  0  0  0  0  0  0  0  0  0
   -5.0303   -0.4365   -0.0037 N   0  0  0  0  0  0  0  0  0  0  0  0
   -1.6223   -1.7525    0.4370 N   0  0  0  0  0  0  0  0  0  0  0  0
    4.3783   -0.0708   -0.0595 N   0  0  0  0  0  0  0  0  0  0  0  0
   -3.0276    0.7660   -0.6658 C   0  0  1  0  0  0  0  0  0  0  0  0
   -3.6272   -0.6396   -0.3928 C   0  0  1  0  0  0  0  0  0  0  0  0
   -4.1694    1.6928   -0.2091 C   0  0  0  0  0  0  0  0  0  0  0  0
   -0.5848    0.2607   -0.5674 C   0  0  2  0  0  0  0  0  0  0  0  0
   -5.4155    0.8812   -0.4852 C   0  0  0  0  0  0  0  0  0  0  0  0
   -0.9000   -1.2407   -0.7107 C   0  0  0  0  0  0  0  0  0  0  0  0
    0.6328    0.3937    0.3707 C   0  0  0  0  0  0  0  0  0  0  0  0
   -2.9479   -1.4606    0.6955 C   0  0  0  0  0  0  0  0  0  0  0  0
   -1.4046    2.5254   -0.2483 C   0  0  0  0  0  0  0  0  0  0  0  0
    1.9214    0.0777   -0.3720 C   0  0  0  0  0  0  0  0  0  0  0  0
    3.1404    0.2010    0.5328 C   0  0  0  0  0  0  0  0  0  0  0  0
    4.5816   -0.4566   -1.4539 C   0  0  0  0  0  0  0  0  0  0  0  0
    5.5942    0.0352    0.7375 C   0  0  0  0  0  0  0  0  0  0  0  0
    4.5316   -1.9606   -1.6261 C   0  0  0  0  0  0  0  0  0  0  0  0
    6.1789    1.4311    0.6740 C   0  0  0  0  0  0  0  0  0  0  0  0
   -2.9507    0.8784   -1.7584 H   0  0  0  0  0  0  0  0  0  0  0  0
   -3.6223   -1.2351   -1.3139 H   0  0  0  0  0  0  0  0  0  0  0  0
   -4.0948    1.9113    0.8646 H   0  0  0  0  0  0  0  0  0  0  0  0
   -4.1822    2.6413   -0.7559 H   0  0  0  0  0  0  0  0  0  0  0  0
   -0.3059    0.6214   -1.5676 H   0  0  0  0  0  0  0  0  0  0  0  0
   -5.6429    0.8463   -1.5566 H   0  0  0  0  0  0  0  0  0  0  0  0
   -6.2911    1.2697    0.0428 H   0  0  0  0  0  0  0  0  0  0  0  0
   -5.0983   -0.4308    1.0152 H   0  0  0  0  0  0  0  0  0  0  0  0
   -0.0018   -1.8547   -0.8165 H   0  0  0  0  0  0  0  0  0  0  0  0
   -1.4920   -1.4198   -1.6144 H   0  0  0  0  0  0  0  0  0  0  0  0
    0.7374    1.3957    0.7942 H   0  0  0  0  0  0  0  0  0  0  0  0
    0.5217   -0.2666    1.2411 H   0  0  0  0  0  0  0  0  0  0  0  0
   -1.1154   -2.3159    1.1129 H   0  0  0  0  0  0  0  0  0  0  0  0
   -0.4424    2.8256    0.1707 H   0  0  0  0  0  0  0  0  0  0  0  0
   -2.1337    3.1542    0.2729 H   0  0  0  0  0  0  0  0  0  0  0  0
   -1.4039    2.8053   -1.3084 H   0  0  0  0  0  0  0  0  0  0  0  0
    2.0359    0.7911   -1.1957 H   0  0  0  0  0  0  0  0  0  0  0  0
    1.9019   -0.9333   -0.7826 H   0  0  0  0  0  0  0  0  0  0  0  0
    3.8169    0.0028   -2.0852 H   0  0  0  0  0  0  0  0  0  0  0  0
    5.5455   -0.0665   -1.7997 H   0  0  0  0  0  0  0  0  0  0  0  0
    5.3609   -0.2044    1.7811 H   0  0  0  0  0  0  0  0  0  0  0  0
    6.3235   -0.7064    0.3938 H   0  0  0  0  0  0  0  0  0  0  0  0
    5.3240   -2.4501   -1.0504 H   0  0  0  0  0  0  0  0  0  0  0  0
    3.5779   -2.3786   -1.2909 H   0  0  0  0  0  0  0  0  0  0  0  0
    4.6672   -2.2265   -2.6791 H   0  0  0  0  0  0  0  0  0  0  0  0
    6.4463    1.7049   -0.3516 H   0  0  0  0  0  0  0  0  0  0  0  0
    5.4647    2.1759    1.0408 H   0  0  0  0  0  0  0  0  0  0  0  0
    7.0821    1.4940    1.2888 H   0  0  0  0  0  0  0  0  0  0  0  0
  1 14  2  0  0  0  0
  2 17  2  0  0  0  0
  3  7  1  0  0  0  0
  3 10  1  0  0  0  0
  3 15  1  0  0  0  0
  4  8  1  0  0  0  0
  4 11  1  0  0  0  0
  4 29  1  0  0  0  0
  5 12  1  0  0  0  0
  5 14  1  0  0  0  0
  5 34  1  0  0  0  0
  6 17  1  0  0  0  0
  6 18  1  0  0  0  0
  6 19  1  0  0  0  0
  7  8  1  0  0  0  0
  7  9  1  0  0  0  0
  7 22  1  0  0  0  0
  8 14  1  0  0  0  0
  8 23  1  0  0  0  0
  9 11  1  0  0  0  0
  9 24  1  0  0  0  0
  9 25  1  0  0  0  0
 10 12  1  0  0  0  0
 10 13  1  0  0  0  0
 10 26  1  0  0  0  0
 11 27  1  0  0  0  0
 11 28  1  0  0  0  0
 12 30  1  0  0  0  0
 12 31  1  0  0  0  0
 13 16  1  0  0  0  0
 13 32  1  0  0  0  0
 13 33  1  0  0  0  0
 15 35  1  0  0  0  0
 15 36  1  0  0  0  0
 15 37  1  0  0  0  0
 16 17  1  0  0  0  0
 16 38  1  0  0  0  0
 16 39  1  0  0  0  0
 18 20  1  0  0  0  0
 18 40  1  0  0  0  0
 18 41  1  0  0  0  0
 19 21  1  0  0  0  0
 19 42  1  0  0  0  0
 19 43  1  0  0  0  0
 20 44  1  0  0  0  0
 20 45  1  0  0  0  0
 20 46  1  0  0  0  0
 21 47  1  0  0  0  0
 21 48  1  0  0  0  0
 21 49  1  0  0  0  0
M  END
> <PUBCHEM_COMPOUND_CID>
45361094

> <PUBCHEM_CONFORMER_RMSD>
0.8

> <PUBCHEM_CONFORMER_DIVERSEORDER>
2
205
49
141
44
62
86
110
147
189
107
19
95
101
175
200
84
216
91
114
152
76
47
102
96
93
1
88
137
161
215
208
73
170
221
166
128
218
228
162
52
123
31
24
195
89
78
8
3
160
178
100
131
185
4
35
124
83
71
155
55
226
82
193
197
209
72
51
148
36
103
113
177
117
94
132
176
5
222
211
40
12
171
130
224
65
136
133
203
169
207
105
146
14
27
225
97
7
69
217
140
64
70
210
104
26
158
33
112
98
43
20
77
198
192
165
106
59
60
191
143
56
201
32
21
13
149
126
212
188
179
109
87
187
66
172
182
138
196
134
38
41
213
223
144
139
22
120
151
10
37
75
206
204
183
54
150
25
121
45
186
81
48
214
74
15
68
119
219
58
167
153
11
6
168
63
53
46
99
80
16
118
135
29
42
18
230
199
145
50
202
28
157
92
181
23
122
180
220
125
61
194
154
159
129
9
67
90
174
173
156
57
111
34
229
108
163
115
127
30
227
190
79
164
17
142
116
85
184
39

> <PUBCHEM_MMFF94_PARTIAL_CHARGES>
19
1 -0.57
10 0.27
11 0.27
12 0.3
14 0.57
15 0.27
16 0.06
17 0.57
18 0.3
19 0.3
2 -0.57
29 0.36
3 -0.81
34 0.37
4 -0.9
5 -0.73
6 -0.66
7 0.27
8 0.33

> <PUBCHEM_EFFECTIVE_ROTOR_COUNT>
7.4

> <PUBCHEM_PHARMACOPHORE_FEATURES>
8
1 1 acceptor
1 2 acceptor
1 3 cation
1 4 cation
1 4 donor
1 5 donor
5 4 7 8 9 11 rings
7 3 5 7 8 10 12 14 rings

> <PUBCHEM_HEAVY_ATOM_COUNT>
21

> <PUBCHEM_ATOM_DEF_STEREO_COUNT>
3

> <PUBCHEM_ATOM_UDEF_STEREO_COUNT>
0

> <PUBCHEM_BOND_DEF_STEREO_COUNT>
0

> <PUBCHEM_BOND_UDEF_STEREO_COUNT>
0

> <PUBCHEM_ISOTOPIC_ATOM_COUNT>
0

> <PUBCHEM_COMPONENT_COUNT>
1

> <PUBCHEM_CACTVS_TAUTO_COUNT>
3

> <PUBCHEM_CONFORMER_ID>
02B427C600000002

> <PUBCHEM_MMFF94_ENERGY>
47.3236

> <PUBCHEM_FEATURE_SELFOVERLAP>
40.633

> <PUBCHEM_SHAPE_FINGERPRINT>
10 15 18270104825970276368
11315181 36 17749388200133693648
11552529 35 16486120885062910494
12011746 2 18409441480407963717
12236239 1 17095521794563780556
12390115 104 18194124015246212757
12616971 3 15502375638622051298
12916748 109 18410573959788102148
13533116 47 15267346189247835854
13583140 156 17346311669465043358
14386348 63 18201720656644966966
14573314 32 18343023263685393126
17844677 252 17917718972307594896
19489759 90 18408880737740587269
200 152 16200429156905563117
20645477 56 18201711882137661404
20645477 70 17274824598220016374
21033648 29 17917416631915400792
21279426 13 18127694829107953493
21792961 116 18060147510300329324
2215653 11 18201999897879968463
2297311 6 18409739447273107565
23175994 123 17846501443607429857
23402539 116 18411408519225685453
23557571 272 18410569557573659564
23559900 14 18411984641928121548
2838139 119 16056324895891615489
300161 21 17749096790549402752
3004659 81 18339927013989650926
5104073 3 18341334388445748370
67856867 119 17750519653639498628
90127 26 18272940392831617904

> <PUBCHEM_SHAPE_MULTIPOLES>
400.51
13.9
1.99
1.25
10.61
0.08
0.13
1.29
0.06
-0.72
-0.07
0.84
-0.45
2.29

> <PUBCHEM_SHAPE_SELFOVERLAP>
802.216

> <PUBCHEM_SHAPE_VOLUME>
235.7

> <PUBCHEM_COORDINATE_TYPE>
2
5
10

$$$$
