45783691
  -OEChem-12032416263D

 45 48  0     1  0  0  0  0  0999 V2000
   -0.1631    2.8892   -2.0779 F   0  0  0  0  0  0  0  0  0  0  0  0
    0.2046    4.1742    0.3073 F   0  0  0  0  0  0  0  0  0  0  0  0
   -1.0178   -0.9176    2.0257 O   0  0  0  0  0  0  0  0  0  0  0  0
    5.9618   -0.4848   -0.9103 O   0  0  0  0  0  0  0  0  0  0  0  0
   -3.3434   -0.9798   -0.6080 N   0  0  1  0  0  0  0  0  0  0  0  0
   -0.2873   -1.4254   -0.0299 N   0  0  0  0  0  0  0  0  0  0  0  0
    0.3570   -0.6499    2.0238 N   0  0  0  0  0  0  0  0  0  0  0  0
    4.3663   -0.2664    0.7603 N   0  0  0  0  0  0  0  0  0  0  0  0
   -2.7618   -1.7339    0.5205 C   0  0  1  0  0  0  0  0  0  0  0  0
   -2.9434   -3.2140    0.1368 C   0  0  0  0  0  0  0  0  0  0  0  0
   -3.6889   -3.1925   -1.1900 C   0  0  0  0  0  0  0  0  0  0  0  0
   -4.3721   -1.8398   -1.1934 C   0  0  0  0  0  0  0  0  0  0  0  0
   -3.8728    0.3206   -0.2179 C   0  0  0  0  0  0  0  0  0  0  0  0
   -1.3147   -1.3703    0.7794 C   0  0  0  0  0  0  0  0  0  0  0  0
   -2.7834    1.3503   -0.0772 C   0  0  0  0  0  0  0  0  0  0  0  0
   -1.9615    1.6485   -1.1641 C   0  0  0  0  0  0  0  0  0  0  0  0
   -2.5961    2.0061    1.1394 C   0  0  0  0  0  0  0  0  0  0  0  0
    0.7156   -0.9738    0.7778 C   0  0  0  0  0  0  0  0  0  0  0  0
   -0.9523    2.6028   -1.0343 C   0  0  0  0  0  0  0  0  0  0  0  0
   -1.5867    2.9601    1.2693 C   0  0  0  0  0  0  0  0  0  0  0  0
    2.0665   -0.8596    0.3093 C   0  0  0  0  0  0  0  0  0  0  0  0
   -0.7649    3.2585    0.1824 C   0  0  0  0  0  0  0  0  0  0  0  0
    2.4041   -1.2075   -0.9941 C   0  0  0  0  0  0  0  0  0  0  0  0
    3.0754   -0.3985    1.1394 C   0  0  0  0  0  0  0  0  0  0  0  0
    3.7217   -1.0854   -1.4211 C   0  0  0  0  0  0  0  0  0  0  0  0
    4.6567   -0.6142   -0.5135 C   0  0  0  0  0  0  0  0  0  0  0  0
    6.8804    0.0033    0.0604 C   0  0  0  0  0  0  0  0  0  0  0  0
   -3.3378   -1.5626    1.4409 H   0  0  0  0  0  0  0  0  0  0  0  0
   -2.0037   -3.7696    0.0464 H   0  0  0  0  0  0  0  0  0  0  0  0
   -3.5581   -3.7174    0.8932 H   0  0  0  0  0  0  0  0  0  0  0  0
   -2.9747   -3.2625   -2.0199 H   0  0  0  0  0  0  0  0  0  0  0  0
   -4.3976   -4.0209   -1.2800 H   0  0  0  0  0  0  0  0  0  0  0  0
   -4.6423   -1.5285   -2.2071 H   0  0  0  0  0  0  0  0  0  0  0  0
   -5.2782   -1.8697   -0.5750 H   0  0  0  0  0  0  0  0  0  0  0  0
   -4.5477    0.6981   -0.9992 H   0  0  0  0  0  0  0  0  0  0  0  0
   -4.4846    0.2543    0.6914 H   0  0  0  0  0  0  0  0  0  0  0  0
   -2.0976    1.1495   -2.1198 H   0  0  0  0  0  0  0  0  0  0  0  0
   -3.2273    1.7823    1.9952 H   0  0  0  0  0  0  0  0  0  0  0  0
   -1.4396    3.4699    2.2168 H   0  0  0  0  0  0  0  0  0  0  0  0
    1.6621   -1.5756   -1.6979 H   0  0  0  0  0  0  0  0  0  0  0  0
    2.8953   -0.1060    2.1696 H   0  0  0  0  0  0  0  0  0  0  0  0
    4.0015   -1.3523   -2.4344 H   0  0  0  0  0  0  0  0  0  0  0  0
    7.8693    0.0489   -0.4053 H   0  0  0  0  0  0  0  0  0  0  0  0
    6.9427   -0.6747    0.9182 H   0  0  0  0  0  0  0  0  0  0  0  0
    6.6119    1.0154    0.3814 H   0  0  0  0  0  0  0  0  0  0  0  0
  1 19  1  0  0  0  0
  2 22  1  0  0  0  0
  3  7  1  0  0  0  0
  3 14  1  0  0  0  0
  4 26  1  0  0  0  0
  4 27  1  0  0  0  0
  5  9  1  0  0  0  0
  5 12  1  0  0  0  0
  5 13  1  0  0  0  0
  6 14  2  0  0  0  0
  6 18  1  0  0  0  0
  7 18  2  0  0  0  0
  8 24  1  0  0  0  0
  8 26  2  0  0  0  0
  9 10  1  0  0  0  0
  9 14  1  0  0  0  0
  9 28  1  0  0  0  0
 10 11  1  0  0  0  0
 10 29  1  0  0  0  0
 10 30  1  0  0  0  0
 11 12  1  0  0  0  0
 11 31  1  0  0  0  0
 11 32  1  0  0  0  0
 12 33  1  0  0  0  0
 12 34  1  0  0  0  0
 13 15  1  0  0  0  0
 13 35  1  0  0  0  0
 13 36  1  0  0  0  0
 15 16  2  0  0  0  0
 15 17  1  0  0  0  0
 16 19  1  0  0  0  0
 16 37  1  0  0  0  0
 17 20  2  0  0  0  0
 17 38  1  0  0  0  0
 18 21  1  0  0  0  0
 19 22  2  0  0  0  0
 20 22  1  0  0  0  0
 20 39  1  0  0  0  0
 21 23  1  0  0  0  0
 21 24  2  0  0  0  0
 23 25  2  0  0  0  0
 23 40  1  0  0  0  0
 24 41  1  0  0  0  0
 25 26  1  0  0  0  0
 25 42  1  0  0  0  0
 27 43  1  0  0  0  0
 27 44  1  0  0  0  0
 27 45  1  0  0  0  0
M  END
> <PUBCHEM_COMPOUND_CID>
45783691

> <PUBCHEM_CONFORMER_RMSD>
0.8

> <PUBCHEM_CONFORMER_DIVERSEORDER>
1
157
13
38
61
153
80
90
76
26
113
106
15
124
149
27
62
52
161
148
141
63
100
114
159
127
86
34
134
47
95
99
116
31
64
132
46
29
98
65
123
75
154
131
145
156
19
58
103
28
4
121
150
12
110
92
101
136
50
143
60
40
160
30
49
68
107
57
162
71
105
20
130
108
32
3
74
146
18
56
91
142
87
41
112
111
117
8
83
72
115
37
24
55
79
97
135
88
73
158
10
122
128
45
48
126
17
6
2
77
102
42
147
53
70
104
139
133
69
118
96
54
82
25
125
138
109
129
43
151
140
9
119
66
94
16
36
137
59
144
33
5
155
120
85
93
44
14
152
81
78
89
84
22
21
35
7
67
23
39
11
51

> <PUBCHEM_MMFF94_PARTIAL_CHARGES>
31
1 -0.19
12 0.27
13 0.41
14 0.3
15 -0.14
16 -0.15
17 -0.15
18 0.46
19 0.19
2 -0.19
20 -0.15
21 0.05
22 0.19
23 -0.15
24 0.16
25 -0.15
26 0.39
27 0.28
3 -0.02
37 0.15
38 0.15
39 0.15
4 -0.36
40 0.15
41 0.15
42 0.15
5 -0.81
6 -0.57
7 -0.41
8 -0.62
9 0.45

> <PUBCHEM_EFFECTIVE_ROTOR_COUNT>
6

> <PUBCHEM_PHARMACOPHORE_FEATURES>
6
1 5 cation
3 6 7 18 cation
5 3 6 7 14 18 rings
5 5 9 10 11 12 rings
6 15 16 17 19 20 22 rings
6 8 21 23 24 25 26 rings

> <PUBCHEM_HEAVY_ATOM_COUNT>
27

> <PUBCHEM_ATOM_DEF_STEREO_COUNT>
1

> <PUBCHEM_ATOM_UDEF_STEREO_COUNT>
0

> <PUBCHEM_BOND_DEF_STEREO_COUNT>
0

> <PUBCHEM_BOND_UDEF_STEREO_COUNT>
0

> <PUBCHEM_ISOTOPIC_ATOM_COUNT>
0

> <PUBCHEM_COMPONENT_COUNT>
1

> <PUBCHEM_CACTVS_TAUTO_COUNT>
1

> <PUBCHEM_CONFORMER_ID>
02BA9A8B00000001

> <PUBCHEM_MMFF94_ENERGY>
55.6126

> <PUBCHEM_FEATURE_SELFOVERLAP>
30.449

> <PUBCHEM_SHAPE_FINGERPRINT>
10498660 4 18264199227777094829
10871710 139 18041277647924722933
10937287 8 17619349801382732240
1100329 8 18410857677191454553
11101153 10 18266467688560491508
11477941 20 18412824724884181772
11488393 25 17184195479020540611
12166972 35 17096089215620712798
12788726 201 18334286544243989107
13761468 95 17537172350073095820
13994607 96 17459210519911082297
14142880 1 18117569431297991761
14713325 29 18271249322162493406
14790565 3 17980478967309725953
14910302 57 18130224839982160854
14955137 171 18339098038046138547
15463212 79 18263083210490059642
15849732 13 18272101487567601051
15876981 60 18335145327381355566
15961568 22 18266168629898227640
17357779 13 18271228521814882727
17492 54 18042667439639278589
17818456 19 17975113363255467474
20642791 239 17968082145578180469
20775438 99 17043426105081572071
20905425 154 17905325479228880269
21033650 10 18190765050235865910
21344244 246 17691960883597428191
21623110 236 18263093239655725708
23402539 116 18334857242550611622
23419403 2 17758637377751050141
23557571 272 18342738520164970270
238 59 16531707316319591685
4280585 95 18337940289980817034
469060 322 17750540432442954193
531348 171 18269563732715514470
57527585 103 17316491892043980721
7399639 24 17916568960554391218
7471813 234 18264773344930296822

> <PUBCHEM_SHAPE_MULTIPOLES>
509.44
10.29
4.17
1.58
19.02
3.16
0.08
-5.36
-2.51
-5.15
-0.58
-0.11
0.17
-0.4

> <PUBCHEM_SHAPE_SELFOVERLAP>
1111.362

> <PUBCHEM_SHAPE_VOLUME>
280.3

> <PUBCHEM_COORDINATE_TYPE>
2
5
10

$$$$
