11883074
  -OEChem-12032416133D

 74 78  0     1  0  0  0  0  0999 V2000
    0.4491   -3.7654    0.2050 S   0  0  0  0  0  0  0  0  0  0  0  0
    7.0228    0.4329   -0.6836 O   0  0  0  0  0  0  0  0  0  0  0  0
    7.1586   -1.3697    0.8902 O   0  0  0  0  0  0  0  0  0  0  0  0
   -0.8329    0.9794   -1.5483 O   0  0  0  0  0  0  0  0  0  0  0  0
   -3.5948   -1.5716   -0.2422 O   0  0  0  0  0  0  0  0  0  0  0  0
   -2.2354    7.0472   -0.9866 O   0  0  0  0  0  0  0  0  0  0  0  0
   -4.2811   -5.0281    0.1700 O   0  0  0  0  0  0  0  0  0  0  0  0
   -0.6837   -1.4591   -0.0953 N   0  0  0  0  0  0  0  0  0  0  0  0
   -1.6767    2.4891    0.0029 N   0  0  0  0  0  0  0  0  0  0  0  0
   -2.1380   -3.3774    0.0264 N   0  0  0  0  0  0  0  0  0  0  0  0
   -3.4012    7.3538    0.9733 N   0  0  0  0  0  0  0  0  0  0  0  0
    2.7909    0.1579    0.3287 C   0  0  2  0  0  0  0  0  0  0  0  0
    3.5383   -1.0925   -0.3141 C   0  0  1  0  0  0  0  0  0  0  0  0
    5.1154   -1.0640   -0.3094 C   0  0  1  0  0  0  0  0  0  0  0  0
    1.2719    0.1326   -0.1669 C   0  0  1  0  0  0  0  0  0  0  0  0
    3.4485    1.4679   -0.1778 C   0  0  0  0  0  0  0  0  0  0  0  0
    5.6039    0.3290   -0.7984 C   0  0  1  0  0  0  0  0  0  0  0  0
    2.9340   -2.4361    0.1884 C   0  0  0  0  0  0  0  0  0  0  0  0
    4.9644    1.4891   -0.0436 C   0  0  0  0  0  0  0  0  0  0  0  0
    2.8276    0.1498    1.8768 C   0  0  0  0  0  0  0  0  0  0  0  0
    0.6811   -1.2475   -0.0332 C   0  0  0  0  0  0  0  0  0  0  0  0
    5.7586   -1.4282    1.0471 C   0  0  0  0  0  0  0  0  0  0  0  0
    5.6445   -2.1206   -1.3200 C   0  0  0  0  0  0  0  0  0  0  0  0
    1.4456   -2.3878    0.1069 C   0  0  0  0  0  0  0  0  0  0  0  0
    0.3721    1.1940    0.4801 C   0  0  0  0  0  0  0  0  0  0  0  0
   -0.7631    1.5383   -0.4507 C   0  0  0  0  0  0  0  0  0  0  0  0
   -0.9221   -2.7470    0.0266 C   0  0  0  0  0  0  0  0  0  0  0  0
   -1.6198    3.1703    1.3022 C   0  0  0  0  0  0  0  0  0  0  0  0
   -2.8281    2.8481   -0.8273 C   0  0  0  0  0  0  0  0  0  0  0  0
   -1.6535    4.6863    1.1196 C   0  0  0  0  0  0  0  0  0  0  0  0
   -2.8870    4.3564   -1.0544 C   0  0  0  0  0  0  0  0  0  0  0  0
   -2.8560    5.1158    0.2748 C   0  0  0  0  0  0  0  0  0  0  0  0
   -3.4110   -2.7790   -0.1056 C   0  0  0  0  0  0  0  0  0  0  0  0
   -2.7953    6.5876    0.0057 C   0  0  0  0  0  0  0  0  0  0  0  0
   -4.5503   -3.7103   -0.0221 C   0  0  0  0  0  0  0  0  0  0  0  0
   -5.9073   -3.5013   -0.1039 C   0  0  0  0  0  0  0  0  0  0  0  0
   -6.5108   -4.7723    0.0476 C   0  0  0  0  0  0  0  0  0  0  0  0
   -5.4795   -5.6676    0.2113 C   0  0  0  0  0  0  0  0  0  0  0  0
    3.2742   -1.0375   -1.3847 H   0  0  0  0  0  0  0  0  0  0  0  0
    1.3314    0.3150   -1.2501 H   0  0  0  0  0  0  0  0  0  0  0  0
    3.1980    1.6201   -1.2360 H   0  0  0  0  0  0  0  0  0  0  0  0
    3.0497    2.3368    0.3579 H   0  0  0  0  0  0  0  0  0  0  0  0
    5.3660    0.4353   -1.8651 H   0  0  0  0  0  0  0  0  0  0  0  0
    3.2287   -2.6350    1.2241 H   0  0  0  0  0  0  0  0  0  0  0  0
    3.3010   -3.2664   -0.4241 H   0  0  0  0  0  0  0  0  0  0  0  0
    5.3471    2.4364   -0.4452 H   0  0  0  0  0  0  0  0  0  0  0  0
    5.2717    1.4843    1.0080 H   0  0  0  0  0  0  0  0  0  0  0  0
    2.3768   -0.7506    2.3031 H   0  0  0  0  0  0  0  0  0  0  0  0
    3.8346    0.2381    2.2792 H   0  0  0  0  0  0  0  0  0  0  0  0
    2.2791    1.0035    2.2903 H   0  0  0  0  0  0  0  0  0  0  0  0
    5.4962   -0.7356    1.8427 H   0  0  0  0  0  0  0  0  0  0  0  0
    5.4917   -2.4405    1.3655 H   0  0  0  0  0  0  0  0  0  0  0  0
    6.7238   -2.0338   -1.4886 H   0  0  0  0  0  0  0  0  0  0  0  0
    5.4550   -3.1432   -0.9773 H   0  0  0  0  0  0  0  0  0  0  0  0
    5.1627   -2.0038   -2.2977 H   0  0  0  0  0  0  0  0  0  0  0  0
    0.9266    2.1206    0.6519 H   0  0  0  0  0  0  0  0  0  0  0  0
   -0.0330    0.8366    1.4338 H   0  0  0  0  0  0  0  0  0  0  0  0
    7.2850    1.2977   -1.0426 H   0  0  0  0  0  0  0  0  0  0  0  0
    7.5563   -1.6094    1.7444 H   0  0  0  0  0  0  0  0  0  0  0  0
   -2.4903    2.8368    1.8796 H   0  0  0  0  0  0  0  0  0  0  0  0
   -0.7318    2.8971    1.8744 H   0  0  0  0  0  0  0  0  0  0  0  0
   -2.7914    2.3302   -1.7910 H   0  0  0  0  0  0  0  0  0  0  0  0
   -3.7283    2.5030   -0.3051 H   0  0  0  0  0  0  0  0  0  0  0  0
   -2.0977   -4.3872    0.1409 H   0  0  0  0  0  0  0  0  0  0  0  0
   -0.7235    5.0140    0.6358 H   0  0  0  0  0  0  0  0  0  0  0  0
   -1.6841    5.1745    2.1010 H   0  0  0  0  0  0  0  0  0  0  0  0
   -3.7926    4.6117   -1.6177 H   0  0  0  0  0  0  0  0  0  0  0  0
   -2.0328    4.6462   -1.6809 H   0  0  0  0  0  0  0  0  0  0  0  0
   -3.7796    4.8887    0.8240 H   0  0  0  0  0  0  0  0  0  0  0  0
   -3.4191    8.3657    0.9013 H   0  0  0  0  0  0  0  0  0  0  0  0
   -3.8458    6.9485    1.7908 H   0  0  0  0  0  0  0  0  0  0  0  0
   -6.4043   -2.5533   -0.2539 H   0  0  0  0  0  0  0  0  0  0  0  0
   -7.5654   -5.0068    0.0386 H   0  0  0  0  0  0  0  0  0  0  0  0
   -5.4338   -6.7365    0.3604 H   0  0  0  0  0  0  0  0  0  0  0  0
  1 24  1  0  0  0  0
  1 27  1  0  0  0  0
  2 17  1  0  0  0  0
  2 58  1  0  0  0  0
  3 22  1  0  0  0  0
  3 59  1  0  0  0  0
  4 26  2  0  0  0  0
  5 33  2  0  0  0  0
  6 34  2  0  0  0  0
  7 35  1  0  0  0  0
  7 38  1  0  0  0  0
  8 21  1  0  0  0  0
  8 27  2  0  0  0  0
  9 26  1  0  0  0  0
  9 28  1  0  0  0  0
  9 29  1  0  0  0  0
 10 27  1  0  0  0  0
 10 33  1  0  0  0  0
 10 64  1  0  0  0  0
 11 34  1  0  0  0  0
 11 70  1  0  0  0  0
 11 71  1  0  0  0  0
 12 13  1  0  0  0  0
 12 15  1  0  0  0  0
 12 16  1  0  0  0  0
 12 20  1  0  0  0  0
 13 14  1  0  0  0  0
 13 18  1  0  0  0  0
 13 39  1  0  0  0  0
 14 17  1  0  0  0  0
 14 22  1  0  0  0  0
 14 23  1  0  0  0  0
 15 21  1  0  0  0  0
 15 25  1  0  0  0  0
 15 40  1  0  0  0  0
 16 19  1  0  0  0  0
 16 41  1  0  0  0  0
 16 42  1  0  0  0  0
 17 19  1  0  0  0  0
 17 43  1  0  0  0  0
 18 24  1  0  0  0  0
 18 44  1  0  0  0  0
 18 45  1  0  0  0  0
 19 46  1  0  0  0  0
 19 47  1  0  0  0  0
 20 48  1  0  0  0  0
 20 49  1  0  0  0  0
 20 50  1  0  0  0  0
 21 24  2  0  0  0  0
 22 51  1  0  0  0  0
 22 52  1  0  0  0  0
 23 53  1  0  0  0  0
 23 54  1  0  0  0  0
 23 55  1  0  0  0  0
 25 26  1  0  0  0  0
 25 56  1  0  0  0  0
 25 57  1  0  0  0  0
 28 30  1  0  0  0  0
 28 60  1  0  0  0  0
 28 61  1  0  0  0  0
 29 31  1  0  0  0  0
 29 62  1  0  0  0  0
 29 63  1  0  0  0  0
 30 32  1  0  0  0  0
 30 65  1  0  0  0  0
 30 66  1  0  0  0  0
 31 32  1  0  0  0  0
 31 67  1  0  0  0  0
 31 68  1  0  0  0  0
 32 34  1  0  0  0  0
 32 69  1  0  0  0  0
 33 35  1  0  0  0  0
 35 36  2  0  0  0  0
 36 37  1  0  0  0  0
 36 72  1  0  0  0  0
 37 38  2  0  0  0  0
 37 73  1  0  0  0  0
 38 74  1  0  0  0  0
M  END
> <PUBCHEM_COMPOUND_CID>
11883074

> <PUBCHEM_CONFORMER_RMSD>
1.2

> <PUBCHEM_CONFORMER_DIVERSEORDER>
1
15
4
17
6
12
10
7
11
14
13
16
5
8
9
3
2

> <PUBCHEM_MMFF94_PARTIAL_CHARGES>
37
1 -0.08
10 -0.49
11 -0.8
15 0.18
17 0.28
18 0.18
2 -0.68
21 0.05
22 0.28
24 -0.14
25 0.06
26 0.57
27 0.44
28 0.3
29 0.3
3 -0.68
32 0.06
33 0.71
34 0.57
35 0.05
36 -0.15
37 -0.15
38 -0.01
4 -0.57
5 -0.57
58 0.4
59 0.4
6 -0.57
64 0.37
7 -0.28
70 0.37
71 0.37
72 0.15
73 0.15
74 0.15
8 -0.57
9 -0.66

> <PUBCHEM_EFFECTIVE_ROTOR_COUNT>
10.4

> <PUBCHEM_PHARMACOPHORE_FEATURES>
15
1 10 donor
1 11 donor
1 2 acceptor
1 2 donor
1 3 acceptor
1 3 donor
1 4 acceptor
1 5 acceptor
1 6 acceptor
1 7 acceptor
5 1 8 21 24 27 rings
5 7 35 36 37 38 rings
6 12 13 14 16 17 19 rings
6 12 13 15 18 21 24 rings
6 9 28 29 30 31 32 rings

> <PUBCHEM_HEAVY_ATOM_COUNT>
38

> <PUBCHEM_ATOM_DEF_STEREO_COUNT>
5

> <PUBCHEM_ATOM_UDEF_STEREO_COUNT>
0

> <PUBCHEM_BOND_DEF_STEREO_COUNT>
0

> <PUBCHEM_BOND_UDEF_STEREO_COUNT>
0

> <PUBCHEM_ISOTOPIC_ATOM_COUNT>
0

> <PUBCHEM_COMPONENT_COUNT>
1

> <PUBCHEM_CACTVS_TAUTO_COUNT>
6

> <PUBCHEM_CONFORMER_ID>
00B5524200000001

> <PUBCHEM_MMFF94_ENERGY>
102.9661

> <PUBCHEM_FEATURE_SELFOVERLAP>
76.272

> <PUBCHEM_SHAPE_FINGERPRINT>
10050765 1 18338235947947952230
102385 1 18194403294846236926
10411042 1 18266458887507960903
10985338 1 17103100518425268413
11297750 10 18201432644992127408
11411753 3 18131068187772092206
12166972 35 17896316007462589255
12218070 45 18128562417899552569
12516196 113 18194119844099881646
12677640 9 18410576158717042628
12788726 201 18334287708364710314
13248334 5 17546164568434622845
13540713 5 18114461151076950826
13617811 41 17977388558051542468
13835254 42 18339080501019415774
14068700 675 18262238936136678934
14394314 77 18267031733455863929
14400156 413 18122049073333943917
14790565 3 17906171746457960700
14849402 71 17834685177260006739
14910700 183 16896507698972299579
14955137 171 18049442840221467519
15081414 286 17979911941046556055
15198563 99 18411987987438704701
15200665 1 18337113346079302929
15347591 1 18338798919787426278
15400415 2 17834113043954804585
15439362 3 17764024671700772870
15483637 11 18339364058923643058
15484559 13 17262439500864368966
15927050 60 18121783816085566962
15968369 153 18128514106941413263
15980000 95 18266748072119493797
18365409 1 18336552595297155061
18681886 176 18124310768874423299
19319366 153 17334203538282854097
19427546 62 17761777264836953416
20238998 120 18194965364514861559
21133410 58 15958354828192269053
21716022 299 17826526740461977661
21796203 349 17756749503907497129
23576562 1 18260561017865028124
23845131 108 17978507525300368409
24771293 8 17481414298594227890
24771750 20 16892864501705635821
283562 15 18334295383408276170
3103668 31 18408321082338357775
3534868 343 18190190173010200956
3627633 1 18411140255689832733
4058900 60 17621323433281130176
6058803 2 18187364273661454770
6677587 24 15654879898680828175
6695519 79 17695087508721615345
6697151 62 17978202153727789407
6700243 42 17984175679714443468
77188 2 18194683898260051677

> <PUBCHEM_SHAPE_MULTIPOLES>
730.73
14.46
11.45
1.07
9.77
20.98
0.12
-17.94
-0.67
-27.74
0.64
0.62
0.68
0.1

> <PUBCHEM_SHAPE_SELFOVERLAP>
1555.563

> <PUBCHEM_SHAPE_VOLUME>
408.8

> <PUBCHEM_COORDINATE_TYPE>
2
5
10

$$$$
