75367746
  -OEChem-12032416383D

 50 52  0     1  0  0  0  0  0999 V2000
    1.4215    1.3315    1.2146 S   0  0  0  0  0  0  0  0  0  0  0  0
    0.2750   -3.2100    0.6649 O   0  0  0  0  0  0  0  0  0  0  0  0
   -2.0631   -1.0997   -1.2102 O   0  0  0  0  0  0  0  0  0  0  0  0
    1.7549    1.5581    2.6028 O   0  0  0  0  0  0  0  0  0  0  0  0
    0.6695    2.3053    0.4557 O   0  0  0  0  0  0  0  0  0  0  0  0
    6.4461    0.2237   -1.7036 O   0  0  0  0  0  0  0  0  0  0  0  0
   -6.9917    1.0995   -0.0572 O   0  0  0  0  0  0  0  0  0  0  0  0
    0.6503   -0.1964    1.0708 N   0  0  1  0  0  0  0  0  0  0  0  0
    0.0619   -0.4895   -0.2710 C   0  0  0  0  0  0  0  0  0  0  0  0
   -1.1955   -1.3381   -0.1024 C   0  0  2  0  0  0  0  0  0  0  0  0
    1.4039   -1.3380    1.6692 C   0  0  0  0  0  0  0  0  0  0  0  0
   -0.9198   -2.8407   -0.0098 C   0  0  0  0  0  0  0  0  0  0  0  0
    0.4999   -2.5418    1.9001 C   0  0  0  0  0  0  0  0  0  0  0  0
    2.9193    0.9986    0.3433 C   0  0  0  0  0  0  0  0  0  0  0  0
   -3.2848   -0.5545   -0.9244 C   0  0  0  0  0  0  0  0  0  0  0  0
    2.9934    1.2289   -1.0305 C   0  0  0  0  0  0  0  0  0  0  0  0
    4.0304    0.5080    1.0293 C   0  0  0  0  0  0  0  0  0  0  0  0
    4.1787    0.9686   -1.7182 C   0  0  0  0  0  0  0  0  0  0  0  0
    5.2156    0.2475    0.3414 C   0  0  0  0  0  0  0  0  0  0  0  0
    5.2897    0.4777   -1.0324 C   0  0  0  0  0  0  0  0  0  0  0  0
   -3.3643    0.6904   -0.3002 C   0  0  0  0  0  0  0  0  0  0  0  0
   -4.4511   -1.2435   -1.2574 C   0  0  0  0  0  0  0  0  0  0  0  0
   -4.6099    1.2462   -0.0088 C   0  0  0  0  0  0  0  0  0  0  0  0
   -5.6968   -0.6877   -0.9659 C   0  0  0  0  0  0  0  0  0  0  0  0
   -5.7762    0.5571   -0.3416 C   0  0  0  0  0  0  0  0  0  0  0  0
    7.5432   -0.2765   -0.9404 C   0  0  0  0  0  0  0  0  0  0  0  0
   -6.9998    2.3753    0.5818 C   0  0  0  0  0  0  0  0  0  0  0  0
    0.7951   -0.9899   -0.9145 H   0  0  0  0  0  0  0  0  0  0  0  0
   -0.2106    0.4386   -0.7827 H   0  0  0  0  0  0  0  0  0  0  0  0
   -1.6882   -1.0441    0.8360 H   0  0  0  0  0  0  0  0  0  0  0  0
    1.8071   -1.0339    2.6406 H   0  0  0  0  0  0  0  0  0  0  0  0
    2.2272   -1.6278    1.0083 H   0  0  0  0  0  0  0  0  0  0  0  0
   -1.7676   -3.3429    0.4724 H   0  0  0  0  0  0  0  0  0  0  0  0
   -0.8603   -3.2710   -1.0166 H   0  0  0  0  0  0  0  0  0  0  0  0
    1.0315   -3.2535    2.5410 H   0  0  0  0  0  0  0  0  0  0  0  0
   -0.4382   -2.2871    2.4065 H   0  0  0  0  0  0  0  0  0  0  0  0
    2.1398    1.6072   -1.5856 H   0  0  0  0  0  0  0  0  0  0  0  0
    3.9957    0.3216    2.0990 H   0  0  0  0  0  0  0  0  0  0  0  0
    4.2303    1.1490   -2.7885 H   0  0  0  0  0  0  0  0  0  0  0  0
    6.0397   -0.1324    0.9354 H   0  0  0  0  0  0  0  0  0  0  0  0
   -2.4656    1.2439   -0.0425 H   0  0  0  0  0  0  0  0  0  0  0  0
   -4.3950   -2.2138   -1.7433 H   0  0  0  0  0  0  0  0  0  0  0  0
   -4.5990    2.2169    0.4751 H   0  0  0  0  0  0  0  0  0  0  0  0
   -6.6018   -1.2292   -1.2274 H   0  0  0  0  0  0  0  0  0  0  0  0
    8.3789   -0.4217   -1.6327 H   0  0  0  0  0  0  0  0  0  0  0  0
    7.3164   -1.2549   -0.5035 H   0  0  0  0  0  0  0  0  0  0  0  0
    7.8734    0.4478   -0.1881 H   0  0  0  0  0  0  0  0  0  0  0  0
   -8.0477    2.6543    0.7331 H   0  0  0  0  0  0  0  0  0  0  0  0
   -6.5523    3.1467   -0.0541 H   0  0  0  0  0  0  0  0  0  0  0  0
   -6.5343    2.3322    1.5724 H   0  0  0  0  0  0  0  0  0  0  0  0
  1  4  2  0  0  0  0
  1  5  2  0  0  0  0
  1  8  1  0  0  0  0
  1 14  1  0  0  0  0
  2 12  1  0  0  0  0
  2 13  1  0  0  0  0
  3 10  1  0  0  0  0
  3 15  1  0  0  0  0
  6 20  1  0  0  0  0
  6 26  1  0  0  0  0
  7 25  1  0  0  0  0
  7 27  1  0  0  0  0
  8  9  1  0  0  0  0
  8 11  1  0  0  0  0
  9 10  1  0  0  0  0
  9 28  1  0  0  0  0
  9 29  1  0  0  0  0
 10 12  1  0  0  0  0
 10 30  1  0  0  0  0
 11 13  1  0  0  0  0
 11 31  1  0  0  0  0
 11 32  1  0  0  0  0
 12 33  1  0  0  0  0
 12 34  1  0  0  0  0
 13 35  1  0  0  0  0
 13 36  1  0  0  0  0
 14 16  2  0  0  0  0
 14 17  1  0  0  0  0
 15 21  2  0  0  0  0
 15 22  1  0  0  0  0
 16 18  1  0  0  0  0
 16 37  1  0  0  0  0
 17 19  2  0  0  0  0
 17 38  1  0  0  0  0
 18 20  2  0  0  0  0
 18 39  1  0  0  0  0
 19 20  1  0  0  0  0
 19 40  1  0  0  0  0
 21 23  1  0  0  0  0
 21 41  1  0  0  0  0
 22 24  2  0  0  0  0
 22 42  1  0  0  0  0
 23 25  2  0  0  0  0
 23 43  1  0  0  0  0
 24 25  1  0  0  0  0
 24 44  1  0  0  0  0
 26 45  1  0  0  0  0
 26 46  1  0  0  0  0
 26 47  1  0  0  0  0
 27 48  1  0  0  0  0
 27 49  1  0  0  0  0
 27 50  1  0  0  0  0
M  END
> <PUBCHEM_COMPOUND_CID>
75367746

> <PUBCHEM_CONFORMER_RMSD>
0.8

> <PUBCHEM_CONFORMER_DIVERSEORDER>
1
141
236
243
18
44
98
125
262
62
132
192
160
197
234
142
122
79
264
164
188
154
212
161
184
207
73
123
146
152
105
274
64
78
186
150
25
57
178
33
260
227
272
196
251
111
241
63
233
145
32
255
91
208
183
82
167
240
182
259
151
165
267
75
252
77
263
26
201
261
104
38
55
206
202
269
110
144
135
163
131
253
245
159
239
230
271
194
31
232
235
156
225
88
153
28
85
200
147
68
133
216
158
221
273
84
30
60
268
162
48
209
43
117
199
211
50
248
187
17
149
137
226
217
256
229
9
258
174
103
29
134
15
21
175
27
275
121
176
203
210
143
265
270
139
114
70
120
257
191
228
173
169
157
89
107
66
242
128
97
193
34
3
127
249
238
37
266
19
45
155
138
40
213
113
76
36
54
74
58
93
80
247
108
61
53
205
246
96
244
219
231
112
195
214
124
168
5
42
11
254
181
24
90
224
148
86
237
12
83
189
99
170
8
222
102
49
250
10
218
47
51
101
59
4
180
136
39
115
116
67
16
140
119
92
95
46
185
276
52
71
130
56
81
126
179
100
22
35
23
220
14
20
171
87
118
7
223
129
72
215
166
106
13
177
198
2
109
65
172
69
190
204
94
6
41

> <PUBCHEM_MMFF94_PARTIAL_CHARGES>
35
1 1.45
10 0.28
11 0.36
12 0.28
13 0.28
14 -0.01
15 0.08
16 -0.15
17 -0.15
18 -0.15
19 -0.15
2 -0.56
20 0.08
21 -0.15
22 -0.15
23 -0.15
24 -0.15
25 0.08
26 0.28
27 0.28
3 -0.36
37 0.15
38 0.15
39 0.15
4 -0.65
40 0.15
41 0.15
42 0.15
43 0.15
44 0.15
5 -0.65
6 -0.36
7 -0.36
8 -0.85
9 0.36

> <PUBCHEM_EFFECTIVE_ROTOR_COUNT>
7.4

> <PUBCHEM_PHARMACOPHORE_FEATURES>
9
1 2 acceptor
1 3 acceptor
1 4 acceptor
1 5 acceptor
1 6 acceptor
1 7 acceptor
6 14 16 17 18 19 20 rings
6 15 21 22 23 24 25 rings
7 2 8 9 10 11 12 13 rings

> <PUBCHEM_HEAVY_ATOM_COUNT>
27

> <PUBCHEM_ATOM_DEF_STEREO_COUNT>
1

> <PUBCHEM_ATOM_UDEF_STEREO_COUNT>
0

> <PUBCHEM_BOND_DEF_STEREO_COUNT>
0

> <PUBCHEM_BOND_UDEF_STEREO_COUNT>
0

> <PUBCHEM_ISOTOPIC_ATOM_COUNT>
0

> <PUBCHEM_COMPONENT_COUNT>
1

> <PUBCHEM_CACTVS_TAUTO_COUNT>
1

> <PUBCHEM_CONFORMER_ID>
047E054200000001

> <PUBCHEM_MMFF94_ENERGY>
94.2942

> <PUBCHEM_FEATURE_SELFOVERLAP>
45.694

> <PUBCHEM_SHAPE_FINGERPRINT>
10165383 225 18187086148036184943
10447042 23 13542467592004559700
10483366 6 18342462504608676950
10613725 11 18413672422299337398
10670039 82 18412542090076474661
10674148 151 18272089383980508216
11578080 2 17972884941360457652
11720765 8 15985096444482773112
11796584 16 16415476081956981814
11828532 37 17631164368257085717
1200032 147 18198635337461522385
12516196 113 10879994653036754030
12623949 98 12685355306752846872
12730499 353 14562525172647861376
12788726 201 18271248223236077680
128238 76 8646480821939537490
13782708 43 15768640070575152031
14840074 17 17312818303663193951
15052358 14 18131355219444583870
15183329 4 17704076170189993670
15188451 53 13901917670363025230
15475509 8 18342179955631718524
15575132 122 17603577517835967973
17349148 13 13685750488285156268
19309040 13 15722241779558208670
20465049 17 18342176691593294985
20567600 70 10375575019630489845
20621476 91 9295292707351313782
21365058 27 16443350875016720898
21458453 9 11530781326410673276
22079108 93 13406791147240160140
22224240 67 12468357972548631524
22393880 68 18059562616842216473
23559900 14 16844999208758266185
2637199 183 18336820974470095803
3004659 81 18343584058230123332
3009799 131 17203611493272900740
339767 52 11312056560571137181
38570 142 18410296891500591259
4058900 60 18041275449212411483
4149490 64 10879120563748905237
4340502 62 14056716838131457112
44062 13 17702943784972751486
444735 79 11025798708379570088
504579 68 18200857545071786167
508180 173 18060700593785704777
5385378 56 18262236616775483819
59682541 35 11170205275811552524
59755656 215 17989207014884735101
59755656 520 18261109694845857527
613672 6 11599730635310197653
633830 44 18128237060513788973
8988823 20 13830128417049184546
9689198 14 15719395031941471422

> <PUBCHEM_SHAPE_MULTIPOLES>
519.3
17.19
2.56
1.73
5.01
1.54
0.49
-8.41
-7.01
1.8
0.97
-1.66
0.01
-1.3

> <PUBCHEM_SHAPE_SELFOVERLAP>
1082.64

> <PUBCHEM_SHAPE_VOLUME>
294.9

> <PUBCHEM_COORDINATE_TYPE>
2
5
10

$$$$
