51137522
  -OEChem-12032416203D

 50 53  0     1  0  0  0  0  0999 V2000
   -8.9303    1.6344    0.6346 Cl  0  0  0  0  0  0  0  0  0  0  0  0
    1.2903   -1.1405    0.1497 O   0  0  0  0  0  0  0  0  0  0  0  0
   -2.7274   -0.7309   -0.2339 N   0  0  1  0  0  0  0  0  0  0  0  0
    1.3017   -3.3734    0.0157 N   0  0  0  0  0  0  0  0  0  0  0  0
    2.6104   -2.9344   -0.0589 N   0  0  0  0  0  0  0  0  0  0  0  0
    6.6724    2.2200   -0.0638 N   0  0  0  0  0  0  0  0  0  0  0  0
   -0.9339   -2.1586    0.2603 C   0  0  1  0  0  0  0  0  0  0  0  0
   -1.4177   -1.4744    1.5507 C   0  0  0  0  0  0  0  0  0  0  0  0
   -1.5559   -1.3330   -0.8739 C   0  0  0  0  0  0  0  0  0  0  0  0
   -2.2558   -0.2928    1.0798 C   0  0  0  0  0  0  0  0  0  0  0  0
   -3.2862    0.3627   -1.0150 C   0  0  0  0  0  0  0  0  0  0  0  0
    0.5663   -2.2930    0.1369 C   0  0  0  0  0  0  0  0  0  0  0  0
   -4.6985    0.6820   -0.6024 C   0  0  0  0  0  0  0  0  0  0  0  0
    2.5557   -1.6255    0.0231 C   0  0  0  0  0  0  0  0  0  0  0  0
   -5.7687    0.0371   -1.2227 C   0  0  0  0  0  0  0  0  0  0  0  0
   -4.9371    1.6221    0.4000 C   0  0  0  0  0  0  0  0  0  0  0  0
    3.6036   -0.6467    0.0009 C   0  0  0  0  0  0  0  0  0  0  0  0
   -7.0771    0.3326   -0.8408 C   0  0  0  0  0  0  0  0  0  0  0  0
   -6.2456    1.9176    0.7821 C   0  0  0  0  0  0  0  0  0  0  0  0
   -7.3156    1.2729    0.1615 C   0  0  0  0  0  0  0  0  0  0  0  0
    4.9328   -1.0505   -0.1250 C   0  0  0  0  0  0  0  0  0  0  0  0
    3.2935    0.7094    0.1048 C   0  0  0  0  0  0  0  0  0  0  0  0
    5.6418    1.2576   -0.0428 C   0  0  0  0  0  0  0  0  0  0  0  0
    5.9518   -0.0985   -0.1469 C   0  0  0  0  0  0  0  0  0  0  0  0
    4.3125    1.6615    0.0830 C   0  0  0  0  0  0  0  0  0  0  0  0
    8.0567    1.8103   -0.1931 C   0  0  0  0  0  0  0  0  0  0  0  0
    6.3604    3.6320    0.0360 C   0  0  0  0  0  0  0  0  0  0  0  0
   -1.3576   -3.1722    0.2366 H   0  0  0  0  0  0  0  0  0  0  0  0
   -2.0418   -2.1747    2.1200 H   0  0  0  0  0  0  0  0  0  0  0  0
   -0.6019   -1.1497    2.2052 H   0  0  0  0  0  0  0  0  0  0  0  0
   -1.8392   -1.9709   -1.7183 H   0  0  0  0  0  0  0  0  0  0  0  0
   -0.8631   -0.5650   -1.2425 H   0  0  0  0  0  0  0  0  0  0  0  0
   -1.6246    0.6027    1.0130 H   0  0  0  0  0  0  0  0  0  0  0  0
   -3.0717   -0.0977    1.7820 H   0  0  0  0  0  0  0  0  0  0  0  0
   -2.6616    1.2657   -0.9748 H   0  0  0  0  0  0  0  0  0  0  0  0
   -3.3116    0.0827   -2.0776 H   0  0  0  0  0  0  0  0  0  0  0  0
   -5.5967   -0.6992   -2.0034 H   0  0  0  0  0  0  0  0  0  0  0  0
   -4.1134    2.1362    0.8880 H   0  0  0  0  0  0  0  0  0  0  0  0
   -7.9012   -0.1784   -1.3322 H   0  0  0  0  0  0  0  0  0  0  0  0
   -6.4165    2.6529    1.5641 H   0  0  0  0  0  0  0  0  0  0  0  0
    5.1970   -2.1021   -0.2076 H   0  0  0  0  0  0  0  0  0  0  0  0
    2.2699    1.0620    0.2042 H   0  0  0  0  0  0  0  0  0  0  0  0
    6.9694   -0.4631   -0.2466 H   0  0  0  0  0  0  0  0  0  0  0  0
    4.0203    2.7036    0.1674 H   0  0  0  0  0  0  0  0  0  0  0  0
    8.3607    1.1722    0.6442 H   0  0  0  0  0  0  0  0  0  0  0  0
    8.2267    1.2826   -1.1381 H   0  0  0  0  0  0  0  0  0  0  0  0
    8.7355    2.6705   -0.1904 H   0  0  0  0  0  0  0  0  0  0  0  0
    5.7295    3.9580   -0.7985 H   0  0  0  0  0  0  0  0  0  0  0  0
    5.8624    3.8614    0.9847 H   0  0  0  0  0  0  0  0  0  0  0  0
    7.2647    4.2499    0.0022 H   0  0  0  0  0  0  0  0  0  0  0  0
  1 20  1  0  0  0  0
  2 12  1  0  0  0  0
  2 14  1  0  0  0  0
  3  9  1  0  0  0  0
  3 10  1  0  0  0  0
  3 11  1  0  0  0  0
  4  5  1  0  0  0  0
  4 12  2  0  0  0  0
  5 14  2  0  0  0  0
  6 23  1  0  0  0  0
  6 26  1  0  0  0  0
  6 27  1  0  0  0  0
  7  8  1  0  0  0  0
  7  9  1  0  0  0  0
  7 12  1  0  0  0  0
  7 28  1  0  0  0  0
  8 10  1  0  0  0  0
  8 29  1  0  0  0  0
  8 30  1  0  0  0  0
  9 31  1  0  0  0  0
  9 32  1  0  0  0  0
 10 33  1  0  0  0  0
 10 34  1  0  0  0  0
 11 13  1  0  0  0  0
 11 35  1  0  0  0  0
 11 36  1  0  0  0  0
 13 15  2  0  0  0  0
 13 16  1  0  0  0  0
 14 17  1  0  0  0  0
 15 18  1  0  0  0  0
 15 37  1  0  0  0  0
 16 19  2  0  0  0  0
 16 38  1  0  0  0  0
 17 21  2  0  0  0  0
 17 22  1  0  0  0  0
 18 20  2  0  0  0  0
 18 39  1  0  0  0  0
 19 20  1  0  0  0  0
 19 40  1  0  0  0  0
 21 24  1  0  0  0  0
 21 41  1  0  0  0  0
 22 25  2  0  0  0  0
 22 42  1  0  0  0  0
 23 24  2  0  0  0  0
 23 25  1  0  0  0  0
 24 43  1  0  0  0  0
 25 44  1  0  0  0  0
 26 45  1  0  0  0  0
 26 46  1  0  0  0  0
 26 47  1  0  0  0  0
 27 48  1  0  0  0  0
 27 49  1  0  0  0  0
 27 50  1  0  0  0  0
M  END
> <PUBCHEM_COMPOUND_CID>
51137522

> <PUBCHEM_CONFORMER_RMSD>
0.8

> <PUBCHEM_CONFORMER_DIVERSEORDER>
1
37
65
71
68
39
30
69
58
17
22
75
6
52
73
16
50
12
74
33
31
4
72
29
70
44
25
20
41
61
18
47
62
67
66
9
51
28
38
48
46
13
21
35
7
8
32
3
24
64
10
59
43
63
36
53
42
2
5
14
55
34
27
56
11
45
60
40
57
54
26
49
19
23
15

> <PUBCHEM_MMFF94_PARTIAL_CHARGES>
34
1 -0.18
10 0.27
11 0.41
12 0.3
13 -0.14
14 0.43
15 -0.15
16 -0.15
17 0.05
18 -0.15
19 -0.15
2 -0.28
20 0.18
21 -0.15
22 -0.15
23 0.1
24 -0.15
25 -0.15
26 0.37
27 0.37
3 -0.81
37 0.15
38 0.15
39 0.15
4 -0.34
40 0.15
41 0.15
42 0.15
43 0.15
44 0.15
5 -0.34
6 -0.84
7 0.18
9 0.27

> <PUBCHEM_EFFECTIVE_ROTOR_COUNT>
6

> <PUBCHEM_PHARMACOPHORE_FEATURES>
6
1 3 cation
1 6 cation
5 2 4 5 12 14 rings
5 3 7 8 9 10 rings
6 13 15 16 18 19 20 rings
6 17 21 22 23 24 25 rings

> <PUBCHEM_HEAVY_ATOM_COUNT>
27

> <PUBCHEM_ATOM_DEF_STEREO_COUNT>
1

> <PUBCHEM_ATOM_UDEF_STEREO_COUNT>
0

> <PUBCHEM_BOND_DEF_STEREO_COUNT>
0

> <PUBCHEM_BOND_UDEF_STEREO_COUNT>
0

> <PUBCHEM_ISOTOPIC_ATOM_COUNT>
0

> <PUBCHEM_COMPONENT_COUNT>
1

> <PUBCHEM_CACTVS_TAUTO_COUNT>
1

> <PUBCHEM_CONFORMER_ID>
030C4BF200000001

> <PUBCHEM_MMFF94_ENERGY>
73.3278

> <PUBCHEM_FEATURE_SELFOVERLAP>
30.449

> <PUBCHEM_SHAPE_FINGERPRINT>
10 15 17675925399838342017
10050765 1 18410292527672394002
10074138 170 16443638999014438051
10319688 67 16443349788838205937
10411042 1 17762055442239889906
10595046 47 18343015550652278935
10673678 19 18343024371887487399
11273773 38 18335986479921746260
11273773 42 18343579664209444053
11374522 155 18187935027244022949
117089 54 8790346455531980792
11828532 37 11599427161648796661
1200032 147 18333732429560087058
12035758 1 16950287299941340319
12633257 1 15864353588201095662
12821665 9 18340763836785594511
12838862 33 18338501019932629128
12895837 130 18270399528380427356
13248334 5 18194401091902664266
13540713 4 18265072330415865794
13673619 4 11312059846142055834
13690498 29 17416109802312214719
13885169 86 18335986457966459148
14142895 15 18412260641428093807
14251764 75 18336547209196973648
14294032 229 18199189670840953607
14394314 77 18341619170849087305
14428016 86 18410012131026574542
14565420 104 18114180804642619075
14617042 71 18411986832789528753
14681490 219 18343017744842997385
14849402 71 18412827997749747425
14931854 50 17846227678445175096
15183329 4 17060340712810495673
15475509 8 13901908891471348179
15519825 34 15575286518123533193
15685185 35 18339644567396010337
1577012 14 18343295968497114935
16087824 20 18409168814615671972
16126227 98 18411699924177255647
1768 4 18408891745995332105
17899979 129 18272377447305409974
18393751 57 17967250897323155235
19302320 297 18187083988280318140
19438510 23 18187362164404783970
20105231 36 11674864573975804672
20157964 124 18339080393392519491
20691028 202 18265894851402684452
20715895 44 18410856594949171864
20721686 124 18131355164233392246
21033648 144 18187635908335386335
21033648 29 17894636980524521978
21298829 104 18411982481169798484
21304303 64 18407758140811736781
21304304 249 9079113371191685649
21307412 95 12823290226358591901
21521721 280 18337113368055636851
21585481 104 17131567036970797081
21585482 111 18263643974632772717
22224240 67 17821731611903652643
23522609 53 17631462177110390073
24771293 8 18187082862950803757
25269216 80 17060045004813008445
270888 7 18410291445513409530
2748736 6 18411131468086693784
2838139 119 18335413530677083886
306946 40 17241034428809399429
3246875 12 18335140925435872795
335352 9 18410858725417020358
3472631 163 18344148098519714670
34797466 226 18130510713506289399
3711267 37 18130798807075647881
397830 11 18114476608500452899
4073 2 18334860520011754259
4366758 26 18341621407904790145
437815 12 10879990264118676235
445580 126 18411691072239109474
474113 269 7853575687071033265
5104073 3 17894623790838251122
5385378 56 18261107444594100562
543368 44 18412543194299255237
5470011 282 14117517684101931536
5718773 13 9583525312923569172
57303763 176 17916313728265832408
5758199 1 18409730655918040725
5911458 16 18060425677567276993
59682541 35 17822300085258772257
59682541 52 17203339871157058654
6327066 14 18411136987219597070
6608658 132 16916517947672536281
6712543 237 15574708101723983601
7970288 3 9151178645037294292
9980921 177 18261936498342391056

> <PUBCHEM_SHAPE_MULTIPOLES>
531.72
24.73
3.35
0.97
12.66
0.23
0.05
-25.34
-0.82
-4.92
0.34
1.32
0.08
-0.69

> <PUBCHEM_SHAPE_SELFOVERLAP>
1139.533

> <PUBCHEM_SHAPE_VOLUME>
299.4

> <PUBCHEM_COORDINATE_TYPE>
2
5
10

$$$$
