75367673
  -OEChem-12032416403D

 39 41  0     1  0  0  0  0  0999 V2000
   -0.7779   -3.1939   -0.6843 O   0  0  0  0  0  0  0  0  0  0  0  0
   -1.7871    0.2736   -0.9881 O   0  0  0  0  0  0  0  0  0  0  0  0
    3.4705   -1.7152    1.0682 O   0  0  0  0  0  0  0  0  0  0  0  0
    1.2256   -1.1872    0.6506 N   0  0  0  0  0  0  0  0  0  0  0  0
    2.6083    1.4624    0.9153 N   0  0  0  0  0  0  0  0  0  0  0  0
    4.3964    1.7263   -1.2293 N   0  0  0  0  0  0  0  0  0  0  0  0
   -1.0907   -0.7974   -0.3494 C   0  0  2  0  0  0  0  0  0  0  0  0
    0.2373   -0.2232    0.1522 C   0  0  0  0  0  0  0  0  0  0  0  0
    0.7538   -2.4997    1.0949 C   0  0  0  0  0  0  0  0  0  0  0  0
   -0.9132   -1.9403   -1.3467 C   0  0  0  0  0  0  0  0  0  0  0  0
    0.4967   -3.4197   -0.0917 C   0  0  0  0  0  0  0  0  0  0  0  0
    2.6054   -0.9266    0.6887 C   0  0  0  0  0  0  0  0  0  0  0  0
   -2.9845    0.6384   -0.4373 C   0  0  0  0  0  0  0  0  0  0  0  0
    3.0791    0.3932    0.2430 C   0  0  0  0  0  0  0  0  0  0  0  0
   -4.0228   -0.2888   -0.3485 C   0  0  0  0  0  0  0  0  0  0  0  0
   -3.1674    1.9378    0.0357 C   0  0  0  0  0  0  0  0  0  0  0  0
    3.9572    0.5230   -0.8105 C   0  0  0  0  0  0  0  0  0  0  0  0
   -5.2441    0.0834    0.2135 C   0  0  0  0  0  0  0  0  0  0  0  0
   -4.3886    2.3100    0.5977 C   0  0  0  0  0  0  0  0  0  0  0  0
   -5.4270    1.3828    0.6865 C   0  0  0  0  0  0  0  0  0  0  0  0
    3.0474    2.6657    0.4965 C   0  0  0  0  0  0  0  0  0  0  0  0
    3.9256    2.7954   -0.5569 C   0  0  0  0  0  0  0  0  0  0  0  0
   -1.6494   -1.1670    0.5216 H   0  0  0  0  0  0  0  0  0  0  0  0
    0.6884    0.3700   -0.6520 H   0  0  0  0  0  0  0  0  0  0  0  0
    0.0355    0.4813    0.9691 H   0  0  0  0  0  0  0  0  0  0  0  0
   -0.1369   -2.3637    1.7170 H   0  0  0  0  0  0  0  0  0  0  0  0
    1.5243   -2.9549    1.7267 H   0  0  0  0  0  0  0  0  0  0  0  0
   -1.8051   -2.0186   -1.9783 H   0  0  0  0  0  0  0  0  0  0  0  0
   -0.0725   -1.7681   -2.0300 H   0  0  0  0  0  0  0  0  0  0  0  0
    1.2820   -3.3477   -0.8534 H   0  0  0  0  0  0  0  0  0  0  0  0
    0.4836   -4.4549    0.2655 H   0  0  0  0  0  0  0  0  0  0  0  0
   -3.8998   -1.3021   -0.7202 H   0  0  0  0  0  0  0  0  0  0  0  0
   -2.3617    2.6638   -0.0304 H   0  0  0  0  0  0  0  0  0  0  0  0
    4.3386   -0.3309   -1.3582 H   0  0  0  0  0  0  0  0  0  0  0  0
   -6.0533   -0.6379    0.2809 H   0  0  0  0  0  0  0  0  0  0  0  0
   -4.5310    3.3217    0.9661 H   0  0  0  0  0  0  0  0  0  0  0  0
   -6.3780    1.6728    1.1236 H   0  0  0  0  0  0  0  0  0  0  0  0
    2.6693    3.5251    1.0360 H   0  0  0  0  0  0  0  0  0  0  0  0
    4.2778    3.7628   -0.8930 H   0  0  0  0  0  0  0  0  0  0  0  0
  1 10  1  0  0  0  0
  1 11  1  0  0  0  0
  2  7  1  0  0  0  0
  2 13  1  0  0  0  0
  3 12  2  0  0  0  0
  4  8  1  0  0  0  0
  4  9  1  0  0  0  0
  4 12  1  0  0  0  0
  5 14  2  0  0  0  0
  5 21  1  0  0  0  0
  6 17  2  0  0  0  0
  6 22  1  0  0  0  0
  7  8  1  0  0  0  0
  7 10  1  0  0  0  0
  7 23  1  0  0  0  0
  8 24  1  0  0  0  0
  8 25  1  0  0  0  0
  9 11  1  0  0  0  0
  9 26  1  0  0  0  0
  9 27  1  0  0  0  0
 10 28  1  0  0  0  0
 10 29  1  0  0  0  0
 11 30  1  0  0  0  0
 11 31  1  0  0  0  0
 12 14  1  0  0  0  0
 13 15  2  0  0  0  0
 13 16  1  0  0  0  0
 14 17  1  0  0  0  0
 15 18  1  0  0  0  0
 15 32  1  0  0  0  0
 16 19  2  0  0  0  0
 16 33  1  0  0  0  0
 17 34  1  0  0  0  0
 18 20  2  0  0  0  0
 18 35  1  0  0  0  0
 19 20  1  0  0  0  0
 19 36  1  0  0  0  0
 20 37  1  0  0  0  0
 21 22  2  0  0  0  0
 21 38  1  0  0  0  0
 22 39  1  0  0  0  0
M  END
> <PUBCHEM_COMPOUND_CID>
75367673

> <PUBCHEM_CONFORMER_RMSD>
0.8

> <PUBCHEM_CONFORMER_DIVERSEORDER>
1
11
162
43
173
60
133
37
27
113
137
110
132
124
48
31
84
95
9
86
46
41
131
126
51
102
129
104
42
141
136
168
167
85
149
19
56
109
130
121
74
146
151
71
112
8
107
165
26
105
111
134
57
101
79
100
3
69
30
35
117
142
116
32
7
163
144
103
89
59
87
36
16
96
159
154
156
91
179
172
171
147
20
28
63
139
4
174
98
161
40
123
22
54
135
90
127
166
53
44
61
176
93
47
21
62
125
106
119
10
177
160
94
15
88
82
67
70
118
77
140
68
169
24
13
150
2
55
25
5
23
83
81
157
145
34
64
170
75
180
73
158
115
152
178
114
45
128
92
120
17
66
50
14
108
97
164
65
76
12
80
138
155
6
148
72
143
175
78
39
99
29
153
33
58
122
49
52
18
38

> <PUBCHEM_MMFF94_PARTIAL_CHARGES>
30
1 -0.56
10 0.28
11 0.28
12 0.54
13 0.08
14 0.4
15 -0.15
16 -0.15
17 0.16
18 -0.15
19 -0.15
2 -0.36
20 -0.15
21 0.16
22 0.16
3 -0.57
32 0.15
33 0.15
34 0.15
35 0.15
36 0.15
37 0.15
38 0.15
39 0.15
4 -0.66
5 -0.62
6 -0.62
7 0.28
8 0.3
9 0.3

> <PUBCHEM_EFFECTIVE_ROTOR_COUNT>
5.4

> <PUBCHEM_PHARMACOPHORE_FEATURES>
8
1 1 acceptor
1 2 acceptor
1 3 acceptor
1 5 acceptor
1 6 acceptor
6 13 15 16 18 19 20 rings
6 5 6 14 17 21 22 rings
7 1 4 7 8 9 10 11 rings

> <PUBCHEM_HEAVY_ATOM_COUNT>
22

> <PUBCHEM_ATOM_DEF_STEREO_COUNT>
1

> <PUBCHEM_ATOM_UDEF_STEREO_COUNT>
0

> <PUBCHEM_BOND_DEF_STEREO_COUNT>
0

> <PUBCHEM_BOND_UDEF_STEREO_COUNT>
0

> <PUBCHEM_ISOTOPIC_ATOM_COUNT>
0

> <PUBCHEM_COMPONENT_COUNT>
1

> <PUBCHEM_CACTVS_TAUTO_COUNT>
1

> <PUBCHEM_CONFORMER_ID>
047E04F900000001

> <PUBCHEM_MMFF94_ENERGY>
77.9343

> <PUBCHEM_FEATURE_SELFOVERLAP>
40.603

> <PUBCHEM_SHAPE_FINGERPRINT>
10493431 412 18336546139312527061
12173636 292 18269825574784226959
12403259 118 18264755576708647729
12633257 1 17896029954187365195
12788726 201 17542505389231225558
128238 76 18269552896728986151
13583140 156 17315333857387383883
14123250 116 18194111043811151236
14251764 75 18339091487367216617
14528608 73 18411979178793277805
1454969 45 18270680983043149447
14790565 3 18412269449662927149
14955137 171 18192705645051138322
151778 21 18410571751773757956
15342168 16 18040999600046948140
15475509 8 18198348364895387454
17980427 23 17983542400236097106
18785283 64 18264208019628416846
20465049 17 18338813225452752718
20567600 9 18198916807310101045
20626108 58 8790594871538090029
20739085 24 18114466664875715364
21285901 2 12967121679761308803
21709351 56 18265322915933983823
21756936 100 18269833271592318580
21864079 5 18342731931737788261
22182937 141 18192151714090519176
22620623 9 17058924666214119823
23558518 356 17832138699344289612
23559900 14 17983007848379427419
23845131 108 18186517739422527915
245318 6 17823717436492245765
25147074 1 18263062462056946914
2637199 183 18412832373656017060
38570 142 18042139777084550164
394222 165 18335415738301135907
469060 322 16299777853621653295
474 4 18408321068862657329
5048184 11 18337670935576324260
5252454 2 18261386810562599020
5312544 6 18410005538003900823
57527585 21 17192336241711474468
633830 44 18343863299285562423
6438754 60 11167952316256567965
6442390 28 18261680371118253578
7808743 9 18193556894520681904
8988823 20 12901830570554128911
960060 61 12175619611592109776
9999458 23 18261675865950956038

> <PUBCHEM_SHAPE_MULTIPOLES>
420.2
10.53
3.75
1.08
7.41
1.41
-0.07
-8.95
0.45
-2.04
0.03
-0.44
0.19
-1.48

> <PUBCHEM_SHAPE_SELFOVERLAP>
895.042

> <PUBCHEM_SHAPE_VOLUME>
229.3

> <PUBCHEM_COORDINATE_TYPE>
2
5
10

$$$$
