44715968
  -OEChem-12032416153D

 55 58  0     1  0  0  0  0  0999 V2000
   -5.5323    1.0425    0.6568 O   0  0  0  0  0  0  0  0  0  0  0  0
    6.3433   -1.1441    2.8274 O   0  0  0  0  0  0  0  0  0  0  0  0
   -2.1365    2.3624   -0.5915 N   0  0  1  0  0  0  0  0  0  0  0  0
    1.5564    1.3816   -0.8457 N   0  0  0  0  0  0  0  0  0  0  0  0
   -5.2098   -1.2591    0.6202 N   0  0  0  0  0  0  0  0  0  0  0  0
    1.6640    0.6798   -1.9857 N   0  0  0  0  0  0  0  0  0  0  0  0
    2.8025   -0.0018   -1.9231 N   0  0  0  0  0  0  0  0  0  0  0  0
   -2.4024    0.3809    1.0745 C   0  0  1  0  0  0  0  0  0  0  0  0
   -3.4201    0.2842   -0.0796 C   0  0  2  0  0  0  0  0  0  0  0  0
   -0.9419    1.4760   -0.6522 C   0  0  2  0  0  0  0  0  0  0  0  0
   -0.9971    0.3867    0.4443 C   0  0  0  0  0  0  0  0  0  0  0  0
   -2.5653    1.7350    1.7884 C   0  0  0  0  0  0  0  0  0  0  0  0
   -3.3340    1.5564   -0.9437 C   0  0  0  0  0  0  0  0  0  0  0  0
   -2.3349    2.8742    0.7836 C   0  0  0  0  0  0  0  0  0  0  0  0
    0.3671    2.2668   -0.5998 C   0  0  0  0  0  0  0  0  0  0  0  0
   -4.8134    0.0654    0.4310 C   0  0  0  0  0  0  0  0  0  0  0  0
   -4.3250   -2.3871    0.3399 C   0  0  0  0  0  0  0  0  0  0  0  0
    2.6200    1.1696   -0.0237 C   0  0  0  0  0  0  0  0  0  0  0  0
   -6.5352   -1.6135    1.1115 C   0  0  0  0  0  0  0  0  0  0  0  0
    3.4001    0.2870   -0.7277 C   0  0  0  0  0  0  0  0  0  0  0  0
   -4.5087   -2.8097   -1.0797 C   0  0  0  0  0  0  0  0  0  0  0  0
    4.6467   -0.2538   -0.2898 C   0  0  0  0  0  0  0  0  0  0  0  0
   -4.8866   -4.0389   -1.4487 C   0  0  0  0  0  0  0  0  0  0  0  0
    4.8885   -0.4372    1.0717 C   0  0  0  0  0  0  0  0  0  0  0  0
    5.6232   -0.5989   -1.2243 C   0  0  0  0  0  0  0  0  0  0  0  0
    6.1066   -0.9660    1.4988 C   0  0  0  0  0  0  0  0  0  0  0  0
    6.8414   -1.1273   -0.7972 C   0  0  0  0  0  0  0  0  0  0  0  0
    7.0831   -1.3111    0.5643 C   0  0  0  0  0  0  0  0  0  0  0  0
   -2.5029   -0.4362    1.7957 H   0  0  0  0  0  0  0  0  0  0  0  0
   -3.1207   -0.5269   -0.7470 H   0  0  0  0  0  0  0  0  0  0  0  0
   -0.9678    0.9707   -1.6283 H   0  0  0  0  0  0  0  0  0  0  0  0
   -0.7818   -0.5941    0.0027 H   0  0  0  0  0  0  0  0  0  0  0  0
   -0.2510    0.5585    1.2296 H   0  0  0  0  0  0  0  0  0  0  0  0
   -3.5598    1.8201    2.2396 H   0  0  0  0  0  0  0  0  0  0  0  0
   -1.8395    1.8149    2.6069 H   0  0  0  0  0  0  0  0  0  0  0  0
   -3.2684    1.2709   -2.0024 H   0  0  0  0  0  0  0  0  0  0  0  0
   -4.2232    2.1952   -0.8906 H   0  0  0  0  0  0  0  0  0  0  0  0
   -3.1927    3.5587    0.7998 H   0  0  0  0  0  0  0  0  0  0  0  0
   -1.4799    3.4857    1.0936 H   0  0  0  0  0  0  0  0  0  0  0  0
    0.4169    3.0293   -1.3856 H   0  0  0  0  0  0  0  0  0  0  0  0
    0.5430    2.7424    0.3707 H   0  0  0  0  0  0  0  0  0  0  0  0
   -4.5693   -3.1980    1.0372 H   0  0  0  0  0  0  0  0  0  0  0  0
   -3.2766   -2.1469    0.5239 H   0  0  0  0  0  0  0  0  0  0  0  0
    2.7164    1.6512    0.9396 H   0  0  0  0  0  0  0  0  0  0  0  0
   -6.4312   -2.1498    2.0592 H   0  0  0  0  0  0  0  0  0  0  0  0
   -7.1421   -0.7195    1.2764 H   0  0  0  0  0  0  0  0  0  0  0  0
   -7.0354   -2.2511    0.3772 H   0  0  0  0  0  0  0  0  0  0  0  0
   -4.3178   -2.0830   -1.8648 H   0  0  0  0  0  0  0  0  0  0  0  0
   -4.9993   -4.2872   -2.4984 H   0  0  0  0  0  0  0  0  0  0  0  0
   -5.0897   -4.8136   -0.7176 H   0  0  0  0  0  0  0  0  0  0  0  0
    4.1356   -0.1847    1.8151 H   0  0  0  0  0  0  0  0  0  0  0  0
    5.4582   -0.4613   -2.2903 H   0  0  0  0  0  0  0  0  0  0  0  0
    7.6023   -1.3952   -1.5245 H   0  0  0  0  0  0  0  0  0  0  0  0
    8.0341   -1.7230    0.8908 H   0  0  0  0  0  0  0  0  0  0  0  0
    5.5632   -0.8522    3.3296 H   0  0  0  0  0  0  0  0  0  0  0  0
  1 16  2  0  0  0  0
  2 26  1  0  0  0  0
  2 55  1  0  0  0  0
  3 10  1  0  0  0  0
  3 13  1  0  0  0  0
  3 14  1  0  0  0  0
  4  6  1  0  0  0  0
  4 15  1  0  0  0  0
  4 18  1  0  0  0  0
  5 16  1  0  0  0  0
  5 17  1  0  0  0  0
  5 19  1  0  0  0  0
  6  7  2  0  0  0  0
  7 20  1  0  0  0  0
  8  9  1  0  0  0  0
  8 11  1  0  0  0  0
  8 12  1  0  0  0  0
  8 29  1  0  0  0  0
  9 13  1  0  0  0  0
  9 16  1  0  0  0  0
  9 30  1  0  0  0  0
 10 11  1  0  0  0  0
 10 15  1  0  0  0  0
 10 31  1  0  0  0  0
 11 32  1  0  0  0  0
 11 33  1  0  0  0  0
 12 14  1  0  0  0  0
 12 34  1  0  0  0  0
 12 35  1  0  0  0  0
 13 36  1  0  0  0  0
 13 37  1  0  0  0  0
 14 38  1  0  0  0  0
 14 39  1  0  0  0  0
 15 40  1  0  0  0  0
 15 41  1  0  0  0  0
 17 21  1  0  0  0  0
 17 42  1  0  0  0  0
 17 43  1  0  0  0  0
 18 20  2  0  0  0  0
 18 44  1  0  0  0  0
 19 45  1  0  0  0  0
 19 46  1  0  0  0  0
 19 47  1  0  0  0  0
 20 22  1  0  0  0  0
 21 23  2  0  0  0  0
 21 48  1  0  0  0  0
 22 24  2  0  0  0  0
 22 25  1  0  0  0  0
 23 49  1  0  0  0  0
 23 50  1  0  0  0  0
 24 26  1  0  0  0  0
 24 51  1  0  0  0  0
 25 27  2  0  0  0  0
 25 52  1  0  0  0  0
 26 28  2  0  0  0  0
 27 28  1  0  0  0  0
 27 53  1  0  0  0  0
 28 54  1  0  0  0  0
M  END
> <PUBCHEM_COMPOUND_CID>
44715968

> <PUBCHEM_CONFORMER_RMSD>
1

> <PUBCHEM_CONFORMER_DIVERSEORDER>
1
100
174
145
51
79
161
49
119
36
78
73
42
83
80
106
63
167
93
61
148
92
136
156
26
123
120
134
64
124
151
27
191
200
170
192
103
143
9
169
139
95
175
39
88
109
75
158
28
193
125
117
133
86
85
15
121
116
184
201
199
55
32
110
188
172
25
22
8
76
20
29
128
71
168
107
90
48
159
160
41
144
162
157
155
195
154
31
113
178
24
46
101
44
72
127
177
131
189
43
68
17
77
16
187
150
104
40
185
190
115
14
84
94
12
10
129
176
37
135
105
147
97
30
70
18
33
56
196
89
198
13
91
21
96
69
141
62
65
165
53
3
102
19
57
130
82
132
47
164
50
34
2
66
4
153
197
5
81
58
54
99
146
23
67
183
7
111
6
114
98
60
112
59
173
87
171
149
74
182
142
140
45
180
35
138
166
152
163
118
52
137
38
108
179
126
181
122
11
194
186

> <PUBCHEM_MMFF94_PARTIAL_CHARGES>
34
1 -0.57
10 0.27
13 0.27
14 0.27
15 0.26
16 0.57
17 0.44
18 -0.3
19 0.3
2 -0.53
20 0.17
21 -0.29
22 0.05
23 -0.3
24 -0.15
25 -0.15
26 0.08
27 -0.15
28 -0.15
3 -0.81
4 0.31
44 0.15
48 0.15
49 0.15
5 -0.66
50 0.15
51 0.15
52 0.15
53 0.15
54 0.15
55 0.45
6 -0.42
7 -0.23
9 0.06

> <PUBCHEM_EFFECTIVE_ROTOR_COUNT>
8.2

> <PUBCHEM_PHARMACOPHORE_FEATURES>
7
1 1 acceptor
1 2 donor
1 23 hydrophobe
1 3 cation
5 4 6 7 18 20 rings
6 22 24 25 26 27 28 rings
8 3 8 9 10 11 12 13 14 rings

> <PUBCHEM_HEAVY_ATOM_COUNT>
28

> <PUBCHEM_ATOM_DEF_STEREO_COUNT>
2

> <PUBCHEM_ATOM_UDEF_STEREO_COUNT>
1

> <PUBCHEM_BOND_DEF_STEREO_COUNT>
0

> <PUBCHEM_BOND_UDEF_STEREO_COUNT>
0

> <PUBCHEM_ISOTOPIC_ATOM_COUNT>
0

> <PUBCHEM_COMPONENT_COUNT>
1

> <PUBCHEM_CACTVS_TAUTO_COUNT>
3

> <PUBCHEM_CONFORMER_ID>
02AA4FC000000001

> <PUBCHEM_MMFF94_ENERGY>
70.8979

> <PUBCHEM_FEATURE_SELFOVERLAP>
35.521

> <PUBCHEM_SHAPE_FINGERPRINT>
10 15 17060334115925176264
10074138 170 17559417781212187713
10319926 262 18059859437257235712
10622 236 18265331901164167047
11112241 14 15410626869784314919
11524674 6 17489871531708453199
11607047 403 16549721186358198619
11809386 21 17968095296351517241
12144603 126 17968392168770517420
12166972 35 17821454577211288044
12422481 6 17703798062547245975
12523318 42 18201720626527584889
12596602 18 18341611495678329688
13782708 43 18343860031005516338
14068700 675 18409450314507065785
14251751 18 18201439220012004963
14341114 328 13470681534431457792
14347332 77 17967812730168328701
15183329 4 14490468673388555324
15188451 53 18411697690330109516
15320294 125 18408889551172423543
15348495 7 17775001323186088434
15728490 51 18409730707953539964
16120349 67 11386904646554027215
17349148 13 17967537877983364836
17780758 139 18202567263418758081
17857418 61 17967255278263312472
17913733 40 15913333468153427942
19841028 212 18122619720338719079
19958102 18 16877939477145412714
20028762 73 18412545431603527822
21585480 29 17202752838784464622
22061861 79 15213021544522921522
22122407 14 12247386939013696134
23198884 109 14273741728771859405
23522609 53 17753085788723997212
23559900 14 18334857276879052161
23569914 152 13482457243930524882
312425 54 17846226488280174690
314194 84 17168153287244685352
38570 142 11383843700840241060
3882209 13 16911127278079680175
392239 28 15985098630679043974
397830 11 17917137403744292264
4015057 19 16371020619380877716
4098825 35 15647046032978157951
439807 62 17676775344360729339
46194498 28 13696169417705126342
463206 1 18115030813272679475
5080951 261 18338503171795394061
5104073 3 18272098235581558473
531348 171 17241319162542478989
559249 180 17894911772410748637
5718773 13 18261112993127260115
59682541 52 13479120294817405896
6058803 2 18051434034958654717
636775 72 8718245920532243110
96874 4 17967526878905020898

> <PUBCHEM_SHAPE_MULTIPOLES>
539.58
19.12
3.22
1.77
19.45
1.75
-0.44
15.28
-5.48
-6.52
0.77
1.82
0.32
-1.88

> <PUBCHEM_SHAPE_SELFOVERLAP>
1154.208

> <PUBCHEM_SHAPE_VOLUME>
295.3

> <PUBCHEM_COORDINATE_TYPE>
2
5
10

$$$$
