38027180
  -OEChem-12032416253D

 75 77  0     1  0  0  0  0  0999 V2000
   -3.4510   -0.6327    1.8151 O   0  0  0  0  0  0  0  0  0  0  0  0
    1.3886    2.6158   -2.7385 O   0  0  0  0  0  0  0  0  0  0  0  0
    4.7941   -2.2554    1.9582 O   0  0  0  0  0  0  0  0  0  0  0  0
    1.2451    3.1736   -0.4953 N   0  0  0  0  0  0  0  0  0  0  0  0
   -1.6354   -2.0610    1.6071 N   0  0  0  0  0  0  0  0  0  0  0  0
    5.3761   -1.6712   -0.2505 N   0  0  0  0  0  0  0  0  0  0  0  0
   -1.7102    2.6809   -0.4439 C   0  0  1  0  0  0  0  0  0  0  0  0
   -0.9965    3.9300    0.1308 C   0  0  1  0  0  0  0  0  0  0  0  0
   -2.7028    2.1114    0.5812 C   0  0  0  0  0  0  0  0  0  0  0  0
   -2.0144    1.7161    1.9012 C   0  0  2  0  0  0  0  0  0  0  0  0
   -2.4402    2.9950   -1.7535 C   0  0  0  0  0  0  0  0  0  0  0  0
   -1.0791    2.8010    2.3954 C   0  0  0  0  0  0  0  0  0  0  0  0
   -0.6455    3.7897    1.5934 C   0  0  0  0  0  0  0  0  0  0  0  0
    0.2691    4.2606   -0.6687 C   0  0  0  0  0  0  0  0  0  0  0  0
   -1.2786    0.3789    1.7616 C   0  0  0  0  0  0  0  0  0  0  0  0
   -2.6063    1.7285   -2.5872 C   0  0  0  0  0  0  0  0  0  0  0  0
   -3.7944    3.6358   -1.4672 C   0  0  0  0  0  0  0  0  0  0  0  0
   -0.6891    2.7494    3.8465 C   0  0  0  0  0  0  0  0  0  0  0  0
   -2.2316   -0.8016    1.7321 C   0  0  0  0  0  0  0  0  0  0  0  0
    1.7116    2.4519   -1.5649 C   0  0  0  0  0  0  0  0  0  0  0  0
   -2.4150   -3.2959    1.5637 C   0  0  0  0  0  0  0  0  0  0  0  0
   -0.1914   -2.2359    1.5107 C   0  0  0  0  0  0  0  0  0  0  0  0
    2.6715    1.3716   -1.2204 C   0  0  0  0  0  0  0  0  0  0  0  0
   -2.7541   -3.6972    0.1573 C   0  0  0  0  0  0  0  0  0  0  0  0
    3.6189    0.9558   -2.1561 C   0  0  0  0  0  0  0  0  0  0  0  0
    2.6252    0.7728    0.0387 C   0  0  0  0  0  0  0  0  0  0  0  0
   -3.9328   -3.2412   -0.4331 C   0  0  0  0  0  0  0  0  0  0  0  0
   -1.8905   -4.5261   -0.5589 C   0  0  0  0  0  0  0  0  0  0  0  0
    4.5202   -0.0584   -1.8326 C   0  0  0  0  0  0  0  0  0  0  0  0
    3.5264   -0.2416    0.3620 C   0  0  0  0  0  0  0  0  0  0  0  0
    4.4740   -0.6572   -0.5735 C   0  0  0  0  0  0  0  0  0  0  0  0
   -4.2479   -3.6141   -1.7400 C   0  0  0  0  0  0  0  0  0  0  0  0
   -2.2056   -4.8989   -1.8657 C   0  0  0  0  0  0  0  0  0  0  0  0
   -3.3841   -4.4427   -2.4563 C   0  0  0  0  0  0  0  0  0  0  0  0
    5.4825   -2.3843    0.9511 C   0  0  0  0  0  0  0  0  0  0  0  0
    6.5930   -3.4035    0.9000 C   0  0  0  0  0  0  0  0  0  0  0  0
   -0.9612    1.9084   -0.6507 H   0  0  0  0  0  0  0  0  0  0  0  0
   -1.6625    4.7990    0.0585 H   0  0  0  0  0  0  0  0  0  0  0  0
   -3.2500    1.2596    0.1659 H   0  0  0  0  0  0  0  0  0  0  0  0
   -3.4534    2.8647    0.8533 H   0  0  0  0  0  0  0  0  0  0  0  0
   -2.8104    1.6114    2.6519 H   0  0  0  0  0  0  0  0  0  0  0  0
   -1.8548    3.6958   -2.3578 H   0  0  0  0  0  0  0  0  0  0  0  0
   -0.0125    4.5683    2.0146 H   0  0  0  0  0  0  0  0  0  0  0  0
    0.7468    5.1689   -0.2831 H   0  0  0  0  0  0  0  0  0  0  0  0
    0.0644    4.4266   -1.7293 H   0  0  0  0  0  0  0  0  0  0  0  0
   -0.6322    0.2346    2.6342 H   0  0  0  0  0  0  0  0  0  0  0  0
   -0.6547    0.3634    0.8627 H   0  0  0  0  0  0  0  0  0  0  0  0
   -3.2134    0.9723   -2.0800 H   0  0  0  0  0  0  0  0  0  0  0  0
   -1.6333    1.2822   -2.8194 H   0  0  0  0  0  0  0  0  0  0  0  0
   -3.0968    1.9593   -3.5394 H   0  0  0  0  0  0  0  0  0  0  0  0
   -4.5332    2.9262   -1.0799 H   0  0  0  0  0  0  0  0  0  0  0  0
   -4.2152    4.0208   -2.4044 H   0  0  0  0  0  0  0  0  0  0  0  0
   -3.7229    4.4901   -0.7875 H   0  0  0  0  0  0  0  0  0  0  0  0
   -1.5819    2.7149    4.4794 H   0  0  0  0  0  0  0  0  0  0  0  0
   -0.1102    3.6294    4.1471 H   0  0  0  0  0  0  0  0  0  0  0  0
   -0.0768    1.8684    4.0585 H   0  0  0  0  0  0  0  0  0  0  0  0
    1.6370    3.0485    0.4320 H   0  0  0  0  0  0  0  0  0  0  0  0
   -3.3432   -3.1443    2.1289 H   0  0  0  0  0  0  0  0  0  0  0  0
   -1.8742   -4.0953    2.0844 H   0  0  0  0  0  0  0  0  0  0  0  0
    0.1173   -3.0495    2.1750 H   0  0  0  0  0  0  0  0  0  0  0  0
    0.3909   -1.3575    1.7842 H   0  0  0  0  0  0  0  0  0  0  0  0
    0.0582   -2.5007    0.4792 H   0  0  0  0  0  0  0  0  0  0  0  0
    3.6731    1.4133   -3.1404 H   0  0  0  0  0  0  0  0  0  0  0  0
    1.8837    1.0438    0.7846 H   0  0  0  0  0  0  0  0  0  0  0  0
   -4.6163   -2.5966    0.1127 H   0  0  0  0  0  0  0  0  0  0  0  0
   -0.9702   -4.8901   -0.1100 H   0  0  0  0  0  0  0  0  0  0  0  0
    5.2540   -0.3715   -2.5710 H   0  0  0  0  0  0  0  0  0  0  0  0
    3.4241   -0.6631    1.3523 H   0  0  0  0  0  0  0  0  0  0  0  0
   -5.1656   -3.2593   -2.1997 H   0  0  0  0  0  0  0  0  0  0  0  0
   -1.5334   -5.5445   -2.4233 H   0  0  0  0  0  0  0  0  0  0  0  0
   -3.6293   -4.7329   -3.4737 H   0  0  0  0  0  0  0  0  0  0  0  0
    6.0355   -1.9163   -0.9863 H   0  0  0  0  0  0  0  0  0  0  0  0
    6.3835   -4.1388    0.1182 H   0  0  0  0  0  0  0  0  0  0  0  0
    6.6683   -3.9184    1.8618 H   0  0  0  0  0  0  0  0  0  0  0  0
    7.5441   -2.9063    0.6891 H   0  0  0  0  0  0  0  0  0  0  0  0
  1 19  2  0  0  0  0
  2 20  2  0  0  0  0
  3 35  2  0  0  0  0
  4 14  1  0  0  0  0
  4 20  1  0  0  0  0
  4 57  1  0  0  0  0
  5 19  1  0  0  0  0
  5 21  1  0  0  0  0
  5 22  1  0  0  0  0
  6 31  1  0  0  0  0
  6 35  1  0  0  0  0
  6 72  1  0  0  0  0
  7  8  1  0  0  0  0
  7  9  1  0  0  0  0
  7 11  1  0  0  0  0
  7 37  1  0  0  0  0
  8 13  1  0  0  0  0
  8 14  1  0  0  0  0
  8 38  1  0  0  0  0
  9 10  1  0  0  0  0
  9 39  1  0  0  0  0
  9 40  1  0  0  0  0
 10 12  1  0  0  0  0
 10 15  1  0  0  0  0
 10 41  1  0  0  0  0
 11 16  1  0  0  0  0
 11 17  1  0  0  0  0
 11 42  1  0  0  0  0
 12 13  2  0  0  0  0
 12 18  1  0  0  0  0
 13 43  1  0  0  0  0
 14 44  1  0  0  0  0
 14 45  1  0  0  0  0
 15 19  1  0  0  0  0
 15 46  1  0  0  0  0
 15 47  1  0  0  0  0
 16 48  1  0  0  0  0
 16 49  1  0  0  0  0
 16 50  1  0  0  0  0
 17 51  1  0  0  0  0
 17 52  1  0  0  0  0
 17 53  1  0  0  0  0
 18 54  1  0  0  0  0
 18 55  1  0  0  0  0
 18 56  1  0  0  0  0
 20 23  1  0  0  0  0
 21 24  1  0  0  0  0
 21 58  1  0  0  0  0
 21 59  1  0  0  0  0
 22 60  1  0  0  0  0
 22 61  1  0  0  0  0
 22 62  1  0  0  0  0
 23 25  2  0  0  0  0
 23 26  1  0  0  0  0
 24 27  2  0  0  0  0
 24 28  1  0  0  0  0
 25 29  1  0  0  0  0
 25 63  1  0  0  0  0
 26 30  2  0  0  0  0
 26 64  1  0  0  0  0
 27 32  1  0  0  0  0
 27 65  1  0  0  0  0
 28 33  2  0  0  0  0
 28 66  1  0  0  0  0
 29 31  2  0  0  0  0
 29 67  1  0  0  0  0
 30 31  1  0  0  0  0
 30 68  1  0  0  0  0
 32 34  2  0  0  0  0
 32 69  1  0  0  0  0
 33 34  1  0  0  0  0
 33 70  1  0  0  0  0
 34 71  1  0  0  0  0
 35 36  1  0  0  0  0
 36 73  1  0  0  0  0
 36 74  1  0  0  0  0
 36 75  1  0  0  0  0
M  END
> <PUBCHEM_COMPOUND_CID>
38027180

> <PUBCHEM_CONFORMER_RMSD>
1.4

> <PUBCHEM_CONFORMER_DIVERSEORDER>
1
83
38
50
125
86
126
142
114
80
96
7
100
122
93
21
12
43
90
77
109
45
116
120
52
35
106
98
71
4
95
65
137
28
41
84
2
75
129
6
97
39
101
30
103
121
57
25
85
68
20
49
63
62
76
111
130
29
105
14
94
128
37
119
5
113
27
104
32
19
69
107
40
131
33
24
60
81
133
36
46
79
58
56
23
61
31
135
34
22
70
16
78
9
64
3
89
99
124
18
17
10
115
143
92
44
117
82
140
139
112
87
54
72
15
118
74
59
73
102
13
91
123
48
67
136
141
11
134
88
53
26
47
108
42
51
110
138
132
66
55
8
127

> <PUBCHEM_MMFF94_PARTIAL_CHARGES>
43
1 -0.57
10 0.14
12 -0.28
13 -0.29
14 0.3
15 0.06
18 0.14
19 0.57
2 -0.57
20 0.54
21 0.44
22 0.3
23 0.09
24 -0.14
25 -0.15
26 -0.15
27 -0.15
28 -0.15
29 -0.15
3 -0.57
30 -0.15
31 0.12
32 -0.15
33 -0.15
34 -0.15
35 0.57
36 0.06
4 -0.73
43 0.15
5 -0.66
57 0.37
6 -0.55
63 0.15
64 0.15
65 0.15
66 0.15
67 0.15
68 0.15
69 0.15
70 0.15
71 0.15
72 0.37
8 0.14

> <PUBCHEM_EFFECTIVE_ROTOR_COUNT>
12.8

> <PUBCHEM_PHARMACOPHORE_FEATURES>
9
1 1 acceptor
1 2 acceptor
1 3 acceptor
1 4 donor
1 6 donor
3 11 16 17 hydrophobe
6 23 25 26 29 30 31 rings
6 24 27 28 32 33 34 rings
6 7 8 9 10 12 13 rings

> <PUBCHEM_HEAVY_ATOM_COUNT>
36

> <PUBCHEM_ATOM_DEF_STEREO_COUNT>
3

> <PUBCHEM_ATOM_UDEF_STEREO_COUNT>
0

> <PUBCHEM_BOND_DEF_STEREO_COUNT>
0

> <PUBCHEM_BOND_UDEF_STEREO_COUNT>
0

> <PUBCHEM_ISOTOPIC_ATOM_COUNT>
0

> <PUBCHEM_COMPONENT_COUNT>
1

> <PUBCHEM_CACTVS_TAUTO_COUNT>
7

> <PUBCHEM_CONFORMER_ID>
02443FAC00000001

> <PUBCHEM_MMFF94_ENERGY>
94.508

> <PUBCHEM_FEATURE_SELFOVERLAP>
45.671

> <PUBCHEM_SHAPE_FINGERPRINT>
10622 236 18335706057058788890
11285246 1 17896015772126147751
12156800 1 17466173813054998849
12977781 61 17983542425119814216
13165053 137 17540806197106083363
14674994 50 18264197029033167342
20764821 26 17685240295103560046
20775530 9 18195830662806723624
25222932 49 14610960098760455903
4066623 53 18123444323967815567
44880168 125 17914080653929718462
4573279 79 17686013518582752928
46194498 28 15949637500020309687
469060 322 16487248893903670645
5081480 168 17829603213115540023
57527452 28 18122053209435163005

> <PUBCHEM_SHAPE_MULTIPOLES>
708.31
10.07
8.45
3.22
16.82
3.7
-0.72
13.24
1.78
-7.66
1.88
-1.27
-1.46
-3.36

> <PUBCHEM_SHAPE_SELFOVERLAP>
1478.965

> <PUBCHEM_SHAPE_VOLUME>
399.5

> <PUBCHEM_COORDINATE_TYPE>
2
5
10

$$$$
