56775326
  -OEChem-12032416323D

 44 46  0     1  0  0  0  0  0999 V2000
    7.6093    1.0814   -0.3333 F   0  0  0  0  0  0  0  0  0  0  0  0
   -2.2228   -2.1490   -0.8804 O   0  0  0  0  0  0  0  0  0  0  0  0
   -4.5341    0.2728   -2.0877 O   0  0  0  0  0  0  0  0  0  0  0  0
    2.1269   -2.0931    0.9110 O   0  0  0  0  0  0  0  0  0  0  0  0
   -5.7271    1.4504    0.4277 O   0  0  0  0  0  0  0  0  0  0  0  0
    0.1458   -0.9972    0.5328 N   0  0  0  0  0  0  0  0  0  0  0  0
   -3.1334    0.3965   -0.2340 N   0  0  0  0  0  0  0  0  0  0  0  0
    2.1695    0.0944    0.1004 N   0  0  0  0  0  0  0  0  0  0  0  0
   -2.0967   -0.2355    0.5722 C   0  0  1  0  0  0  0  0  0  0  0  0
   -2.0867   -1.7587    0.4836 C   0  0  2  0  0  0  0  0  0  0  0  0
   -0.6802    0.1389    0.1263 C   0  0  0  0  0  0  0  0  0  0  0  0
   -0.6843   -2.1224    0.9536 C   0  0  0  0  0  0  0  0  0  0  0  0
   -3.7515   -0.2568   -1.2970 C   0  0  0  0  0  0  0  0  0  0  0  0
   -3.3911    1.8086    0.0114 C   0  0  0  0  0  0  0  0  0  0  0  0
   -3.4730   -1.7467   -1.3923 C   0  0  0  0  0  0  0  0  0  0  0  0
    1.5439   -1.0714    0.5435 C   0  0  0  0  0  0  0  0  0  0  0  0
   -4.5413    2.0051    0.9821 C   0  0  0  0  0  0  0  0  0  0  0  0
    3.5591    0.3464   -0.0107 C   0  0  0  0  0  0  0  0  0  0  0  0
   -6.8368    1.6150    1.3000 C   0  0  0  0  0  0  0  0  0  0  0  0
    4.0088    1.5816   -0.4775 C   0  0  0  0  0  0  0  0  0  0  0  0
    4.4777   -0.6404    0.3469 C   0  0  0  0  0  0  0  0  0  0  0  0
    5.3769    1.8298   -0.5868 C   0  0  0  0  0  0  0  0  0  0  0  0
    5.8459   -0.3924    0.2375 C   0  0  0  0  0  0  0  0  0  0  0  0
    6.2955    0.8427   -0.2294 C   0  0  0  0  0  0  0  0  0  0  0  0
   -2.2413    0.0570    1.6207 H   0  0  0  0  0  0  0  0  0  0  0  0
   -2.8627   -2.2447    1.0851 H   0  0  0  0  0  0  0  0  0  0  0  0
   -0.5927    0.2512   -0.9605 H   0  0  0  0  0  0  0  0  0  0  0  0
   -0.3339    1.0591    0.6069 H   0  0  0  0  0  0  0  0  0  0  0  0
   -0.6264   -2.1756    2.0461 H   0  0  0  0  0  0  0  0  0  0  0  0
   -0.3022   -3.0516    0.5201 H   0  0  0  0  0  0  0  0  0  0  0  0
   -3.6436    2.2835   -0.9438 H   0  0  0  0  0  0  0  0  0  0  0  0
   -2.4822    2.2880    0.3892 H   0  0  0  0  0  0  0  0  0  0  0  0
   -4.2776   -2.2859   -0.8791 H   0  0  0  0  0  0  0  0  0  0  0  0
   -3.5005   -2.0290   -2.4497 H   0  0  0  0  0  0  0  0  0  0  0  0
   -4.6881    3.0764    1.1613 H   0  0  0  0  0  0  0  0  0  0  0  0
   -4.3212    1.5150    1.9378 H   0  0  0  0  0  0  0  0  0  0  0  0
    1.5805    0.8664   -0.1950 H   0  0  0  0  0  0  0  0  0  0  0  0
   -7.7166    1.1733    0.8243 H   0  0  0  0  0  0  0  0  0  0  0  0
   -7.0319    2.6771    1.4769 H   0  0  0  0  0  0  0  0  0  0  0  0
   -6.6582    1.1006    2.2492 H   0  0  0  0  0  0  0  0  0  0  0  0
    3.3037    2.3594   -0.7593 H   0  0  0  0  0  0  0  0  0  0  0  0
    4.2136   -1.6203    0.7170 H   0  0  0  0  0  0  0  0  0  0  0  0
    5.7275    2.7914   -0.9500 H   0  0  0  0  0  0  0  0  0  0  0  0
    6.5626   -1.1596    0.5157 H   0  0  0  0  0  0  0  0  0  0  0  0
  1 24  1  0  0  0  0
  2 10  1  0  0  0  0
  2 15  1  0  0  0  0
  3 13  2  0  0  0  0
  4 16  2  0  0  0  0
  5 17  1  0  0  0  0
  5 19  1  0  0  0  0
  6 11  1  0  0  0  0
  6 12  1  0  0  0  0
  6 16  1  0  0  0  0
  7  9  1  0  0  0  0
  7 13  1  0  0  0  0
  7 14  1  0  0  0  0
  8 16  1  0  0  0  0
  8 18  1  0  0  0  0
  8 37  1  0  0  0  0
  9 10  1  0  0  0  0
  9 11  1  0  0  0  0
  9 25  1  0  0  0  0
 10 12  1  0  0  0  0
 10 26  1  0  0  0  0
 11 27  1  0  0  0  0
 11 28  1  0  0  0  0
 12 29  1  0  0  0  0
 12 30  1  0  0  0  0
 13 15  1  0  0  0  0
 14 17  1  0  0  0  0
 14 31  1  0  0  0  0
 14 32  1  0  0  0  0
 15 33  1  0  0  0  0
 15 34  1  0  0  0  0
 17 35  1  0  0  0  0
 17 36  1  0  0  0  0
 18 20  2  0  0  0  0
 18 21  1  0  0  0  0
 19 38  1  0  0  0  0
 19 39  1  0  0  0  0
 19 40  1  0  0  0  0
 20 22  1  0  0  0  0
 20 41  1  0  0  0  0
 21 23  2  0  0  0  0
 21 42  1  0  0  0  0
 22 24  2  0  0  0  0
 22 43  1  0  0  0  0
 23 24  1  0  0  0  0
 23 44  1  0  0  0  0
M  END
> <PUBCHEM_COMPOUND_CID>
56775326

> <PUBCHEM_CONFORMER_RMSD>
0.8

> <PUBCHEM_CONFORMER_DIVERSEORDER>
1
49
90
94
64
88
96
41
87
52
44
95
89
30
65
15
21
43
7
77
27
45
69
79
81
42
16
57
62
85
93
26
61
51
74
37
50
38
76
12
14
32
53
10
82
31
5
68
11
55
91
80
29
40
63
86
23
33
19
70
60
83
84
66
48
54
34
39
72
20
58
25
18
6
9
92
67
71
59
4
35
46
75
2
8
17
13
73
78
28
22
56
3
47
36
24

> <PUBCHEM_MMFF94_PARTIAL_CHARGES>
29
1 -0.19
10 0.28
11 0.3
12 0.3
13 0.57
14 0.3
15 0.34
16 0.69
17 0.28
18 0.12
19 0.28
2 -0.56
20 -0.15
21 -0.15
22 -0.15
23 -0.15
24 0.19
3 -0.57
37 0.37
4 -0.57
41 0.15
42 0.15
43 0.15
44 0.15
5 -0.56
6 -0.66
7 -0.66
8 -0.55
9 0.3

> <PUBCHEM_EFFECTIVE_ROTOR_COUNT>
7.2

> <PUBCHEM_PHARMACOPHORE_FEATURES>
8
1 2 acceptor
1 3 acceptor
1 4 acceptor
1 5 acceptor
1 8 donor
5 6 9 10 11 12 rings
6 18 20 21 22 23 24 rings
6 2 7 9 10 13 15 rings

> <PUBCHEM_HEAVY_ATOM_COUNT>
24

> <PUBCHEM_ATOM_DEF_STEREO_COUNT>
2

> <PUBCHEM_ATOM_UDEF_STEREO_COUNT>
0

> <PUBCHEM_BOND_DEF_STEREO_COUNT>
0

> <PUBCHEM_BOND_UDEF_STEREO_COUNT>
0

> <PUBCHEM_ISOTOPIC_ATOM_COUNT>
0

> <PUBCHEM_COMPONENT_COUNT>
1

> <PUBCHEM_CACTVS_TAUTO_COUNT>
4

> <PUBCHEM_CONFORMER_ID>
0362529E00000001

> <PUBCHEM_MMFF94_ENERGY>
65.3125

> <PUBCHEM_FEATURE_SELFOVERLAP>
40.799

> <PUBCHEM_SHAPE_FINGERPRINT>
10 15 17312828173139674785
10595046 47 18339920541088852982
11089746 13 18336822091963296420
12107183 9 18189890929938948642
12788726 201 17488748848410329633
13583140 156 14707197855403605335
15064981 194 18117287062651299967
15183329 4 18334287665857778294
15188451 53 11314312771310733049
1577012 14 18410852157910188952
15778101 99 18410299124561695506
17780758 139 8286212651259255174
17980427 23 18335143132589783332
1813 80 12822741625447522074
18222031 100 11239994530116750738
19784866 240 10663811980040555665
21033648 29 18339357587104247936
21315759 148 13334728012852916544
21756936 100 18410857664058418587
21781055 127 16915948344440687699
22079108 93 17676497116342222003
22224240 67 17822300059436110873
23198884 109 16558472998399362585
23402539 116 18342174492807533084
23402655 69 18411698799106976482
23559900 14 18340480188370750752
25147074 1 18337940221451874915
2838139 119 18408599253979192108
314194 84 10879993579833032668
3472631 163 18341898480454437581
4098825 35 17917436397529100135
5104073 3 17968092071189450066
59682541 35 18041012743580706865
59755656 520 18113339708554650203

> <PUBCHEM_SHAPE_MULTIPOLES>
448.21
17.2
2.36
1.21
13.18
0.28
0.38
-11.53
0.4
-1.65
-0.27
-1.83
0.16
-2.23

> <PUBCHEM_SHAPE_SELFOVERLAP>
946.393

> <PUBCHEM_SHAPE_VOLUME>
252

> <PUBCHEM_COORDINATE_TYPE>
2
5
10

$$$$
