45784189
  -OEChem-12032416293D

 42 45  0     1  0  0  0  0  0999 V2000
   -4.3058   -1.9208   -1.0302 F   0  0  0  0  0  0  0  0  0  0  0  0
    2.6849   -1.4242    0.5347 O   0  0  0  0  0  0  0  0  0  0  0  0
   -1.8287   -0.1471   -0.0192 N   0  0  1  0  0  0  0  0  0  0  0  0
    2.3361    0.7514    0.0034 N   0  0  0  0  0  0  0  0  0  0  0  0
    0.3529   -0.7215    0.6211 C   0  0  1  0  0  0  0  0  0  0  0  0
   -0.3093    0.1069    1.7357 C   0  0  0  0  0  0  0  0  0  0  0  0
   -0.5351   -0.4964   -0.6101 C   0  0  0  0  0  0  0  0  0  0  0  0
   -1.5085    0.7722    1.0728 C   0  0  0  0  0  0  0  0  0  0  0  0
   -2.7415    0.4407   -0.9886 C   0  0  0  0  0  0  0  0  0  0  0  0
    1.8066   -0.3962    0.3665 C   0  0  0  0  0  0  0  0  0  0  0  0
   -4.1698    0.3925   -0.5148 C   0  0  0  0  0  0  0  0  0  0  0  0
    3.6782    0.4688   -0.0781 C   0  0  0  0  0  0  0  0  0  0  0  0
    3.8955   -0.8621    0.2465 C   0  0  0  0  0  0  0  0  0  0  0  0
   -4.8832   -0.8050   -0.5631 C   0  0  0  0  0  0  0  0  0  0  0  0
   -4.7793    1.5483   -0.0267 C   0  0  0  0  0  0  0  0  0  0  0  0
    4.7767    1.2718   -0.4168 C   0  0  0  0  0  0  0  0  0  0  0  0
    5.1400   -1.4796    0.2644 C   0  0  0  0  0  0  0  0  0  0  0  0
    6.0497    0.6837   -0.4101 C   0  0  0  0  0  0  0  0  0  0  0  0
    6.2252   -0.6647   -0.0759 C   0  0  0  0  0  0  0  0  0  0  0  0
   -6.2063   -0.8469   -0.1233 C   0  0  0  0  0  0  0  0  0  0  0  0
   -6.1024    1.5065    0.4130 C   0  0  0  0  0  0  0  0  0  0  0  0
   -6.8159    0.3089    0.3648 C   0  0  0  0  0  0  0  0  0  0  0  0
    7.2399    1.5130   -0.7662 C   0  0  0  0  0  0  0  0  0  0  0  0
    0.2860   -1.7799    0.9110 H   0  0  0  0  0  0  0  0  0  0  0  0
    0.3612    0.8483    2.1830 H   0  0  0  0  0  0  0  0  0  0  0  0
   -0.6456   -0.5638    2.5364 H   0  0  0  0  0  0  0  0  0  0  0  0
   -0.1486    0.3176   -1.2380 H   0  0  0  0  0  0  0  0  0  0  0  0
   -0.6002   -1.4015   -1.2237 H   0  0  0  0  0  0  0  0  0  0  0  0
   -2.3339    0.8885    1.7821 H   0  0  0  0  0  0  0  0  0  0  0  0
   -1.2205    1.7647    0.7029 H   0  0  0  0  0  0  0  0  0  0  0  0
   -2.4520    1.4649   -1.2604 H   0  0  0  0  0  0  0  0  0  0  0  0
   -2.7007   -0.1257   -1.9299 H   0  0  0  0  0  0  0  0  0  0  0  0
   -4.2344    2.4875    0.0179 H   0  0  0  0  0  0  0  0  0  0  0  0
    4.6382    2.3164   -0.6772 H   0  0  0  0  0  0  0  0  0  0  0  0
    5.2648   -2.5235    0.5238 H   0  0  0  0  0  0  0  0  0  0  0  0
    7.2220   -1.1010   -0.0791 H   0  0  0  0  0  0  0  0  0  0  0  0
   -6.7615   -1.7795   -0.1609 H   0  0  0  0  0  0  0  0  0  0  0  0
   -6.5770    2.4063    0.7935 H   0  0  0  0  0  0  0  0  0  0  0  0
   -7.8460    0.2763    0.7074 H   0  0  0  0  0  0  0  0  0  0  0  0
    8.1218    1.2000   -0.1969 H   0  0  0  0  0  0  0  0  0  0  0  0
    7.0703    2.5706   -0.5371 H   0  0  0  0  0  0  0  0  0  0  0  0
    7.4576    1.4172   -1.8345 H   0  0  0  0  0  0  0  0  0  0  0  0
  1 14  1  0  0  0  0
  2 10  1  0  0  0  0
  2 13  1  0  0  0  0
  3  7  1  0  0  0  0
  3  8  1  0  0  0  0
  3  9  1  0  0  0  0
  4 10  2  0  0  0  0
  4 12  1  0  0  0  0
  5  6  1  0  0  0  0
  5  7  1  0  0  0  0
  5 10  1  0  0  0  0
  5 24  1  0  0  0  0
  6  8  1  0  0  0  0
  6 25  1  0  0  0  0
  6 26  1  0  0  0  0
  7 27  1  0  0  0  0
  7 28  1  0  0  0  0
  8 29  1  0  0  0  0
  8 30  1  0  0  0  0
  9 11  1  0  0  0  0
  9 31  1  0  0  0  0
  9 32  1  0  0  0  0
 11 14  1  0  0  0  0
 11 15  2  0  0  0  0
 12 13  2  0  0  0  0
 12 16  1  0  0  0  0
 13 17  1  0  0  0  0
 14 20  2  0  0  0  0
 15 21  1  0  0  0  0
 15 33  1  0  0  0  0
 16 18  2  0  0  0  0
 16 34  1  0  0  0  0
 17 19  2  0  0  0  0
 17 35  1  0  0  0  0
 18 19  1  0  0  0  0
 18 23  1  0  0  0  0
 19 36  1  0  0  0  0
 20 22  1  0  0  0  0
 20 37  1  0  0  0  0
 21 22  2  0  0  0  0
 21 38  1  0  0  0  0
 22 39  1  0  0  0  0
 23 40  1  0  0  0  0
 23 41  1  0  0  0  0
 23 42  1  0  0  0  0
M  END
> <PUBCHEM_COMPOUND_CID>
45784189

> <PUBCHEM_CONFORMER_RMSD>
0.8

> <PUBCHEM_CONFORMER_DIVERSEORDER>
1
62
64
70
77
51
24
35
49
23
60
22
61
8
50
55
43
44
20
52
74
45
14
42
76
38
4
53
18
73
69
59
30
33
54
72
31
68
32
39
56
12
6
25
26
63
17
65
66
2
58
75
40
9
48
19
7
29
34
21
27
47
10
41
37
15
57
71
11
3
46
13
5
16
28
67
36

> <PUBCHEM_MMFF94_PARTIAL_CHARGES>
29
1 -0.19
10 0.3
11 -0.14
12 0.23
13 0.14
14 0.19
15 -0.15
16 -0.15
17 -0.15
18 -0.14
19 -0.15
2 -0.28
20 -0.15
21 -0.15
22 -0.15
23 0.14
3 -0.81
33 0.15
34 0.15
35 0.15
36 0.15
37 0.15
38 0.15
39 0.15
4 -0.57
5 0.18
7 0.27
8 0.27
9 0.41

> <PUBCHEM_EFFECTIVE_ROTOR_COUNT>
4

> <PUBCHEM_PHARMACOPHORE_FEATURES>
5
1 3 cation
5 2 4 10 12 13 rings
5 3 5 6 7 8 rings
6 11 14 15 20 21 22 rings
6 12 13 16 17 18 19 rings

> <PUBCHEM_HEAVY_ATOM_COUNT>
23

> <PUBCHEM_ATOM_DEF_STEREO_COUNT>
1

> <PUBCHEM_ATOM_UDEF_STEREO_COUNT>
0

> <PUBCHEM_BOND_DEF_STEREO_COUNT>
0

> <PUBCHEM_BOND_UDEF_STEREO_COUNT>
0

> <PUBCHEM_ISOTOPIC_ATOM_COUNT>
0

> <PUBCHEM_COMPONENT_COUNT>
1

> <PUBCHEM_CACTVS_TAUTO_COUNT>
1

> <PUBCHEM_CONFORMER_ID>
02BA9C7D00000001

> <PUBCHEM_MMFF94_ENERGY>
46.7588

> <PUBCHEM_FEATURE_SELFOVERLAP>
25.492

> <PUBCHEM_SHAPE_FINGERPRINT>
10 15 13767931247642128364
10299344 5 18341895199589968567
10595046 47 18408602535244041705
106641 1 13551480284438284332
11315181 36 18408323294578856645
11524674 6 16056878053087259391
11646440 116 16370449942543602220
12166972 35 18334579048897494012
12236239 1 18342175553189623438
12516196 113 17821447958471285212
12643181 29 14405182876663936764
12730499 353 17603869970907251346
12788726 201 17274545317365205419
12916748 109 16443063872664863508
13073987 5 15864341398846350597
13167372 99 18336265635262221232
13533116 47 18340765954014541322
13690498 29 18058440071394834527
14251752 14 17988924448685494865
14251764 18 18408322193927830621
14849402 71 18188216514699414548
14856354 85 17988646324590266935
14933364 13 18411420609215868397
15183329 4 18272368659311555521
15537594 2 16415474939405828447
17844677 252 18201720669609360617
18006028 8 12175623975162655946
18335252 98 18261118503776172379
19489759 90 8286201656701782615
200 152 18341892987117243946
20157964 124 18187085053589631474
2026 5 14691192162720016612
20281389 69 17313100848065960540
21033648 29 17822855415945848960
21150785 3 18272092721133154500
220451 1 18201718453026388527
22224240 67 16153428363185821800
23035841 295 18201718449126871691
23081809 10 18341322336266550215
23198884 109 18334577936647955929
23402539 116 18343015584368244197
23516275 137 18127995047565888115
23522609 53 18269578111722767585
23536379 177 18411136913783016883
23559900 14 17774712151580634209
23569943 247 17097480995589038346
23622692 88 13623535662193862250
2838139 119 17603863429556027948
29717793 49 18059861632586553414
3004659 81 17489587883346291456
314173 85 14908179754924656115
335352 9 18060133238098007549
34797466 226 16200433598651165184
3545911 37 18040435494936974442
397830 11 15141828243485918140
4073 2 18040722497500289514
4325135 7 18407759248807329909
4340502 62 15647052651564875138
445580 37 17775012258379007113
5265222 85 18059010712874988527
5283156 175 17561086869953840566
542803 24 18412541002911132631
5758199 1 18040437693691243856
59682541 35 16443073820031017937
59755656 215 15267350595826213772
59755656 520 17385722508511709699
9996256 80 18333447629687942549
999808 66 18260557762237944163

> <PUBCHEM_SHAPE_MULTIPOLES>
450.22
20.23
1.52
1.01
1.21
0.01
0.19
3.84
-3.04
0.34
-0.13
-0.4
-0.01
-1.31

> <PUBCHEM_SHAPE_SELFOVERLAP>
988.812

> <PUBCHEM_SHAPE_VOLUME>
247.2

> <PUBCHEM_COORDINATE_TYPE>
2
5
10

$$$$
