75367095
  -OEChem-12032416403D

 47 49  0     1  0  0  0  0  0999 V2000
    3.5484    1.6289   -0.0530 S   0  0  0  0  0  0  0  0  0  0  0  0
   -0.7445    0.7491   -1.3431 O   0  0  0  0  0  0  0  0  0  0  0  0
   -1.4786    0.4672    2.1622 O   0  0  0  0  0  0  0  0  0  0  0  0
    3.5088    2.1361    1.3053 O   0  0  0  0  0  0  0  0  0  0  0  0
    4.2522    2.3646   -1.0861 O   0  0  0  0  0  0  0  0  0  0  0  0
   -3.6277   -0.7955    0.2483 N   0  0  0  0  0  0  0  0  0  0  0  0
    1.9632    1.3110   -0.5823 N   0  0  0  0  0  0  0  0  0  0  0  0
   -4.9188   -0.3834   -0.2722 C   0  0  0  0  0  0  0  0  0  0  0  0
   -2.6200    0.2267    0.0175 C   0  0  1  0  0  0  0  0  0  0  0  0
   -1.3512    0.0244    0.8249 C   0  0  1  0  0  0  0  0  0  0  0  0
   -5.7085    0.4671    0.7154 C   0  0  0  0  0  0  0  0  0  0  0  0
   -5.8588   -1.5581   -0.5150 C   0  0  0  0  0  0  0  0  0  0  0  0
   -0.3636    0.8744    0.0371 C   0  0  1  0  0  0  0  0  0  0  0  0
   -7.1383    0.4009    0.1854 C   0  0  0  0  0  0  0  0  0  0  0  0
   -7.2351   -0.9047   -0.6089 C   0  0  0  0  0  0  0  0  0  0  0  0
   -2.0782    0.2135   -1.4025 C   0  0  0  0  0  0  0  0  0  0  0  0
    1.0795    0.4363    0.2131 C   0  0  0  0  0  0  0  0  0  0  0  0
    4.2472    0.0058   -0.0083 C   0  0  0  0  0  0  0  0  0  0  0  0
    4.8812   -0.5117   -1.1378 C   0  0  0  0  0  0  0  0  0  0  0  0
    4.1613   -0.7588    1.1551 C   0  0  0  0  0  0  0  0  0  0  0  0
    5.4293   -1.7941   -1.1039 C   0  0  0  0  0  0  0  0  0  0  0  0
    4.7092   -2.0409    1.1891 C   0  0  0  0  0  0  0  0  0  0  0  0
    5.3433   -2.5587    0.0596 C   0  0  0  0  0  0  0  0  0  0  0  0
   -4.8145    0.1550   -1.2241 H   0  0  0  0  0  0  0  0  0  0  0  0
   -3.0178    1.2214    0.2617 H   0  0  0  0  0  0  0  0  0  0  0  0
   -1.0499   -1.0306    0.8291 H   0  0  0  0  0  0  0  0  0  0  0  0
   -5.6770    0.0391    1.7257 H   0  0  0  0  0  0  0  0  0  0  0  0
   -5.3468    1.4981    0.7780 H   0  0  0  0  0  0  0  0  0  0  0  0
   -5.6063   -2.1213   -1.4190 H   0  0  0  0  0  0  0  0  0  0  0  0
   -5.8431   -2.2573    0.3311 H   0  0  0  0  0  0  0  0  0  0  0  0
   -3.6997   -1.0001    1.2443 H   0  0  0  0  0  0  0  0  0  0  0  0
   -0.4575    1.9344    0.3077 H   0  0  0  0  0  0  0  0  0  0  0  0
   -7.3409    1.2521   -0.4749 H   0  0  0  0  0  0  0  0  0  0  0  0
   -7.8678    0.4367    1.0008 H   0  0  0  0  0  0  0  0  0  0  0  0
   -8.0166   -1.5633   -0.2168 H   0  0  0  0  0  0  0  0  0  0  0  0
   -7.4832   -0.6853   -1.6538 H   0  0  0  0  0  0  0  0  0  0  0  0
   -2.0003   -0.8014   -1.8092 H   0  0  0  0  0  0  0  0  0  0  0  0
   -2.6774    0.8159   -2.0917 H   0  0  0  0  0  0  0  0  0  0  0  0
    1.2119   -0.5890   -0.1498 H   0  0  0  0  0  0  0  0  0  0  0  0
    1.3479    0.4790    1.2729 H   0  0  0  0  0  0  0  0  0  0  0  0
   -1.7481    1.4012    2.1506 H   0  0  0  0  0  0  0  0  0  0  0  0
    1.7686    1.3432   -1.5909 H   0  0  0  0  0  0  0  0  0  0  0  0
    4.9526    0.0628   -2.0569 H   0  0  0  0  0  0  0  0  0  0  0  0
    3.6696   -0.3770    2.0453 H   0  0  0  0  0  0  0  0  0  0  0  0
    5.9212   -2.1981   -1.9839 H   0  0  0  0  0  0  0  0  0  0  0  0
    4.6415   -2.6368    2.0946 H   0  0  0  0  0  0  0  0  0  0  0  0
    5.7693   -3.5574    0.0859 H   0  0  0  0  0  0  0  0  0  0  0  0
  1  4  2  0  0  0  0
  1  5  2  0  0  0  0
  1  7  1  0  0  0  0
  1 18  1  0  0  0  0
  2 13  1  0  0  0  0
  2 16  1  0  0  0  0
  3 10  1  0  0  0  0
  3 41  1  0  0  0  0
  6  8  1  0  0  0  0
  6  9  1  0  0  0  0
  6 31  1  0  0  0  0
  7 17  1  0  0  0  0
  7 42  1  0  0  0  0
  8 11  1  0  0  0  0
  8 12  1  0  0  0  0
  8 24  1  0  0  0  0
  9 10  1  0  0  0  0
  9 16  1  0  0  0  0
  9 25  1  0  0  0  0
 10 13  1  0  0  0  0
 10 26  1  0  0  0  0
 11 14  1  0  0  0  0
 11 27  1  0  0  0  0
 11 28  1  0  0  0  0
 12 15  1  0  0  0  0
 12 29  1  0  0  0  0
 12 30  1  0  0  0  0
 13 17  1  0  0  0  0
 13 32  1  0  0  0  0
 14 15  1  0  0  0  0
 14 33  1  0  0  0  0
 14 34  1  0  0  0  0
 15 35  1  0  0  0  0
 15 36  1  0  0  0  0
 16 37  1  0  0  0  0
 16 38  1  0  0  0  0
 17 39  1  0  0  0  0
 17 40  1  0  0  0  0
 18 19  2  0  0  0  0
 18 20  1  0  0  0  0
 19 21  1  0  0  0  0
 19 43  1  0  0  0  0
 20 22  2  0  0  0  0
 20 44  1  0  0  0  0
 21 23  2  0  0  0  0
 21 45  1  0  0  0  0
 22 23  1  0  0  0  0
 22 46  1  0  0  0  0
 23 47  1  0  0  0  0
M  END
> <PUBCHEM_COMPOUND_CID>
75367095

> <PUBCHEM_CONFORMER_RMSD>
0.8

> <PUBCHEM_CONFORMER_DIVERSEORDER>
1
126
46
132
95
164
147
144
115
246
96
245
94
234
136
14
100
47
152
109
179
125
229
131
13
207
22
173
24
150
225
107
5
233
208
168
183
227
241
32
213
64
231
148
236
202
17
188
238
114
68
209
106
193
21
15
197
57
35
4
219
55
206
162
16
186
170
135
75
44
12
116
230
92
212
76
194
160
10
18
120
240
81
215
71
224
157
218
205
8
25
65
93
189
111
228
37
195
198
149
151
222
185
6
40
175
98
139
62
140
217
235
223
153
137
48
176
232
250
204
87
243
181
27
128
59
58
221
60
7
166
155
138
113
77
199
84
23
104
90
30
54
146
41
159
45
73
134
200
141
154
36
191
182
211
167
119
226
102
103
247
49
124
83
97
85
239
210
89
3
9
112
118
105
249
33
174
187
101
117
34
88
70
220
123
196
244
28
19
66
129
203
53
127
133
242
142
63
122
80
161
67
52
20
192
43
26
214
79
248
156
180
172
61
11
163
190
91
184
69
39
158
169
86
237
72
171
42
29
143
145
165
50
82
99
2
130
201
78
38
110
31
74
51
56
216
178
177
108
121

> <PUBCHEM_MMFF94_PARTIAL_CHARGES>
27
1 1.45
10 0.28
13 0.28
16 0.28
17 0.36
18 -0.01
19 -0.15
2 -0.56
20 -0.15
21 -0.15
22 -0.15
23 -0.15
3 -0.68
31 0.36
4 -0.65
41 0.4
42 0.42
43 0.15
44 0.15
45 0.15
46 0.15
47 0.15
5 -0.65
6 -0.9
7 -0.91
8 0.27
9 0.27

> <PUBCHEM_EFFECTIVE_ROTOR_COUNT>
8

> <PUBCHEM_PHARMACOPHORE_FEATURES>
11
1 2 acceptor
1 3 acceptor
1 3 donor
1 4 acceptor
1 5 acceptor
1 6 cation
1 6 donor
1 7 donor
5 2 9 10 13 16 rings
5 8 11 12 14 15 rings
6 18 19 20 21 22 23 rings

> <PUBCHEM_HEAVY_ATOM_COUNT>
23

> <PUBCHEM_ATOM_DEF_STEREO_COUNT>
3

> <PUBCHEM_ATOM_UDEF_STEREO_COUNT>
0

> <PUBCHEM_BOND_DEF_STEREO_COUNT>
0

> <PUBCHEM_BOND_UDEF_STEREO_COUNT>
0

> <PUBCHEM_ISOTOPIC_ATOM_COUNT>
0

> <PUBCHEM_COMPONENT_COUNT>
1

> <PUBCHEM_CACTVS_TAUTO_COUNT>
1

> <PUBCHEM_CONFORMER_ID>
047E02B700000001

> <PUBCHEM_MMFF94_ENERGY>
32.4503

> <PUBCHEM_FEATURE_SELFOVERLAP>
55.84

> <PUBCHEM_SHAPE_FINGERPRINT>
10 15 15051725408830784915
10670039 82 14562804396766271134
10906281 52 13623804970187697429
11719270 70 17417813929043641455
11724838 91 10231746773813442720
11796584 16 18271811262867191479
12166972 35 18412267237696832113
12236239 1 18202284714900417129
125118 31 10231768790317540019
12616971 3 17846488244977477797
13533116 47 18413671322587333800
13617811 41 15574431020620038095
13685833 64 18408882911110187578
13782708 43 18413103987920917023
13914758 101 18342459193515907145
14211702 104 18263930006949358267
14251752 14 18343581807693549457
14251764 75 11022665113585234402
14347332 77 18188203200394962525
14347424 109 18202559579506000968
15183329 4 18334576832931122379
15188451 53 17775001241829973778
15419008 42 17700133193271947349
15475509 8 17240484667903815749
17844677 252 18186800266481577141
20028762 73 18202001006267393886
20397935 70 18273493477271709462
20567600 234 12175614096964754315
20645477 70 18334012796588254684
21150785 3 13479142293644897199
21304303 94 16008749070569842074
21344244 78 17632285762585174872
21521721 280 9367345964253098757
21641784 216 14779536856026108351
21792934 111 15123238685132027891
220451 1 18342182219258435389
22061861 79 18187641405945967127
221357 26 17894911802522622372
2215653 11 17676491639736731739
22956985 138 17129041377442437022
2303208 19 17240490225665031249
23081809 10 18201722881796897773
23522609 53 18118716277222689325
23536379 177 18412263952441911265
23559900 14 17022914479203474556
23569943 247 17969215634513596091
29717793 49 18410294709203290292
3004659 81 18343023293829343646
3014965 18 18407757023834974407
3472631 163 12108085374421607682
34797466 226 13551196562993269707
3886686 26 16121650037744505174
394071 54 17095812138701407436
397830 11 12535052187900451319
4072396 5 16702023075831363829
4073 2 18189899909855415754
46194498 28 17385446531688697900
465052 167 18342460326986444262
5374978 207 15698282218075444312
59682541 52 17967808327995700811
59755656 215 17313098627641734571
6025842 7 18334298716982996796
960060 61 17749116582370678086

> <PUBCHEM_SHAPE_MULTIPOLES>
443.74
19.13
2.09
1.35
21.05
0.15
0.2
8.34
-1.45
-4.04
-0.04
-0.72
-0.08
-0.75

> <PUBCHEM_SHAPE_SELFOVERLAP>
910.976

> <PUBCHEM_SHAPE_VOLUME>
256.3

> <PUBCHEM_COORDINATE_TYPE>
2
5
10

$$$$
