75536499
  -OEChem-12032416323D

 42 43  0     1  0  0  0  0  0999 V2000
   -5.4896   -1.0340   -0.3466 F   0  0  0  0  0  0  0  0  0  0  0  0
   -6.1146    0.2220    1.3149 F   0  0  0  0  0  0  0  0  0  0  0  0
    2.0854    1.3321    0.1592 O   0  0  0  0  0  0  0  0  0  0  0  0
    1.2928   -2.0050   -0.9090 O   0  0  0  0  0  0  0  0  0  0  0  0
    5.6281   -1.3701    0.7583 O   0  0  0  0  0  0  0  0  0  0  0  0
   -1.0876    0.0410   -1.0641 N   0  0  0  0  0  0  0  0  0  0  0  0
    4.8429    0.6003   -0.2048 N   0  0  0  0  0  0  0  0  0  0  0  0
   -2.2459    0.3446   -0.2256 C   0  0  0  0  0  0  0  0  0  0  0  0
    0.1346    0.0491   -0.2768 C   0  0  1  0  0  0  0  0  0  0  0  0
    1.3163   -0.5926   -0.9801 C   0  0  1  0  0  0  0  0  0  0  0  0
   -3.3867    0.8911   -1.0927 C   0  0  0  0  0  0  0  0  0  0  0  0
   -2.6809   -0.9133    0.5363 C   0  0  0  0  0  0  0  0  0  0  0  0
    2.4802   -0.0040   -0.1942 C   0  0  1  0  0  0  0  0  0  0  0  0
    0.6630    1.4507   -0.0188 C   0  0  0  0  0  0  0  0  0  0  0  0
   -4.6403    1.1532   -0.2601 C   0  0  0  0  0  0  0  0  0  0  0  0
   -3.9341   -0.6519    1.3698 C   0  0  0  0  0  0  0  0  0  0  0  0
   -5.0579   -0.0817    0.5209 C   0  0  0  0  0  0  0  0  0  0  0  0
    3.7776    0.0356   -0.9820 C   0  0  0  0  0  0  0  0  0  0  0  0
    5.6850   -0.1527    0.6056 C   0  0  0  0  0  0  0  0  0  0  0  0
    6.7315    0.6856    1.2897 C   0  0  0  0  0  0  0  0  0  0  0  0
    0.0007   -0.4750    0.6776 H   0  0  0  0  0  0  0  0  0  0  0  0
   -1.9994    1.1308    0.5003 H   0  0  0  0  0  0  0  0  0  0  0  0
    1.3590   -0.2922   -2.0344 H   0  0  0  0  0  0  0  0  0  0  0  0
   -1.2114   -0.8659   -1.5130 H   0  0  0  0  0  0  0  0  0  0  0  0
   -3.6295    0.1773   -1.8911 H   0  0  0  0  0  0  0  0  0  0  0  0
   -3.0770    1.8222   -1.5831 H   0  0  0  0  0  0  0  0  0  0  0  0
   -1.8949   -1.2733    1.2084 H   0  0  0  0  0  0  0  0  0  0  0  0
   -2.8896   -1.7291   -0.1688 H   0  0  0  0  0  0  0  0  0  0  0  0
    2.6362   -0.5568    0.7416 H   0  0  0  0  0  0  0  0  0  0  0  0
    0.4995    2.1207   -0.8709 H   0  0  0  0  0  0  0  0  0  0  0  0
    0.2264    1.9128    0.8716 H   0  0  0  0  0  0  0  0  0  0  0  0
   -4.4631    1.9846    0.4327 H   0  0  0  0  0  0  0  0  0  0  0  0
   -5.4577    1.4631   -0.9211 H   0  0  0  0  0  0  0  0  0  0  0  0
   -4.2645   -1.5882    1.8337 H   0  0  0  0  0  0  0  0  0  0  0  0
   -3.7023    0.0405    2.1880 H   0  0  0  0  0  0  0  0  0  0  0  0
    3.6720    0.6719   -1.8675 H   0  0  0  0  0  0  0  0  0  0  0  0
    4.0624   -0.9706   -1.3074 H   0  0  0  0  0  0  0  0  0  0  0  0
    1.2519   -2.2636    0.0273 H   0  0  0  0  0  0  0  0  0  0  0  0
    4.9800    1.6059   -0.2536 H   0  0  0  0  0  0  0  0  0  0  0  0
    6.2766    1.5777    1.7296 H   0  0  0  0  0  0  0  0  0  0  0  0
    7.2044    0.1055    2.0870 H   0  0  0  0  0  0  0  0  0  0  0  0
    7.4905    0.9847    0.5618 H   0  0  0  0  0  0  0  0  0  0  0  0
  1 17  1  0  0  0  0
  2 17  1  0  0  0  0
  3 13  1  0  0  0  0
  3 14  1  0  0  0  0
  4 10  1  0  0  0  0
  4 38  1  0  0  0  0
  5 19  2  0  0  0  0
  6  8  1  0  0  0  0
  6  9  1  0  0  0  0
  6 24  1  0  0  0  0
  7 18  1  0  0  0  0
  7 19  1  0  0  0  0
  7 39  1  0  0  0  0
  8 11  1  0  0  0  0
  8 12  1  0  0  0  0
  8 22  1  0  0  0  0
  9 10  1  0  0  0  0
  9 14  1  0  0  0  0
  9 21  1  0  0  0  0
 10 13  1  0  0  0  0
 10 23  1  0  0  0  0
 11 15  1  0  0  0  0
 11 25  1  0  0  0  0
 11 26  1  0  0  0  0
 12 16  1  0  0  0  0
 12 27  1  0  0  0  0
 12 28  1  0  0  0  0
 13 18  1  0  0  0  0
 13 29  1  0  0  0  0
 14 30  1  0  0  0  0
 14 31  1  0  0  0  0
 15 17  1  0  0  0  0
 15 32  1  0  0  0  0
 15 33  1  0  0  0  0
 16 17  1  0  0  0  0
 16 34  1  0  0  0  0
 16 35  1  0  0  0  0
 18 36  1  0  0  0  0
 18 37  1  0  0  0  0
 19 20  1  0  0  0  0
 20 40  1  0  0  0  0
 20 41  1  0  0  0  0
 20 42  1  0  0  0  0
M  END
> <PUBCHEM_COMPOUND_CID>
75536499

> <PUBCHEM_CONFORMER_RMSD>
0.8

> <PUBCHEM_CONFORMER_DIVERSEORDER>
1
110
81
26
28
58
55
97
74
70
101
98
24
117
103
75
27
114
90
112
56
104
31
111
23
88
96
5
84
102
60
78
89
19
80
73
87
116
86
54
61
63
32
91
34
21
48
43
2
83
68
113
59
42
69
115
64
118
33
94
8
36
44
100
39
22
14
52
76
47
77
82
93
51
38
6
16
46
40
10
25
85
29
99
20
50
62
92
106
65
107
71
79
49
3
17
108
30
11
12
35
67
9
57
37
109
66
15
13
105
72
45
18
41
7
53
95
4

> <PUBCHEM_MMFF94_PARTIAL_CHARGES>
19
1 -0.34
10 0.28
13 0.28
14 0.28
17 0.68
18 0.3
19 0.57
2 -0.34
20 0.06
24 0.36
3 -0.56
38 0.4
39 0.37
4 -0.68
5 -0.57
6 -0.9
7 -0.73
8 0.27
9 0.27

> <PUBCHEM_EFFECTIVE_ROTOR_COUNT>
7.2

> <PUBCHEM_PHARMACOPHORE_FEATURES>
9
1 3 acceptor
1 4 acceptor
1 4 donor
1 5 acceptor
1 6 cation
1 6 donor
1 7 donor
5 3 9 10 13 14 rings
6 8 11 12 15 16 17 rings

> <PUBCHEM_HEAVY_ATOM_COUNT>
20

> <PUBCHEM_ATOM_DEF_STEREO_COUNT>
3

> <PUBCHEM_ATOM_UDEF_STEREO_COUNT>
0

> <PUBCHEM_BOND_DEF_STEREO_COUNT>
0

> <PUBCHEM_BOND_UDEF_STEREO_COUNT>
0

> <PUBCHEM_ISOTOPIC_ATOM_COUNT>
0

> <PUBCHEM_COMPONENT_COUNT>
1

> <PUBCHEM_CACTVS_TAUTO_COUNT>
2

> <PUBCHEM_CONFORMER_ID>
0480987300000001

> <PUBCHEM_MMFF94_ENERGY>
28.571

> <PUBCHEM_FEATURE_SELFOVERLAP>
45.672

> <PUBCHEM_SHAPE_FINGERPRINT>
10 15 18410007776024968048
106641 1 18060133297082642858
11315181 36 16805325500491296885
117890 112 15051730893952167864
11796584 16 17095242527369221730
12236239 1 16415482631845079965
12507557 5 17561368400596308265
12596602 18 17203611479760848994
12670543 26 7997978985468192112
12916748 109 15267070250019498606
13288520 33 15936407840674956133
13533116 47 18271807870607990066
13668630 136 13767925715386764648
1420 363 16587746438372834664
14251764 18 18342454889568117284
14341114 176 17821733853101289996
14528608 73 12535622787275048176
15048467 5 15195565710836776672
15183329 4 15719391716173782864
15348495 7 18335418032330298568
15788980 27 14996285820602415943
17834072 8 9223230758954863400
17844677 252 16877664548025948172
1813 80 14490474145477915358
19489759 90 18040151816916516493
200 152 17917996079491956431
20281389 69 14908181937116266954
20645477 56 13110965318925513205
20681677 155 15482669078784898655
21150785 3 14907890566740920133
21267235 1 11530489926334246181
21637258 2 16153417368517761282
22224240 67 18272929444538292582
23035841 295 15285357327565851489
23402539 116 16949997024107278301
23536379 177 17022902341879402324
23557571 272 17385440986226665589
23559900 14 16660930005617282405
23590187 198 15863791698766589859
25147074 1 17914887875783989180
26918003 58 18411142446006907809
2916195 48 15339114645712772242
29717793 49 15647054867293518622
300161 21 14908180828518845276
3004659 81 17240487996877775598
33382 64 17240480274194145104
351380 3 14634866457416932912
4072396 5 18342174445452259398
4340502 62 17967811644274715682
465052 167 18040719152200384494
5104073 3 18197501722891283864
542803 24 11600008738621230645
559249 180 15936404533850766547
59755656 215 15719385118603161746
7495541 125 17822297919857069140

> <PUBCHEM_SHAPE_MULTIPOLES>
369.47
15.94
1.31
1.18
7.78
0.11
-0.05
1.41
-6.37
-0.11
0.06
0.17
0.14
0.61

> <PUBCHEM_SHAPE_SELFOVERLAP>
751.239

> <PUBCHEM_SHAPE_VOLUME>
217

> <PUBCHEM_COORDINATE_TYPE>
2
5
10

$$$$
