40780217
  -OEChem-12032416163D

 68 72  0     1  0  0  0  0  0999 V2000
    9.9409   -3.4123    0.5603 F   0  0  0  0  0  0  0  0  0  0  0  0
   -5.1155    1.8561   -0.3764 O   0  0  0  0  0  0  0  0  0  0  0  0
   -1.0198    3.8343    0.0001 N   0  0  2  0  0  0  0  0  0  0  0  0
    2.9053    1.0115   -0.4927 N   0  0  0  0  0  0  0  0  0  0  0  0
   -3.1173    0.8865   -1.0235 N   0  0  0  0  0  0  0  0  0  0  0  0
    5.3647   -0.4253   -0.2775 N   0  0  0  0  0  0  0  0  0  0  0  0
   -4.9137   -0.4774   -0.5339 N   0  0  0  0  0  0  0  0  0  0  0  0
   -8.2515   -5.2895    0.2870 N   0  0  0  0  0  0  0  0  0  0  0  0
    0.6067    2.1002    1.0555 C   0  0  2  0  0  0  0  0  0  0  0  0
    1.2685    2.8198   -0.1418 C   0  0  2  0  0  0  0  0  0  0  0  0
   -1.6864    2.5082    0.1042 C   0  0  2  0  0  0  0  0  0  0  0  0
   -0.6962    1.4256    0.5882 C   0  0  0  0  0  0  0  0  0  0  0  0
    0.2143    3.7272   -0.8151 C   0  0  0  0  0  0  0  0  0  0  0  0
    0.2170    3.1897    2.0727 C   0  0  0  0  0  0  0  0  0  0  0  0
   -0.6348    4.2602    1.3677 C   0  0  0  0  0  0  0  0  0  0  0  0
    1.9075    1.8603   -1.1429 C   0  0  0  0  0  0  0  0  0  0  0  0
   -2.3823    2.1011   -1.1968 C   0  0  0  0  0  0  0  0  0  0  0  0
    4.1760    1.7312   -0.3445 C   0  0  0  0  0  0  0  0  0  0  0  0
    3.1157   -0.2196   -1.2645 C   0  0  0  0  0  0  0  0  0  0  0  0
    5.2125    0.8734    0.3856 C   0  0  0  0  0  0  0  0  0  0  0  0
    4.1159   -1.1423   -0.5643 C   0  0  0  0  0  0  0  0  0  0  0  0
   -4.4630    0.8430   -0.6164 C   0  0  0  0  0  0  0  0  0  0  0  0
    6.5231   -1.1811   -0.0659 C   0  0  0  0  0  0  0  0  0  0  0  0
    7.2068   -1.0845    1.1461 C   0  0  0  0  0  0  0  0  0  0  0  0
    6.9943   -2.0311   -1.0667 C   0  0  0  0  0  0  0  0  0  0  0  0
   -6.1997   -0.9340   -0.1619 C   0  0  0  0  0  0  0  0  0  0  0  0
    8.3613   -1.8382    1.3578 C   0  0  0  0  0  0  0  0  0  0  0  0
    8.1490   -2.7845   -0.8552 C   0  0  0  0  0  0  0  0  0  0  0  0
    8.8325   -2.6882    0.3570 C   0  0  0  0  0  0  0  0  0  0  0  0
   -6.4736   -2.3014   -0.1333 C   0  0  0  0  0  0  0  0  0  0  0  0
   -7.1941   -0.0163    0.1768 C   0  0  0  0  0  0  0  0  0  0  0  0
   -7.7419   -2.7513    0.2340 C   0  0  0  0  0  0  0  0  0  0  0  0
   -8.4624   -0.4661    0.5444 C   0  0  0  0  0  0  0  0  0  0  0  0
   -8.7363   -1.8335    0.5728 C   0  0  0  0  0  0  0  0  0  0  0  0
   -8.0231   -4.1519    0.2633 C   0  0  0  0  0  0  0  0  0  0  0  0
    1.2724    1.3728    1.5304 H   0  0  0  0  0  0  0  0  0  0  0  0
    2.0491    3.4821    0.2561 H   0  0  0  0  0  0  0  0  0  0  0  0
   -2.4796    2.5987    0.8612 H   0  0  0  0  0  0  0  0  0  0  0  0
   -0.4795    0.6842   -0.1877 H   0  0  0  0  0  0  0  0  0  0  0  0
   -1.1433    0.8770    1.4271 H   0  0  0  0  0  0  0  0  0  0  0  0
    0.6379    4.7309   -0.9528 H   0  0  0  0  0  0  0  0  0  0  0  0
   -0.0276    3.3884   -1.8286 H   0  0  0  0  0  0  0  0  0  0  0  0
    1.1145    3.6507    2.5014 H   0  0  0  0  0  0  0  0  0  0  0  0
   -0.3471    2.7444    2.9011 H   0  0  0  0  0  0  0  0  0  0  0  0
   -1.5335    4.4718    1.9603 H   0  0  0  0  0  0  0  0  0  0  0  0
   -0.0859    5.2094    1.3200 H   0  0  0  0  0  0  0  0  0  0  0  0
    2.3456    2.4186   -1.9816 H   0  0  0  0  0  0  0  0  0  0  0  0
    1.1171    1.2425   -1.5869 H   0  0  0  0  0  0  0  0  0  0  0  0
   -1.6664    1.9214   -2.0050 H   0  0  0  0  0  0  0  0  0  0  0  0
   -3.0678    2.8908   -1.5251 H   0  0  0  0  0  0  0  0  0  0  0  0
    4.0450    2.6502    0.2364 H   0  0  0  0  0  0  0  0  0  0  0  0
    4.5741    2.0219   -1.3263 H   0  0  0  0  0  0  0  0  0  0  0  0
    3.4738    0.0138   -2.2763 H   0  0  0  0  0  0  0  0  0  0  0  0
    2.1701   -0.7657   -1.3690 H   0  0  0  0  0  0  0  0  0  0  0  0
   -2.6409    0.0077   -1.2012 H   0  0  0  0  0  0  0  0  0  0  0  0
    6.1635    1.4207    0.3898 H   0  0  0  0  0  0  0  0  0  0  0  0
    4.8991    0.7269    1.4273 H   0  0  0  0  0  0  0  0  0  0  0  0
    3.6906   -1.5149    0.3767 H   0  0  0  0  0  0  0  0  0  0  0  0
    4.2846   -2.0127   -1.2086 H   0  0  0  0  0  0  0  0  0  0  0  0
   -4.2415   -1.2039   -0.7673 H   0  0  0  0  0  0  0  0  0  0  0  0
    6.8612   -0.4442    1.9526 H   0  0  0  0  0  0  0  0  0  0  0  0
    6.4842   -2.1097   -2.0233 H   0  0  0  0  0  0  0  0  0  0  0  0
    8.8922   -1.7661    2.3025 H   0  0  0  0  0  0  0  0  0  0  0  0
    8.5180   -3.4441   -1.6350 H   0  0  0  0  0  0  0  0  0  0  0  0
   -5.6963   -3.0159   -0.3979 H   0  0  0  0  0  0  0  0  0  0  0  0
   -7.0593    1.0561    0.1785 H   0  0  0  0  0  0  0  0  0  0  0  0
   -9.2375    0.2476    0.8085 H   0  0  0  0  0  0  0  0  0  0  0  0
   -9.7299   -2.1686    0.8612 H   0  0  0  0  0  0  0  0  0  0  0  0
  1 29  1  0  0  0  0
  2 22  2  0  0  0  0
  3 11  1  0  0  0  0
  3 13  1  0  0  0  0
  3 15  1  0  0  0  0
  4 16  1  0  0  0  0
  4 18  1  0  0  0  0
  4 19  1  0  0  0  0
  5 17  1  0  0  0  0
  5 22  1  0  0  0  0
  5 55  1  0  0  0  0
  6 20  1  0  0  0  0
  6 21  1  0  0  0  0
  6 23  1  0  0  0  0
  7 22  1  0  0  0  0
  7 26  1  0  0  0  0
  7 60  1  0  0  0  0
  8 35  3  0  0  0  0
  9 10  1  0  0  0  0
  9 12  1  0  0  0  0
  9 14  1  0  0  0  0
  9 36  1  0  0  0  0
 10 13  1  0  0  0  0
 10 16  1  0  0  0  0
 10 37  1  0  0  0  0
 11 12  1  0  0  0  0
 11 17  1  0  0  0  0
 11 38  1  0  0  0  0
 12 39  1  0  0  0  0
 12 40  1  0  0  0  0
 13 41  1  0  0  0  0
 13 42  1  0  0  0  0
 14 15  1  0  0  0  0
 14 43  1  0  0  0  0
 14 44  1  0  0  0  0
 15 45  1  0  0  0  0
 15 46  1  0  0  0  0
 16 47  1  0  0  0  0
 16 48  1  0  0  0  0
 17 49  1  0  0  0  0
 17 50  1  0  0  0  0
 18 20  1  0  0  0  0
 18 51  1  0  0  0  0
 18 52  1  0  0  0  0
 19 21  1  0  0  0  0
 19 53  1  0  0  0  0
 19 54  1  0  0  0  0
 20 56  1  0  0  0  0
 20 57  1  0  0  0  0
 21 58  1  0  0  0  0
 21 59  1  0  0  0  0
 23 24  2  0  0  0  0
 23 25  1  0  0  0  0
 24 27  1  0  0  0  0
 24 61  1  0  0  0  0
 25 28  2  0  0  0  0
 25 62  1  0  0  0  0
 26 30  1  0  0  0  0
 26 31  2  0  0  0  0
 27 29  2  0  0  0  0
 27 63  1  0  0  0  0
 28 29  1  0  0  0  0
 28 64  1  0  0  0  0
 30 32  2  0  0  0  0
 30 65  1  0  0  0  0
 31 33  1  0  0  0  0
 31 66  1  0  0  0  0
 32 34  1  0  0  0  0
 32 35  1  0  0  0  0
 33 34  2  0  0  0  0
 33 67  1  0  0  0  0
 34 68  1  0  0  0  0
M  END
> <PUBCHEM_COMPOUND_CID>
40780217

> <PUBCHEM_CONFORMER_RMSD>
1

> <PUBCHEM_CONFORMER_DIVERSEORDER>
1
48
57
177
199
186
58
25
153
34
79
190
144
140
187
132
208
158
224
121
204
80
185
101
168
56
27
152
174
223
157
115
166
146
218
178
175
167
163
215
30
142
197
235
39
221
110
72
94
239
111
92
78
192
195
50
211
179
29
13
128
149
88
214
20
164
228
169
63
41
181
220
85
49
99
96
93
183
229
188
82
170
59
123
233
76
134
203
145
143
66
150
120
67
3
156
36
11
8
74
133
198
125
161
210
44
62
77
135
83
55
130
231
70
160
147
32
40
209
148
182
61
194
90
138
89
118
68
31
112
37
71
95
106
105
122
216
117
97
193
217
107
151
52
200
126
206
232
191
46
6
53
201
10
23
113
202
154
45
100
127
205
131
65
172
226
137
75
234
171
162
119
102
43
73
26
15
64
54
189
236
219
69
139
225
91
108
230
124
16
87
42
86
35
51
28
227
21
176
116
180
81
222
98
207
9
238
103
24
237
47
33
173
196
38
7
159
184
212
2
165
5
12
17
22
19
109
14
155
84
136
18
104
129
213
141
4
60
114

> <PUBCHEM_MMFF94_PARTIAL_CHARGES>
41
1 -0.19
11 0.27
13 0.27
15 0.27
16 0.27
17 0.3
18 0.27
19 0.27
2 -0.57
20 0.37
21 0.37
22 0.69
23 0.1
24 -0.15
25 -0.15
26 0.12
27 -0.15
28 -0.15
29 0.19
3 -0.81
30 -0.15
31 -0.15
32 0.07
33 -0.15
34 -0.15
35 0.48
4 -0.81
5 -0.73
55 0.37
6 -0.84
60 0.37
61 0.15
62 0.15
63 0.15
64 0.15
65 0.15
66 0.15
67 0.15
68 0.15
7 -0.55
8 -0.56

> <PUBCHEM_EFFECTIVE_ROTOR_COUNT>
10.4

> <PUBCHEM_PHARMACOPHORE_FEATURES>
11
1 2 acceptor
1 3 cation
1 4 cation
1 5 donor
1 6 cation
1 7 donor
1 8 acceptor
6 23 24 25 27 28 29 rings
6 26 30 31 32 33 34 rings
6 4 6 18 19 20 21 rings
8 3 9 10 11 12 13 14 15 rings

> <PUBCHEM_HEAVY_ATOM_COUNT>
35

> <PUBCHEM_ATOM_DEF_STEREO_COUNT>
3

> <PUBCHEM_ATOM_UDEF_STEREO_COUNT>
0

> <PUBCHEM_BOND_DEF_STEREO_COUNT>
0

> <PUBCHEM_BOND_UDEF_STEREO_COUNT>
0

> <PUBCHEM_ISOTOPIC_ATOM_COUNT>
0

> <PUBCHEM_COMPONENT_COUNT>
1

> <PUBCHEM_CACTVS_TAUTO_COUNT>
3

> <PUBCHEM_CONFORMER_ID>
026E41B900000001

> <PUBCHEM_MMFF94_ENERGY>
100.568

> <PUBCHEM_FEATURE_SELFOVERLAP>
55.873

> <PUBCHEM_SHAPE_FINGERPRINT>
10100884 174 18335420154261265050
10190206 1 12468351328492772927
10280341 67 7997677659411629142
10533779 1 9799411087963930091
11135609 99 18411698777763931502
11409948 8 18271794732798352314
11578821 258 10087342440361671498
11672396 167 18341045333538250735
117089 54 18410016554743260319
12013929 27 18187085057014180974
12013929 94 18341331090818563422
12522641 68 10953747702532487537
12717326 120 18341339903532150030
13248334 5 18049163568468632061
13782708 43 18335137652918654461
13974486 7 18336256925058736306
14068700 675 18335706009808873956
14359421 15 17967527957036985523
14904525 67 8645041566078995710
15152005 304 18339375131366066111
15152005 77 18201716250230867391
15347591 1 18409729573387179885
15510800 12 18412826863223552006
15773216 30 18191030212721922468
15803439 3 14345798244572868336
16067689 68 18130518431345891977
16120349 189 8574710195836056409
16990366 60 18340487858654489361
19246450 95 17417817193704108333
19303781 99 18411125948689306540
19841028 212 18408323302367133120
2026 5 18260828168039603323
20721686 146 9799694800607371059
21130935 74 18196937889103293505
212700 22 18339916031268190886
21792965 78 17749393598865848826
21987483 16 18334287679212231240
22002106 203 18200019763945137327
22899556 10 17117748693078052144
23523787 8 14851885880411325473
23569914 152 11243070917214185408
23569917 315 18266463106105297278
23569943 247 18337677512110368843
25242607 90 18412538825331221179
2747138 104 18059855018199845364
3383291 50 18411697656519614506
3918712 181 8935012463945463679
393628 194 10303809887401889403
406291 66 18335138678909260438
4169191 19 9799422105451343075
437795 150 18186794756628919189
439807 62 18335140908282136973
44426701 291 18189069727627760139
4461854 278 17561079199063656142
44802255 64 11675180128484430288
4760202 70 18114475505226315612
54039377 194 18408324371682023654
5718773 13 18409729552021982692
57527295 17 16661480685055367156
6327066 14 8430311337933797688
636775 8 18340211791706424918

> <PUBCHEM_SHAPE_MULTIPOLES>
677.25
32.72
6.07
1.24
0.62
1.07
0.23
56.78
4.99
4.86
1.21
-1.13
-0.62
0.6

> <PUBCHEM_SHAPE_SELFOVERLAP>
1449.34

> <PUBCHEM_SHAPE_VOLUME>
373.5

> <PUBCHEM_COORDINATE_TYPE>
2
5
10

$$$$
