45783341
  -OEChem-12032416263D

 52 55  0     1  0  0  0  0  0999 V2000
    1.4192    3.4513    0.3806 O   0  0  0  0  0  0  0  0  0  0  0  0
   -3.9878   -0.8656   -0.0394 O   0  0  0  0  0  0  0  0  0  0  0  0
   -5.4234   -2.5749   -1.7281 O   0  0  0  0  0  0  0  0  0  0  0  0
    3.2721    0.4436   -0.6325 N   0  0  1  0  0  0  0  0  0  0  0  0
    0.5094    1.4884   -0.1994 N   0  0  0  0  0  0  0  0  0  0  0  0
    0.0704    3.5226    0.7510 N   0  0  0  0  0  0  0  0  0  0  0  0
   -4.4365    1.1959    0.9266 N   0  0  0  0  0  0  0  0  0  0  0  0
    2.9888    1.8924   -0.6588 C   0  0  1  0  0  0  0  0  0  0  0  0
    3.2208    2.3099   -2.1228 C   0  0  0  0  0  0  0  0  0  0  0  0
    3.6897    1.0449   -2.8275 C   0  0  0  0  0  0  0  0  0  0  0  0
    4.2385    0.1919   -1.7016 C   0  0  0  0  0  0  0  0  0  0  0  0
    3.7517   -0.0246    0.6614 C   0  0  0  0  0  0  0  0  0  0  0  0
    1.5935    2.2218   -0.1711 C   0  0  0  0  0  0  0  0  0  0  0  0
    3.5661   -1.5098    0.8243 C   0  0  0  0  0  0  0  0  0  0  0  0
    2.3854   -2.0092    1.3740 C   0  0  0  0  0  0  0  0  0  0  0  0
    4.5751   -2.3864    0.4255 C   0  0  0  0  0  0  0  0  0  0  0  0
   -0.3985    2.3284    0.3769 C   0  0  0  0  0  0  0  0  0  0  0  0
    2.2137   -3.3853    1.5250 C   0  0  0  0  0  0  0  0  0  0  0  0
    4.4035   -3.7623    0.5765 C   0  0  0  0  0  0  0  0  0  0  0  0
   -1.7678    1.9442    0.5632 C   0  0  0  0  0  0  0  0  0  0  0  0
    3.2228   -4.2618    1.1262 C   0  0  0  0  0  0  0  0  0  0  0  0
   -2.2027    0.6885    0.1535 C   0  0  0  0  0  0  0  0  0  0  0  0
   -2.6657    2.8261    1.1543 C   0  0  0  0  0  0  0  0  0  0  0  0
   -3.5349    0.3658    0.3558 C   0  0  0  0  0  0  0  0  0  0  0  0
   -3.9772    2.4077    1.3119 C   0  0  0  0  0  0  0  0  0  0  0  0
   -5.3635   -1.1458    0.1916 C   0  0  0  0  0  0  0  0  0  0  0  0
   -5.6800   -2.5344   -0.3296 C   0  0  0  0  0  0  0  0  0  0  0  0
   -5.6825   -3.8633   -2.2678 C   0  0  0  0  0  0  0  0  0  0  0  0
    3.7139    2.4341   -0.0349 H   0  0  0  0  0  0  0  0  0  0  0  0
    2.3311    2.7209   -2.6122 H   0  0  0  0  0  0  0  0  0  0  0  0
    4.0107    3.0695   -2.1682 H   0  0  0  0  0  0  0  0  0  0  0  0
    4.4370    1.2540   -3.5986 H   0  0  0  0  0  0  0  0  0  0  0  0
    2.8368    0.5466   -3.3050 H   0  0  0  0  0  0  0  0  0  0  0  0
    5.2489    0.5267   -1.4347 H   0  0  0  0  0  0  0  0  0  0  0  0
    4.2767   -0.8596   -2.0005 H   0  0  0  0  0  0  0  0  0  0  0  0
    3.1902    0.4618    1.4713 H   0  0  0  0  0  0  0  0  0  0  0  0
    4.7993    0.2538    0.8402 H   0  0  0  0  0  0  0  0  0  0  0  0
    1.5900   -1.3373    1.6859 H   0  0  0  0  0  0  0  0  0  0  0  0
    5.5026   -2.0114    0.0013 H   0  0  0  0  0  0  0  0  0  0  0  0
    1.2940   -3.7742    1.9523 H   0  0  0  0  0  0  0  0  0  0  0  0
    5.1896   -4.4449    0.2672 H   0  0  0  0  0  0  0  0  0  0  0  0
    3.0892   -5.3332    1.2438 H   0  0  0  0  0  0  0  0  0  0  0  0
   -1.5378   -0.0325   -0.3120 H   0  0  0  0  0  0  0  0  0  0  0  0
   -2.3842    3.8175    1.4935 H   0  0  0  0  0  0  0  0  0  0  0  0
   -4.7171    3.0577    1.7673 H   0  0  0  0  0  0  0  0  0  0  0  0
   -5.9792   -0.4141   -0.3463 H   0  0  0  0  0  0  0  0  0  0  0  0
   -5.5846   -1.1034    1.2647 H   0  0  0  0  0  0  0  0  0  0  0  0
   -5.0407   -3.2716    0.1700 H   0  0  0  0  0  0  0  0  0  0  0  0
   -6.7312   -2.7758   -0.1376 H   0  0  0  0  0  0  0  0  0  0  0  0
   -5.0315   -4.6115   -1.8052 H   0  0  0  0  0  0  0  0  0  0  0  0
   -6.7325   -4.1359   -2.1235 H   0  0  0  0  0  0  0  0  0  0  0  0
   -5.4738   -3.8354   -3.3406 H   0  0  0  0  0  0  0  0  0  0  0  0
  1  6  1  0  0  0  0
  1 13  1  0  0  0  0
  2 24  1  0  0  0  0
  2 26  1  0  0  0  0
  3 27  1  0  0  0  0
  3 28  1  0  0  0  0
  4  8  1  0  0  0  0
  4 11  1  0  0  0  0
  4 12  1  0  0  0  0
  5 13  2  0  0  0  0
  5 17  1  0  0  0  0
  6 17  2  0  0  0  0
  7 24  2  0  0  0  0
  7 25  1  0  0  0  0
  8  9  1  0  0  0  0
  8 13  1  0  0  0  0
  8 29  1  0  0  0  0
  9 10  1  0  0  0  0
  9 30  1  0  0  0  0
  9 31  1  0  0  0  0
 10 11  1  0  0  0  0
 10 32  1  0  0  0  0
 10 33  1  0  0  0  0
 11 34  1  0  0  0  0
 11 35  1  0  0  0  0
 12 14  1  0  0  0  0
 12 36  1  0  0  0  0
 12 37  1  0  0  0  0
 14 15  2  0  0  0  0
 14 16  1  0  0  0  0
 15 18  1  0  0  0  0
 15 38  1  0  0  0  0
 16 19  2  0  0  0  0
 16 39  1  0  0  0  0
 17 20  1  0  0  0  0
 18 21  2  0  0  0  0
 18 40  1  0  0  0  0
 19 21  1  0  0  0  0
 19 41  1  0  0  0  0
 20 22  2  0  0  0  0
 20 23  1  0  0  0  0
 21 42  1  0  0  0  0
 22 24  1  0  0  0  0
 22 43  1  0  0  0  0
 23 25  2  0  0  0  0
 23 44  1  0  0  0  0
 25 45  1  0  0  0  0
 26 27  1  0  0  0  0
 26 46  1  0  0  0  0
 26 47  1  0  0  0  0
 27 48  1  0  0  0  0
 27 49  1  0  0  0  0
 28 50  1  0  0  0  0
 28 51  1  0  0  0  0
 28 52  1  0  0  0  0
M  END
> <PUBCHEM_COMPOUND_CID>
45783341

> <PUBCHEM_CONFORMER_RMSD>
1

> <PUBCHEM_CONFORMER_DIVERSEORDER>
1
17
56
60
58
88
16
13
57
66
105
92
110
114
28
39
50
76
18
102
70
71
47
44
46
9
109
63
43
90
24
69
93
12
107
48
36
67
62
84
111
49
68
72
100
103
61
96
55
98
34
87
11
29
79
6
40
14
37
65
31
77
53
7
35
19
42
4
27
80
30
94
99
113
33
95
45
41
75
20
22
85
23
32
73
3
38
97
8
74
78
101
86
15
112
108
5
81
59
54
104
25
106
2
52
64
83
89
91
82
51
26
21
10

> <PUBCHEM_MMFF94_PARTIAL_CHARGES>
34
1 -0.02
11 0.27
12 0.41
13 0.3
14 -0.14
15 -0.15
16 -0.15
17 0.46
18 -0.15
19 -0.15
2 -0.36
20 0.05
21 -0.15
22 -0.15
23 -0.15
24 0.39
25 0.16
26 0.28
27 0.28
28 0.28
3 -0.56
38 0.15
39 0.15
4 -0.81
40 0.15
41 0.15
42 0.15
43 0.15
44 0.15
45 0.15
5 -0.57
6 -0.41
7 -0.62
8 0.45

> <PUBCHEM_EFFECTIVE_ROTOR_COUNT>
9

> <PUBCHEM_PHARMACOPHORE_FEATURES>
7
1 3 acceptor
1 4 cation
3 5 6 17 cation
5 1 5 6 13 17 rings
5 4 8 9 10 11 rings
6 14 15 16 18 19 21 rings
6 7 20 22 23 24 25 rings

> <PUBCHEM_HEAVY_ATOM_COUNT>
28

> <PUBCHEM_ATOM_DEF_STEREO_COUNT>
1

> <PUBCHEM_ATOM_UDEF_STEREO_COUNT>
0

> <PUBCHEM_BOND_DEF_STEREO_COUNT>
0

> <PUBCHEM_BOND_UDEF_STEREO_COUNT>
0

> <PUBCHEM_ISOTOPIC_ATOM_COUNT>
0

> <PUBCHEM_COMPONENT_COUNT>
1

> <PUBCHEM_CACTVS_TAUTO_COUNT>
1

> <PUBCHEM_CONFORMER_ID>
02BA992D00000001

> <PUBCHEM_MMFF94_ENERGY>
63.537

> <PUBCHEM_FEATURE_SELFOVERLAP>
35.523

> <PUBCHEM_SHAPE_FINGERPRINT>
10042902 136 18122630453466681814
10448021 39 18267849731574082215
10622 236 18410283688845320603
10928967 22 18341347646814488433
11069576 57 18333732429301994398
11513181 2 18269565957007531102
11796584 16 18130798828017538745
12107183 9 17977113353352771977
13692114 37 18196369450329471056
14480069 147 18261118491302675179
14863182 85 18187654575001537576
150020 26 16914829015744222150
15003188 105 18268706280647673422
15250474 111 18410577258269978139
15537594 2 18265637436310227993
17134984 74 17975687604762279519
17138139 8 18339655532842486972
19303781 99 17896039845513242554
19319366 153 18120659290667648500
20775530 9 17824546258137746658
208703 8 18130786819294150943
21033648 29 15553599570083152169
21054139 6 18336838571399637004
21421861 104 17903948581080481064
21703447 108 18057876043130594593
24893989 43 17411343522079124927
25222932 49 18272082859592870172
3246872 21 18047468928886380290
4017518 198 16826144439398280542
444735 86 18340209707929926343
46194498 28 16661513721953747460
463206 1 18262529095563447592
56633871 153 18050571737935686395
6058803 2 18338533957699569441
6677587 24 16808686870424185926

> <PUBCHEM_SHAPE_MULTIPOLES>
538.69
13.41
6.05
1.95
15
3.97
-1.54
13.06
-3.89
-0.28
0.48
-0.44
0.43
-7.16

> <PUBCHEM_SHAPE_SELFOVERLAP>
1153.127

> <PUBCHEM_SHAPE_VOLUME>
299.6

> <PUBCHEM_COORDINATE_TYPE>
2
5
10

$$$$
