44716179
  -OEChem-12032416253D

 53 56  0     1  0  0  0  0  0999 V2000
    1.3302    0.5924    2.0606 O   0  0  0  0  0  0  0  0  0  0  0  0
   -3.3453   -2.7062    2.3118 O   0  0  0  0  0  0  0  0  0  0  0  0
   -0.1612    2.9153   -1.3133 N   0  0  2  0  0  0  0  0  0  0  0  0
   -2.4418   -0.1568   -1.1324 N   0  0  0  0  0  0  0  0  0  0  0  0
    3.1803    1.0321    0.7178 N   0  0  0  0  0  0  0  0  0  0  0  0
   -3.6902    0.3148   -1.2826 N   0  0  0  0  0  0  0  0  0  0  0  0
   -4.5215   -0.6212   -0.8382 N   0  0  0  0  0  0  0  0  0  0  0  0
    3.0367   -3.6054    0.0594 N   0  0  0  0  0  0  0  0  0  0  0  0
   -0.0675    2.8251    1.2857 C   0  0  2  0  0  0  0  0  0  0  0  0
   -1.2216    2.0082   -0.7986 C   0  0  2  0  0  0  0  0  0  0  0  0
    1.3130    2.5320    0.6674 C   0  0  2  0  0  0  0  0  0  0  0  0
   -1.0920    1.8167    0.7285 C   0  0  0  0  0  0  0  0  0  0  0  0
   -0.4865    4.2225    0.7946 C   0  0  0  0  0  0  0  0  0  0  0  0
    1.1749    2.4524   -0.8634 C   0  0  0  0  0  0  0  0  0  0  0  0
   -0.3994    4.2647   -0.7426 C   0  0  0  0  0  0  0  0  0  0  0  0
   -1.2544    0.6696   -1.5393 C   0  0  0  0  0  0  0  0  0  0  0  0
    1.9176    1.2792    1.2288 C   0  0  0  0  0  0  0  0  0  0  0  0
   -2.4388   -1.4047   -0.5891 C   0  0  0  0  0  0  0  0  0  0  0  0
    3.9859   -0.1002    1.1140 C   0  0  0  0  0  0  0  0  0  0  0  0
   -3.7710   -1.6809   -0.4099 C   0  0  0  0  0  0  0  0  0  0  0  0
    3.7367   -1.2988    0.2448 C   0  0  0  0  0  0  0  0  0  0  0  0
   -4.4003   -2.8863    0.1444 C   0  0  0  0  0  0  0  0  0  0  0  0
    3.9592   -1.2483   -1.1268 C   0  0  0  0  0  0  0  0  0  0  0  0
   -4.6079   -2.8326    1.6702 C   0  0  0  0  0  0  0  0  0  0  0  0
    3.2793   -2.4903    0.7843 C   0  0  0  0  0  0  0  0  0  0  0  0
    3.7210   -2.3751   -1.9060 C   0  0  0  0  0  0  0  0  0  0  0  0
    3.2645   -3.5185   -1.2703 C   0  0  0  0  0  0  0  0  0  0  0  0
   -0.0463    2.7910    2.3804 H   0  0  0  0  0  0  0  0  0  0  0  0
   -2.1854    2.4999   -0.9943 H   0  0  0  0  0  0  0  0  0  0  0  0
    1.9922    3.3565    0.9276 H   0  0  0  0  0  0  0  0  0  0  0  0
   -2.0678    1.9962    1.1980 H   0  0  0  0  0  0  0  0  0  0  0  0
   -0.8109    0.7912    0.9842 H   0  0  0  0  0  0  0  0  0  0  0  0
   -1.5099    4.4436    1.1207 H   0  0  0  0  0  0  0  0  0  0  0  0
    0.1661    4.9907    1.2256 H   0  0  0  0  0  0  0  0  0  0  0  0
    1.3713    1.4469   -1.2528 H   0  0  0  0  0  0  0  0  0  0  0  0
    1.9406    3.0875   -1.3285 H   0  0  0  0  0  0  0  0  0  0  0  0
    0.4014    4.9462   -1.0568 H   0  0  0  0  0  0  0  0  0  0  0  0
   -1.3227    4.6884   -1.1569 H   0  0  0  0  0  0  0  0  0  0  0  0
   -1.3621    0.8029   -2.6219 H   0  0  0  0  0  0  0  0  0  0  0  0
   -0.3757    0.0467   -1.3417 H   0  0  0  0  0  0  0  0  0  0  0  0
    3.5759    1.6722    0.0352 H   0  0  0  0  0  0  0  0  0  0  0  0
   -1.5338   -1.9594   -0.3854 H   0  0  0  0  0  0  0  0  0  0  0  0
    5.0382    0.1955    1.0392 H   0  0  0  0  0  0  0  0  0  0  0  0
    3.7803   -0.3282    2.1661 H   0  0  0  0  0  0  0  0  0  0  0  0
   -5.3707   -3.0503   -0.3385 H   0  0  0  0  0  0  0  0  0  0  0  0
   -3.7743   -3.7552   -0.0952 H   0  0  0  0  0  0  0  0  0  0  0  0
    4.3209   -0.3393   -1.5995 H   0  0  0  0  0  0  0  0  0  0  0  0
   -5.2287   -1.9749    1.9495 H   0  0  0  0  0  0  0  0  0  0  0  0
   -5.0879   -3.7525    2.0179 H   0  0  0  0  0  0  0  0  0  0  0  0
    3.0858   -2.5933    1.8475 H   0  0  0  0  0  0  0  0  0  0  0  0
    3.8879   -2.3590   -2.9769 H   0  0  0  0  0  0  0  0  0  0  0  0
    3.0636   -4.4240   -1.8332 H   0  0  0  0  0  0  0  0  0  0  0  0
   -3.5139   -2.6779    3.2690 H   0  0  0  0  0  0  0  0  0  0  0  0
  1 17  2  0  0  0  0
  2 24  1  0  0  0  0
  2 53  1  0  0  0  0
  3 10  1  0  0  0  0
  3 14  1  0  0  0  0
  3 15  1  0  0  0  0
  4  6  1  0  0  0  0
  4 16  1  0  0  0  0
  4 18  1  0  0  0  0
  5 17  1  0  0  0  0
  5 19  1  0  0  0  0
  5 41  1  0  0  0  0
  6  7  2  0  0  0  0
  7 20  1  0  0  0  0
  8 25  1  0  0  0  0
  8 27  2  0  0  0  0
  9 11  1  0  0  0  0
  9 12  1  0  0  0  0
  9 13  1  0  0  0  0
  9 28  1  0  0  0  0
 10 12  1  0  0  0  0
 10 16  1  0  0  0  0
 10 29  1  0  0  0  0
 11 14  1  0  0  0  0
 11 17  1  0  0  0  0
 11 30  1  0  0  0  0
 12 31  1  0  0  0  0
 12 32  1  0  0  0  0
 13 15  1  0  0  0  0
 13 33  1  0  0  0  0
 13 34  1  0  0  0  0
 14 35  1  0  0  0  0
 14 36  1  0  0  0  0
 15 37  1  0  0  0  0
 15 38  1  0  0  0  0
 16 39  1  0  0  0  0
 16 40  1  0  0  0  0
 18 20  2  0  0  0  0
 18 42  1  0  0  0  0
 19 21  1  0  0  0  0
 19 43  1  0  0  0  0
 19 44  1  0  0  0  0
 20 22  1  0  0  0  0
 21 23  1  0  0  0  0
 21 25  2  0  0  0  0
 22 24  1  0  0  0  0
 22 45  1  0  0  0  0
 22 46  1  0  0  0  0
 23 26  2  0  0  0  0
 23 47  1  0  0  0  0
 24 48  1  0  0  0  0
 24 49  1  0  0  0  0
 25 50  1  0  0  0  0
 26 27  1  0  0  0  0
 26 51  1  0  0  0  0
 27 52  1  0  0  0  0
M  END
> <PUBCHEM_COMPOUND_CID>
44716179

> <PUBCHEM_CONFORMER_RMSD>
1.2

> <PUBCHEM_CONFORMER_DIVERSEORDER>
1
3
31
56
43
76
18
79
37
91
73
19
9
36
69
52
47
51
45
68
85
6
48
40
39
44
84
53
88
13
2
66
17
82
64
72
63
75
55
61
71
41
8
10
21
46
12
90
38
50
16
11
60
77
57
49
15
80
54
33
67
32
29
23
14
89
28
59
25
65
87
27
62
34
24
83
4
78
20
74
81
86
7
26
58
70
22
35
30
5
42

> <PUBCHEM_MMFF94_PARTIAL_CHARGES>
31
1 -0.57
10 0.27
11 0.06
14 0.27
15 0.27
16 0.26
17 0.57
18 -0.3
19 0.44
2 -0.68
20 0.05
21 -0.14
22 0.18
23 -0.15
24 0.28
25 0.16
26 -0.15
27 0.16
3 -0.81
4 0.31
41 0.37
42 0.15
47 0.15
5 -0.73
50 0.15
51 0.15
52 0.15
53 0.4
6 -0.42
7 -0.23
8 -0.62

> <PUBCHEM_EFFECTIVE_ROTOR_COUNT>
9.2

> <PUBCHEM_PHARMACOPHORE_FEATURES>
9
1 1 acceptor
1 2 acceptor
1 2 donor
1 3 cation
1 5 donor
1 8 acceptor
5 4 6 7 18 20 rings
6 8 21 23 25 26 27 rings
8 3 9 10 11 12 13 14 15 rings

> <PUBCHEM_HEAVY_ATOM_COUNT>
27

> <PUBCHEM_ATOM_DEF_STEREO_COUNT>
2

> <PUBCHEM_ATOM_UDEF_STEREO_COUNT>
1

> <PUBCHEM_BOND_DEF_STEREO_COUNT>
0

> <PUBCHEM_BOND_UDEF_STEREO_COUNT>
0

> <PUBCHEM_ISOTOPIC_ATOM_COUNT>
0

> <PUBCHEM_COMPONENT_COUNT>
1

> <PUBCHEM_CACTVS_TAUTO_COUNT>
2

> <PUBCHEM_CONFORMER_ID>
02AA509300000001

> <PUBCHEM_MMFF94_ENERGY>
53.3274

> <PUBCHEM_FEATURE_SELFOVERLAP>
45.671

> <PUBCHEM_SHAPE_FINGERPRINT>
10764073 3 17128753288411176837
107951 10 17336180460231871884
12156800 1 16265793959172332266
12422481 6 17702396044088965689
12623949 98 17756440609781090003
12788726 201 18048028567810120203
13631057 29 18270400482754678182
14251757 5 18194408779413076143
14363568 33 18196658612484953084
14863182 85 18122621923419246472
14866123 147 17838331883424240877
151778 21 17834120027829389451
15422964 175 18341315765009058244
15664445 248 18334007324463011276
161222 10 17250311922265403914
19315092 285 16197013077431476159
20765182 20 18059861696088462222
20775530 9 18412542111060551278
22440779 20 17985854569535095272
23466295 7 18053394197264255262
3117164 225 18340782507060833619
3737641 26 18272658947972588422
38695281 34 17689145034477631260
5309563 4 18341325686330595662
7987 15 18261674891114322339
86090 222 17606124124411111739

> <PUBCHEM_SHAPE_MULTIPOLES>
514.02
8.89
6.09
1.87
2.65
2.1
-0.32
-12.7
-0.17
0.36
-0.3
0.21
-0.47
2.61

> <PUBCHEM_SHAPE_SELFOVERLAP>
1092.629

> <PUBCHEM_SHAPE_VOLUME>
281.1

> <PUBCHEM_COORDINATE_TYPE>
2
5
10

$$$$
