71693258
  -OEChem-12032416233D

 45 47  0     1  0  0  0  0  0999 V2000
   -4.0824    0.9914    1.1542 O   0  0  0  0  0  0  0  0  0  0  0  0
   -4.4206   -2.3763   -1.2816 O   0  0  0  0  0  0  0  0  0  0  0  0
   -7.5817    0.8492    0.3782 O   0  0  0  0  0  0  0  0  0  0  0  0
    2.7908   -1.6977    1.0399 O   0  0  0  0  0  0  0  0  0  0  0  0
   -5.7790    0.0943   -0.8252 N   0  0  0  0  0  0  0  0  0  0  0  0
    2.0515    0.2767   -0.0012 N   0  0  0  0  0  0  0  0  0  0  0  0
    6.0468    0.8612   -0.5009 N   0  0  0  0  0  0  0  0  0  0  0  0
    4.7040    0.8670   -0.4453 N   0  0  0  0  0  0  0  0  0  0  0  0
   -4.3344   -0.0038   -1.0129 C   0  0  1  0  0  0  0  0  0  0  0  0
   -3.6237   -0.0995    0.3462 C   0  0  1  0  0  0  0  0  0  0  0  0
   -2.1166    0.0005    0.2533 C   0  0  0  0  0  0  0  0  0  0  0  0
   -4.0126   -1.1841   -1.9268 C   0  0  0  0  0  0  0  0  0  0  0  0
   -5.4505    0.8562    1.4782 C   0  0  0  0  0  0  0  0  0  0  0  0
   -6.3738    0.6281    0.2967 C   0  0  0  0  0  0  0  0  0  0  0  0
   -1.5268    1.1078   -0.3563 C   0  0  0  0  0  0  0  0  0  0  0  0
   -1.3171   -1.0152    0.7778 C   0  0  0  0  0  0  0  0  0  0  0  0
   -0.1376    1.1997   -0.4410 C   0  0  0  0  0  0  0  0  0  0  0  0
    0.0721   -0.9233    0.6930 C   0  0  0  0  0  0  0  0  0  0  0  0
    0.6619    0.1842    0.0836 C   0  0  0  0  0  0  0  0  0  0  0  0
    3.0068   -0.6364    0.4647 C   0  0  0  0  0  0  0  0  0  0  0  0
    4.4223   -0.2689    0.1984 C   0  0  0  0  0  0  0  0  0  0  0  0
    6.6179   -0.2320    0.0816 C   0  0  0  0  0  0  0  0  0  0  0  0
    5.5761   -0.9942    0.5512 C   0  0  0  0  0  0  0  0  0  0  0  0
    8.0757   -0.4453    0.1360 C   0  0  0  0  0  0  0  0  0  0  0  0
    6.7310    1.9602   -1.1419 C   0  0  0  0  0  0  0  0  0  0  0  0
   -4.0639    0.9265   -1.5262 H   0  0  0  0  0  0  0  0  0  0  0  0
   -3.8934   -1.0326    0.8599 H   0  0  0  0  0  0  0  0  0  0  0  0
   -6.3740   -0.0706   -1.6317 H   0  0  0  0  0  0  0  0  0  0  0  0
   -2.9426   -1.2463   -2.1469 H   0  0  0  0  0  0  0  0  0  0  0  0
   -4.5558   -1.1018   -2.8744 H   0  0  0  0  0  0  0  0  0  0  0  0
   -5.7628    1.7772    1.9806 H   0  0  0  0  0  0  0  0  0  0  0  0
   -5.5786    0.0269    2.1832 H   0  0  0  0  0  0  0  0  0  0  0  0
   -2.1301    1.9158   -0.7603 H   0  0  0  0  0  0  0  0  0  0  0  0
   -1.7633   -1.8839    1.2547 H   0  0  0  0  0  0  0  0  0  0  0  0
    0.3087    2.0697   -0.9162 H   0  0  0  0  0  0  0  0  0  0  0  0
    0.6214   -1.7493    1.1220 H   0  0  0  0  0  0  0  0  0  0  0  0
   -4.2078   -3.1132   -1.8792 H   0  0  0  0  0  0  0  0  0  0  0  0
    2.4056    1.1120   -0.4631 H   0  0  0  0  0  0  0  0  0  0  0  0
    5.6463   -1.9380    1.0729 H   0  0  0  0  0  0  0  0  0  0  0  0
    8.5013   -0.4971   -0.8713 H   0  0  0  0  0  0  0  0  0  0  0  0
    8.3156   -1.3837    0.6467 H   0  0  0  0  0  0  0  0  0  0  0  0
    8.5695    0.3654    0.6813 H   0  0  0  0  0  0  0  0  0  0  0  0
    7.3127    1.5650   -1.9781 H   0  0  0  0  0  0  0  0  0  0  0  0
    5.9981    2.6829   -1.5104 H   0  0  0  0  0  0  0  0  0  0  0  0
    7.3830    2.4378   -0.4065 H   0  0  0  0  0  0  0  0  0  0  0  0
  1 10  1  0  0  0  0
  1 13  1  0  0  0  0
  2 12  1  0  0  0  0
  2 37  1  0  0  0  0
  3 14  2  0  0  0  0
  4 20  2  0  0  0  0
  5  9  1  0  0  0  0
  5 14  1  0  0  0  0
  5 28  1  0  0  0  0
  6 19  1  0  0  0  0
  6 20  1  0  0  0  0
  6 38  1  0  0  0  0
  7  8  1  0  0  0  0
  7 22  1  0  0  0  0
  7 25  1  0  0  0  0
  8 21  2  0  0  0  0
  9 10  1  0  0  0  0
  9 12  1  0  0  0  0
  9 26  1  0  0  0  0
 10 11  1  0  0  0  0
 10 27  1  0  0  0  0
 11 15  2  0  0  0  0
 11 16  1  0  0  0  0
 12 29  1  0  0  0  0
 12 30  1  0  0  0  0
 13 14  1  0  0  0  0
 13 31  1  0  0  0  0
 13 32  1  0  0  0  0
 15 17  1  0  0  0  0
 15 33  1  0  0  0  0
 16 18  2  0  0  0  0
 16 34  1  0  0  0  0
 17 19  2  0  0  0  0
 17 35  1  0  0  0  0
 18 19  1  0  0  0  0
 18 36  1  0  0  0  0
 20 21  1  0  0  0  0
 21 23  1  0  0  0  0
 22 23  2  0  0  0  0
 22 24  1  0  0  0  0
 23 39  1  0  0  0  0
 24 40  1  0  0  0  0
 24 41  1  0  0  0  0
 24 42  1  0  0  0  0
 25 43  1  0  0  0  0
 25 44  1  0  0  0  0
 25 45  1  0  0  0  0
M  END
> <PUBCHEM_COMPOUND_CID>
71693258

> <PUBCHEM_CONFORMER_RMSD>
0.8

> <PUBCHEM_CONFORMER_DIVERSEORDER>
1
24
11
21
7
26
19
25
5
28
9
10
23
6
17
22
16
14
12
18
15
8
27
4
20
3
13
2

> <PUBCHEM_MMFF94_PARTIAL_CHARGES>
33
1 -0.56
10 0.42
11 -0.14
12 0.28
13 0.34
14 0.57
15 -0.15
16 -0.15
17 -0.15
18 -0.15
19 0.12
2 -0.68
20 0.72
21 0.2
22 -0.33
23 -0.15
24 0.18
25 0.26
28 0.37
3 -0.57
33 0.15
34 0.15
35 0.15
36 0.15
37 0.4
38 0.37
39 0.15
4 -0.57
5 -0.73
6 -0.55
7 0.31
8 -0.71
9 0.3

> <PUBCHEM_EFFECTIVE_ROTOR_COUNT>
6

> <PUBCHEM_PHARMACOPHORE_FEATURES>
11
1 1 acceptor
1 2 acceptor
1 2 donor
1 3 acceptor
1 4 acceptor
1 5 donor
1 6 donor
1 8 acceptor
5 7 8 21 22 23 rings
6 1 5 9 10 13 14 rings
6 11 15 16 17 18 19 rings

> <PUBCHEM_HEAVY_ATOM_COUNT>
25

> <PUBCHEM_ATOM_DEF_STEREO_COUNT>
2

> <PUBCHEM_ATOM_UDEF_STEREO_COUNT>
0

> <PUBCHEM_BOND_DEF_STEREO_COUNT>
0

> <PUBCHEM_BOND_UDEF_STEREO_COUNT>
0

> <PUBCHEM_ISOTOPIC_ATOM_COUNT>
0

> <PUBCHEM_COMPONENT_COUNT>
1

> <PUBCHEM_CACTVS_TAUTO_COUNT>
6

> <PUBCHEM_CONFORMER_ID>
0445F3CA00000001

> <PUBCHEM_MMFF94_ENERGY>
59.9561

> <PUBCHEM_FEATURE_SELFOVERLAP>
55.827

> <PUBCHEM_SHAPE_FINGERPRINT>
10 15 16298390193038622620
10299344 5 18342738511553761246
10906281 52 18338531784382015018
11045977 3 15985093146048310299
11315181 36 15339117957654771043
11524674 6 15410889674063183389
12091667 2 17967812738968902485
12236239 1 18413106160936640947
12516196 113 18335419071206202320
13073987 5 15502646053968291065
13533116 47 16009018450966269200
13885169 127 16630529505282816432
13914758 101 11599733861358228531
14123256 10 18260547810170399560
14251764 18 18412545427244347215
14251764 46 18259987063730334664
14840074 17 18408319986462385887
14856354 85 17847063302823585981
14933364 13 15719395031793615516
15183329 4 18060140942303725696
15419008 47 15864066581179771844
17093844 174 16630520739486855563
17844677 252 16200147729046925330
18927931 339 17060617832943225007
19489759 90 16415478242815758305
20281389 69 17240763986738274044
21150785 3 18410854374034341771
21267235 1 18040721321359069322
220451 1 18343299262515770358
23035841 295 18202279199677177391
23081809 10 18412823599386042914
23402539 116 18412822495199607319
23522609 53 18270142170083745408
23559900 14 17131540726406824003
249057 3 17489866055688362713
29717793 49 18342460331745362230
34797466 226 18410299095193114012
3545911 37 17385444311006066794
397830 11 16009613402246622360
4073 2 18059571434025381810
4325135 7 18411981343329902148
4340502 62 15574714686161691874
5265222 85 17131264795837357535
58260988 114 18115599283203711691
59682541 35 16877953758149029425
59755656 520 17967249815049594763

> <PUBCHEM_SHAPE_MULTIPOLES>
471.09
21.85
1.52
1.21
15.18
0.12
0.29
-3.71
0.91
0.64
0.31
-1.76
0.2
-2.3

> <PUBCHEM_SHAPE_SELFOVERLAP>
1006.344

> <PUBCHEM_SHAPE_VOLUME>
260.7

> <PUBCHEM_COORDINATE_TYPE>
2
5
10

$$$$
