51137094
  -OEChem-12032416243D

 43 46  0     1  0  0  0  0  0999 V2000
   -6.9923   -2.6835    0.5429 Cl  0  0  0  0  0  0  0  0  0  0  0  0
   -1.7983    1.5173    0.0960 N   0  0  1  0  0  0  0  0  0  0  0  0
    2.5257   -0.1549    1.3070 N   0  0  0  0  0  0  0  0  0  0  0  0
    2.2962    0.8055   -0.6841 N   0  0  0  0  0  0  0  0  0  0  0  0
    0.3457    1.0235    0.9078 C   0  0  1  0  0  0  0  0  0  0  0  0
    0.1339    2.5474    0.9075 C   0  0  0  0  0  0  0  0  0  0  0  0
   -0.7724    0.4756    0.0108 C   0  0  0  0  0  0  0  0  0  0  0  0
   -1.0641    2.7786   -0.0045 C   0  0  0  0  0  0  0  0  0  0  0  0
    1.7220    0.5736    0.4750 C   0  0  0  0  0  0  0  0  0  0  0  0
   -2.8133    1.3830   -0.9384 C   0  0  0  0  0  0  0  0  0  0  0  0
   -3.8598    0.3658   -0.5681 C   0  0  0  0  0  0  0  0  0  0  0  0
    3.6965   -0.4104    0.6404 C   0  0  0  0  0  0  0  0  0  0  0  0
    3.5287    0.1995   -0.5998 C   0  0  0  0  0  0  0  0  0  0  0  0
    4.8526   -1.1013    1.0045 C   0  0  0  0  0  0  0  0  0  0  0  0
    4.5657    0.1258   -1.5451 C   0  0  0  0  0  0  0  0  0  0  0  0
   -3.6896   -0.9715   -0.9264 C   0  0  0  0  0  0  0  0  0  0  0  0
   -4.9992    0.7604    0.1330 C   0  0  0  0  0  0  0  0  0  0  0  0
    5.8745   -1.1648    0.0515 C   0  0  0  0  0  0  0  0  0  0  0  0
    5.7357   -0.5627   -1.2013 C   0  0  0  0  0  0  0  0  0  0  0  0
   -4.6588   -1.9142   -0.5836 C   0  0  0  0  0  0  0  0  0  0  0  0
   -5.9686   -0.1822    0.4759 C   0  0  0  0  0  0  0  0  0  0  0  0
   -5.7984   -1.5195    0.1175 C   0  0  0  0  0  0  0  0  0  0  0  0
    7.1375   -1.8908    0.3816 C   0  0  0  0  0  0  0  0  0  0  0  0
    0.1706    0.6692    1.9341 H   0  0  0  0  0  0  0  0  0  0  0  0
   -0.0980    2.8829    1.9261 H   0  0  0  0  0  0  0  0  0  0  0  0
    1.0096    3.1085    0.5645 H   0  0  0  0  0  0  0  0  0  0  0  0
   -1.1268   -0.4892    0.3885 H   0  0  0  0  0  0  0  0  0  0  0  0
   -0.4198    0.3340   -1.0195 H   0  0  0  0  0  0  0  0  0  0  0  0
   -0.7210    2.9661   -1.0301 H   0  0  0  0  0  0  0  0  0  0  0  0
   -1.6614    3.6335    0.3278 H   0  0  0  0  0  0  0  0  0  0  0  0
   -3.3294    2.3436   -1.0775 H   0  0  0  0  0  0  0  0  0  0  0  0
   -2.3816    1.1506   -1.9216 H   0  0  0  0  0  0  0  0  0  0  0  0
    2.3007   -0.4542    2.2466 H   0  0  0  0  0  0  0  0  0  0  0  0
    4.9480   -1.5627    1.9815 H   0  0  0  0  0  0  0  0  0  0  0  0
    4.4674    0.5906   -2.5210 H   0  0  0  0  0  0  0  0  0  0  0  0
   -2.8092   -1.2921   -1.4770 H   0  0  0  0  0  0  0  0  0  0  0  0
   -5.1431    1.7986    0.4204 H   0  0  0  0  0  0  0  0  0  0  0  0
    6.5415   -0.6205   -1.9296 H   0  0  0  0  0  0  0  0  0  0  0  0
   -4.5132   -2.9527   -0.8698 H   0  0  0  0  0  0  0  0  0  0  0  0
   -6.8510    0.1394    1.0231 H   0  0  0  0  0  0  0  0  0  0  0  0
    7.5468   -2.3891   -0.5039 H   0  0  0  0  0  0  0  0  0  0  0  0
    6.9651   -2.6675    1.1345 H   0  0  0  0  0  0  0  0  0  0  0  0
    7.8833   -1.1893    0.7683 H   0  0  0  0  0  0  0  0  0  0  0  0
  1 22  1  0  0  0  0
  2  7  1  0  0  0  0
  2  8  1  0  0  0  0
  2 10  1  0  0  0  0
  3  9  1  0  0  0  0
  3 12  1  0  0  0  0
  3 33  1  0  0  0  0
  4  9  2  0  0  0  0
  4 13  1  0  0  0  0
  5  6  1  0  0  0  0
  5  7  1  0  0  0  0
  5  9  1  0  0  0  0
  5 24  1  0  0  0  0
  6  8  1  0  0  0  0
  6 25  1  0  0  0  0
  6 26  1  0  0  0  0
  7 27  1  0  0  0  0
  7 28  1  0  0  0  0
  8 29  1  0  0  0  0
  8 30  1  0  0  0  0
 10 11  1  0  0  0  0
 10 31  1  0  0  0  0
 10 32  1  0  0  0  0
 11 16  2  0  0  0  0
 11 17  1  0  0  0  0
 12 13  2  0  0  0  0
 12 14  1  0  0  0  0
 13 15  1  0  0  0  0
 14 18  2  0  0  0  0
 14 34  1  0  0  0  0
 15 19  2  0  0  0  0
 15 35  1  0  0  0  0
 16 20  1  0  0  0  0
 16 36  1  0  0  0  0
 17 21  2  0  0  0  0
 17 37  1  0  0  0  0
 18 19  1  0  0  0  0
 18 23  1  0  0  0  0
 19 38  1  0  0  0  0
 20 22  2  0  0  0  0
 20 39  1  0  0  0  0
 21 22  1  0  0  0  0
 21 40  1  0  0  0  0
 23 41  1  0  0  0  0
 23 42  1  0  0  0  0
 23 43  1  0  0  0  0
M  END
> <PUBCHEM_COMPOUND_CID>
51137094

> <PUBCHEM_CONFORMER_RMSD>
0.6

> <PUBCHEM_CONFORMER_DIVERSEORDER>
2
115
52
84
40
118
90
127
82
34
121
105
11
94
72
59
122
92
125
86
29
116
114
106
97
23
78
85
18
87
120
53
123
42
32
119
104
93
91
108
26
96
95
3
107
80
128
17
101
31
13
77
43
69
89
37
117
14
60
100
36
16
8
98
103
38
27
74
44
102
71
21
88
75
9
124
66
6
24
68
83
33
48
112
58
99
54
7
10
50
35
22
79
51
49
81
55
1
28
15
4
12
113
73
110
39
76
25
70
64
30
47
111
19
63
45
67
20
62
65
41
56
61
109
57
46
5
126

> <PUBCHEM_MMFF94_PARTIAL_CHARGES>
30
1 -0.18
10 0.41
11 -0.14
12 -0.15
13 0.23
14 -0.15
15 -0.15
16 -0.15
17 -0.15
18 -0.14
19 -0.15
2 -0.81
20 -0.15
21 -0.15
22 0.18
23 0.14
3 0.03
33 0.27
34 0.15
35 0.15
36 0.15
37 0.15
38 0.15
39 0.15
4 -0.57
40 0.15
5 0.18
7 0.27
8 0.27
9 0.01

> <PUBCHEM_EFFECTIVE_ROTOR_COUNT>
4

> <PUBCHEM_PHARMACOPHORE_FEATURES>
7
1 2 cation
1 3 donor
3 3 4 9 cation
5 2 5 6 7 8 rings
5 3 4 9 12 13 rings
6 11 16 17 20 21 22 rings
6 12 13 14 15 18 19 rings

> <PUBCHEM_HEAVY_ATOM_COUNT>
23

> <PUBCHEM_ATOM_DEF_STEREO_COUNT>
1

> <PUBCHEM_ATOM_UDEF_STEREO_COUNT>
0

> <PUBCHEM_BOND_DEF_STEREO_COUNT>
0

> <PUBCHEM_BOND_UDEF_STEREO_COUNT>
0

> <PUBCHEM_ISOTOPIC_ATOM_COUNT>
0

> <PUBCHEM_COMPONENT_COUNT>
1

> <PUBCHEM_CACTVS_TAUTO_COUNT>
2

> <PUBCHEM_CONFORMER_ID>
030C4A4600000002

> <PUBCHEM_MMFF94_ENERGY>
47.9376

> <PUBCHEM_FEATURE_SELFOVERLAP>
35.63

> <PUBCHEM_SHAPE_FINGERPRINT>
10299344 5 18259990375092272811
10622 236 17606659350144597170
10670039 82 12829481507499155262
10693767 8 17460026285501252442
10928967 22 18337374033430806707
11089746 13 9078823074620686842
11128504 68 17385725811225138565
11524674 6 17203607090942485903
117890 112 10159700196255748719
12166972 35 17967536770425505340
12236239 1 18186804639063908020
12592606 108 18411135879767251327
12633257 1 14979949293943241533
12643181 29 18339072705996606557
12760667 363 18272926112218424197
12895837 130 8214146249040098499
12969540 114 14201116816582206448
13103583 49 14764341660953749853
13402501 40 18131637776653222967
13668630 136 18334859373207733990
13673619 4 18408886269959346209
13685833 64 18272373104850542387
13690498 29 18040992956486739909
13740256 8 18412543228047343201
14123256 34 18341899605762255559
14211702 104 18198908016055722678
14251751 18 18412541003122168228
14251764 18 12895066328139368241
14251764 30 18409730698910190903
14347332 77 18260544477049080580
14420673 8 18412266147349768435
14466204 15 10015867574268499583
14765038 42 14692562231047474868
14931854 50 17676477381173790243
15003188 100 14562822083320055886
15183329 4 16950280702539660594
15348495 7 16486683770665525331
15461852 350 18335704893892232678
15537594 2 18334575716245011011
16110190 28 17917142909301580239
17138139 8 18113890602413663010
17780758 139 17775283846694098985
18335252 98 18412265073475640448
193927 3 18060702788144882604
200 152 17894913988518862856
20281389 69 8646763400754465894
21054139 6 18040995103749114562
21150785 3 18113907048723828798
21196832 93 17605286274669467867
21267235 1 18411140229350076251
21298829 104 8934737595383100995
21315763 191 18411142420179218085
21403212 168 18060145294086720241
21521239 73 17312822671835058490
21623969 137 17203610367759594902
22950370 63 18410013256223960845
23035841 295 18410576167348304395
23522609 53 18119562935720554773
23559900 14 18338507638023610241
270888 7 9511471021994917219
2748736 6 9223238429455821803
2767999 5 8286202738548387327
2838139 119 14562526254493959780
3004659 81 18113897161086724882
312425 54 15410896270959162247
329604 57 18334579057223021854
3418910 222 18202284702581045016
351380 3 18408039615403020055
4107672 100 17603858967791707589
439807 62 18259704506316831315
465052 167 18271529779089036639
5104073 3 17988643021159549753
54039377 194 18408889529417836262
543368 44 11458690713624593631
559249 180 18413387627803399999
56616090 284 18260831487980160176
59682541 52 14562797829771402960
636775 8 18341902857838820462
6700243 42 18053410745778808676
7495541 125 18060695092317797464
7970288 3 18410570704140029939
8863177 126 18266179624877043579

> <PUBCHEM_SHAPE_MULTIPOLES>
460.26
18.97
2.49
1.16
0.47
0.34
-0.12
-16.84
-0.27
-2.6
0.4
0.93
0.01
-0.1

> <PUBCHEM_SHAPE_SELFOVERLAP>
997.231

> <PUBCHEM_SHAPE_VOLUME>
256.3

> <PUBCHEM_COORDINATE_TYPE>
2
5
10

$$$$
