75536893
  -OEChem-12032416333D

 37 39  0     1  0  0  0  0  0999 V2000
    1.0182   -2.7203    1.0864 O   0  0  0  0  0  0  0  0  0  0  0  0
    1.6190    1.8560   -1.1850 O   0  0  0  0  0  0  0  0  0  0  0  0
   -1.6684   -1.1064   -0.8411 O   0  0  0  0  0  0  0  0  0  0  0  0
    1.9256   -0.3893   -0.6152 N   0  0  0  0  0  0  0  0  0  0  0  0
   -4.7076    0.2752    0.6500 N   0  0  0  0  0  0  0  0  0  0  0  0
    3.5466    1.3645    0.0441 C   0  0  0  0  0  0  0  0  0  0  0  0
    3.5004    1.6240    1.5111 C   0  0  0  0  0  0  0  0  0  0  0  0
    3.6732    2.7610    0.5492 C   0  0  0  0  0  0  0  0  0  0  0  0
    2.2792    0.9705   -0.6479 C   0  0  0  0  0  0  0  0  0  0  0  0
    0.6688   -0.8061   -1.2389 C   0  0  0  0  0  0  0  0  0  0  0  0
    2.7639   -1.3969    0.0463 C   0  0  0  0  0  0  0  0  0  0  0  0
   -0.3946   -1.1645   -0.2014 C   0  0  2  0  0  0  0  0  0  0  0  0
    2.1507   -2.7792    0.2254 C   0  0  0  0  0  0  0  0  0  0  0  0
   -0.2127   -2.5592    0.3928 C   0  0  0  0  0  0  0  0  0  0  0  0
   -2.5574   -0.1874   -0.3538 C   0  0  0  0  0  0  0  0  0  0  0  0
   -2.2577    1.1703   -0.3551 C   0  0  0  0  0  0  0  0  0  0  0  0
   -3.7849   -0.5800    0.1552 C   0  0  0  0  0  0  0  0  0  0  0  0
   -3.1814    2.0811    0.1456 C   0  0  0  0  0  0  0  0  0  0  0  0
   -4.3810    1.5869    0.6322 C   0  0  0  0  0  0  0  0  0  0  0  0
    4.4503    0.9186   -0.3591 H   0  0  0  0  0  0  0  0  0  0  0  0
    4.3577    1.3294    2.1040 H   0  0  0  0  0  0  0  0  0  0  0  0
    2.5514    1.5420    2.0271 H   0  0  0  0  0  0  0  0  0  0  0  0
    2.8461    3.4522    0.4446 H   0  0  0  0  0  0  0  0  0  0  0  0
    4.6483    3.2308    0.4966 H   0  0  0  0  0  0  0  0  0  0  0  0
    0.8675   -1.6371   -1.9256 H   0  0  0  0  0  0  0  0  0  0  0  0
    0.2962    0.0041   -1.8763 H   0  0  0  0  0  0  0  0  0  0  0  0
    3.6875   -1.4776   -0.5380 H   0  0  0  0  0  0  0  0  0  0  0  0
    3.0302   -1.0064    1.0339 H   0  0  0  0  0  0  0  0  0  0  0  0
   -0.3303   -0.4437    0.6268 H   0  0  0  0  0  0  0  0  0  0  0  0
    1.9116   -3.2640   -0.7280 H   0  0  0  0  0  0  0  0  0  0  0  0
    2.8888   -3.4179    0.7232 H   0  0  0  0  0  0  0  0  0  0  0  0
   -1.0165   -2.7423    1.1157 H   0  0  0  0  0  0  0  0  0  0  0  0
   -0.3259   -3.3388   -0.3715 H   0  0  0  0  0  0  0  0  0  0  0  0
   -1.3142    1.5352   -0.7495 H   0  0  0  0  0  0  0  0  0  0  0  0
   -4.0709   -1.6268    0.1811 H   0  0  0  0  0  0  0  0  0  0  0  0
   -2.9700    3.1442    0.1529 H   0  0  0  0  0  0  0  0  0  0  0  0
   -5.1353    2.2559    1.0332 H   0  0  0  0  0  0  0  0  0  0  0  0
  1 13  1  0  0  0  0
  1 14  1  0  0  0  0
  2  9  2  0  0  0  0
  3 12  1  0  0  0  0
  3 15  1  0  0  0  0
  4  9  1  0  0  0  0
  4 10  1  0  0  0  0
  4 11  1  0  0  0  0
  5 17  1  0  0  0  0
  5 19  2  0  0  0  0
  6  7  1  0  0  0  0
  6  8  1  0  0  0  0
  6  9  1  0  0  0  0
  6 20  1  0  0  0  0
  7  8  1  0  0  0  0
  7 21  1  0  0  0  0
  7 22  1  0  0  0  0
  8 23  1  0  0  0  0
  8 24  1  0  0  0  0
 10 12  1  0  0  0  0
 10 25  1  0  0  0  0
 10 26  1  0  0  0  0
 11 13  1  0  0  0  0
 11 27  1  0  0  0  0
 11 28  1  0  0  0  0
 12 14  1  0  0  0  0
 12 29  1  0  0  0  0
 13 30  1  0  0  0  0
 13 31  1  0  0  0  0
 14 32  1  0  0  0  0
 14 33  1  0  0  0  0
 15 16  1  0  0  0  0
 15 17  2  0  0  0  0
 16 18  2  0  0  0  0
 16 34  1  0  0  0  0
 17 35  1  0  0  0  0
 18 19  1  0  0  0  0
 18 36  1  0  0  0  0
 19 37  1  0  0  0  0
M  END
> <PUBCHEM_COMPOUND_CID>
75536893

> <PUBCHEM_CONFORMER_RMSD>
0.8

> <PUBCHEM_CONFORMER_DIVERSEORDER>
1
109
157
117
15
95
174
46
126
141
105
149
22
180
127
162
32
78
83
119
173
7
179
137
89
159
53
136
147
2
79
178
54
165
36
20
73
66
169
42
30
164
43
152
130
107
98
155
111
86
166
67
91
8
116
163
81
94
145
132
120
129
118
110
70
93
167
88
115
112
106
64
71
148
25
122
161
58
123
90
60
10
150
68
158
59
14
170
41
55
13
153
121
172
177
3
144
124
65
11
128
19
85
35
175
28
143
45
160
171
29
131
80
84
6
108
33
76
113
17
96
9
31
154
23
61
4
146
44
102
125
51
99
138
37
135
100
176
40
16
74
140
133
26
114
82
39
5
168
34
52
69
62
139
56
75
49
24
134
87
92
12
156
48
72
57
142
77
18
38
97
151
103
50
63
104
47
101
27
21

> <PUBCHEM_MMFF94_PARTIAL_CHARGES>
28
1 -0.56
10 0.3
11 0.3
12 0.28
13 0.28
14 0.28
15 0.08
16 -0.15
17 0.16
18 -0.15
19 0.16
2 -0.57
20 0.1
21 0.1
22 0.1
23 0.1
24 0.1
3 -0.36
34 0.15
35 0.15
36 0.15
37 0.15
4 -0.66
5 -0.62
6 -0.1
7 -0.2
8 -0.2
9 0.63

> <PUBCHEM_EFFECTIVE_ROTOR_COUNT>
6

> <PUBCHEM_PHARMACOPHORE_FEATURES>
6
1 1 acceptor
1 2 acceptor
1 3 acceptor
1 5 acceptor
6 5 15 16 17 18 19 rings
7 1 4 10 11 12 13 14 rings

> <PUBCHEM_HEAVY_ATOM_COUNT>
19

> <PUBCHEM_ATOM_DEF_STEREO_COUNT>
1

> <PUBCHEM_ATOM_UDEF_STEREO_COUNT>
0

> <PUBCHEM_BOND_DEF_STEREO_COUNT>
0

> <PUBCHEM_BOND_UDEF_STEREO_COUNT>
0

> <PUBCHEM_ISOTOPIC_ATOM_COUNT>
0

> <PUBCHEM_COMPONENT_COUNT>
1

> <PUBCHEM_CACTVS_TAUTO_COUNT>
1

> <PUBCHEM_CONFORMER_ID>
048099FD00000001

> <PUBCHEM_MMFF94_ENERGY>
60.9084

> <PUBCHEM_FEATURE_SELFOVERLAP>
30.449

> <PUBCHEM_SHAPE_FINGERPRINT>
10382601 240 18186792570300479072
11725454 13 17201345507219322792
12403259 327 15936414480573609177
12633257 1 16805324426507016297
12788726 201 17324938439174187758
13140716 1 18337107869479009139
13533116 47 18115593635004855131
14178342 30 18189615110685008414
14787075 74 18128816537617351225
14955137 171 18123755244750222662
15536298 74 18413111632361044397
1798214 55 18412265068410949036
18186145 218 18409733932672230183
19765921 60 18273212036243228883
20510252 161 17834397100580614130
20671657 1 18339365162598369479
20739085 24 18113336388950975588
21401589 2 17914612997534205936
21503847 285 18270122305516440586
21524375 3 18342176725552204230
21731228 192 18264201577366655850
21864079 5 17988082188804235645
22854114 111 18335988579790637743
23558518 356 18263927815919912462
23559900 14 17968670306868394295
427121 178 18341898523546548088
474 4 18334015025016969813
49207404 50 18188223073308757779
5104073 3 18337682910662213825
58807428 26 18261945345178415418
5895379 119 16413525393620852856
5939293 188 18124311597606808654
6333272 397 18334862761472355863
7097593 13 17902790765472147851
7364860 26 18340769230584003622
7808743 9 18122626330103229992
84936 182 18343581837188530640
9981440 41 18196361735792572818

> <PUBCHEM_SHAPE_MULTIPOLES>
363.44
8.29
3.35
1.07
5.66
0.77
0.03
-5.8
2.14
-2.52
0.81
-0.49
-0.11
0.01

> <PUBCHEM_SHAPE_SELFOVERLAP>
758.627

> <PUBCHEM_SHAPE_VOLUME>
202.6

> <PUBCHEM_COORDINATE_TYPE>
2
5
10

$$$$
