40587799
  -OEChem-12032416363D

 56 60  0     1  0  0  0  0  0999 V2000
   -6.6403   -2.2941   -0.2380 S   0  0  0  0  0  0  0  0  0  0  0  0
    1.7196    3.1894   -1.7967 O   0  0  0  0  0  0  0  0  0  0  0  0
    1.1971   -2.0407    0.5901 O   0  0  0  0  0  0  0  0  0  0  0  0
    0.2903    2.1824   -0.2380 N   0  0  0  0  0  0  0  0  0  0  0  0
    0.9461   -0.1251    1.8629 N   0  0  0  0  0  0  0  0  0  0  0  0
    3.0957   -0.8931    1.2678 N   0  0  0  0  0  0  0  0  0  0  0  0
    0.7350    2.3321    2.2800 C   0  0  2  0  0  0  0  0  0  0  0  0
   -1.2014    1.0690    1.4526 C   0  0  2  0  0  0  0  0  0  0  0  0
   -0.7703    2.1735    2.4150 C   0  0  0  0  0  0  0  0  0  0  0  0
    1.0430    2.8054    0.8585 C   0  0  0  0  0  0  0  0  0  0  0  0
    1.4719    1.0218    2.6183 C   0  0  0  0  0  0  0  0  0  0  0  0
   -0.5152   -0.2469    1.8645 C   0  0  0  0  0  0  0  0  0  0  0  0
   -0.8652    1.4115   -0.0015 C   0  0  0  0  0  0  0  0  0  0  0  0
   -1.6151    0.9789   -1.0486 C   0  0  0  0  0  0  0  0  0  0  0  0
    0.7288    2.5073   -1.5341 C   0  0  0  0  0  0  0  0  0  0  0  0
    1.7183   -1.0931    1.1836 C   0  0  0  0  0  0  0  0  0  0  0  0
   -1.1911    1.2905   -2.4004 C   0  0  0  0  0  0  0  0  0  0  0  0
   -0.0882    1.9934   -2.6565 C   0  0  0  0  0  0  0  0  0  0  0  0
   -2.8437    0.1791   -0.8501 C   0  0  0  0  0  0  0  0  0  0  0  0
   -2.7670   -1.2122   -0.7849 C   0  0  0  0  0  0  0  0  0  0  0  0
   -4.0789    0.8160   -0.7290 C   0  0  0  0  0  0  0  0  0  0  0  0
    4.0741   -1.2545    0.3087 C   0  0  0  0  0  0  0  0  0  0  0  0
   -3.9253   -1.9666   -0.5980 C   0  0  0  0  0  0  0  0  0  0  0  0
   -5.2372    0.0615   -0.5423 C   0  0  0  0  0  0  0  0  0  0  0  0
   -5.1605   -1.3297   -0.4768 C   0  0  0  0  0  0  0  0  0  0  0  0
    5.4269   -1.0554    0.5840 C   0  0  0  0  0  0  0  0  0  0  0  0
    3.6845   -1.8080   -0.9110 C   0  0  0  0  0  0  0  0  0  0  0  0
    6.3904   -1.4098   -0.3604 C   0  0  0  0  0  0  0  0  0  0  0  0
    4.6480   -2.1624   -1.8554 C   0  0  0  0  0  0  0  0  0  0  0  0
    6.0009   -1.9636   -1.5800 C   0  0  0  0  0  0  0  0  0  0  0  0
   -6.2713   -3.1567    1.3157 C   0  0  0  0  0  0  0  0  0  0  0  0
    1.0876    3.0987    2.9811 H   0  0  0  0  0  0  0  0  0  0  0  0
   -2.2828    0.9458    1.5790 H   0  0  0  0  0  0  0  0  0  0  0  0
   -1.2837    3.1146    2.1814 H   0  0  0  0  0  0  0  0  0  0  0  0
   -1.0360    1.9106    3.4462 H   0  0  0  0  0  0  0  0  0  0  0  0
    0.8236    3.8802    0.7922 H   0  0  0  0  0  0  0  0  0  0  0  0
    2.1158    2.7062    0.6490 H   0  0  0  0  0  0  0  0  0  0  0  0
    2.5407    1.1703    2.4556 H   0  0  0  0  0  0  0  0  0  0  0  0
    1.3349    0.7832    3.6800 H   0  0  0  0  0  0  0  0  0  0  0  0
   -0.8068   -0.5150    2.8880 H   0  0  0  0  0  0  0  0  0  0  0  0
   -0.8329   -1.0745    1.2270 H   0  0  0  0  0  0  0  0  0  0  0  0
   -1.7939    0.9229   -3.2258 H   0  0  0  0  0  0  0  0  0  0  0  0
    0.2239    2.2168   -3.6698 H   0  0  0  0  0  0  0  0  0  0  0  0
    3.4634   -0.4508    2.1038 H   0  0  0  0  0  0  0  0  0  0  0  0
   -1.8139   -1.7249   -0.8893 H   0  0  0  0  0  0  0  0  0  0  0  0
   -4.1546    1.8996   -0.7774 H   0  0  0  0  0  0  0  0  0  0  0  0
   -3.8422   -3.0498   -0.5592 H   0  0  0  0  0  0  0  0  0  0  0  0
   -6.1907    0.5756   -0.4494 H   0  0  0  0  0  0  0  0  0  0  0  0
    5.7439   -0.6246    1.5303 H   0  0  0  0  0  0  0  0  0  0  0  0
    2.6481   -1.9558   -1.1908 H   0  0  0  0  0  0  0  0  0  0  0  0
    7.4438   -1.2544   -0.1464 H   0  0  0  0  0  0  0  0  0  0  0  0
    4.3453   -2.5867   -2.8083 H   0  0  0  0  0  0  0  0  0  0  0  0
    6.7509   -2.2380   -2.3160 H   0  0  0  0  0  0  0  0  0  0  0  0
   -7.1528   -3.7225    1.6288 H   0  0  0  0  0  0  0  0  0  0  0  0
   -6.0212   -2.4371    2.1002 H   0  0  0  0  0  0  0  0  0  0  0  0
   -5.4407   -3.8547    1.1838 H   0  0  0  0  0  0  0  0  0  0  0  0
  1 25  1  0  0  0  0
  1 31  1  0  0  0  0
  2 15  2  0  0  0  0
  3 16  2  0  0  0  0
  4 10  1  0  0  0  0
  4 13  1  0  0  0  0
  4 15  1  0  0  0  0
  5 11  1  0  0  0  0
  5 12  1  0  0  0  0
  5 16  1  0  0  0  0
  6 16  1  0  0  0  0
  6 22  1  0  0  0  0
  6 44  1  0  0  0  0
  7  9  1  0  0  0  0
  7 10  1  0  0  0  0
  7 11  1  0  0  0  0
  7 32  1  0  0  0  0
  8  9  1  0  0  0  0
  8 12  1  0  0  0  0
  8 13  1  0  0  0  0
  8 33  1  0  0  0  0
  9 34  1  0  0  0  0
  9 35  1  0  0  0  0
 10 36  1  0  0  0  0
 10 37  1  0  0  0  0
 11 38  1  0  0  0  0
 11 39  1  0  0  0  0
 12 40  1  0  0  0  0
 12 41  1  0  0  0  0
 13 14  2  0  0  0  0
 14 17  1  0  0  0  0
 14 19  1  0  0  0  0
 15 18  1  0  0  0  0
 17 18  2  0  0  0  0
 17 42  1  0  0  0  0
 18 43  1  0  0  0  0
 19 20  2  0  0  0  0
 19 21  1  0  0  0  0
 20 23  1  0  0  0  0
 20 45  1  0  0  0  0
 21 24  2  0  0  0  0
 21 46  1  0  0  0  0
 22 26  2  0  0  0  0
 22 27  1  0  0  0  0
 23 25  2  0  0  0  0
 23 47  1  0  0  0  0
 24 25  1  0  0  0  0
 24 48  1  0  0  0  0
 26 28  1  0  0  0  0
 26 49  1  0  0  0  0
 27 29  2  0  0  0  0
 27 50  1  0  0  0  0
 28 30  2  0  0  0  0
 28 51  1  0  0  0  0
 29 30  1  0  0  0  0
 29 52  1  0  0  0  0
 30 53  1  0  0  0  0
 31 54  1  0  0  0  0
 31 55  1  0  0  0  0
 31 56  1  0  0  0  0
M  END
> <PUBCHEM_COMPOUND_CID>
40587799

> <PUBCHEM_CONFORMER_RMSD>
0.8

> <PUBCHEM_CONFORMER_DIVERSEORDER>
1
8
12
10
5
9
18
7
2
17
13
15
4
14
11
6
16
3

> <PUBCHEM_MMFF94_PARTIAL_CHARGES>
41
1 -0.33
10 0.3
11 0.3
12 0.3
13 -0.03
14 -0.03
15 0.62
16 0.69
17 -0.15
18 -0.14
19 0.03
2 -0.57
20 -0.15
21 -0.15
22 0.12
23 -0.15
24 -0.15
25 0.1
26 -0.15
27 -0.15
28 -0.15
29 -0.15
3 -0.57
30 -0.15
31 0.23
4 -0.47
42 0.15
43 0.15
44 0.37
45 0.15
46 0.15
47 0.15
48 0.15
49 0.15
5 -0.66
50 0.15
51 0.15
52 0.15
53 0.15
6 -0.55
8 0.14

> <PUBCHEM_EFFECTIVE_ROTOR_COUNT>
6

> <PUBCHEM_PHARMACOPHORE_FEATURES>
9
1 2 acceptor
1 3 acceptor
1 31 hydrophobe
1 6 donor
6 19 20 21 23 24 25 rings
6 22 26 27 28 29 30 rings
6 4 13 14 15 17 18 rings
6 4 7 8 9 10 13 rings
6 5 7 8 9 11 12 rings

> <PUBCHEM_HEAVY_ATOM_COUNT>
31

> <PUBCHEM_ATOM_DEF_STEREO_COUNT>
2

> <PUBCHEM_ATOM_UDEF_STEREO_COUNT>
0

> <PUBCHEM_BOND_DEF_STEREO_COUNT>
0

> <PUBCHEM_BOND_UDEF_STEREO_COUNT>
0

> <PUBCHEM_ISOTOPIC_ATOM_COUNT>
0

> <PUBCHEM_COMPONENT_COUNT>
1

> <PUBCHEM_CACTVS_TAUTO_COUNT>
6

> <PUBCHEM_CONFORMER_ID>
026B521700000001

> <PUBCHEM_MMFF94_ENERGY>
97.469

> <PUBCHEM_FEATURE_SELFOVERLAP>
47.234

> <PUBCHEM_SHAPE_FINGERPRINT>
10369192 42 17909238606658523552
10764073 3 15624276156088573185
107951 10 16624623831089103256
11135609 127 11459238283068278835
11374522 184 18189059858262651892
11399939 17 17057510724425915047
11607047 141 18269568276990568225
11954058 11 17917137425103434999
11961588 58 14057002745398177729
12156800 1 16771581432599900808
12633257 1 13614223894054985700
13009979 54 18410579505044717801
13103583 49 15195274348265336038
131258 43 18263369242954416781
13135754 10 17345474777970728904
13383661 66 18340783562832478318
13673619 4 18411980278326049931
14251740 57 18119243111645145387
14251764 30 18131066021922028951
14466204 15 11239995668125296459
14739800 52 9150907061280368767
14767858 380 16588025697262776783
14955137 171 18131633404766690759
15082195 135 12397947425966153895
15461852 350 18115305571991683642
15721738 202 18339932600755360362
16989378 47 17968371359917692911
17492 54 16805325482931560942
17974551 9 13109520616175664398
1813 80 17750211708757859777
20429585 67 18059560409286918760
20567600 254 10809341143943173139
20775438 99 17680423647910809226
20775530 9 18343008991361914574
21344244 246 17969793071153777116
21403212 168 10231762162697159894
21716022 299 18269568289122063880
23559900 14 18188198910476878071
2838139 119 13840262550892100790
437815 12 18059849559043301863
46194498 28 18189046654525283629
469060 322 18189906327016434814
497634 4 18128259983059956174
5081480 168 18115292479986568439
513202 73 16414641428409712006
57527585 21 16662926542765927614
6669772 16 15864636210076642228
6823239 73 17895181260344291091

> <PUBCHEM_SHAPE_MULTIPOLES>
615.13
13.21
3.67
2.61
2.08
0.68
-0.01
-17.94
2.01
-0.06
0.13
-0.8
1.66
1.78

> <PUBCHEM_SHAPE_SELFOVERLAP>
1332.293

> <PUBCHEM_SHAPE_VOLUME>
336.8

> <PUBCHEM_COORDINATE_TYPE>
2
5
10

$$$$
