28960844
  -OEChem-12032416213D

 57 60  0     1  0  0  0  0  0999 V2000
   -4.8808    0.1039   -0.4376 O   0  0  0  0  0  0  0  0  0  0  0  0
    1.1345    3.2648   -1.8008 O   0  0  0  0  0  0  0  0  0  0  0  0
   -2.7216    2.2438    1.3442 N   0  0  1  0  0  0  0  0  0  0  0  0
   -0.0042    2.4625    0.0532 N   0  0  0  0  0  0  0  0  0  0  0  0
   -2.8035   -0.6111   -0.0019 N   0  0  0  0  0  0  0  0  0  0  0  0
   -4.9239   -1.2935   -0.5231 N   0  0  0  0  0  0  0  0  0  0  0  0
    5.5752   -0.6608    0.5492 N   0  0  0  0  0  0  0  0  0  0  0  0
   -1.2265    3.1978   -0.1688 C   0  0  1  0  0  0  0  0  0  0  0  0
   -3.2847    1.8958    0.0256 C   0  0  1  0  0  0  0  0  0  0  0  0
   -2.2309    2.3861   -0.9867 C   0  0  0  0  0  0  0  0  0  0  0  0
   -1.9516    3.4747    1.1396 C   0  0  0  0  0  0  0  0  0  0  0  0
   -3.5969    0.4225   -0.1275 C   0  0  0  0  0  0  0  0  0  0  0  0
   -3.7370    2.4028    2.3782 C   0  0  0  0  0  0  0  0  0  0  0  0
    1.0879    2.5610   -0.7954 C   0  0  0  0  0  0  0  0  0  0  0  0
   -3.6621   -1.6414   -0.2536 C   0  0  0  0  0  0  0  0  0  0  0  0
    2.2605    1.7195   -0.4434 C   0  0  0  0  0  0  0  0  0  0  0  0
   -3.2306   -3.0432   -0.2294 C   0  0  0  0  0  0  0  0  0  0  0  0
    3.5420    2.1133   -0.8287 C   0  0  0  0  0  0  0  0  0  0  0  0
    2.0801    0.5356    0.2715 C   0  0  0  0  0  0  0  0  0  0  0  0
   -1.7191   -3.2460   -0.1911 C   0  0  0  0  0  0  0  0  0  0  0  0
    4.6430    1.3229   -0.4994 C   0  0  0  0  0  0  0  0  0  0  0  0
    3.1811   -0.2549    0.6009 C   0  0  0  0  0  0  0  0  0  0  0  0
    4.4626    0.1387    0.2154 C   0  0  0  0  0  0  0  0  0  0  0  0
   -0.9712   -3.1439   -1.3641 C   0  0  0  0  0  0  0  0  0  0  0  0
   -1.0848   -3.5340    1.0173 C   0  0  0  0  0  0  0  0  0  0  0  0
    0.4109   -3.3295   -1.3287 C   0  0  0  0  0  0  0  0  0  0  0  0
    0.2973   -3.7195    1.0529 C   0  0  0  0  0  0  0  0  0  0  0  0
    6.9113   -0.2613    0.1542 C   0  0  0  0  0  0  0  0  0  0  0  0
    5.3982   -1.8891    1.2983 C   0  0  0  0  0  0  0  0  0  0  0  0
    1.0450   -3.6173   -0.1203 C   0  0  0  0  0  0  0  0  0  0  0  0
   -0.9780    4.1336   -0.6819 H   0  0  0  0  0  0  0  0  0  0  0  0
   -4.2056    2.4698   -0.1524 H   0  0  0  0  0  0  0  0  0  0  0  0
   -1.7493    1.5726   -1.5419 H   0  0  0  0  0  0  0  0  0  0  0  0
   -2.7197    3.0405   -1.7194 H   0  0  0  0  0  0  0  0  0  0  0  0
   -1.2663    3.6696    1.9714 H   0  0  0  0  0  0  0  0  0  0  0  0
   -2.6164    4.3401    1.0195 H   0  0  0  0  0  0  0  0  0  0  0  0
    0.0303    1.8669    0.8734 H   0  0  0  0  0  0  0  0  0  0  0  0
   -4.2818    1.4654    2.5335 H   0  0  0  0  0  0  0  0  0  0  0  0
   -4.4634    3.1858    2.1329 H   0  0  0  0  0  0  0  0  0  0  0  0
   -3.2683    2.6580    3.3349 H   0  0  0  0  0  0  0  0  0  0  0  0
   -3.6212   -3.5714   -1.1094 H   0  0  0  0  0  0  0  0  0  0  0  0
   -3.6803   -3.5448    0.6373 H   0  0  0  0  0  0  0  0  0  0  0  0
    3.7021    3.0348   -1.3823 H   0  0  0  0  0  0  0  0  0  0  0  0
    1.0977    0.1744    0.5613 H   0  0  0  0  0  0  0  0  0  0  0  0
    5.6190    1.6728   -0.8208 H   0  0  0  0  0  0  0  0  0  0  0  0
    2.9883   -1.1698    1.1522 H   0  0  0  0  0  0  0  0  0  0  0  0
   -1.4544   -2.9191   -2.3112 H   0  0  0  0  0  0  0  0  0  0  0  0
   -1.6553   -3.6138    1.9388 H   0  0  0  0  0  0  0  0  0  0  0  0
    0.9935   -3.2484   -2.2416 H   0  0  0  0  0  0  0  0  0  0  0  0
    0.7917   -3.9417    1.9940 H   0  0  0  0  0  0  0  0  0  0  0  0
    7.6646   -0.9856    0.4838 H   0  0  0  0  0  0  0  0  0  0  0  0
    7.1860    0.6998    0.6032 H   0  0  0  0  0  0  0  0  0  0  0  0
    6.9990   -0.1961   -0.9361 H   0  0  0  0  0  0  0  0  0  0  0  0
    6.3538   -2.3935    1.4807 H   0  0  0  0  0  0  0  0  0  0  0  0
    4.7709   -2.6005    0.7496 H   0  0  0  0  0  0  0  0  0  0  0  0
    4.9572   -1.6930    2.2820 H   0  0  0  0  0  0  0  0  0  0  0  0
    2.1214   -3.7599   -0.0922 H   0  0  0  0  0  0  0  0  0  0  0  0
  1  6  1  0  0  0  0
  1 12  1  0  0  0  0
  2 14  2  0  0  0  0
  3  9  1  0  0  0  0
  3 11  1  0  0  0  0
  3 13  1  0  0  0  0
  4  8  1  0  0  0  0
  4 14  1  0  0  0  0
  4 37  1  0  0  0  0
  5 12  2  0  0  0  0
  5 15  1  0  0  0  0
  6 15  2  0  0  0  0
  7 23  1  0  0  0  0
  7 28  1  0  0  0  0
  7 29  1  0  0  0  0
  8 10  1  0  0  0  0
  8 11  1  0  0  0  0
  8 31  1  0  0  0  0
  9 10  1  0  0  0  0
  9 12  1  0  0  0  0
  9 32  1  0  0  0  0
 10 33  1  0  0  0  0
 10 34  1  0  0  0  0
 11 35  1  0  0  0  0
 11 36  1  0  0  0  0
 13 38  1  0  0  0  0
 13 39  1  0  0  0  0
 13 40  1  0  0  0  0
 14 16  1  0  0  0  0
 15 17  1  0  0  0  0
 16 18  2  0  0  0  0
 16 19  1  0  0  0  0
 17 20  1  0  0  0  0
 17 41  1  0  0  0  0
 17 42  1  0  0  0  0
 18 21  1  0  0  0  0
 18 43  1  0  0  0  0
 19 22  2  0  0  0  0
 19 44  1  0  0  0  0
 20 24  2  0  0  0  0
 20 25  1  0  0  0  0
 21 23  2  0  0  0  0
 21 45  1  0  0  0  0
 22 23  1  0  0  0  0
 22 46  1  0  0  0  0
 24 26  1  0  0  0  0
 24 47  1  0  0  0  0
 25 27  2  0  0  0  0
 25 48  1  0  0  0  0
 26 30  2  0  0  0  0
 26 49  1  0  0  0  0
 27 30  1  0  0  0  0
 27 50  1  0  0  0  0
 28 51  1  0  0  0  0
 28 52  1  0  0  0  0
 28 53  1  0  0  0  0
 29 54  1  0  0  0  0
 29 55  1  0  0  0  0
 29 56  1  0  0  0  0
 30 57  1  0  0  0  0
M  END
> <PUBCHEM_COMPOUND_CID>
28960844

> <PUBCHEM_CONFORMER_RMSD>
1

> <PUBCHEM_CONFORMER_DIVERSEORDER>
1
84
8
98
38
91
75
48
58
67
88
103
97
9
87
43
94
70
13
93
61
37
95
62
82
71
96
64
15
78
85
23
80
10
101
26
3
99
49
12
63
27
72
40
89
59
29
77
52
81
28
22
7
41
65
11
66
50
39
14
16
42
19
90
102
20
100
30
5
69
68
57
35
73
45
24
76
18
46
86
56
54
32
60
92
33
4
51
25
31
79
6
21
53
74
17
44
2
83
47
55
36
34

> <PUBCHEM_MMFF94_PARTIAL_CHARGES>
39
1 -0.02
11 0.27
12 0.3
13 0.27
14 0.54
15 0.34
16 0.09
17 0.32
18 -0.15
19 -0.15
2 -0.57
20 -0.14
21 -0.15
22 -0.15
23 0.1
24 -0.15
25 -0.15
26 -0.15
27 -0.15
28 0.37
29 0.37
3 -0.81
30 -0.15
37 0.37
4 -0.73
43 0.15
44 0.15
45 0.15
46 0.15
47 0.15
48 0.15
49 0.15
5 -0.57
50 0.15
57 0.15
6 -0.41
7 -0.84
8 0.3
9 0.45

> <PUBCHEM_EFFECTIVE_ROTOR_COUNT>
8

> <PUBCHEM_PHARMACOPHORE_FEATURES>
9
1 2 acceptor
1 3 cation
1 4 donor
1 7 cation
3 5 6 15 cation
5 1 5 6 12 15 rings
5 3 8 9 10 11 rings
6 16 18 19 21 22 23 rings
6 20 24 25 26 27 30 rings

> <PUBCHEM_HEAVY_ATOM_COUNT>
30

> <PUBCHEM_ATOM_DEF_STEREO_COUNT>
2

> <PUBCHEM_ATOM_UDEF_STEREO_COUNT>
0

> <PUBCHEM_BOND_DEF_STEREO_COUNT>
0

> <PUBCHEM_BOND_UDEF_STEREO_COUNT>
0

> <PUBCHEM_ISOTOPIC_ATOM_COUNT>
0

> <PUBCHEM_COMPONENT_COUNT>
1

> <PUBCHEM_CACTVS_TAUTO_COUNT>
2

> <PUBCHEM_CONFORMER_ID>
01B9E84C00000001

> <PUBCHEM_MMFF94_ENERGY>
83.8872

> <PUBCHEM_FEATURE_SELFOVERLAP>
45.672

> <PUBCHEM_SHAPE_FINGERPRINT>
10939801 23 18337948013434490640
1100329 8 18265894838290402991
11513181 2 17916299433570621943
12422481 6 17905877094780042698
12522641 33 17830159226718495261
12788726 201 18198355128640346244
12838863 1 18269539663386426815
12978246 48 18411138021747682674
13122387 1 18410578392014945271
13773456 30 17541078888642688548
14026016 164 18408036334338110986
14117953 113 18337104580019643709
14251757 5 18120102933578632188
14279260 333 17894625955849934666
14363568 33 17261051925985609131
14725015 67 18339075012394349699
15001296 14 18261103136440780720
15297060 5 18059576845351508915
16112460 7 18270694163269204600
16120349 306 18339922597771474824
17627616 140 18117556219635808322
17818456 19 18340203089759953614
20028762 73 18341890771304593974
20764821 26 18266479640710320718
20775438 99 16257816276775413351
21133410 38 17915465995941454307
22113638 7 18267016339955367599
229767 44 18410852136324992066
238918 7 18131632262363581958
3027735 51 18339350886865673029
338550 245 18335140848215950286
373842 8 18265325115121393098
437795 70 18197798630419517838
474144 1 17823672270552376787
5085150 59 18267564854455186989
57527585 103 17751670752087552187
6287921 2 17910959037122300155
6433294 58 17473828802070512941

> <PUBCHEM_SHAPE_MULTIPOLES>
580.74
11.27
6.2
1.38
13.75
2.71
-0.33
-0.28
-2
-3.64
0.13
-0.5
-0.42
-2.42

> <PUBCHEM_SHAPE_SELFOVERLAP>
1243.987

> <PUBCHEM_SHAPE_VOLUME>
323.7

> <PUBCHEM_COORDINATE_TYPE>
2
5
10

$$$$
