45361572
  -OEChem-12032416353D

 71 74  0     1  0  0  0  0  0999 V2000
    1.3121    0.9081   -1.7208 O   0  0  0  0  0  0  0  0  0  0  0  0
    5.5770   -1.8265   -0.4019 O   0  0  0  0  0  0  0  0  0  0  0  0
   -4.5802    1.3239    1.7783 O   0  0  0  0  0  0  0  0  0  0  0  0
   -3.6987   -0.0263    0.1123 N   0  0  0  0  0  0  0  0  0  0  0  0
    5.7670    0.4887   -0.4398 N   0  0  0  0  0  0  0  0  0  0  0  0
   -8.5829    0.3727   -1.0591 N   0  0  0  0  0  0  0  0  0  0  0  0
    0.2350   -1.5241    1.0177 C   0  0  1  0  0  0  0  0  0  0  0  0
    0.1477   -0.2972    0.0503 C   0  0  2  0  0  0  0  0  0  0  0  0
   -1.3020   -0.1500   -0.5365 C   0  0  1  0  0  0  0  0  0  0  0  0
    1.2945   -0.3254   -1.0008 C   0  0  2  0  0  0  0  0  0  0  0  0
    1.6399   -1.5731    1.6635 C   0  0  0  0  0  0  0  0  0  0  0  0
    2.6906   -0.4794   -0.3537 C   0  0  1  0  0  0  0  0  0  0  0  0
   -0.7989   -1.3453    2.1534 C   0  0  0  0  0  0  0  0  0  0  0  0
   -2.3411   -0.0464    0.6152 C   0  0  2  0  0  0  0  0  0  0  0  0
    2.7635   -1.6407    0.6377 C   0  0  0  0  0  0  0  0  0  0  0  0
   -2.2224   -1.1709    1.6436 C   0  0  0  0  0  0  0  0  0  0  0  0
   -0.0281   -2.8699    0.2956 C   0  0  0  0  0  0  0  0  0  0  0  0
    3.7926   -0.6365   -1.4087 C   0  0  2  0  0  0  0  0  0  0  0  0
   -1.4666    1.0566   -1.4761 C   0  0  0  0  0  0  0  0  0  0  0  0
    3.5700   -1.8783   -2.2526 C   0  0  0  0  0  0  0  0  0  0  0  0
    5.1243   -0.7199   -0.7059 C   0  0  0  0  0  0  0  0  0  0  0  0
   -4.7136    0.6679    0.7485 C   0  0  0  0  0  0  0  0  0  0  0  0
    5.2748    1.8165   -0.8284 C   0  0  0  0  0  0  0  0  0  0  0  0
    7.0632    0.4905    0.2416 C   0  0  0  0  0  0  0  0  0  0  0  0
    5.2098    2.7456    0.3819 C   0  0  0  0  0  0  0  0  0  0  0  0
    7.0314    1.3928    1.4723 C   0  0  0  0  0  0  0  0  0  0  0  0
   -6.0563    0.5672    0.1210 C   0  0  0  0  0  0  0  0  0  0  0  0
    6.5493    2.7977    1.1151 C   0  0  0  0  0  0  0  0  0  0  0  0
   -7.2017    0.7096    0.8963 C   0  0  0  0  0  0  0  0  0  0  0  0
   -6.1727    0.3276   -1.2438 C   0  0  0  0  0  0  0  0  0  0  0  0
   -8.4301    0.6047    0.2640 C   0  0  0  0  0  0  0  0  0  0  0  0
   -7.4472    0.2399   -1.7804 C   0  0  0  0  0  0  0  0  0  0  0  0
    0.3121    0.6101    0.6536 H   0  0  0  0  0  0  0  0  0  0  0  0
   -1.5330   -1.0385   -1.1377 H   0  0  0  0  0  0  0  0  0  0  0  0
    1.0785   -1.1180   -1.7201 H   0  0  0  0  0  0  0  0  0  0  0  0
    1.7902   -0.6816    2.2875 H   0  0  0  0  0  0  0  0  0  0  0  0
    1.7179   -2.4349    2.3390 H   0  0  0  0  0  0  0  0  0  0  0  0
    2.8944    0.4411    0.2119 H   0  0  0  0  0  0  0  0  0  0  0  0
   -0.7661   -2.2039    2.8361 H   0  0  0  0  0  0  0  0  0  0  0  0
   -0.5367   -0.4649    2.7555 H   0  0  0  0  0  0  0  0  0  0  0  0
   -2.1673    0.9032    1.1401 H   0  0  0  0  0  0  0  0  0  0  0  0
    2.7271   -2.6187    0.1540 H   0  0  0  0  0  0  0  0  0  0  0  0
    3.6997   -1.6101    1.2062 H   0  0  0  0  0  0  0  0  0  0  0  0
   -2.8803   -0.9642    2.4978 H   0  0  0  0  0  0  0  0  0  0  0  0
   -2.5881   -2.1132    1.2177 H   0  0  0  0  0  0  0  0  0  0  0  0
   -1.0363   -2.9382   -0.1209 H   0  0  0  0  0  0  0  0  0  0  0  0
    0.0864   -3.7092    0.9918 H   0  0  0  0  0  0  0  0  0  0  0  0
    0.6621   -3.0411   -0.5351 H   0  0  0  0  0  0  0  0  0  0  0  0
    3.7829    0.1849   -2.1269 H   0  0  0  0  0  0  0  0  0  0  0  0
   -0.9399    0.8959   -2.4209 H   0  0  0  0  0  0  0  0  0  0  0  0
   -2.5135    1.2214   -1.7507 H   0  0  0  0  0  0  0  0  0  0  0  0
   -1.0975    1.9762   -1.0105 H   0  0  0  0  0  0  0  0  0  0  0  0
   -3.9068   -0.6369   -0.6709 H   0  0  0  0  0  0  0  0  0  0  0  0
    1.4620    1.6275   -1.0840 H   0  0  0  0  0  0  0  0  0  0  0  0
    3.5436   -2.8156   -1.6920 H   0  0  0  0  0  0  0  0  0  0  0  0
    4.4000   -1.9869   -2.9634 H   0  0  0  0  0  0  0  0  0  0  0  0
    2.6653   -1.8159   -2.8631 H   0  0  0  0  0  0  0  0  0  0  0  0
    5.9729    2.2123   -1.5756 H   0  0  0  0  0  0  0  0  0  0  0  0
    4.2880    1.8043   -1.2857 H   0  0  0  0  0  0  0  0  0  0  0  0
    7.8099    0.8480   -0.4772 H   0  0  0  0  0  0  0  0  0  0  0  0
    7.3509   -0.5239    0.5354 H   0  0  0  0  0  0  0  0  0  0  0  0
    4.4360    2.3898    1.0737 H   0  0  0  0  0  0  0  0  0  0  0  0
    4.9217    3.7534    0.0633 H   0  0  0  0  0  0  0  0  0  0  0  0
    8.0282    1.4439    1.9236 H   0  0  0  0  0  0  0  0  0  0  0  0
    6.3562    0.9615    2.2220 H   0  0  0  0  0  0  0  0  0  0  0  0
    6.4523    3.4005    2.0249 H   0  0  0  0  0  0  0  0  0  0  0  0
    7.2954    3.2903    0.4796 H   0  0  0  0  0  0  0  0  0  0  0  0
   -7.1549    0.8927    1.9644 H   0  0  0  0  0  0  0  0  0  0  0  0
   -5.3196    0.2355   -1.9062 H   0  0  0  0  0  0  0  0  0  0  0  0
   -9.3537    0.7069    0.8242 H   0  0  0  0  0  0  0  0  0  0  0  0
   -7.5926    0.0613   -2.8408 H   0  0  0  0  0  0  0  0  0  0  0  0
  1 10  1  0  0  0  0
  1 54  1  0  0  0  0
  2 21  2  0  0  0  0
  3 22  2  0  0  0  0
  4 14  1  0  0  0  0
  4 22  1  0  0  0  0
  4 53  1  0  0  0  0
  5 21  1  0  0  0  0
  5 23  1  0  0  0  0
  5 24  1  0  0  0  0
  6 31  2  0  0  0  0
  6 32  1  0  0  0  0
  7  8  1  0  0  0  0
  7 11  1  0  0  0  0
  7 13  1  0  0  0  0
  7 17  1  0  0  0  0
  8  9  1  0  0  0  0
  8 10  1  0  0  0  0
  8 33  1  0  0  0  0
  9 14  1  0  0  0  0
  9 19  1  0  0  0  0
  9 34  1  0  0  0  0
 10 12  1  0  0  0  0
 10 35  1  0  0  0  0
 11 15  1  0  0  0  0
 11 36  1  0  0  0  0
 11 37  1  0  0  0  0
 12 15  1  0  0  0  0
 12 18  1  0  0  0  0
 12 38  1  0  0  0  0
 13 16  1  0  0  0  0
 13 39  1  0  0  0  0
 13 40  1  0  0  0  0
 14 16  1  0  0  0  0
 14 41  1  0  0  0  0
 15 42  1  0  0  0  0
 15 43  1  0  0  0  0
 16 44  1  0  0  0  0
 16 45  1  0  0  0  0
 17 46  1  0  0  0  0
 17 47  1  0  0  0  0
 17 48  1  0  0  0  0
 18 20  1  0  0  0  0
 18 21  1  0  0  0  0
 18 49  1  0  0  0  0
 19 50  1  0  0  0  0
 19 51  1  0  0  0  0
 19 52  1  0  0  0  0
 20 55  1  0  0  0  0
 20 56  1  0  0  0  0
 20 57  1  0  0  0  0
 22 27  1  0  0  0  0
 23 25  1  0  0  0  0
 23 58  1  0  0  0  0
 23 59  1  0  0  0  0
 24 26  1  0  0  0  0
 24 60  1  0  0  0  0
 24 61  1  0  0  0  0
 25 28  1  0  0  0  0
 25 62  1  0  0  0  0
 25 63  1  0  0  0  0
 26 28  1  0  0  0  0
 26 64  1  0  0  0  0
 26 65  1  0  0  0  0
 27 29  2  0  0  0  0
 27 30  1  0  0  0  0
 28 66  1  0  0  0  0
 28 67  1  0  0  0  0
 29 31  1  0  0  0  0
 29 68  1  0  0  0  0
 30 32  2  0  0  0  0
 30 69  1  0  0  0  0
 31 70  1  0  0  0  0
 32 71  1  0  0  0  0
M  END
> <PUBCHEM_COMPOUND_CID>
45361572

> <PUBCHEM_CONFORMER_RMSD>
1

> <PUBCHEM_CONFORMER_DIVERSEORDER>
1
29
18
22
23
24
10
13
30
31
14
7
8
15
21
28
12
20
16
2
17
25
9
27
19
32
4
11
6
26
3
5

> <PUBCHEM_MMFF94_PARTIAL_CHARGES>
24
1 -0.68
10 0.28
14 0.3
18 0.06
2 -0.57
21 0.57
22 0.54
23 0.3
24 0.3
27 0.09
29 -0.15
3 -0.57
30 -0.15
31 0.16
32 0.16
4 -0.73
5 -0.66
53 0.37
54 0.4
6 -0.62
68 0.15
69 0.15
70 0.15
71 0.15

> <PUBCHEM_EFFECTIVE_ROTOR_COUNT>
8.8

> <PUBCHEM_PHARMACOPHORE_FEATURES>
11
1 1 acceptor
1 1 donor
1 2 acceptor
1 20 hydrophobe
1 3 acceptor
1 4 donor
1 6 acceptor
6 5 23 24 25 26 28 rings
6 6 27 29 30 31 32 rings
6 7 8 10 11 12 15 rings
6 7 8 9 13 14 16 rings

> <PUBCHEM_HEAVY_ATOM_COUNT>
32

> <PUBCHEM_ATOM_DEF_STEREO_COUNT>
6

> <PUBCHEM_ATOM_UDEF_STEREO_COUNT>
1

> <PUBCHEM_BOND_DEF_STEREO_COUNT>
0

> <PUBCHEM_BOND_UDEF_STEREO_COUNT>
0

> <PUBCHEM_ISOTOPIC_ATOM_COUNT>
0

> <PUBCHEM_COMPONENT_COUNT>
1

> <PUBCHEM_CACTVS_TAUTO_COUNT>
2

> <PUBCHEM_CONFORMER_ID>
02B429A400000001

> <PUBCHEM_MMFF94_ENERGY>
92.4665

> <PUBCHEM_FEATURE_SELFOVERLAP>
55.836

> <PUBCHEM_SHAPE_FINGERPRINT>
10 15 16732987548189208844
10076449 9 10663824091821923738
10533779 1 17843393241007998744
10591671 39 15051738585674397813
10673678 19 17489590108371381284
11719270 70 16515686619515649491
11963148 33 14189286024624131061
12422481 6 17022902376344551258
12838862 33 17603574245307816277
13383668 254 18129678469477936705
13617811 41 13830136100698262960
13673619 4 9007066751259110450
14347424 109 13839988832889694350
15082195 135 16845575344445753010
15183329 4 15626509384516528691
15669420 48 12679460907390422000
15840311 113 18342461430365544156
16728300 4 13841079514175680912
16994733 274 18060420192619584217
19301679 30 14129879403323118960
20105231 36 12535629392861507725
20157964 124 18202850941945559966
20511986 3 18040428906557986811
20554085 129 17822005419482655464
20771845 171 16056892307872919524
21033648 29 18187645873381698848
21150785 3 17060338530771715801
21403212 168 17894342293948476856
21521721 280 18413953884201423715
21792934 111 17095793335201936449
21859007 373 17023173929620008373
22224240 67 18259984877349576155
23516275 100 18340764957462076192
23522609 53 16271110171118070923
24771293 8 18042402594243370180
25269216 80 13398361199837097480
3004659 81 14620790492420616283
312425 54 11963684351533980929
335352 9 17385454201968070718
34797466 226 18131075900631003143
4093350 32 18272934899230875630
4258327 124 17702948161538923228
445580 167 17846493742968444509
44880568 143 17845945009362444193
4760202 170 18411408506827165149
5265222 85 16486966341206621549
57527293 21 17678166300190880556
6004065 56 18341332296564955837

> <PUBCHEM_SHAPE_MULTIPOLES>
625.99
23.29
2.31
1.89
26.14
0.06
0.1
14.16
1.43
-4.4
-0.57
0.14
-0.3
1.68

> <PUBCHEM_SHAPE_SELFOVERLAP>
1314.131

> <PUBCHEM_SHAPE_VOLUME>
347.2

> <PUBCHEM_COORDINATE_TYPE>
2
5
10

$$$$
