11912942
  -OEChem-12032416253D

 66 69  0     1  0  0  0  0  0999 V2000
    0.9128   -2.0886   -1.7436 O   0  0  0  0  0  0  0  0  0  0  0  0
    0.1095   -3.3599    0.9905 O   0  0  0  0  0  0  0  0  0  0  0  0
   -3.9112   -1.9289    0.1099 O   0  0  0  0  0  0  0  0  0  0  0  0
   -6.1119   -0.4085    1.4094 O   0  0  0  0  0  0  0  0  0  0  0  0
   -6.6679    1.5533    0.3981 O   0  0  0  0  0  0  0  0  0  0  0  0
   -2.0632   -1.3832   -1.1901 N   0  0  0  0  0  0  0  0  0  0  0  0
    2.4168   -1.3617    1.5027 N   0  0  0  0  0  0  0  0  0  0  0  0
    3.7706    0.0144    0.2123 N   0  0  0  0  0  0  0  0  0  0  0  0
    3.4622    0.4172    2.5680 N   0  0  0  0  0  0  0  0  0  0  0  0
   -3.7013    1.3017   -0.3449 C   0  0  0  0  0  0  0  0  0  0  0  0
   -0.3003   -2.1671    0.3011 C   0  0  1  0  0  0  0  0  0  0  0  0
    0.9248   -1.6024   -0.3908 C   0  0  1  0  0  0  0  0  0  0  0  0
   -1.2377   -2.5117   -0.8337 C   0  0  2  0  0  0  0  0  0  0  0  0
   -4.1956    2.5978   -1.0020 C   0  0  0  0  0  0  0  0  0  0  0  0
   -2.1981    1.5785   -0.2046 C   0  0  0  0  0  0  0  0  0  0  0  0
    2.0861   -2.1978    0.3696 C   0  0  2  0  0  0  0  0  0  0  0  0
   -3.9695    0.0834   -1.2308 C   0  0  0  0  0  0  0  0  0  0  0  0
   -3.3829    3.7109   -0.3447 C   0  0  0  0  0  0  0  0  0  0  0  0
   -2.0995    3.0564    0.1664 C   0  0  0  0  0  0  0  0  0  0  0  0
   -0.2755   -2.8654   -1.9537 C   0  0  0  0  0  0  0  0  0  0  0  0
   -4.3595    1.0851    1.0274 C   0  0  0  0  0  0  0  0  0  0  0  0
    1.5274   -3.5271    0.8433 C   0  0  0  0  0  0  0  0  0  0  0  0
   -3.3413   -1.1853   -0.6839 C   0  0  0  0  0  0  0  0  0  0  0  0
   -5.8292    0.8144    0.8914 C   0  0  0  0  0  0  0  0  0  0  0  0
    3.2529   -0.2621    1.4243 C   0  0  0  0  0  0  0  0  0  0  0  0
    4.5806    1.0926    0.1718 C   0  0  0  0  0  0  0  0  0  0  0  0
    5.1762    1.4353   -1.1523 C   0  0  0  0  0  0  0  0  0  0  0  0
    4.2818    1.4831    2.4553 C   0  0  0  0  0  0  0  0  0  0  0  0
    4.8750    1.8722    1.2718 C   0  0  0  0  0  0  0  0  0  0  0  0
    6.7348    1.3972   -1.0979 C   0  0  0  0  0  0  0  0  0  0  0  0
    4.7561    2.8670   -1.6079 C   0  0  0  0  0  0  0  0  0  0  0  0
    4.7772    0.4889   -2.3327 C   0  0  0  0  0  0  0  0  0  0  0  0
   -0.7235   -1.4866    1.0470 H   0  0  0  0  0  0  0  0  0  0  0  0
    0.9168   -0.5087   -0.4397 H   0  0  0  0  0  0  0  0  0  0  0  0
   -1.8884   -3.3620   -0.6022 H   0  0  0  0  0  0  0  0  0  0  0  0
   -5.2655    2.7957   -0.9396 H   0  0  0  0  0  0  0  0  0  0  0  0
   -3.9520    2.5864   -2.0732 H   0  0  0  0  0  0  0  0  0  0  0  0
   -1.6825    1.4339   -1.1621 H   0  0  0  0  0  0  0  0  0  0  0  0
   -1.7039    0.9479    0.5414 H   0  0  0  0  0  0  0  0  0  0  0  0
    2.9716   -2.3824   -0.2496 H   0  0  0  0  0  0  0  0  0  0  0  0
   -3.5798    0.2589   -2.2428 H   0  0  0  0  0  0  0  0  0  0  0  0
   -5.0405   -0.1027   -1.3729 H   0  0  0  0  0  0  0  0  0  0  0  0
   -3.1708    4.5185   -1.0528 H   0  0  0  0  0  0  0  0  0  0  0  0
   -3.9377    4.1488    0.4930 H   0  0  0  0  0  0  0  0  0  0  0  0
   -2.0277    3.1754    1.2537 H   0  0  0  0  0  0  0  0  0  0  0  0
   -1.2073    3.5167   -0.2704 H   0  0  0  0  0  0  0  0  0  0  0  0
    0.0136   -3.9209   -1.9025 H   0  0  0  0  0  0  0  0  0  0  0  0
   -0.6685   -2.6644   -2.9550 H   0  0  0  0  0  0  0  0  0  0  0  0
   -3.8736    0.2666    1.5719 H   0  0  0  0  0  0  0  0  0  0  0  0
   -4.2580    1.9619    1.6781 H   0  0  0  0  0  0  0  0  0  0  0  0
    1.9509   -3.8759    1.7902 H   0  0  0  0  0  0  0  0  0  0  0  0
    1.6840   -4.3072    0.0901 H   0  0  0  0  0  0  0  0  0  0  0  0
   -1.6660   -0.6924   -1.8196 H   0  0  0  0  0  0  0  0  0  0  0  0
    1.9822   -1.5442    2.4002 H   0  0  0  0  0  0  0  0  0  0  0  0
   -7.0661   -0.6243    1.3374 H   0  0  0  0  0  0  0  0  0  0  0  0
    4.4539    2.0343    3.3736 H   0  0  0  0  0  0  0  0  0  0  0  0
    5.5246    2.7368    1.2390 H   0  0  0  0  0  0  0  0  0  0  0  0
    7.0889    0.4074   -0.7863 H   0  0  0  0  0  0  0  0  0  0  0  0
    7.1380    2.1304   -0.3908 H   0  0  0  0  0  0  0  0  0  0  0  0
    7.1733    1.6184   -2.0780 H   0  0  0  0  0  0  0  0  0  0  0  0
    5.1676    3.1079   -2.5950 H   0  0  0  0  0  0  0  0  0  0  0  0
    3.6646    2.9511   -1.6685 H   0  0  0  0  0  0  0  0  0  0  0  0
    5.1090    3.6378   -0.9140 H   0  0  0  0  0  0  0  0  0  0  0  0
    5.2467    0.7959   -3.2741 H   0  0  0  0  0  0  0  0  0  0  0  0
    5.0833   -0.5436   -2.1273 H   0  0  0  0  0  0  0  0  0  0  0  0
    3.6913    0.4890   -2.4847 H   0  0  0  0  0  0  0  0  0  0  0  0
  1 12  1  0  0  0  0
  1 20  1  0  0  0  0
  2 11  1  0  0  0  0
  2 22  1  0  0  0  0
  3 23  2  0  0  0  0
  4 24  1  0  0  0  0
  4 55  1  0  0  0  0
  5 24  2  0  0  0  0
  6 13  1  0  0  0  0
  6 23  1  0  0  0  0
  6 53  1  0  0  0  0
  7 16  1  0  0  0  0
  7 25  1  0  0  0  0
  7 54  1  0  0  0  0
  8 25  1  0  0  0  0
  8 26  2  0  0  0  0
  9 25  2  0  0  0  0
  9 28  1  0  0  0  0
 10 14  1  0  0  0  0
 10 15  1  0  0  0  0
 10 17  1  0  0  0  0
 10 21  1  0  0  0  0
 11 12  1  0  0  0  0
 11 13  1  0  0  0  0
 11 33  1  0  0  0  0
 12 16  1  0  0  0  0
 12 34  1  0  0  0  0
 13 20  1  0  0  0  0
 13 35  1  0  0  0  0
 14 18  1  0  0  0  0
 14 36  1  0  0  0  0
 14 37  1  0  0  0  0
 15 19  1  0  0  0  0
 15 38  1  0  0  0  0
 15 39  1  0  0  0  0
 16 22  1  0  0  0  0
 16 40  1  0  0  0  0
 17 23  1  0  0  0  0
 17 41  1  0  0  0  0
 17 42  1  0  0  0  0
 18 19  1  0  0  0  0
 18 43  1  0  0  0  0
 18 44  1  0  0  0  0
 19 45  1  0  0  0  0
 19 46  1  0  0  0  0
 20 47  1  0  0  0  0
 20 48  1  0  0  0  0
 21 24  1  0  0  0  0
 21 49  1  0  0  0  0
 21 50  1  0  0  0  0
 22 51  1  0  0  0  0
 22 52  1  0  0  0  0
 26 27  1  0  0  0  0
 26 29  1  0  0  0  0
 27 30  1  0  0  0  0
 27 31  1  0  0  0  0
 27 32  1  0  0  0  0
 28 29  2  0  0  0  0
 28 56  1  0  0  0  0
 29 57  1  0  0  0  0
 30 58  1  0  0  0  0
 30 59  1  0  0  0  0
 30 60  1  0  0  0  0
 31 61  1  0  0  0  0
 31 62  1  0  0  0  0
 31 63  1  0  0  0  0
 32 64  1  0  0  0  0
 32 65  1  0  0  0  0
 32 66  1  0  0  0  0
M  END
> <PUBCHEM_COMPOUND_CID>
11912942

> <PUBCHEM_CONFORMER_RMSD>
1

> <PUBCHEM_CONFORMER_DIVERSEORDER>
1
197
43
49
50
76
176
100
153
134
102
163
188
183
139
207
144
196
132
133
187
154
54
72
186
85
28
177
168
129
149
84
152
59
44
206
62
41
37
189
87
157
146
104
145
25
110
180
162
130
174
164
14
91
13
99
179
58
148
135
195
161
166
101
120
193
199
20
33
121
192
56
18
86
42
74
11
105
194
200
82
205
47
38
108
169
112
114
90
19
107
64
125
70
45
117
60
175
65
201
51
151
138
94
97
22
155
89
191
190
4
123
111
15
128
40
92
203
80
165
172
57
30
204
119
198
127
26
10
106
109
156
67
6
182
88
53
159
96
61
98
71
137
8
2
173
124
46
32
95
185
103
5
39
34
202
122
23
68
136
170
141
77
118
116
171
158
55
31
113
79
131
142
150
17
35
73
29
181
115
27
160
78
12
83
143
147
16
167
140
66
69
184
93
52
178
126
75
21
7
48
81
36
3
24
63
9

> <PUBCHEM_MMFF94_PARTIAL_CHARGES>
29
1 -0.56
11 0.28
12 0.28
13 0.3
16 0.37
17 0.06
2 -0.56
20 0.28
21 0.06
22 0.28
23 0.57
24 0.66
25 0.72
26 0.17
27 0.14
28 0.16
29 -0.15
3 -0.57
4 -0.65
5 -0.57
53 0.37
54 0.4
55 0.5
56 0.15
57 0.15
6 -0.73
7 -0.87
8 -0.62
9 -0.62

> <PUBCHEM_EFFECTIVE_ROTOR_COUNT>
11.2

> <PUBCHEM_PHARMACOPHORE_FEATURES>
15
1 1 acceptor
1 2 acceptor
1 3 acceptor
1 4 acceptor
1 5 acceptor
1 6 donor
1 7 donor
1 8 acceptor
3 4 5 24 anion
4 27 30 31 32 hydrophobe
4 7 8 9 25 cation
5 1 11 12 13 20 rings
5 10 14 15 18 19 rings
5 2 11 12 16 22 rings
6 8 9 25 26 28 29 rings

> <PUBCHEM_HEAVY_ATOM_COUNT>
32

> <PUBCHEM_ATOM_DEF_STEREO_COUNT>
4

> <PUBCHEM_ATOM_UDEF_STEREO_COUNT>
0

> <PUBCHEM_BOND_DEF_STEREO_COUNT>
0

> <PUBCHEM_BOND_UDEF_STEREO_COUNT>
0

> <PUBCHEM_ISOTOPIC_ATOM_COUNT>
0

> <PUBCHEM_COMPONENT_COUNT>
1

> <PUBCHEM_CACTVS_TAUTO_COUNT>
6

> <PUBCHEM_CONFORMER_ID>
00B5C6EE00000001

> <PUBCHEM_MMFF94_ENERGY>
94.6733

> <PUBCHEM_FEATURE_SELFOVERLAP>
76.887

> <PUBCHEM_SHAPE_FINGERPRINT>
10670039 82 18411416250304033204
11059048 146 17772195206341040872
11720765 8 16773520976281536098
12373685 5 14707790527469881195
12596602 18 17167579397381619169
12788726 201 18119524594768035982
12978246 48 18409161095699318561
13617811 41 18409156715408073109
14114211 68 18340502087833759018
14251757 17 17346317146049271704
14347329 18 18410013277888604320
1454969 45 18411417345910966671
14840074 17 18408608071737045629
14848178 5 10737279138968362563
14849402 71 18188770518673606698
14950920 106 16733249171589798272
15001296 14 18116716416006266380
15163728 17 18409452509499461990
15183329 4 16343715326167750918
15297060 5 18341057397515185888
15575132 122 18409166602147962237
15968369 153 17766555033791159667
15975801 100 18115032905534085564
16991981 162 17685230747712923598
20567600 9 18335420119842718286
21033650 10 18125435556826990226
21223535 225 16414930660060371464
21302155 148 18409164398608115045
21315763 87 14345796054323805625
21458453 9 17970364800273507681
23559900 14 17698433335088619815
245318 6 18262514788890591628
27425 322 17532653426113779929
338550 245 18336255761580482488
38570 142 17458635549283079510
469060 322 18041829714504492663
5252454 2 18131058329904114019
57527293 21 18200037223572556291
6608658 132 18197761392451330511
7808743 9 18411420643580972598

> <PUBCHEM_SHAPE_MULTIPOLES>
609.27
15.1
4.45
2.05
0.64
0.97
0.26
-13.04
0.56
1.07
-0.63
-2.71
-0.07
-0.85

> <PUBCHEM_SHAPE_SELFOVERLAP>
1293.031

> <PUBCHEM_SHAPE_VOLUME>
341.3

> <PUBCHEM_COORDINATE_TYPE>
2
5
10

$$$$
