75536392
  -OEChem-12032416303D

 60 64  0     1  0  0  0  0  0999 V2000
    3.8418   -0.2837    0.6742 O   0  0  0  0  0  0  0  0  0  0  0  0
    6.6558    0.3217    1.3093 O   0  0  0  0  0  0  0  0  0  0  0  0
    0.0834   -1.8738    1.4028 O   0  0  0  0  0  0  0  0  0  0  0  0
    1.3948    1.2152   -1.9141 O   0  0  0  0  0  0  0  0  0  0  0  0
   -3.6116    2.3326   -1.2210 O   0  0  0  0  0  0  0  0  0  0  0  0
   -3.9649    2.2221    1.1602 O   0  0  0  0  0  0  0  0  0  0  0  0
   -5.8742   -1.3382   -0.5549 O   0  0  0  0  0  0  0  0  0  0  0  0
    2.2943    2.0068    0.0731 N   0  0  0  0  0  0  0  0  0  0  0  0
    1.4632   -2.0376    1.4161 N   0  0  0  0  0  0  0  0  0  0  0  0
    4.4567    1.0092    0.5997 C   0  0  1  0  0  0  0  0  0  0  0  0
    3.9571   -1.0809   -0.5069 C   0  0  1  0  0  0  0  0  0  0  0  0
    5.9383    0.9017    0.2165 C   0  0  2  0  0  0  0  0  0  0  0  0
    5.4256   -1.3127   -0.8594 C   0  0  0  0  0  0  0  0  0  0  0  0
    6.1596    0.0170   -1.0074 C   0  0  0  0  0  0  0  0  0  0  0  0
    3.2484   -2.4030   -0.2385 C   0  0  0  0  0  0  0  0  0  0  0  0
    3.6692    1.9409   -0.3192 C   0  0  0  0  0  0  0  0  0  0  0  0
    1.8049   -2.1962    0.1343 C   0  0  0  0  0  0  0  0  0  0  0  0
    0.6937   -2.1424   -0.7248 C   0  0  0  0  0  0  0  0  0  0  0  0
    1.2486    1.6329   -0.7684 C   0  0  0  0  0  0  0  0  0  0  0  0
   -0.3632   -1.9383    0.1224 C   0  0  0  0  0  0  0  0  0  0  0  0
   -0.1240    1.7854   -0.2210 C   0  0  0  0  0  0  0  0  0  0  0  0
   -1.7781   -1.7830   -0.0517 C   0  0  0  0  0  0  0  0  0  0  0  0
   -1.1981    1.9908   -1.0905 C   0  0  0  0  0  0  0  0  0  0  0  0
   -0.3302    1.7211    1.1683 C   0  0  0  0  0  0  0  0  0  0  0  0
   -2.4540    2.1267   -0.5357 C   0  0  0  0  0  0  0  0  0  0  0  0
   -2.6558    2.0636    0.8240 C   0  0  0  0  0  0  0  0  0  0  0  0
   -2.3331   -1.8313   -1.3306 C   0  0  0  0  0  0  0  0  0  0  0  0
   -2.5997   -1.5845    1.0579 C   0  0  0  0  0  0  0  0  0  0  0  0
   -1.6126    1.8615    1.7041 C   0  0  0  0  0  0  0  0  0  0  0  0
   -3.7094   -1.6809   -1.4998 C   0  0  0  0  0  0  0  0  0  0  0  0
   -3.9761   -1.4339    0.8887 C   0  0  0  0  0  0  0  0  0  0  0  0
   -4.5647    2.3917   -0.1401 C   0  0  0  0  0  0  0  0  0  0  0  0
   -4.5308   -1.4821   -0.3902 C   0  0  0  0  0  0  0  0  0  0  0  0
   -6.6548   -1.1382    0.6228 C   0  0  0  0  0  0  0  0  0  0  0  0
    4.3947    1.4074    1.6207 H   0  0  0  0  0  0  0  0  0  0  0  0
    3.4522   -0.5744   -1.3372 H   0  0  0  0  0  0  0  0  0  0  0  0
    6.3617    1.8983    0.0496 H   0  0  0  0  0  0  0  0  0  0  0  0
    5.5117   -1.8911   -1.7862 H   0  0  0  0  0  0  0  0  0  0  0  0
    5.9111   -1.8949   -0.0660 H   0  0  0  0  0  0  0  0  0  0  0  0
    7.2281   -0.1809   -1.1517 H   0  0  0  0  0  0  0  0  0  0  0  0
    5.7999    0.5306   -1.9065 H   0  0  0  0  0  0  0  0  0  0  0  0
    3.7439   -2.9375    0.5830 H   0  0  0  0  0  0  0  0  0  0  0  0
    3.3051   -3.0501   -1.1222 H   0  0  0  0  0  0  0  0  0  0  0  0
    3.7410    1.6350   -1.3668 H   0  0  0  0  0  0  0  0  0  0  0  0
    4.0718    2.9577   -0.2519 H   0  0  0  0  0  0  0  0  0  0  0  0
    7.5975    0.3058    1.0672 H   0  0  0  0  0  0  0  0  0  0  0  0
    2.0988    2.4271    0.9754 H   0  0  0  0  0  0  0  0  0  0  0  0
    0.6762   -2.2370   -1.8008 H   0  0  0  0  0  0  0  0  0  0  0  0
   -1.0630    2.0467   -2.1653 H   0  0  0  0  0  0  0  0  0  0  0  0
    0.4837    1.5280    1.8616 H   0  0  0  0  0  0  0  0  0  0  0  0
   -1.7775    1.8038    2.7740 H   0  0  0  0  0  0  0  0  0  0  0  0
   -1.7187   -1.9832   -2.2142 H   0  0  0  0  0  0  0  0  0  0  0  0
   -2.2041   -1.5410    2.0696 H   0  0  0  0  0  0  0  0  0  0  0  0
   -4.1361   -1.7186   -2.4984 H   0  0  0  0  0  0  0  0  0  0  0  0
   -4.5556   -1.2819    1.7929 H   0  0  0  0  0  0  0  0  0  0  0  0
   -5.3167    1.6101   -0.2902 H   0  0  0  0  0  0  0  0  0  0  0  0
   -5.0648    3.3666   -0.1691 H   0  0  0  0  0  0  0  0  0  0  0  0
   -7.6978   -1.0366    0.3055 H   0  0  0  0  0  0  0  0  0  0  0  0
   -6.3848   -0.2085    1.1347 H   0  0  0  0  0  0  0  0  0  0  0  0
   -6.6061   -2.0064    1.2887 H   0  0  0  0  0  0  0  0  0  0  0  0
  1 10  1  0  0  0  0
  1 11  1  0  0  0  0
  2 12  1  0  0  0  0
  2 46  1  0  0  0  0
  3  9  1  0  0  0  0
  3 20  1  0  0  0  0
  4 19  2  0  0  0  0
  5 25  1  0  0  0  0
  5 32  1  0  0  0  0
  6 26  1  0  0  0  0
  6 32  1  0  0  0  0
  7 33  1  0  0  0  0
  7 34  1  0  0  0  0
  8 16  1  0  0  0  0
  8 19  1  0  0  0  0
  8 47  1  0  0  0  0
  9 17  2  0  0  0  0
 10 12  1  0  0  0  0
 10 16  1  0  0  0  0
 10 35  1  0  0  0  0
 11 13  1  0  0  0  0
 11 15  1  0  0  0  0
 11 36  1  0  0  0  0
 12 14  1  0  0  0  0
 12 37  1  0  0  0  0
 13 14  1  0  0  0  0
 13 38  1  0  0  0  0
 13 39  1  0  0  0  0
 14 40  1  0  0  0  0
 14 41  1  0  0  0  0
 15 17  1  0  0  0  0
 15 42  1  0  0  0  0
 15 43  1  0  0  0  0
 16 44  1  0  0  0  0
 16 45  1  0  0  0  0
 17 18  1  0  0  0  0
 18 20  2  0  0  0  0
 18 48  1  0  0  0  0
 19 21  1  0  0  0  0
 20 22  1  0  0  0  0
 21 23  2  0  0  0  0
 21 24  1  0  0  0  0
 22 27  2  0  0  0  0
 22 28  1  0  0  0  0
 23 25  1  0  0  0  0
 23 49  1  0  0  0  0
 24 29  2  0  0  0  0
 24 50  1  0  0  0  0
 25 26  2  0  0  0  0
 26 29  1  0  0  0  0
 27 30  1  0  0  0  0
 27 52  1  0  0  0  0
 28 31  2  0  0  0  0
 28 53  1  0  0  0  0
 29 51  1  0  0  0  0
 30 33  2  0  0  0  0
 30 54  1  0  0  0  0
 31 33  1  0  0  0  0
 31 55  1  0  0  0  0
 32 56  1  0  0  0  0
 32 57  1  0  0  0  0
 34 58  1  0  0  0  0
 34 59  1  0  0  0  0
 34 60  1  0  0  0  0
M  END
> <PUBCHEM_COMPOUND_CID>
75536392

> <PUBCHEM_CONFORMER_RMSD>
1.2

> <PUBCHEM_CONFORMER_DIVERSEORDER>
1
20
116
174
89
41
52
102
77
53
124
123
168
75
147
141
6
68
49
125
148
152
175
101
80
106
181
45
61
95
133
47
58
35
161
159
160
59
96
107
86
71
135
171
14
69
73
98
100
51
3
153
25
12
64
173
62
136
30
79
164
99
111
155
16
108
122
81
27
33
42
137
146
118
46
9
38
140
23
157
112
84
178
57
151
26
54
110
139
104
87
142
165
167
150
169
56
109
93
134
83
78
115
132
105
126
15
143
179
163
177
166
40
92
144
36
119
120
50
156
117
34
28
129
55
131
63
2
103
37
113
65
24
88
13
90
19
149
170
29
74
5
128
180
130
31
94
91
85
22
43
66
154
127
18
138
44
67
4
17
21
114
97
39
145
176
121
82
172
72
158
162
60
32
8
7
11
76
10
70
48

> <PUBCHEM_MMFF94_PARTIAL_CHARGES>
42
1 -0.56
10 0.28
11 0.28
12 0.28
15 0.18
16 0.3
17 0.11
18 -0.15
19 0.54
2 -0.68
20 0.09
21 0.09
22 0.05
23 -0.15
24 -0.15
25 0.08
26 0.08
27 -0.15
28 -0.15
29 -0.15
3 -0.02
30 -0.15
31 -0.15
32 0.56
33 0.08
34 0.28
4 -0.57
46 0.4
47 0.37
48 0.15
49 0.15
5 -0.36
50 0.15
51 0.15
52 0.15
53 0.15
54 0.15
55 0.15
6 -0.36
7 -0.36
8 -0.73
9 -0.41

> <PUBCHEM_EFFECTIVE_ROTOR_COUNT>
9.8

> <PUBCHEM_PHARMACOPHORE_FEATURES>
14
1 1 acceptor
1 2 acceptor
1 2 donor
1 4 acceptor
1 5 acceptor
1 6 acceptor
1 7 acceptor
1 8 donor
1 9 acceptor
5 3 9 17 18 20 rings
5 5 6 25 26 32 rings
6 1 10 11 12 13 14 rings
6 21 23 24 25 26 29 rings
6 22 27 28 30 31 33 rings

> <PUBCHEM_HEAVY_ATOM_COUNT>
34

> <PUBCHEM_ATOM_DEF_STEREO_COUNT>
3

> <PUBCHEM_ATOM_UDEF_STEREO_COUNT>
0

> <PUBCHEM_BOND_DEF_STEREO_COUNT>
0

> <PUBCHEM_BOND_UDEF_STEREO_COUNT>
0

> <PUBCHEM_ISOTOPIC_ATOM_COUNT>
0

> <PUBCHEM_COMPONENT_COUNT>
1

> <PUBCHEM_CACTVS_TAUTO_COUNT>
2

> <PUBCHEM_CONFORMER_ID>
0480980800000001

> <PUBCHEM_MMFF94_ENERGY>
80.2321

> <PUBCHEM_FEATURE_SELFOVERLAP>
71.211

> <PUBCHEM_SHAPE_FINGERPRINT>
11479125 193 15288199703052983822
11578080 2 14188474546656683473
12107698 1 18413389838841691382
12422481 6 18194150510608532753
12467345 10 18413389821640268309
13140716 1 18192710038691697650
13402501 40 18410292531792131734
14394314 77 18343591741964007353
14464042 87 18342179994196564947
144659 39 17989210313277083421
14840074 17 18271249416778303215
15001296 14 18267017447962107722
15297060 5 17774444845922650563
15484559 13 16967709890185209765
15575132 122 18341895182030434439
15968369 153 18270401714619078785
17492 54 18047738318584008541
21236236 1 18411419505714968582
21360443 126 18042115480275351765
21623110 236 18340209592176805721
22223350 30 17837492217086070331
23227448 37 18336547097374687335
23559900 14 18343575253109869008
3052486 1 18261116262277516678
338550 245 18334864934784142172
350125 39 18411421704806899757
463206 1 18197214969584798007
469060 322 17313106332449073575
5081480 168 15841539799776861034
508706 21 18187655699507268954
59755656 215 18409448102493322511

> <PUBCHEM_SHAPE_MULTIPOLES>
648.66
13.6
3.58
1.41
7.38
0.49
0.02
-1.3
0.1
-2.14
-0.07
-0.3
0.1
-0.07

> <PUBCHEM_SHAPE_SELFOVERLAP>
1418.688

> <PUBCHEM_SHAPE_VOLUME>
352

> <PUBCHEM_COORDINATE_TYPE>
2
5
10

$$$$
