25390478
  -OEChem-12032416183D

 47 49  0     1  0  0  0  0  0999 V2000
    8.2533   -0.1185    0.2848 F   0  0  0  0  0  0  0  0  0  0  0  0
   -1.6534    0.2513   -0.9984 O   0  0  0  0  0  0  0  0  0  0  0  0
   -1.6044    3.0056    1.3062 O   0  0  0  0  0  0  0  0  0  0  0  0
   -0.3586    3.0008   -1.1466 O   0  0  0  0  0  0  0  0  0  0  0  0
   -4.7842    0.3997   -1.1743 O   0  0  0  0  0  0  0  0  0  0  0  0
   -5.5137   -0.6215    0.7786 N   0  0  0  0  0  0  0  0  0  0  0  0
    1.9768   -0.2156   -0.4768 N   0  0  0  0  0  0  0  0  0  0  0  0
   -6.8042   -1.0174    0.2921 C   0  0  0  0  0  0  0  0  0  0  0  0
   -2.3148    1.1381   -0.0788 C   0  0  2  0  0  0  0  0  0  0  0  0
   -6.9844   -2.2889   -0.4841 C   0  0  0  0  0  0  0  0  0  0  0  0
   -7.5447   -2.1709    0.9030 C   0  0  0  0  0  0  0  0  0  0  0  0
   -1.2090    1.7703    0.7491 C   0  0  1  0  0  0  0  0  0  0  0  0
   -0.1003    1.9011   -0.2745 C   0  0  1  0  0  0  0  0  0  0  0  0
   -0.2558    0.6141   -1.0771 C   0  0  1  0  0  0  0  0  0  0  0  0
   -3.3182    0.3580    0.7517 C   0  0  0  0  0  0  0  0  0  0  0  0
    0.5580   -0.5424   -0.5128 C   0  0  0  0  0  0  0  0  0  0  0  0
   -4.5983    0.0643   -0.0075 C   0  0  0  0  0  0  0  0  0  0  0  0
    2.7522   -1.3194    0.0730 C   0  0  0  0  0  0  0  0  0  0  0  0
    4.2221   -0.9986    0.1298 C   0  0  0  0  0  0  0  0  0  0  0  0
    5.0447   -1.3035   -0.9547 C   0  0  0  0  0  0  0  0  0  0  0  0
    4.7614   -0.3963    1.2665 C   0  0  0  0  0  0  0  0  0  0  0  0
    6.4065   -1.0066   -0.9025 C   0  0  0  0  0  0  0  0  0  0  0  0
    6.1233   -0.0993    1.3189 C   0  0  0  0  0  0  0  0  0  0  0  0
    6.9458   -0.4045    0.2343 C   0  0  0  0  0  0  0  0  0  0  0  0
   -7.4092   -0.1673   -0.0082 H   0  0  0  0  0  0  0  0  0  0  0  0
   -2.8284    1.9096   -0.6670 H   0  0  0  0  0  0  0  0  0  0  0  0
   -6.1260   -2.9340   -0.6265 H   0  0  0  0  0  0  0  0  0  0  0  0
   -7.6812   -2.2791   -1.3133 H   0  0  0  0  0  0  0  0  0  0  0  0
   -8.6191   -2.0831    1.0073 H   0  0  0  0  0  0  0  0  0  0  0  0
   -7.0621   -2.7375    1.6898 H   0  0  0  0  0  0  0  0  0  0  0  0
   -0.8994    1.0988    1.5590 H   0  0  0  0  0  0  0  0  0  0  0  0
    0.8793    2.0704    0.1797 H   0  0  0  0  0  0  0  0  0  0  0  0
   -0.0154    0.7611   -2.1367 H   0  0  0  0  0  0  0  0  0  0  0  0
   -2.8907   -0.5991    1.0741 H   0  0  0  0  0  0  0  0  0  0  0  0
   -3.5962    0.9333    1.6431 H   0  0  0  0  0  0  0  0  0  0  0  0
   -5.2785   -0.8545    1.7398 H   0  0  0  0  0  0  0  0  0  0  0  0
    0.3802   -1.4326   -1.1301 H   0  0  0  0  0  0  0  0  0  0  0  0
    0.1971   -0.7953    0.4923 H   0  0  0  0  0  0  0  0  0  0  0  0
   -0.8195    3.4032    1.7199 H   0  0  0  0  0  0  0  0  0  0  0  0
    0.3579    3.0249   -1.8038 H   0  0  0  0  0  0  0  0  0  0  0  0
    2.2984   -0.0051   -1.4217 H   0  0  0  0  0  0  0  0  0  0  0  0
    2.6076   -2.2284   -0.5257 H   0  0  0  0  0  0  0  0  0  0  0  0
    2.4051   -1.5618    1.0859 H   0  0  0  0  0  0  0  0  0  0  0  0
    4.6362   -1.7711   -1.8467 H   0  0  0  0  0  0  0  0  0  0  0  0
    4.1310   -0.1519    2.1173 H   0  0  0  0  0  0  0  0  0  0  0  0
    7.0471   -1.2434   -1.7467 H   0  0  0  0  0  0  0  0  0  0  0  0
    6.5436    0.3700    2.2035 H   0  0  0  0  0  0  0  0  0  0  0  0
  1 24  1  0  0  0  0
  2  9  1  0  0  0  0
  2 14  1  0  0  0  0
  3 12  1  0  0  0  0
  3 39  1  0  0  0  0
  4 13  1  0  0  0  0
  4 40  1  0  0  0  0
  5 17  2  0  0  0  0
  6  8  1  0  0  0  0
  6 17  1  0  0  0  0
  6 36  1  0  0  0  0
  7 16  1  0  0  0  0
  7 18  1  0  0  0  0
  7 41  1  0  0  0  0
  8 10  1  0  0  0  0
  8 11  1  0  0  0  0
  8 25  1  0  0  0  0
  9 12  1  0  0  0  0
  9 15  1  0  0  0  0
  9 26  1  0  0  0  0
 10 11  1  0  0  0  0
 10 27  1  0  0  0  0
 10 28  1  0  0  0  0
 11 29  1  0  0  0  0
 11 30  1  0  0  0  0
 12 13  1  0  0  0  0
 12 31  1  0  0  0  0
 13 14  1  0  0  0  0
 13 32  1  0  0  0  0
 14 16  1  0  0  0  0
 14 33  1  0  0  0  0
 15 17  1  0  0  0  0
 15 34  1  0  0  0  0
 15 35  1  0  0  0  0
 16 37  1  0  0  0  0
 16 38  1  0  0  0  0
 18 19  1  0  0  0  0
 18 42  1  0  0  0  0
 18 43  1  0  0  0  0
 19 20  2  0  0  0  0
 19 21  1  0  0  0  0
 20 22  1  0  0  0  0
 20 44  1  0  0  0  0
 21 23  2  0  0  0  0
 21 45  1  0  0  0  0
 22 24  2  0  0  0  0
 22 46  1  0  0  0  0
 23 24  1  0  0  0  0
 23 47  1  0  0  0  0
M  END
> <PUBCHEM_COMPOUND_CID>
25390478

> <PUBCHEM_CONFORMER_RMSD>
1

> <PUBCHEM_CONFORMER_DIVERSEORDER>
1
44
70
60
116
79
59
90
31
75
110
65
36
57
28
87
81
88
72
122
62
32
29
64
74
66
76
83
101
80
107
48
69
102
33
56
78
73
104
97
114
50
95
123
24
38
26
93
42
67
10
113
109
105
46
22
118
14
9
58
19
103
85
41
94
52
119
35
106
98
30
45
54
82
100
16
23
49
89
37
34
18
51
53
117
77
12
8
84
7
121
111
86
5
21
17
68
71
91
108
40
13
6
112
115
3
61
55
20
39
25
11
120
96
4
15
92
43
2
99
63
27
47

> <PUBCHEM_MMFF94_PARTIAL_CHARGES>
37
1 -0.19
10 -0.2
11 -0.2
12 0.28
13 0.28
14 0.28
15 0.06
16 0.27
17 0.57
18 0.41
19 -0.14
2 -0.56
20 -0.15
21 -0.15
22 -0.15
23 -0.15
24 0.19
25 0.1
27 0.1
28 0.1
29 0.1
3 -0.68
30 0.1
36 0.37
39 0.4
4 -0.68
40 0.4
41 0.36
44 0.15
45 0.15
46 0.15
47 0.15
5 -0.57
6 -0.58
7 -0.9
8 0.05
9 0.28

> <PUBCHEM_EFFECTIVE_ROTOR_COUNT>
9.6

> <PUBCHEM_PHARMACOPHORE_FEATURES>
11
1 2 acceptor
1 3 acceptor
1 3 donor
1 4 acceptor
1 4 donor
1 5 acceptor
1 6 donor
1 7 cation
1 7 donor
5 2 9 12 13 14 rings
6 19 20 21 22 23 24 rings

> <PUBCHEM_HEAVY_ATOM_COUNT>
24

> <PUBCHEM_ATOM_DEF_STEREO_COUNT>
4

> <PUBCHEM_ATOM_UDEF_STEREO_COUNT>
0

> <PUBCHEM_BOND_DEF_STEREO_COUNT>
0

> <PUBCHEM_BOND_UDEF_STEREO_COUNT>
0

> <PUBCHEM_ISOTOPIC_ATOM_COUNT>
0

> <PUBCHEM_COMPONENT_COUNT>
1

> <PUBCHEM_CACTVS_TAUTO_COUNT>
2

> <PUBCHEM_CONFORMER_ID>
01836D8E00000001

> <PUBCHEM_MMFF94_ENERGY>
53.252

> <PUBCHEM_FEATURE_SELFOVERLAP>
55.833

> <PUBCHEM_SHAPE_FINGERPRINT>
10 15 15410900656711588523
106641 1 17988643025211650362
11135609 99 18263086668112974927
11497681 19 18336829689418169062
11724838 91 18259705610571345302
11823591 26 9799413283139870825
12293681 160 12540691531531472509
12516196 113 18410575084958569003
12730499 353 17846780672970612814
12916748 109 18202282464696276078
12977781 61 16590580017382744761
13073987 5 17987233336295396194
13177829 20 17489587891762204715
13631057 29 18333730195902779659
13914758 101 13262390043017479238
15183329 4 12035442835527708462
15301273 46 17632864092520790703
15350500 55 11815353563823228803
15728490 51 18342455980310923846
18006028 8 18260830410207060655
18335252 114 9222958032484098251
18335252 98 18272654541642370614
18608769 82 18202279221753751302
190975 80 18272930570120326507
20028762 73 18341617035648668583
20567600 70 18409168848605768451
20621476 66 10447920672840503506
20771845 171 17751646691185446357
21360443 89 18409722989518098690
21585482 111 10230940845573159755
21637258 2 18040431110039174367
22224240 67 16917066664041235671
23559900 14 12685393867501414758
2747138 104 18272936028801993162
2838139 119 9799687083094744539
3009799 131 13551193294633829814
3383291 50 18336551611892842043
3633792 109 12468624011486518984
4015057 19 14274037531685233964
445580 204 11314297344347914495
5104073 3 18056758720315107394
559249 180 8430303641869393984
59682541 35 18342172306568972530
59682541 52 14490466491413105546
5969126 39 17095517384022713207
59755656 520 13470681534078134485
6126387 218 18202562874837530699

> <PUBCHEM_SHAPE_MULTIPOLES>
453.2
22.47
2.35
1.2
2.63
1.4
0.06
-17.03
3.89
-3.26
0.04
0.35
0.18
0.64

> <PUBCHEM_SHAPE_SELFOVERLAP>
942.005

> <PUBCHEM_SHAPE_VOLUME>
259.4

> <PUBCHEM_COORDINATE_TYPE>
2
5
10

$$$$
