45361408
  -OEChem-12032416143D

 69 72  0     1  0  0  0  0  0999 V2000
    1.5154    1.5735   -1.0039 O   0  0  0  0  0  0  0  0  0  0  0  0
    5.7988   -1.4510   -0.8176 O   0  0  0  0  0  0  0  0  0  0  0  0
   -4.4853    0.4532    2.1381 O   0  0  0  0  0  0  0  0  0  0  0  0
   -3.5337   -0.0574    0.0865 N   0  0  0  0  0  0  0  0  0  0  0  0
    5.9082    0.6588    0.1177 N   0  0  0  0  0  0  0  0  0  0  0  0
    0.3932   -1.7949    0.3997 C   0  0  1  0  0  0  0  0  0  0  0  0
    0.3165   -0.2727    0.0447 C   0  0  2  0  0  0  0  0  0  0  0  0
   -1.1169    0.1093   -0.4720 C   0  0  1  0  0  0  0  0  0  0  0  0
    1.4948    0.1508   -0.8790 C   0  0  2  0  0  0  0  0  0  0  0  0
    1.7786   -2.1132    1.0101 C   0  0  0  0  0  0  0  0  0  0  0  0
    2.8729   -0.2631   -0.3124 C   0  0  1  0  0  0  0  0  0  0  0  0
   -0.6770   -2.1180    1.4678 C   0  0  0  0  0  0  0  0  0  0  0  0
   -2.1917   -0.2888    0.5783 C   0  0  2  0  0  0  0  0  0  0  0  0
    2.9335   -1.7361    0.0918 C   0  0  0  0  0  0  0  0  0  0  0  0
   -2.0870   -1.7442    1.0332 C   0  0  0  0  0  0  0  0  0  0  0  0
    0.1724   -2.7048   -0.8352 C   0  0  0  0  0  0  0  0  0  0  0  0
    4.0085    0.0454   -1.2960 C   0  0  2  0  0  0  0  0  0  0  0  0
   -1.2714    1.6011   -0.8131 C   0  0  0  0  0  0  0  0  0  0  0  0
    3.8302   -0.7184   -2.5955 C   0  0  0  0  0  0  0  0  0  0  0  0
    5.3192   -0.3283   -0.6513 C   0  0  0  0  0  0  0  0  0  0  0  0
   -4.5777    0.2985    0.9231 C   0  0  0  0  0  0  0  0  0  0  0  0
    7.1712    0.4532    0.8115 C   0  0  0  0  0  0  0  0  0  0  0  0
    5.3957    2.0054    0.3509 C   0  0  0  0  0  0  0  0  0  0  0  0
    7.6001    1.8475    1.2418 C   0  0  0  0  0  0  0  0  0  0  0  0
    6.2705    2.5558    1.4683 C   0  0  0  0  0  0  0  0  0  0  0  0
   -5.8992    0.4737    0.2676 C   0  0  0  0  0  0  0  0  0  0  0  0
   -7.0717    0.2737    0.9962 C   0  0  0  0  0  0  0  0  0  0  0  0
   -5.9673    0.8398   -1.0765 C   0  0  0  0  0  0  0  0  0  0  0  0
   -8.3124    0.4397    0.3808 C   0  0  0  0  0  0  0  0  0  0  0  0
   -7.2079    1.0058   -1.6921 C   0  0  0  0  0  0  0  0  0  0  0  0
   -8.3805    0.8057   -0.9636 C   0  0  0  0  0  0  0  0  0  0  0  0
    0.4487    0.2911    0.9822 H   0  0  0  0  0  0  0  0  0  0  0  0
   -1.3162   -0.4384   -1.4018 H   0  0  0  0  0  0  0  0  0  0  0  0
    1.3123   -0.2599   -1.8741 H   0  0  0  0  0  0  0  0  0  0  0  0
    1.8964   -1.5729    1.9592 H   0  0  0  0  0  0  0  0  0  0  0  0
    1.8492   -3.1807    1.2561 H   0  0  0  0  0  0  0  0  0  0  0  0
    3.0365    0.3183    0.6042 H   0  0  0  0  0  0  0  0  0  0  0  0
   -0.6518   -3.1857    1.7205 H   0  0  0  0  0  0  0  0  0  0  0  0
   -0.4465   -1.5780    2.3961 H   0  0  0  0  0  0  0  0  0  0  0  0
   -2.0482    0.3467    1.4633 H   0  0  0  0  0  0  0  0  0  0  0  0
    2.9260   -2.4141   -0.7639 H   0  0  0  0  0  0  0  0  0  0  0  0
    3.8520   -1.9506    0.6494 H   0  0  0  0  0  0  0  0  0  0  0  0
   -2.7733   -1.9219    1.8713 H   0  0  0  0  0  0  0  0  0  0  0  0
   -2.4254   -2.4155    0.2344 H   0  0  0  0  0  0  0  0  0  0  0  0
   -0.8216   -2.5900   -1.2749 H   0  0  0  0  0  0  0  0  0  0  0  0
    0.2787   -3.7606   -0.5595 H   0  0  0  0  0  0  0  0  0  0  0  0
    0.8898   -2.5049   -1.6360 H   0  0  0  0  0  0  0  0  0  0  0  0
    4.0118    1.1089   -1.5552 H   0  0  0  0  0  0  0  0  0  0  0  0
   -0.7141    1.8590   -1.7180 H   0  0  0  0  0  0  0  0  0  0  0  0
   -2.3119    1.8663   -1.0265 H   0  0  0  0  0  0  0  0  0  0  0  0
   -0.9305    2.2350    0.0120 H   0  0  0  0  0  0  0  0  0  0  0  0
   -3.7087   -0.2794   -0.8879 H   0  0  0  0  0  0  0  0  0  0  0  0
    1.6345    1.9531   -0.1166 H   0  0  0  0  0  0  0  0  0  0  0  0
    3.8078   -1.8055   -2.4884 H   0  0  0  0  0  0  0  0  0  0  0  0
    4.6807   -0.5080   -3.2573 H   0  0  0  0  0  0  0  0  0  0  0  0
    2.9412   -0.4061   -3.1493 H   0  0  0  0  0  0  0  0  0  0  0  0
    7.8990   -0.0395    0.1601 H   0  0  0  0  0  0  0  0  0  0  0  0
    6.9748   -0.1921    1.6748 H   0  0  0  0  0  0  0  0  0  0  0  0
    5.5335    2.5789   -0.5724 H   0  0  0  0  0  0  0  0  0  0  0  0
    4.3387    2.0113    0.6196 H   0  0  0  0  0  0  0  0  0  0  0  0
    8.1482    2.3399    0.4295 H   0  0  0  0  0  0  0  0  0  0  0  0
    8.2373    1.8376    2.1301 H   0  0  0  0  0  0  0  0  0  0  0  0
    5.8596    2.2675    2.4434 H   0  0  0  0  0  0  0  0  0  0  0  0
    6.3553    3.6455    1.4396 H   0  0  0  0  0  0  0  0  0  0  0  0
   -7.0395   -0.0159    2.0433 H   0  0  0  0  0  0  0  0  0  0  0  0
   -5.0800    1.0358   -1.6712 H   0  0  0  0  0  0  0  0  0  0  0  0
   -9.2254    0.2834    0.9478 H   0  0  0  0  0  0  0  0  0  0  0  0
   -7.2616    1.2979   -2.7369 H   0  0  0  0  0  0  0  0  0  0  0  0
   -9.3464    0.9365   -1.4425 H   0  0  0  0  0  0  0  0  0  0  0  0
  1  9  1  0  0  0  0
  1 53  1  0  0  0  0
  2 20  2  0  0  0  0
  3 21  2  0  0  0  0
  4 13  1  0  0  0  0
  4 21  1  0  0  0  0
  4 52  1  0  0  0  0
  5 20  1  0  0  0  0
  5 22  1  0  0  0  0
  5 23  1  0  0  0  0
  6  7  1  0  0  0  0
  6 10  1  0  0  0  0
  6 12  1  0  0  0  0
  6 16  1  0  0  0  0
  7  8  1  0  0  0  0
  7  9  1  0  0  0  0
  7 32  1  0  0  0  0
  8 13  1  0  0  0  0
  8 18  1  0  0  0  0
  8 33  1  0  0  0  0
  9 11  1  0  0  0  0
  9 34  1  0  0  0  0
 10 14  1  0  0  0  0
 10 35  1  0  0  0  0
 10 36  1  0  0  0  0
 11 14  1  0  0  0  0
 11 17  1  0  0  0  0
 11 37  1  0  0  0  0
 12 15  1  0  0  0  0
 12 38  1  0  0  0  0
 12 39  1  0  0  0  0
 13 15  1  0  0  0  0
 13 40  1  0  0  0  0
 14 41  1  0  0  0  0
 14 42  1  0  0  0  0
 15 43  1  0  0  0  0
 15 44  1  0  0  0  0
 16 45  1  0  0  0  0
 16 46  1  0  0  0  0
 16 47  1  0  0  0  0
 17 19  1  0  0  0  0
 17 20  1  0  0  0  0
 17 48  1  0  0  0  0
 18 49  1  0  0  0  0
 18 50  1  0  0  0  0
 18 51  1  0  0  0  0
 19 54  1  0  0  0  0
 19 55  1  0  0  0  0
 19 56  1  0  0  0  0
 21 26  1  0  0  0  0
 22 24  1  0  0  0  0
 22 57  1  0  0  0  0
 22 58  1  0  0  0  0
 23 25  1  0  0  0  0
 23 59  1  0  0  0  0
 23 60  1  0  0  0  0
 24 25  1  0  0  0  0
 24 61  1  0  0  0  0
 24 62  1  0  0  0  0
 25 63  1  0  0  0  0
 25 64  1  0  0  0  0
 26 27  2  0  0  0  0
 26 28  1  0  0  0  0
 27 29  1  0  0  0  0
 27 65  1  0  0  0  0
 28 30  2  0  0  0  0
 28 66  1  0  0  0  0
 29 31  2  0  0  0  0
 29 67  1  0  0  0  0
 30 31  1  0  0  0  0
 30 68  1  0  0  0  0
 31 69  1  0  0  0  0
M  END
> <PUBCHEM_COMPOUND_CID>
45361408

> <PUBCHEM_CONFORMER_RMSD>
1

> <PUBCHEM_CONFORMER_DIVERSEORDER>
1
7
32
20
34
16
15
27
24
11
30
31
26
33
18
23
29
10
17
14
22
6
28
25
21
8
5
4
19
2
13
3
12
9

> <PUBCHEM_MMFF94_PARTIAL_CHARGES>
25
1 -0.68
13 0.3
17 0.06
2 -0.57
20 0.57
21 0.54
22 0.3
23 0.3
26 0.09
27 -0.15
28 -0.15
29 -0.15
3 -0.57
30 -0.15
31 -0.15
4 -0.73
5 -0.66
52 0.37
53 0.4
65 0.15
66 0.15
67 0.15
68 0.15
69 0.15
9 0.28

> <PUBCHEM_EFFECTIVE_ROTOR_COUNT>
8.6

> <PUBCHEM_PHARMACOPHORE_FEATURES>
10
1 1 acceptor
1 1 donor
1 19 hydrophobe
1 2 acceptor
1 3 acceptor
1 4 donor
5 5 22 23 24 25 rings
6 26 27 28 29 30 31 rings
6 6 7 8 12 13 15 rings
6 6 7 9 10 11 14 rings

> <PUBCHEM_HEAVY_ATOM_COUNT>
31

> <PUBCHEM_ATOM_DEF_STEREO_COUNT>
6

> <PUBCHEM_ATOM_UDEF_STEREO_COUNT>
1

> <PUBCHEM_BOND_DEF_STEREO_COUNT>
0

> <PUBCHEM_BOND_UDEF_STEREO_COUNT>
0

> <PUBCHEM_ISOTOPIC_ATOM_COUNT>
0

> <PUBCHEM_COMPONENT_COUNT>
1

> <PUBCHEM_CACTVS_TAUTO_COUNT>
2

> <PUBCHEM_CONFORMER_ID>
02B4290000000001

> <PUBCHEM_MMFF94_ENERGY>
94.9523

> <PUBCHEM_FEATURE_SELFOVERLAP>
50.761

> <PUBCHEM_SHAPE_FINGERPRINT>
10 15 17603587460869795684
10006869 2 18261380110492426626
10533779 1 17487041513897898496
11136131 41 17314217870592278035
11719270 70 17603307029074370050
12166972 35 14979953666668199571
12592606 108 8358250441888815841
12838862 33 18187070767995778525
12925494 130 17985259931598249064
13150687 139 18060427910913263478
13383668 254 17846232076966012185
13673619 4 10807934856097899971
13782708 43 13973676184253075845
15183329 4 16370730301335224285
15238133 3 17530972418773568654
15289351 153 18263915567089370272
15419008 145 15864339221150460348
16994733 274 17346601850546094441
20157964 124 17917997170376856438
20511986 3 18334288777806571315
20554085 129 18261384563998862762
21033648 29 17676207970390428755
21150785 3 16487254378666662393
21403212 168 18260823808931971840
21521721 280 18201720656365515563
21792934 111 17822282445047300722
21859007 373 17821998805149299221
22224240 67 18408039619787755691
23522609 53 15697182697926657131
23559900 14 18343018939196924537
24771293 8 18412830191739505205
335352 9 18113628871728568390
34797466 226 17632303349695243565
397638 26 17748826332395883009
4093350 32 17775288248666312180
4258327 124 17203046408314999620
4340502 62 17967814942308562130
445580 167 17418091023053404793
44880568 143 17346049852997258521
5104073 3 17968939656567061344
6004065 56 18130787910104937017
6201320 215 13262939782612088703

> <PUBCHEM_SHAPE_MULTIPOLES>
610.4
23.54
2.28
1.68
19.9
0.57
-0.33
-14.99
1.57
-3.03
0.51
-0.23
-0.04
2.58

> <PUBCHEM_SHAPE_SELFOVERLAP>
1287.49

> <PUBCHEM_SHAPE_VOLUME>
340

> <PUBCHEM_COORDINATE_TYPE>
2
5
10

$$$$
