75537130
  -OEChem-12032416313D

 47 50  0     1  0  0  0  0  0999 V2000
    2.3334    2.7311   -0.0673 O   0  0  0  0  0  0  0  0  0  0  0  0
    2.1720    0.3801   -0.1694 N   0  0  0  0  0  0  0  0  0  0  0  0
    0.2864    1.5962   -0.2695 N   0  0  0  0  0  0  0  0  0  0  0  0
   -2.4068    0.9363    0.2018 N   0  0  2  0  0  0  0  0  0  0  0  0
   -5.2057   -0.2528   -0.7145 N   0  0  0  0  0  0  0  0  0  0  0  0
   -4.4508   -1.7488    0.7429 N   0  0  0  0  0  0  0  0  0  0  0  0
   -0.1497    0.2318   -0.4815 C   0  0  1  0  0  0  0  0  0  0  0  0
    3.5551   -0.0054   -0.0264 C   0  0  0  0  0  0  0  0  0  0  0  0
    1.0975   -0.5979   -0.1833 C   0  0  0  0  0  0  0  0  0  0  0  0
   -1.3572   -0.0838    0.4005 C   0  0  0  0  0  0  0  0  0  0  0  0
    4.0417   -0.7335   -1.2816 C   0  0  0  0  0  0  0  0  0  0  0  0
    3.7520   -0.8628    1.2266 C   0  0  0  0  0  0  0  0  0  0  0  0
    1.6797    1.7007   -0.1613 C   0  0  0  0  0  0  0  0  0  0  0  0
   -0.6907    2.6646   -0.2946 C   0  0  0  0  0  0  0  0  0  0  0  0
   -1.9070    2.2812    0.5520 C   0  0  0  0  0  0  0  0  0  0  0  0
    5.4880   -1.1997   -1.1368 C   0  0  0  0  0  0  0  0  0  0  0  0
    5.1992   -1.3272    1.3681 C   0  0  0  0  0  0  0  0  0  0  0  0
    5.6827   -2.0510    0.1147 C   0  0  0  0  0  0  0  0  0  0  0  0
   -3.5908    0.6100    0.9962 C   0  0  0  0  0  0  0  0  0  0  0  0
   -4.4029   -0.4902    0.3663 C   0  0  0  0  0  0  0  0  0  0  0  0
   -5.8037   -1.4353   -1.0483 C   0  0  0  0  0  0  0  0  0  0  0  0
   -5.3224   -2.3434   -0.1349 C   0  0  0  0  0  0  0  0  0  0  0  0
   -0.4158    0.1423   -1.5430 H   0  0  0  0  0  0  0  0  0  0  0  0
    4.1474    0.9118    0.0868 H   0  0  0  0  0  0  0  0  0  0  0  0
    1.0353   -1.0743    0.7998 H   0  0  0  0  0  0  0  0  0  0  0  0
    1.2639   -1.3588   -0.9500 H   0  0  0  0  0  0  0  0  0  0  0  0
   -1.7225   -1.0820    0.1328 H   0  0  0  0  0  0  0  0  0  0  0  0
   -1.0579   -0.1155    1.4572 H   0  0  0  0  0  0  0  0  0  0  0  0
    3.9542   -0.0752   -2.1547 H   0  0  0  0  0  0  0  0  0  0  0  0
    3.4158   -1.6094   -1.4907 H   0  0  0  0  0  0  0  0  0  0  0  0
    3.4567   -0.2990    2.1198 H   0  0  0  0  0  0  0  0  0  0  0  0
    3.1149   -1.7551    1.1940 H   0  0  0  0  0  0  0  0  0  0  0  0
   -0.9813    2.8149   -1.3407 H   0  0  0  0  0  0  0  0  0  0  0  0
   -0.2316    3.5903    0.0663 H   0  0  0  0  0  0  0  0  0  0  0  0
   -1.6363    2.3169    1.6158 H   0  0  0  0  0  0  0  0  0  0  0  0
   -2.6887    3.0321    0.3857 H   0  0  0  0  0  0  0  0  0  0  0  0
    6.1494   -0.3257   -1.0899 H   0  0  0  0  0  0  0  0  0  0  0  0
    5.7811   -1.7741   -2.0228 H   0  0  0  0  0  0  0  0  0  0  0  0
    5.2909   -1.9908    2.2355 H   0  0  0  0  0  0  0  0  0  0  0  0
    5.8430   -0.4601    1.5602 H   0  0  0  0  0  0  0  0  0  0  0  0
    6.7420   -2.3095    0.2237 H   0  0  0  0  0  0  0  0  0  0  0  0
    5.1332   -2.9938    0.0033 H   0  0  0  0  0  0  0  0  0  0  0  0
   -4.2518    1.4846    1.0697 H   0  0  0  0  0  0  0  0  0  0  0  0
   -3.3287    0.3383    2.0269 H   0  0  0  0  0  0  0  0  0  0  0  0
   -5.3341    0.6342   -1.1831 H   0  0  0  0  0  0  0  0  0  0  0  0
   -6.4923   -1.5180   -1.8765 H   0  0  0  0  0  0  0  0  0  0  0  0
   -5.5589   -3.3950   -0.0648 H   0  0  0  0  0  0  0  0  0  0  0  0
  1 13  2  0  0  0  0
  2  8  1  0  0  0  0
  2  9  1  0  0  0  0
  2 13  1  0  0  0  0
  3  7  1  0  0  0  0
  3 13  1  0  0  0  0
  3 14  1  0  0  0  0
  4 10  1  0  0  0  0
  4 15  1  0  0  0  0
  4 19  1  0  0  0  0
  5 20  1  0  0  0  0
  5 21  1  0  0  0  0
  5 45  1  0  0  0  0
  6 20  2  0  0  0  0
  6 22  1  0  0  0  0
  7  9  1  0  0  0  0
  7 10  1  0  0  0  0
  7 23  1  0  0  0  0
  8 11  1  0  0  0  0
  8 12  1  0  0  0  0
  8 24  1  0  0  0  0
  9 25  1  0  0  0  0
  9 26  1  0  0  0  0
 10 27  1  0  0  0  0
 10 28  1  0  0  0  0
 11 16  1  0  0  0  0
 11 29  1  0  0  0  0
 11 30  1  0  0  0  0
 12 17  1  0  0  0  0
 12 31  1  0  0  0  0
 12 32  1  0  0  0  0
 14 15  1  0  0  0  0
 14 33  1  0  0  0  0
 14 34  1  0  0  0  0
 15 35  1  0  0  0  0
 15 36  1  0  0  0  0
 16 18  1  0  0  0  0
 16 37  1  0  0  0  0
 16 38  1  0  0  0  0
 17 18  1  0  0  0  0
 17 39  1  0  0  0  0
 17 40  1  0  0  0  0
 18 41  1  0  0  0  0
 18 42  1  0  0  0  0
 19 20  1  0  0  0  0
 19 43  1  0  0  0  0
 19 44  1  0  0  0  0
 21 22  2  0  0  0  0
 21 46  1  0  0  0  0
 22 47  1  0  0  0  0
M  END
> <PUBCHEM_COMPOUND_CID>
75537130

> <PUBCHEM_CONFORMER_RMSD>
0.8

> <PUBCHEM_CONFORMER_DIVERSEORDER>
1
10
18
24
25
15
22
13
30
32
33
34
7
20
27
11
19
6
23
35
21
14
31
4
5
26
29
28
2
12
8
16
17
3
9

> <PUBCHEM_MMFF94_PARTIAL_CHARGES>
20
1 -0.57
10 0.27
13 0.69
14 0.3
15 0.27
19 0.45
2 -0.66
20 0.01
21 -0.3
22 0.08
3 -0.66
4 -0.81
45 0.27
46 0.15
47 0.15
5 0.03
6 -0.57
7 0.3
8 0.3
9 0.3

> <PUBCHEM_EFFECTIVE_ROTOR_COUNT>
5.4

> <PUBCHEM_PHARMACOPHORE_FEATURES>
8
1 1 acceptor
1 4 cation
1 5 donor
3 5 6 20 cation
5 2 3 7 9 13 rings
5 5 6 20 21 22 rings
6 3 4 7 10 14 15 rings
6 8 11 12 16 17 18 rings

> <PUBCHEM_HEAVY_ATOM_COUNT>
22

> <PUBCHEM_ATOM_DEF_STEREO_COUNT>
1

> <PUBCHEM_ATOM_UDEF_STEREO_COUNT>
0

> <PUBCHEM_BOND_DEF_STEREO_COUNT>
0

> <PUBCHEM_BOND_UDEF_STEREO_COUNT>
0

> <PUBCHEM_ISOTOPIC_ATOM_COUNT>
0

> <PUBCHEM_COMPONENT_COUNT>
1

> <PUBCHEM_CACTVS_TAUTO_COUNT>
1

> <PUBCHEM_CONFORMER_ID>
04809AEA00000001

> <PUBCHEM_MMFF94_ENERGY>
31.0612

> <PUBCHEM_FEATURE_SELFOVERLAP>
40.694

> <PUBCHEM_SHAPE_FINGERPRINT>
10 15 11959730495410538391
10378564 45 12468630604746608962
10753850 27 18408320008448924915
11069576 57 16951393335466931202
11545043 162 17703507692750780562
12166972 35 17895197757350780535
12293681 160 12251900382331219293
12403259 226 18410570686633282029
12422481 6 17275389797997991711
12596602 18 17632294554051063058
12616971 3 18342188786490297521
12839892 36 18060417997654048815
12892183 10 16486979436329869304
12916754 54 18341618126691206681
13533116 47 18341330105846551576
13540713 5 18267606700491292441
13583140 156 15482110453747551489
13782708 43 17775006722540877982
13862211 1 18409729543274019782
13885169 86 10087627247784383275
14123256 34 18411146839305270978
14251764 30 18200599069302449582
14848178 5 18342453759796669563
15183329 4 15213012726638603611
15188451 53 17917986179313075999
15880784 105 18131355210622391698
17349148 13 18272662272103221563
17857418 61 18334856104072873026
18222031 100 18410855460428835664
18785283 64 17273961601556164136
18927931 339 18412271610278968223
193927 3 18342184375042010447
200 152 18411135862069956193
20028762 73 18201998849882503583
20621476 66 9943515332953252058
20645477 70 18336828705252797581
21033648 29 16916207863660021666
21267235 1 18410865373603952883
22224240 67 10952051170029537741
22393880 68 17968364732962164955
23402539 116 18411418384760152773
23402655 69 11169912801012048744
23522609 53 18048916006442504996
23559900 14 18262234538222146777
23622692 118 18410573976625346277
25147074 1 18337128798881828389
2838139 119 10665230388489545482
2916195 48 10665234769303459639
3004659 81 18260546749239676479
312423 11 18339936981638430657
312425 54 17417822686197276843
314194 84 18187655673843194354
465052 167 18412831304278109190
5104073 3 18200883967183271817
559249 180 18412262810275782235
59682541 52 14346062097699195786
6034566 193 10447347908517578170
76465 3 18408602560934925593
7970288 3 18410008802132430498
8863177 126 17824838964581180427
960060 61 17022620883802888474

> <PUBCHEM_SHAPE_MULTIPOLES>
421.98
14.45
2.68
1.1
2.48
1.21
-0.05
-13.03
0.76
0.9
0.04
-0.69
-0.34
-0.7

> <PUBCHEM_SHAPE_SELFOVERLAP>
891.445

> <PUBCHEM_SHAPE_VOLUME>
235.1

> <PUBCHEM_COORDINATE_TYPE>
2
5
10

$$$$
