25338259
  -OEChem-12032416403D

 47 50  0     1  0  0  0  0  0999 V2000
   -7.3775    0.3762   -0.2889 F   0  0  0  0  0  0  0  0  0  0  0  0
    2.9535   -0.7369    1.6195 O   0  0  0  0  0  0  0  0  0  0  0  0
    4.4787   -1.6570    0.1335 O   0  0  0  0  0  0  0  0  0  0  0  0
    2.6809   -1.4990   -2.1124 O   0  0  0  0  0  0  0  0  0  0  0  0
   -1.2638   -1.6491   -1.0753 O   0  0  0  0  0  0  0  0  0  0  0  0
    2.6151    1.5267   -0.1067 N   0  0  0  0  0  0  0  0  0  0  0  0
    0.2457   -0.8619    0.4880 N   0  0  0  0  0  0  0  0  0  0  0  0
   -1.9477   -0.2192    0.6561 N   0  0  0  0  0  0  0  0  0  0  0  0
    3.1896    0.2686   -0.5596 C   0  0  2  0  0  0  0  0  0  0  0  0
    2.0822   -0.6492   -1.1250 C   0  0  2  0  0  0  0  0  0  0  0  0
    1.4086   -1.5329   -0.0520 C   0  0  1  0  0  0  0  0  0  0  0  0
    3.9194   -0.4209    0.6078 C   0  0  1  0  0  0  0  0  0  0  0  0
    2.3620   -1.9294    1.0941 C   0  0  1  0  0  0  0  0  0  0  0  0
    3.6023   -2.6755    0.6395 C   0  0  0  0  0  0  0  0  0  0  0  0
    3.6246    2.4432    0.4228 C   0  0  0  0  0  0  0  0  0  0  0  0
    1.9628    2.2640   -1.1882 C   0  0  0  0  0  0  0  0  0  0  0  0
    2.8910    3.7758    0.4575 C   0  0  0  0  0  0  0  0  0  0  0  0
    1.7967    3.6569   -0.5987 C   0  0  0  0  0  0  0  0  0  0  0  0
   -1.0272   -0.9737   -0.0765 C   0  0  0  0  0  0  0  0  0  0  0  0
   -3.3332   -0.0674    0.4151 C   0  0  0  0  0  0  0  0  0  0  0  0
   -4.1041    0.7337    1.2575 C   0  0  0  0  0  0  0  0  0  0  0  0
   -3.9287   -0.7187   -0.6652 C   0  0  0  0  0  0  0  0  0  0  0  0
   -5.4703    0.8832    1.0200 C   0  0  0  0  0  0  0  0  0  0  0  0
   -5.2949   -0.5692   -0.9027 C   0  0  0  0  0  0  0  0  0  0  0  0
   -6.0657    0.2317   -0.0601 C   0  0  0  0  0  0  0  0  0  0  0  0
    3.9274    0.4471   -1.3556 H   0  0  0  0  0  0  0  0  0  0  0  0
    1.3229   -0.1063   -1.6911 H   0  0  0  0  0  0  0  0  0  0  0  0
    1.0561   -2.4608   -0.5206 H   0  0  0  0  0  0  0  0  0  0  0  0
    4.7320    0.1716    1.0360 H   0  0  0  0  0  0  0  0  0  0  0  0
    1.8267   -2.4650    1.8850 H   0  0  0  0  0  0  0  0  0  0  0  0
    4.1115   -3.1429    1.4893 H   0  0  0  0  0  0  0  0  0  0  0  0
    3.4128   -3.4356   -0.1231 H   0  0  0  0  0  0  0  0  0  0  0  0
    4.4985    2.5189   -0.2370 H   0  0  0  0  0  0  0  0  0  0  0  0
    3.9609    2.1800    1.4302 H   0  0  0  0  0  0  0  0  0  0  0  0
    0.9772    1.8756   -1.4588 H   0  0  0  0  0  0  0  0  0  0  0  0
    2.5875    2.3136   -2.0891 H   0  0  0  0  0  0  0  0  0  0  0  0
    3.5668    4.6113    0.2482 H   0  0  0  0  0  0  0  0  0  0  0  0
    2.4386    3.9475    1.4414 H   0  0  0  0  0  0  0  0  0  0  0  0
    0.8133    3.7667   -0.1261 H   0  0  0  0  0  0  0  0  0  0  0  0
    1.8888    4.4316   -1.3666 H   0  0  0  0  0  0  0  0  0  0  0  0
    0.3773   -0.2213    1.2649 H   0  0  0  0  0  0  0  0  0  0  0  0
    1.9742   -2.0408   -2.5031 H   0  0  0  0  0  0  0  0  0  0  0  0
   -1.5863    0.2849    1.4619 H   0  0  0  0  0  0  0  0  0  0  0  0
   -3.6525    1.2470    2.1027 H   0  0  0  0  0  0  0  0  0  0  0  0
   -3.3994   -1.3545   -1.3607 H   0  0  0  0  0  0  0  0  0  0  0  0
   -6.0709    1.5069    1.6755 H   0  0  0  0  0  0  0  0  0  0  0  0
   -5.7602   -1.0756   -1.7435 H   0  0  0  0  0  0  0  0  0  0  0  0
  1 25  1  0  0  0  0
  2 12  1  0  0  0  0
  2 13  1  0  0  0  0
  3 12  1  0  0  0  0
  3 14  1  0  0  0  0
  4 10  1  0  0  0  0
  4 42  1  0  0  0  0
  5 19  2  0  0  0  0
  6  9  1  0  0  0  0
  6 15  1  0  0  0  0
  6 16  1  0  0  0  0
  7 11  1  0  0  0  0
  7 19  1  0  0  0  0
  7 41  1  0  0  0  0
  8 19  1  0  0  0  0
  8 20  1  0  0  0  0
  8 43  1  0  0  0  0
  9 10  1  0  0  0  0
  9 12  1  0  0  0  0
  9 26  1  0  0  0  0
 10 11  1  0  0  0  0
 10 27  1  0  0  0  0
 11 13  1  0  0  0  0
 11 28  1  0  0  0  0
 12 29  1  0  0  0  0
 13 14  1  0  0  0  0
 13 30  1  0  0  0  0
 14 31  1  0  0  0  0
 14 32  1  0  0  0  0
 15 17  1  0  0  0  0
 15 33  1  0  0  0  0
 15 34  1  0  0  0  0
 16 18  1  0  0  0  0
 16 35  1  0  0  0  0
 16 36  1  0  0  0  0
 17 18  1  0  0  0  0
 17 37  1  0  0  0  0
 17 38  1  0  0  0  0
 18 39  1  0  0  0  0
 18 40  1  0  0  0  0
 20 21  2  0  0  0  0
 20 22  1  0  0  0  0
 21 23  1  0  0  0  0
 21 44  1  0  0  0  0
 22 24  2  0  0  0  0
 22 45  1  0  0  0  0
 23 25  2  0  0  0  0
 23 46  1  0  0  0  0
 24 25  1  0  0  0  0
 24 47  1  0  0  0  0
M  END
> <PUBCHEM_COMPOUND_CID>
25338259

> <PUBCHEM_CONFORMER_RMSD>
0.8

> <PUBCHEM_CONFORMER_DIVERSEORDER>
1
17
11
13
9
6
10
15
8
14
18
19
12
16
3
7
5
2
4

> <PUBCHEM_MMFF94_PARTIAL_CHARGES>
30
1 -0.19
10 0.28
11 0.3
12 0.56
13 0.28
14 0.28
15 0.27
16 0.27
19 0.69
2 -0.56
20 0.12
21 -0.15
22 -0.15
23 -0.15
24 -0.15
25 0.19
3 -0.56
4 -0.68
41 0.37
42 0.4
43 0.37
44 0.15
45 0.15
46 0.15
47 0.15
5 -0.57
6 -0.81
7 -0.73
8 -0.55
9 0.27

> <PUBCHEM_EFFECTIVE_ROTOR_COUNT>
7.2

> <PUBCHEM_PHARMACOPHORE_FEATURES>
11
1 2 acceptor
1 3 acceptor
1 4 acceptor
1 4 donor
1 5 acceptor
1 6 cation
1 7 donor
1 8 donor
5 6 15 16 17 18 rings
6 20 21 22 23 24 25 rings
8 2 3 9 10 11 12 13 14 rings

> <PUBCHEM_HEAVY_ATOM_COUNT>
25

> <PUBCHEM_ATOM_DEF_STEREO_COUNT>
5

> <PUBCHEM_ATOM_UDEF_STEREO_COUNT>
0

> <PUBCHEM_BOND_DEF_STEREO_COUNT>
0

> <PUBCHEM_BOND_UDEF_STEREO_COUNT>
0

> <PUBCHEM_ISOTOPIC_ATOM_COUNT>
0

> <PUBCHEM_COMPONENT_COUNT>
1

> <PUBCHEM_CACTVS_TAUTO_COUNT>
3

> <PUBCHEM_CONFORMER_ID>
0182A19300000001

> <PUBCHEM_MMFF94_ENERGY>
66.3927

> <PUBCHEM_FEATURE_SELFOVERLAP>
55.923

> <PUBCHEM_SHAPE_FINGERPRINT>
10688039 33 17749387010259253420
10937287 8 17760369190159152140
11045977 3 17822018609828589091
12166972 35 18201156559650421963
12236239 1 18272365356935541483
12616971 3 18342455937814457199
12633257 1 17751337681710678584
13533116 47 17968093080349015291
13583140 156 18114186362757522339
13590594 115 18263928748191254432
13617811 41 16487257682388355441
13878862 14 18115849902470249061
14251764 75 18050014586173095465
14849402 71 18334577996983713328
15420108 30 18053928818240704402
15848702 68 18335703870898881316
17844677 252 18409736145255464793
17980427 23 17915434255953931470
18681886 176 18131067147540765018
20157964 124 18409447016531104813
20511986 3 18059280084834448701
20554085 129 15791995781072228649
20715895 44 18198904717578608025
21033648 144 18262229027884400007
21033648 29 17095511899586774645
21285901 2 13542468648371524883
21304303 94 9150889555294493888
21344244 78 18192129539448872410
21503847 285 18411423907919394370
21860390 5 18341058483788490932
22122407 14 18337401435786255937
235170 7 13326579527610194937
23559900 14 18409730659928775731
3004659 81 18060422395805554299
345986 75 17679567949134156834
34797466 226 14620789440633371603
397830 11 17968388956946655523
4409770 3 15749258510454766263
474 4 18264204888565057464
495365 180 17967250918381189195
5104073 3 18260831544527008827
513532 50 17846509157622089652
5895379 119 17416988156629130368
67856867 119 18341889731911789625
9777508 108 17605849237344241546
9971528 1 18271528598337280246
9981440 41 17761487389278797944

> <PUBCHEM_SHAPE_MULTIPOLES>
468.79
13.25
3.4
1.3
26.55
3.3
0.19
1.16
-0.9
-6.24
-0.06
-0.29
-0.25
-0.93

> <PUBCHEM_SHAPE_SELFOVERLAP>
1008.971

> <PUBCHEM_SHAPE_VOLUME>
257.5

> <PUBCHEM_COORDINATE_TYPE>
2
5
10

$$$$
