40777150
  -OEChem-12032416183D

 62 65  0     1  0  0  0  0  0999 V2000
   -7.3124    0.9287   -1.7695 S   0  0  0  0  0  0  0  0  0  0  0  0
    8.2501    2.1505   -0.7322 F   0  0  0  0  0  0  0  0  0  0  0  0
    8.8697    0.6018    0.6624 F   0  0  0  0  0  0  0  0  0  0  0  0
    8.8513    0.1946   -1.4678 F   0  0  0  0  0  0  0  0  0  0  0  0
   -5.4033    3.0878   -0.6014 O   0  0  0  0  0  0  0  0  0  0  0  0
   -7.2539   -2.2785    0.4248 O   0  0  0  0  0  0  0  0  0  0  0  0
   -8.8999   -1.3875   -0.8644 O   0  0  0  0  0  0  0  0  0  0  0  0
   -1.9777    1.5918    2.0889 N   0  0  2  0  0  0  0  0  0  0  0  0
   -3.6979    1.6464   -1.2530 N   0  0  0  0  0  0  0  0  0  0  0  0
    0.1404   -1.8579   -0.0170 N   0  0  0  0  0  0  0  0  0  0  0  0
    2.3458   -1.8806   -0.9883 N   0  0  0  0  0  0  0  0  0  0  0  0
   -1.8767   -0.9977    1.8294 C   0  0  2  0  0  0  0  0  0  0  0  0
   -0.4438   -0.3976    1.8561 C   0  0  2  0  0  0  0  0  0  0  0  0
   -2.8820    1.1552    0.9926 C   0  0  2  0  0  0  0  0  0  0  0  0
   -2.6820   -0.3446    0.6862 C   0  0  0  0  0  0  0  0  0  0  0  0
   -2.5557   -0.5881    3.1540 C   0  0  0  0  0  0  0  0  0  0  0  0
   -0.5886    1.1504    1.8083 C   0  0  0  0  0  0  0  0  0  0  0  0
   -2.4286    0.9342    3.3388 C   0  0  0  0  0  0  0  0  0  0  0  0
   -2.7353    2.0181   -0.2624 C   0  0  0  0  0  0  0  0  0  0  0  0
    0.5706   -0.9140    0.8457 C   0  0  0  0  0  0  0  0  0  0  0  0
    1.8554   -0.4106    0.8534 C   0  0  0  0  0  0  0  0  0  0  0  0
    2.7084   -0.9361   -0.0957 C   0  0  0  0  0  0  0  0  0  0  0  0
   -4.9673    2.2132   -1.3479 C   0  0  0  0  0  0  0  0  0  0  0  0
    1.0664   -2.2903   -0.8940 C   0  0  0  0  0  0  0  0  0  0  0  0
    4.0793   -0.4948   -0.1917 C   0  0  0  0  0  0  0  0  0  0  0  0
   -5.8014    1.6365   -2.4676 C   0  0  0  0  0  0  0  0  0  0  0  0
    0.6288   -3.3359   -1.8632 C   0  0  0  0  0  0  0  0  0  0  0  0
    4.3639    0.8461   -0.4501 C   0  0  0  0  0  0  0  0  0  0  0  0
    5.1196   -1.4092   -0.0257 C   0  0  0  0  0  0  0  0  0  0  0  0
    5.6887    1.2726   -0.5427 C   0  0  0  0  0  0  0  0  0  0  0  0
    6.4444   -0.9827   -0.1183 C   0  0  0  0  0  0  0  0  0  0  0  0
    6.7289    0.3581   -0.3768 C   0  0  0  0  0  0  0  0  0  0  0  0
   -6.6308   -0.6426   -1.1897 C   0  0  0  0  0  0  0  0  0  0  0  0
    8.1452    0.8140   -0.4760 C   0  0  0  0  0  0  0  0  0  0  0  0
   -7.7196   -1.4515   -0.5452 C   0  0  0  0  0  0  0  0  0  0  0  0
   -1.8642   -2.0880    1.7276 H   0  0  0  0  0  0  0  0  0  0  0  0
   -0.0155   -0.6642    2.8349 H   0  0  0  0  0  0  0  0  0  0  0  0
   -3.9167    1.2931    1.3408 H   0  0  0  0  0  0  0  0  0  0  0  0
   -2.1654   -0.4988   -0.2676 H   0  0  0  0  0  0  0  0  0  0  0  0
   -3.6596   -0.8344    0.6033 H   0  0  0  0  0  0  0  0  0  0  0  0
   -2.0887   -1.1060    3.9998 H   0  0  0  0  0  0  0  0  0  0  0  0
   -3.6126   -0.8808    3.1372 H   0  0  0  0  0  0  0  0  0  0  0  0
    0.0815    1.5975    2.5549 H   0  0  0  0  0  0  0  0  0  0  0  0
   -0.2544    1.5623    0.8491 H   0  0  0  0  0  0  0  0  0  0  0  0
   -3.3917    1.3526    3.6562 H   0  0  0  0  0  0  0  0  0  0  0  0
   -1.7276    1.1613    4.1521 H   0  0  0  0  0  0  0  0  0  0  0  0
   -1.7493    1.9071   -0.7246 H   0  0  0  0  0  0  0  0  0  0  0  0
   -2.8715    3.0768   -0.0128 H   0  0  0  0  0  0  0  0  0  0  0  0
   -3.4330    0.9220   -1.9138 H   0  0  0  0  0  0  0  0  0  0  0  0
    2.1736    0.3399    1.5675 H   0  0  0  0  0  0  0  0  0  0  0  0
   -5.2605    0.8891   -3.0547 H   0  0  0  0  0  0  0  0  0  0  0  0
   -6.0689    2.4572   -3.1409 H   0  0  0  0  0  0  0  0  0  0  0  0
    0.8100   -4.3289   -1.4416 H   0  0  0  0  0  0  0  0  0  0  0  0
   -0.4385   -3.2379   -2.0847 H   0  0  0  0  0  0  0  0  0  0  0  0
    1.1800   -3.2481   -2.8046 H   0  0  0  0  0  0  0  0  0  0  0  0
    3.5677    1.5740   -0.5880 H   0  0  0  0  0  0  0  0  0  0  0  0
    4.9176   -2.4578    0.1800 H   0  0  0  0  0  0  0  0  0  0  0  0
    5.8891    2.3210   -0.7458 H   0  0  0  0  0  0  0  0  0  0  0  0
    7.2482   -1.7021    0.0131 H   0  0  0  0  0  0  0  0  0  0  0  0
   -5.8561   -0.4375   -0.4463 H   0  0  0  0  0  0  0  0  0  0  0  0
   -6.2124   -1.2176   -2.0201 H   0  0  0  0  0  0  0  0  0  0  0  0
   -7.9735   -2.8057    0.8329 H   0  0  0  0  0  0  0  0  0  0  0  0
  1 26  1  0  0  0  0
  1 33  1  0  0  0  0
  2 34  1  0  0  0  0
  3 34  1  0  0  0  0
  4 34  1  0  0  0  0
  5 23  2  0  0  0  0
  6 35  1  0  0  0  0
  6 62  1  0  0  0  0
  7 35  2  0  0  0  0
  8 14  1  0  0  0  0
  8 17  1  0  0  0  0
  8 18  1  0  0  0  0
  9 19  1  0  0  0  0
  9 23  1  0  0  0  0
  9 49  1  0  0  0  0
 10 20  2  0  0  0  0
 10 24  1  0  0  0  0
 11 22  1  0  0  0  0
 11 24  2  0  0  0  0
 12 13  1  0  0  0  0
 12 15  1  0  0  0  0
 12 16  1  0  0  0  0
 12 36  1  0  0  0  0
 13 17  1  0  0  0  0
 13 20  1  0  0  0  0
 13 37  1  0  0  0  0
 14 15  1  0  0  0  0
 14 19  1  0  0  0  0
 14 38  1  0  0  0  0
 15 39  1  0  0  0  0
 15 40  1  0  0  0  0
 16 18  1  0  0  0  0
 16 41  1  0  0  0  0
 16 42  1  0  0  0  0
 17 43  1  0  0  0  0
 17 44  1  0  0  0  0
 18 45  1  0  0  0  0
 18 46  1  0  0  0  0
 19 47  1  0  0  0  0
 19 48  1  0  0  0  0
 20 21  1  0  0  0  0
 21 22  2  0  0  0  0
 21 50  1  0  0  0  0
 22 25  1  0  0  0  0
 23 26  1  0  0  0  0
 24 27  1  0  0  0  0
 25 28  2  0  0  0  0
 25 29  1  0  0  0  0
 26 51  1  0  0  0  0
 26 52  1  0  0  0  0
 27 53  1  0  0  0  0
 27 54  1  0  0  0  0
 27 55  1  0  0  0  0
 28 30  1  0  0  0  0
 28 56  1  0  0  0  0
 29 31  2  0  0  0  0
 29 57  1  0  0  0  0
 30 32  2  0  0  0  0
 30 58  1  0  0  0  0
 31 32  1  0  0  0  0
 31 59  1  0  0  0  0
 32 34  1  0  0  0  0
 33 35  1  0  0  0  0
 33 60  1  0  0  0  0
 33 61  1  0  0  0  0
M  END
> <PUBCHEM_COMPOUND_CID>
40777150

> <PUBCHEM_CONFORMER_RMSD>
1.2

> <PUBCHEM_CONFORMER_DIVERSEORDER>
1
8
26
44
22
28
17
42
47
11
6
12
43
24
34
29
37
16
31
15
7
19
41
49
39
32
35
9
33
46
36
27
38
30
3
48
5
40
13
14
25
21
45
2
4
23
20
10
18

> <PUBCHEM_MMFF94_PARTIAL_CHARGES>
38
1 -0.46
10 -0.62
11 -0.62
13 0.14
14 0.27
17 0.27
18 0.27
19 0.3
2 -0.34
20 0.17
21 -0.15
22 0.31
23 0.57
24 0.48
26 0.29
27 0.14
28 -0.15
29 -0.15
3 -0.34
30 -0.15
31 -0.15
32 -0.14
33 0.29
34 1.16
35 0.66
4 -0.34
49 0.37
5 -0.57
50 0.15
56 0.15
57 0.15
58 0.15
59 0.15
6 -0.65
62 0.5
7 -0.57
8 -0.81
9 -0.73

> <PUBCHEM_EFFECTIVE_ROTOR_COUNT>
11.2

> <PUBCHEM_PHARMACOPHORE_FEATURES>
11
1 10 acceptor
1 5 acceptor
1 6 acceptor
1 7 acceptor
1 8 cation
1 9 donor
3 10 11 24 cation
3 6 7 35 anion
6 10 11 20 21 22 24 rings
6 25 28 29 30 31 32 rings
8 8 12 13 14 15 16 17 18 rings

> <PUBCHEM_HEAVY_ATOM_COUNT>
35

> <PUBCHEM_ATOM_DEF_STEREO_COUNT>
3

> <PUBCHEM_ATOM_UDEF_STEREO_COUNT>
0

> <PUBCHEM_BOND_DEF_STEREO_COUNT>
0

> <PUBCHEM_BOND_UDEF_STEREO_COUNT>
0

> <PUBCHEM_ISOTOPIC_ATOM_COUNT>
0

> <PUBCHEM_COMPONENT_COUNT>
1

> <PUBCHEM_CACTVS_TAUTO_COUNT>
2

> <PUBCHEM_CONFORMER_ID>
026E35BE00000001

> <PUBCHEM_MMFF94_ENERGY>
83.7429

> <PUBCHEM_FEATURE_SELFOVERLAP>
55.879

> <PUBCHEM_SHAPE_FINGERPRINT>
10076449 9 17988641926406800283
10190108 129 15123793989642683879
10554248 39 18129388103765902590
10577160 103 18114748234726802121
10674148 151 13110959833883349606
11103572 155 13038920905852359485
11374522 184 18334293179868429421
11374522 81 11170176636742782417
11478447 183 17822001027150520343
12373685 5 17458336429958699554
13540713 5 17201086867951222395
13673619 4 12103553182843045592
13726171 33 18043241342186994781
13811026 1 17967816050562852100
13911987 19 18202284676124450768
14675019 173 10735871789955502451
14767858 380 17704067374297386126
150020 25 18409722972422177413
15461852 350 18261115179460721390
15669420 48 18409446995156436829
16120349 21 13110963137308882849
18643901 69 13973966510355919685
19246450 95 12035443922471406645
20505436 4 15839611144786652931
20609170 92 18412270510361789342
21033648 29 16950860111087023258
21403212 168 12829482641322528443
21795232 338 12895347794188749027
23569917 315 17917154888684067414
25269216 80 15482671277708323040
3103668 31 17914604201478997271
4098825 35 18336824187543586903
4366758 6 15574710292642236939
484989 97 18130502058551147091
4938544 92 17095532807350460176
5372103 7 18042115475643034381
54039377 194 16486972930113701463
57366028 249 17417244485121053688
57676310 167 8862405110648097275
6009941 240 16732989721944099896
6058803 2 16984354391574664386
6691757 9 15936418827359919025
9980921 7 18338797931760429412

> <PUBCHEM_SHAPE_MULTIPOLES>
664.78
25.44
2.73
2.47
17.42
0.43
-1.8
-5.44
15.04
-2.43
1.26
-3.88
-0.39
0.95

> <PUBCHEM_SHAPE_SELFOVERLAP>
1408.769

> <PUBCHEM_SHAPE_VOLUME>
377.1

> <PUBCHEM_COORDINATE_TYPE>
2
5
10

$$$$
