11883315
  -OEChem-12032416133D

 30 31  0     1  0  0  0  0  0999 V2000
    3.3211   -0.3278    0.0670 S   0  0  0  0  0  0  0  0  0  0  0  0
   -1.0788   -1.0352   -0.7295 O   0  0  0  0  0  0  0  0  0  0  0  0
   -1.1658    1.9601   -0.0350 O   0  0  0  0  0  0  0  0  0  0  0  0
   -3.7443   -0.5240   -0.1579 O   0  0  0  0  0  0  0  0  0  0  0  0
    3.4212   -0.2086   -1.3745 O   0  0  0  0  0  0  0  0  0  0  0  0
    3.9840   -1.4094    0.7698 O   0  0  0  0  0  0  0  0  0  0  0  0
    1.6857   -0.3087    0.5407 N   0  0  0  0  0  0  0  0  0  0  0  0
   -0.4714    0.8520    0.5746 C   0  0  1  0  0  0  0  0  0  0  0  0
   -1.3962   -0.3462    0.4912 C   0  0  1  0  0  0  0  0  0  0  0  0
    0.7127    0.4582   -0.2731 C   0  0  2  0  0  0  0  0  0  0  0  0
   -2.7613    0.2960    0.4323 C   0  0  1  0  0  0  0  0  0  0  0  0
    0.0918   -0.4482   -1.3183 C   0  0  0  0  0  0  0  0  0  0  0  0
   -2.4928    1.5400   -0.3840 C   0  0  0  0  0  0  0  0  0  0  0  0
   -3.9952   -1.6959    0.6141 C   0  0  0  0  0  0  0  0  0  0  0  0
    3.8892    1.1976    0.7828 C   0  0  0  0  0  0  0  0  0  0  0  0
   -0.2263    1.1409    1.6015 H   0  0  0  0  0  0  0  0  0  0  0  0
   -1.2686   -1.0522    1.3172 H   0  0  0  0  0  0  0  0  0  0  0  0
    1.2037    1.3213   -0.7335 H   0  0  0  0  0  0  0  0  0  0  0  0
   -3.0746    0.6012    1.4400 H   0  0  0  0  0  0  0  0  0  0  0  0
   -0.2405    0.1304   -2.1871 H   0  0  0  0  0  0  0  0  0  0  0  0
    0.7524   -1.2458   -1.6705 H   0  0  0  0  0  0  0  0  0  0  0  0
   -2.5317    1.3474   -1.4621 H   0  0  0  0  0  0  0  0  0  0  0  0
   -3.2021    2.3433   -0.1637 H   0  0  0  0  0  0  0  0  0  0  0  0
    1.4493   -0.4676    1.5277 H   0  0  0  0  0  0  0  0  0  0  0  0
   -4.2393   -1.4367    1.6490 H   0  0  0  0  0  0  0  0  0  0  0  0
   -3.1425   -2.3795    0.5824 H   0  0  0  0  0  0  0  0  0  0  0  0
   -4.8552   -2.2098    0.1754 H   0  0  0  0  0  0  0  0  0  0  0  0
    4.9578    1.2889    0.5761 H   0  0  0  0  0  0  0  0  0  0  0  0
    3.3526    2.0310    0.3265 H   0  0  0  0  0  0  0  0  0  0  0  0
    3.7225    1.1667    1.8612 H   0  0  0  0  0  0  0  0  0  0  0  0
  1  5  2  0  0  0  0
  1  6  2  0  0  0  0
  1  7  1  0  0  0  0
  1 15  1  0  0  0  0
  2  9  1  0  0  0  0
  2 12  1  0  0  0  0
  3  8  1  0  0  0  0
  3 13  1  0  0  0  0
  4 11  1  0  0  0  0
  4 14  1  0  0  0  0
  7 10  1  0  0  0  0
  7 24  1  0  0  0  0
  8  9  1  0  0  0  0
  8 10  1  0  0  0  0
  8 16  1  0  0  0  0
  9 11  1  0  0  0  0
  9 17  1  0  0  0  0
 10 12  1  0  0  0  0
 10 18  1  0  0  0  0
 11 13  1  0  0  0  0
 11 19  1  0  0  0  0
 12 20  1  0  0  0  0
 12 21  1  0  0  0  0
 13 22  1  0  0  0  0
 13 23  1  0  0  0  0
 14 25  1  0  0  0  0
 14 26  1  0  0  0  0
 14 27  1  0  0  0  0
 15 28  1  0  0  0  0
 15 29  1  0  0  0  0
 15 30  1  0  0  0  0
M  END
> <PUBCHEM_COMPOUND_CID>
11883315

> <PUBCHEM_CONFORMER_RMSD>
0.6

> <PUBCHEM_CONFORMER_DIVERSEORDER>
1
42
13
44
43
37
7
25
19
24
41
40
33
28
8
34
16
11
10
27
31
32
6
20
38
14
35
9
29
3
17
15
30
23
12
21
36
4
18
2
26
39
5
22

> <PUBCHEM_MMFF94_PARTIAL_CHARGES>
16
1 1.33
10 0.36
11 0.28
12 0.28
13 0.28
14 0.28
15 0.11
2 -0.56
24 0.42
3 -0.56
4 -0.56
5 -0.65
6 -0.65
7 -0.91
8 0.28
9 0.28

> <PUBCHEM_EFFECTIVE_ROTOR_COUNT>
4.2

> <PUBCHEM_PHARMACOPHORE_FEATURES>
8
1 2 acceptor
1 3 acceptor
1 4 acceptor
1 5 acceptor
1 6 acceptor
1 7 donor
5 2 8 9 10 12 rings
5 3 8 9 11 13 rings

> <PUBCHEM_HEAVY_ATOM_COUNT>
15

> <PUBCHEM_ATOM_DEF_STEREO_COUNT>
4

> <PUBCHEM_ATOM_UDEF_STEREO_COUNT>
0

> <PUBCHEM_BOND_DEF_STEREO_COUNT>
0

> <PUBCHEM_BOND_UDEF_STEREO_COUNT>
0

> <PUBCHEM_ISOTOPIC_ATOM_COUNT>
0

> <PUBCHEM_COMPONENT_COUNT>
1

> <PUBCHEM_CACTVS_TAUTO_COUNT>
1

> <PUBCHEM_CONFORMER_ID>
00B5533300000001

> <PUBCHEM_MMFF94_ENERGY>
38.4586

> <PUBCHEM_FEATURE_SELFOVERLAP>
41.332

> <PUBCHEM_SHAPE_FINGERPRINT>
11132069 177 17418088823613294487
11543360 7 16660650712357103943
11769659 78 18113335314634047475
12032990 46 18343027709024036407
12932764 1 18413390921573915016
13024252 1 17240484680714734033
13296908 3 18411416202737593872
13581323 91 18413670205885189766
14289901 80 18114187432024686504
14943859 89 11672064142494940903
14993402 34 15936411160579330323
15219456 202 17703233909965512271
15309172 13 16988843877849322414
15375462 478 18409166623269033005
16945 1 18341613681183439661
17844478 74 17989492904771236777
18175812 5 18272087171428935021
18186145 218 18131074788271539568
19026448 5 17821736009105962924
19422 9 18041283179752695314
200 152 15719385140283479176
20510252 161 18059860549416310817
20871998 184 18272652346401989847
21061003 4 17418377999883059473
23402539 116 18337944611625453877
23532345 42 18340208591053695733
23557571 272 18341625767295530245
23559900 14 18335977593480559504
2748010 2 17843700871579738231
3248919 1 17095530582383366416
3286 77 18187076235795043066
449060 50 17560518512341188176
5104073 3 18412542089780621488
5374978 207 18410289220488339432

> <PUBCHEM_SHAPE_MULTIPOLES>
278.21
7.57
1.57
1.04
2.95
0.25
-0.22
-2.05
1.39
-0.71
0.16
0.45
-0.13
0.38

> <PUBCHEM_SHAPE_SELFOVERLAP>
558.375

> <PUBCHEM_SHAPE_VOLUME>
166.6

> <PUBCHEM_COORDINATE_TYPE>
2
5
10

$$$$
