11885207
  -OEChem-12032416213D

 55 59  0     1  0  0  0  0  0999 V2000
   -7.2173    0.5314    0.8489 S   0  0  0  0  0  0  0  0  0  0  0  0
   -1.3283   -2.5478    1.2100 O   0  0  0  0  0  0  0  0  0  0  0  0
    2.9234   -0.1108    2.6405 O   0  0  0  0  0  0  0  0  0  0  0  0
    3.3509   -1.0174    0.5265 N   0  0  0  0  0  0  0  0  0  0  0  0
    0.5385   -2.2783   -0.1619 N   0  0  0  0  0  0  0  0  0  0  0  0
    1.3496    6.1161   -1.1685 N   0  0  0  0  0  0  0  0  0  0  0  0
    2.7780   -3.4278    0.3176 C   0  0  1  0  0  0  0  0  0  0  0  0
    2.5538   -1.9440   -1.6345 C   0  0  2  0  0  0  0  0  0  0  0  0
    2.9854   -3.3409   -1.1907 C   0  0  0  0  0  0  0  0  0  0  0  0
    3.6229   -2.3607    1.0375 C   0  0  0  0  0  0  0  0  0  0  0  0
    1.2810   -3.2793    0.6186 C   0  0  0  0  0  0  0  0  0  0  0  0
    3.4329   -0.8853   -0.9374 C   0  0  0  0  0  0  0  0  0  0  0  0
    1.0961   -1.6911   -1.3005 C   0  0  0  0  0  0  0  0  0  0  0  0
    0.3581   -0.8737   -2.0684 C   0  0  0  0  0  0  0  0  0  0  0  0
   -0.7894   -2.0245    0.2331 C   0  0  0  0  0  0  0  0  0  0  0  0
    2.9925   -0.0026    1.4173 C   0  0  0  0  0  0  0  0  0  0  0  0
   -1.5761   -1.0672   -0.6208 C   0  0  0  0  0  0  0  0  0  0  0  0
   -0.9964   -0.5555   -1.7168 C   0  0  0  0  0  0  0  0  0  0  0  0
    2.6403    1.3088    0.8626 C   0  0  0  0  0  0  0  0  0  0  0  0
   -2.9501   -0.6782   -0.2621 C   0  0  0  0  0  0  0  0  0  0  0  0
    1.3180    1.5863    0.5254 C   0  0  0  0  0  0  0  0  0  0  0  0
    3.6299    2.2709    0.6773 C   0  0  0  0  0  0  0  0  0  0  0  0
   -4.0328   -1.4115   -0.7485 C   0  0  0  0  0  0  0  0  0  0  0  0
   -3.1707    0.4245    0.5641 C   0  0  0  0  0  0  0  0  0  0  0  0
    0.9830    2.8341   -0.0006 C   0  0  0  0  0  0  0  0  0  0  0  0
    3.2950    3.5186    0.1514 C   0  0  0  0  0  0  0  0  0  0  0  0
   -5.3345   -1.0427   -0.4093 C   0  0  0  0  0  0  0  0  0  0  0  0
   -4.4725    0.7930    0.9034 C   0  0  0  0  0  0  0  0  0  0  0  0
    1.9715    3.8001   -0.1876 C   0  0  0  0  0  0  0  0  0  0  0  0
   -5.5544    0.0595    0.4167 C   0  0  0  0  0  0  0  0  0  0  0  0
    1.6285    5.0774   -0.7286 C   0  0  0  0  0  0  0  0  0  0  0  0
   -7.3070    2.2185    0.1852 C   0  0  0  0  0  0  0  0  0  0  0  0
    3.1070   -4.4102    0.6781 H   0  0  0  0  0  0  0  0  0  0  0  0
    2.7074   -1.8649   -2.7185 H   0  0  0  0  0  0  0  0  0  0  0  0
    2.3995   -4.1118   -1.7067 H   0  0  0  0  0  0  0  0  0  0  0  0
    4.0385   -3.5149   -1.4429 H   0  0  0  0  0  0  0  0  0  0  0  0
    3.4504   -2.4075    2.1179 H   0  0  0  0  0  0  0  0  0  0  0  0
    4.6897   -2.5545    0.8719 H   0  0  0  0  0  0  0  0  0  0  0  0
    0.7853   -4.2383    0.4147 H   0  0  0  0  0  0  0  0  0  0  0  0
    1.1228   -3.0790    1.6858 H   0  0  0  0  0  0  0  0  0  0  0  0
    4.4852   -1.0325   -1.2103 H   0  0  0  0  0  0  0  0  0  0  0  0
    3.1579    0.1185   -1.2707 H   0  0  0  0  0  0  0  0  0  0  0  0
    0.7721   -0.3932   -2.9486 H   0  0  0  0  0  0  0  0  0  0  0  0
   -1.5190    0.1428   -2.3640 H   0  0  0  0  0  0  0  0  0  0  0  0
    0.5389    0.8477    0.6850 H   0  0  0  0  0  0  0  0  0  0  0  0
    4.6638    2.0609    0.9380 H   0  0  0  0  0  0  0  0  0  0  0  0
   -3.8775   -2.2737   -1.3927 H   0  0  0  0  0  0  0  0  0  0  0  0
   -2.3374    1.0050    0.9529 H   0  0  0  0  0  0  0  0  0  0  0  0
   -0.0538    3.0388   -0.2569 H   0  0  0  0  0  0  0  0  0  0  0  0
    4.0769    4.2612    0.0109 H   0  0  0  0  0  0  0  0  0  0  0  0
   -6.1652   -1.6265   -0.7984 H   0  0  0  0  0  0  0  0  0  0  0  0
   -4.6191    1.6513    1.5543 H   0  0  0  0  0  0  0  0  0  0  0  0
   -7.0557    2.2225   -0.8789 H   0  0  0  0  0  0  0  0  0  0  0  0
   -6.6259    2.8831    0.7226 H   0  0  0  0  0  0  0  0  0  0  0  0
   -8.3258    2.5963    0.3051 H   0  0  0  0  0  0  0  0  0  0  0  0
  1 30  1  0  0  0  0
  1 32  1  0  0  0  0
  2 15  2  0  0  0  0
  3 16  2  0  0  0  0
  4 10  1  0  0  0  0
  4 12  1  0  0  0  0
  4 16  1  0  0  0  0
  5 11  1  0  0  0  0
  5 13  1  0  0  0  0
  5 15  1  0  0  0  0
  6 31  3  0  0  0  0
  7  9  1  0  0  0  0
  7 10  1  0  0  0  0
  7 11  1  0  0  0  0
  7 33  1  0  0  0  0
  8  9  1  0  0  0  0
  8 12  1  0  0  0  0
  8 13  1  0  0  0  0
  8 34  1  0  0  0  0
  9 35  1  0  0  0  0
  9 36  1  0  0  0  0
 10 37  1  0  0  0  0
 10 38  1  0  0  0  0
 11 39  1  0  0  0  0
 11 40  1  0  0  0  0
 12 41  1  0  0  0  0
 12 42  1  0  0  0  0
 13 14  2  0  0  0  0
 14 18  1  0  0  0  0
 14 43  1  0  0  0  0
 15 17  1  0  0  0  0
 16 19  1  0  0  0  0
 17 18  2  0  0  0  0
 17 20  1  0  0  0  0
 18 44  1  0  0  0  0
 19 21  2  0  0  0  0
 19 22  1  0  0  0  0
 20 23  2  0  0  0  0
 20 24  1  0  0  0  0
 21 25  1  0  0  0  0
 21 45  1  0  0  0  0
 22 26  2  0  0  0  0
 22 46  1  0  0  0  0
 23 27  1  0  0  0  0
 23 47  1  0  0  0  0
 24 28  2  0  0  0  0
 24 48  1  0  0  0  0
 25 29  2  0  0  0  0
 25 49  1  0  0  0  0
 26 29  1  0  0  0  0
 26 50  1  0  0  0  0
 27 30  2  0  0  0  0
 27 51  1  0  0  0  0
 28 30  1  0  0  0  0
 28 52  1  0  0  0  0
 29 31  1  0  0  0  0
 32 53  1  0  0  0  0
 32 54  1  0  0  0  0
 32 55  1  0  0  0  0
M  END
> <PUBCHEM_COMPOUND_CID>
11885207

> <PUBCHEM_CONFORMER_RMSD>
0.8

> <PUBCHEM_CONFORMER_DIVERSEORDER>
1
8
10
3
7
4
6
2
9
5

> <PUBCHEM_MMFF94_PARTIAL_CHARGES>
40
1 -0.33
10 0.3
11 0.3
12 0.3
13 -0.03
14 -0.15
15 0.62
16 0.54
17 -0.01
18 -0.15
19 0.09
2 -0.57
20 0.03
21 -0.15
22 -0.15
23 -0.15
24 -0.15
25 -0.15
26 -0.15
27 -0.15
28 -0.15
29 0.07
3 -0.57
30 0.1
31 0.48
32 0.23
4 -0.66
43 0.15
44 0.15
45 0.15
46 0.15
47 0.15
48 0.15
49 0.15
5 -0.47
50 0.15
51 0.15
52 0.15
6 -0.56
8 0.14

> <PUBCHEM_EFFECTIVE_ROTOR_COUNT>
5

> <PUBCHEM_PHARMACOPHORE_FEATURES>
9
1 2 acceptor
1 3 acceptor
1 32 hydrophobe
1 6 acceptor
6 19 21 22 25 26 29 rings
6 20 23 24 27 28 30 rings
6 4 7 8 9 10 12 rings
6 5 13 14 15 17 18 rings
6 5 7 8 9 11 13 rings

> <PUBCHEM_HEAVY_ATOM_COUNT>
32

> <PUBCHEM_ATOM_DEF_STEREO_COUNT>
2

> <PUBCHEM_ATOM_UDEF_STEREO_COUNT>
0

> <PUBCHEM_BOND_DEF_STEREO_COUNT>
0

> <PUBCHEM_BOND_UDEF_STEREO_COUNT>
0

> <PUBCHEM_ISOTOPIC_ATOM_COUNT>
0

> <PUBCHEM_COMPONENT_COUNT>
1

> <PUBCHEM_CACTVS_TAUTO_COUNT>
1

> <PUBCHEM_CONFORMER_ID>
00B55A9700000001

> <PUBCHEM_MMFF94_ENERGY>
91.3862

> <PUBCHEM_FEATURE_SELFOVERLAP>
47.266

> <PUBCHEM_SHAPE_FINGERPRINT>
10483366 6 18267886007231673092
10688039 33 18193559961110961298
10937287 8 17762335116854416716
11421498 54 18045511820259594590
11578080 2 18193859225974731019
12156800 1 14186521775377225888
12422481 6 17770466821823502842
12633257 1 18115566262613892506
12788726 201 17832161428496226270
13347071 3 17912646805237316497
13944108 23 18408892836274116285
14790565 3 17905892835318451221
14849402 71 18409172142201612431
151778 21 18192709170612477013
15439362 3 18052264178917007220
15475509 84 17542782015047687811
18785283 64 18337110175950371619
20739085 24 18411128161093731640
20764821 26 18121224173325451133
21033648 29 17603858984676144903
21475661 188 18339645641226900983
21860390 5 18343302569735508190
22149856 69 16487268660551850991
23559900 14 17060067995298904583
3044373 193 18411422813499403345
3103668 31 17689726255052313116
3411729 13 18343023323862453301
345986 75 17680420053023052946
397830 11 18262533602013042763
4409770 3 16971968285834572926
474 4 18341325703663399911
513532 50 16773800303083807692
53794403 172 18337116786401146237
6609424 69 18197494026236653869
9896288 288 17470736975204486256
9981440 41 17980200004608470811

> <PUBCHEM_SHAPE_MULTIPOLES>
635.71
11.97
6.12
1.58
30.3
9.22
0.01
2.55
-3.16
-8.1
1.65
-1.09
-0.42
-0.37

> <PUBCHEM_SHAPE_SELFOVERLAP>
1386.143

> <PUBCHEM_SHAPE_VOLUME>
346.4

> <PUBCHEM_COORDINATE_TYPE>
2
5
10

$$$$
