38026794
  -OEChem-12032416393D

 56 58  0     1  0  0  0  0  0999 V2000
    7.4607    0.7582    1.2311 F   0  0  0  0  0  0  0  0  0  0  0  0
    7.4884    0.9590   -0.9339 F   0  0  0  0  0  0  0  0  0  0  0  0
    7.2651   -1.0018   -0.0211 F   0  0  0  0  0  0  0  0  0  0  0  0
   -1.1752   -2.0613   -0.6057 O   0  0  0  0  0  0  0  0  0  0  0  0
   -3.4580   -2.0645    1.3326 O   0  0  0  0  0  0  0  0  0  0  0  0
   -0.9101   -4.8556   -0.4443 O   0  0  0  0  0  0  0  0  0  0  0  0
    0.6653    1.9904   -0.5028 O   0  0  0  0  0  0  0  0  0  0  0  0
   -3.8781    0.3747   -0.1150 N   0  0  0  0  0  0  0  0  0  0  0  0
    0.3924   -0.0351    0.5957 N   0  0  0  0  0  0  0  0  0  0  0  0
   -3.1586   -0.7479   -0.6910 C   0  0  1  0  0  0  0  0  0  0  0  0
   -1.6282   -0.6891   -0.6034 C   0  0  1  0  0  0  0  0  0  0  0  0
   -3.4846   -2.1057   -0.0882 C   0  0  1  0  0  0  0  0  0  0  0  0
   -2.3206   -2.9349   -0.6174 C   0  0  2  0  0  0  0  0  0  0  0  0
   -5.2713    0.0026    0.1657 C   0  0  0  0  0  0  0  0  0  0  0  0
   -3.8099    1.5408   -1.0058 C   0  0  0  0  0  0  0  0  0  0  0  0
   -5.9740    2.4232   -0.0401 C   0  0  0  0  0  0  0  0  0  0  0  0
   -6.0295    1.1579    0.8226 C   0  0  0  0  0  0  0  0  0  0  0  0
   -4.5177    2.7488   -0.3885 C   0  0  0  0  0  0  0  0  0  0  0  0
   -1.0394   -0.0209    0.6340 C   0  0  0  0  0  0  0  0  0  0  0  0
   -2.0006   -4.1907    0.1728 C   0  0  0  0  0  0  0  0  0  0  0  0
   -6.6453    3.5982    0.6655 C   0  0  0  0  0  0  0  0  0  0  0  0
    1.1433    0.9878    0.0213 C   0  0  0  0  0  0  0  0  0  0  0  0
    2.6181    0.8108    0.0387 C   0  0  0  0  0  0  0  0  0  0  0  0
    3.4048    1.4179   -0.9401 C   0  0  0  0  0  0  0  0  0  0  0  0
    3.2162    0.0371    1.0334 C   0  0  0  0  0  0  0  0  0  0  0  0
    4.7896    1.2515   -0.9241 C   0  0  0  0  0  0  0  0  0  0  0  0
    4.6010   -0.1296    1.0492 C   0  0  0  0  0  0  0  0  0  0  0  0
    5.3878    0.4777    0.0704 C   0  0  0  0  0  0  0  0  0  0  0  0
    6.8687    0.3006    0.0885 C   0  0  0  0  0  0  0  0  0  0  0  0
   -3.4173   -0.8365   -1.7587 H   0  0  0  0  0  0  0  0  0  0  0  0
   -1.2233   -0.2075   -1.5021 H   0  0  0  0  0  0  0  0  0  0  0  0
   -4.4475   -2.5149   -0.4130 H   0  0  0  0  0  0  0  0  0  0  0  0
   -2.4870   -3.1927   -1.6714 H   0  0  0  0  0  0  0  0  0  0  0  0
   -5.3629   -0.8253    0.8724 H   0  0  0  0  0  0  0  0  0  0  0  0
   -5.7889   -0.2951   -0.7563 H   0  0  0  0  0  0  0  0  0  0  0  0
   -4.2612    1.3175   -1.9818 H   0  0  0  0  0  0  0  0  0  0  0  0
   -2.7662    1.8211   -1.1899 H   0  0  0  0  0  0  0  0  0  0  0  0
   -6.5196    2.2311   -0.9737 H   0  0  0  0  0  0  0  0  0  0  0  0
   -7.0737    0.8634    0.9835 H   0  0  0  0  0  0  0  0  0  0  0  0
   -5.5998    1.3594    1.8129 H   0  0  0  0  0  0  0  0  0  0  0  0
   -3.9768    3.0646    0.5135 H   0  0  0  0  0  0  0  0  0  0  0  0
   -4.4808    3.5898   -1.0913 H   0  0  0  0  0  0  0  0  0  0  0  0
   -1.3226   -0.5576    1.5449 H   0  0  0  0  0  0  0  0  0  0  0  0
   -1.3771    1.0159    0.7258 H   0  0  0  0  0  0  0  0  0  0  0  0
   -2.8595   -4.8681    0.1995 H   0  0  0  0  0  0  0  0  0  0  0  0
   -1.6914   -3.9508    1.1950 H   0  0  0  0  0  0  0  0  0  0  0  0
   -6.1422    3.8380    1.6084 H   0  0  0  0  0  0  0  0  0  0  0  0
   -7.6924    3.3691    0.8894 H   0  0  0  0  0  0  0  0  0  0  0  0
   -6.6248    4.4926    0.0341 H   0  0  0  0  0  0  0  0  0  0  0  0
   -3.7748   -2.9242    1.6579 H   0  0  0  0  0  0  0  0  0  0  0  0
    0.8481   -0.8695    0.9492 H   0  0  0  0  0  0  0  0  0  0  0  0
   -0.7295   -5.6555    0.0784 H   0  0  0  0  0  0  0  0  0  0  0  0
    2.9571    2.0207   -1.7259 H   0  0  0  0  0  0  0  0  0  0  0  0
    2.6437   -0.4273    1.8307 H   0  0  0  0  0  0  0  0  0  0  0  0
    5.3845    1.7322   -1.6959 H   0  0  0  0  0  0  0  0  0  0  0  0
    5.0590   -0.7285    1.8319 H   0  0  0  0  0  0  0  0  0  0  0  0
  1 29  1  0  0  0  0
  2 29  1  0  0  0  0
  3 29  1  0  0  0  0
  4 11  1  0  0  0  0
  4 13  1  0  0  0  0
  5 12  1  0  0  0  0
  5 50  1  0  0  0  0
  6 20  1  0  0  0  0
  6 52  1  0  0  0  0
  7 22  2  0  0  0  0
  8 10  1  0  0  0  0
  8 14  1  0  0  0  0
  8 15  1  0  0  0  0
  9 19  1  0  0  0  0
  9 22  1  0  0  0  0
  9 51  1  0  0  0  0
 10 11  1  0  0  0  0
 10 12  1  0  0  0  0
 10 30  1  0  0  0  0
 11 19  1  0  0  0  0
 11 31  1  0  0  0  0
 12 13  1  0  0  0  0
 12 32  1  0  0  0  0
 13 20  1  0  0  0  0
 13 33  1  0  0  0  0
 14 17  1  0  0  0  0
 14 34  1  0  0  0  0
 14 35  1  0  0  0  0
 15 18  1  0  0  0  0
 15 36  1  0  0  0  0
 15 37  1  0  0  0  0
 16 17  1  0  0  0  0
 16 18  1  0  0  0  0
 16 21  1  0  0  0  0
 16 38  1  0  0  0  0
 17 39  1  0  0  0  0
 17 40  1  0  0  0  0
 18 41  1  0  0  0  0
 18 42  1  0  0  0  0
 19 43  1  0  0  0  0
 19 44  1  0  0  0  0
 20 45  1  0  0  0  0
 20 46  1  0  0  0  0
 21 47  1  0  0  0  0
 21 48  1  0  0  0  0
 21 49  1  0  0  0  0
 22 23  1  0  0  0  0
 23 24  2  0  0  0  0
 23 25  1  0  0  0  0
 24 26  1  0  0  0  0
 24 53  1  0  0  0  0
 25 27  2  0  0  0  0
 25 54  1  0  0  0  0
 26 28  2  0  0  0  0
 26 55  1  0  0  0  0
 27 28  1  0  0  0  0
 27 56  1  0  0  0  0
 28 29  1  0  0  0  0
M  END
> <PUBCHEM_COMPOUND_CID>
38026794

> <PUBCHEM_CONFORMER_RMSD>
1

> <PUBCHEM_CONFORMER_DIVERSEORDER>
1
6
17
13
14
18
9
8
16
12
10
4
5
2
15
11
7
3

> <PUBCHEM_MMFF94_PARTIAL_CHARGES>
32
1 -0.34
10 0.27
11 0.28
12 0.28
13 0.28
14 0.27
15 0.27
19 0.3
2 -0.34
20 0.28
22 0.54
23 0.09
24 -0.15
25 -0.15
26 -0.15
27 -0.15
28 -0.14
29 1.16
3 -0.34
4 -0.56
5 -0.68
50 0.4
51 0.37
52 0.4
53 0.15
54 0.15
55 0.15
56 0.15
6 -0.68
7 -0.57
8 -0.81
9 -0.73

> <PUBCHEM_EFFECTIVE_ROTOR_COUNT>
9.2

> <PUBCHEM_PHARMACOPHORE_FEATURES>
11
1 4 acceptor
1 5 acceptor
1 5 donor
1 6 acceptor
1 6 donor
1 7 acceptor
1 8 cation
1 9 donor
5 4 10 11 12 13 rings
6 23 24 25 26 27 28 rings
6 8 14 15 16 17 18 rings

> <PUBCHEM_HEAVY_ATOM_COUNT>
29

> <PUBCHEM_ATOM_DEF_STEREO_COUNT>
4

> <PUBCHEM_ATOM_UDEF_STEREO_COUNT>
0

> <PUBCHEM_BOND_DEF_STEREO_COUNT>
0

> <PUBCHEM_BOND_UDEF_STEREO_COUNT>
0

> <PUBCHEM_ISOTOPIC_ATOM_COUNT>
0

> <PUBCHEM_COMPONENT_COUNT>
1

> <PUBCHEM_CACTVS_TAUTO_COUNT>
2

> <PUBCHEM_CONFORMER_ID>
02443E2A00000001

> <PUBCHEM_MMFF94_ENERGY>
60.0302

> <PUBCHEM_FEATURE_SELFOVERLAP>
55.826

> <PUBCHEM_SHAPE_FINGERPRINT>
10165383 225 18343304735359257641
10411042 1 17979071919307819791
105312 117 18342739607271406639
10674148 151 18334575721083018034
10835480 77 18130498734784809792
10940486 97 18263646328089409660
11135926 11 18114447991033262266
11524674 6 17917709106334920711
11796584 16 18342458162734318366
12107183 9 18334575741666784796
12144603 126 18186522108369209132
12236239 1 18187645830210635548
12293681 160 17703788068706643121
12788726 201 17702945820765949329
13914758 101 15195290789431592216
14251752 14 18408885131560930256
14251757 5 18411699923876770321
14251764 18 18259984868380034693
14790565 3 18338518543420139893
14856354 85 16443356376906450907
15021287 119 17385444336301494148
15183329 4 18187356636676495340
15230672 131 18409728418573337122
15297060 5 18271810077741048449
15439362 3 18123471571276906621
15484559 13 14936827264578422870
15537594 2 17676195880078550930
15890870 6 18338797819832829797
15927050 60 18341327817083482071
16110190 28 18259705613917474629
16719943 64 18411982451410358761
17093844 174 18201715188930020864
17844677 252 18266180706902801256
21033648 29 18200863046155181169
21223535 225 16271656577047729465
21315764 119 18342462517657018270
21756936 100 18413384329099978157
23522609 53 17749689466568021260
23559900 14 18059004099100119576
3411729 13 18192150400590253539
3610482 184 17823153370046929940
4015057 19 16128084663289240859
4073 2 18113903805812621338
44062 13 18268430307598370086
5104073 3 18114174298136430752
5265222 85 18340771554113454576
5385378 56 18197223542856193353
559249 180 18411698811469827406
57527306 92 15984558745729002163
58260988 114 16443636812991959955
59755656 520 18410006620414884933
6328613 192 18409167740209086204
6371380 46 18272925025080307384
6636735 143 17630863072091278746
6669772 16 18270966722210371863
7226269 152 17989205928173860273
9896288 288 18334301998291064787
9981440 41 18410017607547974259

> <PUBCHEM_SHAPE_MULTIPOLES>
541.55
19.27
4.18
1.03
25.37
4.93
-0.08
-14.03
-2.18
-8.03
0.35
0.31
-0.09
-0.79

> <PUBCHEM_SHAPE_SELFOVERLAP>
1138.186

> <PUBCHEM_SHAPE_VOLUME>
306.5

> <PUBCHEM_COORDINATE_TYPE>
2
5
10

$$$$
