71693884
  -OEChem-12032416273D

 49 51  0     1  0  0  0  0  0999 V2000
   -0.1481   -4.1713    0.9811 O   0  0  0  0  0  0  0  0  0  0  0  0
    2.5493   -3.6784    0.8377 O   0  0  0  0  0  0  0  0  0  0  0  0
   -0.7936    0.3854    1.3051 O   0  0  0  0  0  0  0  0  0  0  0  0
    3.9488    3.3067    0.6562 O   0  0  0  0  0  0  0  0  0  0  0  0
   -2.3182    2.4562    0.5763 O   0  0  0  0  0  0  0  0  0  0  0  0
   -1.0128   -1.4113   -0.1453 N   0  0  0  0  0  0  0  0  0  0  0  0
    1.3151   -1.4304   -0.9913 C   0  0  2  0  0  0  0  0  0  0  0  0
    0.3066   -1.9545    0.0559 C   0  0  2  0  0  0  0  0  0  0  0  0
    0.3373   -3.4686   -0.1472 C   0  0  1  0  0  0  0  0  0  0  0  0
    2.2640   -2.6184   -1.2955 C   0  0  0  0  0  0  0  0  0  0  0  0
    1.8156   -3.7563   -0.3806 C   0  0  1  0  0  0  0  0  0  0  0  0
    2.0208   -0.1648   -0.5523 C   0  0  0  0  0  0  0  0  0  0  0  0
    2.7864   -0.1621    0.6136 C   0  0  0  0  0  0  0  0  0  0  0  0
    1.9034    0.9989   -1.3123 C   0  0  0  0  0  0  0  0  0  0  0  0
   -1.4586   -0.2693    0.5065 C   0  0  0  0  0  0  0  0  0  0  0  0
    3.4347    1.0044    1.0194 C   0  0  0  0  0  0  0  0  0  0  0  0
    2.5517    2.1654   -0.9066 C   0  0  0  0  0  0  0  0  0  0  0  0
   -2.8538    0.1468    0.2108 C   0  0  0  0  0  0  0  0  0  0  0  0
    3.3174    2.1680    0.2594 C   0  0  0  0  0  0  0  0  0  0  0  0
   -3.2253    1.4904    0.2574 C   0  0  0  0  0  0  0  0  0  0  0  0
   -3.7977   -0.8270   -0.1152 C   0  0  0  0  0  0  0  0  0  0  0  0
   -4.5408    1.8603   -0.0222 C   0  0  0  0  0  0  0  0  0  0  0  0
   -5.1134   -0.4571   -0.3947 C   0  0  0  0  0  0  0  0  0  0  0  0
   -5.4850    0.8865   -0.3482 C   0  0  0  0  0  0  0  0  0  0  0  0
    3.7846    4.4605   -0.1671 C   0  0  0  0  0  0  0  0  0  0  0  0
   -1.5887    3.0402   -0.5011 C   0  0  0  0  0  0  0  0  0  0  0  0
    0.7746   -1.2128   -1.9244 H   0  0  0  0  0  0  0  0  0  0  0  0
    0.6073   -1.7197    1.0844 H   0  0  0  0  0  0  0  0  0  0  0  0
   -0.2551   -3.7588   -1.0242 H   0  0  0  0  0  0  0  0  0  0  0  0
    2.1173   -2.9181   -2.3408 H   0  0  0  0  0  0  0  0  0  0  0  0
    3.3225   -2.3676   -1.1686 H   0  0  0  0  0  0  0  0  0  0  0  0
    1.9833   -4.7474   -0.8125 H   0  0  0  0  0  0  0  0  0  0  0  0
   -1.5880   -1.8434   -0.8613 H   0  0  0  0  0  0  0  0  0  0  0  0
   -0.0100   -5.1196    0.8160 H   0  0  0  0  0  0  0  0  0  0  0  0
    3.4860   -3.8300    0.6247 H   0  0  0  0  0  0  0  0  0  0  0  0
    2.8956   -1.0554    1.2204 H   0  0  0  0  0  0  0  0  0  0  0  0
    1.3086    1.0127   -2.2218 H   0  0  0  0  0  0  0  0  0  0  0  0
    4.0300    1.0005    1.9284 H   0  0  0  0  0  0  0  0  0  0  0  0
    2.4168    3.0334   -1.5428 H   0  0  0  0  0  0  0  0  0  0  0  0
   -3.5553   -1.8857   -0.1332 H   0  0  0  0  0  0  0  0  0  0  0  0
   -4.8380    2.9049    0.0135 H   0  0  0  0  0  0  0  0  0  0  0  0
   -5.8505   -1.2156   -0.6418 H   0  0  0  0  0  0  0  0  0  0  0  0
   -6.5097    1.1743   -0.5640 H   0  0  0  0  0  0  0  0  0  0  0  0
    4.3535    5.2726    0.2973 H   0  0  0  0  0  0  0  0  0  0  0  0
    2.7385    4.7832   -0.2035 H   0  0  0  0  0  0  0  0  0  0  0  0
    4.2062    4.3053   -1.1660 H   0  0  0  0  0  0  0  0  0  0  0  0
   -0.8187    3.6925   -0.0801 H   0  0  0  0  0  0  0  0  0  0  0  0
   -2.2560    3.6425   -1.1253 H   0  0  0  0  0  0  0  0  0  0  0  0
   -1.1015    2.2717   -1.1093 H   0  0  0  0  0  0  0  0  0  0  0  0
  1  9  1  0  0  0  0
  1 34  1  0  0  0  0
  2 11  1  0  0  0  0
  2 35  1  0  0  0  0
  3 15  2  0  0  0  0
  4 19  1  0  0  0  0
  4 25  1  0  0  0  0
  5 20  1  0  0  0  0
  5 26  1  0  0  0  0
  6  8  1  0  0  0  0
  6 15  1  0  0  0  0
  6 33  1  0  0  0  0
  7  8  1  0  0  0  0
  7 10  1  0  0  0  0
  7 12  1  0  0  0  0
  7 27  1  0  0  0  0
  8  9  1  0  0  0  0
  8 28  1  0  0  0  0
  9 11  1  0  0  0  0
  9 29  1  0  0  0  0
 10 11  1  0  0  0  0
 10 30  1  0  0  0  0
 10 31  1  0  0  0  0
 11 32  1  0  0  0  0
 12 13  2  0  0  0  0
 12 14  1  0  0  0  0
 13 16  1  0  0  0  0
 13 36  1  0  0  0  0
 14 17  2  0  0  0  0
 14 37  1  0  0  0  0
 15 18  1  0  0  0  0
 16 19  2  0  0  0  0
 16 38  1  0  0  0  0
 17 19  1  0  0  0  0
 17 39  1  0  0  0  0
 18 20  1  0  0  0  0
 18 21  2  0  0  0  0
 20 22  2  0  0  0  0
 21 23  1  0  0  0  0
 21 40  1  0  0  0  0
 22 24  1  0  0  0  0
 22 41  1  0  0  0  0
 23 24  2  0  0  0  0
 23 42  1  0  0  0  0
 24 43  1  0  0  0  0
 25 44  1  0  0  0  0
 25 45  1  0  0  0  0
 25 46  1  0  0  0  0
 26 47  1  0  0  0  0
 26 48  1  0  0  0  0
 26 49  1  0  0  0  0
M  END
> <PUBCHEM_COMPOUND_CID>
71693884

> <PUBCHEM_CONFORMER_RMSD>
0.8

> <PUBCHEM_CONFORMER_DIVERSEORDER>
1
39
13
29
16
55
54
4
50
12
37
46
5
25
49
38
19
2
40
15
47
30
42
35
48
34
11
9
14
33
26
24
32
17
31
21
52
10
27
3
51
44
8
18
22
53
23
45
20
6
41
28
43
7
36

> <PUBCHEM_MMFF94_PARTIAL_CHARGES>
36
1 -0.68
11 0.28
12 -0.14
13 -0.15
14 -0.15
15 0.54
16 -0.15
17 -0.15
18 0.09
19 0.08
2 -0.68
20 0.08
21 -0.15
22 -0.15
23 -0.15
24 -0.15
25 0.28
26 0.28
3 -0.57
33 0.37
34 0.4
35 0.4
36 0.15
37 0.15
38 0.15
39 0.15
4 -0.36
40 0.15
41 0.15
42 0.15
43 0.15
5 -0.36
6 -0.73
7 0.14
8 0.3
9 0.28

> <PUBCHEM_EFFECTIVE_ROTOR_COUNT>
7

> <PUBCHEM_PHARMACOPHORE_FEATURES>
11
1 1 acceptor
1 1 donor
1 2 acceptor
1 2 donor
1 3 acceptor
1 4 acceptor
1 5 acceptor
1 6 donor
5 7 8 9 10 11 rings
6 12 13 14 16 17 19 rings
6 18 20 21 22 23 24 rings

> <PUBCHEM_HEAVY_ATOM_COUNT>
26

> <PUBCHEM_ATOM_DEF_STEREO_COUNT>
4

> <PUBCHEM_ATOM_UDEF_STEREO_COUNT>
0

> <PUBCHEM_BOND_DEF_STEREO_COUNT>
0

> <PUBCHEM_BOND_UDEF_STEREO_COUNT>
0

> <PUBCHEM_ISOTOPIC_ATOM_COUNT>
0

> <PUBCHEM_COMPONENT_COUNT>
1

> <PUBCHEM_CACTVS_TAUTO_COUNT>
2

> <PUBCHEM_CONFORMER_ID>
0445F63C00000001

> <PUBCHEM_MMFF94_ENERGY>
96.8373

> <PUBCHEM_FEATURE_SELFOVERLAP>
55.842

> <PUBCHEM_SHAPE_FINGERPRINT>
10074138 170 17763998652514984008
10090160 65 18338226154946984287
11370993 70 18339641247343631253
12107183 9 18264754628185903768
12633257 1 15503489534011366812
12788726 201 17100887608828909587
13134695 92 18049726217746981670
13140716 1 18264204880365766254
1361 2 18338232799203875517
138480 1 18122908629312247604
13965767 371 18041830813868589724
14466204 15 18266735793176831040
14787075 74 17986670574813984253
14849402 71 18410296874336533330
17492 89 18339362942775971815
18681886 176 18126842690396504407
19930381 70 18410854348170047181
20715895 44 18262507110037971733
21133410 127 18113622252757744028
21133410 221 16551971852275061032
21524375 3 18201721803369768334
22113638 7 17974849780822692669
2255824 54 18267029362143864743
23559900 14 18267299829509272499
238 59 18340504282372565411
3380486 145 17474684853239797178
345986 75 16668235942366838266
474 4 18409729560437759439
5104073 3 18267310842237826483
57124632 79 18411130329566808952
6443956 14 18122064200298073414
67856867 119 18339073805308020975
7808743 9 17979073018175758920
84936 182 18343025462597924216
9709674 26 18337677404202916203
9981440 41 18265050408648423547

> <PUBCHEM_SHAPE_MULTIPOLES>
500.74
9.01
5.64
1.05
9.99
1.63
-0.06
-7.15
-0.11
-6.42
0.22
-0.59
0.15
0.28

> <PUBCHEM_SHAPE_SELFOVERLAP>
1073.147

> <PUBCHEM_SHAPE_VOLUME>
277.3

> <PUBCHEM_COORDINATE_TYPE>
2
5
10

$$$$
