40777670
  -OEChem-12032416183D

 61 64  0     1  0  0  0  0  0999 V2000
    8.7763    0.8772    0.0271 F   0  0  0  0  0  0  0  0  0  0  0  0
    7.8437    2.6359    0.9018 F   0  0  0  0  0  0  0  0  0  0  0  0
    7.9464    2.4138   -1.2588 F   0  0  0  0  0  0  0  0  0  0  0  0
   -5.3705   -1.2516   -1.5848 O   0  0  0  0  0  0  0  0  0  0  0  0
   -5.9583    0.2433    0.0891 N   0  0  0  0  0  0  0  0  0  0  0  0
   -4.1424   -1.1314    0.3819 N   0  0  0  0  0  0  0  0  0  0  0  0
    2.6865   -0.9151   -0.0146 N   0  0  0  0  0  0  0  0  0  0  0  0
    2.5859   -2.1753   -0.4707 N   0  0  0  0  0  0  0  0  0  0  0  0
   -7.1008    0.8163   -0.5873 C   0  0  0  0  0  0  0  0  0  0  0  0
   -0.9065   -1.3326    0.6006 C   0  0  2  0  0  0  0  0  0  0  0  0
   -6.6823    1.9928   -1.4756 C   0  0  0  0  0  0  0  0  0  0  0  0
   -8.1818    1.2344    0.4152 C   0  0  0  0  0  0  0  0  0  0  0  0
   -1.8879   -1.5745   -0.5683 C   0  0  0  0  0  0  0  0  0  0  0  0
   -3.1646   -2.1610    0.0521 C   0  0  1  0  0  0  0  0  0  0  0  0
   -6.2868    3.2265   -0.6643 C   0  0  0  0  0  0  0  0  0  0  0  0
   -7.7838    2.4694    1.2234 C   0  0  0  0  0  0  0  0  0  0  0  0
   -7.3824    3.6297    0.3176 C   0  0  0  0  0  0  0  0  0  0  0  0
    0.5715   -1.3855    0.2616 C   0  0  0  0  0  0  0  0  0  0  0  0
   -1.3849   -2.3815    1.5717 C   0  0  0  0  0  0  0  0  0  0  0  0
   -2.6171   -2.8137    1.2801 C   0  0  0  0  0  0  0  0  0  0  0  0
   -5.1750   -0.7590   -0.4745 C   0  0  0  0  0  0  0  0  0  0  0  0
    1.5082   -0.3961    0.4356 C   0  0  0  0  0  0  0  0  0  0  0  0
    1.2916   -2.4572   -0.2993 C   0  0  0  0  0  0  0  0  0  0  0  0
    1.3803    0.9700    0.9826 C   0  0  0  0  0  0  0  0  0  0  0  0
    0.7809   -3.7828   -0.6908 C   0  0  0  0  0  0  0  0  0  0  0  0
    3.9226   -0.2682   -0.0355 C   0  0  0  0  0  0  0  0  0  0  0  0
    4.2201    0.6980    0.9257 C   0  0  0  0  0  0  0  0  0  0  0  0
    4.8595   -0.5853   -1.0190 C   0  0  0  0  0  0  0  0  0  0  0  0
    5.4545    1.3470    0.9032 C   0  0  0  0  0  0  0  0  0  0  0  0
    6.0939    0.0638   -1.0414 C   0  0  0  0  0  0  0  0  0  0  0  0
    6.3915    1.0299   -0.0804 C   0  0  0  0  0  0  0  0  0  0  0  0
    7.7118    1.7228   -0.1042 C   0  0  0  0  0  0  0  0  0  0  0  0
   -7.5209    0.0355   -1.2336 H   0  0  0  0  0  0  0  0  0  0  0  0
   -1.1304   -0.3579    1.0530 H   0  0  0  0  0  0  0  0  0  0  0  0
   -7.5209    2.2583   -2.1321 H   0  0  0  0  0  0  0  0  0  0  0  0
   -5.8491    1.7059   -2.1282 H   0  0  0  0  0  0  0  0  0  0  0  0
   -8.4051    0.4082    1.1009 H   0  0  0  0  0  0  0  0  0  0  0  0
   -9.1083    1.4541   -0.1306 H   0  0  0  0  0  0  0  0  0  0  0  0
   -2.0750   -0.6463   -1.1217 H   0  0  0  0  0  0  0  0  0  0  0  0
   -1.4780   -2.2886   -1.2919 H   0  0  0  0  0  0  0  0  0  0  0  0
   -3.6175   -2.8911   -0.6266 H   0  0  0  0  0  0  0  0  0  0  0  0
   -6.0786    4.0606   -1.3442 H   0  0  0  0  0  0  0  0  0  0  0  0
   -5.3585    3.0264   -0.1154 H   0  0  0  0  0  0  0  0  0  0  0  0
   -6.9547    2.2267    1.8984 H   0  0  0  0  0  0  0  0  0  0  0  0
   -8.6239    2.7755    1.8574 H   0  0  0  0  0  0  0  0  0  0  0  0
   -8.2611    3.9768   -0.2400 H   0  0  0  0  0  0  0  0  0  0  0  0
   -7.0392    4.4725    0.9280 H   0  0  0  0  0  0  0  0  0  0  0  0
   -0.8216   -2.7068    2.4353 H   0  0  0  0  0  0  0  0  0  0  0  0
   -3.1599   -3.5396    1.8686 H   0  0  0  0  0  0  0  0  0  0  0  0
   -5.6686    0.6332    0.9806 H   0  0  0  0  0  0  0  0  0  0  0  0
   -4.0454   -0.6348    1.2628 H   0  0  0  0  0  0  0  0  0  0  0  0
    1.5845    0.9992    2.0569 H   0  0  0  0  0  0  0  0  0  0  0  0
    1.9623    1.7199    0.4400 H   0  0  0  0  0  0  0  0  0  0  0  0
    0.3437    1.3123    0.8745 H   0  0  0  0  0  0  0  0  0  0  0  0
    0.2869   -3.7333   -1.6660 H   0  0  0  0  0  0  0  0  0  0  0  0
    1.5955   -4.5114   -0.7740 H   0  0  0  0  0  0  0  0  0  0  0  0
    0.0729   -4.1822    0.0394 H   0  0  0  0  0  0  0  0  0  0  0  0
    3.6035    0.9076    1.7884 H   0  0  0  0  0  0  0  0  0  0  0  0
    4.6536   -1.3252   -1.7884 H   0  0  0  0  0  0  0  0  0  0  0  0
    5.6786    2.0770    1.6763 H   0  0  0  0  0  0  0  0  0  0  0  0
    6.8168   -0.1881   -1.8127 H   0  0  0  0  0  0  0  0  0  0  0  0
  1 32  1  0  0  0  0
  2 32  1  0  0  0  0
  3 32  1  0  0  0  0
  4 21  2  0  0  0  0
  5  9  1  0  0  0  0
  5 21  1  0  0  0  0
  5 50  1  0  0  0  0
  6 14  1  0  0  0  0
  6 21  1  0  0  0  0
  6 51  1  0  0  0  0
  7  8  1  0  0  0  0
  7 22  1  0  0  0  0
  7 26  1  0  0  0  0
  8 23  2  0  0  0  0
  9 11  1  0  0  0  0
  9 12  1  0  0  0  0
  9 33  1  0  0  0  0
 10 13  1  0  0  0  0
 10 18  1  0  0  0  0
 10 19  1  0  0  0  0
 10 34  1  0  0  0  0
 11 15  1  0  0  0  0
 11 35  1  0  0  0  0
 11 36  1  0  0  0  0
 12 16  1  0  0  0  0
 12 37  1  0  0  0  0
 12 38  1  0  0  0  0
 13 14  1  0  0  0  0
 13 39  1  0  0  0  0
 13 40  1  0  0  0  0
 14 20  1  0  0  0  0
 14 41  1  0  0  0  0
 15 17  1  0  0  0  0
 15 42  1  0  0  0  0
 15 43  1  0  0  0  0
 16 17  1  0  0  0  0
 16 44  1  0  0  0  0
 16 45  1  0  0  0  0
 17 46  1  0  0  0  0
 17 47  1  0  0  0  0
 18 22  2  0  0  0  0
 18 23  1  0  0  0  0
 19 20  2  0  0  0  0
 19 48  1  0  0  0  0
 20 49  1  0  0  0  0
 22 24  1  0  0  0  0
 23 25  1  0  0  0  0
 24 52  1  0  0  0  0
 24 53  1  0  0  0  0
 24 54  1  0  0  0  0
 25 55  1  0  0  0  0
 25 56  1  0  0  0  0
 25 57  1  0  0  0  0
 26 27  2  0  0  0  0
 26 28  1  0  0  0  0
 27 29  1  0  0  0  0
 27 58  1  0  0  0  0
 28 30  2  0  0  0  0
 28 59  1  0  0  0  0
 29 31  2  0  0  0  0
 29 60  1  0  0  0  0
 30 31  1  0  0  0  0
 30 61  1  0  0  0  0
 31 32  1  0  0  0  0
M  END
> <PUBCHEM_COMPOUND_CID>
40777670

> <PUBCHEM_CONFORMER_RMSD>
1

> <PUBCHEM_CONFORMER_DIVERSEORDER>
4
222
114
85
147
98
225
197
188
29
195
90
22
118
217
44
177
165
52
145
201
122
207
224
107
140
214
102
175
31
88
77
81
11
106
199
120
137
95
182
142
79
78
211
124
158
170
133
173
49
10
84
129
42
126
219
204
196
181
89
134
194
65
80
70
109
25
123
180
150
156
113
157
33
94
99
135
191
117
183
223
83
39
55
154
105
151
205
92
72
67
75
130
32
40
36
21
227
210
148
19
18
47
104
111
220
149
86
152
193
56
141
9
136
139
74
108
176
38
17
174
91
64
215
103
96
132
131
190
66
143
82
202
35
146
50
48
198
138
192
206
97
171
167
178
125
163
200
161
13
115
218
45
155
12
16
164
179
112
160
212
26
121
15
166
54
93
184
208
34
6
71
24
187
172
37
59
76
221
23
51
30
20
61
116
228
168
58
119
63
7
28
169
14
41
186
127
128
53
3
185
27
60
1
46
226
2
110
73
216
162
203
144
159
213
62
5
68
8
153
69
189
101
43
87
100
57
209

> <PUBCHEM_MMFF94_PARTIAL_CHARGES>
34
1 -0.34
10 0.32
14 0.44
18 -0.18
19 -0.29
2 -0.34
20 -0.29
21 0.69
22 -0.33
23 0.11
24 0.18
25 0.18
26 -0.02
27 -0.15
28 -0.15
29 -0.15
3 -0.34
30 -0.15
31 -0.14
32 1.16
4 -0.57
48 0.15
49 0.15
5 -0.73
50 0.37
51 0.37
58 0.15
59 0.15
6 -0.73
60 0.15
61 0.15
7 0.59
8 -0.71
9 0.3

> <PUBCHEM_EFFECTIVE_ROTOR_COUNT>
8.8

> <PUBCHEM_PHARMACOPHORE_FEATURES>
8
1 4 acceptor
1 5 donor
1 6 donor
1 8 acceptor
5 10 13 14 19 20 rings
5 7 8 18 22 23 rings
6 26 27 28 29 30 31 rings
6 9 11 12 15 16 17 rings

> <PUBCHEM_HEAVY_ATOM_COUNT>
32

> <PUBCHEM_ATOM_DEF_STEREO_COUNT>
2

> <PUBCHEM_ATOM_UDEF_STEREO_COUNT>
0

> <PUBCHEM_BOND_DEF_STEREO_COUNT>
0

> <PUBCHEM_BOND_UDEF_STEREO_COUNT>
0

> <PUBCHEM_ISOTOPIC_ATOM_COUNT>
0

> <PUBCHEM_COMPONENT_COUNT>
1

> <PUBCHEM_CACTVS_TAUTO_COUNT>
3

> <PUBCHEM_CONFORMER_ID>
026E37C600000004

> <PUBCHEM_MMFF94_ENERGY>
61.5916

> <PUBCHEM_FEATURE_SELFOVERLAP>
40.649

> <PUBCHEM_SHAPE_FINGERPRINT>
10055352 69 18201434746128265057
10190206 1 17775011163172916105
10369192 42 18412827963679627135
10533779 1 18188759558223159069
10675989 125 18193277386623383227
10906281 52 18187653504684444279
11135609 201 18187081720885076627
11181472 205 18186804682736150524
11393246 34 9799689303671522341
11408170 132 18340495491560467596
11475781 23 18412268324507557438
11497681 19 10591754398619088970
11578821 258 18120094138188509668
12013929 29 17840592496864895353
12895837 130 18412543232811646791
12988421 55 17458334239747372051
13512321 179 17968105261061286372
13690498 29 17130410489158753543
13782708 43 9871746897293173727
14394314 77 18269843013428544057
14428016 167 9583519798148826269
14556957 393 15841562894148041833
14931854 50 17632582647329302720
15183329 4 17489308564490655579
15439362 3 18411138000521714326
15510800 12 9439400229411790489
15604295 49 18270395130656526928
15803439 3 16988839480225455271
16126227 98 18334860502889302877
16664035 1 17832988243518041643
16990366 60 9511455619756884364
16992727 255 18273214213738867924
16994733 274 18335416876456458265
1768 4 18411709773207328361
17899979 129 18200035032442850991
18603816 31 11963682158018971137
190975 80 8358254839455252854
19302320 297 18113624503441165453
19303781 99 10735574909769565641
19438510 23 18259704484820915995
2026 5 9223227439151820169
21033648 29 18268980042411629720
21298829 104 18410294713709579157
21307412 95 12823003241286636301
21424621 283 18261394408618085003
21585482 111 18336544898742699149
23389318 12 12103556516196720586
23559900 14 17130147744576163698
23569914 152 17339856166073532431
24771293 8 18333450937572409765
255183 451 10879986960983280362
3918712 181 18272082812507024928
393628 194 18334576888655304949
406291 66 9367050165666340109
4073 2 18334579040708629155
4169191 19 18409162195790929053
4339292 15 11671788135233118124
437795 83 18202285784437536289
44802255 64 17775005730255681615
44880568 143 18265341771220033020
4516262 110 18262227817473905127
5718773 13 9367341531514195037
57527295 17 18343009013633634899
5776283 40 18342455954752331521
5937810 71 18131637768727861585
59682541 35 11746936512544416244
6201320 82 18340785787630799104
6289498 60 17894343380581354668
636775 72 18336826484924043165
636775 8 9006790817286006296
6376802 90 18411145765785714223
6475588 51 18341330011785526337
6636798 310 13768223666739523013
6673363 416 18343581872577189653
6691757 9 16226044543955174611
9962374 69 10807929371693330738
999808 66 8718829777842252337

> <PUBCHEM_SHAPE_MULTIPOLES>
610.93
27.48
4.09
1.23
0.65
0.02
0
34.02
-2.84
-3.43
0.14
-0.56
-0.01
0.56

> <PUBCHEM_SHAPE_SELFOVERLAP>
1308.851

> <PUBCHEM_SHAPE_VOLUME>
340.3

> <PUBCHEM_COORDINATE_TYPE>
2
5
10

$$$$
