28962298
  -OEChem-12032416263D

 57 59  0     1  0  0  0  0  0999 V2000
    2.4215    1.7157    1.1122 O   0  0  0  0  0  0  0  0  0  0  0  0
    1.8627    2.6649   -1.6727 O   0  0  0  0  0  0  0  0  0  0  0  0
    2.5987   -5.1563   -0.3042 O   0  0  0  0  0  0  0  0  0  0  0  0
    4.7193    3.3247    1.3012 O   0  0  0  0  0  0  0  0  0  0  0  0
   -0.7225    1.8016   -0.7820 N   0  0  1  0  0  0  0  0  0  0  0  0
    2.1993   -1.0946    0.6802 N   0  0  0  0  0  0  0  0  0  0  0  0
   -5.0849    0.6730   -0.2928 N   0  0  0  0  0  0  0  0  0  0  0  0
    0.3075    2.2317    0.1473 C   0  0  1  0  0  0  0  0  0  0  0  0
    1.1438    1.1202    0.7943 C   0  0  1  0  0  0  0  0  0  0  0  0
    1.3624    3.1586   -0.4369 C   0  0  1  0  0  0  0  0  0  0  0  0
    2.4363    3.0772    0.6414 C   0  0  2  0  0  0  0  0  0  0  0  0
    1.4197   -0.1127   -0.0592 C   0  0  0  0  0  0  0  0  0  0  0  0
    2.4416   -2.2870   -0.1283 C   0  0  0  0  0  0  0  0  0  0  0  0
    3.8411    3.4366    0.1928 C   0  0  0  0  0  0  0  0  0  0  0  0
   -1.8873    1.2753   -0.0634 C   0  0  0  0  0  0  0  0  0  0  0  0
   -1.1294    2.9052   -1.6577 C   0  0  0  0  0  0  0  0  0  0  0  0
    3.6245   -3.0804    0.4341 C   0  0  0  0  0  0  0  0  0  0  0  0
    1.1951   -3.1755   -0.1874 C   0  0  0  0  0  0  0  0  0  0  0  0
   -2.7636    0.4282   -0.9864 C   0  0  0  0  0  0  0  0  0  0  0  0
    3.8002   -4.3860   -0.3338 C   0  0  0  0  0  0  0  0  0  0  0  0
    1.5056   -4.4757   -0.9208 C   0  0  0  0  0  0  0  0  0  0  0  0
   -3.9774   -0.1015   -0.2650 C   0  0  0  0  0  0  0  0  0  0  0  0
   -3.9039   -1.3275    0.3764 C   0  0  0  0  0  0  0  0  0  0  0  0
   -5.0407   -1.7882    1.0312 C   0  0  0  0  0  0  0  0  0  0  0  0
   -6.1702    0.1925    0.3546 C   0  0  0  0  0  0  0  0  0  0  0  0
   -6.1995   -1.0198    1.0248 C   0  0  0  0  0  0  0  0  0  0  0  0
   -0.1606    2.8024    0.9660 H   0  0  0  0  0  0  0  0  0  0  0  0
    0.6765    0.8096    1.7374 H   0  0  0  0  0  0  0  0  0  0  0  0
    1.0143    4.1867   -0.5835 H   0  0  0  0  0  0  0  0  0  0  0  0
    2.1540    3.6932    1.5049 H   0  0  0  0  0  0  0  0  0  0  0  0
    1.9719    0.1764   -0.9608 H   0  0  0  0  0  0  0  0  0  0  0  0
    0.4651   -0.5455   -0.3698 H   0  0  0  0  0  0  0  0  0  0  0  0
    2.7169   -1.9918   -1.1508 H   0  0  0  0  0  0  0  0  0  0  0  0
    3.0880   -0.6727    0.9501 H   0  0  0  0  0  0  0  0  0  0  0  0
    3.8819    4.4609   -0.1896 H   0  0  0  0  0  0  0  0  0  0  0  0
    4.2043    2.7447   -0.5737 H   0  0  0  0  0  0  0  0  0  0  0  0
   -1.5624    0.6294    0.7630 H   0  0  0  0  0  0  0  0  0  0  0  0
   -2.4706    2.0851    0.3963 H   0  0  0  0  0  0  0  0  0  0  0  0
    3.4374   -3.3147    1.4905 H   0  0  0  0  0  0  0  0  0  0  0  0
    4.5484   -2.4925    0.3847 H   0  0  0  0  0  0  0  0  0  0  0  0
    0.3608   -2.6778   -0.6917 H   0  0  0  0  0  0  0  0  0  0  0  0
    0.8697   -3.4144    0.8337 H   0  0  0  0  0  0  0  0  0  0  0  0
   -1.9519    2.6220   -2.3207 H   0  0  0  0  0  0  0  0  0  0  0  0
   -0.3396    3.2139   -2.3474 H   0  0  0  0  0  0  0  0  0  0  0  0
   -1.4590    3.7820   -1.0869 H   0  0  0  0  0  0  0  0  0  0  0  0
    2.4486    3.3451   -2.0457 H   0  0  0  0  0  0  0  0  0  0  0  0
   -2.1855   -0.4080   -1.4012 H   0  0  0  0  0  0  0  0  0  0  0  0
   -3.1270    1.0000   -1.8466 H   0  0  0  0  0  0  0  0  0  0  0  0
    4.0899   -4.2013   -1.3749 H   0  0  0  0  0  0  0  0  0  0  0  0
    4.5914   -4.9851    0.1280 H   0  0  0  0  0  0  0  0  0  0  0  0
    0.6365   -5.1402   -0.8837 H   0  0  0  0  0  0  0  0  0  0  0  0
    1.7380   -4.2931   -1.9766 H   0  0  0  0  0  0  0  0  0  0  0  0
    5.6082    3.5633    0.9875 H   0  0  0  0  0  0  0  0  0  0  0  0
   -2.9944   -1.9187    0.3771 H   0  0  0  0  0  0  0  0  0  0  0  0
   -5.0235   -2.7442    1.5460 H   0  0  0  0  0  0  0  0  0  0  0  0
   -7.0479    0.8294    0.3200 H   0  0  0  0  0  0  0  0  0  0  0  0
   -7.0972   -1.3591    1.5287 H   0  0  0  0  0  0  0  0  0  0  0  0
  1  9  1  0  0  0  0
  1 11  1  0  0  0  0
  2 10  1  0  0  0  0
  2 46  1  0  0  0  0
  3 20  1  0  0  0  0
  3 21  1  0  0  0  0
  4 14  1  0  0  0  0
  4 53  1  0  0  0  0
  5  8  1  0  0  0  0
  5 15  1  0  0  0  0
  5 16  1  0  0  0  0
  6 12  1  0  0  0  0
  6 13  1  0  0  0  0
  6 34  1  0  0  0  0
  7 22  1  0  0  0  0
  7 25  2  0  0  0  0
  8  9  1  0  0  0  0
  8 10  1  0  0  0  0
  8 27  1  0  0  0  0
  9 12  1  0  0  0  0
  9 28  1  0  0  0  0
 10 11  1  0  0  0  0
 10 29  1  0  0  0  0
 11 14  1  0  0  0  0
 11 30  1  0  0  0  0
 12 31  1  0  0  0  0
 12 32  1  0  0  0  0
 13 17  1  0  0  0  0
 13 18  1  0  0  0  0
 13 33  1  0  0  0  0
 14 35  1  0  0  0  0
 14 36  1  0  0  0  0
 15 19  1  0  0  0  0
 15 37  1  0  0  0  0
 15 38  1  0  0  0  0
 16 43  1  0  0  0  0
 16 44  1  0  0  0  0
 16 45  1  0  0  0  0
 17 20  1  0  0  0  0
 17 39  1  0  0  0  0
 17 40  1  0  0  0  0
 18 21  1  0  0  0  0
 18 41  1  0  0  0  0
 18 42  1  0  0  0  0
 19 22  1  0  0  0  0
 19 47  1  0  0  0  0
 19 48  1  0  0  0  0
 20 49  1  0  0  0  0
 20 50  1  0  0  0  0
 21 51  1  0  0  0  0
 21 52  1  0  0  0  0
 22 23  2  0  0  0  0
 23 24  1  0  0  0  0
 23 54  1  0  0  0  0
 24 26  2  0  0  0  0
 24 55  1  0  0  0  0
 25 26  1  0  0  0  0
 25 56  1  0  0  0  0
 26 57  1  0  0  0  0
M  END
> <PUBCHEM_COMPOUND_CID>
28962298

> <PUBCHEM_CONFORMER_RMSD>
1

> <PUBCHEM_CONFORMER_DIVERSEORDER>
1
25
3
61
34
37
58
68
42
54
11
62
14
15
36
32
59
17
43
28
2
35
51
55
20
29
50
26
9
65
67
18
30
21
57
49
33
22
56
66
19
38
48
6
44
5
16
23
12
39
52
13
53
10
7
24
47
40
31
27
45
41
60
64
4
46
8
63

> <PUBCHEM_MMFF94_PARTIAL_CHARGES>
31
1 -0.56
10 0.28
11 0.28
12 0.27
13 0.27
14 0.28
15 0.27
16 0.27
19 0.14
2 -0.68
20 0.28
21 0.28
22 0.17
23 -0.15
24 -0.15
25 0.16
26 -0.15
3 -0.56
34 0.36
4 -0.68
46 0.4
5 -0.81
53 0.4
54 0.15
55 0.15
56 0.15
57 0.15
6 -0.9
7 -0.62
8 0.27
9 0.28

> <PUBCHEM_EFFECTIVE_ROTOR_COUNT>
10.2

> <PUBCHEM_PHARMACOPHORE_FEATURES>
13
1 1 acceptor
1 2 acceptor
1 2 donor
1 3 acceptor
1 4 acceptor
1 4 donor
1 5 cation
1 6 cation
1 6 donor
1 7 acceptor
5 1 8 9 10 11 rings
6 3 13 17 18 20 21 rings
6 7 22 23 24 25 26 rings

> <PUBCHEM_HEAVY_ATOM_COUNT>
26

> <PUBCHEM_ATOM_DEF_STEREO_COUNT>
4

> <PUBCHEM_ATOM_UDEF_STEREO_COUNT>
0

> <PUBCHEM_BOND_DEF_STEREO_COUNT>
0

> <PUBCHEM_BOND_UDEF_STEREO_COUNT>
0

> <PUBCHEM_ISOTOPIC_ATOM_COUNT>
0

> <PUBCHEM_COMPONENT_COUNT>
1

> <PUBCHEM_CACTVS_TAUTO_COUNT>
2

> <PUBCHEM_CONFORMER_ID>
01B9EDFA00000001

> <PUBCHEM_MMFF94_ENERGY>
59.3488

> <PUBCHEM_FEATURE_SELFOVERLAP>
65.977

> <PUBCHEM_SHAPE_FINGERPRINT>
10064457 181 17836923769395245929
11070050 100 17773300439007134616
114674 6 18260266348042207283
11488393 25 18334867103889995146
11719270 70 18338792441568080096
12107183 9 18055083056326423169
12969540 37 18337108964959452780
13402501 40 18335423405292882571
13533116 47 18341895212928272073
13692114 37 17835230526015423691
138480 1 18339642230891167990
14028597 1 17703517665744405368
14251757 5 17471573231117481095
14363568 33 18341051830852825334
14790565 3 18050848016007366504
14863182 85 18263367043699234324
14866123 147 17907566279821289402
15352361 1 18194121815885262507
15420108 30 18124301968485621882
15927050 60 18126566945195875694
17859628 70 18411702079992401411
17909252 39 18336554836716052216
18681886 176 17901103341029829904
19319366 153 18129096904181548953
19611394 137 18262792948891561226
1979834 28 18335984284992419809
20028762 73 17837209642407665175
20775530 9 18192708938895233295
21049683 271 18335714810259718974
21120745 212 17767705862231455420
21344244 181 18196395799563377748
21365058 27 18122354737524215460
21781051 124 18043259127261335208
22956985 138 18335700508092573306
23466295 7 17762342409566057819
23559900 14 18337104576019756521
255183 313 17977365459522298072
283562 15 16251370299557624204
3117164 225 18125171442197891209
329604 57 18191594038542404894
3421961 26 18410857633745669011
38695281 34 18267864080468389624
4403749 210 17833537278082593065
4461854 278 17686921809239590131
5309563 4 18196089941767676951
613672 6 17978206288989659942
6669772 16 18270966872955823980
9658208 31 17766561627089017136
9777508 108 17261867166386404112

> <PUBCHEM_SHAPE_MULTIPOLES>
496.65
11.35
7.04
1.16
19.23
5.48
-0.17
4.13
3.53
-13.19
-1.06
0.02
-0.63
2.31

> <PUBCHEM_SHAPE_SELFOVERLAP>
1021.376

> <PUBCHEM_SHAPE_VOLUME>
284.5

> <PUBCHEM_COORDINATE_TYPE>
2
5
10

$$$$
