11884000
  -OEChem-12032416373D

 64 68  0     1  0  0  0  0  0999 V2000
    0.5967   -1.3864   -1.0851 O   0  0  0  0  0  0  0  0  0  0  0  0
   -0.2940   -3.0691    1.3188 O   0  0  0  0  0  0  0  0  0  0  0  0
    2.7975   -1.4053    0.6067 O   0  0  0  0  0  0  0  0  0  0  0  0
   -4.3537   -1.9129    0.2573 O   0  0  0  0  0  0  0  0  0  0  0  0
    3.0329    0.5783    1.7203 O   0  0  0  0  0  0  0  0  0  0  0  0
   -2.4912   -1.0032   -0.7670 N   0  0  0  0  0  0  0  0  0  0  0  0
   -4.4566    0.1862   -0.7887 N   0  0  0  0  0  0  0  0  0  0  0  0
    4.7187   -0.2573    0.3275 N   0  0  0  0  0  0  0  0  0  0  0  0
   -0.7979   -1.8285    0.7812 C   0  0  1  0  0  0  0  0  0  0  0  0
    0.4023   -1.0403    0.2964 C   0  0  1  0  0  0  0  0  0  0  0  0
   -1.5906   -2.0924   -0.4777 C   0  0  2  0  0  0  0  0  0  0  0  0
    1.5150   -1.5710    1.1680 C   0  0  1  0  0  0  0  0  0  0  0  0
   -0.4993   -2.2013   -1.5287 C   0  0  0  0  0  0  0  0  0  0  0  0
    1.1405   -3.0289    1.3113 C   0  0  0  0  0  0  0  0  0  0  0  0
   -3.8341   -0.9931   -0.3700 C   0  0  0  0  0  0  0  0  0  0  0  0
    3.4898   -0.2650    0.9583 C   0  0  0  0  0  0  0  0  0  0  0  0
   -5.8009    0.5770   -0.5868 C   0  0  0  0  0  0  0  0  0  0  0  0
    5.7343    0.7223    0.4119 C   0  0  0  0  0  0  0  0  0  0  0  0
   -6.6747   -0.2609    0.1062 C   0  0  0  0  0  0  0  0  0  0  0  0
   -6.2527    1.8009   -1.0806 C   0  0  0  0  0  0  0  0  0  0  0  0
    6.9438    0.5964   -0.2909 C   0  0  0  0  0  0  0  0  0  0  0  0
   -8.4520    1.3487   -0.1887 C   0  0  0  0  0  0  0  0  0  0  0  0
   -9.8693    1.7617    0.0231 C   0  0  0  0  0  0  0  0  0  0  0  0
   -8.0001    0.1250    0.3053 C   0  0  0  0  0  0  0  0  0  0  0  0
   -7.5782    2.1867   -0.8815 C   0  0  0  0  0  0  0  0  0  0  0  0
    5.4953    1.8304    1.2251 C   0  0  0  0  0  0  0  0  0  0  0  0
    7.9244    1.6093   -0.1670 C   0  0  0  0  0  0  0  0  0  0  0  0
    7.2016   -0.5120   -1.1138 C   0  0  0  0  0  0  0  0  0  0  0  0
    6.4595    2.8266    1.3466 C   0  0  0  0  0  0  0  0  0  0  0  0
  -10.2206    1.9178    1.5148 C   0  0  0  0  0  0  0  0  0  0  0  0
  -10.8691    0.8033   -0.6514 C   0  0  0  0  0  0  0  0  0  0  0  0
    7.6668    2.7180    0.6557 C   0  0  0  0  0  0  0  0  0  0  0  0
    9.1339    1.4838   -0.8696 C   0  0  0  0  0  0  0  0  0  0  0  0
    8.4088   -0.6205   -1.8044 C   0  0  0  0  0  0  0  0  0  0  0  0
    9.3733    0.3755   -1.6826 C   0  0  0  0  0  0  0  0  0  0  0  0
   -1.3555   -1.3240    1.5765 H   0  0  0  0  0  0  0  0  0  0  0  0
    0.2782    0.0450    0.3530 H   0  0  0  0  0  0  0  0  0  0  0  0
   -2.1678   -3.0220   -0.4276 H   0  0  0  0  0  0  0  0  0  0  0  0
    1.4442   -1.1174    2.1664 H   0  0  0  0  0  0  0  0  0  0  0  0
   -0.8118   -1.8774   -2.5262 H   0  0  0  0  0  0  0  0  0  0  0  0
   -0.1276   -3.2293   -1.6012 H   0  0  0  0  0  0  0  0  0  0  0  0
    1.5250   -3.4686    2.2366 H   0  0  0  0  0  0  0  0  0  0  0  0
    1.5072   -3.6369    0.4766 H   0  0  0  0  0  0  0  0  0  0  0  0
   -2.1184   -0.1762   -1.2236 H   0  0  0  0  0  0  0  0  0  0  0  0
   -3.8810    0.8486   -1.3025 H   0  0  0  0  0  0  0  0  0  0  0  0
    4.8900   -1.0630   -0.2626 H   0  0  0  0  0  0  0  0  0  0  0  0
   -6.3995   -1.2216    0.5178 H   0  0  0  0  0  0  0  0  0  0  0  0
   -5.5820    2.4632   -1.6221 H   0  0  0  0  0  0  0  0  0  0  0  0
  -10.0243    2.7470   -0.4374 H   0  0  0  0  0  0  0  0  0  0  0  0
   -8.6645   -0.5423    0.8476 H   0  0  0  0  0  0  0  0  0  0  0  0
   -7.9136    3.1434   -1.2729 H   0  0  0  0  0  0  0  0  0  0  0  0
    4.5962    2.0028    1.7967 H   0  0  0  0  0  0  0  0  0  0  0  0
    6.4942   -1.3230   -1.2534 H   0  0  0  0  0  0  0  0  0  0  0  0
    6.2745    3.6900    1.9793 H   0  0  0  0  0  0  0  0  0  0  0  0
  -10.1708    0.9632    2.0494 H   0  0  0  0  0  0  0  0  0  0  0  0
  -11.2360    2.3121    1.6306 H   0  0  0  0  0  0  0  0  0  0  0  0
   -9.5315    2.6139    2.0059 H   0  0  0  0  0  0  0  0  0  0  0  0
  -10.8452   -0.1957   -0.2030 H   0  0  0  0  0  0  0  0  0  0  0  0
  -10.6467    0.6974   -1.7190 H   0  0  0  0  0  0  0  0  0  0  0  0
  -11.8910    1.1865   -0.5573 H   0  0  0  0  0  0  0  0  0  0  0  0
    8.4063    3.5086    0.7656 H   0  0  0  0  0  0  0  0  0  0  0  0
    9.9020    2.2503   -0.7893 H   0  0  0  0  0  0  0  0  0  0  0  0
    8.5966   -1.4827   -2.4378 H   0  0  0  0  0  0  0  0  0  0  0  0
   10.3130    0.2905   -2.2205 H   0  0  0  0  0  0  0  0  0  0  0  0
  1 10  1  0  0  0  0
  1 13  1  0  0  0  0
  2  9  1  0  0  0  0
  2 14  1  0  0  0  0
  3 12  1  0  0  0  0
  3 16  1  0  0  0  0
  4 15  2  0  0  0  0
  5 16  2  0  0  0  0
  6 11  1  0  0  0  0
  6 15  1  0  0  0  0
  6 44  1  0  0  0  0
  7 15  1  0  0  0  0
  7 17  1  0  0  0  0
  7 45  1  0  0  0  0
  8 16  1  0  0  0  0
  8 18  1  0  0  0  0
  8 46  1  0  0  0  0
  9 10  1  0  0  0  0
  9 11  1  0  0  0  0
  9 36  1  0  0  0  0
 10 12  1  0  0  0  0
 10 37  1  0  0  0  0
 11 13  1  0  0  0  0
 11 38  1  0  0  0  0
 12 14  1  0  0  0  0
 12 39  1  0  0  0  0
 13 40  1  0  0  0  0
 13 41  1  0  0  0  0
 14 42  1  0  0  0  0
 14 43  1  0  0  0  0
 17 19  2  0  0  0  0
 17 20  1  0  0  0  0
 18 21  1  0  0  0  0
 18 26  2  0  0  0  0
 19 24  1  0  0  0  0
 19 47  1  0  0  0  0
 20 25  2  0  0  0  0
 20 48  1  0  0  0  0
 21 27  1  0  0  0  0
 21 28  2  0  0  0  0
 22 23  1  0  0  0  0
 22 24  2  0  0  0  0
 22 25  1  0  0  0  0
 23 30  1  0  0  0  0
 23 31  1  0  0  0  0
 23 49  1  0  0  0  0
 24 50  1  0  0  0  0
 25 51  1  0  0  0  0
 26 29  1  0  0  0  0
 26 52  1  0  0  0  0
 27 32  1  0  0  0  0
 27 33  2  0  0  0  0
 28 34  1  0  0  0  0
 28 53  1  0  0  0  0
 29 32  2  0  0  0  0
 29 54  1  0  0  0  0
 30 55  1  0  0  0  0
 30 56  1  0  0  0  0
 30 57  1  0  0  0  0
 31 58  1  0  0  0  0
 31 59  1  0  0  0  0
 31 60  1  0  0  0  0
 32 61  1  0  0  0  0
 33 35  1  0  0  0  0
 33 62  1  0  0  0  0
 34 35  2  0  0  0  0
 34 63  1  0  0  0  0
 35 64  1  0  0  0  0
M  END
> <PUBCHEM_COMPOUND_CID>
11884000

> <PUBCHEM_CONFORMER_RMSD>
1

> <PUBCHEM_CONFORMER_DIVERSEORDER>
1
110
183
171
144
104
52
201
94
204
44
130
131
203
11
172
91
56
150
125
83
111
86
41
98
189
50
214
22
51
137
174
73
29
68
62
123
122
176
102
169
45
152
60
162
97
199
132
153
103
180
46
178
170
218
145
209
88
89
200
213
92
113
159
80
33
206
106
23
128
146
166
79
184
121
120
75
197
195
163
25
188
164
216
165
78
151
175
93
36
87
117
38
192
219
220
160
109
28
143
108
211
2
182
139
147
196
64
126
70
190
77
124
210
194
138
161
14
35
72
69
54
208
112
95
85
24
61
100
185
217
177
158
65
66
207
107
215
156
47
34
59
4
155
21
53
105
40
63
149
58
140
10
12
27
135
198
49
181
118
127
74
119
20
212
67
154
42
17
101
191
133
148
76
142
115
57
55
71
16
31
30
32
8
202
114
43
205
134
157
173
193
13
187
3
96
84
179
136
186
37
6
19
167
15
39
168
81
26
99
7
18
5
129
48
90
141
82
9
116

> <PUBCHEM_MMFF94_PARTIAL_CHARGES>
45
1 -0.56
10 0.28
11 0.3
12 0.28
13 0.28
14 0.28
15 0.69
16 0.78
17 0.12
18 0.12
19 -0.15
2 -0.56
20 -0.15
22 -0.14
23 0.14
24 -0.15
25 -0.15
26 -0.15
28 -0.15
29 -0.15
3 -0.43
32 -0.15
33 -0.15
34 -0.15
35 -0.15
4 -0.57
44 0.37
45 0.37
46 0.37
47 0.15
48 0.15
5 -0.57
50 0.15
51 0.15
52 0.15
53 0.15
54 0.15
6 -0.73
61 0.15
62 0.15
63 0.15
64 0.15
7 -0.55
8 -0.55
9 0.28

> <PUBCHEM_EFFECTIVE_ROTOR_COUNT>
10.2

> <PUBCHEM_PHARMACOPHORE_FEATURES>
13
1 1 acceptor
1 2 acceptor
1 4 acceptor
1 5 acceptor
1 6 donor
1 7 donor
1 8 donor
3 23 30 31 hydrophobe
5 1 9 10 11 13 rings
5 2 9 10 12 14 rings
6 17 19 20 22 24 25 rings
6 18 21 26 27 29 32 rings
6 21 27 28 33 34 35 rings

> <PUBCHEM_HEAVY_ATOM_COUNT>
35

> <PUBCHEM_ATOM_DEF_STEREO_COUNT>
4

> <PUBCHEM_ATOM_UDEF_STEREO_COUNT>
0

> <PUBCHEM_BOND_DEF_STEREO_COUNT>
0

> <PUBCHEM_BOND_UDEF_STEREO_COUNT>
0

> <PUBCHEM_ISOTOPIC_ATOM_COUNT>
0

> <PUBCHEM_COMPONENT_COUNT>
1

> <PUBCHEM_CACTVS_TAUTO_COUNT>
6

> <PUBCHEM_CONFORMER_ID>
00B555E000000001

> <PUBCHEM_MMFF94_ENERGY>
111.8061

> <PUBCHEM_FEATURE_SELFOVERLAP>
66.767

> <PUBCHEM_SHAPE_FINGERPRINT>
10 15 17822007593411313915
10055352 69 18410008854404546785
10483366 6 17203611479897583602
106641 1 15068344514352561575
10930396 42 16153705424075706365
11181472 205 18130231449715101418
11409948 41 15912778185286141230
11411753 3 17344333712872623994
12013929 112 15482672352146589913
12098696 120 18409445890543226825
12202916 173 10663820797250530188
12539765 74 18413670201564842998
14040221 8 16128382528119647921
14359421 15 12679469676933633493
14400156 260 18336256895583965064
14617042 71 18409167697739207753
14664723 55 18131636690253181177
14747281 78 18410297991524428710
15065858 18 8070033246479778907
15183329 4 17489593381215686002
15188451 53 12535355602029214130
15320295 40 9295289443698219553
15347590 135 14996275907823528828
15350500 16 11455890256458439448
15392192 104 15502378911418669866
15455200 100 14275747342131810913
15706992 2 18187092749722606951
1577012 14 18336254708585936355
15840311 113 18335420140732050775
16992610 120 18186529808734141382
1754911 235 18273212006721815685
17686467 74 18187362161059342675
19302320 297 17748828540057130564
19303781 99 10663520609538913713
19304671 126 18131345345947948712
2026 5 9511473225260977345
20505436 4 18411692189016080551
20766409 102 18339077091908549397
21585482 111 18188202096931850445
22002106 203 8286190635990261817
23524908 199 17632301147189365366
23528940 14 11167677456537555740
23576562 1 17844513612752697533
23729398 52 17972593291316703362
24203241 11 13407372814793648353
24771293 8 17967811661328224831
25269216 80 17560505318792798327
2835820 33 18114184177547538115
2851757 41 9655577452469673317
3986486 107 18201439207812619412
3991529 128 17676496046373372661
4408954 87 11530482242559653296
44880568 143 18192432099037034700
4516262 110 18188479195711179391
474113 269 14979685356320015636
5718773 13 9943808910651677419
5719381 82 11167939174099630261
57359948 33 18339085986906587076
5758199 1 17967530177218240803
59682541 35 12468356864562776028
6201320 221 14763799503475190180
9689198 14 18410574002378968518
9937071 3 9295286166897194653
9962374 69 10737582638980322923

> <PUBCHEM_SHAPE_MULTIPOLES>
675.99
40.03
3.1
1.51
36.03
0.46
-0.01
-35.99
-8.69
-0.73
0.95
-1.73
0.11
1.36

> <PUBCHEM_SHAPE_SELFOVERLAP>
1473.771

> <PUBCHEM_SHAPE_VOLUME>
367.9

> <PUBCHEM_COORDINATE_TYPE>
2
5
10

$$$$
