75536822
  -OEChem-12032416313D

 45 47  0     1  0  0  0  0  0999 V2000
    0.4147   -0.9231    0.0060 O   0  0  0  0  0  0  0  0  0  0  0  0
   -0.8206    2.4352    0.3251 O   0  0  0  0  0  0  0  0  0  0  0  0
    3.7911    2.0105    0.0163 O   0  0  0  0  0  0  0  0  0  0  0  0
   -3.0375    0.2168    0.1253 N   0  0  0  0  0  0  0  0  0  0  0  0
    2.9170    0.0957    0.9922 N   0  0  0  0  0  0  0  0  0  0  0  0
   -8.0296   -0.3781    0.2707 N   0  0  0  0  0  0  0  0  0  0  0  0
   -1.6449    0.2217   -0.2924 C   0  0  1  0  0  0  0  0  0  0  0  0
   -0.7434    1.0506    0.6036 C   0  0  1  0  0  0  0  0  0  0  0  0
    0.6235    0.4769    0.2557 C   0  0  1  0  0  0  0  0  0  0  0  0
   -0.9923   -1.1473   -0.1920 C   0  0  0  0  0  0  0  0  0  0  0  0
    1.6482    0.6537    1.3620 C   0  0  0  0  0  0  0  0  0  0  0  0
   -3.9008   -0.2979   -0.9310 C   0  0  0  0  0  0  0  0  0  0  0  0
   -5.3460   -0.3259   -0.5100 C   0  0  0  0  0  0  0  0  0  0  0  0
    3.9017    0.8307    0.3389 C   0  0  0  0  0  0  0  0  0  0  0  0
   -5.8032   -1.3171    0.3514 C   0  0  0  0  0  0  0  0  0  0  0  0
   -6.2290    0.6392   -0.9814 C   0  0  0  0  0  0  0  0  0  0  0  0
    5.1505    0.1000    0.0015 C   0  0  0  0  0  0  0  0  0  0  0  0
   -7.1420   -1.2992    0.7082 C   0  0  0  0  0  0  0  0  0  0  0  0
   -7.5487    0.5697   -0.5649 C   0  0  0  0  0  0  0  0  0  0  0  0
    5.9269    0.5088   -1.0827 C   0  0  0  0  0  0  0  0  0  0  0  0
    5.5471   -0.9941    0.7703 C   0  0  0  0  0  0  0  0  0  0  0  0
    7.1001   -0.1767   -1.3984 C   0  0  0  0  0  0  0  0  0  0  0  0
    6.7203   -1.6794    0.4549 C   0  0  0  0  0  0  0  0  0  0  0  0
    7.4968   -1.2708   -0.6294 C   0  0  0  0  0  0  0  0  0  0  0  0
   -1.5571    0.6116   -1.3164 H   0  0  0  0  0  0  0  0  0  0  0  0
   -0.9824    0.8891    1.6622 H   0  0  0  0  0  0  0  0  0  0  0  0
    1.0059    0.9207   -0.6730 H   0  0  0  0  0  0  0  0  0  0  0  0
   -1.3525   -1.7184    0.6715 H   0  0  0  0  0  0  0  0  0  0  0  0
   -1.1394   -1.7526   -1.0915 H   0  0  0  0  0  0  0  0  0  0  0  0
    1.3324    0.1238    2.2674 H   0  0  0  0  0  0  0  0  0  0  0  0
    1.7743    1.7140    1.6062 H   0  0  0  0  0  0  0  0  0  0  0  0
   -3.3217    1.1712    0.3480 H   0  0  0  0  0  0  0  0  0  0  0  0
   -3.6104   -1.3189   -1.2097 H   0  0  0  0  0  0  0  0  0  0  0  0
   -3.7989    0.3107   -1.8390 H   0  0  0  0  0  0  0  0  0  0  0  0
   -0.6089    2.5704   -0.6141 H   0  0  0  0  0  0  0  0  0  0  0  0
    3.0456   -0.8951    1.1666 H   0  0  0  0  0  0  0  0  0  0  0  0
   -5.1417   -2.0852    0.7373 H   0  0  0  0  0  0  0  0  0  0  0  0
   -5.9076    1.4281   -1.6528 H   0  0  0  0  0  0  0  0  0  0  0  0
   -7.5484   -2.0504    1.3774 H   0  0  0  0  0  0  0  0  0  0  0  0
   -8.2772    1.2990   -0.9036 H   0  0  0  0  0  0  0  0  0  0  0  0
    5.6326    1.3561   -1.6964 H   0  0  0  0  0  0  0  0  0  0  0  0
    4.9889   -1.3258    1.6407 H   0  0  0  0  0  0  0  0  0  0  0  0
    7.7045    0.1410   -2.2430 H   0  0  0  0  0  0  0  0  0  0  0  0
    7.0335   -2.5270    1.0576 H   0  0  0  0  0  0  0  0  0  0  0  0
    8.4110   -1.8036   -0.8741 H   0  0  0  0  0  0  0  0  0  0  0  0
  1  9  1  0  0  0  0
  1 10  1  0  0  0  0
  2  8  1  0  0  0  0
  2 35  1  0  0  0  0
  3 14  2  0  0  0  0
  4  7  1  0  0  0  0
  4 12  1  0  0  0  0
  4 32  1  0  0  0  0
  5 11  1  0  0  0  0
  5 14  1  0  0  0  0
  5 36  1  0  0  0  0
  6 18  2  0  0  0  0
  6 19  1  0  0  0  0
  7  8  1  0  0  0  0
  7 10  1  0  0  0  0
  7 25  1  0  0  0  0
  8  9  1  0  0  0  0
  8 26  1  0  0  0  0
  9 11  1  0  0  0  0
  9 27  1  0  0  0  0
 10 28  1  0  0  0  0
 10 29  1  0  0  0  0
 11 30  1  0  0  0  0
 11 31  1  0  0  0  0
 12 13  1  0  0  0  0
 12 33  1  0  0  0  0
 12 34  1  0  0  0  0
 13 15  2  0  0  0  0
 13 16  1  0  0  0  0
 14 17  1  0  0  0  0
 15 18  1  0  0  0  0
 15 37  1  0  0  0  0
 16 19  2  0  0  0  0
 16 38  1  0  0  0  0
 17 20  2  0  0  0  0
 17 21  1  0  0  0  0
 18 39  1  0  0  0  0
 19 40  1  0  0  0  0
 20 22  1  0  0  0  0
 20 41  1  0  0  0  0
 21 23  2  0  0  0  0
 21 42  1  0  0  0  0
 22 24  2  0  0  0  0
 22 43  1  0  0  0  0
 23 24  1  0  0  0  0
 23 44  1  0  0  0  0
 24 45  1  0  0  0  0
M  END
> <PUBCHEM_COMPOUND_CID>
75536822

> <PUBCHEM_CONFORMER_RMSD>
0.8

> <PUBCHEM_CONFORMER_DIVERSEORDER>
1
263
105
289
268
170
118
127
107
9
274
185
134
135
235
131
80
120
198
143
61
278
4
232
178
26
44
58
181
99
197
196
77
219
65
50
53
153
212
35
85
132
100
67
205
150
266
249
66
23
84
101
182
213
176
270
229
239
258
8
32
276
284
49
16
40
199
167
173
174
111
83
201
209
195
243
68
283
133
33
125
256
48
15
252
282
19
149
13
281
240
76
222
110
169
265
121
214
275
251
119
253
28
114
123
122
160
234
43
228
247
115
161
29
106
279
264
57
112
193
165
190
230
206
255
250
269
96
245
2
216
226
218
104
177
248
208
45
46
280
17
130
142
126
79
207
74
210
179
102
261
11
236
14
129
56
272
157
262
116
286
192
147
163
124
69
189
42
51
215
36
244
271
180
223
277
273
151
175
38
98
211
31
81
238
52
187
39
25
140
172
62
154
242
78
128
204
86
225
108
136
285
47
183
217
109
152
287
34
63
260
144
137
94
64
54
75
24
231
220
6
146
155
267
241
237
203
162
103
194
259
60
168
184
7
30
186
156
254
20
3
158
257
191
41
117
233
37
88
27
97
90
91
139
59
227
5
164
200
188
224
12
288
246
93
95
202
18
82
113
89
71
145
159
72
22
141
10
87
148
21
70
55
138
92
166
73
171
221
290

> <PUBCHEM_MMFF94_PARTIAL_CHARGES>
36
1 -0.56
10 0.28
11 0.3
12 0.41
13 -0.14
14 0.54
15 -0.15
16 -0.15
17 0.09
18 0.16
19 0.16
2 -0.68
20 -0.15
21 -0.15
22 -0.15
23 -0.15
24 -0.15
3 -0.57
32 0.36
35 0.4
36 0.37
37 0.15
38 0.15
39 0.15
4 -0.9
40 0.15
41 0.15
42 0.15
43 0.15
44 0.15
45 0.15
5 -0.73
6 -0.62
7 0.27
8 0.28
9 0.28

> <PUBCHEM_EFFECTIVE_ROTOR_COUNT>
8

> <PUBCHEM_PHARMACOPHORE_FEATURES>
11
1 1 acceptor
1 2 acceptor
1 2 donor
1 3 acceptor
1 4 cation
1 4 donor
1 5 donor
1 6 acceptor
5 1 7 8 9 10 rings
6 17 20 21 22 23 24 rings
6 6 13 15 16 18 19 rings

> <PUBCHEM_HEAVY_ATOM_COUNT>
24

> <PUBCHEM_ATOM_DEF_STEREO_COUNT>
3

> <PUBCHEM_ATOM_UDEF_STEREO_COUNT>
0

> <PUBCHEM_BOND_DEF_STEREO_COUNT>
0

> <PUBCHEM_BOND_UDEF_STEREO_COUNT>
0

> <PUBCHEM_ISOTOPIC_ATOM_COUNT>
0

> <PUBCHEM_COMPONENT_COUNT>
1

> <PUBCHEM_CACTVS_TAUTO_COUNT>
2

> <PUBCHEM_CONFORMER_ID>
048099B600000001

> <PUBCHEM_MMFF94_ENERGY>
57.6759

> <PUBCHEM_FEATURE_SELFOVERLAP>
55.822

> <PUBCHEM_SHAPE_FINGERPRINT>
10 15 10592040267341444520
10162869 55 8934707873865560457
10299344 5 18186801374704088155
106641 1 8790877493471340469
11135609 127 17023477464635168452
11315181 36 14707207717893365101
11524674 6 17346877875499898655
11638347 137 12103852254712471892
12166972 35 18113338630460051028
125118 31 10231763296510984690
13533116 47 16443612515945143960
13673619 4 17917991668081152112
13685833 64 17775847913307173514
13885169 127 16056604218609298433
14216079 64 17775005665751588942
14251752 14 18341890779694022725
14251764 18 11672058644804861881
14294032 229 18125165935486081793
14347424 109 15410888583484517602
14856354 85 18040156241160196863
14933364 13 18040151825295331237
15131766 46 12821569533663797010
15183329 4 17846499231393102623
15352257 5 18409167731518937859
15849732 13 17748547051915676775
16090146 7 16733562536640562072
17093844 174 12751521782830966055
21150785 3 17022623078573322822
21267235 1 18412546509032949328
21365058 27 16081088178086510923
21781051 124 18410017671128997322
21792961 116 18337665326881480541
220451 1 16805314501296089603
221357 26 17821445747412577332
22224240 67 12967128306827527844
23035841 295 18272650160501123159
23081809 10 14707192302417359273
23559900 14 18200304554541115640
246663 6 18272654545135276658
24771293 8 11674876671690648367
28498 318 17775286040762854605
3004659 81 18413669119786127416
328311 84 18412546526566311223
34797466 226 16515405166393563590
4107672 100 17968089786393845061
444769 64 17775565356078339207
445580 37 17603580790875379797
5207 217 13695586655020056577
5758199 1 13912321266232776457
59682541 35 9727626202963398974
59755656 215 18272651225146799167
6394761 36 17846780702607543819
6438161 24 18334006165428178066

> <PUBCHEM_SHAPE_MULTIPOLES>
461.36
25.76
1.56
1.07
9.64
0.27
0.07
-8.34
5.14
-0.7
-0.22
-0.72
0.04
0.48

> <PUBCHEM_SHAPE_SELFOVERLAP>
977.89

> <PUBCHEM_SHAPE_VOLUME>
256.2

> <PUBCHEM_COORDINATE_TYPE>
2
5
10

$$$$
