75536710
  -OEChem-12032416313D

 57 59  0     1  0  0  0  0  0999 V2000
   -3.9491   -2.3210   -0.2605 S   0  0  0  0  0  0  0  0  0  0  0  0
   -3.1766    1.7480    1.3431 O   0  0  0  0  0  0  0  0  0  0  0  0
   -3.8755    3.9689   -0.8587 O   0  0  0  0  0  0  0  0  0  0  0  0
   -4.3213   -2.4715   -1.6544 O   0  0  0  0  0  0  0  0  0  0  0  0
   -4.5862   -3.1354    0.7565 O   0  0  0  0  0  0  0  0  0  0  0  0
    5.1534   -1.6529    0.8530 O   0  0  0  0  0  0  0  0  0  0  0  0
   -0.6066    2.5408   -0.1435 N   0  0  0  0  0  0  0  0  0  0  0  0
   -4.0749   -0.6832    0.1828 N   0  0  0  0  0  0  0  0  0  0  0  0
    5.3346    0.2498   -0.5273 N   0  0  0  0  0  0  0  0  0  0  0  0
   -1.8290    3.2859    0.1499 C   0  0  1  0  0  0  0  0  0  0  0  0
   -2.9722    2.8655   -0.7570 C   0  0  1  0  0  0  0  0  0  0  0  0
   -3.6619    1.7231   -0.0122 C   0  0  1  0  0  0  0  0  0  0  0  0
   -2.3679    2.9168    1.5223 C   0  0  0  0  0  0  0  0  0  0  0  0
   -3.3694    0.3507   -0.5993 C   0  0  0  0  0  0  0  0  0  0  0  0
    0.5455    3.1396    0.5198 C   0  0  0  0  0  0  0  0  0  0  0  0
    1.8124    2.3750    0.2421 C   0  0  0  0  0  0  0  0  0  0  0  0
   -2.2084   -2.5987   -0.1285 C   0  0  0  0  0  0  0  0  0  0  0  0
    2.7427    2.8733   -0.6699 C   0  0  0  0  0  0  0  0  0  0  0  0
    2.0559    1.1679    0.8976 C   0  0  0  0  0  0  0  0  0  0  0  0
   -1.6612   -3.0317    1.0793 C   0  0  0  0  0  0  0  0  0  0  0  0
   -1.3816   -2.3821   -1.2309 C   0  0  0  0  0  0  0  0  0  0  0  0
    3.9166    2.1649   -0.9263 C   0  0  0  0  0  0  0  0  0  0  0  0
    3.2296    0.4595    0.6413 C   0  0  0  0  0  0  0  0  0  0  0  0
    4.1600    0.9580   -0.2707 C   0  0  0  0  0  0  0  0  0  0  0  0
   -0.2874   -3.2483    1.1846 C   0  0  0  0  0  0  0  0  0  0  0  0
   -0.0077   -2.5986   -1.1256 C   0  0  0  0  0  0  0  0  0  0  0  0
    0.5394   -3.0318    0.0822 C   0  0  0  0  0  0  0  0  0  0  0  0
    2.0085   -3.2632    0.1950 C   0  0  0  0  0  0  0  0  0  0  0  0
    5.7497   -0.9676    0.0287 C   0  0  0  0  0  0  0  0  0  0  0  0
    7.0884   -1.4019   -0.5133 C   0  0  0  0  0  0  0  0  0  0  0  0
   -1.6422    4.3645    0.0794 H   0  0  0  0  0  0  0  0  0  0  0  0
   -2.6665    2.6107   -1.7769 H   0  0  0  0  0  0  0  0  0  0  0  0
   -4.7471    1.8768    0.0341 H   0  0  0  0  0  0  0  0  0  0  0  0
   -1.6134    2.7164    2.2871 H   0  0  0  0  0  0  0  0  0  0  0  0
   -3.0192    3.7118    1.9048 H   0  0  0  0  0  0  0  0  0  0  0  0
   -2.2937    0.1649   -0.5375 H   0  0  0  0  0  0  0  0  0  0  0  0
   -3.6877    0.3019   -1.6451 H   0  0  0  0  0  0  0  0  0  0  0  0
   -0.4445    2.5480   -1.1510 H   0  0  0  0  0  0  0  0  0  0  0  0
    0.4133    3.1777    1.6074 H   0  0  0  0  0  0  0  0  0  0  0  0
    0.6723    4.1800    0.1924 H   0  0  0  0  0  0  0  0  0  0  0  0
   -4.6201    3.6833   -1.4154 H   0  0  0  0  0  0  0  0  0  0  0  0
   -4.1653   -0.4821    1.1871 H   0  0  0  0  0  0  0  0  0  0  0  0
    2.5653    3.8111   -1.1895 H   0  0  0  0  0  0  0  0  0  0  0  0
    1.3374    0.7703    1.6099 H   0  0  0  0  0  0  0  0  0  0  0  0
   -2.2850   -3.1992    1.9526 H   0  0  0  0  0  0  0  0  0  0  0  0
   -1.7864   -2.0401   -2.1793 H   0  0  0  0  0  0  0  0  0  0  0  0
    4.6326    2.5649   -1.6397 H   0  0  0  0  0  0  0  0  0  0  0  0
    3.3492   -0.4649    1.1885 H   0  0  0  0  0  0  0  0  0  0  0  0
    0.1280   -3.5852    2.1307 H   0  0  0  0  0  0  0  0  0  0  0  0
    0.6258   -2.4260   -1.9916 H   0  0  0  0  0  0  0  0  0  0  0  0
    5.9617    0.6796   -1.2043 H   0  0  0  0  0  0  0  0  0  0  0  0
    2.3717   -2.9972    1.1933 H   0  0  0  0  0  0  0  0  0  0  0  0
    2.5641   -2.6509   -0.5233 H   0  0  0  0  0  0  0  0  0  0  0  0
    2.2384   -4.3164    0.0057 H   0  0  0  0  0  0  0  0  0  0  0  0
    7.8402   -0.6357   -0.3037 H   0  0  0  0  0  0  0  0  0  0  0  0
    7.0164   -1.5581   -1.5932 H   0  0  0  0  0  0  0  0  0  0  0  0
    7.3947   -2.3379   -0.0380 H   0  0  0  0  0  0  0  0  0  0  0  0
  1  4  2  0  0  0  0
  1  5  2  0  0  0  0
  1  8  1  0  0  0  0
  1 17  1  0  0  0  0
  2 12  1  0  0  0  0
  2 13  1  0  0  0  0
  3 11  1  0  0  0  0
  3 41  1  0  0  0  0
  6 29  2  0  0  0  0
  7 10  1  0  0  0  0
  7 15  1  0  0  0  0
  7 38  1  0  0  0  0
  8 14  1  0  0  0  0
  8 42  1  0  0  0  0
  9 24  1  0  0  0  0
  9 29  1  0  0  0  0
  9 51  1  0  0  0  0
 10 11  1  0  0  0  0
 10 13  1  0  0  0  0
 10 31  1  0  0  0  0
 11 12  1  0  0  0  0
 11 32  1  0  0  0  0
 12 14  1  0  0  0  0
 12 33  1  0  0  0  0
 13 34  1  0  0  0  0
 13 35  1  0  0  0  0
 14 36  1  0  0  0  0
 14 37  1  0  0  0  0
 15 16  1  0  0  0  0
 15 39  1  0  0  0  0
 15 40  1  0  0  0  0
 16 18  2  0  0  0  0
 16 19  1  0  0  0  0
 17 20  2  0  0  0  0
 17 21  1  0  0  0  0
 18 22  1  0  0  0  0
 18 43  1  0  0  0  0
 19 23  2  0  0  0  0
 19 44  1  0  0  0  0
 20 25  1  0  0  0  0
 20 45  1  0  0  0  0
 21 26  2  0  0  0  0
 21 46  1  0  0  0  0
 22 24  2  0  0  0  0
 22 47  1  0  0  0  0
 23 24  1  0  0  0  0
 23 48  1  0  0  0  0
 25 27  2  0  0  0  0
 25 49  1  0  0  0  0
 26 27  1  0  0  0  0
 26 50  1  0  0  0  0
 27 28  1  0  0  0  0
 28 52  1  0  0  0  0
 28 53  1  0  0  0  0
 28 54  1  0  0  0  0
 29 30  1  0  0  0  0
 30 55  1  0  0  0  0
 30 56  1  0  0  0  0
 30 57  1  0  0  0  0
M  END
> <PUBCHEM_COMPOUND_CID>
75536710

> <PUBCHEM_CONFORMER_RMSD>
1.2

> <PUBCHEM_CONFORMER_DIVERSEORDER>
2
203
124
43
70
191
138
167
15
64
46
112
81
174
179
60
39
145
51
125
31
146
55
56
156
13
76
182
171
150
95
177
1
33
197
166
68
30
54
8
66
130
57
202
119
85
178
32
195
47
134
104
6
90
103
14
118
12
5
109
175
193
52
101
165
155
143
28
151
83
53
23
126
122
105
25
131
35
4
172
157
21
158
128
121
115
79
160
136
71
18
107
58
186
170
3
49
153
108
137
123
98
67
129
74
161
183
19
73
27
102
169
176
36
50
69
75
187
120
86
38
44
190
201
173
42
142
48
110
135
144
154
37
181
45
192
185
164
100
80
168
159
114
20
147
188
87
196
40
148
99
22
34
116
9
97
78
133
140
111
89
141
26
194
88
127
17
72
200
84
10
106
180
63
113
152
199
61
91
92
59
16
163
162
132
62
24
11
29
189
41
65
7
149
82
93
139
198
184
96
94
117
77

> <PUBCHEM_MMFF94_PARTIAL_CHARGES>
42
1 1.45
10 0.27
11 0.28
12 0.28
13 0.28
14 0.36
15 0.41
16 -0.14
17 -0.01
18 -0.15
19 -0.15
2 -0.56
20 -0.15
21 -0.15
22 -0.15
23 -0.15
24 0.12
25 -0.15
26 -0.15
27 -0.14
28 0.14
29 0.57
3 -0.68
30 0.06
38 0.36
4 -0.65
41 0.4
42 0.42
43 0.15
44 0.15
45 0.15
46 0.15
47 0.15
48 0.15
49 0.15
5 -0.65
50 0.15
51 0.37
6 -0.57
7 -0.9
8 -0.91
9 -0.55

> <PUBCHEM_EFFECTIVE_ROTOR_COUNT>
10

> <PUBCHEM_PHARMACOPHORE_FEATURES>
13
1 2 acceptor
1 3 acceptor
1 3 donor
1 4 acceptor
1 5 acceptor
1 6 acceptor
1 7 cation
1 7 donor
1 8 donor
1 9 donor
5 2 10 11 12 13 rings
6 16 18 19 22 23 24 rings
6 17 20 21 25 26 27 rings

> <PUBCHEM_HEAVY_ATOM_COUNT>
30

> <PUBCHEM_ATOM_DEF_STEREO_COUNT>
3

> <PUBCHEM_ATOM_UDEF_STEREO_COUNT>
0

> <PUBCHEM_BOND_DEF_STEREO_COUNT>
0

> <PUBCHEM_BOND_UDEF_STEREO_COUNT>
0

> <PUBCHEM_ISOTOPIC_ATOM_COUNT>
0

> <PUBCHEM_COMPONENT_COUNT>
1

> <PUBCHEM_CACTVS_TAUTO_COUNT>
3

> <PUBCHEM_CONFORMER_ID>
0480994600000002

> <PUBCHEM_MMFF94_ENERGY>
61.8633

> <PUBCHEM_FEATURE_SELFOVERLAP>
65.992

> <PUBCHEM_SHAPE_FINGERPRINT>
10190206 1 17757862261378743412
10670039 82 18410852170626792522
10864689 126 17402058790737595230
1100329 8 17977099059469176806
12522641 33 18118116971500060357
12645989 146 18200032992138519022
12788726 201 18266173018621009328
12978246 48 18338797797386802609
13122387 1 18411135822966968097
13165053 182 16954821828240250516
14117953 113 17473249986317729924
14251757 5 18120101842509583572
14289585 56 17240479157518985972
14466204 15 18410853236021417938
14725015 67 18339356469927336811
14866123 147 18338234865188503530
15001296 14 18334850662533964520
15297060 5 17773877497796286634
15322534 239 18407760339565992882
15927050 60 18340481150670278381
16112460 7 18271821154140087976
17627616 140 18118118078641039426
19930381 70 16681468027909666875
20764821 26 18339096924837153860
20775438 99 16330156436579765791
3027735 51 18412258472037235369
3052486 1 18410296874621324598
338550 245 18335707109446524172
373842 8 18122339082679950106
392239 28 18338812186144643387
437795 70 18126868027241618334
463206 1 18268989774322719352
508706 21 18411707564555102814
6437827 68 18411421696322343412

> <PUBCHEM_SHAPE_MULTIPOLES>
576.95
11.88
6.36
1.2
15.22
0.61
0.03
-2.86
-1.68
-4.91
0.21
-0.6
-0.15
-0.57

> <PUBCHEM_SHAPE_SELFOVERLAP>
1199.048

> <PUBCHEM_SHAPE_VOLUME>
329.9

> <PUBCHEM_COORDINATE_TYPE>
2
5
10

$$$$
