7155413
  -OEChem-12032416173D

 47 51  0     1  0  0  0  0  0999 V2000
    1.3073    3.8531   -0.4625 S   0  0  0  0  0  0  0  0  0  0  0  0
    2.0482   -2.7405    2.4234 O   0  0  0  0  0  0  0  0  0  0  0  0
    3.6255    1.4039   -0.0436 O   0  0  0  0  0  0  0  0  0  0  0  0
    0.9972   -1.9203    0.4977 N   0  0  0  0  0  0  0  0  0  0  0  0
    1.9091    0.4827   -1.3367 N   0  0  0  0  0  0  0  0  0  0  0  0
    2.1701   -1.9445   -1.7842 C   0  0  2  0  0  0  0  0  0  0  0  0
   -0.0847   -0.9839   -1.5686 C   0  0  2  0  0  0  0  0  0  0  0  0
    0.7571   -1.9950   -2.3462 C   0  0  0  0  0  0  0  0  0  0  0  0
    2.1261   -2.3875   -0.3206 C   0  0  0  0  0  0  0  0  0  0  0  0
    2.7656   -0.5351   -1.9421 C   0  0  0  0  0  0  0  0  0  0  0  0
    0.5019    0.4317   -1.7598 C   0  0  0  0  0  0  0  0  0  0  0  0
   -0.1446   -1.3281   -0.0783 C   0  0  0  0  0  0  0  0  0  0  0  0
   -1.2284   -1.0545    0.6939 C   0  0  0  0  0  0  0  0  0  0  0  0
    1.0828   -2.2130    1.8703 C   0  0  0  0  0  0  0  0  0  0  0  0
    2.4475    1.3637   -0.3956 C   0  0  0  0  0  0  0  0  0  0  0  0
   -1.1747   -1.3386    2.1151 C   0  0  0  0  0  0  0  0  0  0  0  0
   -0.0974   -1.8675    2.6950 C   0  0  0  0  0  0  0  0  0  0  0  0
   -2.4574   -0.4563    0.1274 C   0  0  0  0  0  0  0  0  0  0  0  0
    1.5452    2.3205    0.2558 C   0  0  0  0  0  0  0  0  0  0  0  0
   -2.5875    0.9279    0.0669 C   0  0  0  0  0  0  0  0  0  0  0  0
   -3.4747   -1.2818   -0.3419 C   0  0  0  0  0  0  0  0  0  0  0  0
    0.8240    2.1670    1.4147 C   0  0  0  0  0  0  0  0  0  0  0  0
   -3.7459    1.4920   -0.4676 C   0  0  0  0  0  0  0  0  0  0  0  0
   -4.6329   -0.7177   -0.8765 C   0  0  0  0  0  0  0  0  0  0  0  0
    0.0596    3.3296    1.7212 C   0  0  0  0  0  0  0  0  0  0  0  0
   -4.7685    0.6692   -0.9394 C   0  0  0  0  0  0  0  0  0  0  0  0
    0.2297    4.3231    0.7824 C   0  0  0  0  0  0  0  0  0  0  0  0
    2.8122   -2.6398   -2.3388 H   0  0  0  0  0  0  0  0  0  0  0  0
   -1.0868   -1.0012   -2.0112 H   0  0  0  0  0  0  0  0  0  0  0  0
    0.3371   -3.0043   -2.2525 H   0  0  0  0  0  0  0  0  0  0  0  0
    0.7620   -1.7473   -3.4148 H   0  0  0  0  0  0  0  0  0  0  0  0
    2.0746   -3.4848   -0.2906 H   0  0  0  0  0  0  0  0  0  0  0  0
    3.0616   -2.1186    0.1866 H   0  0  0  0  0  0  0  0  0  0  0  0
    3.7733   -0.4999   -1.5146 H   0  0  0  0  0  0  0  0  0  0  0  0
    2.8573   -0.2842   -3.0058 H   0  0  0  0  0  0  0  0  0  0  0  0
    0.4835    0.7008   -2.8234 H   0  0  0  0  0  0  0  0  0  0  0  0
   -0.0983    1.1778   -1.2403 H   0  0  0  0  0  0  0  0  0  0  0  0
   -2.0425   -1.0953    2.7212 H   0  0  0  0  0  0  0  0  0  0  0  0
   -0.0637   -2.0703    3.7587 H   0  0  0  0  0  0  0  0  0  0  0  0
   -1.8094    1.5838    0.4365 H   0  0  0  0  0  0  0  0  0  0  0  0
   -3.3825   -2.3642   -0.3000 H   0  0  0  0  0  0  0  0  0  0  0  0
    0.8422    1.2708    2.0207 H   0  0  0  0  0  0  0  0  0  0  0  0
   -3.8520    2.5718   -0.5147 H   0  0  0  0  0  0  0  0  0  0  0  0
   -5.4293   -1.3582   -1.2441 H   0  0  0  0  0  0  0  0  0  0  0  0
   -0.5824    3.4316    2.5864 H   0  0  0  0  0  0  0  0  0  0  0  0
   -5.6706    1.1083   -1.3553 H   0  0  0  0  0  0  0  0  0  0  0  0
   -0.2278    5.3022    0.7677 H   0  0  0  0  0  0  0  0  0  0  0  0
  1 19  1  0  0  0  0
  1 27  1  0  0  0  0
  2 14  2  0  0  0  0
  3 15  2  0  0  0  0
  4  9  1  0  0  0  0
  4 12  1  0  0  0  0
  4 14  1  0  0  0  0
  5 10  1  0  0  0  0
  5 11  1  0  0  0  0
  5 15  1  0  0  0  0
  6  8  1  0  0  0  0
  6  9  1  0  0  0  0
  6 10  1  0  0  0  0
  6 28  1  0  0  0  0
  7  8  1  0  0  0  0
  7 11  1  0  0  0  0
  7 12  1  0  0  0  0
  7 29  1  0  0  0  0
  8 30  1  0  0  0  0
  8 31  1  0  0  0  0
  9 32  1  0  0  0  0
  9 33  1  0  0  0  0
 10 34  1  0  0  0  0
 10 35  1  0  0  0  0
 11 36  1  0  0  0  0
 11 37  1  0  0  0  0
 12 13  2  0  0  0  0
 13 16  1  0  0  0  0
 13 18  1  0  0  0  0
 14 17  1  0  0  0  0
 15 19  1  0  0  0  0
 16 17  2  0  0  0  0
 16 38  1  0  0  0  0
 17 39  1  0  0  0  0
 18 20  2  0  0  0  0
 18 21  1  0  0  0  0
 19 22  2  0  0  0  0
 20 23  1  0  0  0  0
 20 40  1  0  0  0  0
 21 24  2  0  0  0  0
 21 41  1  0  0  0  0
 22 25  1  0  0  0  0
 22 42  1  0  0  0  0
 23 26  2  0  0  0  0
 23 43  1  0  0  0  0
 24 26  1  0  0  0  0
 24 44  1  0  0  0  0
 25 27  2  0  0  0  0
 25 45  1  0  0  0  0
 26 46  1  0  0  0  0
 27 47  1  0  0  0  0
M  END
> <PUBCHEM_COMPOUND_CID>
7155413

> <PUBCHEM_CONFORMER_RMSD>
0.8

> <PUBCHEM_CONFORMER_DIVERSEORDER>
1
6
4
5
2
3

> <PUBCHEM_MMFF94_PARTIAL_CHARGES>
35
1 -0.08
10 0.3
11 0.3
12 -0.03
13 -0.03
14 0.62
15 0.71
16 -0.15
17 -0.14
18 0.03
19 -0.05
2 -0.57
20 -0.15
21 -0.15
22 -0.15
23 -0.15
24 -0.15
25 -0.15
26 -0.15
27 -0.11
3 -0.57
38 0.15
39 0.15
4 -0.47
40 0.15
41 0.15
42 0.15
43 0.15
44 0.15
45 0.15
46 0.15
47 0.15
5 -0.66
7 0.14
9 0.3

> <PUBCHEM_EFFECTIVE_ROTOR_COUNT>
4

> <PUBCHEM_PHARMACOPHORE_FEATURES>
7
1 2 acceptor
1 3 acceptor
5 1 19 22 25 27 rings
6 18 20 21 23 24 26 rings
6 4 12 13 14 16 17 rings
6 4 6 7 8 9 12 rings
6 5 6 7 8 10 11 rings

> <PUBCHEM_HEAVY_ATOM_COUNT>
27

> <PUBCHEM_ATOM_DEF_STEREO_COUNT>
2

> <PUBCHEM_ATOM_UDEF_STEREO_COUNT>
0

> <PUBCHEM_BOND_DEF_STEREO_COUNT>
0

> <PUBCHEM_BOND_UDEF_STEREO_COUNT>
0

> <PUBCHEM_ISOTOPIC_ATOM_COUNT>
0

> <PUBCHEM_COMPONENT_COUNT>
1

> <PUBCHEM_CACTVS_TAUTO_COUNT>
1

> <PUBCHEM_CONFORMER_ID>
006D2ED500000001

> <PUBCHEM_MMFF94_ENERGY>
76.8708

> <PUBCHEM_FEATURE_SELFOVERLAP>
37.107

> <PUBCHEM_SHAPE_FINGERPRINT>
107951 10 17755857872343311920
11221954 11 17977670036763791269
11582403 64 18120639482115338503
11725454 13 18118955030449057935
12156800 1 15147666379604225521
12788726 201 17907593431760639348
13009979 54 17538559907898858915
13294875 104 18187356649260723163
1361 2 17264120057970776981
14142880 1 15752898615322487392
14251764 3 18049730920836105059
16945 1 18195831745149239702
17974551 9 17461145832512595576
17980427 23 17768485604727678307
19930381 70 17914617400403236901
20600515 1 17762593124187487257
20691752 17 17603590682073973981
20905425 154 18338783512568526169
21860390 5 18267559408568530925
23419403 2 17689756298675908099
23559900 14 18059849576492125503
238 59 17984992754129342061
2803657 2 17685793327729646120
3052486 1 17403736653786841425
35225 105 16958696583286330945
513532 50 17985799624293095541
57527295 17 18265071170599953711
5895379 119 17771341968554306697
6438718 38 17120058307133946632
70251023 43 17985010114192201399
84936 182 18187078447460464291

> <PUBCHEM_SHAPE_MULTIPOLES>
537.8
5.65
4.54
2.43
7.44
4.58
-0.92
0.53
2.61
-3.09
-1.58
-0.91
-1.79
0.38

> <PUBCHEM_SHAPE_SELFOVERLAP>
1180.331

> <PUBCHEM_SHAPE_VOLUME>
290.4

> <PUBCHEM_COORDINATE_TYPE>
2
5
10

$$$$
