11913347
  -OEChem-12032416163D

 52 56  0     1  0  0  0  0  0999 V2000
    2.9078   -3.4410    2.2366 F   0  0  0  0  0  0  0  0  0  0  0  0
   -1.1767    3.6397    0.7450 O   0  0  0  0  0  0  0  0  0  0  0  0
   -0.5440    0.7802    1.8352 O   0  0  0  0  0  0  0  0  0  0  0  0
   -5.2947    0.7089    1.3784 O   0  0  0  0  0  0  0  0  0  0  0  0
    1.4751    2.6916   -0.5299 N   0  0  0  0  0  0  0  0  0  0  0  0
   -3.2373    0.6201    0.3120 N   0  0  0  0  0  0  0  0  0  0  0  0
    2.8773    0.8164   -0.3761 N   0  0  0  0  0  0  0  0  0  0  0  0
    2.9541    2.2643   -2.3009 N   0  0  0  0  0  0  0  0  0  0  0  0
   -0.2743    1.4434    0.5889 C   0  0  1  0  0  0  0  0  0  0  0  0
   -1.4740    2.3151    0.2729 C   0  0  1  0  0  0  0  0  0  0  0  0
    0.8629    2.4239    0.7531 C   0  0  2  0  0  0  0  0  0  0  0  0
   -2.5939    1.7108    1.0846 C   0  0  2  0  0  0  0  0  0  0  0  0
    0.1594    3.6658    1.2684 C   0  0  0  0  0  0  0  0  0  0  0  0
   -1.8645    1.1260    2.2782 C   0  0  0  0  0  0  0  0  0  0  0  0
    2.4648    1.9005   -1.0856 C   0  0  0  0  0  0  0  0  0  0  0  0
   -4.5458    0.2186    0.5373 C   0  0  0  0  0  0  0  0  0  0  0  0
   -5.0344   -0.9056   -0.3020 C   0  0  0  0  0  0  0  0  0  0  0  0
    3.8434    0.0676   -0.9472 C   0  0  0  0  0  0  0  0  0  0  0  0
   -6.0366   -1.7174    0.1874 C   0  0  0  0  0  0  0  0  0  0  0  0
   -4.4706   -1.1009   -1.5459 C   0  0  0  0  0  0  0  0  0  0  0  0
    3.9179    1.4710   -2.8129 C   0  0  0  0  0  0  0  0  0  0  0  0
    4.4063    0.3491   -2.1753 C   0  0  0  0  0  0  0  0  0  0  0  0
    4.2656   -1.0785   -0.1782 C   0  0  0  0  0  0  0  0  0  0  0  0
   -6.4958   -2.7714   -0.6023 C   0  0  0  0  0  0  0  0  0  0  0  0
   -4.9297   -2.1551   -2.3355 C   0  0  0  0  0  0  0  0  0  0  0  0
   -5.9423   -2.9905   -1.8638 C   0  0  0  0  0  0  0  0  0  0  0  0
    3.3654   -1.7199    0.6755 C   0  0  0  0  0  0  0  0  0  0  0  0
    5.5758   -1.5503   -0.2850 C   0  0  0  0  0  0  0  0  0  0  0  0
    3.7732   -2.8276    1.4186 C   0  0  0  0  0  0  0  0  0  0  0  0
    5.9836   -2.6581    0.4582 C   0  0  0  0  0  0  0  0  0  0  0  0
    5.0823   -3.2966    1.3100 C   0  0  0  0  0  0  0  0  0  0  0  0
   -0.1059    0.6650   -0.1623 H   0  0  0  0  0  0  0  0  0  0  0  0
   -1.6815    2.3879   -0.7996 H   0  0  0  0  0  0  0  0  0  0  0  0
    1.6161    2.1081    1.4842 H   0  0  0  0  0  0  0  0  0  0  0  0
   -3.3622    2.4261    1.3942 H   0  0  0  0  0  0  0  0  0  0  0  0
    0.0789    3.6442    2.3609 H   0  0  0  0  0  0  0  0  0  0  0  0
    0.6432    4.6038    0.9794 H   0  0  0  0  0  0  0  0  0  0  0  0
   -1.7534    1.8742    3.0708 H   0  0  0  0  0  0  0  0  0  0  0  0
   -2.3457    0.2413    2.7059 H   0  0  0  0  0  0  0  0  0  0  0  0
    1.1388    3.4665   -1.0903 H   0  0  0  0  0  0  0  0  0  0  0  0
   -2.6396    0.0960   -0.3183 H   0  0  0  0  0  0  0  0  0  0  0  0
   -6.4746   -1.5635    1.1690 H   0  0  0  0  0  0  0  0  0  0  0  0
   -3.7062   -0.4537   -1.9632 H   0  0  0  0  0  0  0  0  0  0  0  0
    4.2950    1.7692   -3.7854 H   0  0  0  0  0  0  0  0  0  0  0  0
    5.1645   -0.2565   -2.6549 H   0  0  0  0  0  0  0  0  0  0  0  0
   -7.2837   -3.4225   -0.2348 H   0  0  0  0  0  0  0  0  0  0  0  0
   -4.5046   -2.3213   -3.3211 H   0  0  0  0  0  0  0  0  0  0  0  0
   -6.3009   -3.8103   -2.4793 H   0  0  0  0  0  0  0  0  0  0  0  0
    2.3351   -1.3866    0.7764 H   0  0  0  0  0  0  0  0  0  0  0  0
    6.3175   -1.0686   -0.9164 H   0  0  0  0  0  0  0  0  0  0  0  0
    7.0044   -3.0203    0.3786 H   0  0  0  0  0  0  0  0  0  0  0  0
    5.3999   -4.1582    1.8898 H   0  0  0  0  0  0  0  0  0  0  0  0
  1 29  1  0  0  0  0
  2 10  1  0  0  0  0
  2 13  1  0  0  0  0
  3  9  1  0  0  0  0
  3 14  1  0  0  0  0
  4 16  2  0  0  0  0
  5 11  1  0  0  0  0
  5 15  1  0  0  0  0
  5 40  1  0  0  0  0
  6 12  1  0  0  0  0
  6 16  1  0  0  0  0
  6 41  1  0  0  0  0
  7 15  1  0  0  0  0
  7 18  2  0  0  0  0
  8 15  2  0  0  0  0
  8 21  1  0  0  0  0
  9 10  1  0  0  0  0
  9 11  1  0  0  0  0
  9 32  1  0  0  0  0
 10 12  1  0  0  0  0
 10 33  1  0  0  0  0
 11 13  1  0  0  0  0
 11 34  1  0  0  0  0
 12 14  1  0  0  0  0
 12 35  1  0  0  0  0
 13 36  1  0  0  0  0
 13 37  1  0  0  0  0
 14 38  1  0  0  0  0
 14 39  1  0  0  0  0
 16 17  1  0  0  0  0
 17 19  2  0  0  0  0
 17 20  1  0  0  0  0
 18 22  1  0  0  0  0
 18 23  1  0  0  0  0
 19 24  1  0  0  0  0
 19 42  1  0  0  0  0
 20 25  2  0  0  0  0
 20 43  1  0  0  0  0
 21 22  2  0  0  0  0
 21 44  1  0  0  0  0
 22 45  1  0  0  0  0
 23 27  2  0  0  0  0
 23 28  1  0  0  0  0
 24 26  2  0  0  0  0
 24 46  1  0  0  0  0
 25 26  1  0  0  0  0
 25 47  1  0  0  0  0
 26 48  1  0  0  0  0
 27 29  1  0  0  0  0
 27 49  1  0  0  0  0
 28 30  2  0  0  0  0
 28 50  1  0  0  0  0
 29 31  2  0  0  0  0
 30 31  1  0  0  0  0
 30 51  1  0  0  0  0
 31 52  1  0  0  0  0
M  END
> <PUBCHEM_COMPOUND_CID>
11913347

> <PUBCHEM_CONFORMER_RMSD>
1

> <PUBCHEM_CONFORMER_DIVERSEORDER>
1
58
208
199
185
268
104
262
117
148
15
156
273
46
211
205
134
299
129
29
18
212
33
91
284
28
289
84
223
272
170
184
183
101
31
179
189
44
197
270
140
187
147
178
167
50
266
165
88
217
69
269
21
81
288
86
193
105
66
110
181
236
103
138
244
142
256
95
39
127
204
135
30
32
292
252
285
210
79
53
203
249
157
102
234
130
297
163
176
17
67
201
209
222
245
202
145
41
120
93
215
25
242
87
27
141
115
40
303
219
63
100
160
143
226
246
125
225
264
260
237
6
161
283
194
196
107
159
190
198
97
253
54
16
155
106
113
216
173
78
182
73
247
139
275
257
9
37
109
231
56
206
45
254
153
22
75
261
238
74
149
96
287
154
26
229
131
218
34
136
7
282
158
118
243
281
146
124
152
250
174
72
277
259
35
133
168
38
77
76
20
71
227
98
12
62
302
220
175
2
90
177
295
112
80
207
83
239
89
48
137
296
265
276
298
121
57
55
61
258
169
188
59
150
191
280
286
49
132
123
162
24
3
126
68
294
200
180
99
164
36
214
240
233
8
192
195
166
70
291
224
10
279
235
271
290
186
111
47
108
19
301
228
144
230
221
213
60
11
85
65
42
255
14
278
172
263
64
267
274
128
241
13
300
248
92
293
122
82
94
114
232
116
171
119
251
4
52
5
51
151
23
43

> <PUBCHEM_MMFF94_PARTIAL_CHARGES>
43
1 -0.19
10 0.28
11 0.37
12 0.3
13 0.28
14 0.28
15 0.72
16 0.54
17 0.09
18 0.31
19 -0.15
2 -0.56
20 -0.15
21 0.16
22 -0.15
24 -0.15
25 -0.15
26 -0.15
27 -0.15
28 -0.15
29 0.19
3 -0.56
30 -0.15
31 -0.15
4 -0.57
40 0.4
41 0.37
42 0.15
43 0.15
44 0.15
45 0.15
46 0.15
47 0.15
48 0.15
49 0.15
5 -0.87
50 0.15
51 0.15
52 0.15
6 -0.73
7 -0.62
8 -0.62
9 0.28

> <PUBCHEM_EFFECTIVE_ROTOR_COUNT>
7.2

> <PUBCHEM_PHARMACOPHORE_FEATURES>
12
1 2 acceptor
1 3 acceptor
1 4 acceptor
1 5 donor
1 6 donor
1 7 acceptor
4 5 7 8 15 cation
5 2 9 10 11 13 rings
5 3 9 10 12 14 rings
6 17 19 20 24 25 26 rings
6 23 27 28 29 30 31 rings
6 7 8 15 18 21 22 rings

> <PUBCHEM_HEAVY_ATOM_COUNT>
31

> <PUBCHEM_ATOM_DEF_STEREO_COUNT>
4

> <PUBCHEM_ATOM_UDEF_STEREO_COUNT>
0

> <PUBCHEM_BOND_DEF_STEREO_COUNT>
0

> <PUBCHEM_BOND_UDEF_STEREO_COUNT>
0

> <PUBCHEM_ISOTOPIC_ATOM_COUNT>
0

> <PUBCHEM_COMPONENT_COUNT>
1

> <PUBCHEM_CACTVS_TAUTO_COUNT>
6

> <PUBCHEM_CONFORMER_ID>
00B5C88300000001

> <PUBCHEM_MMFF94_ENERGY>
94.0703

> <PUBCHEM_FEATURE_SELFOVERLAP>
61.6

> <PUBCHEM_SHAPE_FINGERPRINT>
10074138 170 16557365747425175489
10622 236 18189893124060555378
10928967 22 18342177812659250847
11069576 57 18260274023333127974
11135609 149 18114166537061851204
11135926 11 17461193004550039172
11227688 84 18117571828237727803
11497681 19 18266458708153406942
11607047 403 18269259331593216352
11796584 16 17917721188484482249
12144603 126 18340502092039620768
12166972 35 18260544519951566918
12422481 6 16845572006844629815
12977781 61 18052500409985431329
14040221 275 15697420184402541590
14068700 675 18337668608120320402
14340393 91 17751057168864743143
14480069 147 18261399974806205275
15001296 14 17842836891917124367
15163728 17 11458423492747565521
15320294 125 18196663895616818289
15419009 47 17679850519132479261
15728490 51 18343299263444029286
17134984 74 18117563044132600150
17138139 8 18341624762457435484
19303781 99 18042125362721085650
19315092 285 18335137596524638220
19319366 153 18192150623532745638
20775438 99 18049427442626405915
208703 8 18343019986457165078
21133410 171 16229385805320694266
21223535 225 16226319305565283149
21458453 9 15409742913263014018
21585483 132 17986378113628416871
21599406 157 17531806991196949615
21792938 131 18270672204183406419
25222932 49 18130218371914231468
2838139 119 13552020196408799477
38570 142 10951756517882328608
3882209 13 16012941375115490194
4015057 19 17821739337695256449
4017518 198 16680063311958328036
4366758 6 17898292964530818308
4394409 98 18199733779500218503
439807 62 18335984246817839935
46194498 28 15793167923916033996
463206 1 18410299120192972883
57035037 87 12613049314547113102
59025328 239 17676769773825271444
6058803 2 18193299432901808916
613672 6 17417810608839015285
6201460 15 18192143802725032507
636783 263 17767939272404718415
6636735 143 14764348237276836207
6677587 24 16809250928579467836
7970288 3 18343018874266220471

> <PUBCHEM_SHAPE_MULTIPOLES>
593.16
16.51
4.88
2.39
12.2
0.01
0.92
-19.73
4.42
-1.24
-1.33
-1.12
-0.11
-6.42

> <PUBCHEM_SHAPE_SELFOVERLAP>
1310.232

> <PUBCHEM_SHAPE_VOLUME>
318.5

> <PUBCHEM_COORDINATE_TYPE>
2
5
10

$$$$
