11883089
  -OEChem-12032416203D

 73 77  0     1  0  0  0  0  0999 V2000
   -0.0782   -3.2617   -0.1022 S   0  0  0  0  0  0  0  0  0  0  0  0
   -6.8826    0.6056    0.5057 O   0  0  0  0  0  0  0  0  0  0  0  0
   -6.8630   -1.1994   -1.0709 O   0  0  0  0  0  0  0  0  0  0  0  0
    1.0409    1.6498    1.6777 O   0  0  0  0  0  0  0  0  0  0  0  0
    3.8614   -0.8765    0.5151 O   0  0  0  0  0  0  0  0  0  0  0  0
    0.9257   -0.9027    0.2436 N   0  0  0  0  0  0  0  0  0  0  0  0
    1.6536    3.1147   -0.0194 N   0  0  0  0  0  0  0  0  0  0  0  0
    2.4768   -2.7468    0.1846 N   0  0  0  0  0  0  0  0  0  0  0  0
   -2.6036    0.5413   -0.3275 C   0  0  2  0  0  0  0  0  0  0  0  0
   -3.3146   -0.7454    0.2843 C   0  0  1  0  0  0  0  0  0  0  0  0
   -4.8896   -0.7948    0.2132 C   0  0  1  0  0  0  0  0  0  0  0  0
   -1.1074    0.5904    0.2317 C   0  0  1  0  0  0  0  0  0  0  0  0
   -3.3458    1.8166    0.1499 C   0  0  0  0  0  0  0  0  0  0  0  0
   -5.4665    0.5717    0.6802 C   0  0  1  0  0  0  0  0  0  0  0  0
   -2.6242   -2.0569   -0.1912 C   0  0  0  0  0  0  0  0  0  0  0  0
   -4.8540    1.7630   -0.0480 C   0  0  0  0  0  0  0  0  0  0  0  0
   -2.5746    0.5333   -1.8758 C   0  0  0  0  0  0  0  0  0  0  0  0
   -0.4441   -0.7587    0.1240 C   0  0  0  0  0  0  0  0  0  0  0  0
   -5.4566   -1.1886   -1.1686 C   0  0  0  0  0  0  0  0  0  0  0  0
   -5.4080   -1.8775    1.2016 C   0  0  0  0  0  0  0  0  0  0  0  0
   -1.1447   -1.9352   -0.0473 C   0  0  0  0  0  0  0  0  0  0  0  0
   -0.2346    1.6957   -0.3778 C   0  0  0  0  0  0  0  0  0  0  0  0
    0.8722    2.1243    0.5576 C   0  0  0  0  0  0  0  0  0  0  0  0
    1.2323   -2.1771    0.1329 C   0  0  0  0  0  0  0  0  0  0  0  0
    2.7824    3.7160    0.6468 C   0  0  0  0  0  0  0  0  0  0  0  0
    4.0877    3.0071    0.3057 C   0  0  0  0  0  0  0  0  0  0  0  0
    3.0322    5.1370    0.1582 C   0  0  0  0  0  0  0  0  0  0  0  0
    4.9135   -3.0537    0.3685 C   0  0  0  0  0  0  0  0  0  0  0  0
    4.5318    3.6155   -1.0235 C   0  0  0  0  0  0  0  0  0  0  0  0
    3.8207    4.9643   -1.1371 C   0  0  0  0  0  0  0  0  0  0  0  0
    3.7073   -2.0918    0.3686 C   0  0  0  0  0  0  0  0  0  0  0  0
    6.3222   -2.4251    0.3424 C   0  0  0  0  0  0  0  0  0  0  0  0
    5.2771   -3.7370   -0.9663 C   0  0  0  0  0  0  0  0  0  0  0  0
    6.7543   -3.6172   -0.5365 C   0  0  0  0  0  0  0  0  0  0  0  0
   -3.0984   -0.6784    1.3648 H   0  0  0  0  0  0  0  0  0  0  0  0
   -1.2004    0.7766    1.3123 H   0  0  0  0  0  0  0  0  0  0  0  0
   -2.9679    2.7048   -0.3689 H   0  0  0  0  0  0  0  0  0  0  0  0
   -3.1476    1.9789    1.2177 H   0  0  0  0  0  0  0  0  0  0  0  0
   -5.2792    0.6883    1.7560 H   0  0  0  0  0  0  0  0  0  0  0  0
   -2.8649   -2.2687   -1.2383 H   0  0  0  0  0  0  0  0  0  0  0  0
   -2.9751   -2.9052    0.4059 H   0  0  0  0  0  0  0  0  0  0  0  0
   -5.1160    1.7443   -1.1116 H   0  0  0  0  0  0  0  0  0  0  0  0
   -5.2996    2.6897    0.3362 H   0  0  0  0  0  0  0  0  0  0  0  0
   -2.0545    1.4147   -2.2668 H   0  0  0  0  0  0  0  0  0  0  0  0
   -3.5670    0.5697   -2.3202 H   0  0  0  0  0  0  0  0  0  0  0  0
   -2.0603   -0.3421   -2.2819 H   0  0  0  0  0  0  0  0  0  0  0  0
   -5.1956   -0.4828   -1.9531 H   0  0  0  0  0  0  0  0  0  0  0  0
   -5.1268   -2.1860   -1.4748 H   0  0  0  0  0  0  0  0  0  0  0  0
   -6.4964   -1.8442    1.3246 H   0  0  0  0  0  0  0  0  0  0  0  0
   -5.1540   -2.8891    0.8680 H   0  0  0  0  0  0  0  0  0  0  0  0
   -4.9741   -1.7384    2.1986 H   0  0  0  0  0  0  0  0  0  0  0  0
    0.2128    1.3710   -1.3258 H   0  0  0  0  0  0  0  0  0  0  0  0
   -0.8226    2.5965   -0.5802 H   0  0  0  0  0  0  0  0  0  0  0  0
   -7.2021    1.4559    0.8528 H   0  0  0  0  0  0  0  0  0  0  0  0
   -7.2121   -1.4575   -1.9409 H   0  0  0  0  0  0  0  0  0  0  0  0
    1.4548    3.4002   -0.9743 H   0  0  0  0  0  0  0  0  0  0  0  0
    2.5982    3.6964    1.7263 H   0  0  0  0  0  0  0  0  0  0  0  0
    2.4913   -3.7575    0.0758 H   0  0  0  0  0  0  0  0  0  0  0  0
    3.9901    1.9192    0.2431 H   0  0  0  0  0  0  0  0  0  0  0  0
    4.8402    3.2331    1.0713 H   0  0  0  0  0  0  0  0  0  0  0  0
    3.6506    5.6753    0.8871 H   0  0  0  0  0  0  0  0  0  0  0  0
    2.1139    5.7126    0.0046 H   0  0  0  0  0  0  0  0  0  0  0  0
    4.8223   -3.7843    1.1874 H   0  0  0  0  0  0  0  0  0  0  0  0
    5.6203    3.7264   -1.0625 H   0  0  0  0  0  0  0  0  0  0  0  0
    4.2388    2.9688   -1.8585 H   0  0  0  0  0  0  0  0  0  0  0  0
    3.1424    4.9547   -1.9983 H   0  0  0  0  0  0  0  0  0  0  0  0
    4.5275    5.7866   -1.2876 H   0  0  0  0  0  0  0  0  0  0  0  0
    6.8268   -2.3485    1.3092 H   0  0  0  0  0  0  0  0  0  0  0  0
    6.3885   -1.4588   -0.1711 H   0  0  0  0  0  0  0  0  0  0  0  0
    5.0268   -3.1515   -1.8587 H   0  0  0  0  0  0  0  0  0  0  0  0
    4.9074   -4.7576   -1.0947 H   0  0  0  0  0  0  0  0  0  0  0  0
    7.4653   -3.3884   -1.3340 H   0  0  0  0  0  0  0  0  0  0  0  0
    7.1199   -4.4783    0.0346 H   0  0  0  0  0  0  0  0  0  0  0  0
  1 21  1  0  0  0  0
  1 24  1  0  0  0  0
  2 14  1  0  0  0  0
  2 54  1  0  0  0  0
  3 19  1  0  0  0  0
  3 55  1  0  0  0  0
  4 23  2  0  0  0  0
  5 31  2  0  0  0  0
  6 18  1  0  0  0  0
  6 24  2  0  0  0  0
  7 23  1  0  0  0  0
  7 25  1  0  0  0  0
  7 56  1  0  0  0  0
  8 24  1  0  0  0  0
  8 31  1  0  0  0  0
  8 58  1  0  0  0  0
  9 10  1  0  0  0  0
  9 12  1  0  0  0  0
  9 13  1  0  0  0  0
  9 17  1  0  0  0  0
 10 11  1  0  0  0  0
 10 15  1  0  0  0  0
 10 35  1  0  0  0  0
 11 14  1  0  0  0  0
 11 19  1  0  0  0  0
 11 20  1  0  0  0  0
 12 18  1  0  0  0  0
 12 22  1  0  0  0  0
 12 36  1  0  0  0  0
 13 16  1  0  0  0  0
 13 37  1  0  0  0  0
 13 38  1  0  0  0  0
 14 16  1  0  0  0  0
 14 39  1  0  0  0  0
 15 21  1  0  0  0  0
 15 40  1  0  0  0  0
 15 41  1  0  0  0  0
 16 42  1  0  0  0  0
 16 43  1  0  0  0  0
 17 44  1  0  0  0  0
 17 45  1  0  0  0  0
 17 46  1  0  0  0  0
 18 21  2  0  0  0  0
 19 47  1  0  0  0  0
 19 48  1  0  0  0  0
 20 49  1  0  0  0  0
 20 50  1  0  0  0  0
 20 51  1  0  0  0  0
 22 23  1  0  0  0  0
 22 52  1  0  0  0  0
 22 53  1  0  0  0  0
 25 26  1  0  0  0  0
 25 27  1  0  0  0  0
 25 57  1  0  0  0  0
 26 29  1  0  0  0  0
 26 59  1  0  0  0  0
 26 60  1  0  0  0  0
 27 30  1  0  0  0  0
 27 61  1  0  0  0  0
 27 62  1  0  0  0  0
 28 31  1  0  0  0  0
 28 32  1  0  0  0  0
 28 33  1  0  0  0  0
 28 63  1  0  0  0  0
 29 30  1  0  0  0  0
 29 64  1  0  0  0  0
 29 65  1  0  0  0  0
 30 66  1  0  0  0  0
 30 67  1  0  0  0  0
 32 34  1  0  0  0  0
 32 68  1  0  0  0  0
 32 69  1  0  0  0  0
 33 34  1  0  0  0  0
 33 70  1  0  0  0  0
 33 71  1  0  0  0  0
 34 72  1  0  0  0  0
 34 73  1  0  0  0  0
M  END
> <PUBCHEM_COMPOUND_CID>
11883089

> <PUBCHEM_CONFORMER_RMSD>
1

> <PUBCHEM_CONFORMER_DIVERSEORDER>
1
32
38
28
29
41
22
27
26
11
21
34
19
9
18
30
13
23
37
15
31
39
5
20
8
12
17
2
33
10
3
14
36
16
40
7
25
43
42
35
24
4
6

> <PUBCHEM_MMFF94_PARTIAL_CHARGES>
24
1 -0.08
12 0.18
14 0.28
15 0.18
18 0.05
19 0.28
2 -0.68
21 -0.14
22 0.06
23 0.57
24 0.44
25 0.3
28 0.05
3 -0.68
31 0.58
4 -0.57
5 -0.57
54 0.4
55 0.4
56 0.37
58 0.37
6 -0.57
7 -0.73
8 -0.49

> <PUBCHEM_EFFECTIVE_ROTOR_COUNT>
11

> <PUBCHEM_PHARMACOPHORE_FEATURES>
13
1 2 acceptor
1 2 donor
1 3 acceptor
1 3 donor
1 4 acceptor
1 5 acceptor
1 7 donor
1 8 donor
4 28 32 33 34 rings
5 1 6 18 21 24 rings
5 25 26 27 29 30 rings
6 9 10 11 13 14 16 rings
6 9 10 12 15 18 21 rings

> <PUBCHEM_HEAVY_ATOM_COUNT>
34

> <PUBCHEM_ATOM_DEF_STEREO_COUNT>
5

> <PUBCHEM_ATOM_UDEF_STEREO_COUNT>
0

> <PUBCHEM_BOND_DEF_STEREO_COUNT>
0

> <PUBCHEM_BOND_UDEF_STEREO_COUNT>
0

> <PUBCHEM_ISOTOPIC_ATOM_COUNT>
0

> <PUBCHEM_COMPONENT_COUNT>
1

> <PUBCHEM_CACTVS_TAUTO_COUNT>
6

> <PUBCHEM_CONFORMER_ID>
00B5525100000001

> <PUBCHEM_MMFF94_ENERGY>
96.2889

> <PUBCHEM_FEATURE_SELFOVERLAP>
66.119

> <PUBCHEM_SHAPE_FINGERPRINT>
10032420 55 17386562436462947506
10050765 1 18338518663943156795
10411042 1 18266741286472118634
1100329 8 18410856529860193082
11049842 53 18123455344954351320
11445158 3 18341885286182958343
11756154 67 18196095443989450418
11763715 3 17905913387164035982
12058002 1 17344096037629486350
12107183 9 18198350542000909801
12166972 35 18341612577545896714
12522641 126 18336826493312946670
13140716 1 18409452522880073827
13540713 4 18042127721148656779
14040222 275 18197520449766982590
14114211 68 17971779889140058660
14394314 77 18122347878566464568
14415360 78 17612016085265658077
14415361 192 17314212390408627404
14790565 3 18194123147209118841
14849402 71 18410017632531780984
14955137 171 18339645538168986218
15198563 99 17979358565023598772
15347591 1 18411138074489725627
15400415 2 17762058040183336132
15439362 3 18337389456183353049
15927050 60 18052542359120493134
16067689 302 18194403514648996887
167882 2 18337956795556044473
18681886 176 18340199692504594018
18785283 64 18335977644788311840
19611394 137 18261409818317847418
20721686 56 18409165523662589739
21133665 82 17906179800497924908
21360443 120 18263934417917519180
21781055 127 16629704872527589139
21927370 108 18195265320873523642
22311459 1 18338516335981393379
23559900 14 18411410688363374993
24771293 8 18200855345906475770
24771750 20 18191880118271806492
3103668 31 17903640675128134724
3298306 158 18126570256789500004
335352 9 18338795590791633055
350125 39 18410011044342008313
469060 322 18052549772481550738
59755656 215 18265898140756653213
6669772 16 18267022954537455804
6700243 42 17483419438926890438

> <PUBCHEM_SHAPE_MULTIPOLES>
665.13
15.77
6.73
1.08
5
6.17
0.19
-8.4
1.23
-15.96
0.8
0.38
0.22
-0.24

> <PUBCHEM_SHAPE_SELFOVERLAP>
1396.286

> <PUBCHEM_SHAPE_VOLUME>
379

> <PUBCHEM_COORDINATE_TYPE>
2
5
10

$$$$
