45783545
  -OEChem-12032416263D

 53 56  0     1  0  0  0  0  0999 V2000
   -2.5331   -2.0920    1.4760 O   0  0  0  0  0  0  0  0  0  0  0  0
    4.8245   -0.9427   -0.0776 O   0  0  0  0  0  0  0  0  0  0  0  0
    7.1756    0.5748   -0.1411 O   0  0  0  0  0  0  0  0  0  0  0  0
   -4.1548    0.0960   -0.9913 N   0  0  1  0  0  0  0  0  0  0  0  0
   -1.5052   -1.0360   -0.2107 N   0  0  0  0  0  0  0  0  0  0  0  0
   -1.1594   -2.2042    1.7257 N   0  0  0  0  0  0  0  0  0  0  0  0
    2.6471   -0.5711   -0.7882 N   0  0  0  0  0  0  0  0  0  0  0  0
    1.2074    3.1867   -1.4013 N   0  0  0  0  0  0  0  0  0  0  0  0
   -4.0569   -1.1309   -0.1755 C   0  0  1  0  0  0  0  0  0  0  0  0
   -4.5829   -2.2521   -1.0905 C   0  0  0  0  0  0  0  0  0  0  0  0
   -5.0088   -1.5518   -2.3731 C   0  0  0  0  0  0  0  0  0  0  0  0
   -5.2514   -0.1216   -1.9350 C   0  0  0  0  0  0  0  0  0  0  0  0
   -4.3476    1.3013   -0.1953 C   0  0  0  0  0  0  0  0  0  0  0  0
   -2.6490   -1.3911    0.3178 C   0  0  0  0  0  0  0  0  0  0  0  0
   -3.0557    1.7900    0.4040 C   0  0  0  0  0  0  0  0  0  0  0  0
   -1.9820    2.1196   -0.4234 C   0  0  0  0  0  0  0  0  0  0  0  0
   -2.9334    1.9145    1.7880 C   0  0  0  0  0  0  0  0  0  0  0  0
   -0.6205   -1.5570    0.6881 C   0  0  0  0  0  0  0  0  0  0  0  0
   -0.7862    2.5734    0.1331 C   0  0  0  0  0  0  0  0  0  0  0  0
   -1.7377    2.3687    2.3445 C   0  0  0  0  0  0  0  0  0  0  0  0
    0.7968   -1.4146    0.5193 C   0  0  0  0  0  0  0  0  0  0  0  0
   -0.6640    2.6980    1.5171 C   0  0  0  0  0  0  0  0  0  0  0  0
    1.6855   -1.9514    1.4443 C   0  0  0  0  0  0  0  0  0  0  0  0
    1.3235   -0.7396   -0.5699 C   0  0  0  0  0  0  0  0  0  0  0  0
    0.3138    2.9118   -0.7136 C   0  0  0  0  0  0  0  0  0  0  0  0
    3.0546   -1.7986    1.2543 C   0  0  0  0  0  0  0  0  0  0  0  0
    3.4803   -1.1064    0.1320 C   0  0  0  0  0  0  0  0  0  0  0  0
    5.2072   -0.2244   -1.2447 C   0  0  0  0  0  0  0  0  0  0  0  0
    6.7199   -0.1266   -1.2916 C   0  0  0  0  0  0  0  0  0  0  0  0
    8.5925    0.6774   -0.1213 C   0  0  0  0  0  0  0  0  0  0  0  0
   -4.7243   -1.0731    0.6959 H   0  0  0  0  0  0  0  0  0  0  0  0
   -3.8455   -3.0343   -1.3008 H   0  0  0  0  0  0  0  0  0  0  0  0
   -5.4550   -2.7282   -0.6259 H   0  0  0  0  0  0  0  0  0  0  0  0
   -5.8959   -2.0103   -2.8199 H   0  0  0  0  0  0  0  0  0  0  0  0
   -4.1957   -1.5941   -3.1085 H   0  0  0  0  0  0  0  0  0  0  0  0
   -6.2311   -0.0338   -1.4482 H   0  0  0  0  0  0  0  0  0  0  0  0
   -5.2106    0.5706   -2.7816 H   0  0  0  0  0  0  0  0  0  0  0  0
   -5.1210    1.1627    0.5716 H   0  0  0  0  0  0  0  0  0  0  0  0
   -4.7119    2.1168   -0.8359 H   0  0  0  0  0  0  0  0  0  0  0  0
   -2.0790    2.0275   -1.5034 H   0  0  0  0  0  0  0  0  0  0  0  0
   -3.7606    1.6596    2.4450 H   0  0  0  0  0  0  0  0  0  0  0  0
   -1.6422    2.4645    3.4221 H   0  0  0  0  0  0  0  0  0  0  0  0
    0.2620    3.0494    1.9660 H   0  0  0  0  0  0  0  0  0  0  0  0
    1.3460   -2.4935    2.3230 H   0  0  0  0  0  0  0  0  0  0  0  0
    0.6941   -0.2968   -1.3361 H   0  0  0  0  0  0  0  0  0  0  0  0
    3.7612   -2.2110    1.9662 H   0  0  0  0  0  0  0  0  0  0  0  0
    4.7853    0.7876   -1.2038 H   0  0  0  0  0  0  0  0  0  0  0  0
    4.8503   -0.7419   -2.1430 H   0  0  0  0  0  0  0  0  0  0  0  0
    7.1559   -1.1324   -1.2899 H   0  0  0  0  0  0  0  0  0  0  0  0
    7.0329    0.4034   -2.1979 H   0  0  0  0  0  0  0  0  0  0  0  0
    9.0490   -0.3165   -0.0870 H   0  0  0  0  0  0  0  0  0  0  0  0
    8.9498    1.2267   -0.9978 H   0  0  0  0  0  0  0  0  0  0  0  0
    8.8853    1.2265    0.7776 H   0  0  0  0  0  0  0  0  0  0  0  0
  1  6  1  0  0  0  0
  1 14  1  0  0  0  0
  2 27  1  0  0  0  0
  2 28  1  0  0  0  0
  3 29  1  0  0  0  0
  3 30  1  0  0  0  0
  4  9  1  0  0  0  0
  4 12  1  0  0  0  0
  4 13  1  0  0  0  0
  5 14  2  0  0  0  0
  5 18  1  0  0  0  0
  6 18  2  0  0  0  0
  7 24  1  0  0  0  0
  7 27  2  0  0  0  0
  8 25  3  0  0  0  0
  9 10  1  0  0  0  0
  9 14  1  0  0  0  0
  9 31  1  0  0  0  0
 10 11  1  0  0  0  0
 10 32  1  0  0  0  0
 10 33  1  0  0  0  0
 11 12  1  0  0  0  0
 11 34  1  0  0  0  0
 11 35  1  0  0  0  0
 12 36  1  0  0  0  0
 12 37  1  0  0  0  0
 13 15  1  0  0  0  0
 13 38  1  0  0  0  0
 13 39  1  0  0  0  0
 15 16  2  0  0  0  0
 15 17  1  0  0  0  0
 16 19  1  0  0  0  0
 16 40  1  0  0  0  0
 17 20  2  0  0  0  0
 17 41  1  0  0  0  0
 18 21  1  0  0  0  0
 19 22  2  0  0  0  0
 19 25  1  0  0  0  0
 20 22  1  0  0  0  0
 20 42  1  0  0  0  0
 21 23  1  0  0  0  0
 21 24  2  0  0  0  0
 22 43  1  0  0  0  0
 23 26  2  0  0  0  0
 23 44  1  0  0  0  0
 24 45  1  0  0  0  0
 26 27  1  0  0  0  0
 26 46  1  0  0  0  0
 28 29  1  0  0  0  0
 28 47  1  0  0  0  0
 28 48  1  0  0  0  0
 29 49  1  0  0  0  0
 29 50  1  0  0  0  0
 30 51  1  0  0  0  0
 30 52  1  0  0  0  0
 30 53  1  0  0  0  0
M  END
> <PUBCHEM_COMPOUND_CID>
45783545

> <PUBCHEM_CONFORMER_RMSD>
1

> <PUBCHEM_CONFORMER_DIVERSEORDER>
1
97
140
147
153
114
86
12
120
54
141
72
155
168
125
41
65
8
128
32
79
162
46
124
149
93
24
76
161
171
172
164
108
50
61
134
80
47
119
163
63
143
52
85
7
56
104
158
150
166
87
16
175
105
89
49
53
51
42
103
146
68
81
25
131
148
94
43
132
71
173
83
113
115
13
136
156
9
14
138
99
160
31
23
67
95
35
135
3
142
106
62
4
29
100
70
116
126
111
88
60
2
133
144
27
57
145
165
22
109
91
77
157
21
75
33
117
36
110
73
96
38
122
64
39
66
74
169
82
59
139
121
6
37
152
17
28
101
26
107
20
69
123
170
112
55
174
45
98
137
18
48
167
130
5
90
19
127
78
118
159
10
92
151
58
102
129
15
34
40
84
44
30
11
154

> <PUBCHEM_MMFF94_PARTIAL_CHARGES>
35
1 -0.02
12 0.27
13 0.41
14 0.3
15 -0.14
16 -0.15
17 -0.15
18 0.46
19 0.07
2 -0.36
20 -0.15
21 0.05
22 -0.15
23 -0.15
24 0.16
25 0.48
26 -0.15
27 0.39
28 0.28
29 0.28
3 -0.56
30 0.28
4 -0.81
40 0.15
41 0.15
42 0.15
43 0.15
44 0.15
45 0.15
46 0.15
5 -0.57
6 -0.41
7 -0.62
8 -0.56
9 0.45

> <PUBCHEM_EFFECTIVE_ROTOR_COUNT>
9

> <PUBCHEM_PHARMACOPHORE_FEATURES>
8
1 3 acceptor
1 4 cation
1 8 acceptor
3 5 6 18 cation
5 1 5 6 14 18 rings
5 4 9 10 11 12 rings
6 15 16 17 19 20 22 rings
6 7 21 23 24 26 27 rings

> <PUBCHEM_HEAVY_ATOM_COUNT>
30

> <PUBCHEM_ATOM_DEF_STEREO_COUNT>
1

> <PUBCHEM_ATOM_UDEF_STEREO_COUNT>
0

> <PUBCHEM_BOND_DEF_STEREO_COUNT>
0

> <PUBCHEM_BOND_UDEF_STEREO_COUNT>
0

> <PUBCHEM_ISOTOPIC_ATOM_COUNT>
0

> <PUBCHEM_COMPONENT_COUNT>
1

> <PUBCHEM_CACTVS_TAUTO_COUNT>
1

> <PUBCHEM_CONFORMER_ID>
02BA99F900000001

> <PUBCHEM_MMFF94_ENERGY>
62.7907

> <PUBCHEM_FEATURE_SELFOVERLAP>
40.598

> <PUBCHEM_SHAPE_FINGERPRINT>
10454371 7 18272941509919007228
10871710 139 18191307079097730545
11477941 20 17988916786670015348
11479125 193 15072320499292311628
12156800 1 16161245758011078929
12788726 201 18339920407501560371
13782708 43 17060343990160901238
13947920 75 18342457023903190958
14394314 77 18335426703400712245
14931854 50 18261664905304868607
15183329 4 18262808355213362998
17492 54 18187636969460904437
18336668 15 18040443204176970276
19438510 23 14852712606461095335
20642791 239 18186512220610435553
20775438 99 17119976256649489047
21236236 1 18412551985838756282
21304303 64 17749954354486516461
21344244 246 17769079486871645485
21403212 168 8574439742388550759
23419403 2 17765383869730789241
23557571 272 17775564200605269247
23559900 14 18335413625134618149
397830 11 11603400818984581574
469060 322 17240780491970388942
484989 97 17970911287934469147
497634 4 16415487047045521762
999808 66 12967134930199588318

> <PUBCHEM_SHAPE_MULTIPOLES>
574.87
14.75
3.53
1.92
33.14
2.25
0.16
-2.32
-7.76
-2.72
0.75
-1.51
-0.01
-2.05

> <PUBCHEM_SHAPE_SELFOVERLAP>
1234.755

> <PUBCHEM_SHAPE_VOLUME>
316.9

> <PUBCHEM_COORDINATE_TYPE>
2
5
10

$$$$
