11912417
  -OEChem-12032416113D

 58 59  0     1  0  0  0  0  0999 V2000
    0.7195    3.1947   -0.8011 O   0  0  0  0  0  0  0  0  0  0  0  0
   -5.6095   -0.3292    1.5146 O   0  0  0  0  0  0  0  0  0  0  0  0
    6.6703   -1.4190    0.0635 O   0  0  0  0  0  0  0  0  0  0  0  0
    4.7364   -2.6657    0.1331 O   0  0  0  0  0  0  0  0  0  0  0  0
   -0.9190    2.0571    0.3669 N   0  0  0  0  0  0  0  0  0  0  0  0
    1.1721    1.0479   -0.0478 N   0  0  0  0  0  0  0  0  0  0  0  0
   -6.3830   -0.9684   -0.5817 N   0  0  0  0  0  0  0  0  0  0  0  0
   -3.7503    1.4640    0.2822 C   0  0  1  0  0  0  0  0  0  0  0  0
   -2.7002    0.3353    0.4585 C   0  0  2  0  0  0  0  0  0  0  0  0
   -3.1558    2.6924   -0.4305 C   0  0  0  0  0  0  0  0  0  0  0  0
   -1.4373    0.9076    1.1237 C   0  0  0  0  0  0  0  0  0  0  0  0
   -1.8687    3.1641    0.2449 C   0  0  0  0  0  0  0  0  0  0  0  0
   -2.3390   -0.3906   -0.8426 C   0  0  0  0  0  0  0  0  0  0  0  0
   -5.0226    0.9951   -0.4230 C   0  0  0  0  0  0  0  0  0  0  0  0
   -1.4100   -1.5569   -0.5786 C   0  0  0  0  0  0  0  0  0  0  0  0
    0.3676    2.1765   -0.2002 C   0  0  0  0  0  0  0  0  0  0  0  0
   -5.6884   -0.1549    0.3016 C   0  0  0  0  0  0  0  0  0  0  0  0
    2.5880    0.9951   -0.0486 C   0  0  0  0  0  0  0  0  0  0  0  0
   -7.1125   -2.1444   -0.1652 C   0  0  0  0  0  0  0  0  0  0  0  0
    3.2352   -0.2359    0.0123 C   0  0  0  0  0  0  0  0  0  0  0  0
    3.3237    2.1753   -0.1111 C   0  0  0  0  0  0  0  0  0  0  0  0
    4.6292   -0.2870    0.0107 C   0  0  0  0  0  0  0  0  0  0  0  0
   -6.2591   -3.3318   -0.1951 C   0  0  0  0  0  0  0  0  0  0  0  0
    4.7175    2.1241   -0.1126 C   0  0  0  0  0  0  0  0  0  0  0  0
    5.3704    0.8930   -0.0517 C   0  0  0  0  0  0  0  0  0  0  0  0
    5.3104   -1.5701    0.0754 C   0  0  0  0  0  0  0  0  0  0  0  0
   -5.5618   -4.3090   -0.2186 C   0  0  0  0  0  0  0  0  0  0  0  0
    7.4548   -2.6152    0.1221 C   0  0  0  0  0  0  0  0  0  0  0  0
    8.9223   -2.2440    0.0987 C   0  0  0  0  0  0  0  0  0  0  0  0
   -4.0340    1.7925    1.2934 H   0  0  0  0  0  0  0  0  0  0  0  0
   -3.1068   -0.4111    1.1525 H   0  0  0  0  0  0  0  0  0  0  0  0
   -2.9460    2.4484   -1.4794 H   0  0  0  0  0  0  0  0  0  0  0  0
   -3.8833    3.5128   -0.4343 H   0  0  0  0  0  0  0  0  0  0  0  0
   -0.6847    0.1461    1.3231 H   0  0  0  0  0  0  0  0  0  0  0  0
   -1.7043    1.2954    2.1164 H   0  0  0  0  0  0  0  0  0  0  0  0
   -2.0776    3.5348    1.2554 H   0  0  0  0  0  0  0  0  0  0  0  0
   -1.4393    3.9943   -0.3239 H   0  0  0  0  0  0  0  0  0  0  0  0
   -1.8798    0.2859   -1.5712 H   0  0  0  0  0  0  0  0  0  0  0  0
   -3.2406   -0.7971   -1.3119 H   0  0  0  0  0  0  0  0  0  0  0  0
   -4.8174    0.7348   -1.4671 H   0  0  0  0  0  0  0  0  0  0  0  0
   -5.7527    1.8144   -0.4465 H   0  0  0  0  0  0  0  0  0  0  0  0
   -1.8075   -2.2106    0.2052 H   0  0  0  0  0  0  0  0  0  0  0  0
   -0.3984   -1.2759   -0.3059 H   0  0  0  0  0  0  0  0  0  0  0  0
   -1.3237   -2.1622   -1.4883 H   0  0  0  0  0  0  0  0  0  0  0  0
    0.7289    0.1534    0.0911 H   0  0  0  0  0  0  0  0  0  0  0  0
   -6.3829   -0.7455   -1.5728 H   0  0  0  0  0  0  0  0  0  0  0  0
   -7.9584   -2.2604   -0.8498 H   0  0  0  0  0  0  0  0  0  0  0  0
   -7.5097   -1.9826    0.8423 H   0  0  0  0  0  0  0  0  0  0  0  0
    2.6495   -1.1511    0.0604 H   0  0  0  0  0  0  0  0  0  0  0  0
    2.8756    3.1610   -0.1251 H   0  0  0  0  0  0  0  0  0  0  0  0
    5.2950    3.0432   -0.1531 H   0  0  0  0  0  0  0  0  0  0  0  0
    6.4567    0.9020   -0.0533 H   0  0  0  0  0  0  0  0  0  0  0  0
   -4.9425   -5.1751   -0.2394 H   0  0  0  0  0  0  0  0  0  0  0  0
    7.2176   -3.2481   -0.7401 H   0  0  0  0  0  0  0  0  0  0  0  0
    7.2231   -3.1569    1.0458 H   0  0  0  0  0  0  0  0  0  0  0  0
    9.5524   -3.1367    0.1423 H   0  0  0  0  0  0  0  0  0  0  0  0
    9.1636   -1.6847   -0.8113 H   0  0  0  0  0  0  0  0  0  0  0  0
    9.1690   -1.5951    0.9454 H   0  0  0  0  0  0  0  0  0  0  0  0
  1 16  2  0  0  0  0
  2 17  2  0  0  0  0
  3 26  1  0  0  0  0
  3 28  1  0  0  0  0
  4 26  2  0  0  0  0
  5 11  1  0  0  0  0
  5 12  1  0  0  0  0
  5 16  1  0  0  0  0
  6 16  1  0  0  0  0
  6 18  1  0  0  0  0
  6 45  1  0  0  0  0
  7 17  1  0  0  0  0
  7 19  1  0  0  0  0
  7 46  1  0  0  0  0
  8  9  1  0  0  0  0
  8 10  1  0  0  0  0
  8 14  1  0  0  0  0
  8 30  1  0  0  0  0
  9 11  1  0  0  0  0
  9 13  1  0  0  0  0
  9 31  1  0  0  0  0
 10 12  1  0  0  0  0
 10 32  1  0  0  0  0
 10 33  1  0  0  0  0
 11 34  1  0  0  0  0
 11 35  1  0  0  0  0
 12 36  1  0  0  0  0
 12 37  1  0  0  0  0
 13 15  1  0  0  0  0
 13 38  1  0  0  0  0
 13 39  1  0  0  0  0
 14 17  1  0  0  0  0
 14 40  1  0  0  0  0
 14 41  1  0  0  0  0
 15 42  1  0  0  0  0
 15 43  1  0  0  0  0
 15 44  1  0  0  0  0
 18 20  1  0  0  0  0
 18 21  2  0  0  0  0
 19 23  1  0  0  0  0
 19 47  1  0  0  0  0
 19 48  1  0  0  0  0
 20 22  2  0  0  0  0
 20 49  1  0  0  0  0
 21 24  1  0  0  0  0
 21 50  1  0  0  0  0
 22 25  1  0  0  0  0
 22 26  1  0  0  0  0
 23 27  3  0  0  0  0
 24 25  2  0  0  0  0
 24 51  1  0  0  0  0
 25 52  1  0  0  0  0
 27 53  1  0  0  0  0
 28 29  1  0  0  0  0
 28 54  1  0  0  0  0
 28 55  1  0  0  0  0
 29 56  1  0  0  0  0
 29 57  1  0  0  0  0
 29 58  1  0  0  0  0
M  END
> <PUBCHEM_COMPOUND_CID>
11912417

> <PUBCHEM_CONFORMER_RMSD>
1

> <PUBCHEM_CONFORMER_DIVERSEORDER>
4
30
108
58
86
57
110
133
91
76
81
46
132
25
121
111
89
105
24
130
114
50
51
65
61
102
55
129
63
35
2
116
19
43
90
78
125
21
15
115
131
72
119
87
73
45
85
113
101
26
128
1
34
41
95
52
127
107
20
8
84
32
39
33
112
83
106
92
17
22
71
49
120
74
96
47
64
40
59
11
93
28
104
88
18
77
14
75
70
53
118
97
10
31
3
103
37
67
80
117
13
62
126
29
100
69
123
82
16
38
44
9
12
42
109
56
94
66
54
36
5
124
60
98
6
122
79
68
27
7
99
23
48

> <PUBCHEM_MMFF94_PARTIAL_CHARGES>
30
1 -0.57
11 0.3
12 0.3
14 0.06
16 0.69
17 0.57
18 0.12
19 0.5
2 -0.57
20 -0.15
21 -0.15
22 0.09
23 -0.2
24 -0.15
25 -0.15
26 0.63
27 -0.18
28 0.28
3 -0.43
4 -0.57
45 0.37
46 0.37
49 0.15
5 -0.66
50 0.15
51 0.15
52 0.15
53 0.18
6 -0.55
7 -0.73

> <PUBCHEM_EFFECTIVE_ROTOR_COUNT>
12.2

> <PUBCHEM_PHARMACOPHORE_FEATURES>
9
1 1 acceptor
1 15 hydrophobe
1 2 acceptor
1 27 hydrophobe
1 4 acceptor
1 6 donor
1 7 donor
6 18 20 21 22 24 25 rings
6 5 8 9 10 11 12 rings

> <PUBCHEM_HEAVY_ATOM_COUNT>
29

> <PUBCHEM_ATOM_DEF_STEREO_COUNT>
2

> <PUBCHEM_ATOM_UDEF_STEREO_COUNT>
0

> <PUBCHEM_BOND_DEF_STEREO_COUNT>
0

> <PUBCHEM_BOND_UDEF_STEREO_COUNT>
0

> <PUBCHEM_ISOTOPIC_ATOM_COUNT>
0

> <PUBCHEM_COMPONENT_COUNT>
1

> <PUBCHEM_CACTVS_TAUTO_COUNT>
4

> <PUBCHEM_CONFORMER_ID>
00B5C4E100000004

> <PUBCHEM_MMFF94_ENERGY>
66.4253

> <PUBCHEM_FEATURE_SELFOVERLAP>
45.671

> <PUBCHEM_SHAPE_FINGERPRINT>
10 15 11959721664583250780
11135609 99 18341893009109383166
11497681 19 18335422379016848940
117089 54 18047194330869923403
11756154 67 18410293601313095142
12166972 35 18113338634675520333
12645989 146 18408608058529851356
13383668 362 18199172053812572584
13533116 47 18411139164626033048
1361 4 18339643450672371199
13782708 43 18131350816934235249
14178184 131 18130502024308110007
14211702 104 18342464763550614775
15064981 113 14056987309438827112
16120349 21 18343308054646167155
17492 89 18410292557683475624
20028762 73 18341050727436776034
20721686 56 18335704965909846370
21033650 10 16154272685206277908
21130935 74 18342739641077659848
21267235 1 18336551529865631680
21585483 132 18266723844404954791
21682296 61 18409452505536096057
23522609 53 18124350239497285937
23559900 14 18410287021624307256
2748736 6 9295294902522583479
3004659 81 18040998406694937984
3383291 50 18408321077469163818
3504750 166 18341616993352753033
4046055 25 18260828233049798949
5104073 3 17988926699222244585
54039377 194 18410578345461472974
5718773 13 18411417314886093106
6138700 20 18335984181923500657
7970288 3 18411134766695241515

> <PUBCHEM_SHAPE_MULTIPOLES>
558.39
22.35
4.54
0.81
17.63
2.14
-0.1
25.44
-0.58
-2.47
0.41
-0.65
-0.09
-0.83

> <PUBCHEM_SHAPE_SELFOVERLAP>
1142.963

> <PUBCHEM_SHAPE_VOLUME>
318.9

> <PUBCHEM_COORDINATE_TYPE>
2
5
10

$$$$
