45784270
  -OEChem-12032416203D

 42 45  0     1  0  0  0  0  0999 V2000
    7.3643    0.8073   -0.4290 F   0  0  0  0  0  0  0  0  0  0  0  0
    7.0359   -0.7931    1.0058 F   0  0  0  0  0  0  0  0  0  0  0  0
    6.8600   -1.1923   -1.1187 F   0  0  0  0  0  0  0  0  0  0  0  0
   -3.0027   -0.2677   -0.1030 N   0  0  1  0  0  0  0  0  0  0  0  0
    1.6709   -1.1883    0.4161 N   0  0  0  0  0  0  0  0  0  0  0  0
    1.0523    0.9183    0.0710 N   0  0  0  0  0  0  0  0  0  0  0  0
   -8.0200   -0.1862    0.2151 N   0  0  0  0  0  0  0  0  0  0  0  0
   -0.7962   -0.7413    0.5346 C   0  0  1  0  0  0  0  0  0  0  0  0
   -1.5300   -0.0483    1.6959 C   0  0  0  0  0  0  0  0  0  0  0  0
   -1.6797   -0.4820   -0.6932 C   0  0  0  0  0  0  0  0  0  0  0  0
   -2.7624    0.5838    1.0620 C   0  0  0  0  0  0  0  0  0  0  0  0
    0.6352   -0.2997    0.3343 C   0  0  0  0  0  0  0  0  0  0  0  0
   -3.9396    0.3303   -1.0427 C   0  0  0  0  0  0  0  0  0  0  0  0
    2.8339   -0.4978    0.1903 C   0  0  0  0  0  0  0  0  0  0  0  0
   -5.3679    0.1492   -0.6022 C   0  0  0  0  0  0  0  0  0  0  0  0
    2.4213    0.8147   -0.0224 C   0  0  0  0  0  0  0  0  0  0  0  0
    4.1705   -0.8962    0.1549 C   0  0  0  0  0  0  0  0  0  0  0  0
    3.3859    1.8015   -0.2873 C   0  0  0  0  0  0  0  0  0  0  0  0
   -5.9951   -1.0823   -0.7551 C   0  0  0  0  0  0  0  0  0  0  0  0
   -6.0653    1.2132   -0.0410 C   0  0  0  0  0  0  0  0  0  0  0  0
    5.1172    0.0988   -0.1101 C   0  0  0  0  0  0  0  0  0  0  0  0
    4.7340    1.4244   -0.3275 C   0  0  0  0  0  0  0  0  0  0  0  0
   -7.3101   -1.1971   -0.3345 C   0  0  0  0  0  0  0  0  0  0  0  0
   -7.3773    0.9958    0.3479 C   0  0  0  0  0  0  0  0  0  0  0  0
    6.5650   -0.2650   -0.1613 C   0  0  0  0  0  0  0  0  0  0  0  0
   -0.8015   -1.8213    0.7420 H   0  0  0  0  0  0  0  0  0  0  0  0
   -1.8308   -0.8000    2.4364 H   0  0  0  0  0  0  0  0  0  0  0  0
   -0.9191    0.7000    2.2118 H   0  0  0  0  0  0  0  0  0  0  0  0
   -1.3418    0.4024   -1.2499 H   0  0  0  0  0  0  0  0  0  0  0  0
   -1.6733   -1.3392   -1.3752 H   0  0  0  0  0  0  0  0  0  0  0  0
   -3.6040    0.5889    1.7617 H   0  0  0  0  0  0  0  0  0  0  0  0
   -2.5381    1.6191    0.7745 H   0  0  0  0  0  0  0  0  0  0  0  0
   -3.7179    1.3897   -1.2305 H   0  0  0  0  0  0  0  0  0  0  0  0
   -3.8472   -0.1595   -2.0225 H   0  0  0  0  0  0  0  0  0  0  0  0
    1.5969   -2.1786    0.6083 H   0  0  0  0  0  0  0  0  0  0  0  0
    4.4574   -1.9283    0.3252 H   0  0  0  0  0  0  0  0  0  0  0  0
    3.0979    2.8340   -0.4576 H   0  0  0  0  0  0  0  0  0  0  0  0
   -5.4809   -1.9333   -1.1889 H   0  0  0  0  0  0  0  0  0  0  0  0
   -5.6071    2.1869    0.0947 H   0  0  0  0  0  0  0  0  0  0  0  0
    5.4759    2.1923   -0.5329 H   0  0  0  0  0  0  0  0  0  0  0  0
   -7.8444   -2.1365   -0.4318 H   0  0  0  0  0  0  0  0  0  0  0  0
   -7.9645    1.7932    0.7914 H   0  0  0  0  0  0  0  0  0  0  0  0
  1 25  1  0  0  0  0
  2 25  1  0  0  0  0
  3 25  1  0  0  0  0
  4 10  1  0  0  0  0
  4 11  1  0  0  0  0
  4 13  1  0  0  0  0
  5 12  1  0  0  0  0
  5 14  1  0  0  0  0
  5 35  1  0  0  0  0
  6 12  2  0  0  0  0
  6 16  1  0  0  0  0
  7 23  2  0  0  0  0
  7 24  1  0  0  0  0
  8  9  1  0  0  0  0
  8 10  1  0  0  0  0
  8 12  1  0  0  0  0
  8 26  1  0  0  0  0
  9 11  1  0  0  0  0
  9 27  1  0  0  0  0
  9 28  1  0  0  0  0
 10 29  1  0  0  0  0
 10 30  1  0  0  0  0
 11 31  1  0  0  0  0
 11 32  1  0  0  0  0
 13 15  1  0  0  0  0
 13 33  1  0  0  0  0
 13 34  1  0  0  0  0
 14 16  2  0  0  0  0
 14 17  1  0  0  0  0
 15 19  2  0  0  0  0
 15 20  1  0  0  0  0
 16 18  1  0  0  0  0
 17 21  2  0  0  0  0
 17 36  1  0  0  0  0
 18 22  2  0  0  0  0
 18 37  1  0  0  0  0
 19 23  1  0  0  0  0
 19 38  1  0  0  0  0
 20 24  2  0  0  0  0
 20 39  1  0  0  0  0
 21 22  1  0  0  0  0
 21 25  1  0  0  0  0
 22 40  1  0  0  0  0
 23 41  1  0  0  0  0
 24 42  1  0  0  0  0
M  END
> <PUBCHEM_COMPOUND_CID>
45784270

> <PUBCHEM_CONFORMER_RMSD>
0.8

> <PUBCHEM_CONFORMER_DIVERSEORDER>
1
30
31
27
28
16
18
10
6
12
2
25
33
36
17
34
11
14
35
4
9
8
24
32
20
13
21
29
3
23
15
22
5
19
26
7

> <PUBCHEM_MMFF94_PARTIAL_CHARGES>
32
1 -0.34
10 0.27
11 0.27
12 0.01
13 0.41
14 -0.15
15 -0.14
16 0.23
17 -0.15
18 -0.15
19 -0.15
2 -0.34
20 -0.15
21 -0.14
22 -0.15
23 0.16
24 0.16
25 1.16
3 -0.34
35 0.27
36 0.15
37 0.15
38 0.15
39 0.15
4 -0.81
40 0.15
41 0.15
42 0.15
5 0.03
6 -0.57
7 -0.62
8 0.18

> <PUBCHEM_EFFECTIVE_ROTOR_COUNT>
5

> <PUBCHEM_PHARMACOPHORE_FEATURES>
8
1 4 cation
1 5 donor
1 7 acceptor
3 5 6 12 cation
5 4 8 9 10 11 rings
5 5 6 12 14 16 rings
6 14 16 17 18 21 22 rings
6 7 15 19 20 23 24 rings

> <PUBCHEM_HEAVY_ATOM_COUNT>
25

> <PUBCHEM_ATOM_DEF_STEREO_COUNT>
1

> <PUBCHEM_ATOM_UDEF_STEREO_COUNT>
0

> <PUBCHEM_BOND_DEF_STEREO_COUNT>
0

> <PUBCHEM_BOND_UDEF_STEREO_COUNT>
0

> <PUBCHEM_ISOTOPIC_ATOM_COUNT>
0

> <PUBCHEM_COMPONENT_COUNT>
1

> <PUBCHEM_CACTVS_TAUTO_COUNT>
2

> <PUBCHEM_CONFORMER_ID>
02BA9CCE00000001

> <PUBCHEM_MMFF94_ENERGY>
47.5059

> <PUBCHEM_FEATURE_SELFOVERLAP>
40.704

> <PUBCHEM_SHAPE_FINGERPRINT>
10 15 13045947914508362302
10066227 49 17917436363359584414
10299344 5 18413670223502993367
10595046 47 18410008824176056849
10670039 82 16443618013440180589
11315181 36 11530482221547883591
11408170 108 17774163380554752742
11524674 6 15769773581295496239
11646440 116 16950286200240302325
11719270 70 17847062164620823206
12091667 2 18409449190053504011
12166972 35 18408886260858312901
12236239 1 18131069346263028397
12730499 353 17749389252210946451
12838862 33 12679174956324779709
13533116 47 17095792231606325738
13668630 136 18202848742595406390
13914758 101 18412547578537945401
14170010 4 18333730239095448356
14251752 14 17775284959000924921
14251764 18 17967249793041436168
14251764 46 18411136939405140499
14294032 229 17273152202090002393
14856354 85 18060138774236707159
14933364 13 18409729565154739509
15183329 4 18335414660712236475
15419008 47 16081080494236875277
15849732 13 18131912667286358460
17093844 174 13183022922191659751
18006028 8 12607403291350428803
18335252 98 18410016542290894763
18681886 176 18131061662519024451
20238998 120 13614522956781064643
20281389 69 16515399668909225948
21033648 29 17604429734237674784
21095086 128 18409728487461034447
21150785 3 18411982468447855118
21267235 1 18413673504193395149
21315763 28 18411980282647176629
221357 26 18333729113508256772
22224240 67 9511458914070809196
23035841 295 17346598591035096783
23198884 109 18408604773539285385
23536379 177 18412824681923425897
23559900 14 16702005526315424267
23576562 1 17823996725773123286
249057 3 18411698815854329311
29717793 49 17988929968224911524
3004659 81 18343017796039011928
314173 85 14405188383091227291
335352 9 18260833705222443342
34797466 226 15554449630822272256
3545911 37 17821727238956791683
4073 2 17895479240321606291
4098825 35 18337390444421190613
4325135 7 18408602570347591671
5283156 175 17418097598152254698
5758199 1 17676206858204759651
59682541 35 15502383340020905945
59755656 215 18040153998417239042
59755656 520 17676201403422870091
9663363 56 15697995228798426299

> <PUBCHEM_SHAPE_MULTIPOLES>
472.74
23.57
1.33
0.99
6.35
0.23
-0.17
-0.92
3.18
-0.33
0.1
0.29
-0.06
-0.62

> <PUBCHEM_SHAPE_SELFOVERLAP>
1040.234

> <PUBCHEM_SHAPE_VOLUME>
258.8

> <PUBCHEM_COORDINATE_TYPE>
2
5
10

$$$$
