75536871
  -OEChem-12032416333D

 45 47  0     1  0  0  0  0  0999 V2000
   -5.3336    0.1831   -1.4826 F   0  0  0  0  0  0  0  0  0  0  0  0
   -5.8154    0.0403    0.6271 F   0  0  0  0  0  0  0  0  0  0  0  0
   -4.7921   -1.6018   -0.3649 F   0  0  0  0  0  0  0  0  0  0  0  0
    2.8571    2.9831   -1.3156 O   0  0  0  0  0  0  0  0  0  0  0  0
    0.1744    2.0236    1.0120 O   0  0  0  0  0  0  0  0  0  0  0  0
    3.3042    0.4194   -0.0855 N   0  0  1  0  0  0  0  0  0  0  0  0
    1.3545   -3.4124   -0.4724 N   0  0  0  0  0  0  0  0  0  0  0  0
    1.4089   -3.6688    0.8457 N   0  0  0  0  0  0  0  0  0  0  0  0
    2.3175    0.9646    0.8463 C   0  0  0  0  0  0  0  0  0  0  0  0
    1.2440    1.7684    0.1009 C   0  0  2  0  0  0  0  0  0  0  0  0
    4.4083    1.3312   -0.4048 C   0  0  0  0  0  0  0  0  0  0  0  0
    1.7079    3.0993   -0.4855 C   0  0  0  0  0  0  0  0  0  0  0  0
    3.8329   -0.8621    0.3833 C   0  0  0  0  0  0  0  0  0  0  0  0
    4.0510    2.8073   -0.5624 C   0  0  0  0  0  0  0  0  0  0  0  0
    2.8156   -1.9655    0.2645 C   0  0  0  0  0  0  0  0  0  0  0  0
   -1.0390    1.4754    0.6992 C   0  0  0  0  0  0  0  0  0  0  0  0
    2.1781   -2.4010   -0.8716 C   0  0  0  0  0  0  0  0  0  0  0  0
    2.3030   -2.7818    1.2905 C   0  0  0  0  0  0  0  0  0  0  0  0
   -1.1682    0.0919    0.5765 C   0  0  0  0  0  0  0  0  0  0  0  0
   -2.1468    2.2998    0.5020 C   0  0  0  0  0  0  0  0  0  0  0  0
    0.4762   -4.1848   -1.3177 C   0  0  0  0  0  0  0  0  0  0  0  0
   -2.4053   -0.4671    0.2565 C   0  0  0  0  0  0  0  0  0  0  0  0
   -3.3838    1.7406    0.1820 C   0  0  0  0  0  0  0  0  0  0  0  0
   -3.5133    0.3572    0.0594 C   0  0  0  0  0  0  0  0  0  0  0  0
   -4.8360   -0.2400   -0.2829 C   0  0  0  0  0  0  0  0  0  0  0  0
    2.7873    1.5681    1.6348 H   0  0  0  0  0  0  0  0  0  0  0  0
    1.8016    0.1686    1.3960 H   0  0  0  0  0  0  0  0  0  0  0  0
    0.8991    1.1540   -0.7449 H   0  0  0  0  0  0  0  0  0  0  0  0
    4.8415    0.9895   -1.3537 H   0  0  0  0  0  0  0  0  0  0  0  0
    5.2045    1.2650    0.3486 H   0  0  0  0  0  0  0  0  0  0  0  0
    0.9006    3.5084   -1.1049 H   0  0  0  0  0  0  0  0  0  0  0  0
    1.8716    3.8478    0.3008 H   0  0  0  0  0  0  0  0  0  0  0  0
    4.2007   -0.7870    1.4151 H   0  0  0  0  0  0  0  0  0  0  0  0
    4.6896   -1.1668   -0.2339 H   0  0  0  0  0  0  0  0  0  0  0  0
    3.9884    3.3096    0.4109 H   0  0  0  0  0  0  0  0  0  0  0  0
    4.8569    3.3033   -1.1150 H   0  0  0  0  0  0  0  0  0  0  0  0
    2.2406   -2.0826   -1.9034 H   0  0  0  0  0  0  0  0  0  0  0  0
    2.5414   -2.7684    2.3445 H   0  0  0  0  0  0  0  0  0  0  0  0
   -0.3210   -0.5678    0.7353 H   0  0  0  0  0  0  0  0  0  0  0  0
   -2.0514    3.3781    0.5955 H   0  0  0  0  0  0  0  0  0  0  0  0
   -2.4849   -1.5471    0.1672 H   0  0  0  0  0  0  0  0  0  0  0  0
   -4.2412    2.3910    0.0299 H   0  0  0  0  0  0  0  0  0  0  0  0
    0.7592   -5.2373   -1.2380 H   0  0  0  0  0  0  0  0  0  0  0  0
   -0.5503   -4.0347   -0.9739 H   0  0  0  0  0  0  0  0  0  0  0  0
    0.5762   -3.8486   -2.3526 H   0  0  0  0  0  0  0  0  0  0  0  0
  1 25  1  0  0  0  0
  2 25  1  0  0  0  0
  3 25  1  0  0  0  0
  4 12  1  0  0  0  0
  4 14  1  0  0  0  0
  5 10  1  0  0  0  0
  5 16  1  0  0  0  0
  6  9  1  0  0  0  0
  6 11  1  0  0  0  0
  6 13  1  0  0  0  0
  7  8  1  0  0  0  0
  7 17  1  0  0  0  0
  7 21  1  0  0  0  0
  8 18  2  0  0  0  0
  9 10  1  0  0  0  0
  9 26  1  0  0  0  0
  9 27  1  0  0  0  0
 10 12  1  0  0  0  0
 10 28  1  0  0  0  0
 11 14  1  0  0  0  0
 11 29  1  0  0  0  0
 11 30  1  0  0  0  0
 12 31  1  0  0  0  0
 12 32  1  0  0  0  0
 13 15  1  0  0  0  0
 13 33  1  0  0  0  0
 13 34  1  0  0  0  0
 14 35  1  0  0  0  0
 14 36  1  0  0  0  0
 15 17  2  0  0  0  0
 15 18  1  0  0  0  0
 16 19  2  0  0  0  0
 16 20  1  0  0  0  0
 17 37  1  0  0  0  0
 18 38  1  0  0  0  0
 19 22  1  0  0  0  0
 19 39  1  0  0  0  0
 20 23  2  0  0  0  0
 20 40  1  0  0  0  0
 21 43  1  0  0  0  0
 21 44  1  0  0  0  0
 21 45  1  0  0  0  0
 22 24  2  0  0  0  0
 22 41  1  0  0  0  0
 23 24  1  0  0  0  0
 23 42  1  0  0  0  0
 24 25  1  0  0  0  0
M  END
> <PUBCHEM_COMPOUND_CID>
75536871

> <PUBCHEM_CONFORMER_RMSD>
0.8

> <PUBCHEM_CONFORMER_DIVERSEORDER>
7
151
189
192
54
232
182
92
188
43
88
153
33
238
21
158
142
198
143
187
252
215
130
37
162
251
225
181
90
195
118
253
138
227
209
48
237
44
112
256
236
164
5
156
53
247
160
258
50
59
241
135
163
2
208
190
261
248
229
254
109
243
203
173
22
55
194
200
1
115
197
171
242
78
85
52
219
174
259
149
129
204
101
255
81
86
228
12
157
38
4
213
148
161
98
212
144
199
211
13
100
28
230
133
216
262
234
183
172
82
179
264
77
217
32
145
265
214
45
175
51
201
121
224
154
29
119
49
218
39
94
166
205
233
260
134
70
99
8
267
180
141
126
62
244
96
75
210
71
137
168
68
196
73
240
91
131
107
84
257
246
111
221
108
16
34
226
266
3
249
24
15
104
140
268
132
10
95
146
263
110
222
116
167
69
223
19
231
150
127
250
169
17
57
83
26
186
122
245
6
79
206
11
176
25
23
152
235
31
14
178
18
220
123
128
36
93
30
87
159
117
165
170
74
105
155
102
202
61
147
80
139
103
124
41
20
47
9
60
42
58
177
89
136
27
64
207
56
193
191
46
65
184
35
76
113
97
125
63
120
72
66
114
106
239
40
67
185

> <PUBCHEM_MMFF94_PARTIAL_CHARGES>
31
1 -0.34
10 0.28
11 0.27
12 0.28
13 0.45
14 0.28
15 -0.18
16 0.08
17 -0.3
18 0.14
19 -0.15
2 -0.34
20 -0.15
21 0.26
22 -0.15
23 -0.15
24 -0.14
25 1.16
3 -0.34
37 0.15
38 0.15
39 0.15
4 -0.56
40 0.15
41 0.15
42 0.15
5 -0.36
6 -0.81
7 0.31
8 -0.71
9 0.27

> <PUBCHEM_EFFECTIVE_ROTOR_COUNT>
6.4

> <PUBCHEM_PHARMACOPHORE_FEATURES>
7
1 4 acceptor
1 5 acceptor
1 6 cation
1 8 acceptor
5 7 8 15 17 18 rings
6 16 19 20 22 23 24 rings
7 4 6 9 10 11 12 14 rings

> <PUBCHEM_HEAVY_ATOM_COUNT>
25

> <PUBCHEM_ATOM_DEF_STEREO_COUNT>
1

> <PUBCHEM_ATOM_UDEF_STEREO_COUNT>
0

> <PUBCHEM_BOND_DEF_STEREO_COUNT>
0

> <PUBCHEM_BOND_UDEF_STEREO_COUNT>
0

> <PUBCHEM_ISOTOPIC_ATOM_COUNT>
0

> <PUBCHEM_COMPONENT_COUNT>
1

> <PUBCHEM_CACTVS_TAUTO_COUNT>
1

> <PUBCHEM_CONFORMER_ID>
048099E700000007

> <PUBCHEM_MMFF94_ENERGY>
62.9423

> <PUBCHEM_FEATURE_SELFOVERLAP>
35.522

> <PUBCHEM_SHAPE_FINGERPRINT>
10090160 65 18410007775317936765
10616163 171 18338521940258846595
1100329 8 18339075025400428090
11069576 57 18271511005956187695
11756154 67 17261326795344998327
12553582 1 17760943844129823282
12788726 201 17560814186606789913
13083527 12 18042954377819437272
13150687 139 18265909119658465244
1361 2 18263925599790127325
13836976 161 18335986462662080124
138480 1 18121220883617248946
14117953 113 18267858402638039510
14251757 17 17752749261161622829
14863182 85 18342171176892424712
15250474 111 18343014480999485941
15537594 2 18130508643152392671
17138139 8 17771611631953975527
17492 54 18188794794239401766
17492 89 18268994176885802063
17818456 19 17556308263196559313
17980427 26 15867429060117255608
18681886 176 18411133654684003168
19930381 70 18266741268854425587
20028762 73 18271806796771116894
20645477 70 18333450953987699385
21197605 99 18120384404208531035
21285901 2 17749101171595913085
21304303 94 18269858522079442892
21315763 178 18202561795973031961
21344244 181 17916609625436684046
21421861 104 18198079005430276561
235170 7 17749097894709517245
23559900 14 18340760430227422337
238 59 18336557091790141130
25147074 1 18130229260157610313
3060560 45 18334018328485416236
338550 245 18266455606073345054
4280585 95 17905891371209246358
460360 51 18126022476987732961
46194498 28 17822008735466920469
463206 1 18272082846634186255
5283384 97 18342161264186974983
5312544 6 18409728507975573831
59682541 52 18194652949300652757
8272917 22 18410016537098823181
9709674 26 18336273335974793179

> <PUBCHEM_SHAPE_MULTIPOLES>
465.99
9.87
5
1.09
12.77
3.56
-0.1
-1.52
-1.47
-5.19
-1.08
-0.17
0.33
-1.29

> <PUBCHEM_SHAPE_SELFOVERLAP>
986.608

> <PUBCHEM_SHAPE_VOLUME>
262

> <PUBCHEM_COORDINATE_TYPE>
2
5
10

$$$$
