38027645
  -OEChem-12032416143D

 64 65  0     1  0  0  0  0  0999 V2000
    3.1983   -1.4786    1.1619 S   0  0  0  0  0  0  0  0  0  0  0  0
   -3.1270    3.1105    0.4242 O   0  0  0  0  0  0  0  0  0  0  0  0
    3.1167   -1.7747    2.5794 O   0  0  0  0  0  0  0  0  0  0  0  0
    4.3894   -1.8273    0.4113 O   0  0  0  0  0  0  0  0  0  0  0  0
   -3.8933   -1.1167   -0.5581 O   0  0  0  0  0  0  0  0  0  0  0  0
    2.8423    0.1684    0.9103 N   0  0  0  0  0  0  0  0  0  0  0  0
   -3.0993    0.9198    1.1993 N   0  0  0  0  0  0  0  0  0  0  0  0
   -2.5524   -3.7213    1.7845 N   0  0  0  0  0  0  0  0  0  0  0  0
    0.9942    1.3786   -1.1144 C   0  0  1  0  0  0  0  0  0  0  0  0
    2.3575    1.9686   -0.6749 C   0  0  1  0  0  0  0  0  0  0  0  0
   -0.0935    2.4632   -1.0867 C   0  0  0  0  0  0  0  0  0  0  0  0
   -0.2595    3.0862    0.3122 C   0  0  2  0  0  0  0  0  0  0  0  0
    1.0684    0.7540   -2.5112 C   0  0  0  0  0  0  0  0  0  0  0  0
    1.0759    3.4512    0.9281 C   0  0  0  0  0  0  0  0  0  0  0  0
    2.2359    2.9524    0.4651 C   0  0  0  0  0  0  0  0  0  0  0  0
    3.3419    0.8588   -0.2889 C   0  0  0  0  0  0  0  0  0  0  0  0
   -1.0561    2.1604    1.2382 C   0  0  0  0  0  0  0  0  0  0  0  0
   -0.2575    0.0898   -2.8683 C   0  0  0  0  0  0  0  0  0  0  0  0
    1.4408    1.8101   -3.5469 C   0  0  0  0  0  0  0  0  0  0  0  0
    1.0516    4.4395    2.0608 C   0  0  0  0  0  0  0  0  0  0  0  0
   -2.5297    2.1485    0.8996 C   0  0  0  0  0  0  0  0  0  0  0  0
    1.8343   -2.2678    0.3611 C   0  0  0  0  0  0  0  0  0  0  0  0
   -4.4965    0.6233    0.9807 C   0  0  0  0  0  0  0  0  0  0  0  0
    0.6752   -2.5579    1.0809 C   0  0  0  0  0  0  0  0  0  0  0  0
    1.9182   -2.6028   -0.9904 C   0  0  0  0  0  0  0  0  0  0  0  0
   -4.6843    0.0562   -0.4146 C   0  0  0  0  0  0  0  0  0  0  0  0
   -0.3999   -3.1831    0.4493 C   0  0  0  0  0  0  0  0  0  0  0  0
    0.8431   -3.2280   -1.6220 C   0  0  0  0  0  0  0  0  0  0  0  0
   -0.3158   -3.5183   -0.9021 C   0  0  0  0  0  0  0  0  0  0  0  0
   -1.5878   -3.4802    1.1861 C   0  0  0  0  0  0  0  0  0  0  0  0
   -4.0310   -1.6828   -1.8542 C   0  0  0  0  0  0  0  0  0  0  0  0
    0.6969    0.5879   -0.4156 H   0  0  0  0  0  0  0  0  0  0  0  0
    2.8193    2.5443   -1.4809 H   0  0  0  0  0  0  0  0  0  0  0  0
   -1.0632    2.0822   -1.4198 H   0  0  0  0  0  0  0  0  0  0  0  0
    0.1666    3.2858   -1.7633 H   0  0  0  0  0  0  0  0  0  0  0  0
   -0.8171    4.0224    0.1712 H   0  0  0  0  0  0  0  0  0  0  0  0
    1.8365   -0.0256   -2.5272 H   0  0  0  0  0  0  0  0  0  0  0  0
    3.1685    3.2856    0.9166 H   0  0  0  0  0  0  0  0  0  0  0  0
    4.3234    1.2864   -0.0512 H   0  0  0  0  0  0  0  0  0  0  0  0
    3.4850    0.1602   -1.1169 H   0  0  0  0  0  0  0  0  0  0  0  0
   -1.0016    2.5022    2.2789 H   0  0  0  0  0  0  0  0  0  0  0  0
   -0.6471    1.1443    1.2271 H   0  0  0  0  0  0  0  0  0  0  0  0
   -0.1213   -0.5707   -3.7324 H   0  0  0  0  0  0  0  0  0  0  0  0
   -0.6393   -0.5221   -2.0453 H   0  0  0  0  0  0  0  0  0  0  0  0
   -1.0305    0.8120   -3.1493 H   0  0  0  0  0  0  0  0  0  0  0  0
    2.4313    2.2435   -3.3991 H   0  0  0  0  0  0  0  0  0  0  0  0
    1.4804    1.3341   -4.5356 H   0  0  0  0  0  0  0  0  0  0  0  0
    0.7078    2.6153   -3.6398 H   0  0  0  0  0  0  0  0  0  0  0  0
    0.5332    5.3543    1.7559 H   0  0  0  0  0  0  0  0  0  0  0  0
    2.0603    4.7257    2.3780 H   0  0  0  0  0  0  0  0  0  0  0  0
    0.5404    4.0237    2.9336 H   0  0  0  0  0  0  0  0  0  0  0  0
    2.6607    0.7493    1.7377 H   0  0  0  0  0  0  0  0  0  0  0  0
   -2.5219    0.1810    1.5901 H   0  0  0  0  0  0  0  0  0  0  0  0
   -5.0944    1.5299    1.1153 H   0  0  0  0  0  0  0  0  0  0  0  0
   -4.7835   -0.1134    1.7379 H   0  0  0  0  0  0  0  0  0  0  0  0
    0.6012   -2.2922    2.1329 H   0  0  0  0  0  0  0  0  0  0  0  0
    2.8084   -2.3818   -1.5721 H   0  0  0  0  0  0  0  0  0  0  0  0
   -4.3812    0.7930   -1.1684 H   0  0  0  0  0  0  0  0  0  0  0  0
   -5.7406   -0.1913   -0.5695 H   0  0  0  0  0  0  0  0  0  0  0  0
    0.9074   -3.4861   -2.6750 H   0  0  0  0  0  0  0  0  0  0  0  0
   -1.1456   -4.0051   -1.4089 H   0  0  0  0  0  0  0  0  0  0  0  0
   -3.4147   -2.5843   -1.9035 H   0  0  0  0  0  0  0  0  0  0  0  0
   -3.6825   -0.9803   -2.6176 H   0  0  0  0  0  0  0  0  0  0  0  0
   -5.0721   -1.9612   -2.0437 H   0  0  0  0  0  0  0  0  0  0  0  0
  1  3  2  0  0  0  0
  1  4  2  0  0  0  0
  1  6  1  0  0  0  0
  1 22  1  0  0  0  0
  2 21  2  0  0  0  0
  5 26  1  0  0  0  0
  5 31  1  0  0  0  0
  6 16  1  0  0  0  0
  6 52  1  0  0  0  0
  7 21  1  0  0  0  0
  7 23  1  0  0  0  0
  7 53  1  0  0  0  0
  8 30  3  0  0  0  0
  9 10  1  0  0  0  0
  9 11  1  0  0  0  0
  9 13  1  0  0  0  0
  9 32  1  0  0  0  0
 10 15  1  0  0  0  0
 10 16  1  0  0  0  0
 10 33  1  0  0  0  0
 11 12  1  0  0  0  0
 11 34  1  0  0  0  0
 11 35  1  0  0  0  0
 12 14  1  0  0  0  0
 12 17  1  0  0  0  0
 12 36  1  0  0  0  0
 13 18  1  0  0  0  0
 13 19  1  0  0  0  0
 13 37  1  0  0  0  0
 14 15  2  0  0  0  0
 14 20  1  0  0  0  0
 15 38  1  0  0  0  0
 16 39  1  0  0  0  0
 16 40  1  0  0  0  0
 17 21  1  0  0  0  0
 17 41  1  0  0  0  0
 17 42  1  0  0  0  0
 18 43  1  0  0  0  0
 18 44  1  0  0  0  0
 18 45  1  0  0  0  0
 19 46  1  0  0  0  0
 19 47  1  0  0  0  0
 19 48  1  0  0  0  0
 20 49  1  0  0  0  0
 20 50  1  0  0  0  0
 20 51  1  0  0  0  0
 22 24  1  0  0  0  0
 22 25  2  0  0  0  0
 23 26  1  0  0  0  0
 23 54  1  0  0  0  0
 23 55  1  0  0  0  0
 24 27  2  0  0  0  0
 24 56  1  0  0  0  0
 25 28  1  0  0  0  0
 25 57  1  0  0  0  0
 26 58  1  0  0  0  0
 26 59  1  0  0  0  0
 27 29  1  0  0  0  0
 27 30  1  0  0  0  0
 28 29  2  0  0  0  0
 28 60  1  0  0  0  0
 29 61  1  0  0  0  0
 31 62  1  0  0  0  0
 31 63  1  0  0  0  0
 31 64  1  0  0  0  0
M  END
> <PUBCHEM_COMPOUND_CID>
38027645

> <PUBCHEM_CONFORMER_RMSD>
1.2

> <PUBCHEM_CONFORMER_DIVERSEORDER>
2
38
122
131
6
86
140
134
162
167
156
65
143
82
77
33
78
99
157
95
25
32
150
137
139
112
101
136
64
128
145
68
121
154
113
97
163
135
93
75
35
18
125
73
102
72
160
59
152
107
147
56
129
123
69
29
24
108
31
127
116
41
53
149
70
98
39
34
110
90
15
94
43
151
52
100
165
8
80
76
17
57
37
88
23
74
104
44
109
60
46
66
132
63
144
91
133
26
14
142
96
42
54
67
138
126
159
114
83
45
62
161
120
103
30
20
79
85
141
36
155
87
89
105
61
48
166
21
153
118
71
13
146
119
19
3
11
58
84
148
5
130
117
51
50
22
92
158
124
4
111
27
47
55
106
12
164
40
1
81
16
28
10
115
49
9
7

> <PUBCHEM_MMFF94_PARTIAL_CHARGES>
33
1 1.45
10 0.14
12 0.14
14 -0.28
15 -0.29
16 0.36
17 0.06
2 -0.57
20 0.14
21 0.57
22 -0.01
23 0.3
24 -0.15
25 -0.15
26 0.28
27 0.07
28 -0.15
29 -0.15
3 -0.65
30 0.48
31 0.28
38 0.15
4 -0.65
5 -0.56
52 0.42
53 0.37
56 0.15
57 0.15
6 -0.91
60 0.15
61 0.15
7 -0.73
8 -0.56

> <PUBCHEM_EFFECTIVE_ROTOR_COUNT>
11.8

> <PUBCHEM_PHARMACOPHORE_FEATURES>
10
1 2 acceptor
1 3 acceptor
1 4 acceptor
1 5 acceptor
1 6 donor
1 7 donor
1 8 acceptor
3 13 18 19 hydrophobe
6 22 24 25 27 28 29 rings
6 9 10 11 12 14 15 rings

> <PUBCHEM_HEAVY_ATOM_COUNT>
31

> <PUBCHEM_ATOM_DEF_STEREO_COUNT>
3

> <PUBCHEM_ATOM_UDEF_STEREO_COUNT>
0

> <PUBCHEM_BOND_DEF_STEREO_COUNT>
0

> <PUBCHEM_BOND_UDEF_STEREO_COUNT>
0

> <PUBCHEM_ISOTOPIC_ATOM_COUNT>
0

> <PUBCHEM_COMPONENT_COUNT>
1

> <PUBCHEM_CACTVS_TAUTO_COUNT>
2

> <PUBCHEM_CONFORMER_ID>
0244417D00000002

> <PUBCHEM_MMFF94_ENERGY>
47.4838

> <PUBCHEM_FEATURE_SELFOVERLAP>
50.766

> <PUBCHEM_SHAPE_FINGERPRINT>
11513181 2 18202005421482958582
12156800 1 18049760462095986094
12539773 59 13444740339542594656
13122387 1 18195531630177734875
14081887 123 17690837865597621971
20600515 1 17460898205967201434
20764821 26 18122378789430705083
21304303 282 16816614422650181252
21421861 104 18269291096607185377
25265897 201 15318064826195880311
35225 105 18050837025180541533
392239 28 17979640026825237242
463206 1 18340493279193523289
469060 322 17338101461458060184
5081480 168 14375143458287843589
6287921 2 18057886848893589175
9896288 288 17699001783275627832

> <PUBCHEM_SHAPE_MULTIPOLES>
603.39
6.58
6.31
2.67
5.94
0.72
-1.87
-1.47
0.94
-0.12
2.91
-0.84
-0.02
-0.22

> <PUBCHEM_SHAPE_SELFOVERLAP>
1219.697

> <PUBCHEM_SHAPE_VOLUME>
353.3

> <PUBCHEM_COORDINATE_TYPE>
2
5
10

$$$$
