11885877
  -OEChem-12032416283D

 51 55  0     1  0  0  0  0  0999 V2000
   -1.6402   -5.2368   -0.8063 F   0  0  0  0  0  0  0  0  0  0  0  0
    1.2271    2.4584    1.3325 O   0  0  0  0  0  0  0  0  0  0  0  0
   -3.0360   -0.1942    2.5806 O   0  0  0  0  0  0  0  0  0  0  0  0
    3.1194   -1.2880   -1.0943 O   0  0  0  0  0  0  0  0  0  0  0  0
    5.3804    0.6579    0.7279 O   0  0  0  0  0  0  0  0  0  0  0  0
   -3.3813    0.7523    0.4688 N   0  0  0  0  0  0  0  0  0  0  0  0
   -0.5883    2.1424   -0.1040 N   0  0  0  0  0  0  0  0  0  0  0  0
    2.8693    0.8175   -0.1379 N   0  0  0  0  0  0  0  0  0  0  0  0
   -2.8883    3.1872    0.3211 C   0  0  1  0  0  0  0  0  0  0  0  0
   -2.5415    1.7477   -1.6457 C   0  0  2  0  0  0  0  0  0  0  0  0
   -3.0421    3.1189   -1.1944 C   0  0  0  0  0  0  0  0  0  0  0  0
   -3.7132    2.0759    0.9953 C   0  0  0  0  0  0  0  0  0  0  0  0
   -1.3980    3.0932    0.6712 C   0  0  0  0  0  0  0  0  0  0  0  0
   -3.4032    0.6446   -0.9990 C   0  0  0  0  0  0  0  0  0  0  0  0
   -1.0862    1.5467   -1.2675 C   0  0  0  0  0  0  0  0  0  0  0  0
   -0.2911    0.7717   -2.0240 C   0  0  0  0  0  0  0  0  0  0  0  0
    0.7392    1.9429    0.3257 C   0  0  0  0  0  0  0  0  0  0  0  0
   -3.0561   -0.2782    1.3539 C   0  0  0  0  0  0  0  0  0  0  0  0
    1.5841    1.0507   -0.5299 C   0  0  0  0  0  0  0  0  0  0  0  0
    1.0703    0.5197   -1.6444 C   0  0  0  0  0  0  0  0  0  0  0  0
   -2.6846   -1.5788    0.7873 C   0  0  0  0  0  0  0  0  0  0  0  0
   -1.3512   -1.8510    0.4929 C   0  0  0  0  0  0  0  0  0  0  0  0
   -3.6674   -2.5357    0.5466 C   0  0  0  0  0  0  0  0  0  0  0  0
    3.5640   -0.3444   -0.4452 C   0  0  0  0  0  0  0  0  0  0  0  0
   -0.9980   -3.0881   -0.0461 C   0  0  0  0  0  0  0  0  0  0  0  0
   -3.3143   -3.7729    0.0078 C   0  0  0  0  0  0  0  0  0  0  0  0
   -1.9795   -4.0492   -0.2884 C   0  0  0  0  0  0  0  0  0  0  0  0
    4.9638   -0.4081    0.0497 C   0  0  0  0  0  0  0  0  0  0  0  0
    5.8690   -1.3794   -0.0854 C   0  0  0  0  0  0  0  0  0  0  0  0
    7.0109   -0.8826    0.5869 C   0  0  0  0  0  0  0  0  0  0  0  0
    6.6629    0.3596    1.0641 C   0  0  0  0  0  0  0  0  0  0  0  0
   -3.2682    4.1494    0.6862 H   0  0  0  0  0  0  0  0  0  0  0  0
   -2.6550    1.6828   -2.7356 H   0  0  0  0  0  0  0  0  0  0  0  0
   -2.4701    3.9209   -1.6776 H   0  0  0  0  0  0  0  0  0  0  0  0
   -4.0924    3.2564   -1.4793 H   0  0  0  0  0  0  0  0  0  0  0  0
   -3.5744    2.1073    2.0811 H   0  0  0  0  0  0  0  0  0  0  0  0
   -4.7812    2.2352    0.8023 H   0  0  0  0  0  0  0  0  0  0  0  0
   -1.2671    2.8752    1.7387 H   0  0  0  0  0  0  0  0  0  0  0  0
   -0.9363    4.0763    0.5056 H   0  0  0  0  0  0  0  0  0  0  0  0
   -3.0768   -0.3410   -1.3396 H   0  0  0  0  0  0  0  0  0  0  0  0
   -4.4498    0.7560   -1.3084 H   0  0  0  0  0  0  0  0  0  0  0  0
   -0.6577    0.2905   -2.9248 H   0  0  0  0  0  0  0  0  0  0  0  0
    1.6312   -0.0854   -2.3460 H   0  0  0  0  0  0  0  0  0  0  0  0
    3.2623    1.4423    0.5618 H   0  0  0  0  0  0  0  0  0  0  0  0
   -0.5779   -1.1136    0.6878 H   0  0  0  0  0  0  0  0  0  0  0  0
   -4.7101   -2.3299    0.7735 H   0  0  0  0  0  0  0  0  0  0  0  0
    0.0415   -3.3033   -0.2754 H   0  0  0  0  0  0  0  0  0  0  0  0
   -4.0783   -4.5211   -0.1815 H   0  0  0  0  0  0  0  0  0  0  0  0
    5.7655   -2.3294   -0.5892 H   0  0  0  0  0  0  0  0  0  0  0  0
    7.9681   -1.3690    0.7087 H   0  0  0  0  0  0  0  0  0  0  0  0
    7.1856    1.1163    1.6310 H   0  0  0  0  0  0  0  0  0  0  0  0
  1 27  1  0  0  0  0
  2 17  2  0  0  0  0
  3 18  2  0  0  0  0
  4 24  2  0  0  0  0
  5 28  1  0  0  0  0
  5 31  1  0  0  0  0
  6 12  1  0  0  0  0
  6 14  1  0  0  0  0
  6 18  1  0  0  0  0
  7 13  1  0  0  0  0
  7 15  1  0  0  0  0
  7 17  1  0  0  0  0
  8 19  1  0  0  0  0
  8 24  1  0  0  0  0
  8 44  1  0  0  0  0
  9 11  1  0  0  0  0
  9 12  1  0  0  0  0
  9 13  1  0  0  0  0
  9 32  1  0  0  0  0
 10 11  1  0  0  0  0
 10 14  1  0  0  0  0
 10 15  1  0  0  0  0
 10 33  1  0  0  0  0
 11 34  1  0  0  0  0
 11 35  1  0  0  0  0
 12 36  1  0  0  0  0
 12 37  1  0  0  0  0
 13 38  1  0  0  0  0
 13 39  1  0  0  0  0
 14 40  1  0  0  0  0
 14 41  1  0  0  0  0
 15 16  2  0  0  0  0
 16 20  1  0  0  0  0
 16 42  1  0  0  0  0
 17 19  1  0  0  0  0
 18 21  1  0  0  0  0
 19 20  2  0  0  0  0
 20 43  1  0  0  0  0
 21 22  2  0  0  0  0
 21 23  1  0  0  0  0
 22 25  1  0  0  0  0
 22 45  1  0  0  0  0
 23 26  2  0  0  0  0
 23 46  1  0  0  0  0
 24 28  1  0  0  0  0
 25 27  2  0  0  0  0
 25 47  1  0  0  0  0
 26 27  1  0  0  0  0
 26 48  1  0  0  0  0
 28 29  2  0  0  0  0
 29 30  1  0  0  0  0
 29 49  1  0  0  0  0
 30 31  2  0  0  0  0
 30 50  1  0  0  0  0
 31 51  1  0  0  0  0
M  END
> <PUBCHEM_COMPOUND_CID>
11885877

> <PUBCHEM_CONFORMER_RMSD>
0.8

> <PUBCHEM_CONFORMER_DIVERSEORDER>
1
2
12
5
18
14
7
15
10
8
16
17
6
4
11
3
9
13

> <PUBCHEM_MMFF94_PARTIAL_CHARGES>
39
1 -0.19
10 0.14
12 0.3
13 0.3
14 0.3
15 -0.03
16 -0.15
17 0.62
18 0.54
19 0.12
2 -0.57
20 -0.15
21 0.09
22 -0.15
23 -0.15
24 0.71
25 -0.15
26 -0.15
27 0.19
28 0.05
29 -0.15
3 -0.57
30 -0.15
31 -0.01
4 -0.57
42 0.15
43 0.15
44 0.37
45 0.15
46 0.15
47 0.15
48 0.15
49 0.15
5 -0.28
50 0.15
51 0.15
6 -0.66
7 -0.47
8 -0.54

> <PUBCHEM_EFFECTIVE_ROTOR_COUNT>
6

> <PUBCHEM_PHARMACOPHORE_FEATURES>
10
1 2 acceptor
1 3 acceptor
1 4 acceptor
1 5 acceptor
1 8 donor
5 5 28 29 30 31 rings
6 21 22 23 25 26 27 rings
6 6 9 10 11 12 14 rings
6 7 15 16 17 19 20 rings
6 7 9 10 11 13 15 rings

> <PUBCHEM_HEAVY_ATOM_COUNT>
31

> <PUBCHEM_ATOM_DEF_STEREO_COUNT>
2

> <PUBCHEM_ATOM_UDEF_STEREO_COUNT>
0

> <PUBCHEM_BOND_DEF_STEREO_COUNT>
0

> <PUBCHEM_BOND_UDEF_STEREO_COUNT>
0

> <PUBCHEM_ISOTOPIC_ATOM_COUNT>
0

> <PUBCHEM_COMPONENT_COUNT>
1

> <PUBCHEM_CACTVS_TAUTO_COUNT>
2

> <PUBCHEM_CONFORMER_ID>
00B55D3500000001

> <PUBCHEM_MMFF94_ENERGY>
80.6371

> <PUBCHEM_FEATURE_SELFOVERLAP>
52.33

> <PUBCHEM_SHAPE_FINGERPRINT>
10483366 6 18337374021141731519
11014199 57 17976825603407716354
11112241 14 17987232240160831420
11135609 149 17405402878266247647
11513181 2 18126843802740196263
11524674 6 18264765476175514429
11552529 35 18410288146931072920
11720765 8 17337571794214343583
12422481 6 17755338641257558217
12633257 1 18057348217107957289
12788726 201 18189914173827090126
13004483 165 18193280917212470711
14020679 6 17988086573633893721
14114206 34 16226032423045307069
14659021 117 18269255984800673301
14674994 50 18261942038201460095
14844126 61 18408041835806264491
14950920 106 17917157203269499976
15183329 4 9151170957562734240
16728300 4 17823132333281900611
19611394 137 18271802459165040288
20775530 9 17835255810371947823
23559900 14 18336817701531553469
23569943 247 14619685389515958180
3383291 50 18411135836205726635
3459 110 18269270326282277632
397830 11 18269823359752129992
4073 2 18340199710253525450
4409770 3 18335132077544273421
463206 1 17974856373608021835
469060 322 16805043999686974534
484985 159 18334001809424127911
5080951 261 17896013522058863972
5104073 3 18338217329527559352
9981440 41 18192998115017025793

> <PUBCHEM_SHAPE_MULTIPOLES>
592.27
11.79
5.08
1.57
29.46
5.3
0
2.14
-3.57
-7.58
0.49
-0.9
-0.54
0.61

> <PUBCHEM_SHAPE_SELFOVERLAP>
1317.827

> <PUBCHEM_SHAPE_VOLUME>
313.5

> <PUBCHEM_COORDINATE_TYPE>
2
5
10

$$$$
