25389078
  -OEChem-12032416163D

 55 58  0     1  0  0  0  0  0999 V2000
   -2.4968    3.3250    0.2231 S   0  0  0  0  0  0  0  0  0  0  0  0
   -3.0783    4.3860   -0.5759 O   0  0  0  0  0  0  0  0  0  0  0  0
   -1.0578    3.1912    0.3444 O   0  0  0  0  0  0  0  0  0  0  0  0
   -2.7954   -1.8656    0.5111 N   0  0  2  0  0  0  0  0  0  0  0  0
    1.9293   -2.3205    0.8633 N   0  0  0  0  0  0  0  0  0  0  0  0
   -3.1440    1.8189   -0.2571 N   0  0  0  0  0  0  0  0  0  0  0  0
    3.0634   -1.6103    0.9890 N   0  0  0  0  0  0  0  0  0  0  0  0
   -1.1139   -1.9448   -1.4762 C   0  0  2  0  0  0  0  0  0  0  0  0
   -0.4000   -2.3083   -0.1449 C   0  0  2  0  0  0  0  0  0  0  0  0
   -2.8930   -0.6154   -0.2874 C   0  0  2  0  0  0  0  0  0  0  0  0
   -1.7667   -0.5529   -1.3413 C   0  0  0  0  0  0  0  0  0  0  0  0
   -1.4087   -2.0438    1.0093 C   0  0  0  0  0  0  0  0  0  0  0  0
   -2.2570   -2.9658   -1.6614 C   0  0  0  0  0  0  0  0  0  0  0  0
   -3.1150   -3.0030   -0.3847 C   0  0  0  0  0  0  0  0  0  0  0  0
    0.9653   -1.6940    0.1294 C   0  0  0  0  0  0  0  0  0  0  0  0
   -2.9216    0.6368    0.5916 C   0  0  0  0  0  0  0  0  0  0  0  0
    1.5061   -0.4902   -0.2511 C   0  0  0  0  0  0  0  0  0  0  0  0
    3.8485    0.5907    0.2038 C   0  0  0  0  0  0  0  0  0  0  0  0
    2.7988   -0.4933    0.3061 C   0  0  0  0  0  0  0  0  0  0  0  0
    4.2667    0.8712   -1.2506 C   0  0  0  0  0  0  0  0  0  0  0  0
    3.4187    1.9538    0.7846 C   0  0  0  0  0  0  0  0  0  0  0  0
    4.5246    2.3696   -1.2967 C   0  0  0  0  0  0  0  0  0  0  0  0
    3.4475    2.9307   -0.3852 C   0  0  0  0  0  0  0  0  0  0  0  0
    1.8379   -3.6196    1.4882 C   0  0  0  0  0  0  0  0  0  0  0  0
   -3.1587    3.4538    1.8685 C   0  0  0  0  0  0  0  0  0  0  0  0
   -0.4229   -1.9718   -2.3253 H   0  0  0  0  0  0  0  0  0  0  0  0
   -0.2344   -3.3952   -0.1922 H   0  0  0  0  0  0  0  0  0  0  0  0
   -3.8553   -0.6347   -0.8208 H   0  0  0  0  0  0  0  0  0  0  0  0
   -1.0270    0.2082   -1.0892 H   0  0  0  0  0  0  0  0  0  0  0  0
   -2.1958   -0.2611   -2.3085 H   0  0  0  0  0  0  0  0  0  0  0  0
   -1.3915   -2.8956    1.7021 H   0  0  0  0  0  0  0  0  0  0  0  0
   -1.1075   -1.1849    1.6198 H   0  0  0  0  0  0  0  0  0  0  0  0
   -1.8508   -3.9632   -1.8663 H   0  0  0  0  0  0  0  0  0  0  0  0
   -2.8729   -2.6833   -2.5238 H   0  0  0  0  0  0  0  0  0  0  0  0
   -4.1792   -2.9834   -0.6503 H   0  0  0  0  0  0  0  0  0  0  0  0
   -2.9630   -3.9502    0.1483 H   0  0  0  0  0  0  0  0  0  0  0  0
   -1.9808    0.7479    1.1393 H   0  0  0  0  0  0  0  0  0  0  0  0
   -3.7383    0.5685    1.3190 H   0  0  0  0  0  0  0  0  0  0  0  0
    1.0583    0.2866   -0.8502 H   0  0  0  0  0  0  0  0  0  0  0  0
    4.7379    0.2606    0.7595 H   0  0  0  0  0  0  0  0  0  0  0  0
    3.4729    0.6152   -1.9627 H   0  0  0  0  0  0  0  0  0  0  0  0
    5.1551    0.2978   -1.5355 H   0  0  0  0  0  0  0  0  0  0  0  0
    4.1503    2.2705    1.5387 H   0  0  0  0  0  0  0  0  0  0  0  0
    2.4380    1.9389    1.2713 H   0  0  0  0  0  0  0  0  0  0  0  0
   -4.0755    1.8421   -0.6929 H   0  0  0  0  0  0  0  0  0  0  0  0
    4.4622    2.7706   -2.3122 H   0  0  0  0  0  0  0  0  0  0  0  0
    5.5197    2.5967   -0.8965 H   0  0  0  0  0  0  0  0  0  0  0  0
    3.6621    3.9544   -0.0655 H   0  0  0  0  0  0  0  0  0  0  0  0
    2.4787    2.9288   -0.8989 H   0  0  0  0  0  0  0  0  0  0  0  0
    1.7703   -4.3767    0.7032 H   0  0  0  0  0  0  0  0  0  0  0  0
    2.7313   -3.7958    2.0935 H   0  0  0  0  0  0  0  0  0  0  0  0
    0.9548   -3.6407    2.1305 H   0  0  0  0  0  0  0  0  0  0  0  0
   -2.8728    4.4306    2.2662 H   0  0  0  0  0  0  0  0  0  0  0  0
   -4.2470    3.3839    1.8199 H   0  0  0  0  0  0  0  0  0  0  0  0
   -2.7386    2.6697    2.4997 H   0  0  0  0  0  0  0  0  0  0  0  0
  1  2  2  0  0  0  0
  1  3  2  0  0  0  0
  1  6  1  0  0  0  0
  1 25  1  0  0  0  0
  4 10  1  0  0  0  0
  4 12  1  0  0  0  0
  4 14  1  0  0  0  0
  5  7  1  0  0  0  0
  5 15  1  0  0  0  0
  5 24  1  0  0  0  0
  6 16  1  0  0  0  0
  6 45  1  0  0  0  0
  7 19  2  0  0  0  0
  8  9  1  0  0  0  0
  8 11  1  0  0  0  0
  8 13  1  0  0  0  0
  8 26  1  0  0  0  0
  9 12  1  0  0  0  0
  9 15  1  0  0  0  0
  9 27  1  0  0  0  0
 10 11  1  0  0  0  0
 10 16  1  0  0  0  0
 10 28  1  0  0  0  0
 11 29  1  0  0  0  0
 11 30  1  0  0  0  0
 12 31  1  0  0  0  0
 12 32  1  0  0  0  0
 13 14  1  0  0  0  0
 13 33  1  0  0  0  0
 13 34  1  0  0  0  0
 14 35  1  0  0  0  0
 14 36  1  0  0  0  0
 15 17  2  0  0  0  0
 16 37  1  0  0  0  0
 16 38  1  0  0  0  0
 17 19  1  0  0  0  0
 17 39  1  0  0  0  0
 18 19  1  0  0  0  0
 18 20  1  0  0  0  0
 18 21  1  0  0  0  0
 18 40  1  0  0  0  0
 20 22  1  0  0  0  0
 20 41  1  0  0  0  0
 20 42  1  0  0  0  0
 21 23  1  0  0  0  0
 21 43  1  0  0  0  0
 21 44  1  0  0  0  0
 22 23  1  0  0  0  0
 22 46  1  0  0  0  0
 22 47  1  0  0  0  0
 23 48  1  0  0  0  0
 23 49  1  0  0  0  0
 24 50  1  0  0  0  0
 24 51  1  0  0  0  0
 24 52  1  0  0  0  0
 25 53  1  0  0  0  0
 25 54  1  0  0  0  0
 25 55  1  0  0  0  0
M  END
> <PUBCHEM_COMPOUND_CID>
25389078

> <PUBCHEM_CONFORMER_RMSD>
1

> <PUBCHEM_CONFORMER_DIVERSEORDER>
1
23
63
71
31
67
53
47
34
25
70
66
30
52
65
58
59
40
39
10
50
7
17
48
4
36
41
35
68
60
29
13
37
27
2
12
42
6
57
22
15
62
61
5
19
9
8
32
46
56
16
72
28
24
51
64
69
11
18
43
54
49
45
44
20
33
38
21
26
55
3
14

> <PUBCHEM_MMFF94_PARTIAL_CHARGES>
20
1 1.33
10 0.27
12 0.27
14 0.27
15 -0.33
16 0.36
17 -0.15
18 0.18
19 0.11
2 -0.65
24 0.26
25 0.11
3 -0.65
39 0.15
4 -0.81
45 0.42
5 0.31
6 -0.91
7 -0.71
9 0.18

> <PUBCHEM_EFFECTIVE_ROTOR_COUNT>
7.2

> <PUBCHEM_PHARMACOPHORE_FEATURES>
8
1 2 acceptor
1 3 acceptor
1 4 cation
1 6 donor
1 7 acceptor
5 18 20 21 22 23 rings
5 5 7 15 17 19 rings
8 4 8 9 10 11 12 13 14 rings

> <PUBCHEM_HEAVY_ATOM_COUNT>
25

> <PUBCHEM_ATOM_DEF_STEREO_COUNT>
3

> <PUBCHEM_ATOM_UDEF_STEREO_COUNT>
0

> <PUBCHEM_BOND_DEF_STEREO_COUNT>
0

> <PUBCHEM_BOND_UDEF_STEREO_COUNT>
0

> <PUBCHEM_ISOTOPIC_ATOM_COUNT>
0

> <PUBCHEM_COMPONENT_COUNT>
1

> <PUBCHEM_CACTVS_TAUTO_COUNT>
1

> <PUBCHEM_CONFORMER_ID>
0183681600000001

> <PUBCHEM_MMFF94_ENERGY>
45.4295

> <PUBCHEM_FEATURE_SELFOVERLAP>
40.614

> <PUBCHEM_SHAPE_FINGERPRINT>
10006869 2 18411140217320093715
10498660 4 18267295615750560468
10670039 82 18263650739680452404
10871710 139 18267030637812000277
10940486 97 18127397974418871718
1100329 8 18193272980307839794
11059048 146 18198638648027550728
11221954 11 18268999678543216231
12539773 59 16909493442486203153
12633257 1 17688029717406505817
12788726 201 18122065566293326604
12978246 48 18266740173337344961
13122387 1 17907860600302078896
13583140 156 17534348838498715395
14117953 113 17473819529051771204
14123250 116 18410291419290230453
14251751 93 18342748437545091772
14251757 17 17629796442252657316
14787075 74 17756139347156875327
14950920 106 17676491626772644507
151778 21 18051706442367925201
19930381 70 16681751701998654235
20621476 13 17472698022965225805
21033650 10 18124624070048407580
21860390 5 17189530872236877077
21864079 5 18335700589533220298
22113638 7 17762042251450117032
22907989 373 18272359889457589055
235170 7 17130439088854613188
23558518 356 18335978697234725394
238918 7 16177321498366553946
469060 322 17897173626674113825
5048184 11 18337959991223417132
5252454 2 18340781350887137968
5939293 188 17544755629860967107
7097593 13 18045770200754108162
7226269 152 17977093889088240368

> <PUBCHEM_SHAPE_MULTIPOLES>
486.68
8.15
5.86
1.45
7.36
4.64
-0.03
4.34
-1.35
-4.53
1.24
-0.1
-0.31
-2.47

> <PUBCHEM_SHAPE_SELFOVERLAP>
1009.751

> <PUBCHEM_SHAPE_VOLUME>
282

> <PUBCHEM_COORDINATE_TYPE>
2
5
10

$$$$
