26743124
  -OEChem-12032416193D

 68 72  0     1  0  0  0  0  0999 V2000
    7.6977   -1.6171   -0.0110 S   0  0  0  0  0  0  0  0  0  0  0  0
   -1.9675    1.3653    2.6765 O   0  0  0  0  0  0  0  0  0  0  0  0
    4.9391   -2.3058    1.7408 O   0  0  0  0  0  0  0  0  0  0  0  0
    2.1495    2.5518   -0.4717 N   0  0  0  0  0  0  0  0  0  0  0  0
   -3.3066    0.4183    1.0304 N   0  0  0  0  0  0  0  0  0  0  0  0
   -5.9059   -0.2188   -0.0732 N   0  0  0  0  0  0  0  0  0  0  0  0
    3.6854   -1.8104    2.0783 N   0  0  0  0  0  0  0  0  0  0  0  0
   -7.4362   -1.7628   -0.9957 N   0  0  0  0  0  0  0  0  0  0  0  0
    0.3807    1.1438    1.4244 C   0  0  1  0  0  0  0  0  0  0  0  0
    1.7062    0.5353    0.9078 C   0  0  2  0  0  0  0  0  0  0  0  0
    0.4603    2.6765    1.3263 C   0  0  0  0  0  0  0  0  0  0  0  0
    2.0847    1.0900   -0.4758 C   0  0  0  0  0  0  0  0  0  0  0  0
   -0.8687    0.6155    0.7095 C   0  0  0  0  0  0  0  0  0  0  0  0
    0.8805    3.1509   -0.0641 C   0  0  0  0  0  0  0  0  0  0  0  0
    1.6965   -0.9939    0.8892 C   0  0  0  0  0  0  0  0  0  0  0  0
   -2.0896    0.8394    1.5677 C   0  0  0  0  0  0  0  0  0  0  0  0
    3.0907   -1.5501    0.9106 C   0  0  0  0  0  0  0  0  0  0  0  0
   -4.5340    0.5955    1.8020 C   0  0  0  0  0  0  0  0  0  0  0  0
   -3.4512   -0.1963   -0.2912 C   0  0  0  0  0  0  0  0  0  0  0  0
   -5.7401    0.8612    0.9037 C   0  0  0  0  0  0  0  0  0  0  0  0
   -4.7314   -1.0215   -0.4234 C   0  0  0  0  0  0  0  0  0  0  0  0
    3.9127   -1.8581   -0.1873 C   0  0  0  0  0  0  0  0  0  0  0  0
   -7.1552   -0.4938   -0.6239 C   0  0  0  0  0  0  0  0  0  0  0  0
    5.0626   -2.3294    0.3891 C   0  0  0  0  0  0  0  0  0  0  0  0
    6.3357   -2.8290   -0.1440 C   0  0  0  0  0  0  0  0  0  0  0  0
   -8.0375    0.5664   -0.7555 C   0  0  0  0  0  0  0  0  0  0  0  0
   -9.2887    0.3076   -1.3038 C   0  0  0  0  0  0  0  0  0  0  0  0
   -8.6619   -1.9762   -1.5247 C   0  0  0  0  0  0  0  0  0  0  0  0
   -9.6148   -0.9854   -1.6982 C   0  0  0  0  0  0  0  0  0  0  0  0
    6.9973   -0.2194   -0.8766 C   0  0  0  0  0  0  0  0  0  0  0  0
    6.6223   -0.3439   -2.2143 C   0  0  0  0  0  0  0  0  0  0  0  0
    6.8264    0.9963   -0.2144 C   0  0  0  0  0  0  0  0  0  0  0  0
    6.0760    0.7475   -2.8899 C   0  0  0  0  0  0  0  0  0  0  0  0
    6.2801    2.0877   -0.8900 C   0  0  0  0  0  0  0  0  0  0  0  0
    5.9047    1.9631   -2.2277 C   0  0  0  0  0  0  0  0  0  0  0  0
    0.3239    0.8791    2.4894 H   0  0  0  0  0  0  0  0  0  0  0  0
    2.4876    0.8642    1.6111 H   0  0  0  0  0  0  0  0  0  0  0  0
    1.1951    3.0370    2.0590 H   0  0  0  0  0  0  0  0  0  0  0  0
   -0.4913    3.1476    1.5952 H   0  0  0  0  0  0  0  0  0  0  0  0
    3.0714    0.7265   -0.7762 H   0  0  0  0  0  0  0  0  0  0  0  0
    1.3750    0.7505   -1.2404 H   0  0  0  0  0  0  0  0  0  0  0  0
   -0.7889   -0.4656    0.5689 H   0  0  0  0  0  0  0  0  0  0  0  0
   -1.0118    1.0783   -0.2707 H   0  0  0  0  0  0  0  0  0  0  0  0
    0.1039    2.9395   -0.8073 H   0  0  0  0  0  0  0  0  0  0  0  0
    1.0020    4.2397   -0.0426 H   0  0  0  0  0  0  0  0  0  0  0  0
    1.1746   -1.3784    0.0043 H   0  0  0  0  0  0  0  0  0  0  0  0
    1.1596   -1.3787    1.7662 H   0  0  0  0  0  0  0  0  0  0  0  0
    2.3947    2.8816   -1.4048 H   0  0  0  0  0  0  0  0  0  0  0  0
   -4.4126    1.4138    2.5197 H   0  0  0  0  0  0  0  0  0  0  0  0
   -4.6815   -0.3257    2.3790 H   0  0  0  0  0  0  0  0  0  0  0  0
   -2.5910   -0.8320   -0.5151 H   0  0  0  0  0  0  0  0  0  0  0  0
   -3.4537    0.6243   -1.0191 H   0  0  0  0  0  0  0  0  0  0  0  0
   -6.6231    0.9482    1.5486 H   0  0  0  0  0  0  0  0  0  0  0  0
   -5.6020    1.8126    0.3755 H   0  0  0  0  0  0  0  0  0  0  0  0
   -4.8029   -1.3845   -1.4559 H   0  0  0  0  0  0  0  0  0  0  0  0
   -4.6871   -1.8967    0.2360 H   0  0  0  0  0  0  0  0  0  0  0  0
    3.7014   -1.7572   -1.2416 H   0  0  0  0  0  0  0  0  0  0  0  0
    6.6414   -3.7268    0.4040 H   0  0  0  0  0  0  0  0  0  0  0  0
    6.2257   -3.1265   -1.1921 H   0  0  0  0  0  0  0  0  0  0  0  0
   -7.7969    1.5853   -0.4729 H   0  0  0  0  0  0  0  0  0  0  0  0
  -10.0071    1.1123   -1.4279 H   0  0  0  0  0  0  0  0  0  0  0  0
   -8.8666   -3.0009   -1.8165 H   0  0  0  0  0  0  0  0  0  0  0  0
  -10.5837   -1.2101   -2.1290 H   0  0  0  0  0  0  0  0  0  0  0  0
    6.7528   -1.2789   -2.7530 H   0  0  0  0  0  0  0  0  0  0  0  0
    7.1113    1.1116    0.8284 H   0  0  0  0  0  0  0  0  0  0  0  0
    5.7844    0.6511   -3.9316 H   0  0  0  0  0  0  0  0  0  0  0  0
    6.1450    3.0338   -0.3742 H   0  0  0  0  0  0  0  0  0  0  0  0
    5.4779    2.8124   -2.7531 H   0  0  0  0  0  0  0  0  0  0  0  0
  1 25  1  0  0  0  0
  1 30  1  0  0  0  0
  2 16  2  0  0  0  0
  3  7  1  0  0  0  0
  3 24  1  0  0  0  0
  4 12  1  0  0  0  0
  4 14  1  0  0  0  0
  4 48  1  0  0  0  0
  5 16  1  0  0  0  0
  5 18  1  0  0  0  0
  5 19  1  0  0  0  0
  6 20  1  0  0  0  0
  6 21  1  0  0  0  0
  6 23  1  0  0  0  0
  7 17  2  0  0  0  0
  8 23  1  0  0  0  0
  8 28  2  0  0  0  0
  9 10  1  0  0  0  0
  9 11  1  0  0  0  0
  9 13  1  0  0  0  0
  9 36  1  0  0  0  0
 10 12  1  0  0  0  0
 10 15  1  0  0  0  0
 10 37  1  0  0  0  0
 11 14  1  0  0  0  0
 11 38  1  0  0  0  0
 11 39  1  0  0  0  0
 12 40  1  0  0  0  0
 12 41  1  0  0  0  0
 13 16  1  0  0  0  0
 13 42  1  0  0  0  0
 13 43  1  0  0  0  0
 14 44  1  0  0  0  0
 14 45  1  0  0  0  0
 15 17  1  0  0  0  0
 15 46  1  0  0  0  0
 15 47  1  0  0  0  0
 17 22  1  0  0  0  0
 18 20  1  0  0  0  0
 18 49  1  0  0  0  0
 18 50  1  0  0  0  0
 19 21  1  0  0  0  0
 19 51  1  0  0  0  0
 19 52  1  0  0  0  0
 20 53  1  0  0  0  0
 20 54  1  0  0  0  0
 21 55  1  0  0  0  0
 21 56  1  0  0  0  0
 22 24  2  0  0  0  0
 22 57  1  0  0  0  0
 23 26  2  0  0  0  0
 24 25  1  0  0  0  0
 25 58  1  0  0  0  0
 25 59  1  0  0  0  0
 26 27  1  0  0  0  0
 26 60  1  0  0  0  0
 27 29  2  0  0  0  0
 27 61  1  0  0  0  0
 28 29  1  0  0  0  0
 28 62  1  0  0  0  0
 29 63  1  0  0  0  0
 30 31  2  0  0  0  0
 30 32  1  0  0  0  0
 31 33  1  0  0  0  0
 31 64  1  0  0  0  0
 32 34  2  0  0  0  0
 32 65  1  0  0  0  0
 33 35  2  0  0  0  0
 33 66  1  0  0  0  0
 34 35  1  0  0  0  0
 34 67  1  0  0  0  0
 35 68  1  0  0  0  0
M  END
> <PUBCHEM_COMPOUND_CID>
26743124

> <PUBCHEM_CONFORMER_RMSD>
1.2

> <PUBCHEM_CONFORMER_DIVERSEORDER>
1
164
175
223
225
198
199
45
77
194
184
240
226
57
20
271
255
116
94
18
163
83
66
244
264
151
258
136
126
219
144
105
41
274
129
263
261
179
135
269
203
17
80
277
65
102
224
231
185
61
133
257
169
145
101
134
259
262
39
162
222
218
270
180
207
275
247
268
267
31
171
252
183
242
172
33
251
106
276
272
245
50
122
204
228
79
155
72
51
248
149
260
213
173
182
89
205
249
246
7
177
37
59
107
15
120
81
146
99
215
174
210
238
176
181
214
147
96
28
5
235
71
200
192
206
159
256
148
132
75
230
156
250
239
195
32
202
112
233
191
118
63
109
60
266
137
241
111
100
153
273
87
23
95
121
9
123
90
265
62
142
196
86
130
19
187
208
221
76
232
117
201
254
74
64
98
154
166
170
24
36
158
35
209
68
6
29
237
216
82
110
178
157
150
236
114
97
229
190
70
52
193
73
186
125
38
4
14
140
54
27
69
103
119
3
46
278
115
220
21
152
13
16
26
67
165
234
168
141
84
128
138
211
88
12
124
108
161
48
78
2
227
11
43
49
47
243
93
143
56
139
113
160
189
217
40
92
131
58
8
25
188
253
197
127
55
85
30
53
212
104
91
34
42
167
22
10
44

> <PUBCHEM_MMFF94_PARTIAL_CHARGES>
43
1 -0.33
12 0.27
13 0.06
14 0.27
15 0.18
16 0.57
17 0.11
18 0.3
19 0.3
2 -0.57
20 0.37
21 0.37
22 -0.15
23 0.41
24 -0.04
25 0.41
26 -0.15
27 -0.15
28 0.16
29 -0.15
3 -0.02
30 0.1
31 -0.15
32 -0.15
33 -0.15
34 -0.15
35 -0.15
4 -0.9
48 0.36
5 -0.66
57 0.15
6 -0.84
60 0.15
61 0.15
62 0.15
63 0.15
64 0.15
65 0.15
66 0.15
67 0.15
68 0.15
7 -0.41
8 -0.62

> <PUBCHEM_EFFECTIVE_ROTOR_COUNT>
11.4

> <PUBCHEM_PHARMACOPHORE_FEATURES>
11
1 2 acceptor
1 4 cation
1 4 donor
1 6 cation
1 7 acceptor
1 8 acceptor
5 3 7 17 22 24 rings
6 30 31 32 33 34 35 rings
6 4 9 10 11 12 14 rings
6 5 6 18 19 20 21 rings
6 8 23 26 27 28 29 rings

> <PUBCHEM_HEAVY_ATOM_COUNT>
35

> <PUBCHEM_ATOM_DEF_STEREO_COUNT>
2

> <PUBCHEM_ATOM_UDEF_STEREO_COUNT>
0

> <PUBCHEM_BOND_DEF_STEREO_COUNT>
0

> <PUBCHEM_BOND_UDEF_STEREO_COUNT>
0

> <PUBCHEM_ISOTOPIC_ATOM_COUNT>
0

> <PUBCHEM_COMPONENT_COUNT>
1

> <PUBCHEM_CACTVS_TAUTO_COUNT>
1

> <PUBCHEM_CONFORMER_ID>
0198115400000001

> <PUBCHEM_MMFF94_ENERGY>
83.0643

> <PUBCHEM_FEATURE_SELFOVERLAP>
55.823

> <PUBCHEM_SHAPE_FINGERPRINT>
10162869 55 18335420158761434026
10533779 47 13470417690553928487
10625338 131 11242239741757196311
11136257 40 17313391067554609876
11408170 132 18260823766109516573
12522641 33 18265335191800627692
12717326 120 16773508997032588727
12838862 33 18041572442602782388
13617811 41 17775287153781934852
13627175 4 17488739116890331447
13692115 27 17060622205389303313
13782708 43 15338843019133098296
13947947 19 17845926420654004991
14040221 8 15792003425665414612
14068700 675 18060700567725925633
14429380 56 17967536774920698294
150020 25 16877950425069810554
15064986 266 18261115171978413425
15183329 4 18411140234257148625
15301273 46 15195287491065559593
15510800 12 16630528449433154631
1577012 14 18343308046478200153
15979999 66 18409727365836948845
16664035 7 17968933077906349512
16991971 28 17917717915265299845
20554085 129 13840265896782244776
20737093 15 18261943116402385447
21362857 166 17988651736260350734
23522609 53 18056509203969007384
23576562 1 17968099789267169143
25269216 80 16415209957820848552
3004659 81 18130786785255684369
3383291 50 16774076289630722799
3633792 109 18113620066887037425
4098825 35 17967811609514336549
445580 126 11025794293322137795
44575985 148 16082192014651148941
474113 269 16950835896689461730
504579 68 18412263965252940765
5470011 282 18259985963971559827
9962374 69 16271635798138264933

> <PUBCHEM_SHAPE_MULTIPOLES>
687.49
30.41
2.91
2.21
49.21
0.28
0.33
-13.71
20.34
-4.22
-0.24
-1.2
0.37
-4.53

> <PUBCHEM_SHAPE_SELFOVERLAP>
1449.338

> <PUBCHEM_SHAPE_VOLUME>
387.3

> <PUBCHEM_COORDINATE_TYPE>
2
5
10

$$$$
