38029897
  -OEChem-12032416363D

 55 56  0     1  0  0  0  0  0999 V2000
   -4.3869   -2.4319   -0.2133 F   0  0  0  0  0  0  0  0  0  0  0  0
   -5.6859   -1.0319   -1.2527 F   0  0  0  0  0  0  0  0  0  0  0  0
   -5.9065   -1.3447    0.8877 F   0  0  0  0  0  0  0  0  0  0  0  0
    0.6685    2.7948   -1.3349 O   0  0  0  0  0  0  0  0  0  0  0  0
    0.1507    2.5981    0.9220 N   0  0  0  0  0  0  0  0  0  0  0  0
    3.0525   -1.3075    3.1228 N   0  0  0  0  0  0  0  0  0  0  0  0
    2.0396   -1.1722   -0.4530 C   0  0  2  0  0  0  0  0  0  0  0  0
    2.0486    0.0298   -1.4097 C   0  0  0  0  0  0  0  0  0  0  0  0
    3.4672   -1.7551   -0.3038 C   0  0  1  0  0  0  0  0  0  0  0  0
    2.9860    1.1523   -0.9262 C   0  0  2  0  0  0  0  0  0  0  0  0
    1.0447   -2.2248   -0.9520 C   0  0  0  0  0  0  0  0  0  0  0  0
    4.3378    0.6139   -0.5034 C   0  0  0  0  0  0  0  0  0  0  0  0
    4.5371   -0.6903   -0.2425 C   0  0  0  0  0  0  0  0  0  0  0  0
    2.3405    1.9628    0.2032 C   0  0  0  0  0  0  0  0  0  0  0  0
    3.5707   -2.6549    0.9330 C   0  0  0  0  0  0  0  0  0  0  0  0
   -0.3750   -1.8554   -0.5341 C   0  0  0  0  0  0  0  0  0  0  0  0
    1.1417   -2.3725   -2.4670 C   0  0  0  0  0  0  0  0  0  0  0  0
    5.4680    1.6027   -0.4313 C   0  0  0  0  0  0  0  0  0  0  0  0
    0.9799    2.4957   -0.1854 C   0  0  0  0  0  0  0  0  0  0  0  0
    3.2812   -1.8977    2.1504 C   0  0  0  0  0  0  0  0  0  0  0  0
   -1.2091    3.0807    0.8477 C   0  0  0  0  0  0  0  0  0  0  0  0
   -2.1875    1.9686    0.6024 C   0  0  0  0  0  0  0  0  0  0  0  0
   -2.9980    1.9909   -0.5327 C   0  0  0  0  0  0  0  0  0  0  0  0
   -2.2856    0.9129    1.5088 C   0  0  0  0  0  0  0  0  0  0  0  0
   -3.9067    0.9578   -0.7613 C   0  0  0  0  0  0  0  0  0  0  0  0
   -3.1944   -0.1203    1.2803 C   0  0  0  0  0  0  0  0  0  0  0  0
   -4.0049   -0.0979    0.1454 C   0  0  0  0  0  0  0  0  0  0  0  0
   -4.9744   -1.2040   -0.1007 C   0  0  0  0  0  0  0  0  0  0  0  0
    1.6894   -0.8085    0.5201 H   0  0  0  0  0  0  0  0  0  0  0  0
    1.0357    0.3950   -1.5936 H   0  0  0  0  0  0  0  0  0  0  0  0
    2.4412   -0.2706   -2.3907 H   0  0  0  0  0  0  0  0  0  0  0  0
    3.7059   -2.3738   -1.1782 H   0  0  0  0  0  0  0  0  0  0  0  0
    3.1391    1.8209   -1.7851 H   0  0  0  0  0  0  0  0  0  0  0  0
    1.2613   -3.1990   -0.5019 H   0  0  0  0  0  0  0  0  0  0  0  0
    5.5404   -1.0277    0.0104 H   0  0  0  0  0  0  0  0  0  0  0  0
    2.9585    2.8338    0.4537 H   0  0  0  0  0  0  0  0  0  0  0  0
    2.2650    1.3560    1.1136 H   0  0  0  0  0  0  0  0  0  0  0  0
    4.5793   -3.0820    1.0025 H   0  0  0  0  0  0  0  0  0  0  0  0
    2.8906   -3.5091    0.8586 H   0  0  0  0  0  0  0  0  0  0  0  0
   -0.7010   -0.9041   -0.9655 H   0  0  0  0  0  0  0  0  0  0  0  0
   -0.4535   -1.7806    0.5557 H   0  0  0  0  0  0  0  0  0  0  0  0
   -1.0835   -2.6242   -0.8617 H   0  0  0  0  0  0  0  0  0  0  0  0
    0.5634   -3.2507   -2.7801 H   0  0  0  0  0  0  0  0  0  0  0  0
    2.1667   -2.5400   -2.8107 H   0  0  0  0  0  0  0  0  0  0  0  0
    0.7118   -1.5250   -3.0111 H   0  0  0  0  0  0  0  0  0  0  0  0
    5.5849    2.1168   -1.3908 H   0  0  0  0  0  0  0  0  0  0  0  0
    6.4234    1.1208   -0.1978 H   0  0  0  0  0  0  0  0  0  0  0  0
    5.2788    2.3506    0.3446 H   0  0  0  0  0  0  0  0  0  0  0  0
    0.4988    2.3231    1.8358 H   0  0  0  0  0  0  0  0  0  0  0  0
   -1.2700    3.8424    0.0620 H   0  0  0  0  0  0  0  0  0  0  0  0
   -1.4416    3.5711    1.7996 H   0  0  0  0  0  0  0  0  0  0  0  0
   -2.9315    2.8061   -1.2482 H   0  0  0  0  0  0  0  0  0  0  0  0
   -1.6624    0.8838    2.3987 H   0  0  0  0  0  0  0  0  0  0  0  0
   -4.5280    0.9935   -1.6517 H   0  0  0  0  0  0  0  0  0  0  0  0
   -3.2630   -0.9390    1.9917 H   0  0  0  0  0  0  0  0  0  0  0  0
  1 28  1  0  0  0  0
  2 28  1  0  0  0  0
  3 28  1  0  0  0  0
  4 19  2  0  0  0  0
  5 19  1  0  0  0  0
  5 21  1  0  0  0  0
  5 49  1  0  0  0  0
  6 20  3  0  0  0  0
  7  8  1  0  0  0  0
  7  9  1  0  0  0  0
  7 11  1  0  0  0  0
  7 29  1  0  0  0  0
  8 10  1  0  0  0  0
  8 30  1  0  0  0  0
  8 31  1  0  0  0  0
  9 13  1  0  0  0  0
  9 15  1  0  0  0  0
  9 32  1  0  0  0  0
 10 12  1  0  0  0  0
 10 14  1  0  0  0  0
 10 33  1  0  0  0  0
 11 16  1  0  0  0  0
 11 17  1  0  0  0  0
 11 34  1  0  0  0  0
 12 13  2  0  0  0  0
 12 18  1  0  0  0  0
 13 35  1  0  0  0  0
 14 19  1  0  0  0  0
 14 36  1  0  0  0  0
 14 37  1  0  0  0  0
 15 20  1  0  0  0  0
 15 38  1  0  0  0  0
 15 39  1  0  0  0  0
 16 40  1  0  0  0  0
 16 41  1  0  0  0  0
 16 42  1  0  0  0  0
 17 43  1  0  0  0  0
 17 44  1  0  0  0  0
 17 45  1  0  0  0  0
 18 46  1  0  0  0  0
 18 47  1  0  0  0  0
 18 48  1  0  0  0  0
 21 22  1  0  0  0  0
 21 50  1  0  0  0  0
 21 51  1  0  0  0  0
 22 23  2  0  0  0  0
 22 24  1  0  0  0  0
 23 25  1  0  0  0  0
 23 52  1  0  0  0  0
 24 26  2  0  0  0  0
 24 53  1  0  0  0  0
 25 27  2  0  0  0  0
 25 54  1  0  0  0  0
 26 27  1  0  0  0  0
 26 55  1  0  0  0  0
 27 28  1  0  0  0  0
M  END
> <PUBCHEM_COMPOUND_CID>
38029897

> <PUBCHEM_CONFORMER_RMSD>
1

> <PUBCHEM_CONFORMER_DIVERSEORDER>
1
65
213
64
161
84
113
129
62
3
253
77
134
102
151
252
222
249
114
59
126
94
9
203
46
29
179
170
184
232
263
166
25
21
208
105
260
71
143
109
185
61
122
152
196
138
40
158
115
93
130
221
140
121
236
50
239
238
72
210
257
2
99
89
209
116
67
262
219
159
163
237
19
214
141
241
234
75
259
200
228
78
173
86
90
120
227
247
58
165
225
103
147
155
157
197
176
16
118
128
195
251
39
248
87
96
28
172
231
35
258
83
223
150
88
136
100
245
194
27
17
193
206
229
101
80
55
20
37
246
15
70
119
171
256
167
261
188
226
242
79
127
11
207
104
41
220
13
49
12
34
14
137
177
182
31
123
68
6
154
73
183
85
244
204
110
133
142
33
76
145
215
38
124
186
107
44
224
254
230
175
26
32
36
45
190
243
112
5
106
53
153
97
148
92
7
189
54
10
217
191
51
98
202
144
160
162
81
43
48
125
60
235
91
216
135
233
47
74
56
111
23
187
146
63
205
82
199
69
178
108
24
117
52
218
180
149
169
131
164
240
255
132
168
181
264
66
42
8
22
30
174
198
192
156
95
212
139
201
18
4
57
250
211

> <PUBCHEM_MMFF94_PARTIAL_CHARGES>
29
1 -0.34
10 0.14
12 -0.28
13 -0.29
14 0.06
15 0.2
18 0.14
19 0.57
2 -0.34
20 0.36
21 0.44
22 -0.14
23 -0.15
24 -0.15
25 -0.15
26 -0.15
27 -0.14
28 1.16
3 -0.34
35 0.15
4 -0.57
49 0.37
5 -0.73
52 0.15
53 0.15
54 0.15
55 0.15
6 -0.56
9 0.14

> <PUBCHEM_EFFECTIVE_ROTOR_COUNT>
8.8

> <PUBCHEM_PHARMACOPHORE_FEATURES>
6
1 4 acceptor
1 5 donor
1 6 acceptor
3 11 16 17 hydrophobe
6 22 23 24 25 26 27 rings
6 7 8 9 10 12 13 rings

> <PUBCHEM_HEAVY_ATOM_COUNT>
28

> <PUBCHEM_ATOM_DEF_STEREO_COUNT>
3

> <PUBCHEM_ATOM_UDEF_STEREO_COUNT>
0

> <PUBCHEM_BOND_DEF_STEREO_COUNT>
0

> <PUBCHEM_BOND_UDEF_STEREO_COUNT>
0

> <PUBCHEM_ISOTOPIC_ATOM_COUNT>
0

> <PUBCHEM_COMPONENT_COUNT>
1

> <PUBCHEM_CACTVS_TAUTO_COUNT>
2

> <PUBCHEM_CONFORMER_ID>
02444A4900000001

> <PUBCHEM_MMFF94_ENERGY>
51.7864

> <PUBCHEM_FEATURE_SELFOVERLAP>
30.446

> <PUBCHEM_SHAPE_FINGERPRINT>
12633257 1 17975700485010335120
13224815 77 18129385907971860589
13402501 40 18340211898674249455
13583140 156 17895202167939600899
15001296 14 18270399537044084750
15183329 4 18341889676795087821
16114785 44 15257744480747350000
17349148 13 18343017770485849599
17492 89 18267591208201117535
17809404 112 17914042110897602101
19315092 285 17241027843384844242
20626108 58 18335133146727788848
20775530 9 18409168818414156533
21315764 371 16486102060357908429
22393880 68 18338808792798583612
23559900 14 17911521986965101054
25222932 49 18117287067168333003
339767 52 18341885243238539565
3680242 22 18338809935571081563
439807 62 18187085070764440443
46194498 28 13481430342724065754
463206 1 18198347445376292447
484985 159 16017999051035508618
5309563 4 18271249434290487949
6287921 2 17415864417359616271

> <PUBCHEM_SHAPE_MULTIPOLES>
538.57
11.32
3.72
1.86
8.74
0.85
-0.83
-3.92
-0.49
-0.39
0.18
-1.27
-1.02
-1.28

> <PUBCHEM_SHAPE_SELFOVERLAP>
1117.637

> <PUBCHEM_SHAPE_VOLUME>
307

> <PUBCHEM_COORDINATE_TYPE>
2
5
10

$$$$
