25313072
  -OEChem-12032416373D

 69 72  0     1  0  0  0  0  0999 V2000
    2.6074    3.3645    1.3220 O   0  0  0  0  0  0  0  0  0  0  0  0
    6.2819   -4.0462    0.8552 O   0  0  0  0  0  0  0  0  0  0  0  0
    7.1769   -1.9940    0.4447 O   0  0  0  0  0  0  0  0  0  0  0  0
    0.4505    3.8233    0.0865 O   0  0  0  0  0  0  0  0  0  0  0  0
    3.3953    1.7139   -0.1105 N   0  0  0  0  0  0  0  0  0  0  0  0
   -0.2447   -1.7773   -0.6696 N   0  0  0  0  0  0  0  0  0  0  0  0
   -3.0578   -1.8665   -0.1824 N   0  0  0  0  0  0  0  0  0  0  0  0
    3.3597   -0.6063   -0.9985 C   0  0  2  0  0  0  0  0  0  0  0  0
    4.6443   -0.8989   -0.1819 C   0  0  1  0  0  0  0  0  0  0  0  0
    3.2784    0.8961   -1.3246 C   0  0  0  0  0  0  0  0  0  0  0  0
    4.7508    0.0141    1.0512 C   0  0  0  0  0  0  0  0  0  0  0  0
    2.0678   -1.0739   -0.3165 C   0  0  0  0  0  0  0  0  0  0  0  0
    4.6134    1.4848    0.6659 C   0  0  0  0  0  0  0  0  0  0  0  0
    0.9804   -1.3503   -1.3448 C   0  0  0  0  0  0  0  0  0  0  0  0
    4.7785   -2.3671    0.2212 C   0  0  0  0  0  0  0  0  0  0  0  0
   -1.1408   -2.4592   -1.6112 C   0  0  0  0  0  0  0  0  0  0  0  0
   -0.9313   -0.6255   -0.0718 C   0  0  0  0  0  0  0  0  0  0  0  0
    2.4727    2.6711    0.3105 C   0  0  0  0  0  0  0  0  0  0  0  0
   -2.4026   -2.9612   -0.9049 C   0  0  0  0  0  0  0  0  0  0  0  0
   -2.1853   -1.0668    0.6865 C   0  0  0  0  0  0  0  0  0  0  0  0
    6.2081   -2.7358    0.5069 C   0  0  0  0  0  0  0  0  0  0  0  0
    1.2420    2.8452   -0.5431 C   0  0  0  0  0  0  0  0  0  0  0  0
   -4.4096   -1.9739    0.1629 C   0  0  0  0  0  0  0  0  0  0  0  0
   -4.9678   -3.2273    0.4146 C   0  0  0  0  0  0  0  0  0  0  0  0
   -5.1988   -0.8278    0.2555 C   0  0  0  0  0  0  0  0  0  0  0  0
   -6.3154   -3.3343    0.7587 C   0  0  0  0  0  0  0  0  0  0  0  0
   -6.5463   -0.9346    0.5997 C   0  0  0  0  0  0  0  0  0  0  0  0
   -0.9162    3.7042   -0.0338 C   0  0  0  0  0  0  0  0  0  0  0  0
   -7.1046   -2.1880    0.8512 C   0  0  0  0  0  0  0  0  0  0  0  0
   -1.4676    3.1139   -1.1710 C   0  0  0  0  0  0  0  0  0  0  0  0
   -1.7491    4.1740    0.9816 C   0  0  0  0  0  0  0  0  0  0  0  0
   -2.8520    2.9934   -1.2928 C   0  0  0  0  0  0  0  0  0  0  0  0
   -3.1334    4.0534    0.8600 C   0  0  0  0  0  0  0  0  0  0  0  0
   -3.6849    3.4632   -0.2773 C   0  0  0  0  0  0  0  0  0  0  0  0
    3.4614   -1.1465   -1.9501 H   0  0  0  0  0  0  0  0  0  0  0  0
    5.4857   -0.6443   -0.8435 H   0  0  0  0  0  0  0  0  0  0  0  0
    4.1198    1.1774   -1.9708 H   0  0  0  0  0  0  0  0  0  0  0  0
    2.3742    1.1261   -1.8893 H   0  0  0  0  0  0  0  0  0  0  0  0
    5.7069   -0.1295    1.5659 H   0  0  0  0  0  0  0  0  0  0  0  0
    3.9621   -0.2425    1.7699 H   0  0  0  0  0  0  0  0  0  0  0  0
    1.7590   -0.3394    0.4324 H   0  0  0  0  0  0  0  0  0  0  0  0
    2.2354   -2.0061    0.2336 H   0  0  0  0  0  0  0  0  0  0  0  0
    4.6233    2.1039    1.5686 H   0  0  0  0  0  0  0  0  0  0  0  0
    5.4612    1.7990    0.0457 H   0  0  0  0  0  0  0  0  0  0  0  0
    1.3415   -2.1567   -1.9969 H   0  0  0  0  0  0  0  0  0  0  0  0
    0.7945   -0.4845   -1.9913 H   0  0  0  0  0  0  0  0  0  0  0  0
    4.1862   -2.5885    1.1158 H   0  0  0  0  0  0  0  0  0  0  0  0
    4.4407   -3.0095   -0.6006 H   0  0  0  0  0  0  0  0  0  0  0  0
   -0.6352   -3.3253   -2.0555 H   0  0  0  0  0  0  0  0  0  0  0  0
   -1.4214   -1.7870   -2.4334 H   0  0  0  0  0  0  0  0  0  0  0  0
   -1.2148    0.0964   -0.8484 H   0  0  0  0  0  0  0  0  0  0  0  0
   -0.2946   -0.0995    0.6455 H   0  0  0  0  0  0  0  0  0  0  0  0
   -3.0729   -3.3806   -1.6655 H   0  0  0  0  0  0  0  0  0  0  0  0
   -2.1368   -3.7641   -0.2053 H   0  0  0  0  0  0  0  0  0  0  0  0
   -1.9056   -1.6635    1.5644 H   0  0  0  0  0  0  0  0  0  0  0  0
   -2.6928   -0.1679    1.0553 H   0  0  0  0  0  0  0  0  0  0  0  0
    0.7388    1.8738   -0.5883 H   0  0  0  0  0  0  0  0  0  0  0  0
    1.5314    3.1939   -1.5393 H   0  0  0  0  0  0  0  0  0  0  0  0
    7.2033   -4.3215    1.0494 H   0  0  0  0  0  0  0  0  0  0  0  0
   -4.3802   -4.1396    0.3659 H   0  0  0  0  0  0  0  0  0  0  0  0
   -4.7865    0.1566    0.0492 H   0  0  0  0  0  0  0  0  0  0  0  0
   -6.7497   -4.3097    0.9577 H   0  0  0  0  0  0  0  0  0  0  0  0
   -7.1617   -0.0424    0.6687 H   0  0  0  0  0  0  0  0  0  0  0  0
   -8.1538   -2.2713    1.1191 H   0  0  0  0  0  0  0  0  0  0  0  0
   -0.8537    2.7592   -1.9938 H   0  0  0  0  0  0  0  0  0  0  0  0
   -1.3249    4.6341    1.8697 H   0  0  0  0  0  0  0  0  0  0  0  0
   -3.2819    2.5374   -2.1798 H   0  0  0  0  0  0  0  0  0  0  0  0
   -3.7820    4.4187    1.6508 H   0  0  0  0  0  0  0  0  0  0  0  0
   -4.7627    3.3689   -0.3719 H   0  0  0  0  0  0  0  0  0  0  0  0
  1 18  2  0  0  0  0
  2 21  1  0  0  0  0
  2 59  1  0  0  0  0
  3 21  2  0  0  0  0
  4 22  1  0  0  0  0
  4 28  1  0  0  0  0
  5 10  1  0  0  0  0
  5 13  1  0  0  0  0
  5 18  1  0  0  0  0
  6 14  1  0  0  0  0
  6 16  1  0  0  0  0
  6 17  1  0  0  0  0
  7 19  1  0  0  0  0
  7 20  1  0  0  0  0
  7 23  1  0  0  0  0
  8  9  1  0  0  0  0
  8 10  1  0  0  0  0
  8 12  1  0  0  0  0
  8 35  1  0  0  0  0
  9 11  1  0  0  0  0
  9 15  1  0  0  0  0
  9 36  1  0  0  0  0
 10 37  1  0  0  0  0
 10 38  1  0  0  0  0
 11 13  1  0  0  0  0
 11 39  1  0  0  0  0
 11 40  1  0  0  0  0
 12 14  1  0  0  0  0
 12 41  1  0  0  0  0
 12 42  1  0  0  0  0
 13 43  1  0  0  0  0
 13 44  1  0  0  0  0
 14 45  1  0  0  0  0
 14 46  1  0  0  0  0
 15 21  1  0  0  0  0
 15 47  1  0  0  0  0
 15 48  1  0  0  0  0
 16 19  1  0  0  0  0
 16 49  1  0  0  0  0
 16 50  1  0  0  0  0
 17 20  1  0  0  0  0
 17 51  1  0  0  0  0
 17 52  1  0  0  0  0
 18 22  1  0  0  0  0
 19 53  1  0  0  0  0
 19 54  1  0  0  0  0
 20 55  1  0  0  0  0
 20 56  1  0  0  0  0
 22 57  1  0  0  0  0
 22 58  1  0  0  0  0
 23 24  2  0  0  0  0
 23 25  1  0  0  0  0
 24 26  1  0  0  0  0
 24 60  1  0  0  0  0
 25 27  2  0  0  0  0
 25 61  1  0  0  0  0
 26 29  2  0  0  0  0
 26 62  1  0  0  0  0
 27 29  1  0  0  0  0
 27 63  1  0  0  0  0
 28 30  2  0  0  0  0
 28 31  1  0  0  0  0
 29 64  1  0  0  0  0
 30 32  1  0  0  0  0
 30 65  1  0  0  0  0
 31 33  2  0  0  0  0
 31 66  1  0  0  0  0
 32 34  2  0  0  0  0
 32 67  1  0  0  0  0
 33 34  1  0  0  0  0
 33 68  1  0  0  0  0
 34 69  1  0  0  0  0
M  END
> <PUBCHEM_COMPOUND_CID>
25313072

> <PUBCHEM_CONFORMER_RMSD>
1.2

> <PUBCHEM_CONFORMER_DIVERSEORDER>
1
32
41
27
20
30
22
37
29
44
46
36
18
19
51
10
4
14
34
52
45
26
40
21
13
25
28
50
31
42
17
33
7
24
35
3
11
47
6
2
15
48
23
39
8
9
49
16
5
12
43
38

> <PUBCHEM_MMFF94_PARTIAL_CHARGES>
41
1 -0.57
10 0.3
13 0.3
14 0.27
15 0.06
16 0.27
17 0.27
18 0.57
19 0.37
2 -0.65
20 0.37
21 0.66
22 0.34
23 0.1
24 -0.15
25 -0.15
26 -0.15
27 -0.15
28 0.08
29 -0.15
3 -0.57
30 -0.15
31 -0.15
32 -0.15
33 -0.15
34 -0.15
4 -0.36
5 -0.66
59 0.5
6 -0.81
60 0.15
61 0.15
62 0.15
63 0.15
64 0.15
65 0.15
66 0.15
67 0.15
68 0.15
69 0.15
7 -0.84

> <PUBCHEM_EFFECTIVE_ROTOR_COUNT>
12.4

> <PUBCHEM_PHARMACOPHORE_FEATURES>
11
1 1 acceptor
1 2 acceptor
1 3 acceptor
1 4 acceptor
1 6 cation
1 7 cation
3 2 3 21 anion
6 23 24 25 26 27 29 rings
6 28 30 31 32 33 34 rings
6 5 8 9 10 11 13 rings
6 6 7 16 17 19 20 rings

> <PUBCHEM_HEAVY_ATOM_COUNT>
34

> <PUBCHEM_ATOM_DEF_STEREO_COUNT>
2

> <PUBCHEM_ATOM_UDEF_STEREO_COUNT>
0

> <PUBCHEM_BOND_DEF_STEREO_COUNT>
0

> <PUBCHEM_BOND_UDEF_STEREO_COUNT>
0

> <PUBCHEM_ISOTOPIC_ATOM_COUNT>
0

> <PUBCHEM_COMPONENT_COUNT>
1

> <PUBCHEM_CACTVS_TAUTO_COUNT>
1

> <PUBCHEM_CONFORMER_ID>
01823F3000000001

> <PUBCHEM_MMFF94_ENERGY>
96.8856

> <PUBCHEM_FEATURE_SELFOVERLAP>
55.898

> <PUBCHEM_SHAPE_FINGERPRINT>
10169797 241 18130788992858773500
12107698 1 18408044000617565282
12422481 6 18341337777380861161
13165053 137 17834384623801391979
14725015 67 18409445873985466521
15264996 154 17972330782318446182
15475509 84 18410857650888719046
15968369 153 18059850675751052133
19301679 30 18409163320998689410
21133410 90 17417799626338588729
23845131 108 17834397822441646677
373842 8 18411417302523482749
3886686 26 17688026410134787122
513532 50 17556605427393234269

> <PUBCHEM_SHAPE_MULTIPOLES>
661.28
16.21
6.89
1.22
0.48
5.48
-0.23
-19.3
5.99
-3.01
0.89
0.1
0.11
0.27

> <PUBCHEM_SHAPE_SELFOVERLAP>
1388.75

> <PUBCHEM_SHAPE_VOLUME>
369.3

> <PUBCHEM_COORDINATE_TYPE>
2
5
10

$$$$
