75536086
  -OEChem-12032416293D

 52 54  0     1  0  0  0  0  0999 V2000
    4.5565   -1.5519   -1.3461 O   0  0  0  0  0  0  0  0  0  0  0  0
    2.4923   -3.3360   -1.0376 O   0  0  0  0  0  0  0  0  0  0  0  0
    1.4444    1.8500   -1.0860 O   0  0  0  0  0  0  0  0  0  0  0  0
   -6.3432    0.4290   -0.7041 O   0  0  0  0  0  0  0  0  0  0  0  0
    3.1357    0.7968    0.1025 N   0  0  0  0  0  0  0  0  0  0  0  0
   -1.6417   -1.0891   -0.6012 N   0  0  0  0  0  0  0  0  0  0  0  0
   -3.6823   -0.0793    0.0445 N   0  0  0  0  0  0  0  0  0  0  0  0
    1.7851   -1.0630    1.0253 C   0  0  2  0  0  0  0  0  0  0  0  0
    2.6912   -0.5558   -0.1192 C   0  0  2  0  0  0  0  0  0  0  0  0
    3.8548   -1.5462   -0.1173 C   0  0  1  0  0  0  0  0  0  0  0  0
    2.1315   -2.5637    1.2050 C   0  0  0  0  0  0  0  0  0  0  0  0
    3.1695   -2.8845    0.1313 C   0  0  1  0  0  0  0  0  0  0  0  0
    0.3161   -0.7864    0.7846 C   0  0  0  0  0  0  0  0  0  0  0  0
   -0.4218   -0.0085    1.6700 C   0  0  0  0  0  0  0  0  0  0  0  0
   -0.3347   -1.2988   -0.3261 C   0  0  0  0  0  0  0  0  0  0  0  0
    2.4670    1.9037   -0.4058 C   0  0  0  0  0  0  0  0  0  0  0  0
    3.1434    3.2214   -0.0316 C   0  0  0  0  0  0  0  0  0  0  0  0
   -1.7690    0.2296    1.4210 C   0  0  0  0  0  0  0  0  0  0  0  0
   -2.3266   -0.3283    0.2819 C   0  0  0  0  0  0  0  0  0  0  0  0
   -4.4587   -1.0977   -0.6761 C   0  0  0  0  0  0  0  0  0  0  0  0
   -4.1548    1.2995   -0.1216 C   0  0  0  0  0  0  0  0  0  0  0  0
    2.9232    4.2569   -1.1324 C   0  0  0  0  0  0  0  0  0  0  0  0
    2.6244    3.7456    1.3053 C   0  0  0  0  0  0  0  0  0  0  0  0
   -5.9448   -0.9065   -0.3950 C   0  0  0  0  0  0  0  0  0  0  0  0
   -5.6574    1.3630    0.1290 C   0  0  0  0  0  0  0  0  0  0  0  0
    2.0753   -0.5578    1.9584 H   0  0  0  0  0  0  0  0  0  0  0  0
    2.1902   -0.5836   -1.0948 H   0  0  0  0  0  0  0  0  0  0  0  0
    4.5618   -1.3191    0.6908 H   0  0  0  0  0  0  0  0  0  0  0  0
    2.5849   -2.6971    2.1952 H   0  0  0  0  0  0  0  0  0  0  0  0
    1.2542   -3.2171    1.1514 H   0  0  0  0  0  0  0  0  0  0  0  0
    3.8755   -3.6634    0.4341 H   0  0  0  0  0  0  0  0  0  0  0  0
    3.9381    0.9429    0.7084 H   0  0  0  0  0  0  0  0  0  0  0  0
    5.2148   -2.2663   -1.3030 H   0  0  0  0  0  0  0  0  0  0  0  0
    2.0433   -4.1684   -0.8118 H   0  0  0  0  0  0  0  0  0  0  0  0
    0.0388    0.4165    2.5574 H   0  0  0  0  0  0  0  0  0  0  0  0
    0.1772   -1.9159   -1.0565 H   0  0  0  0  0  0  0  0  0  0  0  0
    4.2235    3.0477    0.0540 H   0  0  0  0  0  0  0  0  0  0  0  0
   -2.3470    0.8249    2.1202 H   0  0  0  0  0  0  0  0  0  0  0  0
   -4.1675   -2.1087   -0.3674 H   0  0  0  0  0  0  0  0  0  0  0  0
   -4.2675   -0.9954   -1.7514 H   0  0  0  0  0  0  0  0  0  0  0  0
   -3.9358    1.6205   -1.1475 H   0  0  0  0  0  0  0  0  0  0  0  0
   -3.6532    1.9947    0.5600 H   0  0  0  0  0  0  0  0  0  0  0  0
    1.8624    4.5082   -1.2426 H   0  0  0  0  0  0  0  0  0  0  0  0
    3.4682    5.1807   -0.9117 H   0  0  0  0  0  0  0  0  0  0  0  0
    3.2759    3.8785   -2.0981 H   0  0  0  0  0  0  0  0  0  0  0  0
    1.5446    3.9271    1.2666 H   0  0  0  0  0  0  0  0  0  0  0  0
    3.1215    4.6814    1.5802 H   0  0  0  0  0  0  0  0  0  0  0  0
    2.8045    3.0174    2.1035 H   0  0  0  0  0  0  0  0  0  0  0  0
   -6.1848   -1.1249    0.6526 H   0  0  0  0  0  0  0  0  0  0  0  0
   -6.5334   -1.5866   -1.0188 H   0  0  0  0  0  0  0  0  0  0  0  0
   -5.8961    1.1585    1.1798 H   0  0  0  0  0  0  0  0  0  0  0  0
   -6.0330    2.3635   -0.1077 H   0  0  0  0  0  0  0  0  0  0  0  0
  1 10  1  0  0  0  0
  1 33  1  0  0  0  0
  2 12  1  0  0  0  0
  2 34  1  0  0  0  0
  3 16  2  0  0  0  0
  4 24  1  0  0  0  0
  4 25  1  0  0  0  0
  5  9  1  0  0  0  0
  5 16  1  0  0  0  0
  5 32  1  0  0  0  0
  6 15  1  0  0  0  0
  6 19  2  0  0  0  0
  7 19  1  0  0  0  0
  7 20  1  0  0  0  0
  7 21  1  0  0  0  0
  8  9  1  0  0  0  0
  8 11  1  0  0  0  0
  8 13  1  0  0  0  0
  8 26  1  0  0  0  0
  9 10  1  0  0  0  0
  9 27  1  0  0  0  0
 10 12  1  0  0  0  0
 10 28  1  0  0  0  0
 11 12  1  0  0  0  0
 11 29  1  0  0  0  0
 11 30  1  0  0  0  0
 12 31  1  0  0  0  0
 13 14  1  0  0  0  0
 13 15  2  0  0  0  0
 14 18  2  0  0  0  0
 14 35  1  0  0  0  0
 15 36  1  0  0  0  0
 16 17  1  0  0  0  0
 17 22  1  0  0  0  0
 17 23  1  0  0  0  0
 17 37  1  0  0  0  0
 18 19  1  0  0  0  0
 18 38  1  0  0  0  0
 20 24  1  0  0  0  0
 20 39  1  0  0  0  0
 20 40  1  0  0  0  0
 21 25  1  0  0  0  0
 21 41  1  0  0  0  0
 21 42  1  0  0  0  0
 22 43  1  0  0  0  0
 22 44  1  0  0  0  0
 22 45  1  0  0  0  0
 23 46  1  0  0  0  0
 23 47  1  0  0  0  0
 23 48  1  0  0  0  0
 24 49  1  0  0  0  0
 24 50  1  0  0  0  0
 25 51  1  0  0  0  0
 25 52  1  0  0  0  0
M  END
> <PUBCHEM_COMPOUND_CID>
75536086

> <PUBCHEM_CONFORMER_RMSD>
0.8

> <PUBCHEM_CONFORMER_DIVERSEORDER>
2
65
38
74
34
58
22
60
68
47
31
10
28
69
72
63
45
42
57
24
12
43
9
64
14
36
35
40
8
66
48
13
30
44
1
71
26
53
25
50
61
23
41
27
39
62
37
4
67
11
16
29
59
49
52
46
32
20
70
21
19
73
18
6
56
17
55
51
3
7
54
33
5
15

> <PUBCHEM_MMFF94_PARTIAL_CHARGES>
28
1 -0.68
10 0.28
12 0.28
13 -0.14
14 -0.15
15 0.16
16 0.57
17 0.06
18 -0.15
19 0.41
2 -0.68
20 0.37
21 0.37
24 0.28
25 0.28
3 -0.57
32 0.37
33 0.4
34 0.4
35 0.15
36 0.15
38 0.15
4 -0.56
5 -0.73
6 -0.62
7 -0.84
8 0.14
9 0.3

> <PUBCHEM_EFFECTIVE_ROTOR_COUNT>
7.2

> <PUBCHEM_PHARMACOPHORE_FEATURES>
12
1 1 acceptor
1 1 donor
1 2 acceptor
1 2 donor
1 3 acceptor
1 4 acceptor
1 5 donor
3 17 22 23 hydrophobe
3 6 7 19 cation
5 8 9 10 11 12 rings
6 4 7 20 21 24 25 rings
6 6 13 14 15 18 19 rings

> <PUBCHEM_HEAVY_ATOM_COUNT>
25

> <PUBCHEM_ATOM_DEF_STEREO_COUNT>
4

> <PUBCHEM_ATOM_UDEF_STEREO_COUNT>
0

> <PUBCHEM_BOND_DEF_STEREO_COUNT>
0

> <PUBCHEM_BOND_UDEF_STEREO_COUNT>
0

> <PUBCHEM_ISOTOPIC_ATOM_COUNT>
0

> <PUBCHEM_COMPONENT_COUNT>
1

> <PUBCHEM_CACTVS_TAUTO_COUNT>
2

> <PUBCHEM_CONFORMER_ID>
048096D600000002

> <PUBCHEM_MMFF94_ENERGY>
77.0566

> <PUBCHEM_FEATURE_SELFOVERLAP>
60.907

> <PUBCHEM_SHAPE_FINGERPRINT>
10366900 7 17676212338060991075
10937287 8 18050286174182017892
12166972 35 18130787807030483691
12403259 327 15503205859716021240
12633257 1 15720223062549294053
12730499 353 18263933304966471643
12788726 201 17539412020857256834
13583140 156 18188223021975222915
13590594 115 18191311472427528336
14468879 13 17898855913660982105
14863182 85 16415198923496510166
15420108 30 18124295350362641480
15439362 3 18265899249691801764
15664445 248 18269563754058242142
16988056 13 18260828185567749428
17349148 13 17632577094269203179
17844677 252 18410015412608559067
17980427 23 17982979467193480858
1813 80 18197780998903273982
18335252 114 18121209888923510373
18681886 176 18201432567345404106
20554085 129 17772460438537278904
21033648 29 16732973216321081877
21304303 282 17338414015525045596
21860390 5 18410858754806064716
221357 26 18188770531325756741
22149856 69 18130233761425904651
22289505 5 18188771635090043350
23522609 53 17916606335961279017
23559900 14 18343015588653084459
3004659 81 18130503046530879067
34797466 226 18335136523415835687
46194498 28 18409166601899607335
465052 167 13973672911024149254
474 4 18115586096472087145
495365 180 18338231699570727128
5281201 14 18335699404169608951
633830 44 18334002892367660139
6443956 14 18337113371970516340
67856867 119 18411972590012486097
7471813 234 18201436935253025016
84936 182 18270120252801927752
9981440 41 17977380861021476448

> <PUBCHEM_SHAPE_MULTIPOLES>
476.07
11.57
4.33
1.26
20.45
3.46
-0.26
1.49
3.12
-8.06
0.56
-0.56
0.1
-0.15

> <PUBCHEM_SHAPE_SELFOVERLAP>
994.222

> <PUBCHEM_SHAPE_VOLUME>
269.8

> <PUBCHEM_COORDINATE_TYPE>
2
5
10

$$$$
