75536943
  -OEChem-12032416303D

 41 43  0     1  0  0  0  0  0999 V2000
   -0.9319   -2.7180   -0.7171 O   0  0  0  0  0  0  0  0  0  0  0  0
   -1.4335    0.8600   -0.4316 O   0  0  0  0  0  0  0  0  0  0  0  0
    3.6530   -2.0994    0.6621 O   0  0  0  0  0  0  0  0  0  0  0  0
    1.4818   -1.2188    0.6055 N   0  0  0  0  0  0  0  0  0  0  0  0
   -3.5223   -0.1164   -0.1925 N   0  0  0  0  0  0  0  0  0  0  0  0
    3.8915    2.4547    0.7137 N   0  0  0  0  0  0  0  0  0  0  0  0
    4.8532    1.4976   -1.2778 N   0  0  0  0  0  0  0  0  0  0  0  0
   -0.8424   -0.3776   -0.0328 C   0  0  2  0  0  0  0  0  0  0  0  0
    0.6028   -0.0677    0.3676 C   0  0  0  0  0  0  0  0  0  0  0  0
    0.8676   -2.5074    0.9294 C   0  0  0  0  0  0  0  0  0  0  0  0
   -0.9465   -1.3733   -1.1862 C   0  0  0  0  0  0  0  0  0  0  0  0
    0.3499   -3.1982   -0.3257 C   0  0  0  0  0  0  0  0  0  0  0  0
    2.8813   -1.1543    0.5024 C   0  0  0  0  0  0  0  0  0  0  0  0
    3.4983    0.1415    0.1778 C   0  0  0  0  0  0  0  0  0  0  0  0
   -2.7702    1.0069   -0.1828 C   0  0  0  0  0  0  0  0  0  0  0  0
   -3.2729    2.2750    0.0600 C   0  0  0  0  0  0  0  0  0  0  0  0
    3.3404    1.2525    0.9807 C   0  0  0  0  0  0  0  0  0  0  0  0
    4.2726    0.3247   -0.9496 C   0  0  0  0  0  0  0  0  0  0  0  0
   -4.8421    0.0426    0.0536 C   0  0  0  0  0  0  0  0  0  0  0  0
   -4.6354    2.3981    0.3090 C   0  0  0  0  0  0  0  0  0  0  0  0
   -5.4419    1.2655    0.3077 C   0  0  0  0  0  0  0  0  0  0  0  0
   -5.6778   -1.1937    0.0414 C   0  0  0  0  0  0  0  0  0  0  0  0
    4.6246    2.5057   -0.4148 C   0  0  0  0  0  0  0  0  0  0  0  0
   -1.3520   -0.7739    0.8568 H   0  0  0  0  0  0  0  0  0  0  0  0
    1.0465    0.5736   -0.4026 H   0  0  0  0  0  0  0  0  0  0  0  0
    0.5868    0.5253    1.2902 H   0  0  0  0  0  0  0  0  0  0  0  0
    0.0786   -2.3467    1.6713 H   0  0  0  0  0  0  0  0  0  0  0  0
    1.6234   -3.1505    1.3934 H   0  0  0  0  0  0  0  0  0  0  0  0
   -1.8831   -1.2489   -1.7379 H   0  0  0  0  0  0  0  0  0  0  0  0
   -0.1522   -1.2183   -1.9276 H   0  0  0  0  0  0  0  0  0  0  0  0
    1.0516   -3.1207   -1.1645 H   0  0  0  0  0  0  0  0  0  0  0  0
    0.2188   -4.2637   -0.1087 H   0  0  0  0  0  0  0  0  0  0  0  0
   -2.6303    3.1486    0.0575 H   0  0  0  0  0  0  0  0  0  0  0  0
    2.7706    1.2152    1.9036 H   0  0  0  0  0  0  0  0  0  0  0  0
    4.4570   -0.4854   -1.6482 H   0  0  0  0  0  0  0  0  0  0  0  0
   -5.0678    3.3750    0.5037 H   0  0  0  0  0  0  0  0  0  0  0  0
   -6.5061    1.3490    0.5002 H   0  0  0  0  0  0  0  0  0  0  0  0
   -6.4499   -1.1239   -0.7313 H   0  0  0  0  0  0  0  0  0  0  0  0
   -5.0677   -2.0783   -0.1697 H   0  0  0  0  0  0  0  0  0  0  0  0
   -6.1571   -1.3390    1.0148 H   0  0  0  0  0  0  0  0  0  0  0  0
    5.0789    3.4594   -0.6538 H   0  0  0  0  0  0  0  0  0  0  0  0
  1 11  1  0  0  0  0
  1 12  1  0  0  0  0
  2  8  1  0  0  0  0
  2 15  1  0  0  0  0
  3 13  2  0  0  0  0
  4  9  1  0  0  0  0
  4 10  1  0  0  0  0
  4 13  1  0  0  0  0
  5 15  1  0  0  0  0
  5 19  2  0  0  0  0
  6 17  2  0  0  0  0
  6 23  1  0  0  0  0
  7 18  1  0  0  0  0
  7 23  2  0  0  0  0
  8  9  1  0  0  0  0
  8 11  1  0  0  0  0
  8 24  1  0  0  0  0
  9 25  1  0  0  0  0
  9 26  1  0  0  0  0
 10 12  1  0  0  0  0
 10 27  1  0  0  0  0
 10 28  1  0  0  0  0
 11 29  1  0  0  0  0
 11 30  1  0  0  0  0
 12 31  1  0  0  0  0
 12 32  1  0  0  0  0
 13 14  1  0  0  0  0
 14 17  1  0  0  0  0
 14 18  2  0  0  0  0
 15 16  2  0  0  0  0
 16 20  1  0  0  0  0
 16 33  1  0  0  0  0
 17 34  1  0  0  0  0
 18 35  1  0  0  0  0
 19 21  1  0  0  0  0
 19 22  1  0  0  0  0
 20 21  2  0  0  0  0
 20 36  1  0  0  0  0
 21 37  1  0  0  0  0
 22 38  1  0  0  0  0
 22 39  1  0  0  0  0
 22 40  1  0  0  0  0
 23 41  1  0  0  0  0
M  END
> <PUBCHEM_COMPOUND_CID>
75536943

> <PUBCHEM_CONFORMER_RMSD>
0.8

> <PUBCHEM_CONFORMER_DIVERSEORDER>
1
161
211
177
73
9
173
142
181
169
14
148
90
166
203
23
68
208
63
199
79
49
154
209
195
146
41
120
123
22
88
222
190
188
76
39
55
77
122
218
130
145
224
194
196
202
32
74
174
223
29
93
135
191
226
50
217
82
144
162
42
38
127
78
183
176
71
157
4
97
7
147
67
129
184
30
87
216
180
165
119
31
43
121
213
163
140
85
227
219
204
6
108
104
5
205
84
91
131
198
33
37
153
110
27
103
66
141
189
98
8
69
34
160
16
221
155
113
128
179
111
220
61
151
48
109
206
210
152
11
62
20
215
28
36
136
137
168
134
58
187
10
158
21
80
54
186
164
105
150
46
17
114
132
70
72
193
133
2
57
170
13
59
45
51
65
18
100
81
92
53
96
201
138
47
192
116
64
178
207
19
35
60
12
182
156
102
172
112
139
200
212
95
56
107
117
167
86
99
171
25
214
26
159
143
185
83
15
44
52
175
106
40
89
3
125
94
75
115
124
197
118
225
101
24
126
149

> <PUBCHEM_MMFF94_PARTIAL_CHARGES>
29
1 -0.56
10 0.3
11 0.28
12 0.28
13 0.54
14 0.09
15 0.39
16 -0.15
17 0.16
18 0.16
19 0.17
2 -0.36
20 -0.15
21 -0.15
22 0.14
23 0.47
3 -0.57
33 0.15
34 0.15
35 0.15
36 0.15
37 0.15
4 -0.66
41 0.15
5 -0.62
6 -0.62
7 -0.62
8 0.28
9 0.3

> <PUBCHEM_EFFECTIVE_ROTOR_COUNT>
5.4

> <PUBCHEM_PHARMACOPHORE_FEATURES>
9
1 1 acceptor
1 2 acceptor
1 3 acceptor
1 5 acceptor
1 6 acceptor
3 6 7 23 cation
6 5 15 16 19 20 21 rings
6 6 7 14 17 18 23 rings
7 1 4 8 9 10 11 12 rings

> <PUBCHEM_HEAVY_ATOM_COUNT>
23

> <PUBCHEM_ATOM_DEF_STEREO_COUNT>
1

> <PUBCHEM_ATOM_UDEF_STEREO_COUNT>
0

> <PUBCHEM_BOND_DEF_STEREO_COUNT>
0

> <PUBCHEM_BOND_UDEF_STEREO_COUNT>
0

> <PUBCHEM_ISOTOPIC_ATOM_COUNT>
0

> <PUBCHEM_COMPONENT_COUNT>
1

> <PUBCHEM_CACTVS_TAUTO_COUNT>
1

> <PUBCHEM_CONFORMER_ID>
04809A2F00000001

> <PUBCHEM_MMFF94_ENERGY>
76.7087

> <PUBCHEM_FEATURE_SELFOVERLAP>
45.721

> <PUBCHEM_SHAPE_FINGERPRINT>
10493431 412 18337387252981012340
10670039 82 18335990800547803756
10906281 52 18059017152149420181
11488393 25 17844268236570649271
11720765 8 17559965316775363548
12173636 292 18341040925862061830
12403259 118 18264192626491319985
12788726 201 17323820214384277454
14251764 75 18340498832085759216
14257110 125 18334861662245870268
14528608 73 18411136939700773573
1454969 45 18342454894385636151
146900 427 18412833464867971569
14787075 74 18341890823013012755
14790565 3 18412546522213224201
14840074 17 17386012826873517004
14849402 71 18259984864986868304
14955137 171 18121208780553046162
15342168 16 17968381242478711228
17349148 13 12324247122711199129
17844677 252 18339648824124779985
17980427 23 17984105315898468730
18681886 176 18269547257136298514
18785283 64 18263923242085632194
20465049 17 18339092488706091174
21709351 56 18193266408306588391
21756936 100 18270673281396173652
22620623 9 17202194316731244407
23227448 37 18269554021250528724
23559900 14 17982163418991025163
245318 6 17606138383232886588
25147074 1 18263906869886447890
2637199 183 18341616992771977886
350125 39 18335981965873285174
38570 142 17677349315558961108
394222 165 18335414617383269450
474 4 17967818275187301260
5048184 11 18410011078585948940
5104073 3 18261674783829675009
5312544 6 18409446959979085810
633830 44 18272084951046654199
6442390 28 18409449206326440618
7288768 16 17823133587485755466
7808743 9 18266175218135109128
8988823 20 13334739076023954934
960060 61 12535343536827906480
9999458 23 18189336775603905694

> <PUBCHEM_SHAPE_MULTIPOLES>
435.8
12.45
3.38
0.96
6.45
0.9
-0.08
-7.98
-0.21
-1.15
0.06
-0.74
0.07
-0.9

> <PUBCHEM_SHAPE_SELFOVERLAP>
927.341

> <PUBCHEM_SHAPE_VOLUME>
236

> <PUBCHEM_COORDINATE_TYPE>
2
5
10

$$$$
