51137360
  -OEChem-12032416243D

 50 54  0     1  0  0  0  0  0999 V2000
   -2.6943   -0.0203    0.0489 O   0  0  0  0  0  0  0  0  0  0  0  0
   -0.6417    2.8134    0.6315 N   0  0  2  0  0  0  0  0  0  0  0  0
   -4.3084    0.6327   -1.3558 N   0  0  0  0  0  0  0  0  0  0  0  0
   -4.3713   -0.7437   -1.2432 N   0  0  0  0  0  0  0  0  0  0  0  0
    0.2562   -3.5803   -1.1890 N   0  0  0  0  0  0  0  0  0  0  0  0
    5.7028   -0.7674   -1.3433 N   0  0  0  0  0  0  0  0  0  0  0  0
   -2.7833    2.4006   -0.3117 C   0  0  1  0  0  0  0  0  0  0  0  0
   -2.8941    2.7983    1.1676 C   0  0  0  0  0  0  0  0  0  0  0  0
   -1.2979    2.6017   -0.6626 C   0  0  0  0  0  0  0  0  0  0  0  0
   -1.6041    3.5508    1.4475 C   0  0  0  0  0  0  0  0  0  0  0  0
    0.6315    3.5060    0.5060 C   0  0  0  0  0  0  0  0  0  0  0  0
   -3.3158    1.0115   -0.5850 C   0  0  0  0  0  0  0  0  0  0  0  0
    1.7406    2.5714    0.1017 C   0  0  0  0  0  0  0  0  0  0  0  0
   -3.4112   -1.0808   -0.4140 C   0  0  0  0  0  0  0  0  0  0  0  0
   -3.0180   -2.4096    0.0713 C   0  0  0  0  0  0  0  0  0  0  0  0
    2.2991    1.7043    1.0407 C   0  0  0  0  0  0  0  0  0  0  0  0
    2.2096    2.5729   -1.2121 C   0  0  0  0  0  0  0  0  0  0  0  0
   -1.5649   -2.7839   -0.2009 C   0  0  0  0  0  0  0  0  0  0  0  0
   -0.4522   -2.5357    0.6506 C   0  0  0  0  0  0  0  0  0  0  0  0
    0.6779   -3.0452    0.0074 C   0  0  0  0  0  0  0  0  0  0  0  0
   -1.0976   -3.4271   -1.3238 C   0  0  0  0  0  0  0  0  0  0  0  0
    3.3265    0.8386    0.6660 C   0  0  0  0  0  0  0  0  0  0  0  0
    3.2369    1.7071   -1.5867 C   0  0  0  0  0  0  0  0  0  0  0  0
    3.7954    0.8398   -0.6477 C   0  0  0  0  0  0  0  0  0  0  0  0
   -0.2974   -1.9247    1.9108 C   0  0  0  0  0  0  0  0  0  0  0  0
    1.9600   -2.9738    0.5635 C   0  0  0  0  0  0  0  0  0  0  0  0
    0.9790   -1.8462    2.4793 C   0  0  0  0  0  0  0  0  0  0  0  0
    2.0890   -2.3633    1.8144 C   0  0  0  0  0  0  0  0  0  0  0  0
    4.8479   -0.0471   -1.0315 C   0  0  0  0  0  0  0  0  0  0  0  0
   -3.3779    3.1036   -0.9106 H   0  0  0  0  0  0  0  0  0  0  0  0
   -3.7751    3.4216    1.3540 H   0  0  0  0  0  0  0  0  0  0  0  0
   -2.9664    1.9201    1.8216 H   0  0  0  0  0  0  0  0  0  0  0  0
   -0.8697    1.7454   -1.1947 H   0  0  0  0  0  0  0  0  0  0  0  0
   -1.2073    3.4852   -1.3083 H   0  0  0  0  0  0  0  0  0  0  0  0
   -1.3500    3.5279    2.5118 H   0  0  0  0  0  0  0  0  0  0  0  0
   -1.6953    4.5961    1.1257 H   0  0  0  0  0  0  0  0  0  0  0  0
    0.5718    4.3660   -0.1745 H   0  0  0  0  0  0  0  0  0  0  0  0
    0.9202    3.9329    1.4772 H   0  0  0  0  0  0  0  0  0  0  0  0
   -3.2056   -2.4708    1.1502 H   0  0  0  0  0  0  0  0  0  0  0  0
   -3.6618   -3.1693   -0.3900 H   0  0  0  0  0  0  0  0  0  0  0  0
    1.9434    1.6946    2.0677 H   0  0  0  0  0  0  0  0  0  0  0  0
    1.7817    3.2423   -1.9536 H   0  0  0  0  0  0  0  0  0  0  0  0
   -1.6053   -3.7896   -2.2068 H   0  0  0  0  0  0  0  0  0  0  0  0
    3.7594    0.1762    1.4112 H   0  0  0  0  0  0  0  0  0  0  0  0
    3.5914    1.7194   -2.6146 H   0  0  0  0  0  0  0  0  0  0  0  0
    0.8596   -4.0219   -1.8690 H   0  0  0  0  0  0  0  0  0  0  0  0
   -1.1515   -1.5144    2.4420 H   0  0  0  0  0  0  0  0  0  0  0  0
    2.8250   -3.3750    0.0462 H   0  0  0  0  0  0  0  0  0  0  0  0
    1.1047   -1.3746    3.4503 H   0  0  0  0  0  0  0  0  0  0  0  0
    3.0711   -2.2924    2.2747 H   0  0  0  0  0  0  0  0  0  0  0  0
  1 12  1  0  0  0  0
  1 14  1  0  0  0  0
  2  9  1  0  0  0  0
  2 10  1  0  0  0  0
  2 11  1  0  0  0  0
  3  4  1  0  0  0  0
  3 12  2  0  0  0  0
  4 14  2  0  0  0  0
  5 20  1  0  0  0  0
  5 21  1  0  0  0  0
  5 46  1  0  0  0  0
  6 29  3  0  0  0  0
  7  8  1  0  0  0  0
  7  9  1  0  0  0  0
  7 12  1  0  0  0  0
  7 30  1  0  0  0  0
  8 10  1  0  0  0  0
  8 31  1  0  0  0  0
  8 32  1  0  0  0  0
  9 33  1  0  0  0  0
  9 34  1  0  0  0  0
 10 35  1  0  0  0  0
 10 36  1  0  0  0  0
 11 13  1  0  0  0  0
 11 37  1  0  0  0  0
 11 38  1  0  0  0  0
 13 16  2  0  0  0  0
 13 17  1  0  0  0  0
 14 15  1  0  0  0  0
 15 18  1  0  0  0  0
 15 39  1  0  0  0  0
 15 40  1  0  0  0  0
 16 22  1  0  0  0  0
 16 41  1  0  0  0  0
 17 23  2  0  0  0  0
 17 42  1  0  0  0  0
 18 19  1  0  0  0  0
 18 21  2  0  0  0  0
 19 20  1  0  0  0  0
 19 25  2  0  0  0  0
 20 26  2  0  0  0  0
 21 43  1  0  0  0  0
 22 24  2  0  0  0  0
 22 44  1  0  0  0  0
 23 24  1  0  0  0  0
 23 45  1  0  0  0  0
 24 29  1  0  0  0  0
 25 27  1  0  0  0  0
 25 47  1  0  0  0  0
 26 28  1  0  0  0  0
 26 48  1  0  0  0  0
 27 28  2  0  0  0  0
 27 49  1  0  0  0  0
 28 50  1  0  0  0  0
M  END
> <PUBCHEM_COMPOUND_CID>
51137360

> <PUBCHEM_CONFORMER_RMSD>
1.4

> <PUBCHEM_CONFORMER_DIVERSEORDER>
1
20
33
53
26
44
8
25
41
18
11
47
23
24
29
48
4
9
45
43
27
28
31
36
37
56
60
42
62
39
21
61
13
10
64
46
16
59
30
38
3
50
14
35
15
51
12
57
5
58
40
49
7
63
22
19
55
52
32
54
34
6
17
2

> <PUBCHEM_MMFF94_PARTIAL_CHARGES>
37
1 -0.28
10 0.27
11 0.41
12 0.3
13 -0.14
14 0.3
15 0.36
16 -0.15
17 -0.15
18 -0.18
2 -0.81
20 -0.15
21 -0.3
22 -0.15
23 -0.15
24 0.07
25 -0.15
26 -0.15
27 -0.15
28 -0.15
29 0.48
3 -0.34
4 -0.34
41 0.15
42 0.15
43 0.15
44 0.15
45 0.15
46 0.27
47 0.15
48 0.15
49 0.15
5 0.03
50 0.15
6 -0.56
7 0.18
9 0.27

> <PUBCHEM_EFFECTIVE_ROTOR_COUNT>
6

> <PUBCHEM_PHARMACOPHORE_FEATURES>
9
1 2 cation
1 5 cation
1 5 donor
1 6 acceptor
5 1 3 4 12 14 rings
5 2 7 8 9 10 rings
5 5 18 19 20 21 rings
6 13 16 17 22 23 24 rings
6 19 20 25 26 27 28 rings

> <PUBCHEM_HEAVY_ATOM_COUNT>
29

> <PUBCHEM_ATOM_DEF_STEREO_COUNT>
1

> <PUBCHEM_ATOM_UDEF_STEREO_COUNT>
0

> <PUBCHEM_BOND_DEF_STEREO_COUNT>
0

> <PUBCHEM_BOND_UDEF_STEREO_COUNT>
0

> <PUBCHEM_ISOTOPIC_ATOM_COUNT>
0

> <PUBCHEM_COMPONENT_COUNT>
1

> <PUBCHEM_CACTVS_TAUTO_COUNT>
1

> <PUBCHEM_CONFORMER_ID>
030C4B5000000001

> <PUBCHEM_MMFF94_ENERGY>
47.9017

> <PUBCHEM_FEATURE_SELFOVERLAP>
45.765

> <PUBCHEM_SHAPE_FINGERPRINT>
11513181 2 17914889838410373166
11828532 37 17975980079029344751
12156800 1 12011472824801432355
12712778 12 18337942489790277384
12788726 201 18192999437967407072
13122387 1 17330267269432868009
1361 2 15026961516608576590
13773456 30 14586154360354467470
14114207 22 15525078466360265843
14117953 113 17255666509231623461
14251740 79 18334588961897706444
14251757 5 18047770461823878780
14931854 50 18408602539401911668
15297060 5 17915172408666560482
19930381 70 16466140787433349382
20465049 17 18335421317700834491
20764821 26 18123755519543032260
20775438 99 16763345270480673839
21857420 4 15472479027962007623
3027735 51 18342461417966198281
3298306 158 18190723393236948159
35225 105 18263081191860276844
437795 70 18198362679847312502
463206 1 18264769870017300856
474144 1 17968923215669356170
6287921 2 17622157966948389858

> <PUBCHEM_SHAPE_MULTIPOLES>
566.03
7.78
5.95
1.79
3.63
0.33
-0.56
-1.38
4.04
-1.44
-0.85
0.56
0.53
-1.29

> <PUBCHEM_SHAPE_SELFOVERLAP>
1248.627

> <PUBCHEM_SHAPE_VOLUME>
305.3

> <PUBCHEM_COORDINATE_TYPE>
2
5
10

$$$$
