11879567
  -OEChem-12032416283D

 59 63  0     1  0  0  0  0  0999 V2000
   -1.5662   -2.9925    0.3397 O   0  0  0  0  0  0  0  0  0  0  0  0
   -1.2896   -0.7183   -1.8150 O   0  0  0  0  0  0  0  0  0  0  0  0
    3.2302   -0.8143   -0.3018 O   0  0  0  0  0  0  0  0  0  0  0  0
   -5.9383   -1.1812   -1.2023 O   0  0  0  0  0  0  0  0  0  0  0  0
   -7.5298    2.9984    0.8750 O   0  0  0  0  0  0  0  0  0  0  0  0
    1.1865   -1.2734    0.8115 N   0  0  0  0  0  0  0  0  0  0  0  0
   -3.9855   -0.3373   -0.3430 N   0  0  0  0  0  0  0  0  0  0  0  0
    0.7170   -1.2369    2.0620 N   0  0  0  0  0  0  0  0  0  0  0  0
   -5.9673    0.9504   -0.2880 N   0  0  0  0  0  0  0  0  0  0  0  0
    2.8529   -0.5997    2.0113 N   0  0  0  0  0  0  0  0  0  0  0  0
    1.7435   -0.8232    2.7951 N   0  0  0  0  0  0  0  0  0  0  0  0
    6.5063    2.7076   -0.5390 N   0  0  0  0  0  0  0  0  0  0  0  0
   -0.9150   -0.8321   -0.4302 C   0  0  1  0  0  0  0  0  0  0  0  0
   -2.0036   -1.6266    0.2647 C   0  0  1  0  0  0  0  0  0  0  0  0
    0.3297   -1.6898   -0.3017 C   0  0  2  0  0  0  0  0  0  0  0  0
   -3.1976   -1.5085   -0.6555 C   0  0  2  0  0  0  0  0  0  0  0  0
   -0.2368   -3.1008   -0.1876 C   0  0  0  0  0  0  0  0  0  0  0  0
   -2.5441   -1.3833   -2.0192 C   0  0  0  0  0  0  0  0  0  0  0  0
   -5.3392   -0.2541   -0.6473 C   0  0  0  0  0  0  0  0  0  0  0  0
    2.4831   -0.8862    0.7843 C   0  0  0  0  0  0  0  0  0  0  0  0
   -7.3450    1.1940   -0.7214 C   0  0  0  0  0  0  0  0  0  0  0  0
   -5.3285    2.0976    0.3723 C   0  0  0  0  0  0  0  0  0  0  0  0
   -8.1677    1.8122    0.3980 C   0  0  0  0  0  0  0  0  0  0  0  0
   -6.2494    2.6960    1.4304 C   0  0  0  0  0  0  0  0  0  0  0  0
    4.5569   -0.4077   -0.2710 C   0  0  0  0  0  0  0  0  0  0  0  0
    4.8504    0.9341   -0.4192 C   0  0  0  0  0  0  0  0  0  0  0  0
    5.5451   -1.3567   -0.0933 C   0  0  0  0  0  0  0  0  0  0  0  0
    6.1837    1.3428   -0.3886 C   0  0  0  0  0  0  0  0  0  0  0  0
    6.8784   -0.9480   -0.0627 C   0  0  0  0  0  0  0  0  0  0  0  0
    7.1977    0.4018   -0.2103 C   0  0  0  0  0  0  0  0  0  0  0  0
    5.5789    3.7331   -0.1039 C   0  0  0  0  0  0  0  0  0  0  0  0
    7.7631    3.1024   -1.1432 C   0  0  0  0  0  0  0  0  0  0  0  0
   -0.8095    0.1852   -0.0396 H   0  0  0  0  0  0  0  0  0  0  0  0
   -2.1948   -1.2876    1.2880 H   0  0  0  0  0  0  0  0  0  0  0  0
    0.9573   -1.6280   -1.1987 H   0  0  0  0  0  0  0  0  0  0  0  0
   -3.8450   -2.3914   -0.6228 H   0  0  0  0  0  0  0  0  0  0  0  0
    0.3545   -3.7613    0.4537 H   0  0  0  0  0  0  0  0  0  0  0  0
   -0.3194   -3.5655   -1.1762 H   0  0  0  0  0  0  0  0  0  0  0  0
   -3.1374   -0.8215   -2.7469 H   0  0  0  0  0  0  0  0  0  0  0  0
   -2.3247   -2.3703   -2.4412 H   0  0  0  0  0  0  0  0  0  0  0  0
   -3.4757    0.4853   -0.0490 H   0  0  0  0  0  0  0  0  0  0  0  0
   -7.2811    1.8880   -1.5680 H   0  0  0  0  0  0  0  0  0  0  0  0
   -7.8184    0.2740   -1.0767 H   0  0  0  0  0  0  0  0  0  0  0  0
   -5.1279    2.8329   -0.4153 H   0  0  0  0  0  0  0  0  0  0  0  0
   -4.3828    1.8352    0.8470 H   0  0  0  0  0  0  0  0  0  0  0  0
   -9.1595    2.0892    0.0273 H   0  0  0  0  0  0  0  0  0  0  0  0
   -8.3038    1.1116    1.2304 H   0  0  0  0  0  0  0  0  0  0  0  0
   -6.3764    2.0115    2.2778 H   0  0  0  0  0  0  0  0  0  0  0  0
   -5.8211    3.6266    1.8161 H   0  0  0  0  0  0  0  0  0  0  0  0
    4.0394    1.6408   -0.5692 H   0  0  0  0  0  0  0  0  0  0  0  0
    5.2987   -2.4078    0.0215 H   0  0  0  0  0  0  0  0  0  0  0  0
    7.6675   -1.6809    0.0788 H   0  0  0  0  0  0  0  0  0  0  0  0
    8.2449    0.6878   -0.1698 H   0  0  0  0  0  0  0  0  0  0  0  0
    5.1272    3.4824    0.8625 H   0  0  0  0  0  0  0  0  0  0  0  0
    6.0871    4.6951    0.0271 H   0  0  0  0  0  0  0  0  0  0  0  0
    4.7854    3.8784   -0.8444 H   0  0  0  0  0  0  0  0  0  0  0  0
    8.5825    3.0239   -0.4210 H   0  0  0  0  0  0  0  0  0  0  0  0
    7.9971    2.4880   -2.0201 H   0  0  0  0  0  0  0  0  0  0  0  0
    7.7269    4.1419   -1.4880 H   0  0  0  0  0  0  0  0  0  0  0  0
  1 14  1  0  0  0  0
  1 17  1  0  0  0  0
  2 13  1  0  0  0  0
  2 18  1  0  0  0  0
  3 20  1  0  0  0  0
  3 25  1  0  0  0  0
  4 19  2  0  0  0  0
  5 23  1  0  0  0  0
  5 24  1  0  0  0  0
  6  8  1  0  0  0  0
  6 15  1  0  0  0  0
  6 20  1  0  0  0  0
  7 16  1  0  0  0  0
  7 19  1  0  0  0  0
  7 41  1  0  0  0  0
  8 11  2  0  0  0  0
  9 19  1  0  0  0  0
  9 21  1  0  0  0  0
  9 22  1  0  0  0  0
 10 11  1  0  0  0  0
 10 20  2  0  0  0  0
 12 28  1  0  0  0  0
 12 31  1  0  0  0  0
 12 32  1  0  0  0  0
 13 14  1  0  0  0  0
 13 15  1  0  0  0  0
 13 33  1  0  0  0  0
 14 16  1  0  0  0  0
 14 34  1  0  0  0  0
 15 17  1  0  0  0  0
 15 35  1  0  0  0  0
 16 18  1  0  0  0  0
 16 36  1  0  0  0  0
 17 37  1  0  0  0  0
 17 38  1  0  0  0  0
 18 39  1  0  0  0  0
 18 40  1  0  0  0  0
 21 23  1  0  0  0  0
 21 42  1  0  0  0  0
 21 43  1  0  0  0  0
 22 24  1  0  0  0  0
 22 44  1  0  0  0  0
 22 45  1  0  0  0  0
 23 46  1  0  0  0  0
 23 47  1  0  0  0  0
 24 48  1  0  0  0  0
 24 49  1  0  0  0  0
 25 26  1  0  0  0  0
 25 27  2  0  0  0  0
 26 28  2  0  0  0  0
 26 50  1  0  0  0  0
 27 29  1  0  0  0  0
 27 51  1  0  0  0  0
 28 30  1  0  0  0  0
 29 30  2  0  0  0  0
 29 52  1  0  0  0  0
 30 53  1  0  0  0  0
 31 54  1  0  0  0  0
 31 55  1  0  0  0  0
 31 56  1  0  0  0  0
 32 57  1  0  0  0  0
 32 58  1  0  0  0  0
 32 59  1  0  0  0  0
M  END
> <PUBCHEM_COMPOUND_CID>
11879567

> <PUBCHEM_CONFORMER_RMSD>
1

> <PUBCHEM_CONFORMER_DIVERSEORDER>
1
36
122
101
31
129
102
137
38
154
29
70
77
43
153
117
143
152
95
97
78
17
44
65
104
158
80
133
24
82
34
79
113
114
105
93
144
74
15
53
121
109
45
92
68
147
81
108
22
33
107
112
83
14
50
119
4
127
62
136
110
138
139
40
111
87
59
10
128
48
64
130
146
123
51
49
126
39
118
69
56
149
85
156
47
84
150
52
5
86
46
58
32
103
135
140
13
11
76
30
106
12
26
67
71
8
9
61
72
75
25
89
23
157
28
151
3
115
60
73
100
155
16
27
19
98
116
94
91
18
54
142
41
141
148
21
90
37
120
57
124
96
20
99
131
35
66
7
63
159
42
2
55
132
145
6
88
134
125

> <PUBCHEM_MMFF94_PARTIAL_CHARGES>
36
1 -0.56
10 -0.34
12 -0.84
13 0.28
14 0.28
15 0.26
16 0.3
17 0.28
18 0.28
19 0.69
2 -0.56
20 0.25
21 0.3
22 0.3
23 0.28
24 0.28
25 0.08
26 -0.15
27 -0.15
28 0.1
29 -0.15
3 -0.15
30 -0.15
31 0.37
32 0.37
4 -0.57
41 0.37
5 -0.56
50 0.15
51 0.15
52 0.15
53 0.15
6 0.31
7 -0.73
8 -0.42
9 -0.66

> <PUBCHEM_EFFECTIVE_ROTOR_COUNT>
9.4

> <PUBCHEM_PHARMACOPHORE_FEATURES>
12
1 1 acceptor
1 12 cation
1 2 acceptor
1 4 acceptor
1 5 acceptor
1 7 donor
3 6 10 20 cation
5 1 13 14 15 17 rings
5 2 13 14 16 18 rings
5 6 8 10 11 20 rings
6 25 26 27 28 29 30 rings
6 5 9 21 22 23 24 rings

> <PUBCHEM_HEAVY_ATOM_COUNT>
32

> <PUBCHEM_ATOM_DEF_STEREO_COUNT>
4

> <PUBCHEM_ATOM_UDEF_STEREO_COUNT>
0

> <PUBCHEM_BOND_DEF_STEREO_COUNT>
0

> <PUBCHEM_BOND_UDEF_STEREO_COUNT>
0

> <PUBCHEM_ISOTOPIC_ATOM_COUNT>
0

> <PUBCHEM_COMPONENT_COUNT>
1

> <PUBCHEM_CACTVS_TAUTO_COUNT>
2

> <PUBCHEM_CONFORMER_ID>
00B5448F00000001

> <PUBCHEM_MMFF94_ENERGY>
93.7833

> <PUBCHEM_FEATURE_SELFOVERLAP>
61.59

> <PUBCHEM_SHAPE_FINGERPRINT>
10 15 14273461374850184726
10670039 82 17988920021207449561
10674148 151 18413105036030035330
10816530 90 18340195363050907528
11135609 127 18200866383940673376
11408170 253 18059300864013406257
11646440 116 16805039619110009358
13540713 4 15839835629810994799
14251757 52 18408884031616617016
14394314 77 18408889550988177229
14461889 52 14490468647428750291
14849402 71 18336266825353479253
14931854 50 16271934800422674126
15064981 194 18044392732049005750
15183329 4 16200431347349927387
15198563 99 14907909232404688579
15276724 80 18335416833765806972
15357212 105 16155424063633756060
15840311 113 18259990353137531901
16992727 255 18131071498121070824
16993427 108 8070025549940413887
16994733 274 18409445929609220544
19438510 23 18186802508385349424
20691028 202 18338515347800876524
21298829 104 18336550507779843444
21307412 95 14404909136395610556
21424621 283 18335421287641286370
23559900 14 14332829565200672770
2747138 104 15502379984786109519
3014063 24 10447933871237937828
3178227 256 15791739589834578462
3633792 109 18201727241669017622
3711267 37 18272099241057807161
3918712 181 18340202969759929773
4098825 35 18343300332279333526
4339292 15 13398362253148966252
4366758 26 18341622464688219625
44555599 121 18413110554630604296
5104073 3 17531519992855133130
5223283 242 18265057930112455766
563151 74 17022905618738697763
57035037 87 17845923114235861240
5718773 13 9511464415712691460
5911458 16 18411985745534918845
59682541 35 14273746152550991294
6328613 192 18411981381562958717
6698420 124 18186805781498952386
9689198 14 18333737913769229851
9980921 221 16845305912288711937

> <PUBCHEM_SHAPE_MULTIPOLES>
594.33
25
3.72
1.54
6.82
2.58
-0.66
26.54
3.21
-0.67
-0.05
0.33
-0.34
-3.61

> <PUBCHEM_SHAPE_SELFOVERLAP>
1274.301

> <PUBCHEM_SHAPE_VOLUME>
328.9

> <PUBCHEM_COORDINATE_TYPE>
2
5
10

$$$$
