26744176
  -OEChem-12032416213D

 54 57  0     1  0  0  0  0  0999 V2000
    6.2533   -1.7607    1.4735 O   0  0  0  0  0  0  0  0  0  0  0  0
    1.8444   -1.3427   -2.1148 O   0  0  0  0  0  0  0  0  0  0  0  0
   -5.1994   -2.4636    0.6458 O   0  0  0  0  0  0  0  0  0  0  0  0
   -3.1701    2.5288    1.4697 O   0  0  0  0  0  0  0  0  0  0  0  0
    3.5227    0.3946    0.6554 N   0  0  1  0  0  0  0  0  0  0  0  0
    1.0151   -1.0639   -0.0531 N   0  0  0  0  0  0  0  0  0  0  0  0
    0.4917   -1.6985   -2.1878 N   0  0  0  0  0  0  0  0  0  0  0  0
   -2.1570    3.0109   -0.6039 N   0  0  0  0  0  0  0  0  0  0  0  0
    3.4790   -0.5478   -0.4811 C   0  0  1  0  0  0  0  0  0  0  0  0
    4.3769   -1.7233   -0.0525 C   0  0  0  0  0  0  0  0  0  0  0  0
    4.9154   -1.3293    1.3172 C   0  0  2  0  0  0  0  0  0  0  0  0
    4.8078    0.1837    1.3190 C   0  0  0  0  0  0  0  0  0  0  0  0
    3.3323    1.7833    0.2575 C   0  0  0  0  0  0  0  0  0  0  0  0
    2.0697   -0.9823   -0.8243 C   0  0  0  0  0  0  0  0  0  0  0  0
    1.8797    2.1071    0.0292 C   0  0  0  0  0  0  0  0  0  0  0  0
    1.4570    2.5774   -1.2141 C   0  0  0  0  0  0  0  0  0  0  0  0
    0.9568    1.9379    1.0613 C   0  0  0  0  0  0  0  0  0  0  0  0
    0.0718   -1.5076   -0.9336 C   0  0  0  0  0  0  0  0  0  0  0  0
    0.1116    2.8787   -1.4252 C   0  0  0  0  0  0  0  0  0  0  0  0
   -0.3886    2.2392    0.8503 C   0  0  0  0  0  0  0  0  0  0  0  0
   -0.8112    2.7096   -0.3929 C   0  0  0  0  0  0  0  0  0  0  0  0
   -1.2821   -1.7519   -0.5276 C   0  0  0  0  0  0  0  0  0  0  0  0
   -1.6634   -1.5364    0.7968 C   0  0  0  0  0  0  0  0  0  0  0  0
   -2.2172   -2.2063   -1.4574 C   0  0  0  0  0  0  0  0  0  0  0  0
   -2.9796   -1.7756    1.1914 C   0  0  0  0  0  0  0  0  0  0  0  0
   -3.5335   -2.4457   -1.0629 C   0  0  0  0  0  0  0  0  0  0  0  0
   -3.9147   -2.2303    0.2615 C   0  0  0  0  0  0  0  0  0  0  0  0
   -3.2197    2.9060    0.3035 C   0  0  0  0  0  0  0  0  0  0  0  0
   -4.5276    3.3310   -0.3158 C   0  0  0  0  0  0  0  0  0  0  0  0
   -5.5213   -2.2223    2.0148 C   0  0  0  0  0  0  0  0  0  0  0  0
    3.9306   -0.0971   -1.3761 H   0  0  0  0  0  0  0  0  0  0  0  0
    3.8420   -2.6779    0.0102 H   0  0  0  0  0  0  0  0  0  0  0  0
    5.1956   -1.8570   -0.7707 H   0  0  0  0  0  0  0  0  0  0  0  0
    4.3014   -1.7641    2.1154 H   0  0  0  0  0  0  0  0  0  0  0  0
    4.8182    0.5815    2.3392 H   0  0  0  0  0  0  0  0  0  0  0  0
    5.6445    0.6357    0.7698 H   0  0  0  0  0  0  0  0  0  0  0  0
    3.9456    2.0441   -0.6150 H   0  0  0  0  0  0  0  0  0  0  0  0
    3.6686    2.4514    1.0631 H   0  0  0  0  0  0  0  0  0  0  0  0
    6.2598   -2.7293    1.3869 H   0  0  0  0  0  0  0  0  0  0  0  0
    2.1646    2.7121   -2.0278 H   0  0  0  0  0  0  0  0  0  0  0  0
    1.2728    1.5765    2.0366 H   0  0  0  0  0  0  0  0  0  0  0  0
   -0.2038    3.2434   -2.3995 H   0  0  0  0  0  0  0  0  0  0  0  0
   -1.0431    2.0819    1.6962 H   0  0  0  0  0  0  0  0  0  0  0  0
   -0.9572   -1.1820    1.5439 H   0  0  0  0  0  0  0  0  0  0  0  0
   -1.9572   -2.3853   -2.4977 H   0  0  0  0  0  0  0  0  0  0  0  0
   -2.3854    3.3477   -1.5369 H   0  0  0  0  0  0  0  0  0  0  0  0
   -3.2082   -1.5868    2.2347 H   0  0  0  0  0  0  0  0  0  0  0  0
   -4.2579   -2.7996   -1.7914 H   0  0  0  0  0  0  0  0  0  0  0  0
   -4.7453    2.7069   -1.1871 H   0  0  0  0  0  0  0  0  0  0  0  0
   -4.4684    4.3792   -0.6219 H   0  0  0  0  0  0  0  0  0  0  0  0
   -5.3362    3.2180    0.4117 H   0  0  0  0  0  0  0  0  0  0  0  0
   -6.5825   -2.4593    2.1439 H   0  0  0  0  0  0  0  0  0  0  0  0
   -5.3953   -1.1664    2.2775 H   0  0  0  0  0  0  0  0  0  0  0  0
   -4.9619   -2.8859    2.6828 H   0  0  0  0  0  0  0  0  0  0  0  0
  1 11  1  0  0  0  0
  1 39  1  0  0  0  0
  2  7  1  0  0  0  0
  2 14  1  0  0  0  0
  3 27  1  0  0  0  0
  3 30  1  0  0  0  0
  4 28  2  0  0  0  0
  5  9  1  0  0  0  0
  5 12  1  0  0  0  0
  5 13  1  0  0  0  0
  6 14  2  0  0  0  0
  6 18  1  0  0  0  0
  7 18  2  0  0  0  0
  8 21  1  0  0  0  0
  8 28  1  0  0  0  0
  8 46  1  0  0  0  0
  9 10  1  0  0  0  0
  9 14  1  0  0  0  0
  9 31  1  0  0  0  0
 10 11  1  0  0  0  0
 10 32  1  0  0  0  0
 10 33  1  0  0  0  0
 11 12  1  0  0  0  0
 11 34  1  0  0  0  0
 12 35  1  0  0  0  0
 12 36  1  0  0  0  0
 13 15  1  0  0  0  0
 13 37  1  0  0  0  0
 13 38  1  0  0  0  0
 15 16  2  0  0  0  0
 15 17  1  0  0  0  0
 16 19  1  0  0  0  0
 16 40  1  0  0  0  0
 17 20  2  0  0  0  0
 17 41  1  0  0  0  0
 18 22  1  0  0  0  0
 19 21  2  0  0  0  0
 19 42  1  0  0  0  0
 20 21  1  0  0  0  0
 20 43  1  0  0  0  0
 22 23  2  0  0  0  0
 22 24  1  0  0  0  0
 23 25  1  0  0  0  0
 23 44  1  0  0  0  0
 24 26  2  0  0  0  0
 24 45  1  0  0  0  0
 25 27  2  0  0  0  0
 25 47  1  0  0  0  0
 26 27  1  0  0  0  0
 26 48  1  0  0  0  0
 28 29  1  0  0  0  0
 29 49  1  0  0  0  0
 29 50  1  0  0  0  0
 29 51  1  0  0  0  0
 30 52  1  0  0  0  0
 30 53  1  0  0  0  0
 30 54  1  0  0  0  0
M  END
> <PUBCHEM_COMPOUND_CID>
26744176

> <PUBCHEM_CONFORMER_RMSD>
1

> <PUBCHEM_CONFORMER_DIVERSEORDER>
1
39
32
45
51
38
12
20
43
18
15
31
41
9
44
19
56
30
48
36
47
2
40
4
54
42
34
28
6
16
29
33
7
8
49
22
37
24
52
10
35
3
25
13
17
55
26
27
11
46
53
50
21
23
5
14

> <PUBCHEM_MMFF94_PARTIAL_CHARGES>
39
1 -0.68
11 0.28
12 0.27
13 0.41
14 0.3
15 -0.14
16 -0.15
17 -0.15
18 0.46
19 -0.15
2 -0.02
20 -0.15
21 0.12
22 0.05
23 -0.15
24 -0.15
25 -0.15
26 -0.15
27 0.08
28 0.57
29 0.06
3 -0.36
30 0.28
39 0.4
4 -0.57
40 0.15
41 0.15
42 0.15
43 0.15
44 0.15
45 0.15
46 0.37
47 0.15
48 0.15
5 -0.81
6 -0.57
7 -0.41
8 -0.55
9 0.45

> <PUBCHEM_EFFECTIVE_ROTOR_COUNT>
8

> <PUBCHEM_PHARMACOPHORE_FEATURES>
11
1 1 acceptor
1 1 donor
1 3 acceptor
1 4 acceptor
1 5 cation
1 8 donor
3 6 7 18 cation
5 2 6 7 14 18 rings
5 5 9 10 11 12 rings
6 15 16 17 19 20 21 rings
6 22 23 24 25 26 27 rings

> <PUBCHEM_HEAVY_ATOM_COUNT>
30

> <PUBCHEM_ATOM_DEF_STEREO_COUNT>
2

> <PUBCHEM_ATOM_UDEF_STEREO_COUNT>
0

> <PUBCHEM_BOND_DEF_STEREO_COUNT>
0

> <PUBCHEM_BOND_UDEF_STEREO_COUNT>
0

> <PUBCHEM_ISOTOPIC_ATOM_COUNT>
0

> <PUBCHEM_COMPONENT_COUNT>
1

> <PUBCHEM_CACTVS_TAUTO_COUNT>
2

> <PUBCHEM_CONFORMER_ID>
0198157000000001

> <PUBCHEM_MMFF94_ENERGY>
79.9755

> <PUBCHEM_FEATURE_SELFOVERLAP>
55.822

> <PUBCHEM_SHAPE_FINGERPRINT>
104564 63 18269280217180614196
10688039 33 18261109742253611973
108634 29 18269840809201797191
12035758 1 18267309729008320993
12107698 1 18336263535223491875
12156800 1 18195275289270727741
12422481 6 18200611245328635723
13140716 1 18411974733533989232
13965767 371 17701256065073448682
14840074 17 17980470484901861984
14866123 147 18191010210683989874
15484559 13 17618780255182126821
15968369 153 18130784573421782869
17980427 23 17417528163046623871
20764821 26 18339095847338731845
21304304 249 18048312254436109732
21421861 104 18267033931941127008
22182313 1 17845386465528094974
23559900 14 16443900721136289143
24893992 56 18113883967939060039
24941158 1 15431747504015602765
3052486 1 18334303041155032140
508706 21 18339083683891116085
5104073 3 18267843057595149410
513202 73 18339356358723066746
5283268 108 18338243772369952414
56638632 10 16483003817238406312
7064713 232 17346049964370736067

> <PUBCHEM_SHAPE_MULTIPOLES>
573.98
10.62
4.83
1.72
1.99
3.48
-0.17
-6.81
5.95
-5.1
-0.4
-0.14
-0.71
0.08

> <PUBCHEM_SHAPE_SELFOVERLAP>
1240.39

> <PUBCHEM_SHAPE_VOLUME>
317

> <PUBCHEM_COORDINATE_TYPE>
2
5
10

$$$$
