26742478
  -OEChem-12032416213D

 67 71  0     1  0  0  0  0  0999 V2000
   -5.9194    0.8172    2.1306 O   0  0  0  0  0  0  0  0  0  0  0  0
   -2.2475   -1.8915    1.7579 N   0  0  2  0  0  0  0  0  0  0  0  0
   -4.1325    1.1852    0.7038 N   0  0  0  0  0  0  0  0  0  0  0  0
    0.1096   -0.6775   -1.9559 N   0  0  0  0  0  0  0  0  0  0  0  0
    2.2527    0.4191   -2.0669 N   0  0  0  0  0  0  0  0  0  0  0  0
    7.6835    1.1231    1.1195 N   0  0  0  0  0  0  0  0  0  0  0  0
   -1.8895   -2.3615   -0.7787 C   0  0  2  0  0  0  0  0  0  0  0  0
   -0.5278   -2.1058   -0.0755 C   0  0  2  0  0  0  0  0  0  0  0  0
   -3.1561   -1.0365    0.9493 C   0  0  2  0  0  0  0  0  0  0  0  0
   -2.8160   -1.1483   -0.5526 C   0  0  0  0  0  0  0  0  0  0  0  0
   -2.5390   -3.5672   -0.0662 C   0  0  0  0  0  0  0  0  0  0  0  0
   -0.8361   -1.6373    1.3754 C   0  0  0  0  0  0  0  0  0  0  0  0
   -2.5627   -3.3072    1.4501 C   0  0  0  0  0  0  0  0  0  0  0  0
   -3.1648    0.4178    1.4253 C   0  0  0  0  0  0  0  0  0  0  0  0
    0.4820   -1.2042   -0.7710 C   0  0  0  0  0  0  0  0  0  0  0  0
   -6.3063    2.2024    0.1563 C   0  0  0  0  0  0  0  0  0  0  0  0
    1.7059   -0.9691   -0.1782 C   0  0  0  0  0  0  0  0  0  0  0  0
   -5.4596    1.3359    1.1081 C   0  0  0  0  0  0  0  0  0  0  0  0
   -6.6184    1.6245   -1.2399 C   0  0  0  0  0  0  0  0  0  0  0  0
   -7.8298    2.2412    0.3965 C   0  0  0  0  0  0  0  0  0  0  0  0
   -7.9921    2.3194   -1.1359 C   0  0  0  0  0  0  0  0  0  0  0  0
    2.5595   -0.1414   -0.8786 C   0  0  0  0  0  0  0  0  0  0  0  0
    1.0297    0.1130   -2.5406 C   0  0  0  0  0  0  0  0  0  0  0  0
    3.8701    0.1822   -0.3675 C   0  0  0  0  0  0  0  0  0  0  0  0
    0.6550    0.7125   -3.8537 C   0  0  0  0  0  0  0  0  0  0  0  0
    3.9993    0.8279    0.8622 C   0  0  0  0  0  0  0  0  0  0  0  0
    5.0073   -0.1511   -1.1032 C   0  0  0  0  0  0  0  0  0  0  0  0
    5.2657    1.1404    1.3562 C   0  0  0  0  0  0  0  0  0  0  0  0
    6.2737    0.1614   -0.6092 C   0  0  0  0  0  0  0  0  0  0  0  0
    6.4030    0.8071    0.6205 C   0  0  0  0  0  0  0  0  0  0  0  0
    7.8289    1.7942    2.3959 C   0  0  0  0  0  0  0  0  0  0  0  0
    8.8717    0.7741    0.3661 C   0  0  0  0  0  0  0  0  0  0  0  0
   -1.7681   -2.5690   -1.8470 H   0  0  0  0  0  0  0  0  0  0  0  0
   -0.0245   -3.0831   -0.0124 H   0  0  0  0  0  0  0  0  0  0  0  0
   -4.1802   -1.4126    1.0922 H   0  0  0  0  0  0  0  0  0  0  0  0
   -2.3348   -0.2384   -0.9283 H   0  0  0  0  0  0  0  0  0  0  0  0
   -3.7417   -1.2804   -1.1266 H   0  0  0  0  0  0  0  0  0  0  0  0
   -1.9777   -4.4848   -0.2777 H   0  0  0  0  0  0  0  0  0  0  0  0
   -3.5589   -3.7166   -0.4410 H   0  0  0  0  0  0  0  0  0  0  0  0
   -0.1791   -2.1733    2.0735 H   0  0  0  0  0  0  0  0  0  0  0  0
   -0.5962   -0.5779    1.5220 H   0  0  0  0  0  0  0  0  0  0  0  0
   -3.5468   -3.5693    1.8578 H   0  0  0  0  0  0  0  0  0  0  0  0
   -1.8486   -3.9663    1.9603 H   0  0  0  0  0  0  0  0  0  0  0  0
   -2.1976    0.9063    1.2700 H   0  0  0  0  0  0  0  0  0  0  0  0
   -3.3959    0.4657    2.4957 H   0  0  0  0  0  0  0  0  0  0  0  0
   -3.8339    1.6412   -0.1536 H   0  0  0  0  0  0  0  0  0  0  0  0
   -5.8904    3.2200    0.0913 H   0  0  0  0  0  0  0  0  0  0  0  0
    1.9799   -1.4166    0.7700 H   0  0  0  0  0  0  0  0  0  0  0  0
   -6.6768    0.5302   -1.2752 H   0  0  0  0  0  0  0  0  0  0  0  0
   -5.9767    1.9729   -2.0535 H   0  0  0  0  0  0  0  0  0  0  0  0
   -8.2019    3.1061    0.9519 H   0  0  0  0  0  0  0  0  0  0  0  0
   -8.2514    1.3288    0.8342 H   0  0  0  0  0  0  0  0  0  0  0  0
   -8.0008    3.3428   -1.5280 H   0  0  0  0  0  0  0  0  0  0  0  0
   -8.8376    1.7681   -1.5543 H   0  0  0  0  0  0  0  0  0  0  0  0
    1.0057    0.0697   -4.6664 H   0  0  0  0  0  0  0  0  0  0  0  0
   -0.4308    0.8219   -3.9368 H   0  0  0  0  0  0  0  0  0  0  0  0
    1.1055    1.7032   -3.9696 H   0  0  0  0  0  0  0  0  0  0  0  0
    3.1248    1.1010    1.4485 H   0  0  0  0  0  0  0  0  0  0  0  0
    4.9261   -0.6580   -2.0620 H   0  0  0  0  0  0  0  0  0  0  0  0
    5.3133    1.6437    2.3168 H   0  0  0  0  0  0  0  0  0  0  0  0
    7.1270   -0.1194   -1.2186 H   0  0  0  0  0  0  0  0  0  0  0  0
    8.8817    1.9715    2.6425 H   0  0  0  0  0  0  0  0  0  0  0  0
    7.4160    1.1890    3.2106 H   0  0  0  0  0  0  0  0  0  0  0  0
    7.3428    2.7761    2.3847 H   0  0  0  0  0  0  0  0  0  0  0  0
    9.7858    1.0831    0.8855 H   0  0  0  0  0  0  0  0  0  0  0  0
    8.8837    1.2746   -0.6086 H   0  0  0  0  0  0  0  0  0  0  0  0
    8.9462   -0.3098    0.2237 H   0  0  0  0  0  0  0  0  0  0  0  0
  1 18  2  0  0  0  0
  2  9  1  0  0  0  0
  2 12  1  0  0  0  0
  2 13  1  0  0  0  0
  3 14  1  0  0  0  0
  3 18  1  0  0  0  0
  3 46  1  0  0  0  0
  4 15  2  0  0  0  0
  4 23  1  0  0  0  0
  5 22  1  0  0  0  0
  5 23  2  0  0  0  0
  6 30  1  0  0  0  0
  6 31  1  0  0  0  0
  6 32  1  0  0  0  0
  7  8  1  0  0  0  0
  7 10  1  0  0  0  0
  7 11  1  0  0  0  0
  7 33  1  0  0  0  0
  8 12  1  0  0  0  0
  8 15  1  0  0  0  0
  8 34  1  0  0  0  0
  9 10  1  0  0  0  0
  9 14  1  0  0  0  0
  9 35  1  0  0  0  0
 10 36  1  0  0  0  0
 10 37  1  0  0  0  0
 11 13  1  0  0  0  0
 11 38  1  0  0  0  0
 11 39  1  0  0  0  0
 12 40  1  0  0  0  0
 12 41  1  0  0  0  0
 13 42  1  0  0  0  0
 13 43  1  0  0  0  0
 14 44  1  0  0  0  0
 14 45  1  0  0  0  0
 15 17  1  0  0  0  0
 16 18  1  0  0  0  0
 16 19  1  0  0  0  0
 16 20  1  0  0  0  0
 16 47  1  0  0  0  0
 17 22  2  0  0  0  0
 17 48  1  0  0  0  0
 19 21  1  0  0  0  0
 19 49  1  0  0  0  0
 19 50  1  0  0  0  0
 20 21  1  0  0  0  0
 20 51  1  0  0  0  0
 20 52  1  0  0  0  0
 21 53  1  0  0  0  0
 21 54  1  0  0  0  0
 22 24  1  0  0  0  0
 23 25  1  0  0  0  0
 24 26  2  0  0  0  0
 24 27  1  0  0  0  0
 25 55  1  0  0  0  0
 25 56  1  0  0  0  0
 25 57  1  0  0  0  0
 26 28  1  0  0  0  0
 26 58  1  0  0  0  0
 27 29  2  0  0  0  0
 27 59  1  0  0  0  0
 28 30  2  0  0  0  0
 28 60  1  0  0  0  0
 29 30  1  0  0  0  0
 29 61  1  0  0  0  0
 31 62  1  0  0  0  0
 31 63  1  0  0  0  0
 31 64  1  0  0  0  0
 32 65  1  0  0  0  0
 32 66  1  0  0  0  0
 32 67  1  0  0  0  0
M  END
> <PUBCHEM_COMPOUND_CID>
26742478

> <PUBCHEM_CONFORMER_RMSD>
1

> <PUBCHEM_CONFORMER_DIVERSEORDER>
1
54
22
60
35
5
38
77
65
79
67
19
82
32
2
3
42
72
78
7
71
28
26
64
46
70
47
36
66
24
59
6
81
44
40
43
63
75
45
31
4
39
37
58
69
50
62
34
49
61
30
13
73
56
33
57
55
17
12
25
76
48
8
41
14
27
29
74
11
23
16
52
68
21
10
80
18
20
53
51
15
9

> <PUBCHEM_MMFF94_PARTIAL_CHARGES>
31
1 -0.57
12 0.27
13 0.27
14 0.3
15 0.17
16 0.05
17 -0.15
18 0.58
2 -0.81
22 0.31
23 0.48
25 0.14
26 -0.15
27 -0.15
28 -0.15
29 -0.15
3 -0.73
30 0.1
31 0.37
32 0.37
4 -0.62
46 0.37
48 0.15
5 -0.62
58 0.15
59 0.15
6 -0.84
60 0.15
61 0.15
8 0.14
9 0.27

> <PUBCHEM_EFFECTIVE_ROTOR_COUNT>
9

> <PUBCHEM_PHARMACOPHORE_FEATURES>
10
1 1 acceptor
1 2 cation
1 3 donor
1 4 acceptor
1 6 cation
3 4 5 23 cation
4 16 19 20 21 rings
6 24 26 27 28 29 30 rings
6 4 5 15 17 22 23 rings
8 2 7 8 9 10 11 12 13 rings

> <PUBCHEM_HEAVY_ATOM_COUNT>
32

> <PUBCHEM_ATOM_DEF_STEREO_COUNT>
3

> <PUBCHEM_ATOM_UDEF_STEREO_COUNT>
0

> <PUBCHEM_BOND_DEF_STEREO_COUNT>
0

> <PUBCHEM_BOND_UDEF_STEREO_COUNT>
0

> <PUBCHEM_ISOTOPIC_ATOM_COUNT>
0

> <PUBCHEM_COMPONENT_COUNT>
1

> <PUBCHEM_CACTVS_TAUTO_COUNT>
2

> <PUBCHEM_CONFORMER_ID>
01980ECE00000001

> <PUBCHEM_MMFF94_ENERGY>
103.3258

> <PUBCHEM_FEATURE_SELFOVERLAP>
50.747

> <PUBCHEM_SHAPE_FINGERPRINT>
10076449 9 12967120636712061525
10554248 39 15625959625104077132
10577160 103 17417519341526143377
11374522 101 18336830905252648860
11374522 165 17605542250984738837
11961588 58 17847058861859231923
12107183 9 16877951554761935565
12373685 5 17988914549161086910
12539747 363 12757154566918331454
13103583 49 16733273442407815602
13150687 139 18200881665186490879
13540713 5 17170133670130313223
13583140 156 17703796976458739134
13631057 29 11527951140462649263
13911987 19 15267066960317370322
14040221 275 13119394063780056317
14767858 380 14045741512835994285
14950920 106 16009895972734886137
15350500 185 18410285888058356757
15669420 48 16988559118203857613
15684973 49 18190754217606445062
18643901 69 8502375550732210649
19246450 95 16805316661749268945
20567600 254 18336830801940565041
21033648 29 18341341067099079870
21304303 282 18411415151157298767
21344244 181 9943513120702489588
21403212 168 17313383401400962303
22149856 69 13262398847948206996
23522609 53 16227201221228297918
2838139 119 17703236109321285089
312425 54 18333728044715456634
393628 179 18340760469072941585
4366758 6 18334854988066755927
484989 97 14620212213876349277
4938544 92 18341331197158569618
5028188 123 18261684774794238142
504843 32 16199871782041564174
5104073 3 17532379858081494948
5372103 7 17703789185298412825
54039377 194 13912319063278330152
58083652 198 16081644603894561614
6009941 240 18411982490376379370
6058803 2 16809005711548364335
6691757 9 18334016120687609915
6697151 62 17200257854060218054

> <PUBCHEM_SHAPE_MULTIPOLES>
627.77
23.21
3.02
2.51
12.31
2.18
1.62
-24.5
-9.27
-6.03
-0.8
0.94
-0.65
2.25

> <PUBCHEM_SHAPE_SELFOVERLAP>
1345.709

> <PUBCHEM_SHAPE_VOLUME>
344.2

> <PUBCHEM_COORDINATE_TYPE>
2
5
10

$$$$
