11911726
  -OEChem-12032416383D

 63 68  0     1  0  0  0  0  0999 V2000
   -0.2203    1.4156    1.9452 O   0  0  0  0  0  0  0  0  0  0  0  0
   -1.1243    4.1877    0.8339 O   0  0  0  0  0  0  0  0  0  0  0  0
   -4.9815    1.2437    2.2258 O   0  0  0  0  0  0  0  0  0  0  0  0
   -4.9529   -2.2114   -2.5865 O   0  0  0  0  0  0  0  0  0  0  0  0
   -6.5270   -3.6180   -1.4241 O   0  0  0  0  0  0  0  0  0  0  0  0
   -3.1156    1.1190    0.8542 N   0  0  0  0  0  0  0  0  0  0  0  0
    1.3604    3.2753   -0.7699 N   0  0  0  0  0  0  0  0  0  0  0  0
    2.8503    1.4627   -0.7342 N   0  0  0  0  0  0  0  0  0  0  0  0
    2.5910    2.8125   -2.7136 N   0  0  0  0  0  0  0  0  0  0  0  0
    6.0091   -3.5431    1.5347 N   0  0  0  0  0  0  0  0  0  0  0  0
   -1.4255    2.8324    0.4622 C   0  0  1  0  0  0  0  0  0  0  0  0
   -0.1567    2.0223    0.6435 C   0  0  1  0  0  0  0  0  0  0  0  0
   -2.3962    2.2207    1.4464 C   0  0  2  0  0  0  0  0  0  0  0  0
    0.9483    3.0511    0.5984 C   0  0  2  0  0  0  0  0  0  0  0  0
   -1.4765    1.7444    2.5566 C   0  0  0  0  0  0  0  0  0  0  0  0
    0.2713    4.2912    1.1527 C   0  0  0  0  0  0  0  0  0  0  0  0
   -4.3664    0.7184    1.3016 C   0  0  0  0  0  0  0  0  0  0  0  0
    2.2949    2.4935   -1.4255 C   0  0  0  0  0  0  0  0  0  0  0  0
   -4.9629   -0.4499    0.6041 C   0  0  0  0  0  0  0  0  0  0  0  0
   -4.5947   -0.6985   -0.7043 C   0  0  0  0  0  0  0  0  0  0  0  0
   -5.8689   -1.2461    1.2968 C   0  0  0  0  0  0  0  0  0  0  0  0
    3.7574    0.7216   -1.4035 C   0  0  0  0  0  0  0  0  0  0  0  0
    3.5061    2.0298   -3.3222 C   0  0  0  0  0  0  0  0  0  0  0  0
    4.1280    0.9604   -2.7112 C   0  0  0  0  0  0  0  0  0  0  0  0
   -5.1755   -1.7935   -1.3105 C   0  0  0  0  0  0  0  0  0  0  0  0
   -6.4424   -2.3492    0.6596 C   0  0  0  0  0  0  0  0  0  0  0  0
   -6.0744   -2.5967   -0.6469 C   0  0  0  0  0  0  0  0  0  0  0  0
    4.3336   -0.3676   -0.6519 C   0  0  0  0  0  0  0  0  0  0  0  0
   -5.8121   -3.3679   -2.6513 C   0  0  0  0  0  0  0  0  0  0  0  0
    5.6346   -0.7964   -0.9239 C   0  0  0  0  0  0  0  0  0  0  0  0
    3.5911   -0.9980    0.3492 C   0  0  0  0  0  0  0  0  0  0  0  0
    6.1903   -1.8503   -0.1986 C   0  0  0  0  0  0  0  0  0  0  0  0
    4.1470   -2.0518    1.0746 C   0  0  0  0  0  0  0  0  0  0  0  0
    5.4466   -2.4780    0.8007 C   0  0  0  0  0  0  0  0  0  0  0  0
    5.6177   -3.7728    2.9112 C   0  0  0  0  0  0  0  0  0  0  0  0
    6.9959   -4.4129    0.9265 C   0  0  0  0  0  0  0  0  0  0  0  0
   -1.7819    2.8471   -0.5728 H   0  0  0  0  0  0  0  0  0  0  0  0
   -0.0623    1.2124   -0.0871 H   0  0  0  0  0  0  0  0  0  0  0  0
   -3.1198    2.9447    1.8365 H   0  0  0  0  0  0  0  0  0  0  0  0
    1.8104    2.8010    1.2274 H   0  0  0  0  0  0  0  0  0  0  0  0
   -1.2859    2.5465    3.2781 H   0  0  0  0  0  0  0  0  0  0  0  0
   -1.8521    0.8732    3.1020 H   0  0  0  0  0  0  0  0  0  0  0  0
    0.3515    4.3246    2.2450 H   0  0  0  0  0  0  0  0  0  0  0  0
    0.6654    5.2302    0.7520 H   0  0  0  0  0  0  0  0  0  0  0  0
   -2.6192    0.5664    0.1630 H   0  0  0  0  0  0  0  0  0  0  0  0
    0.9149    4.0078   -1.3108 H   0  0  0  0  0  0  0  0  0  0  0  0
   -3.9163   -0.0755   -1.2743 H   0  0  0  0  0  0  0  0  0  0  0  0
   -6.1408   -1.0361    2.3275 H   0  0  0  0  0  0  0  0  0  0  0  0
    3.7284    2.2917   -4.3511 H   0  0  0  0  0  0  0  0  0  0  0  0
    4.8364    0.3593   -3.2666 H   0  0  0  0  0  0  0  0  0  0  0  0
   -7.1501   -2.9851    1.1791 H   0  0  0  0  0  0  0  0  0  0  0  0
   -6.5398   -3.2197   -3.4574 H   0  0  0  0  0  0  0  0  0  0  0  0
   -5.2006   -4.2466   -2.8866 H   0  0  0  0  0  0  0  0  0  0  0  0
    6.2587   -0.3181   -1.6741 H   0  0  0  0  0  0  0  0  0  0  0  0
    2.5708   -0.6993    0.5787 H   0  0  0  0  0  0  0  0  0  0  0  0
    7.2109   -2.1465   -0.4244 H   0  0  0  0  0  0  0  0  0  0  0  0
    3.5366   -2.5286    1.8363 H   0  0  0  0  0  0  0  0  0  0  0  0
    6.3563   -4.3904    3.4345 H   0  0  0  0  0  0  0  0  0  0  0  0
    5.5417   -2.8325    3.4689 H   0  0  0  0  0  0  0  0  0  0  0  0
    4.6575   -4.2970    2.9592 H   0  0  0  0  0  0  0  0  0  0  0  0
    7.9844   -3.9415    0.9312 H   0  0  0  0  0  0  0  0  0  0  0  0
    7.0794   -5.3587    1.4737 H   0  0  0  0  0  0  0  0  0  0  0  0
    6.7250   -4.6689   -0.1041 H   0  0  0  0  0  0  0  0  0  0  0  0
  1 12  1  0  0  0  0
  1 15  1  0  0  0  0
  2 11  1  0  0  0  0
  2 16  1  0  0  0  0
  3 17  2  0  0  0  0
  4 25  1  0  0  0  0
  4 29  1  0  0  0  0
  5 27  1  0  0  0  0
  5 29  1  0  0  0  0
  6 13  1  0  0  0  0
  6 17  1  0  0  0  0
  6 45  1  0  0  0  0
  7 14  1  0  0  0  0
  7 18  1  0  0  0  0
  7 46  1  0  0  0  0
  8 18  1  0  0  0  0
  8 22  2  0  0  0  0
  9 18  2  0  0  0  0
  9 23  1  0  0  0  0
 10 34  1  0  0  0  0
 10 35  1  0  0  0  0
 10 36  1  0  0  0  0
 11 12  1  0  0  0  0
 11 13  1  0  0  0  0
 11 37  1  0  0  0  0
 12 14  1  0  0  0  0
 12 38  1  0  0  0  0
 13 15  1  0  0  0  0
 13 39  1  0  0  0  0
 14 16  1  0  0  0  0
 14 40  1  0  0  0  0
 15 41  1  0  0  0  0
 15 42  1  0  0  0  0
 16 43  1  0  0  0  0
 16 44  1  0  0  0  0
 17 19  1  0  0  0  0
 19 20  2  0  0  0  0
 19 21  1  0  0  0  0
 20 25  1  0  0  0  0
 20 47  1  0  0  0  0
 21 26  2  0  0  0  0
 21 48  1  0  0  0  0
 22 24  1  0  0  0  0
 22 28  1  0  0  0  0
 23 24  2  0  0  0  0
 23 49  1  0  0  0  0
 24 50  1  0  0  0  0
 25 27  2  0  0  0  0
 26 27  1  0  0  0  0
 26 51  1  0  0  0  0
 28 30  2  0  0  0  0
 28 31  1  0  0  0  0
 29 52  1  0  0  0  0
 29 53  1  0  0  0  0
 30 32  1  0  0  0  0
 30 54  1  0  0  0  0
 31 33  2  0  0  0  0
 31 55  1  0  0  0  0
 32 34  2  0  0  0  0
 32 56  1  0  0  0  0
 33 34  1  0  0  0  0
 33 57  1  0  0  0  0
 35 58  1  0  0  0  0
 35 59  1  0  0  0  0
 35 60  1  0  0  0  0
 36 61  1  0  0  0  0
 36 62  1  0  0  0  0
 36 63  1  0  0  0  0
M  END
> <PUBCHEM_COMPOUND_CID>
11911726

> <PUBCHEM_CONFORMER_RMSD>
1

> <PUBCHEM_CONFORMER_DIVERSEORDER>
1
159
128
66
38
166
87
18
75
76
30
101
163
36
180
162
15
194
43
192
116
191
19
129
108
187
144
48
138
136
168
114
145
29
181
104
14
22
73
91
127
20
95
45
55
60
67
52
86
199
100
132
190
188
152
197
165
50
131
47
23
198
125
85
141
126
61
184
171
70
12
107
172
161
112
124
46
39
21
28
35
155
32
40
120
140
179
189
170
185
10
57
7
78
160
156
37
182
175
94
137
13
103
177
56
6
25
54
122
115
59
97
51
11
143
200
109
164
119
196
8
80
150
133
178
157
149
93
135
34
117
183
99
147
72
98
74
65
151
53
167
82
195
153
176
173
169
24
121
58
2
71
9
41
26
84
44
77
158
64
106
92
130
81
89
90
102
146
16
4
17
193
63
142
118
69
49
186
42
110
111
31
96
62
123
113
105
154
174
33
68
3
134
88
5
139
83
79
148
27

> <PUBCHEM_MMFF94_PARTIAL_CHARGES>
46
1 -0.56
10 -0.84
11 0.28
12 0.28
13 0.3
14 0.37
15 0.28
16 0.28
17 0.54
18 0.72
19 0.09
2 -0.56
20 -0.15
21 -0.15
22 0.31
23 0.16
24 -0.15
25 0.08
26 -0.15
27 0.08
29 0.56
3 -0.57
30 -0.15
31 -0.15
32 -0.15
33 -0.15
34 0.1
35 0.37
36 0.37
4 -0.36
45 0.37
46 0.4
47 0.15
48 0.15
49 0.15
5 -0.36
50 0.15
51 0.15
54 0.15
55 0.15
56 0.15
57 0.15
6 -0.73
7 -0.87
8 -0.62
9 -0.62

> <PUBCHEM_EFFECTIVE_ROTOR_COUNT>
8.8

> <PUBCHEM_PHARMACOPHORE_FEATURES>
16
1 1 acceptor
1 10 cation
1 2 acceptor
1 3 acceptor
1 4 acceptor
1 5 acceptor
1 6 donor
1 7 donor
1 8 acceptor
4 7 8 9 18 cation
5 1 11 12 13 15 rings
5 2 11 12 14 16 rings
5 4 5 25 27 29 rings
6 19 20 21 25 26 27 rings
6 28 30 31 32 33 34 rings
6 8 9 18 22 23 24 rings

> <PUBCHEM_HEAVY_ATOM_COUNT>
36

> <PUBCHEM_ATOM_DEF_STEREO_COUNT>
4

> <PUBCHEM_ATOM_UDEF_STEREO_COUNT>
0

> <PUBCHEM_BOND_DEF_STEREO_COUNT>
0

> <PUBCHEM_BOND_UDEF_STEREO_COUNT>
0

> <PUBCHEM_ISOTOPIC_ATOM_COUNT>
0

> <PUBCHEM_COMPONENT_COUNT>
1

> <PUBCHEM_CACTVS_TAUTO_COUNT>
6

> <PUBCHEM_CONFORMER_ID>
00B5C22E00000001

> <PUBCHEM_MMFF94_ENERGY>
125.2496

> <PUBCHEM_FEATURE_SELFOVERLAP>
82.065

> <PUBCHEM_SHAPE_FINGERPRINT>
10622 236 18260832540679508192
10908659 184 18200613470212203287
11069576 57 18114761381827242004
11135609 149 18260818332564541037
11135926 11 17171562945891060548
11227150 75 18262782021967076434
11478447 58 17980747561099780574
11497681 19 18264211314996967526
11607047 403 18198047274792493744
11828042 279 16661232278007614174
12633046 712 18116440421903405123
12977781 61 18124280939994035185
14040221 275 16056587730731555366
14068700 675 18337953385805685928
14340393 91 17677314036264932671
15320294 125 18200042746451475933
15419009 47 17751349582807126045
15684393 108 18116166643713316847
15968369 26 17827636177674479472
16096371 109 11310963620755293389
17324776 126 18262512590063437546
19303781 99 18114748127189194082
19304671 126 15864066628593262597
19315092 285 18335424586192196052
19319366 153 18119257409300727868
20156587 161 18339061731813171458
20775438 99 18117272777621826218
208703 8 18342466936550618854
21458453 9 15625926669144774728
21585483 132 18270112547741751647
21599406 157 17387132177435273591
25025965 108 17317315109370831962
25222932 49 18129665330429639860
4017518 198 16967734066693352716
42767 28 16515951606566773367
4394409 98 18200866293735642743
44426701 196 16805598218499229804
50009960 94 18058993056311738266
59025328 239 17748831791658727204
6058803 2 18119277011606293796
6201460 15 18338517430512550659
636783 261 17096627835128052706
6636735 143 14836412419746947855
6677587 24 16664589291878339020
6691757 9 17766563451922948440
96874 4 18411135827035569346
9831354 38 18191012594375496043

> <PUBCHEM_SHAPE_MULTIPOLES>
686.61
19.8
6.36
3.03
6
0.43
-1.35
31.03
-1.5
-3.15
1.06
-0.47
0.03
-9.91

> <PUBCHEM_SHAPE_SELFOVERLAP>
1521.405

> <PUBCHEM_SHAPE_VOLUME>
367.3

> <PUBCHEM_COORDINATE_TYPE>
2
5
10

$$$$
