56774417
  -OEChem-12032416293D

 42 45  0     1  0  0  0  0  0999 V2000
   -1.8117   -0.2192   -0.0051 N   0  0  1  0  0  0  0  0  0  0  0  0
    2.7635   -1.1483    0.2171 N   0  0  0  0  0  0  0  0  0  0  0  0
    2.3343    1.0301    0.3203 N   0  0  0  0  0  0  0  0  0  0  0  0
   -4.7595    1.2660   -0.4583 N   0  0  0  0  0  0  0  0  0  0  0  0
    0.3873   -0.5052    0.7578 C   0  0  1  0  0  0  0  0  0  0  0  0
   -0.3307    0.5351    1.6352 C   0  0  0  0  0  0  0  0  0  0  0  0
   -0.4944   -0.6346   -0.4915 C   0  0  0  0  0  0  0  0  0  0  0  0
   -1.5529    0.9546    0.8286 C   0  0  0  0  0  0  0  0  0  0  0  0
    1.8260   -0.1768    0.4322 C   0  0  0  0  0  0  0  0  0  0  0  0
   -2.7398    0.0651   -1.0895 C   0  0  0  0  0  0  0  0  0  0  0  0
    3.9561   -0.5272   -0.0517 C   0  0  0  0  0  0  0  0  0  0  0  0
    3.6621    0.8318    0.0187 C   0  0  0  0  0  0  0  0  0  0  0  0
   -4.1701    0.0600   -0.6193 C   0  0  0  0  0  0  0  0  0  0  0  0
    2.5420   -2.5761    0.2640 C   0  0  0  0  0  0  0  0  0  0  0  0
    5.2280   -1.0223   -0.3414 C   0  0  0  0  0  0  0  0  0  0  0  0
    4.6857    1.7666   -0.2109 C   0  0  0  0  0  0  0  0  0  0  0  0
   -4.8013   -1.1501   -0.3800 C   0  0  0  0  0  0  0  0  0  0  0  0
    6.2347   -0.0777   -0.5672 C   0  0  0  0  0  0  0  0  0  0  0  0
    5.9705    1.2924   -0.5036 C   0  0  0  0  0  0  0  0  0  0  0  0
   -6.1226   -1.1204    0.0522 C   0  0  0  0  0  0  0  0  0  0  0  0
   -6.0440    1.2551   -0.0369 C   0  0  0  0  0  0  0  0  0  0  0  0
   -6.7631    0.1010    0.2293 C   0  0  0  0  0  0  0  0  0  0  0  0
    0.3554   -1.4524    1.3136 H   0  0  0  0  0  0  0  0  0  0  0  0
    0.2865    1.3995    1.8999 H   0  0  0  0  0  0  0  0  0  0  0  0
   -0.6479    0.0606    2.5727 H   0  0  0  0  0  0  0  0  0  0  0  0
   -0.1376    0.0220   -1.2967 H   0  0  0  0  0  0  0  0  0  0  0  0
   -0.5085   -1.6632   -0.8673 H   0  0  0  0  0  0  0  0  0  0  0  0
   -1.3096    1.8399    0.2269 H   0  0  0  0  0  0  0  0  0  0  0  0
   -2.3943    1.1978    1.4851 H   0  0  0  0  0  0  0  0  0  0  0  0
   -2.6554   -0.7052   -1.8688 H   0  0  0  0  0  0  0  0  0  0  0  0
   -2.5081    1.0150   -1.5897 H   0  0  0  0  0  0  0  0  0  0  0  0
    2.3842   -2.8635    1.3065 H   0  0  0  0  0  0  0  0  0  0  0  0
    1.6657   -2.8183   -0.3419 H   0  0  0  0  0  0  0  0  0  0  0  0
    3.4053   -3.1084   -0.1391 H   0  0  0  0  0  0  0  0  0  0  0  0
    5.4424   -2.0835   -0.3907 H   0  0  0  0  0  0  0  0  0  0  0  0
    4.4906    2.8332   -0.1637 H   0  0  0  0  0  0  0  0  0  0  0  0
   -4.2935   -2.0982   -0.5214 H   0  0  0  0  0  0  0  0  0  0  0  0
    7.2419   -0.4173   -0.7960 H   0  0  0  0  0  0  0  0  0  0  0  0
    6.7737    2.0023   -0.6837 H   0  0  0  0  0  0  0  0  0  0  0  0
   -6.6522   -2.0473    0.2505 H   0  0  0  0  0  0  0  0  0  0  0  0
   -6.4978    2.2330    0.0858 H   0  0  0  0  0  0  0  0  0  0  0  0
   -7.7925    0.1481    0.5655 H   0  0  0  0  0  0  0  0  0  0  0  0
  1  7  1  0  0  0  0
  1  8  1  0  0  0  0
  1 10  1  0  0  0  0
  2  9  1  0  0  0  0
  2 11  1  0  0  0  0
  2 14  1  0  0  0  0
  3  9  2  0  0  0  0
  3 12  1  0  0  0  0
  4 13  1  0  0  0  0
  4 21  2  0  0  0  0
  5  6  1  0  0  0  0
  5  7  1  0  0  0  0
  5  9  1  0  0  0  0
  5 23  1  0  0  0  0
  6  8  1  0  0  0  0
  6 24  1  0  0  0  0
  6 25  1  0  0  0  0
  7 26  1  0  0  0  0
  7 27  1  0  0  0  0
  8 28  1  0  0  0  0
  8 29  1  0  0  0  0
 10 13  1  0  0  0  0
 10 30  1  0  0  0  0
 10 31  1  0  0  0  0
 11 12  1  0  0  0  0
 11 15  2  0  0  0  0
 12 16  2  0  0  0  0
 13 17  2  0  0  0  0
 14 32  1  0  0  0  0
 14 33  1  0  0  0  0
 14 34  1  0  0  0  0
 15 18  1  0  0  0  0
 15 35  1  0  0  0  0
 16 19  1  0  0  0  0
 16 36  1  0  0  0  0
 17 20  1  0  0  0  0
 17 37  1  0  0  0  0
 18 19  2  0  0  0  0
 18 38  1  0  0  0  0
 19 39  1  0  0  0  0
 20 22  2  0  0  0  0
 20 40  1  0  0  0  0
 21 22  1  0  0  0  0
 21 41  1  0  0  0  0
 22 42  1  0  0  0  0
M  END
> <PUBCHEM_COMPOUND_CID>
56774417

> <PUBCHEM_CONFORMER_RMSD>
0.6

> <PUBCHEM_CONFORMER_DIVERSEORDER>
1
27
58
52
74
68
63
64
93
57
71
39
95
97
46
62
85
32
94
76
67
61
82
98
69
26
31
60
101
99
88
66
51
23
43
78
92
102
81
72
77
38
87
45
54
84
6
25
75
96
100
86
5
70
49
29
53
40
55
9
37
90
59
30
44
89
35
83
24
15
91
13
48
18
42
34
65
10
19
2
47
28
73
3
20
17
4
33
22
14
80
21
7
16
12
50
8
36
11
79
41
56

> <PUBCHEM_MMFF94_PARTIAL_CHARGES>
29
1 -0.81
10 0.41
11 -0.15
12 0.23
13 0.17
14 0.26
15 -0.15
16 -0.15
17 -0.15
18 -0.15
19 -0.15
2 0.05
20 -0.15
21 0.16
22 -0.15
3 -0.57
35 0.15
36 0.15
37 0.15
38 0.15
39 0.15
4 -0.62
40 0.15
41 0.15
42 0.15
5 0.18
7 0.27
8 0.27
9 0.01

> <PUBCHEM_EFFECTIVE_ROTOR_COUNT>
4

> <PUBCHEM_PHARMACOPHORE_FEATURES>
7
1 1 cation
1 4 acceptor
3 2 3 9 cation
5 1 5 6 7 8 rings
5 2 3 9 11 12 rings
6 11 12 15 16 18 19 rings
6 4 13 17 20 21 22 rings

> <PUBCHEM_HEAVY_ATOM_COUNT>
22

> <PUBCHEM_ATOM_DEF_STEREO_COUNT>
1

> <PUBCHEM_ATOM_UDEF_STEREO_COUNT>
0

> <PUBCHEM_BOND_DEF_STEREO_COUNT>
0

> <PUBCHEM_BOND_UDEF_STEREO_COUNT>
0

> <PUBCHEM_ISOTOPIC_ATOM_COUNT>
0

> <PUBCHEM_COMPONENT_COUNT>
1

> <PUBCHEM_CACTVS_TAUTO_COUNT>
1

> <PUBCHEM_CONFORMER_ID>
03624F1100000001

> <PUBCHEM_MMFF94_ENERGY>
48.4028

> <PUBCHEM_FEATURE_SELFOVERLAP>
35.63

> <PUBCHEM_SHAPE_FINGERPRINT>
10 15 11097860726803584254
10299344 5 18273216409226869631
10354089 29 7925910383624237330
10411042 1 17976255735095580362
10595046 47 18410009923234088345
106641 1 11963397362088157996
10693767 8 18128825145265459638
11045977 3 10951762001785477940
11089746 13 10664100047802731647
11287383 113 18260829310616285627
11315181 36 8142084274077123079
11524674 6 15841553011766092159
11545043 162 13686006657562804303
11646440 116 16443070490750875485
11719270 70 18412820266703126066
11796584 16 14476956813765359268
12107183 9 17619630181526988827
12166972 35 18259988184390479004
12236239 1 18272652341795792436
12516196 113 10303814280440840822
12730499 353 18114184125010826882
12788726 201 17489592208172546211
12916748 109 15719389512607711388
13533116 47 18340767057662958666
14251752 14 17988925552592388097
14528608 73 18409448102714647644
14856354 85 17775571970612324263
14933364 13 18409450284721746229
15048467 5 18408884032080860101
15183329 4 18202003209489910641
15475509 35 13901635048909739078
15537594 2 17346594171123697335
16993438 75 18116720814248418043
17844677 252 18410578370851533357
17857418 61 10015865379529609965
18222031 100 15339114641280551153
18335252 98 18260835916772145203
19489759 90 10592045765495792967
200 152 18202282502628210978
2026 5 15337741279409249628
20567600 75 11887684952628603193
20645477 70 18410856517307814806
21236236 1 16845581868501244953
21267235 1 18130794438723894982
220451 1 18060136540284267063
221357 26 18411418397756441708
22950370 63 18202279213094803227
23035841 295 18202002131753656731
23198884 109 18259705592916787433
23424782 7 18187652457018301403
23522609 53 17773620341315101457
23536379 177 18410573976814789113
23559900 14 18342450486804724105
23569914 2 17541604661681683325
25147074 1 17915749682283127378
29717793 49 17704078378547047636
3004659 81 18343864403403412694
314173 85 14979958077404219035
3545911 37 18333450949676550310
4073 2 18040439931295891563
4098825 35 18188770535293526716
4325135 7 18260547840367007191
4340502 62 17676486142353036770
4463277 17 18060419127282727201
5283156 175 17703793587866185678
53794403 172 17387423552063968508
542803 24 18335135397258580935
59682541 35 15068631508863725689
59755656 520 17313099782603198962

> <PUBCHEM_SHAPE_MULTIPOLES>
432.83
17.85
1.67
0.94
10
0.43
0.16
-2.3
-3.41
-1.11
0.04
0.17
-0.09
-0.28

> <PUBCHEM_SHAPE_SELFOVERLAP>
946.732

> <PUBCHEM_SHAPE_VOLUME>
235.7

> <PUBCHEM_COORDINATE_TYPE>
2
5
10

$$$$
