40779521
  -OEChem-12032416163D

 63 67  0     1  0  0  0  0  0999 V2000
   -1.1717    2.6886    1.2026 O   0  0  0  0  0  0  0  0  0  0  0  0
    4.0049    2.3487    0.2612 O   0  0  0  0  0  0  0  0  0  0  0  0
    6.3397    0.9058   -0.1753 O   0  0  0  0  0  0  0  0  0  0  0  0
   -4.2929   -1.2911    0.7373 N   0  0  2  0  0  0  0  0  0  0  0  0
   -3.4339    2.3685    0.7431 N   0  0  0  0  0  0  0  0  0  0  0  0
    0.0217   -3.2635    0.3620 N   0  0  0  0  0  0  0  0  0  0  0  0
    1.3334   -2.9874    0.4581 N   0  0  0  0  0  0  0  0  0  0  0  0
   -2.8770   -1.4690   -1.4414 C   0  0  2  0  0  0  0  0  0  0  0  0
   -2.2340   -2.3107   -0.3047 C   0  0  2  0  0  0  0  0  0  0  0  0
   -4.0236    0.0663    0.1938 C   0  0  2  0  0  0  0  0  0  0  0  0
   -3.0173   -0.0046   -0.9749 C   0  0  0  0  0  0  0  0  0  0  0  0
   -4.3050   -2.0178   -1.6485 C   0  0  0  0  0  0  0  0  0  0  0  0
   -3.0137   -1.9950    1.0037 C   0  0  0  0  0  0  0  0  0  0  0  0
   -5.0350   -2.0545   -0.2945 C   0  0  0  0  0  0  0  0  0  0  0  0
   -3.5717    1.0485    1.2766 C   0  0  0  0  0  0  0  0  0  0  0  0
   -0.7264   -2.2267   -0.1131 C   0  0  0  0  0  0  0  0  0  0  0  0
   -2.3267    4.4401    0.1387 C   0  0  0  0  0  0  0  0  0  0  0  0
   -1.3873    4.8007   -0.9744 C   0  0  0  0  0  0  0  0  0  0  0  0
   -2.8428    4.5782   -1.2636 C   0  0  0  0  0  0  0  0  0  0  0  0
    0.1572   -1.2008   -0.3434 C   0  0  0  0  0  0  0  0  0  0  0  0
   -2.2408    3.0813    0.7505 C   0  0  0  0  0  0  0  0  0  0  0  0
    1.4101   -1.7259    0.0257 C   0  0  0  0  0  0  0  0  0  0  0  0
   -0.4549   -4.5698    0.7538 C   0  0  0  0  0  0  0  0  0  0  0  0
    2.6778   -1.0455   -0.0251 C   0  0  0  0  0  0  0  0  0  0  0  0
    2.7341    0.3379    0.1442 C   0  0  0  0  0  0  0  0  0  0  0  0
    3.8498   -1.7696   -0.2445 C   0  0  0  0  0  0  0  0  0  0  0  0
    3.9623    0.9974    0.0944 C   0  0  0  0  0  0  0  0  0  0  0  0
    5.0779   -1.1101   -0.2945 C   0  0  0  0  0  0  0  0  0  0  0  0
    5.1342    0.2733   -0.1251 C   0  0  0  0  0  0  0  0  0  0  0  0
    2.7625    3.0139    0.4808 C   0  0  0  0  0  0  0  0  0  0  0  0
    7.4891    0.0926   -0.4037 C   0  0  0  0  0  0  0  0  0  0  0  0
   -2.2956   -1.5300   -2.3674 H   0  0  0  0  0  0  0  0  0  0  0  0
   -2.4440   -3.3588   -0.5661 H   0  0  0  0  0  0  0  0  0  0  0  0
   -4.9716    0.4630   -0.2001 H   0  0  0  0  0  0  0  0  0  0  0  0
   -2.0499    0.4130   -0.6944 H   0  0  0  0  0  0  0  0  0  0  0  0
   -3.3902    0.6058   -1.8074 H   0  0  0  0  0  0  0  0  0  0  0  0
   -4.2699   -3.0250   -2.0800 H   0  0  0  0  0  0  0  0  0  0  0  0
   -4.8502   -1.3809   -2.3557 H   0  0  0  0  0  0  0  0  0  0  0  0
   -3.2329   -2.9357    1.5260 H   0  0  0  0  0  0  0  0  0  0  0  0
   -2.4013   -1.4228    1.7099 H   0  0  0  0  0  0  0  0  0  0  0  0
   -6.0475   -1.6475   -0.4060 H   0  0  0  0  0  0  0  0  0  0  0  0
   -5.1706   -3.0920    0.0365 H   0  0  0  0  0  0  0  0  0  0  0  0
   -4.3253    1.1048    2.0704 H   0  0  0  0  0  0  0  0  0  0  0  0
   -2.6289    0.7421    1.7398 H   0  0  0  0  0  0  0  0  0  0  0  0
   -2.5703    5.2335    0.8382 H   0  0  0  0  0  0  0  0  0  0  0  0
   -4.2669    2.8165    0.3721 H   0  0  0  0  0  0  0  0  0  0  0  0
   -0.6854    4.0548   -1.3273 H   0  0  0  0  0  0  0  0  0  0  0  0
   -1.0154    5.8173   -1.0117 H   0  0  0  0  0  0  0  0  0  0  0  0
   -3.4499    5.4454   -1.4937 H   0  0  0  0  0  0  0  0  0  0  0  0
   -3.1089    3.6876   -1.8200 H   0  0  0  0  0  0  0  0  0  0  0  0
   -0.0580   -0.2205   -0.7388 H   0  0  0  0  0  0  0  0  0  0  0  0
   -0.8269   -5.0830   -0.1360 H   0  0  0  0  0  0  0  0  0  0  0  0
    0.3686   -5.1412    1.1910 H   0  0  0  0  0  0  0  0  0  0  0  0
   -1.2463   -4.4482    1.4965 H   0  0  0  0  0  0  0  0  0  0  0  0
    1.8024    0.8619    0.3273 H   0  0  0  0  0  0  0  0  0  0  0  0
    3.8360   -2.8474   -0.3885 H   0  0  0  0  0  0  0  0  0  0  0  0
    5.9460   -1.7360   -0.4704 H   0  0  0  0  0  0  0  0  0  0  0  0
    2.9836    4.0810    0.5878 H   0  0  0  0  0  0  0  0  0  0  0  0
    2.2919    2.6934    1.4167 H   0  0  0  0  0  0  0  0  0  0  0  0
    2.0921    2.9151   -0.3799 H   0  0  0  0  0  0  0  0  0  0  0  0
    7.6457   -0.6228    0.4108 H   0  0  0  0  0  0  0  0  0  0  0  0
    7.4510   -0.3937   -1.3844 H   0  0  0  0  0  0  0  0  0  0  0  0
    8.3582    0.7585   -0.4131 H   0  0  0  0  0  0  0  0  0  0  0  0
  1 21  2  0  0  0  0
  2 27  1  0  0  0  0
  2 30  1  0  0  0  0
  3 29  1  0  0  0  0
  3 31  1  0  0  0  0
  4 10  1  0  0  0  0
  4 13  1  0  0  0  0
  4 14  1  0  0  0  0
  5 15  1  0  0  0  0
  5 21  1  0  0  0  0
  5 46  1  0  0  0  0
  6  7  1  0  0  0  0
  6 16  1  0  0  0  0
  6 23  1  0  0  0  0
  7 22  2  0  0  0  0
  8  9  1  0  0  0  0
  8 11  1  0  0  0  0
  8 12  1  0  0  0  0
  8 32  1  0  0  0  0
  9 13  1  0  0  0  0
  9 16  1  0  0  0  0
  9 33  1  0  0  0  0
 10 11  1  0  0  0  0
 10 15  1  0  0  0  0
 10 34  1  0  0  0  0
 11 35  1  0  0  0  0
 11 36  1  0  0  0  0
 12 14  1  0  0  0  0
 12 37  1  0  0  0  0
 12 38  1  0  0  0  0
 13 39  1  0  0  0  0
 13 40  1  0  0  0  0
 14 41  1  0  0  0  0
 14 42  1  0  0  0  0
 15 43  1  0  0  0  0
 15 44  1  0  0  0  0
 16 20  2  0  0  0  0
 17 18  1  0  0  0  0
 17 19  1  0  0  0  0
 17 21  1  0  0  0  0
 17 45  1  0  0  0  0
 18 19  1  0  0  0  0
 18 47  1  0  0  0  0
 18 48  1  0  0  0  0
 19 49  1  0  0  0  0
 19 50  1  0  0  0  0
 20 22  1  0  0  0  0
 20 51  1  0  0  0  0
 22 24  1  0  0  0  0
 23 52  1  0  0  0  0
 23 53  1  0  0  0  0
 23 54  1  0  0  0  0
 24 25  2  0  0  0  0
 24 26  1  0  0  0  0
 25 27  1  0  0  0  0
 25 55  1  0  0  0  0
 26 28  2  0  0  0  0
 26 56  1  0  0  0  0
 27 29  2  0  0  0  0
 28 29  1  0  0  0  0
 28 57  1  0  0  0  0
 30 58  1  0  0  0  0
 30 59  1  0  0  0  0
 30 60  1  0  0  0  0
 31 61  1  0  0  0  0
 31 62  1  0  0  0  0
 31 63  1  0  0  0  0
M  END
> <PUBCHEM_COMPOUND_CID>
40779521

> <PUBCHEM_CONFORMER_RMSD>
1

> <PUBCHEM_CONFORMER_DIVERSEORDER>
1
35
13
34
41
7
19
29
25
51
15
30
10
45
46
23
22
42
27
50
8
53
26
37
39
52
47
5
28
11
38
43
18
24
4
33
16
21
36
32
44
14
12
31
20
49
17
40
48
9
2
3
6

> <PUBCHEM_MMFF94_PARTIAL_CHARGES>
38
1 -0.57
10 0.27
13 0.27
14 0.27
15 0.3
16 -0.33
17 -0.1
18 -0.2
19 -0.2
2 -0.36
20 -0.15
21 0.63
22 0.23
23 0.26
24 0.05
25 -0.15
26 -0.15
27 0.08
28 -0.15
29 0.08
3 -0.36
30 0.28
31 0.28
4 -0.81
45 0.1
46 0.37
47 0.1
48 0.1
49 0.1
5 -0.73
50 0.1
51 0.15
55 0.15
56 0.15
57 0.15
6 0.31
7 -0.71
9 0.18

> <PUBCHEM_EFFECTIVE_ROTOR_COUNT>
9.8

> <PUBCHEM_PHARMACOPHORE_FEATURES>
9
1 1 acceptor
1 2 acceptor
1 3 acceptor
1 4 cation
1 5 donor
1 7 acceptor
5 6 7 16 20 22 rings
6 24 25 26 27 28 29 rings
8 4 8 9 10 11 12 13 14 rings

> <PUBCHEM_HEAVY_ATOM_COUNT>
31

> <PUBCHEM_ATOM_DEF_STEREO_COUNT>
3

> <PUBCHEM_ATOM_UDEF_STEREO_COUNT>
0

> <PUBCHEM_BOND_DEF_STEREO_COUNT>
0

> <PUBCHEM_BOND_UDEF_STEREO_COUNT>
0

> <PUBCHEM_ISOTOPIC_ATOM_COUNT>
0

> <PUBCHEM_COMPONENT_COUNT>
1

> <PUBCHEM_CACTVS_TAUTO_COUNT>
2

> <PUBCHEM_CONFORMER_ID>
026E3F0100000001

> <PUBCHEM_MMFF94_ENERGY>
93.6557

> <PUBCHEM_FEATURE_SELFOVERLAP>
45.676

> <PUBCHEM_SHAPE_FINGERPRINT>
100830 39 18409450298012609056
10087517 78 18413388756873455188
10670039 82 18413106165289591688
10871710 139 18413107243447851531
11513181 2 18130510725890434606
12100795 323 17830173506793163685
12104220 1 18409164454859057868
12788726 201 18410282623413479922
13560911 43 18261102019702064480
13627167 48 18261405493876221484
14394314 77 18341058531445295641
14466204 15 18266454309462986650
14790565 3 18336270033804578490
15183329 4 18335698369610569966
15320467 1 18194120707551838420
15419008 145 18336535063662444504
15439362 3 17763452217190940925
16067690 210 18114733919215755192
16992787 43 18338510817539249173
17627616 140 18192995903087808354
19611394 137 17899427664467123491
21033648 29 17896297264203632510
23559900 14 18197495341350902306
25019877 29 16987733449043052047
283562 15 18408599245484131551
392239 28 18338247062806012283
469060 322 18265635289343246387
508706 21 18411135818751336672
5252454 2 18057041307450951585
550186 7 18272100383022541046
6371009 1 18338221739641437178
653340 110 18411409597289363440
6608658 132 18341886428792341431
7288768 16 17823710676556008803

> <PUBCHEM_SHAPE_MULTIPOLES>
600.43
12.73
6.43
1.12
20.09
6.13
-0.15
0.82
-1.56
-6.24
-0.15
-1.31
0.15
-0.15

> <PUBCHEM_SHAPE_SELFOVERLAP>
1289.468

> <PUBCHEM_SHAPE_VOLUME>
330.9

> <PUBCHEM_COORDINATE_TYPE>
2
5
10

$$$$
