40779807
  -OEChem-12032416163D

 63 67  0     1  0  0  0  0  0999 V2000
    5.9361    0.9498    0.2203 O   0  0  0  0  0  0  0  0  0  0  0  0
    2.0159    3.2968    0.2007 N   0  0  2  0  0  0  0  0  0  0  0  0
   -2.1299    0.7802    0.5117 N   0  0  0  0  0  0  0  0  0  0  0  0
    3.8691    0.0857    0.8255 N   0  0  0  0  0  0  0  0  0  0  0  0
   -4.7107   -0.4094    0.2224 N   0  0  0  0  0  0  0  0  0  0  0  0
   -6.8281   -0.3380   -0.7605 N   0  0  0  0  0  0  0  0  0  0  0  0
   -6.0966   -2.2719    0.4774 N   0  0  0  0  0  0  0  0  0  0  0  0
    0.2186    1.8361   -0.9836 C   0  0  2  0  0  0  0  0  0  0  0  0
   -0.3489    2.4709    0.3066 C   0  0  2  0  0  0  0  0  0  0  0  0
    2.5605    1.9389   -0.0699 C   0  0  2  0  0  0  0  0  0  0  0  0
    1.4676    1.0053   -0.6363 C   0  0  0  0  0  0  0  0  0  0  0  0
    0.7967    3.2044    1.0397 C   0  0  0  0  0  0  0  0  0  0  0  0
    0.6786    2.9956   -1.8878 C   0  0  0  0  0  0  0  0  0  0  0  0
    1.6378    3.9043   -1.0985 C   0  0  0  0  0  0  0  0  0  0  0  0
   -1.0462    1.4632    1.2174 C   0  0  0  0  0  0  0  0  0  0  0  0
    3.2482    1.3313    1.1549 C   0  0  0  0  0  0  0  0  0  0  0  0
   -3.3354    1.6173    0.4854 C   0  0  0  0  0  0  0  0  0  0  0  0
   -2.4296   -0.5072    1.1507 C   0  0  0  0  0  0  0  0  0  0  0  0
   -4.4604    0.9377   -0.2993 C   0  0  0  0  0  0  0  0  0  0  0  0
   -3.5234   -1.2574    0.3873 C   0  0  0  0  0  0  0  0  0  0  0  0
    5.1854   -0.0097    0.3768 C   0  0  0  0  0  0  0  0  0  0  0  0
   -5.9358   -1.0357   -0.0321 C   0  0  0  0  0  0  0  0  0  0  0  0
    5.6743   -1.3743    0.0515 C   0  0  0  0  0  0  0  0  0  0  0  0
    6.6918   -1.5458   -0.8870 C   0  0  0  0  0  0  0  0  0  0  0  0
    5.1165   -2.4840    0.6860 C   0  0  0  0  0  0  0  0  0  0  0  0
   -7.9979   -0.9711   -0.9866 C   0  0  0  0  0  0  0  0  0  0  0  0
   -7.2887   -2.8458    0.2132 C   0  0  0  0  0  0  0  0  0  0  0  0
   -8.2868   -2.2374   -0.5203 C   0  0  0  0  0  0  0  0  0  0  0  0
    7.1515   -2.8273   -1.1911 C   0  0  0  0  0  0  0  0  0  0  0  0
    5.5761   -3.7654    0.3821 C   0  0  0  0  0  0  0  0  0  0  0  0
    6.5936   -3.9370   -0.5565 C   0  0  0  0  0  0  0  0  0  0  0  0
   -0.5196    1.2256   -1.5128 H   0  0  0  0  0  0  0  0  0  0  0  0
   -1.0773    3.2374    0.0097 H   0  0  0  0  0  0  0  0  0  0  0  0
    3.3403    2.0460   -0.8385 H   0  0  0  0  0  0  0  0  0  0  0  0
    1.2043    0.2031    0.0606 H   0  0  0  0  0  0  0  0  0  0  0  0
    1.8448    0.5179   -1.5445 H   0  0  0  0  0  0  0  0  0  0  0  0
    0.4665    4.2187    1.3005 H   0  0  0  0  0  0  0  0  0  0  0  0
    1.0316    2.7351    2.0015 H   0  0  0  0  0  0  0  0  0  0  0  0
   -0.1847    3.5761   -2.2334 H   0  0  0  0  0  0  0  0  0  0  0  0
    1.1817    2.5994   -2.7782 H   0  0  0  0  0  0  0  0  0  0  0  0
    2.5374    4.1038   -1.6940 H   0  0  0  0  0  0  0  0  0  0  0  0
    1.1759    4.8853   -0.9290 H   0  0  0  0  0  0  0  0  0  0  0  0
   -1.4135    1.9593    2.1262 H   0  0  0  0  0  0  0  0  0  0  0  0
   -0.3031    0.7347    1.5647 H   0  0  0  0  0  0  0  0  0  0  0  0
    2.5383    1.1236    1.9618 H   0  0  0  0  0  0  0  0  0  0  0  0
    4.0074    2.0191    1.5450 H   0  0  0  0  0  0  0  0  0  0  0  0
   -3.1374    2.5808    0.0041 H   0  0  0  0  0  0  0  0  0  0  0  0
   -3.6828    1.8295    1.5059 H   0  0  0  0  0  0  0  0  0  0  0  0
   -2.7416   -0.3584    2.1934 H   0  0  0  0  0  0  0  0  0  0  0  0
   -1.5335   -1.1398    1.1636 H   0  0  0  0  0  0  0  0  0  0  0  0
    3.2846   -0.7419    0.8742 H   0  0  0  0  0  0  0  0  0  0  0  0
   -4.2005    0.8777   -1.3639 H   0  0  0  0  0  0  0  0  0  0  0  0
   -5.3516    1.5704   -0.2069 H   0  0  0  0  0  0  0  0  0  0  0  0
   -3.7449   -2.1698    0.9533 H   0  0  0  0  0  0  0  0  0  0  0  0
   -3.1562   -1.5640   -0.6005 H   0  0  0  0  0  0  0  0  0  0  0  0
    7.1363   -0.6942   -1.3953 H   0  0  0  0  0  0  0  0  0  0  0  0
    4.3449   -2.3928    1.4447 H   0  0  0  0  0  0  0  0  0  0  0  0
   -8.7208   -0.4139   -1.5728 H   0  0  0  0  0  0  0  0  0  0  0  0
   -7.4240   -3.8418    0.6210 H   0  0  0  0  0  0  0  0  0  0  0  0
   -9.2339   -2.7215   -0.7169 H   0  0  0  0  0  0  0  0  0  0  0  0
    7.9433   -2.9612   -1.9223 H   0  0  0  0  0  0  0  0  0  0  0  0
    5.1471   -4.6295    0.8811 H   0  0  0  0  0  0  0  0  0  0  0  0
    6.9524   -4.9346   -0.7920 H   0  0  0  0  0  0  0  0  0  0  0  0
  1 21  2  0  0  0  0
  2 10  1  0  0  0  0
  2 12  1  0  0  0  0
  2 14  1  0  0  0  0
  3 15  1  0  0  0  0
  3 17  1  0  0  0  0
  3 18  1  0  0  0  0
  4 16  1  0  0  0  0
  4 21  1  0  0  0  0
  4 51  1  0  0  0  0
  5 19  1  0  0  0  0
  5 20  1  0  0  0  0
  5 22  1  0  0  0  0
  6 22  2  0  0  0  0
  6 26  1  0  0  0  0
  7 22  1  0  0  0  0
  7 27  2  0  0  0  0
  8  9  1  0  0  0  0
  8 11  1  0  0  0  0
  8 13  1  0  0  0  0
  8 32  1  0  0  0  0
  9 12  1  0  0  0  0
  9 15  1  0  0  0  0
  9 33  1  0  0  0  0
 10 11  1  0  0  0  0
 10 16  1  0  0  0  0
 10 34  1  0  0  0  0
 11 35  1  0  0  0  0
 11 36  1  0  0  0  0
 12 37  1  0  0  0  0
 12 38  1  0  0  0  0
 13 14  1  0  0  0  0
 13 39  1  0  0  0  0
 13 40  1  0  0  0  0
 14 41  1  0  0  0  0
 14 42  1  0  0  0  0
 15 43  1  0  0  0  0
 15 44  1  0  0  0  0
 16 45  1  0  0  0  0
 16 46  1  0  0  0  0
 17 19  1  0  0  0  0
 17 47  1  0  0  0  0
 17 48  1  0  0  0  0
 18 20  1  0  0  0  0
 18 49  1  0  0  0  0
 18 50  1  0  0  0  0
 19 52  1  0  0  0  0
 19 53  1  0  0  0  0
 20 54  1  0  0  0  0
 20 55  1  0  0  0  0
 21 23  1  0  0  0  0
 23 24  2  0  0  0  0
 23 25  1  0  0  0  0
 24 29  1  0  0  0  0
 24 56  1  0  0  0  0
 25 30  2  0  0  0  0
 25 57  1  0  0  0  0
 26 28  2  0  0  0  0
 26 58  1  0  0  0  0
 27 28  1  0  0  0  0
 27 59  1  0  0  0  0
 28 60  1  0  0  0  0
 29 31  2  0  0  0  0
 29 61  1  0  0  0  0
 30 31  1  0  0  0  0
 30 62  1  0  0  0  0
 31 63  1  0  0  0  0
M  END
> <PUBCHEM_COMPOUND_CID>
40779807

> <PUBCHEM_CONFORMER_RMSD>
1

> <PUBCHEM_CONFORMER_DIVERSEORDER>
1
39
7
15
60
49
21
38
42
34
22
6
40
46
2
33
28
50
31
51
17
45
24
59
41
55
43
30
11
26
44
25
10
20
27
61
54
9
37
52
35
19
58
8
53
18
32
16
48
56
23
13
57
36
5
4
29
3
47
14
12

> <PUBCHEM_MMFF94_PARTIAL_CHARGES>
36
1 -0.57
10 0.27
12 0.27
14 0.27
15 0.27
16 0.3
17 0.27
18 0.27
19 0.37
2 -0.81
20 0.37
21 0.54
22 0.72
23 0.09
24 -0.15
25 -0.15
26 0.16
27 0.16
28 -0.15
29 -0.15
3 -0.81
30 -0.15
31 -0.15
4 -0.73
5 -0.84
51 0.37
56 0.15
57 0.15
58 0.15
59 0.15
6 -0.62
60 0.15
61 0.15
62 0.15
63 0.15
7 -0.62

> <PUBCHEM_EFFECTIVE_ROTOR_COUNT>
9.4

> <PUBCHEM_PHARMACOPHORE_FEATURES>
10
1 1 acceptor
1 2 cation
1 3 cation
1 4 donor
1 7 acceptor
4 5 6 7 22 cation
6 23 24 25 29 30 31 rings
6 3 5 17 18 19 20 rings
6 6 7 22 26 27 28 rings
8 2 8 9 10 11 12 13 14 rings

> <PUBCHEM_HEAVY_ATOM_COUNT>
31

> <PUBCHEM_ATOM_DEF_STEREO_COUNT>
3

> <PUBCHEM_ATOM_UDEF_STEREO_COUNT>
0

> <PUBCHEM_BOND_DEF_STEREO_COUNT>
0

> <PUBCHEM_BOND_UDEF_STEREO_COUNT>
0

> <PUBCHEM_ISOTOPIC_ATOM_COUNT>
0

> <PUBCHEM_COMPONENT_COUNT>
1

> <PUBCHEM_CACTVS_TAUTO_COUNT>
2

> <PUBCHEM_CONFORMER_ID>
026E401F00000001

> <PUBCHEM_MMFF94_ENERGY>
90.767

> <PUBCHEM_FEATURE_SELFOVERLAP>
50.747

> <PUBCHEM_SHAPE_FINGERPRINT>
10066227 49 18340483474348071999
10673678 19 8142089779423667840
10693767 8 18408037412032322890
10838868 160 8285905844702680103
10981352 41 18060418006555187302
11463208 1 18046634670919785299
11478447 147 15214165122426037310
11497681 19 18339366271759916788
117089 54 18269843030080424654
11756154 67 18411703145472020662
11761917 116 18268437829009817478
12013929 112 17749936792887255647
12120059 9 18265028285614766218
12124843 1 17968948470520915278
12166972 35 18412546535066698881
12623949 98 18130795525719730574
12895836 83 11819282165238050137
13008946 170 18053094313995189881
131258 43 18270137772627889628
13248334 5 18196371648483198384
13533116 47 18339078323629707281
1361 4 18194682794643626979
1361 87 17531824548706407571
13782708 43 18059287661314403810
13989917 61 18339081592094901922
14068700 675 18343304734214292208
14251764 30 18338798914758612380
14251764 75 8934995966970148960
14347332 77 18045218242291351682
14565420 104 10735882767907202716
14931854 50 17894347752741393835
15152005 77 17916863508884765142
15475509 35 18202278143621943624
16126227 98 8358249350718728239
16728300 4 18201716211163885975
16991971 28 18341337725192758166
16994733 274 11169921601336806285
19841028 212 18410570665617011730
2026 5 18343017840123854759
20691028 202 8718819882158720946
20982279 24 18041294253102331083
21130935 74 18272088357504209625
21304304 249 18272373083027800135
21307412 95 18191580848391572261
21424621 283 9655283839930513492
21682296 61 18410014343024637003
23559900 14 18189331432891241561
23569943 247 18194402186659935042
255183 451 18334295387502783821
2748736 6 8790593776564042082
3004659 81 18114735057994004561
3504750 166 18202282507872737545
3711267 37 11891600296909860295
3918712 181 10737292363563635814
393628 194 9582646794591138610
406291 66 18272649034935374847
437815 12 18334295348884500732
474113 269 18202273711621518767
54076057 255 13045935824650178397
5718773 13 18413107247220657367
57307002 29 16588040020931477346
6712543 237 15482670169638306399
7970288 3 18411138017880113090
9555976 147 17345484690739690689
9831232 110 18261670484451535295

> <PUBCHEM_SHAPE_MULTIPOLES>
602.21
23.62
5.2
1.21
20.29
0.13
-0.19
34.08
-4.71
-6.03
-0.85
-0.39
-0.51
0.49

> <PUBCHEM_SHAPE_SELFOVERLAP>
1288.946

> <PUBCHEM_SHAPE_VOLUME>
326.7

> <PUBCHEM_COORDINATE_TYPE>
2
5
10

$$$$
