45783519
  -OEChem-12032416203D

 53 57  0     1  0  0  0  0  0999 V2000
   -2.3185    0.5032   -2.0077 O   0  0  0  0  0  0  0  0  0  0  0  0
    7.6986   -0.2661    0.6652 O   0  0  0  0  0  0  0  0  0  0  0  0
   -4.3360    0.7838    0.8558 N   0  0  1  0  0  0  0  0  0  0  0  0
   -1.3599    1.1408   -0.0864 N   0  0  0  0  0  0  0  0  0  0  0  0
    4.9631    0.1845    0.2036 N   0  0  0  0  0  0  0  0  0  0  0  0
   -0.9541    0.2150   -2.1387 N   0  0  0  0  0  0  0  0  0  0  0  0
    3.1677   -0.1408   -1.3037 N   0  0  0  0  0  0  0  0  0  0  0  0
   -1.8899   -3.5419    0.0848 N   0  0  0  0  0  0  0  0  0  0  0  0
   -3.8778    1.4486   -0.3804 C   0  0  1  0  0  0  0  0  0  0  0  0
   -4.0042    2.9545   -0.0846 C   0  0  0  0  0  0  0  0  0  0  0  0
   -4.5976    3.0364    1.3146 C   0  0  0  0  0  0  0  0  0  0  0  0
   -5.2865    1.6980    1.4890 C   0  0  0  0  0  0  0  0  0  0  0  0
   -4.9155   -0.5323    0.6193 C   0  0  0  0  0  0  0  0  0  0  0  0
   -2.4714    1.0456   -0.7713 C   0  0  0  0  0  0  0  0  0  0  0  0
   -3.8564   -1.5858    0.4323 C   0  0  0  0  0  0  0  0  0  0  0  0
   -0.4566    0.6190   -0.9660 C   0  0  0  0  0  0  0  0  0  0  0  0
   -3.8085   -2.3264   -0.7436 C   0  0  0  0  0  0  0  0  0  0  0  0
   -2.9221   -1.8222    1.4347 C   0  0  0  0  0  0  0  0  0  0  0  0
    5.3984   -0.6182    1.3518 C   0  0  0  0  0  0  0  0  0  0  0  0
    5.9267    0.2680   -0.9026 C   0  0  0  0  0  0  0  0  0  0  0  0
    0.9371    0.5166   -0.6427 C   0  0  0  0  0  0  0  0  0  0  0  0
    6.8016   -0.1962    1.7731 C   0  0  0  0  0  0  0  0  0  0  0  0
    7.3013    0.6434   -0.3607 C   0  0  0  0  0  0  0  0  0  0  0  0
    3.6013    0.2897   -0.0977 C   0  0  0  0  0  0  0  0  0  0  0  0
    1.4210    0.9485    0.5873 C   0  0  0  0  0  0  0  0  0  0  0  0
    2.7773    0.8365    0.8728 C   0  0  0  0  0  0  0  0  0  0  0  0
   -2.8147   -3.2840   -0.8670 C   0  0  0  0  0  0  0  0  0  0  0  0
   -1.9679   -2.8024    1.2139 C   0  0  0  0  0  0  0  0  0  0  0  0
    1.8434   -0.0158   -1.5453 C   0  0  0  0  0  0  0  0  0  0  0  0
   -4.5539    1.2230   -1.2172 H   0  0  0  0  0  0  0  0  0  0  0  0
   -3.0561    3.5004   -0.1379 H   0  0  0  0  0  0  0  0  0  0  0  0
   -4.6954    3.4136   -0.8020 H   0  0  0  0  0  0  0  0  0  0  0  0
   -5.2855    3.8800    1.4237 H   0  0  0  0  0  0  0  0  0  0  0  0
   -3.7950    3.1528    2.0535 H   0  0  0  0  0  0  0  0  0  0  0  0
   -6.2556    1.6990    0.9739 H   0  0  0  0  0  0  0  0  0  0  0  0
   -5.4446    1.4619    2.5458 H   0  0  0  0  0  0  0  0  0  0  0  0
   -5.6236   -0.5201   -0.2197 H   0  0  0  0  0  0  0  0  0  0  0  0
   -5.5023   -0.8442    1.4950 H   0  0  0  0  0  0  0  0  0  0  0  0
    4.7255   -0.5140    2.2096 H   0  0  0  0  0  0  0  0  0  0  0  0
    5.4018   -1.6745    1.0558 H   0  0  0  0  0  0  0  0  0  0  0  0
    5.9781   -0.7066   -1.4036 H   0  0  0  0  0  0  0  0  0  0  0  0
    5.6192    1.0199   -1.6390 H   0  0  0  0  0  0  0  0  0  0  0  0
   -4.5191   -2.1680   -1.5474 H   0  0  0  0  0  0  0  0  0  0  0  0
   -2.9303   -1.2675    2.3668 H   0  0  0  0  0  0  0  0  0  0  0  0
    7.1756   -0.8690    2.5513 H   0  0  0  0  0  0  0  0  0  0  0  0
    6.8066    0.8212    2.1830 H   0  0  0  0  0  0  0  0  0  0  0  0
    7.3088    1.6659    0.0360 H   0  0  0  0  0  0  0  0  0  0  0  0
    8.0451    0.5932   -1.1621 H   0  0  0  0  0  0  0  0  0  0  0  0
    0.7655    1.3786    1.3401 H   0  0  0  0  0  0  0  0  0  0  0  0
    3.1561    1.1877    1.8270 H   0  0  0  0  0  0  0  0  0  0  0  0
    1.5472   -0.3758   -2.5261 H   0  0  0  0  0  0  0  0  0  0  0  0
   -2.7334   -3.8874   -1.7650 H   0  0  0  0  0  0  0  0  0  0  0  0
   -1.2167   -3.0252    1.9644 H   0  0  0  0  0  0  0  0  0  0  0  0
  1  6  1  0  0  0  0
  1 14  1  0  0  0  0
  2 22  1  0  0  0  0
  2 23  1  0  0  0  0
  3  9  1  0  0  0  0
  3 12  1  0  0  0  0
  3 13  1  0  0  0  0
  4 14  2  0  0  0  0
  4 16  1  0  0  0  0
  5 19  1  0  0  0  0
  5 20  1  0  0  0  0
  5 24  1  0  0  0  0
  6 16  2  0  0  0  0
  7 24  2  0  0  0  0
  7 29  1  0  0  0  0
  8 27  2  0  0  0  0
  8 28  1  0  0  0  0
  9 10  1  0  0  0  0
  9 14  1  0  0  0  0
  9 30  1  0  0  0  0
 10 11  1  0  0  0  0
 10 31  1  0  0  0  0
 10 32  1  0  0  0  0
 11 12  1  0  0  0  0
 11 33  1  0  0  0  0
 11 34  1  0  0  0  0
 12 35  1  0  0  0  0
 12 36  1  0  0  0  0
 13 15  1  0  0  0  0
 13 37  1  0  0  0  0
 13 38  1  0  0  0  0
 15 17  2  0  0  0  0
 15 18  1  0  0  0  0
 16 21  1  0  0  0  0
 17 27  1  0  0  0  0
 17 43  1  0  0  0  0
 18 28  2  0  0  0  0
 18 44  1  0  0  0  0
 19 22  1  0  0  0  0
 19 39  1  0  0  0  0
 19 40  1  0  0  0  0
 20 23  1  0  0  0  0
 20 41  1  0  0  0  0
 20 42  1  0  0  0  0
 21 25  1  0  0  0  0
 21 29  2  0  0  0  0
 22 45  1  0  0  0  0
 22 46  1  0  0  0  0
 23 47  1  0  0  0  0
 23 48  1  0  0  0  0
 24 26  1  0  0  0  0
 25 26  2  0  0  0  0
 25 49  1  0  0  0  0
 26 50  1  0  0  0  0
 27 52  1  0  0  0  0
 28 53  1  0  0  0  0
 29 51  1  0  0  0  0
M  END
> <PUBCHEM_COMPOUND_CID>
45783519

> <PUBCHEM_CONFORMER_RMSD>
0.8

> <PUBCHEM_CONFORMER_DIVERSEORDER>
1
137
139
128
149
84
110
13
63
50
99
40
75
134
158
180
22
44
95
142
164
25
15
133
112
91
148
10
186
94
176
143
29
131
69
168
105
71
185
30
16
156
153
18
163
151
154
121
78
179
11
6
181
81
79
87
152
104
19
178
172
184
115
70
73
118
188
43
173
187
165
34
8
46
147
24
57
82
113
31
109
101
169
12
89
171
126
136
59
103
14
167
108
4
106
85
27
100
130
144
68
129
160
122
9
88
119
53
124
38
157
174
140
52
55
32
67
26
120
125
146
48
150
51
111
166
80
21
175
90
45
135
96
20
3
97
58
145
162
114
159
102
138
54
72
64
182
66
177
62
17
141
49
74
92
183
77
47
98
36
116
56
161
123
61
170
93
33
155
86
2
132
83
37
23
7
65
41
39
35
127
117
42
76
107
5
60
28

> <PUBCHEM_MMFF94_PARTIAL_CHARGES>
34
1 -0.02
12 0.27
13 0.41
14 0.3
15 -0.14
16 0.46
17 -0.15
18 -0.15
19 0.37
2 -0.56
20 0.37
21 0.05
22 0.28
23 0.28
24 0.41
25 -0.15
26 -0.15
27 0.16
28 0.16
29 0.16
3 -0.81
4 -0.57
43 0.15
44 0.15
49 0.15
5 -0.84
50 0.15
51 0.15
52 0.15
53 0.15
6 -0.41
7 -0.62
8 -0.62
9 0.45

> <PUBCHEM_EFFECTIVE_ROTOR_COUNT>
7.2

> <PUBCHEM_PHARMACOPHORE_FEATURES>
10
1 2 acceptor
1 3 cation
1 8 acceptor
3 4 6 16 cation
3 5 7 24 cation
5 1 4 6 14 16 rings
5 3 9 10 11 12 rings
6 2 5 19 20 22 23 rings
6 7 21 24 25 26 29 rings
6 8 15 17 18 27 28 rings

> <PUBCHEM_HEAVY_ATOM_COUNT>
29

> <PUBCHEM_ATOM_DEF_STEREO_COUNT>
1

> <PUBCHEM_ATOM_UDEF_STEREO_COUNT>
0

> <PUBCHEM_BOND_DEF_STEREO_COUNT>
0

> <PUBCHEM_BOND_UDEF_STEREO_COUNT>
0

> <PUBCHEM_ISOTOPIC_ATOM_COUNT>
0

> <PUBCHEM_COMPONENT_COUNT>
1

> <PUBCHEM_CACTVS_TAUTO_COUNT>
1

> <PUBCHEM_CONFORMER_ID>
02BA99DF00000001

> <PUBCHEM_MMFF94_ENERGY>
74.241

> <PUBCHEM_FEATURE_SELFOVERLAP>
50.749

> <PUBCHEM_SHAPE_FINGERPRINT>
10 15 17703783735227163184
10319926 262 18271519879616882320
11315181 36 18408602595226111797
11524674 6 18272930526822838718
12293681 4 18201725028531921345
12422481 6 17823135622899658330
12522641 33 17242990395406894149
12616971 3 16950570982483872388
12633257 1 18339374032254500873
12988421 55 18195249906452506881
13004483 165 17912364531432994855
13583140 156 17489871565667088815
14068700 675 18266738172689173895
14844126 61 18338801221172381619
14856354 85 18408888451285573596
15021287 119 17168148931551826524
15183329 4 17167857582977994002
15326921 28 18046332042464061829
15348495 7 18201432619253867880
15352257 5 18409170983595118998
15799311 1 18186809067375663250
16110190 28 18113620062660732810
17093844 174 17846771910619760376
17780758 139 18335420188192806105
17844677 252 18342458200988350760
19438510 23 17201935730331287713
20554085 129 18198047090003450041
21033648 29 17560809796627888749
21236236 1 18260827124678593410
21756936 100 18272365335297122705
220451 1 18040716949066609060
23516275 137 17972054560699019922
23522609 53 17969246519744773044
23559900 14 18116989099057944589
2838139 119 12535350108323126098
3383291 50 18337961190157707075
397830 11 18058438976183156456
4073 2 18343584041108120462
469060 322 12391237192575081599
484985 159 18262226833357247223
4938544 92 18272651259548423357
5364581 5 18127967710209182592
58260988 114 16516546515677403579
59755656 520 18410010996553997128
602551 16 18409172137906697150
68570916 9 18261111933272807188
7226269 152 18202283554700611289
9953998 17 18335135410723978520

> <PUBCHEM_SHAPE_MULTIPOLES>
555.18
17
3.14
1.68
33.76
1.79
0.15
-3.19
-5.99
-7.42
-0.57
0.14
0.01
-1.04

> <PUBCHEM_SHAPE_SELFOVERLAP>
1206.391

> <PUBCHEM_SHAPE_VOLUME>
301.5

> <PUBCHEM_COORDINATE_TYPE>
2
5
10

$$$$
