11911936
  -OEChem-12032416123D

 63 67  0     1  0  0  0  0  0999 V2000
   -1.4468   -2.7308    1.2202 O   0  0  0  0  0  0  0  0  0  0  0  0
   -1.2133   -2.4393   -1.9027 O   0  0  0  0  0  0  0  0  0  0  0  0
   -4.9077   -0.1101    0.8618 O   0  0  0  0  0  0  0  0  0  0  0  0
    1.5857   -1.8243    0.3615 N   0  0  0  0  0  0  0  0  0  0  0  0
   -3.4907   -0.5899   -0.9223 N   0  0  0  0  0  0  0  0  0  0  0  0
    1.4088   -0.9121    1.3110 N   0  0  0  0  0  0  0  0  0  0  0  0
    2.6110   -0.3770    1.5788 N   0  0  0  0  0  0  0  0  0  0  0  0
   -0.6110   -1.7557   -0.7884 C   0  0  1  0  0  0  0  0  0  0  0  0
   -1.6650   -1.6526    0.2967 C   0  0  1  0  0  0  0  0  0  0  0  0
    0.4813   -2.6176   -0.1841 C   0  0  2  0  0  0  0  0  0  0  0  0
   -2.9744   -1.8459   -0.4345 C   0  0  2  0  0  0  0  0  0  0  0  0
   -0.2737   -3.4615    0.8370 C   0  0  0  0  0  0  0  0  0  0  0  0
   -2.5742   -2.7575   -1.5796 C   0  0  0  0  0  0  0  0  0  0  0  0
   -4.7646    1.4432   -0.9478 C   0  0  0  0  0  0  0  0  0  0  0  0
    5.3710    0.5987   -0.0805 C   0  0  0  0  0  0  0  0  0  0  0  0
   -4.4169    0.1725   -0.2281 C   0  0  0  0  0  0  0  0  0  0  0  0
   -3.7560    2.5393   -0.5982 C   0  0  0  0  0  0  0  0  0  0  0  0
   -6.2104    1.8571   -0.6651 C   0  0  0  0  0  0  0  0  0  0  0  0
    5.0313   -0.5391    0.8805 C   0  0  0  0  0  0  0  0  0  0  0  0
    6.8744    0.6180   -0.3877 C   0  0  0  0  0  0  0  0  0  0  0  0
    4.9129    1.9468    0.4922 C   0  0  0  0  0  0  0  0  0  0  0  0
    2.9153   -1.8476    0.0438 C   0  0  0  0  0  0  0  0  0  0  0  0
    3.5887   -0.9298    0.8102 C   0  0  0  0  0  0  0  0  0  0  0  0
   -3.9755    3.1333    0.7921 C   0  0  0  0  0  0  0  0  0  0  0  0
   -6.4062    2.4757    0.7186 C   0  0  0  0  0  0  0  0  0  0  0  0
    7.2475    1.7802   -1.3051 C   0  0  0  0  0  0  0  0  0  0  0  0
    5.2891    3.1068   -0.4269 C   0  0  0  0  0  0  0  0  0  0  0  0
   -5.4134    3.6016    0.9835 C   0  0  0  0  0  0  0  0  0  0  0  0
    6.7828    3.1175   -0.7369 C   0  0  0  0  0  0  0  0  0  0  0  0
   -0.2729   -0.7800   -1.1521 H   0  0  0  0  0  0  0  0  0  0  0  0
   -1.6031   -0.7186    0.8645 H   0  0  0  0  0  0  0  0  0  0  0  0
    0.9419   -3.2769   -0.9301 H   0  0  0  0  0  0  0  0  0  0  0  0
   -3.7408   -2.3209    0.1874 H   0  0  0  0  0  0  0  0  0  0  0  0
    0.3123   -3.6992    1.7300 H   0  0  0  0  0  0  0  0  0  0  0  0
   -0.6120   -4.4014    0.3874 H   0  0  0  0  0  0  0  0  0  0  0  0
   -3.1958   -2.6450   -2.4731 H   0  0  0  0  0  0  0  0  0  0  0  0
   -2.5988   -3.8085   -1.2714 H   0  0  0  0  0  0  0  0  0  0  0  0
   -3.1016   -0.2248   -1.7872 H   0  0  0  0  0  0  0  0  0  0  0  0
   -4.6929    1.2437   -2.0259 H   0  0  0  0  0  0  0  0  0  0  0  0
    4.8449    0.4360   -1.0321 H   0  0  0  0  0  0  0  0  0  0  0  0
   -3.8449    3.3453   -1.3382 H   0  0  0  0  0  0  0  0  0  0  0  0
   -2.7286    2.1625   -0.6695 H   0  0  0  0  0  0  0  0  0  0  0  0
   -6.8867    1.0010   -0.7782 H   0  0  0  0  0  0  0  0  0  0  0  0
   -6.5140    2.5958   -1.4185 H   0  0  0  0  0  0  0  0  0  0  0  0
    5.2900   -0.2739    1.9128 H   0  0  0  0  0  0  0  0  0  0  0  0
    5.6250   -1.4284    0.6320 H   0  0  0  0  0  0  0  0  0  0  0  0
    7.4445    0.6976    0.5469 H   0  0  0  0  0  0  0  0  0  0  0  0
    7.1729   -0.3239   -0.8633 H   0  0  0  0  0  0  0  0  0  0  0  0
    3.8268    1.9536    0.6377 H   0  0  0  0  0  0  0  0  0  0  0  0
    5.3673    2.1097    1.4780 H   0  0  0  0  0  0  0  0  0  0  0  0
    3.2816   -2.5257   -0.7148 H   0  0  0  0  0  0  0  0  0  0  0  0
   -3.7259    2.3892    1.5579 H   0  0  0  0  0  0  0  0  0  0  0  0
   -3.2927    3.9780    0.9396 H   0  0  0  0  0  0  0  0  0  0  0  0
   -7.4261    2.8722    0.7907 H   0  0  0  0  0  0  0  0  0  0  0  0
   -6.3221    1.7189    1.5047 H   0  0  0  0  0  0  0  0  0  0  0  0
    8.3333    1.7997   -1.4518 H   0  0  0  0  0  0  0  0  0  0  0  0
    6.7946    1.6257   -2.2922 H   0  0  0  0  0  0  0  0  0  0  0  0
    4.7223    3.0291   -1.3629 H   0  0  0  0  0  0  0  0  0  0  0  0
    5.0035    4.0555    0.0414 H   0  0  0  0  0  0  0  0  0  0  0  0
   -5.6191    4.4386    0.3050 H   0  0  0  0  0  0  0  0  0  0  0  0
   -5.5466    3.9782    2.0038 H   0  0  0  0  0  0  0  0  0  0  0  0
    7.0059    3.9190   -1.4501 H   0  0  0  0  0  0  0  0  0  0  0  0
    7.3439    3.3393    0.1793 H   0  0  0  0  0  0  0  0  0  0  0  0
  1  9  1  0  0  0  0
  1 12  1  0  0  0  0
  2  8  1  0  0  0  0
  2 13  1  0  0  0  0
  3 16  2  0  0  0  0
  4  6  1  0  0  0  0
  4 10  1  0  0  0  0
  4 22  1  0  0  0  0
  5 11  1  0  0  0  0
  5 16  1  0  0  0  0
  5 38  1  0  0  0  0
  6  7  2  0  0  0  0
  7 23  1  0  0  0  0
  8  9  1  0  0  0  0
  8 10  1  0  0  0  0
  8 30  1  0  0  0  0
  9 11  1  0  0  0  0
  9 31  1  0  0  0  0
 10 12  1  0  0  0  0
 10 32  1  0  0  0  0
 11 13  1  0  0  0  0
 11 33  1  0  0  0  0
 12 34  1  0  0  0  0
 12 35  1  0  0  0  0
 13 36  1  0  0  0  0
 13 37  1  0  0  0  0
 14 16  1  0  0  0  0
 14 17  1  0  0  0  0
 14 18  1  0  0  0  0
 14 39  1  0  0  0  0
 15 19  1  0  0  0  0
 15 20  1  0  0  0  0
 15 21  1  0  0  0  0
 15 40  1  0  0  0  0
 17 24  1  0  0  0  0
 17 41  1  0  0  0  0
 17 42  1  0  0  0  0
 18 25  1  0  0  0  0
 18 43  1  0  0  0  0
 18 44  1  0  0  0  0
 19 23  1  0  0  0  0
 19 45  1  0  0  0  0
 19 46  1  0  0  0  0
 20 26  1  0  0  0  0
 20 47  1  0  0  0  0
 20 48  1  0  0  0  0
 21 27  1  0  0  0  0
 21 49  1  0  0  0  0
 21 50  1  0  0  0  0
 22 23  2  0  0  0  0
 22 51  1  0  0  0  0
 24 28  1  0  0  0  0
 24 52  1  0  0  0  0
 24 53  1  0  0  0  0
 25 28  1  0  0  0  0
 25 54  1  0  0  0  0
 25 55  1  0  0  0  0
 26 29  1  0  0  0  0
 26 56  1  0  0  0  0
 26 57  1  0  0  0  0
 27 29  1  0  0  0  0
 27 58  1  0  0  0  0
 27 59  1  0  0  0  0
 28 60  1  0  0  0  0
 28 61  1  0  0  0  0
 29 62  1  0  0  0  0
 29 63  1  0  0  0  0
M  END
> <PUBCHEM_COMPOUND_CID>
11911936

> <PUBCHEM_CONFORMER_RMSD>
1.2

> <PUBCHEM_CONFORMER_DIVERSEORDER>
1
32
22
67
7
53
21
63
5
56
19
42
31
4
52
29
54
66
18
38
26
24
9
11
6
43
41
16
14
57
30
20
12
37
33
50
35
27
45
10
46
55
28
15
62
3
17
8
69
64
59
68
60
25
13
51
44
48
40
23
34
65
61
36
49
58
39
47
2

> <PUBCHEM_MMFF94_PARTIAL_CHARGES>
20
1 -0.56
10 0.26
11 0.3
12 0.28
13 0.28
14 0.06
16 0.57
19 0.18
2 -0.56
22 -0.3
23 0.05
3 -0.57
38 0.37
4 0.31
5 -0.73
51 0.15
6 -0.42
7 -0.23
8 0.28
9 0.28

> <PUBCHEM_EFFECTIVE_ROTOR_COUNT>
9.6

> <PUBCHEM_PHARMACOPHORE_FEATURES>
9
1 1 acceptor
1 2 acceptor
1 3 acceptor
1 5 donor
5 1 8 9 10 12 rings
5 2 8 9 11 13 rings
5 4 6 7 22 23 rings
6 14 17 18 24 25 28 rings
6 15 20 21 26 27 29 rings

> <PUBCHEM_HEAVY_ATOM_COUNT>
29

> <PUBCHEM_ATOM_DEF_STEREO_COUNT>
4

> <PUBCHEM_ATOM_UDEF_STEREO_COUNT>
0

> <PUBCHEM_BOND_DEF_STEREO_COUNT>
0

> <PUBCHEM_BOND_UDEF_STEREO_COUNT>
0

> <PUBCHEM_ISOTOPIC_ATOM_COUNT>
0

> <PUBCHEM_COMPONENT_COUNT>
1

> <PUBCHEM_CACTVS_TAUTO_COUNT>
2

> <PUBCHEM_CONFORMER_ID>
00B5C30000000001

> <PUBCHEM_MMFF94_ENERGY>
43.8806

> <PUBCHEM_FEATURE_SELFOVERLAP>
46.365

> <PUBCHEM_SHAPE_FINGERPRINT>
100830 2 18339651048575766456
10556698 54 17630861920317655481
10917259 128 18268413798741539328
11273773 38 18411980234907359424
12013929 29 18336271245239051396
13627167 48 18059310759253285640
13690498 29 17629758134912375558
13885169 86 18408043996117044941
13944108 23 18125722279610281904
14150022 121 17897174721996497347
14251764 75 18339644443041990161
14347329 18 18411693309943490208
14664723 55 18340776965688527204
14790565 3 18337388249365978152
14840074 17 18113336392576445773
14849402 71 18047470024087183858
15163728 17 18131071481231390919
15198563 99 17772166843278734967
15274700 208 13768799875345834036
15338160 23 18114187496560336107
15519825 34 15936988434802715641
15575132 122 18412828018358718857
16112460 7 18338518543177657392
16120349 67 18412270544910632122
16126227 98 18411420617953639009
18393751 57 18261959536404534507
19315092 285 10953746577820170526
19438510 23 18186522116035744512
20058555 10 18408602552287403981
20691028 202 18409163311812739976
21223535 225 18269270322335716916
21585480 29 11675462810636646120
21774942 28 18339922732208300748
22122407 14 18334016090295401800
23569914 152 17414453697339760702
24771750 20 17702952426816599815
249057 25 18192402312732715314
2748736 6 18410001126824925352
2838139 119 17987780948045098715
316301 35 8646477527494068510
3388396 114 17189527006492283612
3552219 110 18189325948540154759
3610482 184 18273205396429381607
38570 142 18335988575590875750
3918712 181 18336822009721283709
4058900 60 18335985285440485082
4258327 124 18411130334726543631
50677037 204 18263352750127701364
5718773 13 10015866470509117492
57634706 229 18188223073340692130
57724786 102 18261946371929443114
5911458 16 18334580152909661684
6034566 193 18200883881389466089
6058803 2 18192966349318747994
6201320 77 12749520791827896293
636775 72 18195522817517526640
6712543 237 14418129587363275697
7288768 16 17894911845208889467
7808743 9 18341323427583953699
7970288 3 9150875183943530505
9982175 49 17750805526478403396

> <PUBCHEM_SHAPE_MULTIPOLES>
559.27
19.39
5.05
1.34
15.38
1.01
-0.12
24.77
-2.35
-2.69
-0.02
-0.19
-0.35
-2.88

> <PUBCHEM_SHAPE_SELFOVERLAP>
1181.129

> <PUBCHEM_SHAPE_VOLUME>
310.1

> <PUBCHEM_COORDINATE_TYPE>
2
5
10

$$$$
