51137714
  -OEChem-12032416343D

 42 44  0     1  0  0  0  0  0999 V2000
    4.4271    0.5031   -1.0306 O   0  0  0  0  0  0  0  0  0  0  0  0
   -0.6065   -2.0600    2.3624 O   0  0  0  0  0  0  0  0  0  0  0  0
   -3.9128   -0.3289   -1.9608 O   0  0  0  0  0  0  0  0  0  0  0  0
   -4.7712    1.7759   -0.3605 O   0  0  0  0  0  0  0  0  0  0  0  0
    0.6371   -1.5110    0.4794 N   0  0  0  0  0  0  0  0  0  0  0  0
    3.0184    1.0197    0.6286 N   0  0  0  0  0  0  0  0  0  0  0  0
    4.1170    1.8532    0.7260 N   0  0  0  0  0  0  0  0  0  0  0  0
    2.3834   -0.8563   -0.9989 C   0  0  1  0  0  0  0  0  0  0  0  0
    2.7159   -2.2229   -0.3802 C   0  0  0  0  0  0  0  0  0  0  0  0
    0.8714   -0.7555   -0.7523 C   0  0  0  0  0  0  0  0  0  0  0  0
    1.8019   -2.3066    0.8349 C   0  0  0  0  0  0  0  0  0  0  0  0
    3.2426    0.2494   -0.4101 C   0  0  0  0  0  0  0  0  0  0  0  0
   -0.4824   -1.4620    1.2954 C   0  0  0  0  0  0  0  0  0  0  0  0
   -1.6048   -0.6169    0.8592 C   0  0  0  0  0  0  0  0  0  0  0  0
    4.9127    1.5161   -0.2618 C   0  0  0  0  0  0  0  0  0  0  0  0
   -2.2381   -0.8714   -0.3573 C   0  0  0  0  0  0  0  0  0  0  0  0
   -2.0354    0.4395    1.6620 C   0  0  0  0  0  0  0  0  0  0  0  0
   -3.3021   -0.0699   -0.7710 C   0  0  0  0  0  0  0  0  0  0  0  0
   -3.0993    1.2411    1.2483 C   0  0  0  0  0  0  0  0  0  0  0  0
    6.2183    2.0699   -0.6421 C   0  0  0  0  0  0  0  0  0  0  0  0
   -3.7327    0.9864    0.0318 C   0  0  0  0  0  0  0  0  0  0  0  0
   -3.4115   -1.4269   -2.7208 C   0  0  0  0  0  0  0  0  0  0  0  0
   -5.1487    2.8341    0.5183 C   0  0  0  0  0  0  0  0  0  0  0  0
    2.5773   -0.8685   -2.0788 H   0  0  0  0  0  0  0  0  0  0  0  0
    2.4456   -3.0153   -1.0899 H   0  0  0  0  0  0  0  0  0  0  0  0
    3.7699   -2.3523   -0.1156 H   0  0  0  0  0  0  0  0  0  0  0  0
    0.3272   -1.2612   -1.5570 H   0  0  0  0  0  0  0  0  0  0  0  0
    0.5130    0.2740   -0.6597 H   0  0  0  0  0  0  0  0  0  0  0  0
    2.2621   -1.8532    1.7198 H   0  0  0  0  0  0  0  0  0  0  0  0
    1.5070   -3.3314    1.0798 H   0  0  0  0  0  0  0  0  0  0  0  0
   -1.8828   -1.7220   -0.9287 H   0  0  0  0  0  0  0  0  0  0  0  0
   -1.5476    0.6485    2.6107 H   0  0  0  0  0  0  0  0  0  0  0  0
   -3.3790    2.0433    1.9224 H   0  0  0  0  0  0  0  0  0  0  0  0
    6.9895    1.2947   -0.6094 H   0  0  0  0  0  0  0  0  0  0  0  0
    6.1818    2.4802   -1.6557 H   0  0  0  0  0  0  0  0  0  0  0  0
    6.5128    2.8728    0.0402 H   0  0  0  0  0  0  0  0  0  0  0  0
   -2.3723   -1.2657   -3.0275 H   0  0  0  0  0  0  0  0  0  0  0  0
   -3.5498   -2.3780   -2.1954 H   0  0  0  0  0  0  0  0  0  0  0  0
   -4.0075   -1.4821   -3.6378 H   0  0  0  0  0  0  0  0  0  0  0  0
   -5.5098    2.4515    1.4791 H   0  0  0  0  0  0  0  0  0  0  0  0
   -4.3432    3.5668    0.6371 H   0  0  0  0  0  0  0  0  0  0  0  0
   -5.9881    3.3582    0.0495 H   0  0  0  0  0  0  0  0  0  0  0  0
  1 12  1  0  0  0  0
  1 15  1  0  0  0  0
  2 13  2  0  0  0  0
  3 18  1  0  0  0  0
  3 22  1  0  0  0  0
  4 21  1  0  0  0  0
  4 23  1  0  0  0  0
  5 10  1  0  0  0  0
  5 11  1  0  0  0  0
  5 13  1  0  0  0  0
  6  7  1  0  0  0  0
  6 12  2  0  0  0  0
  7 15  2  0  0  0  0
  8  9  1  0  0  0  0
  8 10  1  0  0  0  0
  8 12  1  0  0  0  0
  8 24  1  0  0  0  0
  9 11  1  0  0  0  0
  9 25  1  0  0  0  0
  9 26  1  0  0  0  0
 10 27  1  0  0  0  0
 10 28  1  0  0  0  0
 11 29  1  0  0  0  0
 11 30  1  0  0  0  0
 13 14  1  0  0  0  0
 14 16  2  0  0  0  0
 14 17  1  0  0  0  0
 15 20  1  0  0  0  0
 16 18  1  0  0  0  0
 16 31  1  0  0  0  0
 17 19  2  0  0  0  0
 17 32  1  0  0  0  0
 18 21  2  0  0  0  0
 19 21  1  0  0  0  0
 19 33  1  0  0  0  0
 20 34  1  0  0  0  0
 20 35  1  0  0  0  0
 20 36  1  0  0  0  0
 22 37  1  0  0  0  0
 22 38  1  0  0  0  0
 22 39  1  0  0  0  0
 23 40  1  0  0  0  0
 23 41  1  0  0  0  0
 23 42  1  0  0  0  0
M  END
> <PUBCHEM_COMPOUND_CID>
51137714

> <PUBCHEM_CONFORMER_RMSD>
0.8

> <PUBCHEM_CONFORMER_DIVERSEORDER>
1
127
94
82
31
121
100
99
112
29
56
66
61
76
52
9
80
65
79
130
117
34
98
27
22
123
90
26
83
122
25
109
113
37
97
51
101
49
18
5
20
91
126
71
70
39
119
89
44
115
108
62
50
38
93
116
33
55
88
41
58
45
35
73
105
47
107
46
111
60
114
19
128
15
23
36
32
81
30
54
24
57
106
53
110
72
77
96
59
69
48
7
11
129
74
95
118
104
67
124
40
64
63
10
86
16
12
75
78
14
92
85
8
125
6
42
68
17
102
3
120
103
2
28
43
87
21
84
4
13

> <PUBCHEM_MMFF94_PARTIAL_CHARGES>
25
1 -0.28
10 0.3
11 0.3
12 0.3
13 0.54
14 0.09
15 0.3
16 -0.15
17 -0.15
18 0.08
19 -0.15
2 -0.57
20 0.18
21 0.08
22 0.28
23 0.28
3 -0.36
31 0.15
32 0.15
33 0.15
4 -0.36
5 -0.66
6 -0.34
7 -0.34
8 0.18

> <PUBCHEM_EFFECTIVE_ROTOR_COUNT>
6

> <PUBCHEM_PHARMACOPHORE_FEATURES>
6
1 2 acceptor
1 3 acceptor
1 4 acceptor
5 1 6 7 12 15 rings
5 5 8 9 10 11 rings
6 14 16 17 18 19 21 rings

> <PUBCHEM_HEAVY_ATOM_COUNT>
23

> <PUBCHEM_ATOM_DEF_STEREO_COUNT>
1

> <PUBCHEM_ATOM_UDEF_STEREO_COUNT>
0

> <PUBCHEM_BOND_DEF_STEREO_COUNT>
0

> <PUBCHEM_BOND_UDEF_STEREO_COUNT>
0

> <PUBCHEM_ISOTOPIC_ATOM_COUNT>
0

> <PUBCHEM_COMPONENT_COUNT>
1

> <PUBCHEM_CACTVS_TAUTO_COUNT>
1

> <PUBCHEM_CONFORMER_ID>
030C4CB200000001

> <PUBCHEM_MMFF94_ENERGY>
71.1988

> <PUBCHEM_FEATURE_SELFOVERLAP>
30.452

> <PUBCHEM_SHAPE_FINGERPRINT>
10319926 262 13840542892049770489
10498660 4 17489866042159720120
10759866 29 17775282737923033222
10928967 22 10591774177112571284
10968037 57 10087638195903388265
11543360 7 17561363997774879334
12173636 292 18334863779875853979
12403259 415 18115890558192777186
12553582 1 13830134983600830951
12633257 1 16950566631349809036
12892183 10 13045946815097026502
12895836 83 17917428692837773013
12895837 130 18271250511837104485
13103583 49 11170181034699375814
13675066 3 14923936843293436582
14178342 30 17241343498049153354
14251764 30 7997703042652641112
14251764 38 18193840572720728396
14420673 8 12252997639428705936
14848178 96 18408891728530606544
14932701 244 18192147316487574711
15064986 96 14635686645678445896
17780758 139 12107774242421171476
17959699 21 18341895134843803361
17980427 26 18188480268751590750
18186145 218 17822294522448357775
193927 3 10879982563009946125
19752476 56 18338518521686392576
19784866 34 18187928339862832881
20871999 31 15913334580481339563
21033648 29 17749969785633668888
21033650 10 14620243966448437835
21401589 2 17894917347067094809
22079108 93 18114193995319991705
22122407 14 17831032221697006209
22393880 68 17560795563259029572
22950370 63 9007066781471275778
23559900 14 16915938461552101991
25265897 201 17487370138249591349
268830 7 18188202100724916675
2838139 119 18341893039290217800
312425 83 17702396052109233796
3472631 163 18271807848795446301
474 4 18334580152455610476
484985 159 9510920127803536857
5104073 3 17894638019452615899
5486654 36 8646775503466046820
574716 61 18201998811327062951
57724786 102 17967538965301343276
5895379 119 17485089587840008208
633830 44 18262236608301502747
7288768 16 17895203190136224569
7970288 3 10015591584129199556
9981440 41 18336547217829405986

> <PUBCHEM_SHAPE_MULTIPOLES>
434.91
11.78
2.72
1.84
6.82
0.53
-0.25
10.91
-4.08
0.24
0.35
-1.8
-1.04
-1.43

> <PUBCHEM_SHAPE_SELFOVERLAP>
929.682

> <PUBCHEM_SHAPE_VOLUME>
244.2

> <PUBCHEM_COORDINATE_TYPE>
2
5
10

$$$$
