28959922
  -OEChem-12032416273D

 62 65  0     1  0  0  0  0  0999 V2000
   -8.8081   -0.1369    0.9282 F   0  0  0  0  0  0  0  0  0  0  0  0
    3.0016    3.4334    1.6450 O   0  0  0  0  0  0  0  0  0  0  0  0
    5.3291   -4.4753    0.7082 O   0  0  0  0  0  0  0  0  0  0  0  0
    6.5861   -2.5934    0.4643 O   0  0  0  0  0  0  0  0  0  0  0  0
    3.5434    1.7607    0.1187 N   0  0  0  0  0  0  0  0  0  0  0  0
   -0.6436   -0.9709   -0.7509 N   0  0  0  0  0  0  0  0  0  0  0  0
   -3.4404   -0.5860   -0.3168 N   0  0  0  0  0  0  0  0  0  0  0  0
    3.1199   -0.4474   -0.9360 C   0  0  2  0  0  0  0  0  0  0  0  0
    4.3079   -1.0212   -0.1220 C   0  0  1  0  0  0  0  0  0  0  0  0
    1.6448    3.2978   -0.2528 C   0  0  0  0  0  0  0  0  0  0  0  0
    3.3170    1.0638   -1.1530 C   0  0  0  0  0  0  0  0  0  0  0  0
    4.5387   -0.2299    1.1768 C   0  0  0  0  0  0  0  0  0  0  0  0
    1.9012    4.2694   -1.3672 C   0  0  0  0  0  0  0  0  0  0  0  0
    1.1724    4.7173   -0.1344 C   0  0  0  0  0  0  0  0  0  0  0  0
    4.6756    1.2649    0.8994 C   0  0  0  0  0  0  0  0  0  0  0  0
    1.7462   -0.7207   -0.3106 C   0  0  0  0  0  0  0  0  0  0  0  0
    2.7902    2.8396    0.5909 C   0  0  0  0  0  0  0  0  0  0  0  0
    4.1672   -2.5141    0.1745 C   0  0  0  0  0  0  0  0  0  0  0  0
    0.6569   -0.7258   -1.3735 C   0  0  0  0  0  0  0  0  0  0  0  0
   -1.6193   -1.4142   -1.7540 C   0  0  0  0  0  0  0  0  0  0  0  0
   -1.1309    0.2419   -0.0820 C   0  0  0  0  0  0  0  0  0  0  0  0
   -2.9703   -1.7284   -1.1063 C   0  0  0  0  0  0  0  0  0  0  0  0
   -2.4647   -0.0178    0.6219 C   0  0  0  0  0  0  0  0  0  0  0  0
    5.4994   -3.1520    0.4559 C   0  0  0  0  0  0  0  0  0  0  0  0
   -4.7991   -0.4720   -0.0018 C   0  0  0  0  0  0  0  0  0  0  0  0
   -5.5782   -1.6193    0.1488 C   0  0  0  0  0  0  0  0  0  0  0  0
   -5.3743    0.7881    0.1622 C   0  0  0  0  0  0  0  0  0  0  0  0
   -6.9324   -1.5064    0.4631 C   0  0  0  0  0  0  0  0  0  0  0  0
   -6.7285    0.9010    0.4765 C   0  0  0  0  0  0  0  0  0  0  0  0
   -7.5076   -0.2462    0.6269 C   0  0  0  0  0  0  0  0  0  0  0  0
    3.1510   -0.9304   -1.9226 H   0  0  0  0  0  0  0  0  0  0  0  0
    5.2001   -0.8762   -0.7493 H   0  0  0  0  0  0  0  0  0  0  0  0
    0.8646    2.5588   -0.4031 H   0  0  0  0  0  0  0  0  0  0  0  0
    4.2104    1.2352   -1.7667 H   0  0  0  0  0  0  0  0  0  0  0  0
    2.4797    1.4935   -1.7049 H   0  0  0  0  0  0  0  0  0  0  0  0
    5.4386   -0.5780    1.6952 H   0  0  0  0  0  0  0  0  0  0  0  0
    3.6961   -0.3906    1.8615 H   0  0  0  0  0  0  0  0  0  0  0  0
    2.9103    4.6337   -1.5162 H   0  0  0  0  0  0  0  0  0  0  0  0
    1.3282    4.1521   -2.2788 H   0  0  0  0  0  0  0  0  0  0  0  0
    0.1081    4.9024   -0.2187 H   0  0  0  0  0  0  0  0  0  0  0  0
    1.6891    5.4012    0.5274 H   0  0  0  0  0  0  0  0  0  0  0  0
    4.7641    1.8090    1.8451 H   0  0  0  0  0  0  0  0  0  0  0  0
    5.5852    1.4652    0.3207 H   0  0  0  0  0  0  0  0  0  0  0  0
    1.5517    0.0051    0.4839 H   0  0  0  0  0  0  0  0  0  0  0  0
    1.7290   -1.7030    0.1734 H   0  0  0  0  0  0  0  0  0  0  0  0
    3.5189   -2.6870    1.0405 H   0  0  0  0  0  0  0  0  0  0  0  0
    3.7449   -3.0269   -0.6978 H   0  0  0  0  0  0  0  0  0  0  0  0
    0.8872   -1.5373   -2.0767 H   0  0  0  0  0  0  0  0  0  0  0  0
    0.6472    0.2016   -1.9582 H   0  0  0  0  0  0  0  0  0  0  0  0
   -1.2635   -2.3245   -2.2519 H   0  0  0  0  0  0  0  0  0  0  0  0
   -1.7518   -0.6476   -2.5296 H   0  0  0  0  0  0  0  0  0  0  0  0
   -1.2564    1.0594   -0.8051 H   0  0  0  0  0  0  0  0  0  0  0  0
   -0.4314    0.5911    0.6833 H   0  0  0  0  0  0  0  0  0  0  0  0
   -3.6824   -1.9672   -1.9062 H   0  0  0  0  0  0  0  0  0  0  0  0
   -2.8720   -2.6121   -0.4630 H   0  0  0  0  0  0  0  0  0  0  0  0
   -2.3212   -0.7145    1.4580 H   0  0  0  0  0  0  0  0  0  0  0  0
   -2.8146    0.9295    1.0481 H   0  0  0  0  0  0  0  0  0  0  0  0
    6.1808   -4.9241    0.8969 H   0  0  0  0  0  0  0  0  0  0  0  0
   -5.1611   -2.6166    0.0427 H   0  0  0  0  0  0  0  0  0  0  0  0
   -4.7878    1.6943    0.0351 H   0  0  0  0  0  0  0  0  0  0  0  0
   -7.5390   -2.3991    0.5835 H   0  0  0  0  0  0  0  0  0  0  0  0
   -7.1776    1.8820    0.6011 H   0  0  0  0  0  0  0  0  0  0  0  0
  1 30  1  0  0  0  0
  2 17  2  0  0  0  0
  3 24  1  0  0  0  0
  3 58  1  0  0  0  0
  4 24  2  0  0  0  0
  5 11  1  0  0  0  0
  5 15  1  0  0  0  0
  5 17  1  0  0  0  0
  6 19  1  0  0  0  0
  6 20  1  0  0  0  0
  6 21  1  0  0  0  0
  7 22  1  0  0  0  0
  7 23  1  0  0  0  0
  7 25  1  0  0  0  0
  8  9  1  0  0  0  0
  8 11  1  0  0  0  0
  8 16  1  0  0  0  0
  8 31  1  0  0  0  0
  9 12  1  0  0  0  0
  9 18  1  0  0  0  0
  9 32  1  0  0  0  0
 10 13  1  0  0  0  0
 10 14  1  0  0  0  0
 10 17  1  0  0  0  0
 10 33  1  0  0  0  0
 11 34  1  0  0  0  0
 11 35  1  0  0  0  0
 12 15  1  0  0  0  0
 12 36  1  0  0  0  0
 12 37  1  0  0  0  0
 13 14  1  0  0  0  0
 13 38  1  0  0  0  0
 13 39  1  0  0  0  0
 14 40  1  0  0  0  0
 14 41  1  0  0  0  0
 15 42  1  0  0  0  0
 15 43  1  0  0  0  0
 16 19  1  0  0  0  0
 16 44  1  0  0  0  0
 16 45  1  0  0  0  0
 18 24  1  0  0  0  0
 18 46  1  0  0  0  0
 18 47  1  0  0  0  0
 19 48  1  0  0  0  0
 19 49  1  0  0  0  0
 20 22  1  0  0  0  0
 20 50  1  0  0  0  0
 20 51  1  0  0  0  0
 21 23  1  0  0  0  0
 21 52  1  0  0  0  0
 21 53  1  0  0  0  0
 22 54  1  0  0  0  0
 22 55  1  0  0  0  0
 23 56  1  0  0  0  0
 23 57  1  0  0  0  0
 25 26  2  0  0  0  0
 25 27  1  0  0  0  0
 26 28  1  0  0  0  0
 26 59  1  0  0  0  0
 27 29  2  0  0  0  0
 27 60  1  0  0  0  0
 28 30  2  0  0  0  0
 28 61  1  0  0  0  0
 29 30  1  0  0  0  0
 29 62  1  0  0  0  0
M  END
> <PUBCHEM_COMPOUND_CID>
28959922

> <PUBCHEM_CONFORMER_RMSD>
1.2

> <PUBCHEM_CONFORMER_DIVERSEORDER>
1
61
105
69
58
78
131
94
136
127
92
40
129
137
64
48
72
76
144
103
115
49
114
51
110
73
74
125
57
139
126
80
96
65
95
37
53
33
16
36
66
147
141
120
84
130
143
43
102
121
138
28
45
39
79
55
46
116
41
132
106
89
124
117
87
91
108
101
146
4
50
52
60
140
111
112
75
93
23
133
26
27
90
24
104
44
9
88
68
100
22
56
18
71
19
29
25
113
142
47
67
35
123
77
21
7
30
42
8
82
70
5
13
12
32
34
97
86
31
81
83
128
135
59
134
38
10
145
118
119
3
99
85
20
98
107
63
62
14
122
15
109
6
54
2
17
11

> <PUBCHEM_MMFF94_PARTIAL_CHARGES>
36
1 -0.19
10 -0.1
11 0.3
13 -0.2
14 -0.2
15 0.3
17 0.63
18 0.06
19 0.27
2 -0.57
20 0.27
21 0.27
22 0.37
23 0.37
24 0.66
25 0.1
26 -0.15
27 -0.15
28 -0.15
29 -0.15
3 -0.65
30 0.19
33 0.1
38 0.1
39 0.1
4 -0.57
40 0.1
41 0.1
5 -0.66
58 0.5
59 0.15
6 -0.81
60 0.15
61 0.15
62 0.15
7 -0.84

> <PUBCHEM_EFFECTIVE_ROTOR_COUNT>
11

> <PUBCHEM_PHARMACOPHORE_FEATURES>
9
1 2 acceptor
1 3 acceptor
1 4 acceptor
1 6 cation
1 7 cation
3 3 4 24 anion
6 25 26 27 28 29 30 rings
6 5 8 9 11 12 15 rings
6 6 7 20 21 22 23 rings

> <PUBCHEM_HEAVY_ATOM_COUNT>
30

> <PUBCHEM_ATOM_DEF_STEREO_COUNT>
2

> <PUBCHEM_ATOM_UDEF_STEREO_COUNT>
0

> <PUBCHEM_BOND_DEF_STEREO_COUNT>
0

> <PUBCHEM_BOND_UDEF_STEREO_COUNT>
0

> <PUBCHEM_ISOTOPIC_ATOM_COUNT>
0

> <PUBCHEM_COMPONENT_COUNT>
1

> <PUBCHEM_CACTVS_TAUTO_COUNT>
1

> <PUBCHEM_CONFORMER_ID>
01B9E4B200000001

> <PUBCHEM_MMFF94_ENERGY>
75.7191

> <PUBCHEM_FEATURE_SELFOVERLAP>
45.73

> <PUBCHEM_SHAPE_FINGERPRINT>
11456790 92 18338527352671981745
11756154 67 18267307534590729468
12107183 9 18343581820067066719
12166972 35 18343023285033869465
12422481 6 18408603695545303125
12616971 3 17988637510879857167
13150687 139 9006766636730873506
13533116 47 18335139795273982698
13540713 5 17844515815918141535
13673619 4 17676488302642497934
13782708 43 17676205767157108819
13785724 45 18340774736911197958
14114211 80 17395301668746285004
14849402 71 18336831982407894052
15183329 4 17560531693965357945
15348495 7 18188214329230220107
15419008 47 17894623717491290037
15439362 3 17762626483890650396
19301679 30 18050003299505528190
21315764 268 18408322203409503861
21344244 78 18339913849645538848
21792934 111 18342732984674611105
22033318 11 18198362688210406889
23559900 14 18187368769779946683
3004659 81 17988654020501930037
3680242 22 18343308071714928953
397830 11 17897737689730661131
4073 2 18190183579687340059
4144715 1 18335146384370525755
5104073 3 18342749550421793035
59520757 100 17756984515274819836
60111433 81 16772660208068200593
6058803 2 17842544425544318223
68570916 9 18199750409803777679
70251023 43 18262236596001910354
86090 222 17167861954495494722

> <PUBCHEM_SHAPE_MULTIPOLES>
577.56
19.36
4.98
1.24
35.42
3.93
0.22
-11.41
-7.4
-10.8
-0.19
-0.46
0.2
-1.02

> <PUBCHEM_SHAPE_SELFOVERLAP>
1204.783

> <PUBCHEM_SHAPE_VOLUME>
327.3

> <PUBCHEM_COORDINATE_TYPE>
2
5
10

$$$$
