7143040
  -OEChem-12032416343D

 65 68  0     1  0  0  0  0  0999 V2000
   -4.2532   -1.4691    1.7578 O   0  0  0  0  0  0  0  0  0  0  0  0
   -0.2377    2.0734    1.8310 O   0  0  0  0  0  0  0  0  0  0  0  0
    2.3606   -0.4387   -1.3703 O   0  0  0  0  0  0  0  0  0  0  0  0
    6.2240    0.8218    1.7056 O   0  0  0  0  0  0  0  0  0  0  0  0
   -4.4776    0.0684    0.0302 N   0  0  0  0  0  0  0  0  0  0  0  0
   -1.9014    1.9550    0.1944 N   0  0  0  0  0  0  0  0  0  0  0  0
    1.7298    1.2344    0.1060 N   0  0  0  0  0  0  0  0  0  0  0  0
    3.8707    0.4140    0.2112 N   0  0  0  0  0  0  0  0  0  0  0  0
   -4.3601    2.4781    0.6784 C   0  0  1  0  0  0  0  0  0  0  0  0
   -3.6807    1.7883   -1.5819 C   0  0  2  0  0  0  0  0  0  0  0  0
   -4.4227    2.8658   -0.7940 C   0  0  0  0  0  0  0  0  0  0  0  0
   -5.0239    1.1085    0.9041 C   0  0  0  0  0  0  0  0  0  0  0  0
   -4.3859    0.4311   -1.3920 C   0  0  0  0  0  0  0  0  0  0  0  0
   -2.8959    2.4909    1.1332 C   0  0  0  0  0  0  0  0  0  0  0  0
   -2.2342    1.6837   -1.1365 C   0  0  0  0  0  0  0  0  0  0  0  0
   -4.1695   -1.1847    0.5602 C   0  0  0  0  0  0  0  0  0  0  0  0
   -1.2834    1.3051   -2.0072 C   0  0  0  0  0  0  0  0  0  0  0  0
   -0.5817    1.8294    0.6736 C   0  0  0  0  0  0  0  0  0  0  0  0
   -3.7008   -2.2342   -0.4155 C   0  0  0  0  0  0  0  0  0  0  0  0
   -3.4365   -3.5959    0.2521 C   0  0  0  0  0  0  0  0  0  0  0  0
    0.4432    1.3813   -0.3218 C   0  0  0  0  0  0  0  0  0  0  0  0
    0.0811    1.1505   -1.5882 C   0  0  0  0  0  0  0  0  0  0  0  0
   -4.7489   -4.0621    0.9097 C   0  0  0  0  0  0  0  0  0  0  0  0
   -3.0064   -4.6483   -0.7839 C   0  0  0  0  0  0  0  0  0  0  0  0
   -2.3566   -3.4800    1.3415 C   0  0  0  0  0  0  0  0  0  0  0  0
    2.6383    0.3207   -0.4447 C   0  0  0  0  0  0  0  0  0  0  0  0
    5.0470   -0.3302   -0.0398 C   0  0  0  0  0  0  0  0  0  0  0  0
    6.2011   -0.1116    0.7125 C   0  0  0  0  0  0  0  0  0  0  0  0
    5.0453   -1.2906   -1.0514 C   0  0  0  0  0  0  0  0  0  0  0  0
    7.3535   -0.8536    0.4531 C   0  0  0  0  0  0  0  0  0  0  0  0
    6.1978   -2.0324   -1.3107 C   0  0  0  0  0  0  0  0  0  0  0  0
    7.3519   -1.8139   -0.5585 C   0  0  0  0  0  0  0  0  0  0  0  0
    6.6128    2.1446    1.3417 C   0  0  0  0  0  0  0  0  0  0  0  0
   -4.9114    3.2148    1.2759 H   0  0  0  0  0  0  0  0  0  0  0  0
   -3.7220    2.0539   -2.6463 H   0  0  0  0  0  0  0  0  0  0  0  0
   -5.4650    2.9365   -1.1279 H   0  0  0  0  0  0  0  0  0  0  0  0
   -3.9659    3.8504   -0.9546 H   0  0  0  0  0  0  0  0  0  0  0  0
   -6.0955    1.1749    0.6788 H   0  0  0  0  0  0  0  0  0  0  0  0
   -4.9375    0.8156    1.9559 H   0  0  0  0  0  0  0  0  0  0  0  0
   -5.4145    0.4860   -1.7696 H   0  0  0  0  0  0  0  0  0  0  0  0
   -3.8764   -0.3376   -1.9771 H   0  0  0  0  0  0  0  0  0  0  0  0
   -2.5956    3.5314    1.3185 H   0  0  0  0  0  0  0  0  0  0  0  0
   -2.7867    1.9708    2.0932 H   0  0  0  0  0  0  0  0  0  0  0  0
   -1.5180    1.0823   -3.0429 H   0  0  0  0  0  0  0  0  0  0  0  0
   -4.4603   -2.3501   -1.1983 H   0  0  0  0  0  0  0  0  0  0  0  0
   -2.7744   -1.8804   -0.8842 H   0  0  0  0  0  0  0  0  0  0  0  0
    0.7725    0.8820   -2.3777 H   0  0  0  0  0  0  0  0  0  0  0  0
   -5.5963   -3.9652    0.2210 H   0  0  0  0  0  0  0  0  0  0  0  0
   -5.0085   -3.5570    1.8421 H   0  0  0  0  0  0  0  0  0  0  0  0
   -4.6786   -5.1255    1.1727 H   0  0  0  0  0  0  0  0  0  0  0  0
   -3.7709   -4.7729   -1.5589 H   0  0  0  0  0  0  0  0  0  0  0  0
   -2.0756   -4.3492   -1.2788 H   0  0  0  0  0  0  0  0  0  0  0  0
   -2.8386   -5.6265   -0.3199 H   0  0  0  0  0  0  0  0  0  0  0  0
   -2.0348   -4.4785    1.6634 H   0  0  0  0  0  0  0  0  0  0  0  0
   -1.4681   -2.9677    0.9550 H   0  0  0  0  0  0  0  0  0  0  0  0
   -2.6711   -2.9678    2.2528 H   0  0  0  0  0  0  0  0  0  0  0  0
    1.9605    1.6268    1.0148 H   0  0  0  0  0  0  0  0  0  0  0  0
    3.9379    1.0963    0.9621 H   0  0  0  0  0  0  0  0  0  0  0  0
    4.1963   -1.5212   -1.6783 H   0  0  0  0  0  0  0  0  0  0  0  0
    8.2561   -0.6896    1.0355 H   0  0  0  0  0  0  0  0  0  0  0  0
    6.1980   -2.7807   -2.0981 H   0  0  0  0  0  0  0  0  0  0  0  0
    8.2491   -2.3916   -0.7604 H   0  0  0  0  0  0  0  0  0  0  0  0
    7.6490    2.1540    0.9894 H   0  0  0  0  0  0  0  0  0  0  0  0
    5.9508    2.5477    0.5688 H   0  0  0  0  0  0  0  0  0  0  0  0
    6.5399    2.7792    2.2292 H   0  0  0  0  0  0  0  0  0  0  0  0
  1 16  2  0  0  0  0
  2 18  2  0  0  0  0
  3 26  2  0  0  0  0
  4 28  1  0  0  0  0
  4 33  1  0  0  0  0
  5 12  1  0  0  0  0
  5 13  1  0  0  0  0
  5 16  1  0  0  0  0
  6 14  1  0  0  0  0
  6 15  1  0  0  0  0
  6 18  1  0  0  0  0
  7 21  1  0  0  0  0
  7 26  1  0  0  0  0
  7 57  1  0  0  0  0
  8 26  1  0  0  0  0
  8 27  1  0  0  0  0
  8 58  1  0  0  0  0
  9 11  1  0  0  0  0
  9 12  1  0  0  0  0
  9 14  1  0  0  0  0
  9 34  1  0  0  0  0
 10 11  1  0  0  0  0
 10 13  1  0  0  0  0
 10 15  1  0  0  0  0
 10 35  1  0  0  0  0
 11 36  1  0  0  0  0
 11 37  1  0  0  0  0
 12 38  1  0  0  0  0
 12 39  1  0  0  0  0
 13 40  1  0  0  0  0
 13 41  1  0  0  0  0
 14 42  1  0  0  0  0
 14 43  1  0  0  0  0
 15 17  2  0  0  0  0
 16 19  1  0  0  0  0
 17 22  1  0  0  0  0
 17 44  1  0  0  0  0
 18 21  1  0  0  0  0
 19 20  1  0  0  0  0
 19 45  1  0  0  0  0
 19 46  1  0  0  0  0
 20 23  1  0  0  0  0
 20 24  1  0  0  0  0
 20 25  1  0  0  0  0
 21 22  2  0  0  0  0
 22 47  1  0  0  0  0
 23 48  1  0  0  0  0
 23 49  1  0  0  0  0
 23 50  1  0  0  0  0
 24 51  1  0  0  0  0
 24 52  1  0  0  0  0
 24 53  1  0  0  0  0
 25 54  1  0  0  0  0
 25 55  1  0  0  0  0
 25 56  1  0  0  0  0
 27 28  1  0  0  0  0
 27 29  2  0  0  0  0
 28 30  2  0  0  0  0
 29 31  1  0  0  0  0
 29 59  1  0  0  0  0
 30 32  1  0  0  0  0
 30 60  1  0  0  0  0
 31 32  2  0  0  0  0
 31 61  1  0  0  0  0
 32 62  1  0  0  0  0
 33 63  1  0  0  0  0
 33 64  1  0  0  0  0
 33 65  1  0  0  0  0
M  END
> <PUBCHEM_COMPOUND_CID>
7143040

> <PUBCHEM_CONFORMER_RMSD>
1

> <PUBCHEM_CONFORMER_DIVERSEORDER>
1
31
42
15
16
37
32
46
34
41
48
20
26
19
47
22
14
13
39
9
52
50
40
35
27
21
28
36
17
43
45
12
51
33
4
23
5
49
30
10
8
2
38
29
18
25
6
11
3
44
7
24

> <PUBCHEM_MMFF94_PARTIAL_CHARGES>
35
1 -0.57
10 0.14
12 0.3
13 0.3
14 0.3
15 -0.03
16 0.57
17 -0.15
18 0.62
19 0.06
2 -0.57
21 0.12
22 -0.15
26 0.69
27 0.12
28 0.08
29 -0.15
3 -0.57
30 -0.15
31 -0.15
32 -0.15
33 0.28
4 -0.36
44 0.15
47 0.15
5 -0.66
57 0.37
58 0.37
59 0.15
6 -0.47
60 0.15
61 0.15
62 0.15
7 -0.54
8 -0.55

> <PUBCHEM_EFFECTIVE_ROTOR_COUNT>
9

> <PUBCHEM_PHARMACOPHORE_FEATURES>
11
1 1 acceptor
1 2 acceptor
1 3 acceptor
1 4 acceptor
1 7 donor
1 8 donor
4 20 23 24 25 hydrophobe
6 27 28 29 30 31 32 rings
6 5 9 10 11 12 13 rings
6 6 15 17 18 21 22 rings
6 6 9 10 11 14 15 rings

> <PUBCHEM_HEAVY_ATOM_COUNT>
33

> <PUBCHEM_ATOM_DEF_STEREO_COUNT>
2

> <PUBCHEM_ATOM_UDEF_STEREO_COUNT>
0

> <PUBCHEM_BOND_DEF_STEREO_COUNT>
0

> <PUBCHEM_BOND_UDEF_STEREO_COUNT>
0

> <PUBCHEM_ISOTOPIC_ATOM_COUNT>
0

> <PUBCHEM_COMPONENT_COUNT>
1

> <PUBCHEM_CACTVS_TAUTO_COUNT>
3

> <PUBCHEM_CONFORMER_ID>
006CFE8000000001

> <PUBCHEM_MMFF94_ENERGY>
114.5452

> <PUBCHEM_FEATURE_SELFOVERLAP>
57.436

> <PUBCHEM_SHAPE_FINGERPRINT>
10391435 84 18337663205035644120
10864689 126 18192712233514502718
11524674 6 18339361864659364399
13782708 43 18186521003903302848
14251751 18 18335984259111482204
14461889 52 18272639178775909762
14659021 117 18190734430849705611
14844126 61 18410857707150880147
14856354 85 18412549790446272324
15021287 119 16732990820906582246
15183329 4 13262685807619746684
15348495 7 18343299267369855016
15352257 5 18335986346961992950
15510800 12 18337950203214353047
17627616 140 18115582630618778251
19611394 137 18201155546845352616
19958102 18 18262233318367201094
20775530 9 18117553157814645835
23428019 142 17386006216744989474
23466295 7 18261682588080819187
23516275 137 17683264476887837970
23559900 14 18341606010530715416
249057 3 18113899325919775309
3383291 50 18411141351302632259
397830 11 18411977001461246944
4017518 198 18337106749321298863
4073 2 18341611495699025234
4144715 1 18413672405136123936
437795 96 18272097075740448326
4435113 14 18342744056947767618
484985 159 18260823822292088615
5080951 261 18041261227842451732
5364581 5 18269832167802190960
68570916 9 18259988202245224156
70634741 139 18336272331516831116

> <PUBCHEM_SHAPE_MULTIPOLES>
635.72
18.56
4.8
1.69
39.28
5.77
0.09
5.69
-2.81
-8.47
-0.66
-0.2
-0.41
2.82

> <PUBCHEM_SHAPE_SELFOVERLAP>
1361.555

> <PUBCHEM_SHAPE_VOLUME>
344.7

> <PUBCHEM_COORDINATE_TYPE>
2
5
10

$$$$
