56774407
  -OEChem-12032416143D

 45 48  0     1  0  0  0  0  0999 V2000
   -1.7849   -0.9230   -0.2312 N   0  0  1  0  0  0  0  0  0  0  0  0
   -5.6953    0.7421   -0.2114 N   0  0  0  0  0  0  0  0  0  0  0  0
    2.8997   -0.6672   -1.2053 N   0  0  0  0  0  0  0  0  0  0  0  0
    2.2031    0.0585    0.7766 N   0  0  0  0  0  0  0  0  0  0  0  0
   -2.9107   -0.0778    0.1599 C   0  0  0  0  0  0  0  0  0  0  0  0
    0.5111   -1.1823   -0.6323 C   0  0  2  0  0  0  0  0  0  0  0  0
   -0.6168   -0.1418   -0.6438 C   0  0  0  0  0  0  0  0  0  0  0  0
   -1.3086   -1.7609    0.8692 C   0  0  0  0  0  0  0  0  0  0  0  0
    0.0365   -2.2603    0.3576 C   0  0  0  0  0  0  0  0  0  0  0  0
   -4.0857   -0.9421    0.6247 C   0  0  0  0  0  0  0  0  0  0  0  0
   -3.3502    0.8211   -0.9995 C   0  0  0  0  0  0  0  0  0  0  0  0
   -5.3090   -0.0790    0.9445 C   0  0  0  0  0  0  0  0  0  0  0  0
   -4.5976    1.6265   -0.6268 C   0  0  0  0  0  0  0  0  0  0  0  0
    1.8625   -0.5830   -0.3187 C   0  0  0  0  0  0  0  0  0  0  0  0
   -6.8941    1.5226    0.0930 C   0  0  0  0  0  0  0  0  0  0  0  0
    3.9818   -0.0383   -0.6449 C   0  0  0  0  0  0  0  0  0  0  0  0
    3.5216    0.4059    0.5917 C   0  0  0  0  0  0  0  0  0  0  0  0
    5.2837    0.1736   -1.0995 C   0  0  0  0  0  0  0  0  0  0  0  0
    4.3989    1.1049    1.4380 C   0  0  0  0  0  0  0  0  0  0  0  0
    6.1433    0.8711   -0.2443 C   0  0  0  0  0  0  0  0  0  0  0  0
    5.7108    1.3294    1.0022 C   0  0  0  0  0  0  0  0  0  0  0  0
   -2.6150    0.5711    0.9976 H   0  0  0  0  0  0  0  0  0  0  0  0
    0.5603   -1.6505   -1.6263 H   0  0  0  0  0  0  0  0  0  0  0  0
   -0.4091    0.6790    0.0555 H   0  0  0  0  0  0  0  0  0  0  0  0
   -0.7266    0.2781   -1.6494 H   0  0  0  0  0  0  0  0  0  0  0  0
   -1.1639   -1.1846    1.7920 H   0  0  0  0  0  0  0  0  0  0  0  0
   -1.9657   -2.6104    1.0792 H   0  0  0  0  0  0  0  0  0  0  0  0
    0.7369   -2.4326    1.1817 H   0  0  0  0  0  0  0  0  0  0  0  0
   -0.0913   -3.2115   -0.1744 H   0  0  0  0  0  0  0  0  0  0  0  0
   -3.8357   -1.5055    1.5308 H   0  0  0  0  0  0  0  0  0  0  0  0
   -4.3511   -1.6752   -0.1492 H   0  0  0  0  0  0  0  0  0  0  0  0
   -3.5617    0.2165   -1.8919 H   0  0  0  0  0  0  0  0  0  0  0  0
   -2.5631    1.5334   -1.2722 H   0  0  0  0  0  0  0  0  0  0  0  0
   -6.1356   -0.7467    1.2168 H   0  0  0  0  0  0  0  0  0  0  0  0
   -5.0976    0.5509    1.8188 H   0  0  0  0  0  0  0  0  0  0  0  0
   -4.3502    2.3429    0.1678 H   0  0  0  0  0  0  0  0  0  0  0  0
   -4.9031    2.2079   -1.5054 H   0  0  0  0  0  0  0  0  0  0  0  0
   -7.7279    0.8614    0.3539 H   0  0  0  0  0  0  0  0  0  0  0  0
   -6.7346    2.2206    0.9228 H   0  0  0  0  0  0  0  0  0  0  0  0
   -7.2127    2.0967   -0.7842 H   0  0  0  0  0  0  0  0  0  0  0  0
    2.8772   -1.1127   -2.1131 H   0  0  0  0  0  0  0  0  0  0  0  0
    5.6171   -0.1831   -2.0674 H   0  0  0  0  0  0  0  0  0  0  0  0
    4.0724    1.4651    2.4084 H   0  0  0  0  0  0  0  0  0  0  0  0
    7.1675    1.0596   -0.5568 H   0  0  0  0  0  0  0  0  0  0  0  0
    6.4022    1.8685    1.6448 H   0  0  0  0  0  0  0  0  0  0  0  0
  1  5  1  0  0  0  0
  1  7  1  0  0  0  0
  1  8  1  0  0  0  0
  2 12  1  0  0  0  0
  2 13  1  0  0  0  0
  2 15  1  0  0  0  0
  3 14  1  0  0  0  0
  3 16  1  0  0  0  0
  3 41  1  0  0  0  0
  4 14  2  0  0  0  0
  4 17  1  0  0  0  0
  5 10  1  0  0  0  0
  5 11  1  0  0  0  0
  5 22  1  0  0  0  0
  6  7  1  0  0  0  0
  6  9  1  0  0  0  0
  6 14  1  0  0  0  0
  6 23  1  0  0  0  0
  7 24  1  0  0  0  0
  7 25  1  0  0  0  0
  8  9  1  0  0  0  0
  8 26  1  0  0  0  0
  8 27  1  0  0  0  0
  9 28  1  0  0  0  0
  9 29  1  0  0  0  0
 10 12  1  0  0  0  0
 10 30  1  0  0  0  0
 10 31  1  0  0  0  0
 11 13  1  0  0  0  0
 11 32  1  0  0  0  0
 11 33  1  0  0  0  0
 12 34  1  0  0  0  0
 12 35  1  0  0  0  0
 13 36  1  0  0  0  0
 13 37  1  0  0  0  0
 15 38  1  0  0  0  0
 15 39  1  0  0  0  0
 15 40  1  0  0  0  0
 16 17  1  0  0  0  0
 16 18  2  0  0  0  0
 17 19  2  0  0  0  0
 18 20  1  0  0  0  0
 18 42  1  0  0  0  0
 19 21  1  0  0  0  0
 19 43  1  0  0  0  0
 20 21  2  0  0  0  0
 20 44  1  0  0  0  0
 21 45  1  0  0  0  0
M  END
> <PUBCHEM_COMPOUND_CID>
56774407

> <PUBCHEM_CONFORMER_RMSD>
0.6

> <PUBCHEM_CONFORMER_DIVERSEORDER>
1
8
12
25
14
31
7
16
5
28
9
18
22
6
19
30
11
23
32
17
4
15
20
29
27
24
2
21
26
10
3
13

> <PUBCHEM_MMFF94_PARTIAL_CHARGES>
23
1 -0.81
12 0.27
13 0.27
14 0.01
15 0.27
16 -0.15
17 0.23
18 -0.15
19 -0.15
2 -0.81
20 -0.15
21 -0.15
3 0.03
4 -0.57
41 0.27
42 0.15
43 0.15
44 0.15
45 0.15
5 0.27
6 0.18
7 0.27
8 0.27

> <PUBCHEM_EFFECTIVE_ROTOR_COUNT>
4.2

> <PUBCHEM_PHARMACOPHORE_FEATURES>
8
1 1 cation
1 2 cation
1 3 donor
3 3 4 14 cation
5 1 6 7 8 9 rings
5 3 4 14 16 17 rings
6 16 17 18 19 20 21 rings
6 2 5 10 11 12 13 rings

> <PUBCHEM_HEAVY_ATOM_COUNT>
21

> <PUBCHEM_ATOM_DEF_STEREO_COUNT>
1

> <PUBCHEM_ATOM_UDEF_STEREO_COUNT>
0

> <PUBCHEM_BOND_DEF_STEREO_COUNT>
0

> <PUBCHEM_BOND_UDEF_STEREO_COUNT>
0

> <PUBCHEM_ISOTOPIC_ATOM_COUNT>
0

> <PUBCHEM_COMPONENT_COUNT>
1

> <PUBCHEM_CACTVS_TAUTO_COUNT>
1

> <PUBCHEM_CONFORMER_ID>
03624F0700000001

> <PUBCHEM_MMFF94_ENERGY>
30.5084

> <PUBCHEM_FEATURE_SELFOVERLAP>
40.705

> <PUBCHEM_SHAPE_FINGERPRINT>
10 15 17530690913589772653
10354089 29 16805325496386032292
106641 1 16877951567815798353
10692045 39 18188759540763370930
11128504 68 15339115753682303387
11646440 116 18341903999677654921
12107183 9 15940315350160262000
12236239 1 16805325521929060550
12403259 415 18343026613596639210
12596602 18 16298106501162714993
12633257 1 15647058174307371699
12730499 353 18130795550878150102
12969540 114 17988635298575787791
13288520 33 10519987058966402683
13402501 40 18342173375451982632
13533116 47 18338233752723545186
13668630 136 8214139660191020449
13685833 64 10665231445151675165
13862211 1 10303813172534457509
14123256 34 9511458952746516265
14251764 18 16588029034916186795
14341114 176 14562529578993812246
14341114 328 16732986418354230041
14528608 73 16558745728231658588
15003188 100 17774714367773462448
15183329 4 15698284403950164180
15238133 3 18040157340239275580
17870717 6 11167943567756091761
17980427 23 17676493882226898431
1813 80 12613033838498355546
18222031 100 9799689316076629614
200 152 14979963583647549358
20281389 69 18334573529563415896
20374829 77 10663820771564381511
20567600 254 18335413556826585207
20645477 56 18411981381657845903
20645477 70 17203059525788609470
20871999 31 13039191411630190907
21033648 29 18271235127500964624
21150785 3 16917343741303497533
21267235 1 13912593945680675288
21637258 2 11025796517893488653
220451 1 15213024868585002626
221357 26 17060621075190359696
22224240 67 18186802483296066035
23198884 109 16343704331299289057
23402655 69 16988843895387874678
23559900 14 18262249815336780238
249999 5 18188487947900097418
2767999 5 18410853261342477973
2838139 119 18131624573818051496
2916195 48 18341890822390377697
293599 30 18410855464428540294
29717793 49 14476972190138889140
314173 85 8862946090983605887
3545911 37 18343306971902802590
4325135 7 18059571434573638143
4340502 62 16225767406615188656
465052 167 11530482220851590248
495365 180 17989199344421641574
5104073 3 17896606090243857433
5385378 56 18261956232636057531
542803 24 17530964704853887118
5718773 13 8141500403428362385
59682541 35 18261122885570911169
59682541 52 17060349483260113660
5969126 39 18125998506918107471
59755656 520 18335696152400026270

> <PUBCHEM_SHAPE_MULTIPOLES>
412.25
16.67
1.69
1.16
4.29
0.39
0.08
-10.35
1.33
1.07
0.21
-0.85
-0.11
1.32

> <PUBCHEM_SHAPE_SELFOVERLAP>
886.736

> <PUBCHEM_SHAPE_VOLUME>
225.6

> <PUBCHEM_COORDINATE_TYPE>
2
5
10

$$$$
