11912971
  -OEChem-12032416363D

 52 56  0     1  0  0  0  0  0999 V2000
   -6.9643   -2.3837   -1.8302 F   0  0  0  0  0  0  0  0  0  0  0  0
   -7.5470   -2.4688    0.2572 F   0  0  0  0  0  0  0  0  0  0  0  0
   -5.8272   -3.6051   -0.4359 F   0  0  0  0  0  0  0  0  0  0  0  0
    1.0918    1.7249    1.6283 O   0  0  0  0  0  0  0  0  0  0  0  0
    1.2743    3.9426   -0.5308 O   0  0  0  0  0  0  0  0  0  0  0  0
   -3.4590    3.0287    1.1197 O   0  0  0  0  0  0  0  0  0  0  0  0
    4.2647   -1.7645    1.7705 O   0  0  0  0  0  0  0  0  0  0  0  0
   -1.6591    1.8578    0.2434 N   0  0  0  0  0  0  0  0  0  0  0  0
    3.3063    1.7219   -1.2778 N   0  0  0  0  0  0  0  0  0  0  0  0
    4.0428   -0.3026   -0.3473 N   0  0  0  0  0  0  0  0  0  0  0  0
    4.3350    0.1597   -2.6942 N   0  0  0  0  0  0  0  0  0  0  0  0
    0.5208    2.7197   -0.4522 C   0  0  1  0  0  0  0  0  0  0  0  0
    1.4058    1.6913    0.2246 C   0  0  1  0  0  0  0  0  0  0  0  0
   -0.6485    2.8833    0.4939 C   0  0  2  0  0  0  0  0  0  0  0  0
    2.8078    2.2029   -0.0079 C   0  0  2  0  0  0  0  0  0  0  0  0
    0.0064    2.6393    1.8449 C   0  0  0  0  0  0  0  0  0  0  0  0
    2.6087    3.7071   -0.0563 C   0  0  0  0  0  0  0  0  0  0  0  0
   -2.9938    2.0260    0.5842 C   0  0  0  0  0  0  0  0  0  0  0  0
    3.9129    0.4895   -1.4446 C   0  0  0  0  0  0  0  0  0  0  0  0
   -3.8907    0.8795    0.2874 C   0  0  0  0  0  0  0  0  0  0  0  0
   -5.0270    0.7076    1.0502 C   0  0  0  0  0  0  0  0  0  0  0  0
   -3.5586    0.0233   -0.7422 C   0  0  0  0  0  0  0  0  0  0  0  0
    4.6381   -1.4968   -0.5465 C   0  0  0  0  0  0  0  0  0  0  0  0
    4.9213   -1.0488   -2.8214 C   0  0  0  0  0  0  0  0  0  0  0  0
    5.1014   -1.9275   -1.7729 C   0  0  0  0  0  0  0  0  0  0  0  0
   -5.8691   -0.3688    0.7711 C   0  0  0  0  0  0  0  0  0  0  0  0
   -4.4008   -1.0530   -1.0213 C   0  0  0  0  0  0  0  0  0  0  0  0
   -5.5561   -1.2491   -0.2646 C   0  0  0  0  0  0  0  0  0  0  0  0
    4.7619   -2.3122    0.6324 C   0  0  0  0  0  0  0  0  0  0  0  0
   -6.4563   -2.4005   -0.5624 C   0  0  0  0  0  0  0  0  0  0  0  0
    5.2856   -3.5575    0.8793 C   0  0  0  0  0  0  0  0  0  0  0  0
    5.0985   -3.7931    2.2623 C   0  0  0  0  0  0  0  0  0  0  0  0
    4.4735   -2.6732    2.7593 C   0  0  0  0  0  0  0  0  0  0  0  0
    0.2385    2.4396   -1.4722 H   0  0  0  0  0  0  0  0  0  0  0  0
    1.2215    0.6711   -0.1268 H   0  0  0  0  0  0  0  0  0  0  0  0
   -1.1176    3.8715    0.4540 H   0  0  0  0  0  0  0  0  0  0  0  0
    3.5064    1.9594    0.8008 H   0  0  0  0  0  0  0  0  0  0  0  0
   -0.6701    2.2247    2.5986 H   0  0  0  0  0  0  0  0  0  0  0  0
    0.4368    3.5653    2.2419 H   0  0  0  0  0  0  0  0  0  0  0  0
    2.6751    4.1420    0.9471 H   0  0  0  0  0  0  0  0  0  0  0  0
    3.3201    4.2296   -0.7033 H   0  0  0  0  0  0  0  0  0  0  0  0
   -1.3259    0.9602   -0.0925 H   0  0  0  0  0  0  0  0  0  0  0  0
    3.1676    2.2814   -2.1117 H   0  0  0  0  0  0  0  0  0  0  0  0
   -5.2822    1.3808    1.8632 H   0  0  0  0  0  0  0  0  0  0  0  0
   -2.6883    0.1606   -1.3755 H   0  0  0  0  0  0  0  0  0  0  0  0
    5.2533   -1.2995   -3.8232 H   0  0  0  0  0  0  0  0  0  0  0  0
    5.5788   -2.8864   -1.9302 H   0  0  0  0  0  0  0  0  0  0  0  0
   -6.7637   -0.5058    1.3725 H   0  0  0  0  0  0  0  0  0  0  0  0
   -4.1529   -1.7297   -1.8350 H   0  0  0  0  0  0  0  0  0  0  0  0
    5.7474   -4.2239    0.1645 H   0  0  0  0  0  0  0  0  0  0  0  0
    5.3835   -4.6694    2.8262 H   0  0  0  0  0  0  0  0  0  0  0  0
    4.1288   -2.3828    3.7409 H   0  0  0  0  0  0  0  0  0  0  0  0
  1 30  1  0  0  0  0
  2 30  1  0  0  0  0
  3 30  1  0  0  0  0
  4 13  1  0  0  0  0
  4 16  1  0  0  0  0
  5 12  1  0  0  0  0
  5 17  1  0  0  0  0
  6 18  2  0  0  0  0
  7 29  1  0  0  0  0
  7 33  1  0  0  0  0
  8 14  1  0  0  0  0
  8 18  1  0  0  0  0
  8 42  1  0  0  0  0
  9 15  1  0  0  0  0
  9 19  1  0  0  0  0
  9 43  1  0  0  0  0
 10 19  1  0  0  0  0
 10 23  2  0  0  0  0
 11 19  2  0  0  0  0
 11 24  1  0  0  0  0
 12 13  1  0  0  0  0
 12 14  1  0  0  0  0
 12 34  1  0  0  0  0
 13 15  1  0  0  0  0
 13 35  1  0  0  0  0
 14 16  1  0  0  0  0
 14 36  1  0  0  0  0
 15 17  1  0  0  0  0
 15 37  1  0  0  0  0
 16 38  1  0  0  0  0
 16 39  1  0  0  0  0
 17 40  1  0  0  0  0
 17 41  1  0  0  0  0
 18 20  1  0  0  0  0
 20 21  2  0  0  0  0
 20 22  1  0  0  0  0
 21 26  1  0  0  0  0
 21 44  1  0  0  0  0
 22 27  2  0  0  0  0
 22 45  1  0  0  0  0
 23 25  1  0  0  0  0
 23 29  1  0  0  0  0
 24 25  2  0  0  0  0
 24 46  1  0  0  0  0
 25 47  1  0  0  0  0
 26 28  2  0  0  0  0
 26 48  1  0  0  0  0
 27 28  1  0  0  0  0
 27 49  1  0  0  0  0
 28 30  1  0  0  0  0
 29 31  2  0  0  0  0
 31 32  1  0  0  0  0
 31 50  1  0  0  0  0
 32 33  2  0  0  0  0
 32 51  1  0  0  0  0
 33 52  1  0  0  0  0
M  END
> <PUBCHEM_COMPOUND_CID>
11912971

> <PUBCHEM_CONFORMER_RMSD>
1

> <PUBCHEM_CONFORMER_DIVERSEORDER>
1
124
162
161
127
79
139
92
60
9
22
159
169
115
86
62
69
98
160
126
50
14
99
136
112
49
102
168
15
76
138
111
170
132
11
61
131
108
13
57
77
123
44
53
154
150
167
36
27
128
26
100
67
142
151
94
78
45
90
42
106
96
19
110
97
43
116
155
54
122
87
158
125
55
156
72
134
37
83
93
95
140
46
38
82
40
153
104
85
48
66
101
2
143
166
21
109
164
103
73
141
6
35
119
135
91
32
107
113
121
88
117
47
39
157
71
24
75
144
58
137
84
148
5
70
80
74
130
149
89
23
56
7
147
16
165
28
63
33
163
59
81
3
118
129
29
133
18
145
105
146
25
31
68
64
17
52
41
20
120
12
30
34
114
51
8
152
4
65
10

> <PUBCHEM_MMFF94_PARTIAL_CHARGES>
44
1 -0.34
10 -0.62
11 -0.62
12 0.28
13 0.28
14 0.3
15 0.37
16 0.28
17 0.28
18 0.54
19 0.72
2 -0.34
20 0.09
21 -0.15
22 -0.15
23 0.36
24 0.16
25 -0.15
26 -0.15
27 -0.15
28 -0.14
29 0.09
3 -0.34
30 1.16
31 -0.15
32 -0.15
33 -0.01
4 -0.56
42 0.37
43 0.4
44 0.15
45 0.15
46 0.15
47 0.15
48 0.15
49 0.15
5 -0.56
50 0.15
51 0.15
52 0.15
6 -0.57
7 -0.28
8 -0.73
9 -0.87

> <PUBCHEM_EFFECTIVE_ROTOR_COUNT>
8.2

> <PUBCHEM_PHARMACOPHORE_FEATURES>
13
1 10 acceptor
1 4 acceptor
1 5 acceptor
1 6 acceptor
1 7 acceptor
1 8 donor
1 9 donor
4 9 10 11 19 cation
5 4 12 13 14 16 rings
5 5 12 13 15 17 rings
5 7 29 31 32 33 rings
6 10 11 19 23 24 25 rings
6 20 21 22 26 27 28 rings

> <PUBCHEM_HEAVY_ATOM_COUNT>
33

> <PUBCHEM_ATOM_DEF_STEREO_COUNT>
4

> <PUBCHEM_ATOM_UDEF_STEREO_COUNT>
0

> <PUBCHEM_BOND_DEF_STEREO_COUNT>
0

> <PUBCHEM_BOND_UDEF_STEREO_COUNT>
0

> <PUBCHEM_ISOTOPIC_ATOM_COUNT>
0

> <PUBCHEM_COMPONENT_COUNT>
1

> <PUBCHEM_CACTVS_TAUTO_COUNT>
6

> <PUBCHEM_CONFORMER_ID>
00B5C70B00000001

> <PUBCHEM_MMFF94_ENERGY>
77.5913

> <PUBCHEM_FEATURE_SELFOVERLAP>
66.695

> <PUBCHEM_SHAPE_FINGERPRINT>
10074138 170 17056971654153406785
10258705 36 17624979332148340238
10462674 125 13250804643393401293
10556698 54 14346059898349302087
10622 236 18334856061122894712
10928967 22 18335710386084486866
11227150 75 17315051296111217098
11607047 403 18267006419288166576
117089 54 18129399209939686447
11796584 16 18199193888620008196
11963148 33 17981317112918218823
11973864 118 18118101783757353722
12047536 79 15698002929295091145
12107183 9 18199766773392091329
12342043 65 16700909163679235934
12422481 6 17417807280012007572
13553644 42 18409444792240076575
13782708 43 18260823826586770095
14026016 60 18055051402692141959
14040221 126 17186425284829409635
14347332 77 18410575081038485849
15001296 14 18338796844315545191
15003188 105 18408324393731645652
15163728 17 9078816529265211752
16989378 47 18408041831664212603
17138139 8 18263095357411485146
19315092 285 17895756197636130902
19841028 212 18199184169984723799
20691028 202 8213877972371151239
20775438 99 18114180895316681762
20843269 155 18338513032844964226
208703 8 18341616992698521782
21585481 104 16950277365861346319
21585483 132 18269827765856462167
21599406 157 16732993054422055139
21792938 131 18410004456400786315
21792965 302 18189913070648035412
24983565 74 17841992480099715975
25222932 49 18410293610572741396
2748736 6 9007054635019316011
2838139 119 11819283311846657332
397830 11 11743561050813183853
45266715 3 18115305712865372096
463206 1 18116160965486983832
50009960 94 18266436798496205290
5104073 3 17632587075921191657
59025328 239 16951415313272799364
6058803 2 18339380590248569281
6201460 15 17973152942160092107
636783 263 18193817449113341879
7970288 3 18194119621098614226

> <PUBCHEM_SHAPE_MULTIPOLES>
613.9
18.7
5.52
2.25
20.97
0.19
0.23
-24.46
2.81
-1.43
-1.73
-4.14
-1.38
-4.93

> <PUBCHEM_SHAPE_SELFOVERLAP>
1358.441

> <PUBCHEM_SHAPE_VOLUME>
329.9

> <PUBCHEM_COORDINATE_TYPE>
2
5
10

$$$$
