11941400
  -OEChem-12032416333D

 53 56  0     1  0  0  0  0  0999 V2000
   -6.6147    3.5447    0.6445 S   0  0  0  0  0  0  0  0  0  0  0  0
   -3.1184   -3.2498    0.4589 O   0  0  0  0  0  0  0  0  0  0  0  0
   -0.2205   -0.0450   -2.5561 O   0  0  0  0  0  0  0  0  0  0  0  0
   -6.3436    0.5179    1.3040 O   0  0  0  0  0  0  0  0  0  0  0  0
    7.5552    2.1758    0.0474 O   0  0  0  0  0  0  0  0  0  0  0  0
   -1.9376   -0.6210   -1.1388 N   0  0  0  0  0  0  0  0  0  0  0  0
   -4.1464    0.7765    0.5919 N   0  0  0  0  0  0  0  0  0  0  0  0
   -0.8823   -2.8196    0.5070 N   0  0  0  0  0  0  0  0  0  0  0  0
   -3.9373   -0.5743    0.1231 C   0  0  2  0  0  0  0  0  0  0  0  0
   -2.4502   -0.9502    0.1783 C   0  0  1  0  0  0  0  0  0  0  0  0
   -4.2830   -0.7044   -1.3617 C   0  0  0  0  0  0  0  0  0  0  0  0
   -3.0064   -0.2621   -2.0597 C   0  0  0  0  0  0  0  0  0  0  0  0
   -2.1985   -2.4364    0.3543 C   0  0  0  0  0  0  0  0  0  0  0  0
   -0.6074   -0.4839   -1.4731 C   0  0  0  0  0  0  0  0  0  0  0  0
    0.4117   -0.9126   -0.4799 C   0  0  0  0  0  0  0  0  0  0  0  0
    0.2846   -2.0409    0.3480 C   0  0  0  0  0  0  0  0  0  0  0  0
   -5.3395    1.2104    1.1461 C   0  0  0  0  0  0  0  0  0  0  0  0
    1.6347   -0.2184   -0.5198 C   0  0  0  0  0  0  0  0  0  0  0  0
    1.4092   -2.4848    1.0658 C   0  0  0  0  0  0  0  0  0  0  0  0
    2.7250   -0.6463    0.2362 C   0  0  0  0  0  0  0  0  0  0  0  0
   -5.3103    2.6684    1.5402 C   0  0  0  0  0  0  0  0  0  0  0  0
    2.6162   -1.7878    1.0198 C   0  0  0  0  0  0  0  0  0  0  0  0
    3.9737    0.0827    0.1864 C   0  0  0  0  0  0  0  0  0  0  0  0
    5.1827   -0.5920    0.3561 C   0  0  0  0  0  0  0  0  0  0  0  0
    3.9683    1.4606   -0.0304 C   0  0  0  0  0  0  0  0  0  0  0  0
    6.3863    0.1114    0.3090 C   0  0  0  0  0  0  0  0  0  0  0  0
    5.1720    2.1639   -0.0775 C   0  0  0  0  0  0  0  0  0  0  0  0
   -6.0589    3.2036   -1.0422 C   0  0  0  0  0  0  0  0  0  0  0  0
    6.3810    1.4893    0.0922 C   0  0  0  0  0  0  0  0  0  0  0  0
    8.7544    1.4242    0.2299 C   0  0  0  0  0  0  0  0  0  0  0  0
   -4.5667   -1.2370    0.7265 H   0  0  0  0  0  0  0  0  0  0  0  0
   -1.9112   -0.3986    0.9578 H   0  0  0  0  0  0  0  0  0  0  0  0
   -5.1513   -0.1170   -1.6736 H   0  0  0  0  0  0  0  0  0  0  0  0
   -4.4815   -1.7562   -1.6016 H   0  0  0  0  0  0  0  0  0  0  0  0
   -2.8559   -0.7450   -3.0298 H   0  0  0  0  0  0  0  0  0  0  0  0
   -2.9791    0.8243   -2.2004 H   0  0  0  0  0  0  0  0  0  0  0  0
   -3.3966    1.4468    0.4476 H   0  0  0  0  0  0  0  0  0  0  0  0
   -0.7412   -3.7639    0.8581 H   0  0  0  0  0  0  0  0  0  0  0  0
    1.7257    0.6356   -1.1880 H   0  0  0  0  0  0  0  0  0  0  0  0
    1.3443   -3.3673    1.6999 H   0  0  0  0  0  0  0  0  0  0  0  0
   -4.3433    3.1376    1.3379 H   0  0  0  0  0  0  0  0  0  0  0  0
   -5.4977    2.7372    2.6162 H   0  0  0  0  0  0  0  0  0  0  0  0
    3.4299   -2.1559    1.6384 H   0  0  0  0  0  0  0  0  0  0  0  0
    5.2367   -1.6681    0.4969 H   0  0  0  0  0  0  0  0  0  0  0  0
    3.0503    2.0322   -0.1367 H   0  0  0  0  0  0  0  0  0  0  0  0
    7.2891   -0.4750    0.4419 H   0  0  0  0  0  0  0  0  0  0  0  0
    5.1619    3.2383   -0.2397 H   0  0  0  0  0  0  0  0  0  0  0  0
   -6.6401    3.8175   -1.7360 H   0  0  0  0  0  0  0  0  0  0  0  0
   -6.2224    2.1556   -1.3037 H   0  0  0  0  0  0  0  0  0  0  0  0
   -5.0027    3.4585   -1.1628 H   0  0  0  0  0  0  0  0  0  0  0  0
    9.5901    2.1287    0.1659 H   0  0  0  0  0  0  0  0  0  0  0  0
    8.8940    0.6891   -0.5699 H   0  0  0  0  0  0  0  0  0  0  0  0
    8.7961    0.9683    1.2249 H   0  0  0  0  0  0  0  0  0  0  0  0
  1 21  1  0  0  0  0
  1 28  1  0  0  0  0
  2 13  2  0  0  0  0
  3 14  2  0  0  0  0
  4 17  2  0  0  0  0
  5 29  1  0  0  0  0
  5 30  1  0  0  0  0
  6 10  1  0  0  0  0
  6 12  1  0  0  0  0
  6 14  1  0  0  0  0
  7  9  1  0  0  0  0
  7 17  1  0  0  0  0
  7 37  1  0  0  0  0
  8 13  1  0  0  0  0
  8 16  1  0  0  0  0
  8 38  1  0  0  0  0
  9 10  1  0  0  0  0
  9 11  1  0  0  0  0
  9 31  1  0  0  0  0
 10 13  1  0  0  0  0
 10 32  1  0  0  0  0
 11 12  1  0  0  0  0
 11 33  1  0  0  0  0
 11 34  1  0  0  0  0
 12 35  1  0  0  0  0
 12 36  1  0  0  0  0
 14 15  1  0  0  0  0
 15 16  2  0  0  0  0
 15 18  1  0  0  0  0
 16 19  1  0  0  0  0
 17 21  1  0  0  0  0
 18 20  2  0  0  0  0
 18 39  1  0  0  0  0
 19 22  2  0  0  0  0
 19 40  1  0  0  0  0
 20 22  1  0  0  0  0
 20 23  1  0  0  0  0
 21 41  1  0  0  0  0
 21 42  1  0  0  0  0
 22 43  1  0  0  0  0
 23 24  2  0  0  0  0
 23 25  1  0  0  0  0
 24 26  1  0  0  0  0
 24 44  1  0  0  0  0
 25 27  2  0  0  0  0
 25 45  1  0  0  0  0
 26 29  2  0  0  0  0
 26 46  1  0  0  0  0
 27 29  1  0  0  0  0
 27 47  1  0  0  0  0
 28 48  1  0  0  0  0
 28 49  1  0  0  0  0
 28 50  1  0  0  0  0
 30 51  1  0  0  0  0
 30 52  1  0  0  0  0
 30 53  1  0  0  0  0
M  END
> <PUBCHEM_COMPOUND_CID>
11941400

> <PUBCHEM_CONFORMER_RMSD>
0.8

> <PUBCHEM_CONFORMER_DIVERSEORDER>
1
18
6
11
7
17
16
8
3
13
10
5
9
15
4
12
14
2
19

> <PUBCHEM_MMFF94_PARTIAL_CHARGES>
36
1 -0.46
10 0.36
12 0.3
13 0.57
14 0.54
15 0.09
16 0.12
17 0.57
18 -0.15
19 -0.15
2 -0.57
21 0.29
22 -0.15
24 -0.15
25 -0.15
26 -0.15
27 -0.15
28 0.23
29 0.08
3 -0.57
30 0.28
37 0.37
38 0.37
39 0.15
4 -0.57
40 0.15
43 0.15
44 0.15
45 0.15
46 0.15
47 0.15
5 -0.36
6 -0.66
7 -0.73
8 -0.55
9 0.3

> <PUBCHEM_EFFECTIVE_ROTOR_COUNT>
6.8

> <PUBCHEM_PHARMACOPHORE_FEATURES>
11
1 2 acceptor
1 28 hydrophobe
1 3 acceptor
1 4 acceptor
1 5 acceptor
1 7 donor
1 8 donor
5 6 9 10 11 12 rings
6 15 16 18 19 20 22 rings
6 23 24 25 26 27 29 rings
7 6 8 10 13 14 15 16 rings

> <PUBCHEM_HEAVY_ATOM_COUNT>
30

> <PUBCHEM_ATOM_DEF_STEREO_COUNT>
2

> <PUBCHEM_ATOM_UDEF_STEREO_COUNT>
0

> <PUBCHEM_BOND_DEF_STEREO_COUNT>
0

> <PUBCHEM_BOND_UDEF_STEREO_COUNT>
0

> <PUBCHEM_ISOTOPIC_ATOM_COUNT>
0

> <PUBCHEM_COMPONENT_COUNT>
1

> <PUBCHEM_CACTVS_TAUTO_COUNT>
6

> <PUBCHEM_CONFORMER_ID>
00B6361800000001

> <PUBCHEM_MMFF94_ENERGY>
112.0041

> <PUBCHEM_FEATURE_SELFOVERLAP>
55.88

> <PUBCHEM_SHAPE_FINGERPRINT>
10 15 17168136867220462358
10554248 39 17130986456286889684
11410812 94 14764074398614490816
11456790 92 18335134294417760112
11963148 33 9439141827438095032
12013929 29 18339648944907091076
12390115 104 18261959651788727422
12422481 6 17168432554307337613
12788726 201 17631455570606956225
13782708 43 10809340049222001476
14394314 77 18411421687417080241
14765038 42 18187367631882404786
15163728 17 17417824889789455231
15183329 4 18334285509963478882
1577012 14 18343579642771309488
15840311 113 18265340495762789717
19958102 18 14476696216957269228
20642791 268 18186528691673022135
21033648 29 17168137889396552311
21223535 225 18202559601461352928
21236236 1 18043241538953831654
21424621 283 18413389839210521362
21585482 111 18335422309707177812
21756936 100 18343582975244243295
22122407 14 18270689778165669584
22393880 68 12319161855989959699
23522609 53 17677630816289839836
23569914 2 17342897656023479936
270888 7 18341333293144827873
2838139 119 18130506443944760976
3472631 163 18201720588289571541
392239 28 17895187848681776516
445580 204 18202002135880040200
44802255 64 16917069992392814828
50009960 94 15648773473647559441
5104073 3 16878772791221749768
5385378 56 18260265236204749306
54039377 194 9006765506574804009
56638632 10 18335134302612419149
636775 72 18270678787740309776
7970288 3 8717954558472043673
9896288 288 18262525925657167467

> <PUBCHEM_SHAPE_MULTIPOLES>
582.82
20.2
3.62
1.46
18.22
0.89
-0.67
23.58
4.16
-4.17
1
-2.05
0.02
-1.32

> <PUBCHEM_SHAPE_SELFOVERLAP>
1253.658

> <PUBCHEM_SHAPE_VOLUME>
323.5

> <PUBCHEM_COORDINATE_TYPE>
2
5
10

$$$$
