7049332
  -OEChem-12032416113D

 49 50  0     1  0  0  0  0  0999 V2000
   -0.2659   -2.0408   -2.1287 O   0  0  0  0  0  0  0  0  0  0  0  0
    0.4317   -4.1977    0.7426 O   0  0  0  0  0  0  0  0  0  0  0  0
   -5.2421    3.4005   -0.0393 O   0  0  0  0  0  0  0  0  0  0  0  0
   -3.5821   -1.4268    0.4995 O   0  0  0  0  0  0  0  0  0  0  0  0
    3.7593   -1.0585    1.6050 O   0  0  0  0  0  0  0  0  0  0  0  0
    3.5543    2.7137   -1.5994 O   0  0  0  0  0  0  0  0  0  0  0  0
   -5.1362    0.4423   -0.4153 N   0  0  0  0  0  0  0  0  0  0  0  0
   -1.6174   -0.4660   -0.2991 N   0  0  0  0  0  0  0  0  0  0  0  0
    3.0689    0.6651    0.1955 N   0  0  0  0  0  0  0  0  0  0  0  0
    5.7500    2.7396   -0.9258 N   0  0  0  0  0  0  0  0  0  0  0  0
   -3.7073    0.6380   -0.6881 C   0  0  1  0  0  0  0  0  0  0  0  0
   -0.6959   -1.4623    0.1896 C   0  0  1  0  0  0  0  0  0  0  0  0
   -0.4916   -2.5974   -0.8319 C   0  0  2  0  0  0  0  0  0  0  0  0
   -3.3034    1.9533   -0.0270 C   0  0  0  0  0  0  0  0  0  0  0  0
    0.7056   -3.4805   -0.4593 C   0  0  1  0  0  0  0  0  0  0  0  0
   -4.5473    2.4170    0.7203 C   0  0  2  0  0  0  0  0  0  0  0  0
   -5.4097    1.1748    0.8305 C   0  0  0  0  0  0  0  0  0  0  0  0
    2.0005   -2.6648   -0.3036 C   0  0  0  0  0  0  0  0  0  0  0  0
   -2.9872   -0.5354   -0.1006 C   0  0  0  0  0  0  0  0  0  0  0  0
    0.5866   -0.7840    0.5892 C   0  0  0  0  0  0  0  0  0  0  0  0
    1.7891   -1.3308    0.3544 C   0  0  0  0  0  0  0  0  0  0  0  0
    2.9706   -0.5808    0.7900 C   0  0  0  0  0  0  0  0  0  0  0  0
    4.1471    1.5879    0.4693 C   0  0  2  0  0  0  0  0  0  0  0  0
    3.7988    2.5085    1.6282 C   0  0  0  0  0  0  0  0  0  0  0  0
    4.4239    2.3850   -0.7961 C   0  0  0  0  0  0  0  0  0  0  0  0
   -1.1243   -1.8929    1.1044 H   0  0  0  0  0  0  0  0  0  0  0  0
   -3.5292    0.6559   -1.7687 H   0  0  0  0  0  0  0  0  0  0  0  0
   -1.4088   -3.1967   -0.8844 H   0  0  0  0  0  0  0  0  0  0  0  0
   -2.4822    1.8214    0.6865 H   0  0  0  0  0  0  0  0  0  0  0  0
   -2.9917    2.6869   -0.7785 H   0  0  0  0  0  0  0  0  0  0  0  0
    0.8652   -4.2289   -1.2452 H   0  0  0  0  0  0  0  0  0  0  0  0
   -4.3134    2.8451    1.6998 H   0  0  0  0  0  0  0  0  0  0  0  0
   -6.4766    1.4036    0.9085 H   0  0  0  0  0  0  0  0  0  0  0  0
   -5.1092    0.5694    1.6931 H   0  0  0  0  0  0  0  0  0  0  0  0
    2.7336   -3.2450    0.2693 H   0  0  0  0  0  0  0  0  0  0  0  0
    2.4290   -2.4816   -1.2970 H   0  0  0  0  0  0  0  0  0  0  0  0
   -5.3911   -0.5400   -0.3356 H   0  0  0  0  0  0  0  0  0  0  0  0
   -1.2431    0.2958   -0.8588 H   0  0  0  0  0  0  0  0  0  0  0  0
    0.5050    0.1668    1.1120 H   0  0  0  0  0  0  0  0  0  0  0  0
   -0.1708   -2.7810   -2.7522 H   0  0  0  0  0  0  0  0  0  0  0  0
    1.1924   -4.7769    0.9196 H   0  0  0  0  0  0  0  0  0  0  0  0
   -4.6567    4.1729   -0.1198 H   0  0  0  0  0  0  0  0  0  0  0  0
    2.3539    0.9599   -0.4643 H   0  0  0  0  0  0  0  0  0  0  0  0
    5.0373    1.0034    0.7313 H   0  0  0  0  0  0  0  0  0  0  0  0
    2.9049    3.1031    1.4067 H   0  0  0  0  0  0  0  0  0  0  0  0
    3.5987    1.9353    2.5397 H   0  0  0  0  0  0  0  0  0  0  0  0
    4.6171    3.2062    1.8352 H   0  0  0  0  0  0  0  0  0  0  0  0
    6.0677    3.2842   -1.7208 H   0  0  0  0  0  0  0  0  0  0  0  0
    6.4542    2.4781   -0.2432 H   0  0  0  0  0  0  0  0  0  0  0  0
  1 13  1  0  0  0  0
  1 40  1  0  0  0  0
  2 15  1  0  0  0  0
  2 41  1  0  0  0  0
  3 16  1  0  0  0  0
  3 42  1  0  0  0  0
  4 19  2  0  0  0  0
  5 22  2  0  0  0  0
  6 25  2  0  0  0  0
  7 11  1  0  0  0  0
  7 17  1  0  0  0  0
  7 37  1  0  0  0  0
  8 12  1  0  0  0  0
  8 19  1  0  0  0  0
  8 38  1  0  0  0  0
  9 22  1  0  0  0  0
  9 23  1  0  0  0  0
  9 43  1  0  0  0  0
 10 25  1  0  0  0  0
 10 48  1  0  0  0  0
 10 49  1  0  0  0  0
 11 14  1  0  0  0  0
 11 19  1  0  0  0  0
 11 27  1  0  0  0  0
 12 13  1  0  0  0  0
 12 20  1  0  0  0  0
 12 26  1  0  0  0  0
 13 15  1  0  0  0  0
 13 28  1  0  0  0  0
 14 16  1  0  0  0  0
 14 29  1  0  0  0  0
 14 30  1  0  0  0  0
 15 18  1  0  0  0  0
 15 31  1  0  0  0  0
 16 17  1  0  0  0  0
 16 32  1  0  0  0  0
 17 33  1  0  0  0  0
 17 34  1  0  0  0  0
 18 21  1  0  0  0  0
 18 35  1  0  0  0  0
 18 36  1  0  0  0  0
 20 21  2  0  0  0  0
 20 39  1  0  0  0  0
 21 22  1  0  0  0  0
 23 24  1  0  0  0  0
 23 25  1  0  0  0  0
 23 44  1  0  0  0  0
 24 45  1  0  0  0  0
 24 46  1  0  0  0  0
 24 47  1  0  0  0  0
M  END
> <PUBCHEM_COMPOUND_CID>
7049332

> <PUBCHEM_CONFORMER_RMSD>
1

> <PUBCHEM_CONFORMER_DIVERSEORDER>
1
33
70
62
109
83
64
81
68
60
51
88
100
11
34
87
55
90
106
17
5
96
97
30
76
2
107
63
65
4
75
102
44
40
27
105
42
98
15
14
91
84
95
6
56
20
38
43
45
3
28
61
108
22
71
101
13
57
85
92
52
54
18
47
12
69
32
25
7
74
29
99
46
86
16
103
78
23
72
24
9
10
80
21
58
36
79
93
89
8
67
19
94
66
39
26
104
111
37
31
77
59
48
50
73
53
82
35
49
110
41

> <PUBCHEM_MMFF94_PARTIAL_CHARGES>
32
1 -0.68
10 -0.8
11 0.33
12 0.44
13 0.28
15 0.28
16 0.28
17 0.27
18 0.14
19 0.57
2 -0.68
20 -0.29
21 -0.12
22 0.62
23 0.36
25 0.57
3 -0.68
37 0.36
38 0.37
39 0.15
4 -0.57
40 0.4
41 0.4
42 0.4
43 0.37
48 0.37
49 0.37
5 -0.57
6 -0.57
7 -0.9
8 -0.73
9 -0.73

> <PUBCHEM_EFFECTIVE_ROTOR_COUNT>
8.8

> <PUBCHEM_PHARMACOPHORE_FEATURES>
16
1 1 acceptor
1 1 donor
1 10 donor
1 2 acceptor
1 2 donor
1 3 acceptor
1 3 donor
1 4 acceptor
1 5 acceptor
1 6 acceptor
1 7 cation
1 7 donor
1 8 donor
1 9 donor
5 7 11 14 16 17 rings
6 12 13 15 18 20 21 rings

> <PUBCHEM_HEAVY_ATOM_COUNT>
25

> <PUBCHEM_ATOM_DEF_STEREO_COUNT>
6

> <PUBCHEM_ATOM_UDEF_STEREO_COUNT>
0

> <PUBCHEM_BOND_DEF_STEREO_COUNT>
0

> <PUBCHEM_BOND_UDEF_STEREO_COUNT>
0

> <PUBCHEM_ISOTOPIC_ATOM_COUNT>
0

> <PUBCHEM_COMPONENT_COUNT>
1

> <PUBCHEM_CACTVS_TAUTO_COUNT>
8

> <PUBCHEM_CONFORMER_ID>
006B907400000001

> <PUBCHEM_MMFF94_ENERGY>
48.0855

> <PUBCHEM_FEATURE_SELFOVERLAP>
81.21

> <PUBCHEM_SHAPE_FINGERPRINT>
10670039 82 18338797943890717196
10937287 8 18411695530198936402
11720765 8 17488475070679339444
12107183 9 18262223496578290058
12173636 292 18196361748656693486
12293681 25 11887371664676495062
12293681 4 16391821923041328342
12390115 104 18269285705990211931
12403259 118 18337939143256594275
12422481 6 17895180070296043620
12633257 1 18042113272239953747
12788726 201 17179426862714579534
13583140 156 17169808021298924427
13590594 115 17476933354518670578
14251764 75 18412554222963635353
14257110 125 18410012173406795292
1454969 45 18269272534264921191
14790565 3 18410858793171087192
14840074 17 17603873359357308716
14848178 96 18340201895468875617
14849402 71 18263928726663852474
15163728 17 18339656606188652646
15342168 16 18411416198574320117
17980427 26 18335126558269698966
18785283 64 18264204712550954842
20567600 9 18268161876379211332
20739085 24 18188210905698381332
21315764 268 17830452783469233661
21756936 100 18267864076616508022
23559900 14 18055909897122355035
245318 6 17823434848997673133
38570 142 17532386434088298140
394222 165 18335693914875065946
474 4 18338513045624403507
6034566 193 18265070182704786313
633830 44 18341609291595391095
7288768 16 18041838527366219674
7808743 9 18266178525154081112
9981440 41 18408604790323685123
9999458 23 18336548196902964630

> <PUBCHEM_SHAPE_MULTIPOLES>
459.35
11.99
4.83
1.28
5.6
1.37
-0.17
-15.4
0.48
-2.21
-0.48
-1.11
-0.2
-1.27

> <PUBCHEM_SHAPE_SELFOVERLAP>
949.326

> <PUBCHEM_SHAPE_VOLUME>
260.5

> <PUBCHEM_COORDINATE_TYPE>
2
5
10

$$$$
