45361559
  -OEChem-12032416313D

 74 77  0     1  0  0  0  0  0999 V2000
   -0.9388    1.1889   -1.9595 O   0  0  0  0  0  0  0  0  0  0  0  0
   -5.5943    2.2342    0.4501 O   0  0  0  0  0  0  0  0  0  0  0  0
    4.6720   -2.2802   -0.0570 O   0  0  0  0  0  0  0  0  0  0  0  0
    3.9148   -0.0928    0.0755 N   0  0  0  0  0  0  0  0  0  0  0  0
   -5.1846    0.2761   -0.7237 N   0  0  0  0  0  0  0  0  0  0  0  0
    8.8753    0.3483   -0.6897 N   0  0  0  0  0  0  0  0  0  0  0  0
   -0.0818    0.2491    1.6402 C   0  0  1  0  0  0  0  0  0  0  0  0
    0.0832    0.3447    0.0869 C   0  0  2  0  0  0  0  0  0  0  0  0
    1.5739    0.6559   -0.2989 C   0  0  1  0  0  0  0  0  0  0  0  0
   -0.9804    1.2942   -0.5356 C   0  0  2  0  0  0  0  0  0  0  0  0
   -1.5318   -0.1689    1.9804 C   0  0  0  0  0  0  0  0  0  0  0  0
   -2.4222    0.9340   -0.1077 C   0  0  1  0  0  0  0  0  0  0  0  0
    0.8636   -0.8484    2.1811 C   0  0  0  0  0  0  0  0  0  0  0  0
    2.5229   -0.4126    0.3135 C   0  0  2  0  0  0  0  0  0  0  0  0
   -2.5744    0.7806    1.4056 C   0  0  0  0  0  0  0  0  0  0  0  0
    2.3223   -0.6144    1.8151 C   0  0  0  0  0  0  0  0  0  0  0  0
    0.2307    1.5886    2.3543 C   0  0  0  0  0  0  0  0  0  0  0  0
   -3.4415    1.9570   -0.6241 C   0  0  2  0  0  0  0  0  0  0  0  0
    1.8137    0.7353   -1.8160 C   0  0  0  0  0  0  0  0  0  0  0  0
   -3.1108    3.3448   -0.0862 C   0  0  0  0  0  0  0  0  0  0  0  0
   -4.8521    1.5296   -0.2308 C   0  0  0  0  0  0  0  0  0  0  0  0
    4.8808   -1.0703   -0.0912 C   0  0  0  0  0  0  0  0  0  0  0  0
   -6.4681   -0.3445   -0.4814 C   0  0  0  0  0  0  0  0  0  0  0  0
   -6.8862   -1.2248   -1.6639 C   0  0  0  0  0  0  0  0  0  0  0  0
   -6.4564   -1.1413    0.8276 C   0  0  0  0  0  0  0  0  0  0  0  0
    6.2671   -0.5788   -0.3005 C   0  0  0  0  0  0  0  0  0  0  0  0
   -6.0568   -2.5052   -1.7618 C   0  0  0  0  0  0  0  0  0  0  0  0
   -5.6277   -2.4218    0.7255 C   0  0  0  0  0  0  0  0  0  0  0  0
   -6.0697   -3.2862   -0.4513 C   0  0  0  0  0  0  0  0  0  0  0  0
    7.3507   -1.3663    0.0723 C   0  0  0  0  0  0  0  0  0  0  0  0
    6.4860    0.6717   -0.8676 C   0  0  0  0  0  0  0  0  0  0  0  0
    8.6232   -0.8615   -0.1415 C   0  0  0  0  0  0  0  0  0  0  0  0
    7.7972    1.0853   -1.0396 C   0  0  0  0  0  0  0  0  0  0  0  0
   -0.1229   -0.6551   -0.3280 H   0  0  0  0  0  0  0  0  0  0  0  0
    1.8467    1.6391    0.1050 H   0  0  0  0  0  0  0  0  0  0  0  0
   -0.7053    2.3180   -0.2768 H   0  0  0  0  0  0  0  0  0  0  0  0
   -1.7268   -1.1774    1.5912 H   0  0  0  0  0  0  0  0  0  0  0  0
   -1.6641   -0.2310    3.0683 H   0  0  0  0  0  0  0  0  0  0  0  0
   -2.6399   -0.0450   -0.5550 H   0  0  0  0  0  0  0  0  0  0  0  0
    0.7760   -0.9216    3.2726 H   0  0  0  0  0  0  0  0  0  0  0  0
    0.5595   -1.8259    1.7831 H   0  0  0  0  0  0  0  0  0  0  0  0
    2.3131   -1.3711   -0.1812 H   0  0  0  0  0  0  0  0  0  0  0  0
   -2.4986    1.7321    1.9360 H   0  0  0  0  0  0  0  0  0  0  0  0
   -3.5597    0.3729    1.6589 H   0  0  0  0  0  0  0  0  0  0  0  0
    2.9140   -1.4735    2.1569 H   0  0  0  0  0  0  0  0  0  0  0  0
    2.7160    0.2469    2.3684 H   0  0  0  0  0  0  0  0  0  0  0  0
    1.2677    1.9080    2.2227 H   0  0  0  0  0  0  0  0  0  0  0  0
    0.0598    1.4986    3.4335 H   0  0  0  0  0  0  0  0  0  0  0  0
   -0.3939    2.4109    1.9944 H   0  0  0  0  0  0  0  0  0  0  0  0
   -3.4159    1.9945   -1.7208 H   0  0  0  0  0  0  0  0  0  0  0  0
    1.3597    1.6348   -2.2410 H   0  0  0  0  0  0  0  0  0  0  0  0
    2.8790    0.8044   -2.0586 H   0  0  0  0  0  0  0  0  0  0  0  0
    1.4139   -0.1458   -2.3284 H   0  0  0  0  0  0  0  0  0  0  0  0
    4.1796    0.8841    0.1465 H   0  0  0  0  0  0  0  0  0  0  0  0
   -1.1273    0.2658   -2.2002 H   0  0  0  0  0  0  0  0  0  0  0  0
   -2.1547    3.7294   -0.4477 H   0  0  0  0  0  0  0  0  0  0  0  0
   -3.8642    4.0574   -0.4473 H   0  0  0  0  0  0  0  0  0  0  0  0
   -3.1380    3.4222    1.0031 H   0  0  0  0  0  0  0  0  0  0  0  0
   -4.5156   -0.2289   -1.2949 H   0  0  0  0  0  0  0  0  0  0  0  0
   -7.2050    0.4622   -0.3815 H   0  0  0  0  0  0  0  0  0  0  0  0
   -6.8029   -0.6653   -2.6034 H   0  0  0  0  0  0  0  0  0  0  0  0
   -7.9430   -1.4977   -1.5489 H   0  0  0  0  0  0  0  0  0  0  0  0
   -7.4880   -1.4108    1.0884 H   0  0  0  0  0  0  0  0  0  0  0  0
   -6.0736   -0.5261    1.6505 H   0  0  0  0  0  0  0  0  0  0  0  0
   -6.4543   -3.1355   -2.5658 H   0  0  0  0  0  0  0  0  0  0  0  0
   -5.0227   -2.2649   -2.0354 H   0  0  0  0  0  0  0  0  0  0  0  0
   -4.5664   -2.1673    0.6148 H   0  0  0  0  0  0  0  0  0  0  0  0
   -5.7204   -2.9933    1.6560 H   0  0  0  0  0  0  0  0  0  0  0  0
   -7.0817   -3.6659   -0.2639 H   0  0  0  0  0  0  0  0  0  0  0  0
   -5.4124   -4.1589   -0.5354 H   0  0  0  0  0  0  0  0  0  0  0  0
    7.2235   -2.3452    0.5220 H   0  0  0  0  0  0  0  0  0  0  0  0
    5.6853    1.3201   -1.2048 H   0  0  0  0  0  0  0  0  0  0  0  0
    9.5019   -1.4359    0.1329 H   0  0  0  0  0  0  0  0  0  0  0  0
    8.0221    2.0493   -1.4840 H   0  0  0  0  0  0  0  0  0  0  0  0
  1 10  1  0  0  0  0
  1 55  1  0  0  0  0
  2 21  2  0  0  0  0
  3 22  2  0  0  0  0
  4 14  1  0  0  0  0
  4 22  1  0  0  0  0
  4 54  1  0  0  0  0
  5 21  1  0  0  0  0
  5 23  1  0  0  0  0
  5 59  1  0  0  0  0
  6 32  2  0  0  0  0
  6 33  1  0  0  0  0
  7  8  1  0  0  0  0
  7 11  1  0  0  0  0
  7 13  1  0  0  0  0
  7 17  1  0  0  0  0
  8  9  1  0  0  0  0
  8 10  1  0  0  0  0
  8 34  1  0  0  0  0
  9 14  1  0  0  0  0
  9 19  1  0  0  0  0
  9 35  1  0  0  0  0
 10 12  1  0  0  0  0
 10 36  1  0  0  0  0
 11 15  1  0  0  0  0
 11 37  1  0  0  0  0
 11 38  1  0  0  0  0
 12 15  1  0  0  0  0
 12 18  1  0  0  0  0
 12 39  1  0  0  0  0
 13 16  1  0  0  0  0
 13 40  1  0  0  0  0
 13 41  1  0  0  0  0
 14 16  1  0  0  0  0
 14 42  1  0  0  0  0
 15 43  1  0  0  0  0
 15 44  1  0  0  0  0
 16 45  1  0  0  0  0
 16 46  1  0  0  0  0
 17 47  1  0  0  0  0
 17 48  1  0  0  0  0
 17 49  1  0  0  0  0
 18 20  1  0  0  0  0
 18 21  1  0  0  0  0
 18 50  1  0  0  0  0
 19 51  1  0  0  0  0
 19 52  1  0  0  0  0
 19 53  1  0  0  0  0
 20 56  1  0  0  0  0
 20 57  1  0  0  0  0
 20 58  1  0  0  0  0
 22 26  1  0  0  0  0
 23 24  1  0  0  0  0
 23 25  1  0  0  0  0
 23 60  1  0  0  0  0
 24 27  1  0  0  0  0
 24 61  1  0  0  0  0
 24 62  1  0  0  0  0
 25 28  1  0  0  0  0
 25 63  1  0  0  0  0
 25 64  1  0  0  0  0
 26 30  2  0  0  0  0
 26 31  1  0  0  0  0
 27 29  1  0  0  0  0
 27 65  1  0  0  0  0
 27 66  1  0  0  0  0
 28 29  1  0  0  0  0
 28 67  1  0  0  0  0
 28 68  1  0  0  0  0
 29 69  1  0  0  0  0
 29 70  1  0  0  0  0
 30 32  1  0  0  0  0
 30 71  1  0  0  0  0
 31 33  2  0  0  0  0
 31 72  1  0  0  0  0
 32 73  1  0  0  0  0
 33 74  1  0  0  0  0
M  END
> <PUBCHEM_COMPOUND_CID>
45361559

> <PUBCHEM_CONFORMER_RMSD>
1

> <PUBCHEM_CONFORMER_DIVERSEORDER>
1
121
77
123
71
131
84
40
22
95
12
93
120
86
6
103
72
113
4
108
111
16
43
29
81
94
44
59
11
133
74
64
92
99
42
24
53
114
97
78
35
49
118
117
45
130
20
122
106
68
132
61
129
57
46
79
63
33
104
90
116
3
19
83
115
89
110
39
75
125
47
67
91
60
27
21
65
48
88
30
102
87
73
17
101
55
66
112
52
105
107
34
69
51
28
126
98
31
10
100
119
128
56
18
80
50
54
62
38
96
23
15
82
25
14
13
8
127
85
58
70
32
76
9
109
124
7
5
2
37
26
41
36

> <PUBCHEM_MMFF94_PARTIAL_CHARGES>
24
1 -0.68
10 0.28
14 0.3
18 0.06
2 -0.57
21 0.57
22 0.54
23 0.3
26 0.09
3 -0.57
30 -0.15
31 -0.15
32 0.16
33 0.16
4 -0.73
5 -0.73
54 0.37
55 0.4
59 0.37
6 -0.62
71 0.15
72 0.15
73 0.15
74 0.15

> <PUBCHEM_EFFECTIVE_ROTOR_COUNT>
9.8

> <PUBCHEM_PHARMACOPHORE_FEATURES>
12
1 1 acceptor
1 1 donor
1 2 acceptor
1 20 hydrophobe
1 3 acceptor
1 4 donor
1 5 donor
1 6 acceptor
6 23 24 25 27 28 29 rings
6 6 26 30 31 32 33 rings
6 7 8 10 11 12 15 rings
6 7 8 9 13 14 16 rings

> <PUBCHEM_HEAVY_ATOM_COUNT>
33

> <PUBCHEM_ATOM_DEF_STEREO_COUNT>
6

> <PUBCHEM_ATOM_UDEF_STEREO_COUNT>
1

> <PUBCHEM_BOND_DEF_STEREO_COUNT>
0

> <PUBCHEM_BOND_UDEF_STEREO_COUNT>
0

> <PUBCHEM_ISOTOPIC_ATOM_COUNT>
0

> <PUBCHEM_COMPONENT_COUNT>
1

> <PUBCHEM_CACTVS_TAUTO_COUNT>
4

> <PUBCHEM_CONFORMER_ID>
02B4299700000001

> <PUBCHEM_MMFF94_ENERGY>
85.8857

> <PUBCHEM_FEATURE_SELFOVERLAP>
60.912

> <PUBCHEM_SHAPE_FINGERPRINT>
10076449 9 17704074018669971290
10554248 39 15864355714589994754
10577160 103 18115030843474658808
10577160 183 13695859376605706504
11135926 11 16370728097705434177
11477941 20 17967810544605183493
117089 54 18121779706577740575
12082328 90 18341330007336415564
12373685 5 17676480649717691122
12838862 33 16370719362438435252
13165053 68 18125156297815592694
1361 4 18341892935784144422
13673619 4 17846493764332245201
13690498 29 18342449349002289789
13782708 43 18059851783614886543
13914758 101 8718827600462599180
13947920 75 17894347791480248507
14856354 85 17917993859078812493
15183329 4 17894624859736487619
15461852 350 18409738357110900878
15604295 49 11531063905912332598
17324776 126 16697208491082980847
17686467 74 18409447020536558312
20105231 36 15554450704368794628
20505436 4 17752202778746265345
20982279 24 16414659098359070102
21133410 32 15647626704483744651
21150785 3 18408323281076665858
21781051 124 17060339656438094286
21859007 373 13623523593483668830
22288116 15 18261112993269814747
23559900 14 17603874454536999645
24771293 8 17676494934736661004
2747138 104 16630806604252446210
3178227 256 15698280031973922998
335507 130 18334022687386344733
395649 100 18186522137258113594
4169191 19 9295018937931105613
4339292 15 17845922009901667351
4353968 344 17096072586261573430
437795 160 18411124845795470754
44555599 121 10879700014365745426
445580 167 18114181960384038108
4625314 4 18410292467552498988
5265222 85 18060132185039547878
563151 97 17241037696382315873
58083652 198 14836110057621506667
6004065 56 18186524332582176036
6009941 240 16988567854072412193
6673363 416 18341338859961306292
999808 66 16487257668310950271

> <PUBCHEM_SHAPE_MULTIPOLES>
646.57
24.15
2.68
1.86
30.94
0.27
-0.6
11.7
9.48
-5.47
0.39
-0.84
-0.03
-1.39

> <PUBCHEM_SHAPE_SELFOVERLAP>
1352.629

> <PUBCHEM_SHAPE_VOLUME>
359.3

> <PUBCHEM_COORDINATE_TYPE>
2
5
10

$$$$
