56775298
  -OEChem-12032416203D

 46 49  0     1  0  0  0  0  0999 V2000
   -1.8901    2.5683    1.0091 O   0  0  0  0  0  0  0  0  0  0  0  0
   -4.5952   -1.3539    1.3302 O   0  0  0  0  0  0  0  0  0  0  0  0
    0.4918    3.8058   -1.3263 O   0  0  0  0  0  0  0  0  0  0  0  0
    5.3171   -1.8005    0.9372 O   0  0  0  0  0  0  0  0  0  0  0  0
   -2.6957   -0.2816    0.5549 N   0  0  0  0  0  0  0  0  0  0  0  0
    0.1967    1.6263   -0.5670 N   0  0  0  0  0  0  0  0  0  0  0  0
   -0.5674    0.7022    0.2616 C   0  0  1  0  0  0  0  0  0  0  0  0
   -4.0179   -1.7325   -0.9124 C   0  0  0  0  0  0  0  0  0  0  0  0
   -1.2641    1.3652    1.4475 C   0  0  2  0  0  0  0  0  0  0  0  0
   -1.7304    0.0471   -0.4888 C   0  0  0  0  0  0  0  0  0  0  0  0
   -4.7730   -3.0264   -0.9982 C   0  0  0  0  0  0  0  0  0  0  0  0
   -3.2927   -3.0037   -1.2439 C   0  0  0  0  0  0  0  0  0  0  0  0
   -2.3495    0.3622    1.8171 C   0  0  0  0  0  0  0  0  0  0  0  0
   -3.8047   -1.1014    0.4253 C   0  0  0  0  0  0  0  0  0  0  0  0
   -0.0304    2.9999   -0.5543 C   0  0  0  0  0  0  0  0  0  0  0  0
   -0.9283    3.4980    0.5647 C   0  0  0  0  0  0  0  0  0  0  0  0
    1.1066    1.0405   -1.5417 C   0  0  0  0  0  0  0  0  0  0  0  0
    2.2255    0.2862   -0.8835 C   0  0  0  0  0  0  0  0  0  0  0  0
    3.2786    0.9796   -0.2869 C   0  0  0  0  0  0  0  0  0  0  0  0
    2.2114   -1.1086   -0.8683 C   0  0  0  0  0  0  0  0  0  0  0  0
    4.3177    0.2784    0.3246 C   0  0  0  0  0  0  0  0  0  0  0  0
    3.2505   -1.8099   -0.2567 C   0  0  0  0  0  0  0  0  0  0  0  0
    4.3036   -1.1164    0.3397 C   0  0  0  0  0  0  0  0  0  0  0  0
    5.2397   -3.2252    0.9161 C   0  0  0  0  0  0  0  0  0  0  0  0
    0.0935   -0.0758    0.6604 H   0  0  0  0  0  0  0  0  0  0  0  0
   -4.1805   -1.0308   -1.7252 H   0  0  0  0  0  0  0  0  0  0  0  0
   -0.5987    1.5826    2.2903 H   0  0  0  0  0  0  0  0  0  0  0  0
   -1.4208   -0.8501   -1.0320 H   0  0  0  0  0  0  0  0  0  0  0  0
   -2.2170    0.7309   -1.1939 H   0  0  0  0  0  0  0  0  0  0  0  0
   -5.4225   -3.1747   -1.8526 H   0  0  0  0  0  0  0  0  0  0  0  0
   -5.1191   -3.5054   -0.0908 H   0  0  0  0  0  0  0  0  0  0  0  0
   -2.6508   -3.4466   -0.4922 H   0  0  0  0  0  0  0  0  0  0  0  0
   -2.9472   -3.1358   -2.2619 H   0  0  0  0  0  0  0  0  0  0  0  0
   -1.9673   -0.4184    2.4837 H   0  0  0  0  0  0  0  0  0  0  0  0
   -3.2413    0.8170    2.2591 H   0  0  0  0  0  0  0  0  0  0  0  0
   -0.2982    3.8139    1.4041 H   0  0  0  0  0  0  0  0  0  0  0  0
   -1.4674    4.3782    0.1995 H   0  0  0  0  0  0  0  0  0  0  0  0
    1.5337    1.8162   -2.1883 H   0  0  0  0  0  0  0  0  0  0  0  0
    0.5232    0.3884   -2.2028 H   0  0  0  0  0  0  0  0  0  0  0  0
    3.2999    2.0662   -0.2925 H   0  0  0  0  0  0  0  0  0  0  0  0
    1.3958   -1.6606   -1.3279 H   0  0  0  0  0  0  0  0  0  0  0  0
    5.1352    0.8240    0.7879 H   0  0  0  0  0  0  0  0  0  0  0  0
    3.1764   -2.8917   -0.2807 H   0  0  0  0  0  0  0  0  0  0  0  0
    6.1262   -3.6047    1.4346 H   0  0  0  0  0  0  0  0  0  0  0  0
    5.2762   -3.6150   -0.1068 H   0  0  0  0  0  0  0  0  0  0  0  0
    4.3664   -3.5889    1.4682 H   0  0  0  0  0  0  0  0  0  0  0  0
  1  9  1  0  0  0  0
  1 16  1  0  0  0  0
  2 14  2  0  0  0  0
  3 15  2  0  0  0  0
  4 23  1  0  0  0  0
  4 24  1  0  0  0  0
  5 10  1  0  0  0  0
  5 13  1  0  0  0  0
  5 14  1  0  0  0  0
  6  7  1  0  0  0  0
  6 15  1  0  0  0  0
  6 17  1  0  0  0  0
  7  9  1  0  0  0  0
  7 10  1  0  0  0  0
  7 25  1  0  0  0  0
  8 11  1  0  0  0  0
  8 12  1  0  0  0  0
  8 14  1  0  0  0  0
  8 26  1  0  0  0  0
  9 13  1  0  0  0  0
  9 27  1  0  0  0  0
 10 28  1  0  0  0  0
 10 29  1  0  0  0  0
 11 12  1  0  0  0  0
 11 30  1  0  0  0  0
 11 31  1  0  0  0  0
 12 32  1  0  0  0  0
 12 33  1  0  0  0  0
 13 34  1  0  0  0  0
 13 35  1  0  0  0  0
 15 16  1  0  0  0  0
 16 36  1  0  0  0  0
 16 37  1  0  0  0  0
 17 18  1  0  0  0  0
 17 38  1  0  0  0  0
 17 39  1  0  0  0  0
 18 19  2  0  0  0  0
 18 20  1  0  0  0  0
 19 21  1  0  0  0  0
 19 40  1  0  0  0  0
 20 22  2  0  0  0  0
 20 41  1  0  0  0  0
 21 23  2  0  0  0  0
 21 42  1  0  0  0  0
 22 23  1  0  0  0  0
 22 43  1  0  0  0  0
 24 44  1  0  0  0  0
 24 45  1  0  0  0  0
 24 46  1  0  0  0  0
M  END
> <PUBCHEM_COMPOUND_CID>
56775298

> <PUBCHEM_CONFORMER_RMSD>
0.8

> <PUBCHEM_CONFORMER_DIVERSEORDER>
1
10
55
64
33
20
57
54
35
60
16
62
25
59
61
12
17
51
46
44
27
31
26
36
40
58
21
24
50
63
2
8
34
23
7
9
19
5
30
49
38
53
41
45
37
39
3
13
43
15
56
14
47
29
22
4
52
11
6
32
18
42
28
48

> <PUBCHEM_MMFF94_PARTIAL_CHARGES>
33
1 -0.56
10 0.3
11 -0.2
12 -0.2
13 0.3
14 0.63
15 0.57
16 0.34
17 0.44
18 -0.14
19 -0.15
2 -0.57
20 -0.15
21 -0.15
22 -0.15
23 0.08
24 0.28
26 0.1
3 -0.57
30 0.1
31 0.1
32 0.1
33 0.1
4 -0.36
40 0.15
41 0.15
42 0.15
43 0.15
5 -0.66
6 -0.66
7 0.3
8 -0.1
9 0.28

> <PUBCHEM_EFFECTIVE_ROTOR_COUNT>
6.8

> <PUBCHEM_PHARMACOPHORE_FEATURES>
7
1 1 acceptor
1 2 acceptor
1 3 acceptor
1 4 acceptor
5 5 7 9 10 13 rings
6 1 6 7 9 15 16 rings
6 18 19 20 21 22 23 rings

> <PUBCHEM_HEAVY_ATOM_COUNT>
24

> <PUBCHEM_ATOM_DEF_STEREO_COUNT>
2

> <PUBCHEM_ATOM_UDEF_STEREO_COUNT>
0

> <PUBCHEM_BOND_DEF_STEREO_COUNT>
0

> <PUBCHEM_BOND_UDEF_STEREO_COUNT>
0

> <PUBCHEM_ISOTOPIC_ATOM_COUNT>
0

> <PUBCHEM_COMPONENT_COUNT>
1

> <PUBCHEM_CACTVS_TAUTO_COUNT>
2

> <PUBCHEM_CONFORMER_ID>
0362528200000001

> <PUBCHEM_MMFF94_ENERGY>
72.5504

> <PUBCHEM_FEATURE_SELFOVERLAP>
35.724

> <PUBCHEM_SHAPE_FINGERPRINT>
1100329 8 17621034696163419236
11045515 52 18333725832100410773
11265709 11 18411707611862877357
11552529 35 18196649597607003424
11578080 2 18130215064906075505
11720765 8 18196915864252718773
12363563 72 18114473300763327882
12553582 1 18269575960133374359
12633257 1 17703799084917728144
13004483 165 18411976945003841951
13083527 12 18270115858755140332
13544653 18 18335701680016953279
13583140 156 17487882437869383578
13911987 19 17464275076997159260
13931106 250 18267023847674661285
13955234 65 17620754316471323745
14251757 17 16081363107047478927
1454969 45 18265051513378677860
14844126 61 18265612078691093035
15342168 16 9655311314904871299
17349148 13 18333454257060298882
1813 80 18339652225543465853
19032999 76 18337936940207507162
20621476 51 18338513019897005474
20626108 58 18340197613386325595
21452121 199 18269270334492423441
23419403 2 17987494044446510345
23559900 14 16772139997275642829
3027735 51 17387119888963939475
314194 84 18263368151605338290
339767 52 18130502020160400119
3797600 57 17203336658326614728
46194498 28 15865211275784515799
463206 1 18334859471517618019
484985 159 18045767997409414318
57100710 210 18341610378532885158
5924683 9 18267296539469274482
613672 6 18113898290684535154
7064713 232 17632588132008385595
7471813 234 18335985354128007604
7970288 3 18409726296052559914

> <PUBCHEM_SHAPE_MULTIPOLES>
460.47
10.25
4.4
1.46
4.36
1.46
0.16
-13.16
1.94
-1
-0.66
-0.65
0.12
-2.56

> <PUBCHEM_SHAPE_SELFOVERLAP>
984.771

> <PUBCHEM_SHAPE_VOLUME>
255.1

> <PUBCHEM_COORDINATE_TYPE>
2
5
10

$$$$
