71693984
  -OEChem-12032416413D

 42 43  0     1  0  0  0  0  0999 V2000
   -5.2973   -0.1146    0.6250 F   0  0  0  0  0  0  0  0  0  0  0  0
   -4.5656    1.6766   -0.3549 F   0  0  0  0  0  0  0  0  0  0  0  0
   -4.8131   -0.1588   -1.4943 F   0  0  0  0  0  0  0  0  0  0  0  0
    3.9786   -1.7010   -1.0678 O   0  0  0  0  0  0  0  0  0  0  0  0
    1.8020   -3.3750   -1.0643 O   0  0  0  0  0  0  0  0  0  0  0  0
    1.0401    1.8602   -0.9735 O   0  0  0  0  0  0  0  0  0  0  0  0
    2.5356    0.6624    0.3344 N   0  0  0  0  0  0  0  0  0  0  0  0
   -2.4767    0.3598    1.1961 N   0  0  0  0  0  0  0  0  0  0  0  0
    0.9973   -1.1540    1.0195 C   0  0  2  0  0  0  0  0  0  0  0  0
    2.0470   -0.6520    0.0024 C   0  0  2  0  0  0  0  0  0  0  0  0
    3.1498   -1.7068    0.0792 C   0  0  1  0  0  0  0  0  0  0  0  0
    1.2429   -2.6784    1.1623 C   0  0  0  0  0  0  0  0  0  0  0  0
    2.3721   -3.0128    0.1897 C   0  0  1  0  0  0  0  0  0  0  0  0
   -0.4206   -0.7835    0.6390 C   0  0  0  0  0  0  0  0  0  0  0  0
    1.9847    1.8263   -0.1878 C   0  0  0  0  0  0  0  0  0  0  0  0
   -0.9763   -1.2138   -0.5608 C   0  0  0  0  0  0  0  0  0  0  0  0
   -1.2053   -0.0058    1.4752 C   0  0  0  0  0  0  0  0  0  0  0  0
    2.6854    3.0859    0.3184 C   0  0  0  0  0  0  0  0  0  0  0  0
   -2.2814   -0.8581   -0.8832 C   0  0  0  0  0  0  0  0  0  0  0  0
   -2.9829   -0.0771    0.0211 C   0  0  0  0  0  0  0  0  0  0  0  0
    3.8585    3.4381   -0.5941 C   0  0  0  0  0  0  0  0  0  0  0  0
    1.7109    4.2577    0.4105 C   0  0  0  0  0  0  0  0  0  0  0  0
   -4.3859    0.3246   -0.2920 C   0  0  0  0  0  0  0  0  0  0  0  0
    1.2114   -0.7061    2.0012 H   0  0  0  0  0  0  0  0  0  0  0  0
    1.6534   -0.6097   -1.0207 H   0  0  0  0  0  0  0  0  0  0  0  0
    3.7766   -1.5551    0.9671 H   0  0  0  0  0  0  0  0  0  0  0  0
    1.5794   -2.8792    2.1872 H   0  0  0  0  0  0  0  0  0  0  0  0
    0.3433   -3.2775    0.9855 H   0  0  0  0  0  0  0  0  0  0  0  0
    2.9994   -3.8431    0.5274 H   0  0  0  0  0  0  0  0  0  0  0  0
    3.2871    0.7347    1.0142 H   0  0  0  0  0  0  0  0  0  0  0  0
    4.5898   -2.4533   -0.9900 H   0  0  0  0  0  0  0  0  0  0  0  0
    1.2876   -4.1887   -0.9272 H   0  0  0  0  0  0  0  0  0  0  0  0
   -0.4130   -1.8281   -1.2561 H   0  0  0  0  0  0  0  0  0  0  0  0
   -0.8300    0.3624    2.4249 H   0  0  0  0  0  0  0  0  0  0  0  0
    3.0704    2.8919    1.3274 H   0  0  0  0  0  0  0  0  0  0  0  0
   -2.7157   -1.1936   -1.8184 H   0  0  0  0  0  0  0  0  0  0  0  0
    4.5775    2.6130   -0.6397 H   0  0  0  0  0  0  0  0  0  0  0  0
    4.3850    4.3264   -0.2304 H   0  0  0  0  0  0  0  0  0  0  0  0
    3.5196    3.6341   -1.6174 H   0  0  0  0  0  0  0  0  0  0  0  0
    0.8568    4.0013    1.0468 H   0  0  0  0  0  0  0  0  0  0  0  0
    2.2002    5.1391    0.8380 H   0  0  0  0  0  0  0  0  0  0  0  0
    1.3180    4.5319   -0.5748 H   0  0  0  0  0  0  0  0  0  0  0  0
  1 23  1  0  0  0  0
  2 23  1  0  0  0  0
  3 23  1  0  0  0  0
  4 11  1  0  0  0  0
  4 31  1  0  0  0  0
  5 13  1  0  0  0  0
  5 32  1  0  0  0  0
  6 15  2  0  0  0  0
  7 10  1  0  0  0  0
  7 15  1  0  0  0  0
  7 30  1  0  0  0  0
  8 17  1  0  0  0  0
  8 20  2  0  0  0  0
  9 10  1  0  0  0  0
  9 12  1  0  0  0  0
  9 14  1  0  0  0  0
  9 24  1  0  0  0  0
 10 11  1  0  0  0  0
 10 25  1  0  0  0  0
 11 13  1  0  0  0  0
 11 26  1  0  0  0  0
 12 13  1  0  0  0  0
 12 27  1  0  0  0  0
 12 28  1  0  0  0  0
 13 29  1  0  0  0  0
 14 16  1  0  0  0  0
 14 17  2  0  0  0  0
 15 18  1  0  0  0  0
 16 19  2  0  0  0  0
 16 33  1  0  0  0  0
 17 34  1  0  0  0  0
 18 21  1  0  0  0  0
 18 22  1  0  0  0  0
 18 35  1  0  0  0  0
 19 20  1  0  0  0  0
 19 36  1  0  0  0  0
 20 23  1  0  0  0  0
 21 37  1  0  0  0  0
 21 38  1  0  0  0  0
 21 39  1  0  0  0  0
 22 40  1  0  0  0  0
 22 41  1  0  0  0  0
 22 42  1  0  0  0  0
M  END
> <PUBCHEM_COMPOUND_CID>
71693984

> <PUBCHEM_CONFORMER_RMSD>
0.8

> <PUBCHEM_CONFORMER_DIVERSEORDER>
1
18
20
21
14
2
9
6
15
13
4
5
3
8
10
16
7
19
17
12
11

> <PUBCHEM_MMFF94_PARTIAL_CHARGES>
26
1 -0.34
10 0.3
11 0.28
13 0.28
14 -0.14
15 0.57
16 -0.15
17 0.16
18 0.06
19 -0.15
2 -0.34
20 0.17
23 1.16
3 -0.34
30 0.37
31 0.4
32 0.4
33 0.15
34 0.15
36 0.15
4 -0.68
5 -0.68
6 -0.57
7 -0.73
8 -0.62
9 0.14

> <PUBCHEM_EFFECTIVE_ROTOR_COUNT>
6

> <PUBCHEM_PHARMACOPHORE_FEATURES>
10
1 4 acceptor
1 4 donor
1 5 acceptor
1 5 donor
1 6 acceptor
1 7 donor
1 8 acceptor
3 18 21 22 hydrophobe
5 9 10 11 12 13 rings
6 8 14 16 17 19 20 rings

> <PUBCHEM_HEAVY_ATOM_COUNT>
23

> <PUBCHEM_ATOM_DEF_STEREO_COUNT>
4

> <PUBCHEM_ATOM_UDEF_STEREO_COUNT>
0

> <PUBCHEM_BOND_DEF_STEREO_COUNT>
0

> <PUBCHEM_BOND_UDEF_STEREO_COUNT>
0

> <PUBCHEM_ISOTOPIC_ATOM_COUNT>
0

> <PUBCHEM_COMPONENT_COUNT>
1

> <PUBCHEM_CACTVS_TAUTO_COUNT>
2

> <PUBCHEM_CONFORMER_ID>
0445F6A000000001

> <PUBCHEM_MMFF94_ENERGY>
51.6146

> <PUBCHEM_FEATURE_SELFOVERLAP>
50.757

> <PUBCHEM_SHAPE_FINGERPRINT>
10165383 225 17396469259815694672
105312 117 17901112137834456908
11370993 70 18050280667865295296
116883 192 17620193127038132558
12173636 292 17689713486156960668
12730499 353 18263373640800136347
12769317 202 18338508754699282888
12788726 201 17541100857616373490
13134695 92 18263642866493533094
13140716 1 18189331428274319610
13583140 156 18261680281688857291
13590594 115 18194408788245831288
138480 1 18338233756807288288
14115302 16 17561075895690303351
14250199 8 18411704270330711963
15210252 30 17387428852079426732
15664445 248 18199761241188922814
17980427 23 18054191532294234690
1813 80 17985272876138873454
18186145 218 17749387010738937139
18335252 114 17978217272286913005
19930381 70 18337386171055688909
21033648 29 17095518471071736997
21304303 282 17264936951706704908
21524375 3 17974000953845656128
21860390 5 18411415094609677700
22289505 5 18189611635918984943
2255824 54 18412543210788463130
23419403 2 14570054593624943962
23559900 14 18412820279102387123
23598291 2 17987816123821887328
238 59 18269002040796471202
2748010 2 17972900308320322122
3060560 45 18342455903075573478
3091708 16 9792738177948747186
350125 39 17975430319030681050
474 4 18337947999642286024
5939293 188 18409441480149617714
6443956 14 18337391526737112084
7364860 26 18411418423235549368
7471813 234 18200587004016485904
81228 2 17613162867207300530
84936 182 18270396221303530264
9981440 41 17836073851512841672

> <PUBCHEM_SHAPE_MULTIPOLES>
423.94
8.23
4.53
1.17
10.55
2.03
-0.05
3.95
1.9
-7.17
0.16
0.35
-0.3
0.12

> <PUBCHEM_SHAPE_SELFOVERLAP>
888.371

> <PUBCHEM_SHAPE_VOLUME>
241.9

> <PUBCHEM_COORDINATE_TYPE>
2
5
10

$$$$
