75536686
  -OEChem-12032416313D

 48 50  0     1  0  0  0  0  0999 V2000
    4.6927   -1.3693    0.1551 S   0  0  0  0  0  0  0  0  0  0  0  0
    0.3140   -1.1725    1.4420 O   0  0  0  0  0  0  0  0  0  0  0  0
   -0.4679   -1.3907   -2.0576 O   0  0  0  0  0  0  0  0  0  0  0  0
    4.7451   -2.0111   -1.1446 O   0  0  0  0  0  0  0  0  0  0  0  0
    5.5236   -1.8526    1.2412 O   0  0  0  0  0  0  0  0  0  0  0  0
   -4.6277    1.5028    1.6979 O   0  0  0  0  0  0  0  0  0  0  0  0
   -2.8102   -0.3590   -0.2340 N   0  0  0  0  0  0  0  0  0  0  0  0
    3.0772   -1.2981    0.6836 N   0  0  0  0  0  0  0  0  0  0  0  0
   -1.6292   -1.1480    0.0762 C   0  0  1  0  0  0  0  0  0  0  0  0
   -0.4222   -0.7978   -0.7742 C   0  0  1  0  0  0  0  0  0  0  0  0
    0.7084   -1.3653    0.0733 C   0  0  1  0  0  0  0  0  0  0  0  0
   -1.0960   -0.8899    1.4759 C   0  0  0  0  0  0  0  0  0  0  0  0
    2.0442   -0.6880   -0.1762 C   0  0  0  0  0  0  0  0  0  0  0  0
   -4.0060   -0.9495    0.3554 C   0  0  0  0  0  0  0  0  0  0  0  0
   -5.2376   -0.1361    0.0582 C   0  0  0  0  0  0  0  0  0  0  0  0
    5.0767    0.3419   -0.0664 C   0  0  0  0  0  0  0  0  0  0  0  0
   -5.4900    1.0519    0.7440 C   0  0  0  0  0  0  0  0  0  0  0  0
   -6.1313   -0.5830   -0.9150 C   0  0  0  0  0  0  0  0  0  0  0  0
    5.6057    1.0804    0.9920 C   0  0  0  0  0  0  0  0  0  0  0  0
    4.8471    0.9545   -1.2982 C   0  0  0  0  0  0  0  0  0  0  0  0
   -6.6360    1.7932    0.4567 C   0  0  0  0  0  0  0  0  0  0  0  0
   -7.2776    0.1582   -1.2023 C   0  0  0  0  0  0  0  0  0  0  0  0
   -7.5300    1.3463   -0.5165 C   0  0  0  0  0  0  0  0  0  0  0  0
    5.9052    2.4317    0.8186 C   0  0  0  0  0  0  0  0  0  0  0  0
    5.1464    2.3057   -1.4718 C   0  0  0  0  0  0  0  0  0  0  0  0
    5.6755    3.0444   -0.4133 C   0  0  0  0  0  0  0  0  0  0  0  0
   -1.8410   -2.2181   -0.0596 H   0  0  0  0  0  0  0  0  0  0  0  0
   -0.3228    0.2887   -0.8901 H   0  0  0  0  0  0  0  0  0  0  0  0
    0.8130   -2.4464   -0.0880 H   0  0  0  0  0  0  0  0  0  0  0  0
   -1.2079    0.1580    1.7776 H   0  0  0  0  0  0  0  0  0  0  0  0
   -1.5734   -1.5194    2.2329 H   0  0  0  0  0  0  0  0  0  0  0  0
    1.9840    0.3758    0.0796 H   0  0  0  0  0  0  0  0  0  0  0  0
    2.3134   -0.7882   -1.2319 H   0  0  0  0  0  0  0  0  0  0  0  0
   -2.9270   -0.3185   -1.2470 H   0  0  0  0  0  0  0  0  0  0  0  0
   -3.9061   -1.0376    1.4447 H   0  0  0  0  0  0  0  0  0  0  0  0
   -4.1473   -1.9722   -0.0186 H   0  0  0  0  0  0  0  0  0  0  0  0
   -0.5568   -2.3525   -1.9470 H   0  0  0  0  0  0  0  0  0  0  0  0
    2.8943   -1.2626    1.6943 H   0  0  0  0  0  0  0  0  0  0  0  0
   -5.9477   -1.5053   -1.4597 H   0  0  0  0  0  0  0  0  0  0  0  0
    5.7851    0.6259    1.9622 H   0  0  0  0  0  0  0  0  0  0  0  0
    4.4331    0.3995   -2.1351 H   0  0  0  0  0  0  0  0  0  0  0  0
   -6.8452    2.7206    0.9831 H   0  0  0  0  0  0  0  0  0  0  0  0
   -7.9733   -0.1893   -1.9605 H   0  0  0  0  0  0  0  0  0  0  0  0
   -8.4223    1.9235   -0.7405 H   0  0  0  0  0  0  0  0  0  0  0  0
    6.3152    3.0075    1.6432 H   0  0  0  0  0  0  0  0  0  0  0  0
    4.9668    2.7831   -2.4306 H   0  0  0  0  0  0  0  0  0  0  0  0
   -4.9667    2.3381    2.0630 H   0  0  0  0  0  0  0  0  0  0  0  0
    5.9080    4.0967   -0.5482 H   0  0  0  0  0  0  0  0  0  0  0  0
  1  4  2  0  0  0  0
  1  5  2  0  0  0  0
  1  8  1  0  0  0  0
  1 16  1  0  0  0  0
  2 11  1  0  0  0  0
  2 12  1  0  0  0  0
  3 10  1  0  0  0  0
  3 37  1  0  0  0  0
  6 17  1  0  0  0  0
  6 47  1  0  0  0  0
  7  9  1  0  0  0  0
  7 14  1  0  0  0  0
  7 34  1  0  0  0  0
  8 13  1  0  0  0  0
  8 38  1  0  0  0  0
  9 10  1  0  0  0  0
  9 12  1  0  0  0  0
  9 27  1  0  0  0  0
 10 11  1  0  0  0  0
 10 28  1  0  0  0  0
 11 13  1  0  0  0  0
 11 29  1  0  0  0  0
 12 30  1  0  0  0  0
 12 31  1  0  0  0  0
 13 32  1  0  0  0  0
 13 33  1  0  0  0  0
 14 15  1  0  0  0  0
 14 35  1  0  0  0  0
 14 36  1  0  0  0  0
 15 17  1  0  0  0  0
 15 18  2  0  0  0  0
 16 19  2  0  0  0  0
 16 20  1  0  0  0  0
 17 21  2  0  0  0  0
 18 22  1  0  0  0  0
 18 39  1  0  0  0  0
 19 24  1  0  0  0  0
 19 40  1  0  0  0  0
 20 25  2  0  0  0  0
 20 41  1  0  0  0  0
 21 23  1  0  0  0  0
 21 42  1  0  0  0  0
 22 23  2  0  0  0  0
 22 43  1  0  0  0  0
 23 44  1  0  0  0  0
 24 26  2  0  0  0  0
 24 45  1  0  0  0  0
 25 26  1  0  0  0  0
 25 46  1  0  0  0  0
 26 48  1  0  0  0  0
M  END
> <PUBCHEM_COMPOUND_CID>
75536686

> <PUBCHEM_CONFORMER_RMSD>
1.4

> <PUBCHEM_CONFORMER_DIVERSEORDER>
1
62
10
43
74
76
26
37
71
19
63
18
25
42
5
16
17
77
40
72
46
51
48
75
3
64
34
50
45
60
30
27
67
8
33
41
78
73
49
9
32
21
6
79
15
20
69
53
2
23
52
38
44
39
58
65
12
22
7
36
57
54
31
55
35
24
80
59
28
61
47
13
4
14
66
29
56
68
70
11

> <PUBCHEM_MMFF94_PARTIAL_CHARGES>
39
1 1.45
10 0.28
11 0.28
12 0.28
13 0.36
14 0.41
15 -0.14
16 -0.01
17 0.08
18 -0.15
19 -0.15
2 -0.56
20 -0.15
21 -0.15
22 -0.15
23 -0.15
24 -0.15
25 -0.15
26 -0.15
3 -0.68
34 0.36
37 0.4
38 0.42
39 0.15
4 -0.65
40 0.15
41 0.15
42 0.15
43 0.15
44 0.15
45 0.15
46 0.15
47 0.45
48 0.15
5 -0.65
6 -0.53
7 -0.9
8 -0.91
9 0.27

> <PUBCHEM_EFFECTIVE_ROTOR_COUNT>
8

> <PUBCHEM_PHARMACOPHORE_FEATURES>
12
1 2 acceptor
1 3 acceptor
1 3 donor
1 4 acceptor
1 5 acceptor
1 6 donor
1 7 cation
1 7 donor
1 8 donor
5 2 9 10 11 12 rings
6 15 17 18 21 22 23 rings
6 16 19 20 24 25 26 rings

> <PUBCHEM_HEAVY_ATOM_COUNT>
26

> <PUBCHEM_ATOM_DEF_STEREO_COUNT>
3

> <PUBCHEM_ATOM_UDEF_STEREO_COUNT>
0

> <PUBCHEM_BOND_DEF_STEREO_COUNT>
0

> <PUBCHEM_BOND_UDEF_STEREO_COUNT>
0

> <PUBCHEM_ISOTOPIC_ATOM_COUNT>
0

> <PUBCHEM_COMPONENT_COUNT>
1

> <PUBCHEM_CACTVS_TAUTO_COUNT>
3

> <PUBCHEM_CONFORMER_ID>
0480992E00000001

> <PUBCHEM_MMFF94_ENERGY>
48.1777

> <PUBCHEM_FEATURE_SELFOVERLAP>
60.916

> <PUBCHEM_SHAPE_FINGERPRINT>
10 15 16008469849807369789
10319926 262 14273464691050077805
10554248 39 18131062684827009295
10638233 991 18409730638632799817
10906281 52 17988939838223398571
11386260 185 18272098180279493308
11408170 132 14548471159308003089
11991303 11 16415190222161359093
125118 31 18333449824664592469
13533116 47 17749385906806216202
13668630 136 12967120623969493197
13878862 14 18334005095543250380
14251757 52 18411415116079375321
14347332 77 10879726359309802770
15183329 4 17775569740728082969
15348495 7 15430330169261053741
155225 6 17752495519148179428
15840311 113 18261114045831779549
1979834 28 15068616076803106186
20157964 124 18410856560109580298
20281389 69 18260265227118552269
21150785 3 16845572045414912713
21298829 104 18337392755219662756
21344244 181 12175904367728929165
21521239 73 12391511979580609429
21641784 216 16630537197616782217
21792934 111 15792277229529997487
22122407 14 18338245945687227976
23081809 10 17632581517980088243
249057 25 17916591933864881634
2748736 6 18334855047616465041
2838139 119 18411981338871807121
328310 630 18342463634306375889
33382 64 9439406817537934734
3472631 163 18059013999041687756
394071 54 17604151510308452052
397830 11 17604162522493543387
44555599 121 18341054021412740601
465052 167 8214152850145908408
5104073 3 17748827457672416914
6328613 192 18411981373479263993
6898599 12 18199468955230986263

> <PUBCHEM_SHAPE_MULTIPOLES>
499.61
22.87
2.57
1.46
18.19
1.3
0.11
13.83
1.61
-4.34
0
-0.19
0.01
-1.13

> <PUBCHEM_SHAPE_SELFOVERLAP>
1043.374

> <PUBCHEM_SHAPE_VOLUME>
283.1

> <PUBCHEM_COORDINATE_TYPE>
2
5
10

$$$$
