11884065
  -OEChem-12032416193D

 56 59  0     1  0  0  0  0  0999 V2000
   -6.9421   -3.9557   -0.3005 F   0  0  0  0  0  0  0  0  0  0  0  0
   -8.9375   -3.1122   -0.1957 F   0  0  0  0  0  0  0  0  0  0  0  0
   -7.6906   -3.1722    1.5849 F   0  0  0  0  0  0  0  0  0  0  0  0
    1.0310    1.7708    1.4189 O   0  0  0  0  0  0  0  0  0  0  0  0
    0.4317    3.7226   -0.8691 O   0  0  0  0  0  0  0  0  0  0  0  0
    3.4079    1.9249   -0.0068 O   0  0  0  0  0  0  0  0  0  0  0  0
   -3.7322    2.5466   -0.3966 O   0  0  0  0  0  0  0  0  0  0  0  0
    3.7481    0.0688   -1.2987 O   0  0  0  0  0  0  0  0  0  0  0  0
    9.2468   -3.1723    0.0476 O   0  0  0  0  0  0  0  0  0  0  0  0
   -2.0051    1.4913    0.7211 N   0  0  0  0  0  0  0  0  0  0  0  0
   -3.9717    0.3494    0.3945 N   0  0  0  0  0  0  0  0  0  0  0  0
    5.2747    0.7120    0.3553 N   0  0  0  0  0  0  0  0  0  0  0  0
   -0.1410    2.4423   -0.5301 C   0  0  1  0  0  0  0  0  0  0  0  0
    0.9897    1.5805   -0.0052 C   0  0  1  0  0  0  0  0  0  0  0  0
   -1.0675    2.5856    0.6547 C   0  0  2  0  0  0  0  0  0  0  0  0
    2.1982    2.1781   -0.6848 C   0  0  1  0  0  0  0  0  0  0  0  0
   -0.1001    2.5565    1.8255 C   0  0  0  0  0  0  0  0  0  0  0  0
    1.8559    3.6507   -0.7075 C   0  0  0  0  0  0  0  0  0  0  0  0
   -3.2951    1.5533    0.1794 C   0  0  0  0  0  0  0  0  0  0  0  0
    4.1245    0.8146   -0.4029 C   0  0  0  0  0  0  0  0  0  0  0  0
   -5.2884    0.0119    0.0035 C   0  0  0  0  0  0  0  0  0  0  0  0
    6.2840   -0.2744    0.2766 C   0  0  0  0  0  0  0  0  0  0  0  0
   -5.8057   -1.2477    0.3060 C   0  0  0  0  0  0  0  0  0  0  0  0
   -6.0699    0.9396   -0.6853 C   0  0  0  0  0  0  0  0  0  0  0  0
   -7.1042   -1.5795   -0.0803 C   0  0  0  0  0  0  0  0  0  0  0  0
    7.3844   -0.2160    1.1318 C   0  0  0  0  0  0  0  0  0  0  0  0
    6.1791   -1.3068   -0.6556 C   0  0  0  0  0  0  0  0  0  0  0  0
   -7.3685    0.6078   -1.0716 C   0  0  0  0  0  0  0  0  0  0  0  0
   -7.8855   -0.6519   -0.7690 C   0  0  0  0  0  0  0  0  0  0  0  0
    8.3799   -1.1900    1.0548 C   0  0  0  0  0  0  0  0  0  0  0  0
    7.1746   -2.2807   -0.7325 C   0  0  0  0  0  0  0  0  0  0  0  0
   -7.6570   -2.9262    0.2426 C   0  0  0  0  0  0  0  0  0  0  0  0
    8.2750   -2.2223    0.1228 C   0  0  0  0  0  0  0  0  0  0  0  0
    9.0768   -4.1994   -0.9279 C   0  0  0  0  0  0  0  0  0  0  0  0
   -0.6106    2.0390   -1.4329 H   0  0  0  0  0  0  0  0  0  0  0  0
    0.8624    0.5106   -0.1941 H   0  0  0  0  0  0  0  0  0  0  0  0
   -1.6266    3.5274    0.6436 H   0  0  0  0  0  0  0  0  0  0  0  0
    2.2356    1.8367   -1.7286 H   0  0  0  0  0  0  0  0  0  0  0  0
   -0.5257    2.1335    2.7407 H   0  0  0  0  0  0  0  0  0  0  0  0
    0.2708    3.5624    2.0512 H   0  0  0  0  0  0  0  0  0  0  0  0
    2.3460    4.1795   -1.5306 H   0  0  0  0  0  0  0  0  0  0  0  0
    2.1323    4.1567    0.2244 H   0  0  0  0  0  0  0  0  0  0  0  0
   -1.6938    0.6119    1.1225 H   0  0  0  0  0  0  0  0  0  0  0  0
   -3.4637   -0.3770    0.8929 H   0  0  0  0  0  0  0  0  0  0  0  0
    5.4160    1.4338    1.0579 H   0  0  0  0  0  0  0  0  0  0  0  0
   -5.1992   -1.9737    0.8429 H   0  0  0  0  0  0  0  0  0  0  0  0
   -5.7410    1.9329   -0.9557 H   0  0  0  0  0  0  0  0  0  0  0  0
    7.4781    0.5830    1.8628 H   0  0  0  0  0  0  0  0  0  0  0  0
    5.3566   -1.4161   -1.3488 H   0  0  0  0  0  0  0  0  0  0  0  0
   -7.9779    1.3294   -1.6080 H   0  0  0  0  0  0  0  0  0  0  0  0
   -8.8990   -0.8917   -1.0784 H   0  0  0  0  0  0  0  0  0  0  0  0
    9.2348   -1.1393    1.7235 H   0  0  0  0  0  0  0  0  0  0  0  0
    7.0316   -3.0548   -1.4788 H   0  0  0  0  0  0  0  0  0  0  0  0
    8.1860   -4.8036   -0.7251 H   0  0  0  0  0  0  0  0  0  0  0  0
    9.0801   -3.7930   -1.9450 H   0  0  0  0  0  0  0  0  0  0  0  0
    9.9408   -4.8673   -0.8480 H   0  0  0  0  0  0  0  0  0  0  0  0
  1 32  1  0  0  0  0
  2 32  1  0  0  0  0
  3 32  1  0  0  0  0
  4 14  1  0  0  0  0
  4 17  1  0  0  0  0
  5 13  1  0  0  0  0
  5 18  1  0  0  0  0
  6 16  1  0  0  0  0
  6 20  1  0  0  0  0
  7 19  2  0  0  0  0
  8 20  2  0  0  0  0
  9 33  1  0  0  0  0
  9 34  1  0  0  0  0
 10 15  1  0  0  0  0
 10 19  1  0  0  0  0
 10 43  1  0  0  0  0
 11 19  1  0  0  0  0
 11 21  1  0  0  0  0
 11 44  1  0  0  0  0
 12 20  1  0  0  0  0
 12 22  1  0  0  0  0
 12 45  1  0  0  0  0
 13 14  1  0  0  0  0
 13 15  1  0  0  0  0
 13 35  1  0  0  0  0
 14 16  1  0  0  0  0
 14 36  1  0  0  0  0
 15 17  1  0  0  0  0
 15 37  1  0  0  0  0
 16 18  1  0  0  0  0
 16 38  1  0  0  0  0
 17 39  1  0  0  0  0
 17 40  1  0  0  0  0
 18 41  1  0  0  0  0
 18 42  1  0  0  0  0
 21 23  1  0  0  0  0
 21 24  2  0  0  0  0
 22 26  2  0  0  0  0
 22 27  1  0  0  0  0
 23 25  2  0  0  0  0
 23 46  1  0  0  0  0
 24 28  1  0  0  0  0
 24 47  1  0  0  0  0
 25 29  1  0  0  0  0
 25 32  1  0  0  0  0
 26 30  1  0  0  0  0
 26 48  1  0  0  0  0
 27 31  2  0  0  0  0
 27 49  1  0  0  0  0
 28 29  2  0  0  0  0
 28 50  1  0  0  0  0
 29 51  1  0  0  0  0
 30 33  2  0  0  0  0
 30 52  1  0  0  0  0
 31 33  1  0  0  0  0
 31 53  1  0  0  0  0
 34 54  1  0  0  0  0
 34 55  1  0  0  0  0
 34 56  1  0  0  0  0
M  END
> <PUBCHEM_COMPOUND_CID>
11884065

> <PUBCHEM_CONFORMER_RMSD>
1.2

> <PUBCHEM_CONFORMER_DIVERSEORDER>
1
95
103
113
25
22
98
50
63
83
94
97
74
70
56
79
102
55
107
61
43
108
88
77
28
90
60
38
80
6
23
105
62
69
73
41
75
40
8
86
32
101
89
78
54
93
30
110
85
82
96
47
100
71
114
29
37
27
34
84
36
87
51
9
31
99
112
106
53
76
49
24
35
33
68
46
104
66
18
72
3
65
91
42
17
10
11
92
67
39
115
20
5
21
7
81
64
58
109
26
44
52
4
16
45
111
14
12
19
57
59
13
48
2
15

> <PUBCHEM_MMFF94_PARTIAL_CHARGES>
45
1 -0.34
10 -0.73
11 -0.55
12 -0.55
13 0.28
14 0.28
15 0.3
16 0.28
17 0.28
18 0.28
19 0.69
2 -0.34
20 0.78
21 0.12
22 0.12
23 -0.15
24 -0.15
25 -0.14
26 -0.15
27 -0.15
28 -0.15
29 -0.15
3 -0.34
30 -0.15
31 -0.15
32 1.16
33 0.08
34 0.28
4 -0.56
43 0.37
44 0.37
45 0.37
46 0.15
47 0.15
48 0.15
49 0.15
5 -0.56
50 0.15
51 0.15
52 0.15
53 0.15
6 -0.43
7 -0.57
8 -0.57
9 -0.36

> <PUBCHEM_EFFECTIVE_ROTOR_COUNT>
11.2

> <PUBCHEM_PHARMACOPHORE_FEATURES>
12
1 10 donor
1 11 donor
1 12 donor
1 4 acceptor
1 5 acceptor
1 7 acceptor
1 8 acceptor
1 9 acceptor
5 4 13 14 15 17 rings
5 5 13 14 16 18 rings
6 21 23 24 25 28 29 rings
6 22 26 27 30 31 33 rings

> <PUBCHEM_HEAVY_ATOM_COUNT>
34

> <PUBCHEM_ATOM_DEF_STEREO_COUNT>
4

> <PUBCHEM_ATOM_UDEF_STEREO_COUNT>
0

> <PUBCHEM_BOND_DEF_STEREO_COUNT>
0

> <PUBCHEM_BOND_UDEF_STEREO_COUNT>
0

> <PUBCHEM_ISOTOPIC_ATOM_COUNT>
0

> <PUBCHEM_COMPONENT_COUNT>
1

> <PUBCHEM_CACTVS_TAUTO_COUNT>
6

> <PUBCHEM_CONFORMER_ID>
00B5562100000001

> <PUBCHEM_MMFF94_ENERGY>
101.2988

> <PUBCHEM_FEATURE_SELFOVERLAP>
61.667

> <PUBCHEM_SHAPE_FINGERPRINT>
10 15 11384113051008393141
10190206 1 12613029461810267063
10258705 36 17984428434989598814
10669705 251 18343588413148029550
10740516 88 18412833469079061922
10883706 17 18334298711891541866
11273773 46 18408884036760845351
11607047 74 18263928903744299676
11672396 167 18339355371196638935
12013929 112 17531231848268569447
12013929 27 18187645868775632231
12013929 94 18342740690362742058
12522641 68 10881407538332849936
12539747 164 18266183833555201113
12539765 74 7997975686981828128
13782708 43 18340490088444505965
13974486 7 18335974320964510866
14344974 204 18341053996028032654
14359421 15 17967530125974319010
15152005 304 18339655493977830542
15152005 77 18201433653740145727
15198563 99 16226325902988731556
15230672 131 18261103072697136435
15347591 1 18411419531401734033
15455199 99 18194120939507258238
15510800 12 18272941504932853006
15773216 30 18193560197514706020
16067689 68 18129957675973319385
16126227 98 9727341438152729720
16990366 60 18410571795209143504
16991971 28 18334857216732893618
16994733 274 10952048948571441124
18603816 31 17631999928448760853
19303781 99 18340758325756589047
19841028 212 18408882941169742664
20105231 36 17968664926129051875
2026 5 18410011013929681827
20721686 146 8430321246433536139
20982279 24 17605005870300124787
21095123 293 10303801108499201202
21130935 74 18341613780311209273
212700 22 18411972551427047070
21307412 95 17676498241043586849
23389318 12 18187655691877703308
23528940 14 18190170206451923842
25025965 108 18059563742398715287
25242607 90 18410851058293157600
25269216 80 13551482509885589329
2851757 41 18411423903398418222
3711267 37 9367340479163675386
406291 66 18410857663673575842
4169191 19 9223241737028818171
44426701 291 18187942728108971987
4760202 70 18261123976645819068
5718773 13 18410293618313622420
5758199 1 10735871777138918780
6126387 218 17632292338259595737

> <PUBCHEM_SHAPE_MULTIPOLES>
627.72
33.84
5.15
1.15
9.46
2.31
-0.25
50.32
1.13
-0.55
0.39
0.27
-0.22
1.93

> <PUBCHEM_SHAPE_SELFOVERLAP>
1356.337

> <PUBCHEM_SHAPE_VOLUME>
345.4

> <PUBCHEM_COORDINATE_TYPE>
2
5
10

$$$$
