40779265
  -OEChem-12032416163D

 59 62  0     1  0  0  0  0  0999 V2000
   -5.5834    1.4592    0.9447 O   0  0  0  0  0  0  0  0  0  0  0  0
   -5.8421    3.9061   -0.1478 O   0  0  0  0  0  0  0  0  0  0  0  0
    6.4777    3.0250   -0.1359 O   0  0  0  0  0  0  0  0  0  0  0  0
   -2.9766   -2.3225    0.6657 N   0  0  2  0  0  0  0  0  0  0  0  0
    1.7425   -2.8800    0.4068 N   0  0  0  0  0  0  0  0  0  0  0  0
   -3.2828    1.4234    0.5946 N   0  0  0  0  0  0  0  0  0  0  0  0
    2.9036   -2.2122    0.5165 N   0  0  0  0  0  0  0  0  0  0  0  0
   -1.5259   -2.0974   -1.4856 C   0  0  2  0  0  0  0  0  0  0  0  0
   -0.6812   -2.6793   -0.3185 C   0  0  2  0  0  0  0  0  0  0  0  0
   -3.1249   -0.9585    0.0932 C   0  0  2  0  0  0  0  0  0  0  0  0
   -2.1194   -0.7386   -1.0575 C   0  0  0  0  0  0  0  0  0  0  0  0
   -2.7115   -3.0624   -1.7013 C   0  0  0  0  0  0  0  0  0  0  0  0
   -1.5494   -2.5941    0.9694 C   0  0  0  0  0  0  0  0  0  0  0  0
   -3.4252   -3.2963   -0.3583 C   0  0  0  0  0  0  0  0  0  0  0  0
    0.7230   -2.1324   -0.1054 C   0  0  0  0  0  0  0  0  0  0  0  0
   -3.0207    0.1351    1.1583 C   0  0  0  0  0  0  0  0  0  0  0  0
    1.2541   -0.8890   -0.3472 C   0  0  0  0  0  0  0  0  0  0  0  0
    2.5990   -0.9966    0.0543 C   0  0  0  0  0  0  0  0  0  0  0  0
    1.6811   -4.2619    0.8232 C   0  0  0  0  0  0  0  0  0  0  0  0
   -4.5552    1.9888    0.5318 C   0  0  0  0  0  0  0  0  0  0  0  0
    3.5975    0.0395    0.0065 C   0  0  0  0  0  0  0  0  0  0  0  0
   -4.5413    3.3583   -0.1130 C   0  0  0  0  0  0  0  0  0  0  0  0
    3.2234    1.3763    0.1432 C   0  0  0  0  0  0  0  0  0  0  0  0
    4.9394   -0.2938   -0.1780 C   0  0  0  0  0  0  0  0  0  0  0  0
    4.1910    2.3798    0.0952 C   0  0  0  0  0  0  0  0  0  0  0  0
    5.9071    0.7096   -0.2260 C   0  0  0  0  0  0  0  0  0  0  0  0
    5.5329    2.0463   -0.0894 C   0  0  0  0  0  0  0  0  0  0  0  0
   -5.8589    5.1969   -0.7505 C   0  0  0  0  0  0  0  0  0  0  0  0
    6.0261    4.3705    0.0110 C   0  0  0  0  0  0  0  0  0  0  0  0
   -0.9333   -1.9941   -2.4006 H   0  0  0  0  0  0  0  0  0  0  0  0
   -0.5534   -3.7459   -0.5571 H   0  0  0  0  0  0  0  0  0  0  0  0
   -4.1395   -0.8831   -0.3257 H   0  0  0  0  0  0  0  0  0  0  0  0
   -1.3347   -0.0367   -0.7725 H   0  0  0  0  0  0  0  0  0  0  0  0
   -2.6435   -0.2891   -1.9107 H   0  0  0  0  0  0  0  0  0  0  0  0
   -2.3592   -4.0178   -2.1072 H   0  0  0  0  0  0  0  0  0  0  0  0
   -3.4098   -2.6372   -2.4324 H   0  0  0  0  0  0  0  0  0  0  0  0
   -1.4804   -3.5459    1.5124 H   0  0  0  0  0  0  0  0  0  0  0  0
   -1.1599   -1.8462    1.6697 H   0  0  0  0  0  0  0  0  0  0  0  0
   -4.5110   -3.2224   -0.4956 H   0  0  0  0  0  0  0  0  0  0  0  0
   -3.2430   -4.3189   -0.0039 H   0  0  0  0  0  0  0  0  0  0  0  0
   -2.0208    0.1829    1.6011 H   0  0  0  0  0  0  0  0  0  0  0  0
   -3.7366   -0.0533    1.9668 H   0  0  0  0  0  0  0  0  0  0  0  0
    0.7581   -0.0291   -0.7692 H   0  0  0  0  0  0  0  0  0  0  0  0
   -2.4963    1.9462    0.2197 H   0  0  0  0  0  0  0  0  0  0  0  0
    1.5046   -4.8813   -0.0594 H   0  0  0  0  0  0  0  0  0  0  0  0
    2.6303   -4.5443    1.2871 H   0  0  0  0  0  0  0  0  0  0  0  0
    0.8743   -4.3756    1.5503 H   0  0  0  0  0  0  0  0  0  0  0  0
   -3.8774    4.0085    0.4686 H   0  0  0  0  0  0  0  0  0  0  0  0
   -4.1509    3.2564   -1.1322 H   0  0  0  0  0  0  0  0  0  0  0  0
    2.1871    1.6661    0.2986 H   0  0  0  0  0  0  0  0  0  0  0  0
    5.2610   -1.3258   -0.2962 H   0  0  0  0  0  0  0  0  0  0  0  0
    3.8320    3.3968    0.2105 H   0  0  0  0  0  0  0  0  0  0  0  0
    6.9506    0.4443   -0.3719 H   0  0  0  0  0  0  0  0  0  0  0  0
   -6.8886    5.5640   -0.7471 H   0  0  0  0  0  0  0  0  0  0  0  0
   -5.5103    5.1394   -1.7860 H   0  0  0  0  0  0  0  0  0  0  0  0
   -5.2364    5.8929   -0.1799 H   0  0  0  0  0  0  0  0  0  0  0  0
    6.9083    5.0162   -0.0513 H   0  0  0  0  0  0  0  0  0  0  0  0
    5.5759    4.5387    0.9953 H   0  0  0  0  0  0  0  0  0  0  0  0
    5.3580    4.6623   -0.8064 H   0  0  0  0  0  0  0  0  0  0  0  0
  1 20  2  0  0  0  0
  2 22  1  0  0  0  0
  2 28  1  0  0  0  0
  3 27  1  0  0  0  0
  3 29  1  0  0  0  0
  4 10  1  0  0  0  0
  4 13  1  0  0  0  0
  4 14  1  0  0  0  0
  5  7  1  0  0  0  0
  5 15  1  0  0  0  0
  5 19  1  0  0  0  0
  6 16  1  0  0  0  0
  6 20  1  0  0  0  0
  6 44  1  0  0  0  0
  7 18  2  0  0  0  0
  8  9  1  0  0  0  0
  8 11  1  0  0  0  0
  8 12  1  0  0  0  0
  8 30  1  0  0  0  0
  9 13  1  0  0  0  0
  9 15  1  0  0  0  0
  9 31  1  0  0  0  0
 10 11  1  0  0  0  0
 10 16  1  0  0  0  0
 10 32  1  0  0  0  0
 11 33  1  0  0  0  0
 11 34  1  0  0  0  0
 12 14  1  0  0  0  0
 12 35  1  0  0  0  0
 12 36  1  0  0  0  0
 13 37  1  0  0  0  0
 13 38  1  0  0  0  0
 14 39  1  0  0  0  0
 14 40  1  0  0  0  0
 15 17  2  0  0  0  0
 16 41  1  0  0  0  0
 16 42  1  0  0  0  0
 17 18  1  0  0  0  0
 17 43  1  0  0  0  0
 18 21  1  0  0  0  0
 19 45  1  0  0  0  0
 19 46  1  0  0  0  0
 19 47  1  0  0  0  0
 20 22  1  0  0  0  0
 21 23  2  0  0  0  0
 21 24  1  0  0  0  0
 22 48  1  0  0  0  0
 22 49  1  0  0  0  0
 23 25  1  0  0  0  0
 23 50  1  0  0  0  0
 24 26  2  0  0  0  0
 24 51  1  0  0  0  0
 25 27  2  0  0  0  0
 25 52  1  0  0  0  0
 26 27  1  0  0  0  0
 26 53  1  0  0  0  0
 28 54  1  0  0  0  0
 28 55  1  0  0  0  0
 28 56  1  0  0  0  0
 29 57  1  0  0  0  0
 29 58  1  0  0  0  0
 29 59  1  0  0  0  0
M  END
> <PUBCHEM_COMPOUND_CID>
40779265

> <PUBCHEM_CONFORMER_RMSD>
1

> <PUBCHEM_CONFORMER_DIVERSEORDER>
1
10
5
7
16
11
4
6
2
15
19
17
18
9
3
14
20
13
12
8

> <PUBCHEM_MMFF94_PARTIAL_CHARGES>
32
1 -0.57
10 0.27
13 0.27
14 0.27
15 -0.33
16 0.3
17 -0.15
18 0.23
19 0.26
2 -0.56
20 0.57
21 0.05
22 0.34
23 -0.15
24 -0.15
25 -0.15
26 -0.15
27 0.08
28 0.28
29 0.28
3 -0.36
4 -0.81
43 0.15
44 0.37
5 0.31
50 0.15
51 0.15
52 0.15
53 0.15
6 -0.73
7 -0.71
9 0.18

> <PUBCHEM_EFFECTIVE_ROTOR_COUNT>
9.2

> <PUBCHEM_PHARMACOPHORE_FEATURES>
9
1 1 acceptor
1 2 acceptor
1 3 acceptor
1 4 cation
1 6 donor
1 7 acceptor
5 5 7 15 17 18 rings
6 21 23 24 25 26 27 rings
8 4 8 9 10 11 12 13 14 rings

> <PUBCHEM_HEAVY_ATOM_COUNT>
29

> <PUBCHEM_ATOM_DEF_STEREO_COUNT>
3

> <PUBCHEM_ATOM_UDEF_STEREO_COUNT>
0

> <PUBCHEM_BOND_DEF_STEREO_COUNT>
0

> <PUBCHEM_BOND_UDEF_STEREO_COUNT>
0

> <PUBCHEM_ISOTOPIC_ATOM_COUNT>
0

> <PUBCHEM_COMPONENT_COUNT>
1

> <PUBCHEM_CACTVS_TAUTO_COUNT>
2

> <PUBCHEM_CONFORMER_ID>
026E3E0100000001

> <PUBCHEM_MMFF94_ENERGY>
78.6237

> <PUBCHEM_FEATURE_SELFOVERLAP>
45.679

> <PUBCHEM_SHAPE_FINGERPRINT>
10050765 1 18410576154406341691
10670039 82 18198059390562555376
10675989 125 17979075985718696377
10864689 126 18340212891123938324
10871710 139 18269835479300791959
11135609 127 17905600009655982381
11621639 179 17755587040379639092
12107183 9 18265326223549847634
14223995 32 18341601621548990424
14251764 75 18270411481691676225
14790565 3 18337394963053781664
15064981 113 17703508896074931510
15400415 2 18410013217116295760
15705408 1 16262363273094565215
19304152 47 18189349007454143065
21033648 29 16516816828202831909
21388113 180 18193557762246663077
23569914 2 17271122636779988248
283562 15 18192142913882832599
2838139 119 18338797810704194991
3388396 114 17477196601712595821
5104073 3 18113893901544534706
57634706 306 18044368328520077205
6036956 94 18118969332738399541
6058803 2 18267282309906162479
6327066 14 18339922619810982117
633830 44 18412544336523887494
636775 72 17837771489573408536
7288768 16 17967818262239232843
7808743 9 18413669119147752715

> <PUBCHEM_SHAPE_MULTIPOLES>
559.27
15.4
6.95
1.04
8.92
5.64
-0.18
24.72
-0.18
-6.35
-0.55
-1.01
-0.58
-0.66

> <PUBCHEM_SHAPE_SELFOVERLAP>
1190.384

> <PUBCHEM_SHAPE_VOLUME>
309.8

> <PUBCHEM_COORDINATE_TYPE>
2
5
10

$$$$
