45784152
  -OEChem-12032416203D

 64 67  0     1  0  0  0  0  0999 V2000
    2.0605    0.1499    0.8778 O   0  0  0  0  0  0  0  0  0  0  0  0
   -3.0992    0.1280   -1.8554 O   0  0  0  0  0  0  0  0  0  0  0  0
   -2.9614   -1.6743   -0.4113 N   0  0  0  0  0  0  0  0  0  0  0  0
    3.3017   -1.1351    2.2243 N   0  0  0  0  0  0  0  0  0  0  0  0
   -3.5220    0.3982    0.4378 N   0  0  0  0  0  0  0  0  0  0  0  0
    4.1069   -0.1210    1.7403 N   0  0  0  0  0  0  0  0  0  0  0  0
    4.2220    4.0682   -1.3022 N   0  0  0  0  0  0  0  0  0  0  0  0
   -0.1057   -2.2403   -1.1651 C   0  0  1  0  0  0  0  0  0  0  0  0
   -1.2460   -3.2833   -1.0573 C   0  0  1  0  0  0  0  0  0  0  0  0
    1.1512   -2.7429   -0.4385 C   0  0  0  0  0  0  0  0  0  0  0  0
    0.8881   -3.0262    1.0526 C   0  0  2  0  0  0  0  0  0  0  0  0
    0.2329   -1.9165   -2.6235 C   0  0  0  0  0  0  0  0  0  0  0  0
   -0.3795   -3.8308    1.2578 C   0  0  0  0  0  0  0  0  0  0  0  0
   -1.3154   -3.9453    0.2989 C   0  0  0  0  0  0  0  0  0  0  0  0
   -2.6042   -2.6543   -1.3886 C   0  0  0  0  0  0  0  0  0  0  0  0
    0.8501   -1.7261    1.8634 C   0  0  0  0  0  0  0  0  0  0  0  0
    1.1552   -2.9832   -3.2050 C   0  0  0  0  0  0  0  0  0  0  0  0
    0.8708   -0.5347   -2.7276 C   0  0  0  0  0  0  0  0  0  0  0  0
   -0.5258   -4.5391    2.5757 C   0  0  0  0  0  0  0  0  0  0  0  0
    2.1169   -0.9372    1.6949 C   0  0  0  0  0  0  0  0  0  0  0  0
   -3.1904   -0.3196   -0.7148 C   0  0  0  0  0  0  0  0  0  0  0  0
    3.3410    0.6042    0.9590 C   0  0  0  0  0  0  0  0  0  0  0  0
    3.6395    1.7793    0.1929 C   0  0  0  0  0  0  0  0  0  0  0  0
   -3.8216    1.7762    0.5460 C   0  0  0  0  0  0  0  0  0  0  0  0
    4.9210    2.3186    0.2127 C   0  0  0  0  0  0  0  0  0  0  0  0
    2.6489    2.3830   -0.5738 C   0  0  0  0  0  0  0  0  0  0  0  0
   -4.1324    2.3268    1.7893 C   0  0  0  0  0  0  0  0  0  0  0  0
   -3.8066    2.5846   -0.5905 C   0  0  0  0  0  0  0  0  0  0  0  0
    5.1587    3.4538   -0.5453 C   0  0  0  0  0  0  0  0  0  0  0  0
    2.9884    3.5154   -1.2968 C   0  0  0  0  0  0  0  0  0  0  0  0
   -4.4282    3.6858    1.8963 C   0  0  0  0  0  0  0  0  0  0  0  0
   -4.1022    3.9436   -0.4837 C   0  0  0  0  0  0  0  0  0  0  0  0
   -4.4132    4.4941    0.7597 C   0  0  0  0  0  0  0  0  0  0  0  0
   -0.4258   -1.3136   -0.6733 H   0  0  0  0  0  0  0  0  0  0  0  0
   -1.0754   -4.0894   -1.7820 H   0  0  0  0  0  0  0  0  0  0  0  0
    1.9998   -2.0678   -0.5768 H   0  0  0  0  0  0  0  0  0  0  0  0
    1.4686   -3.7062   -0.8610 H   0  0  0  0  0  0  0  0  0  0  0  0
    1.7354   -3.6302    1.4081 H   0  0  0  0  0  0  0  0  0  0  0  0
   -0.6782   -1.8890   -3.2298 H   0  0  0  0  0  0  0  0  0  0  0  0
   -2.1836   -4.5748    0.4847 H   0  0  0  0  0  0  0  0  0  0  0  0
   -3.3899   -3.4193   -1.3660 H   0  0  0  0  0  0  0  0  0  0  0  0
   -2.6205   -2.2218   -2.3924 H   0  0  0  0  0  0  0  0  0  0  0  0
    0.7391   -1.9453    2.9322 H   0  0  0  0  0  0  0  0  0  0  0  0
   -0.0101   -1.1053    1.5850 H   0  0  0  0  0  0  0  0  0  0  0  0
    0.7727   -3.9977   -3.0593 H   0  0  0  0  0  0  0  0  0  0  0  0
    1.2358   -2.8361   -4.2892 H   0  0  0  0  0  0  0  0  0  0  0  0
    2.1789   -2.9241   -2.8208 H   0  0  0  0  0  0  0  0  0  0  0  0
    1.0735   -0.2851   -3.7749 H   0  0  0  0  0  0  0  0  0  0  0  0
    0.2026    0.2367   -2.3298 H   0  0  0  0  0  0  0  0  0  0  0  0
    1.8200   -0.4737   -2.1866 H   0  0  0  0  0  0  0  0  0  0  0  0
   -0.5963   -3.8197    3.3969 H   0  0  0  0  0  0  0  0  0  0  0  0
   -1.4237   -5.1654    2.6096 H   0  0  0  0  0  0  0  0  0  0  0  0
    0.3358   -5.1904    2.7549 H   0  0  0  0  0  0  0  0  0  0  0  0
   -3.1245   -1.9797    0.5433 H   0  0  0  0  0  0  0  0  0  0  0  0
   -3.5516   -0.1261    1.3086 H   0  0  0  0  0  0  0  0  0  0  0  0
    5.7242    1.8804    0.7962 H   0  0  0  0  0  0  0  0  0  0  0  0
    1.6321    2.0087   -0.6286 H   0  0  0  0  0  0  0  0  0  0  0  0
   -4.1476    1.7079    2.6829 H   0  0  0  0  0  0  0  0  0  0  0  0
   -3.5758    2.2326   -1.5859 H   0  0  0  0  0  0  0  0  0  0  0  0
    6.1414    3.9135   -0.5641 H   0  0  0  0  0  0  0  0  0  0  0  0
    2.2522    4.0239   -1.9106 H   0  0  0  0  0  0  0  0  0  0  0  0
   -4.6702    4.1146    2.8644 H   0  0  0  0  0  0  0  0  0  0  0  0
   -4.0908    4.5744   -1.3680 H   0  0  0  0  0  0  0  0  0  0  0  0
   -4.6434    5.5523    0.8427 H   0  0  0  0  0  0  0  0  0  0  0  0
  1 20  1  0  0  0  0
  1 22  1  0  0  0  0
  2 21  2  0  0  0  0
  3 15  1  0  0  0  0
  3 21  1  0  0  0  0
  3 54  1  0  0  0  0
  4  6  1  0  0  0  0
  4 20  2  0  0  0  0
  5 21  1  0  0  0  0
  5 24  1  0  0  0  0
  5 55  1  0  0  0  0
  6 22  2  0  0  0  0
  7 29  2  0  0  0  0
  7 30  1  0  0  0  0
  8  9  1  0  0  0  0
  8 10  1  0  0  0  0
  8 12  1  0  0  0  0
  8 34  1  0  0  0  0
  9 14  1  0  0  0  0
  9 15  1  0  0  0  0
  9 35  1  0  0  0  0
 10 11  1  0  0  0  0
 10 36  1  0  0  0  0
 10 37  1  0  0  0  0
 11 13  1  0  0  0  0
 11 16  1  0  0  0  0
 11 38  1  0  0  0  0
 12 17  1  0  0  0  0
 12 18  1  0  0  0  0
 12 39  1  0  0  0  0
 13 14  2  0  0  0  0
 13 19  1  0  0  0  0
 14 40  1  0  0  0  0
 15 41  1  0  0  0  0
 15 42  1  0  0  0  0
 16 20  1  0  0  0  0
 16 43  1  0  0  0  0
 16 44  1  0  0  0  0
 17 45  1  0  0  0  0
 17 46  1  0  0  0  0
 17 47  1  0  0  0  0
 18 48  1  0  0  0  0
 18 49  1  0  0  0  0
 18 50  1  0  0  0  0
 19 51  1  0  0  0  0
 19 52  1  0  0  0  0
 19 53  1  0  0  0  0
 22 23  1  0  0  0  0
 23 25  2  0  0  0  0
 23 26  1  0  0  0  0
 24 27  2  0  0  0  0
 24 28  1  0  0  0  0
 25 29  1  0  0  0  0
 25 56  1  0  0  0  0
 26 30  2  0  0  0  0
 26 57  1  0  0  0  0
 27 31  1  0  0  0  0
 27 58  1  0  0  0  0
 28 32  2  0  0  0  0
 28 59  1  0  0  0  0
 29 60  1  0  0  0  0
 30 61  1  0  0  0  0
 31 33  2  0  0  0  0
 31 62  1  0  0  0  0
 32 33  1  0  0  0  0
 32 63  1  0  0  0  0
 33 64  1  0  0  0  0
M  END
> <PUBCHEM_COMPOUND_CID>
45784152

> <PUBCHEM_CONFORMER_RMSD>
1

> <PUBCHEM_CONFORMER_DIVERSEORDER>
1
124
89
210
258
299
206
202
84
208
284
54
262
282
279
264
240
123
159
183
22
168
275
290
83
291
96
301
114
36
72
12
166
179
111
103
241
235
239
302
19
37
309
65
94
270
157
255
118
265
45
169
178
298
98
311
188
152
125
225
313
196
292
109
269
244
306
155
77
50
132
217
80
121
226
274
110
164
304
263
150
310
184
120
251
131
234
248
167
232
29
247
293
227
286
105
143
243
91
245
198
68
4
149
192
189
66
194
300
203
162
161
115
211
130
18
172
187
216
296
281
39
107
254
134
287
283
127
308
16
102
197
212
99
154
32
163
236
137
257
204
186
13
199
278
297
151
25
81
238
271
7
11
171
24
200
273
144
220
207
252
101
20
56
276
213
138
277
214
268
209
173
256
218
205
53
15
90
233
142
147
88
64
307
182
21
23
259
113
82
145
47
303
104
242
57
63
108
30
219
165
26
129
79
141
215
228
27
261
112
231
59
285
10
69
140
229
93
34
288
191
223
76
60
253
55
175
267
181
100
272
153
61
224
305
51
312
246
33
190
139
43
86
49
75
174
148
117
289
52
158
41
133
74
40
180
106
260
44
73
46
195
266
35
31
58
48
17
126
294
177
146
230
185
62
295
92
201
3
176
222
116
122
38
156
170
250
119
97
6
95
128
280
87
237
28
42
78
85
71
9
8
14
221
5
193
2
160
136
135
67
70
249

> <PUBCHEM_MMFF94_PARTIAL_CHARGES>
40
1 -0.28
11 0.14
13 -0.28
14 -0.29
15 0.3
16 0.18
19 0.14
2 -0.57
20 0.3
21 0.69
22 0.43
23 0.05
24 0.12
25 -0.15
26 -0.15
27 -0.15
28 -0.15
29 0.16
3 -0.73
30 0.16
31 -0.15
32 -0.15
33 -0.15
4 -0.34
40 0.15
5 -0.55
54 0.37
55 0.37
56 0.15
57 0.15
58 0.15
59 0.15
6 -0.34
60 0.15
61 0.15
62 0.15
63 0.15
64 0.15
7 -0.62
9 0.14

> <PUBCHEM_EFFECTIVE_ROTOR_COUNT>
9.8

> <PUBCHEM_PHARMACOPHORE_FEATURES>
9
1 2 acceptor
1 3 donor
1 5 donor
1 7 acceptor
3 12 17 18 hydrophobe
5 1 4 6 20 22 rings
6 24 27 28 31 32 33 rings
6 7 23 25 26 29 30 rings
6 8 9 10 11 13 14 rings

> <PUBCHEM_HEAVY_ATOM_COUNT>
33

> <PUBCHEM_ATOM_DEF_STEREO_COUNT>
3

> <PUBCHEM_ATOM_UDEF_STEREO_COUNT>
0

> <PUBCHEM_BOND_DEF_STEREO_COUNT>
0

> <PUBCHEM_BOND_UDEF_STEREO_COUNT>
0

> <PUBCHEM_ISOTOPIC_ATOM_COUNT>
0

> <PUBCHEM_COMPONENT_COUNT>
1

> <PUBCHEM_CACTVS_TAUTO_COUNT>
3

> <PUBCHEM_CONFORMER_ID>
02BA9C5800000001

> <PUBCHEM_MMFF94_ENERGY>
72.6145

> <PUBCHEM_FEATURE_SELFOVERLAP>
45.721

> <PUBCHEM_SHAPE_FINGERPRINT>
11059048 146 18409732888963983152
11578080 2 17413068535379325679
12104220 4 18264500498580170676
12156800 1 17393365333942249822
12788726 201 18124305258266754043
13615921 28 17326046755278952423
13761468 95 17983606218532844600
14114206 34 17909526682714364885
14279260 333 18118112801128344344
15210252 30 17337890226577267143
16067690 210 17979079610633768188
16991981 162 18124316266014563725
20764821 26 17113239054477814149
21860390 5 18048876295089613257
245318 6 17771341973028908201
4616759 239 16888621456723717568
469060 322 14709434369740466362
50150288 127 18051704526717221349
550186 7 18124329456217787342
5895379 119 18266727168888061544
6608658 132 17912913174269909959
9980921 221 17755322385276516884

> <PUBCHEM_SHAPE_MULTIPOLES>
642.48
9.7
7.84
2.76
3.25
1.03
0.72
17.84
-2.27
0.94
-0.41
-0.81
-2.43
-2.65

> <PUBCHEM_SHAPE_SELFOVERLAP>
1370.247

> <PUBCHEM_SHAPE_VOLUME>
353.8

> <PUBCHEM_COORDINATE_TYPE>
2
5
10

$$$$
