75537099
  -OEChem-12032416333D

 37 39  0     1  0  0  0  0  0999 V2000
   -6.1657    0.7103   -0.9080 F   0  0  0  0  0  0  0  0  0  0  0  0
    4.3552    1.9965   -0.1258 O   0  0  0  0  0  0  0  0  0  0  0  0
    2.4940    0.5708   -0.2736 N   0  0  0  0  0  0  0  0  0  0  0  0
   -0.0621   -0.4731    0.2630 N   0  0  2  0  0  0  0  0  0  0  0  0
    4.5397   -0.3537   -0.2075 N   0  0  0  0  0  0  0  0  0  0  0  0
    2.2591   -0.8450   -0.4661 C   0  0  2  0  0  0  0  0  0  0  0  0
    1.1303   -1.3256    0.4452 C   0  0  0  0  0  0  0  0  0  0  0  0
    3.6210   -1.4791   -0.1902 C   0  0  0  0  0  0  0  0  0  0  0  0
    1.3698    1.4836   -0.2843 C   0  0  0  0  0  0  0  0  0  0  0  0
    0.2415    0.9343    0.5923 C   0  0  0  0  0  0  0  0  0  0  0  0
    3.8586    0.8802   -0.1977 C   0  0  0  0  0  0  0  0  0  0  0  0
   -1.1679   -0.9617    1.0862 C   0  0  0  0  0  0  0  0  0  0  0  0
    5.9705   -0.5304   -0.0928 C   0  0  0  0  0  0  0  0  0  0  0  0
   -2.5034   -0.5152    0.5534 C   0  0  0  0  0  0  0  0  0  0  0  0
   -3.0583    0.6899    0.9841 C   0  0  0  0  0  0  0  0  0  0  0  0
   -3.1858   -1.3062   -0.3710 C   0  0  0  0  0  0  0  0  0  0  0  0
   -4.2955    1.1039    0.4908 C   0  0  0  0  0  0  0  0  0  0  0  0
   -4.4230   -0.8922   -0.8645 C   0  0  0  0  0  0  0  0  0  0  0  0
   -4.9779    0.3128   -0.4334 C   0  0  0  0  0  0  0  0  0  0  0  0
    1.9864   -0.9840   -1.5206 H   0  0  0  0  0  0  0  0  0  0  0  0
    0.8984   -2.3666    0.1893 H   0  0  0  0  0  0  0  0  0  0  0  0
    1.4487   -1.3059    1.4963 H   0  0  0  0  0  0  0  0  0  0  0  0
    3.6783   -1.9520    0.7956 H   0  0  0  0  0  0  0  0  0  0  0  0
    3.9015   -2.2032   -0.9609 H   0  0  0  0  0  0  0  0  0  0  0  0
    1.0384    1.5790   -1.3248 H   0  0  0  0  0  0  0  0  0  0  0  0
    1.6956    2.4704    0.0597 H   0  0  0  0  0  0  0  0  0  0  0  0
    0.5283    1.0252    1.6485 H   0  0  0  0  0  0  0  0  0  0  0  0
   -0.6232    1.5819    0.4261 H   0  0  0  0  0  0  0  0  0  0  0  0
   -1.0565   -0.6734    2.1406 H   0  0  0  0  0  0  0  0  0  0  0  0
   -1.1794   -2.0608    1.0954 H   0  0  0  0  0  0  0  0  0  0  0  0
    6.1893   -1.0103    0.8648 H   0  0  0  0  0  0  0  0  0  0  0  0
    6.4764    0.4372   -0.1378 H   0  0  0  0  0  0  0  0  0  0  0  0
    6.3152   -1.1655   -0.9128 H   0  0  0  0  0  0  0  0  0  0  0  0
   -2.5493    1.3098    1.7172 H   0  0  0  0  0  0  0  0  0  0  0  0
   -2.7638   -2.2461   -0.7169 H   0  0  0  0  0  0  0  0  0  0  0  0
   -4.7297    2.0402    0.8288 H   0  0  0  0  0  0  0  0  0  0  0  0
   -4.9543   -1.5074   -1.5846 H   0  0  0  0  0  0  0  0  0  0  0  0
  1 19  1  0  0  0  0
  2 11  2  0  0  0  0
  3  6  1  0  0  0  0
  3  9  1  0  0  0  0
  3 11  1  0  0  0  0
  4  7  1  0  0  0  0
  4 10  1  0  0  0  0
  4 12  1  0  0  0  0
  5  8  1  0  0  0  0
  5 11  1  0  0  0  0
  5 13  1  0  0  0  0
  6  7  1  0  0  0  0
  6  8  1  0  0  0  0
  6 20  1  0  0  0  0
  7 21  1  0  0  0  0
  7 22  1  0  0  0  0
  8 23  1  0  0  0  0
  8 24  1  0  0  0  0
  9 10  1  0  0  0  0
  9 25  1  0  0  0  0
  9 26  1  0  0  0  0
 10 27  1  0  0  0  0
 10 28  1  0  0  0  0
 12 14  1  0  0  0  0
 12 29  1  0  0  0  0
 12 30  1  0  0  0  0
 13 31  1  0  0  0  0
 13 32  1  0  0  0  0
 13 33  1  0  0  0  0
 14 15  2  0  0  0  0
 14 16  1  0  0  0  0
 15 17  1  0  0  0  0
 15 34  1  0  0  0  0
 16 18  2  0  0  0  0
 16 35  1  0  0  0  0
 17 19  2  0  0  0  0
 17 36  1  0  0  0  0
 18 19  1  0  0  0  0
 18 37  1  0  0  0  0
M  END
> <PUBCHEM_COMPOUND_CID>
75537099

> <PUBCHEM_CONFORMER_RMSD>
0.6

> <PUBCHEM_CONFORMER_DIVERSEORDER>
2
13
10
15
9
14
12
7
4
6
3
5
8
11
1

> <PUBCHEM_MMFF94_PARTIAL_CHARGES>
23
1 -0.19
10 0.27
11 0.69
12 0.41
13 0.3
14 -0.14
15 -0.15
16 -0.15
17 -0.15
18 -0.15
19 0.19
2 -0.57
3 -0.66
34 0.15
35 0.15
36 0.15
37 0.15
4 -0.81
5 -0.66
6 0.3
7 0.27
8 0.3
9 0.3

> <PUBCHEM_EFFECTIVE_ROTOR_COUNT>
3.2

> <PUBCHEM_PHARMACOPHORE_FEATURES>
5
1 2 acceptor
1 4 cation
5 3 5 6 8 11 rings
6 14 15 16 17 18 19 rings
6 3 4 6 7 9 10 rings

> <PUBCHEM_HEAVY_ATOM_COUNT>
19

> <PUBCHEM_ATOM_DEF_STEREO_COUNT>
1

> <PUBCHEM_ATOM_UDEF_STEREO_COUNT>
0

> <PUBCHEM_BOND_DEF_STEREO_COUNT>
0

> <PUBCHEM_BOND_UDEF_STEREO_COUNT>
0

> <PUBCHEM_ISOTOPIC_ATOM_COUNT>
0

> <PUBCHEM_COMPONENT_COUNT>
1

> <PUBCHEM_CACTVS_TAUTO_COUNT>
1

> <PUBCHEM_CONFORMER_ID>
04809ACB00000002

> <PUBCHEM_MMFF94_ENERGY>
43.9544

> <PUBCHEM_FEATURE_SELFOVERLAP>
25.468

> <PUBCHEM_SHAPE_FINGERPRINT>
10014705 185 18259986002699306531
10354089 29 7925910383408115510
10595046 47 18343581862984707879
11089746 13 18408602561293413842
11315181 36 17846500343736729058
11401426 45 18412545409769234946
11471102 20 18409451397144448144
11578080 2 13047385015478088276
12107183 9 17551241665948581683
12236239 1 17917992767624018630
128620 24 14764633001306562137
13167823 11 18201720656254914695
1420 363 12319736972889502164
14528608 73 18271810159308113516
15183329 4 18411696557044247421
15196674 1 18410295847395991050
15375358 24 18334863839588346658
15788980 27 18412547621429517978
17834072 33 18201718478806371581
17834072 8 18333734602370485182
17959699 21 18408323280718262105
18186145 218 17748830721625813722
18222031 100 14908183062017903296
19489759 90 17203611458449055795
200 152 18060420209355957915
20300324 65 18131071545887592841
20511986 3 18200296780275607234
20612939 158 18408045125946430660
20645477 56 17313104150990743491
20645477 70 18341618087957392822
21267235 1 18341623615321690347
221357 26 18409722942363005821
231179 274 17385436626971834097
23402539 116 18341892982996245878
23402655 69 18412544297594160237
23557571 272 15051460366372348315
23559900 14 17988353866559358288
29717793 49 17775571914055166780
300161 21 18411976966383830410
3004659 81 18410292497822737998
335352 9 18408326579991688902
34797466 226 16271930458168624128
351380 180 18410011044062342488
3545911 37 18335423474096047163
4028521 119 18187359914116408693
4072396 5 18187916262721044090
4214541 1 18342177765234963425
474 4 18114466750827574553
5104073 3 18409735096682156026
5283173 99 18338230458156704665
59682541 35 10879693391378008046
59755656 520 17022901264132963395
633830 44 17240765146173624634
67856867 119 18201152260647030568
7495541 125 16056873667466700514
9971528 1 18260830419087412196
9981440 41 17475507756020672681

> <PUBCHEM_SHAPE_MULTIPOLES>
362.92
13.09
1.61
0.9
0.91
0.22
-0.07
1.14
3.03
-0.75
0.03
0.74
-0.05
-0.31

> <PUBCHEM_SHAPE_SELFOVERLAP>
769.304

> <PUBCHEM_SHAPE_VOLUME>
205.3

> <PUBCHEM_COORDINATE_TYPE>
2
5
10

$$$$
