7113949
  -OEChem-12032416403D

 61 65  0     1  0  0  0  0  0999 V2000
    7.0029    0.8034   -1.9071 Cl  0  0  0  0  0  0  0  0  0  0  0  0
    1.7852    2.1116    1.2878 S   0  0  0  0  0  0  0  0  0  0  0  0
   -1.2312    2.6561    1.8926 O   0  0  0  0  0  0  0  0  0  0  0  0
   -2.9374   -2.2992    1.5342 O   0  0  0  0  0  0  0  0  0  0  0  0
    2.1617    2.9596    2.4031 O   0  0  0  0  0  0  0  0  0  0  0  0
    1.0955    0.8573    1.5238 O   0  0  0  0  0  0  0  0  0  0  0  0
    3.0732   -4.4336    0.3389 O   0  0  0  0  0  0  0  0  0  0  0  0
   -3.8922   -1.0659   -0.1752 N   0  0  0  0  0  0  0  0  0  0  0  0
   -2.6144    1.8375    0.1878 N   0  0  0  0  0  0  0  0  0  0  0  0
   -2.0472   -2.4746   -0.5996 N   0  0  0  0  0  0  0  0  0  0  0  0
    0.9358    3.0216    0.1409 N   0  0  0  0  0  0  0  0  0  0  0  0
   -5.0085    1.0350    0.5962 C   0  0  1  0  0  0  0  0  0  0  0  0
   -4.0564    0.9226   -1.6669 C   0  0  2  0  0  0  0  0  0  0  0  0
   -5.2443    1.4325   -0.8554 C   0  0  0  0  0  0  0  0  0  0  0  0
   -4.9006   -0.4939    0.7217 C   0  0  0  0  0  0  0  0  0  0  0  0
   -3.7522    1.7464    1.1110 C   0  0  0  0  0  0  0  0  0  0  0  0
   -3.9820   -0.6162   -1.5763 C   0  0  0  0  0  0  0  0  0  0  0  0
   -2.7544    1.5263   -1.1714 C   0  0  0  0  0  0  0  0  0  0  0  0
   -1.7339    1.7278   -2.0251 C   0  0  0  0  0  0  0  0  0  0  0  0
   -1.4103    2.3500    0.7144 C   0  0  0  0  0  0  0  0  0  0  0  0
   -2.9434   -1.9742    0.3440 C   0  0  0  0  0  0  0  0  0  0  0  0
   -0.3142    2.5264   -0.2710 C   0  0  0  0  0  0  0  0  0  0  0  0
   -0.4731    2.2431   -1.5643 C   0  0  0  0  0  0  0  0  0  0  0  0
   -0.7428   -2.9733   -0.3611 C   0  0  0  0  0  0  0  0  0  0  0  0
    3.2609    1.7410    0.3861 C   0  0  0  0  0  0  0  0  0  0  0  0
   -0.0112   -3.5274   -1.4078 C   0  0  0  0  0  0  0  0  0  0  0  0
   -0.2006   -2.9073    0.9196 C   0  0  0  0  0  0  0  0  0  0  0  0
    1.2726   -4.0196   -1.1721 C   0  0  0  0  0  0  0  0  0  0  0  0
    1.0832   -3.3993    1.1553 C   0  0  0  0  0  0  0  0  0  0  0  0
    4.3352    2.6091    0.4642 C   0  0  0  0  0  0  0  0  0  0  0  0
    3.3115    0.5906   -0.3811 C   0  0  0  0  0  0  0  0  0  0  0  0
    1.8198   -3.9555    0.1094 C   0  0  0  0  0  0  0  0  0  0  0  0
    5.4985    2.3175   -0.2482 C   0  0  0  0  0  0  0  0  0  0  0  0
    4.4747    0.2990   -1.0936 C   0  0  0  0  0  0  0  0  0  0  0  0
    5.5683    1.1624   -1.0271 C   0  0  0  0  0  0  0  0  0  0  0  0
    3.5712   -4.3366    1.6724 C   0  0  0  0  0  0  0  0  0  0  0  0
   -5.8604    1.3574    1.2076 H   0  0  0  0  0  0  0  0  0  0  0  0
   -4.2160    1.1996   -2.7172 H   0  0  0  0  0  0  0  0  0  0  0  0
   -6.1788    0.9943   -1.2263 H   0  0  0  0  0  0  0  0  0  0  0  0
   -5.3408    2.5215   -0.9474 H   0  0  0  0  0  0  0  0  0  0  0  0
   -4.7025   -0.7702    1.7624 H   0  0  0  0  0  0  0  0  0  0  0  0
   -5.8577   -0.9550    0.4477 H   0  0  0  0  0  0  0  0  0  0  0  0
   -3.4073    1.2900    2.0475 H   0  0  0  0  0  0  0  0  0  0  0  0
   -4.0135    2.7840    1.3601 H   0  0  0  0  0  0  0  0  0  0  0  0
   -3.1458   -0.9665   -2.1833 H   0  0  0  0  0  0  0  0  0  0  0  0
   -4.8928   -1.0630   -1.9933 H   0  0  0  0  0  0  0  0  0  0  0  0
   -1.8175    1.4821   -3.0786 H   0  0  0  0  0  0  0  0  0  0  0  0
    0.3174    2.3698   -2.2964 H   0  0  0  0  0  0  0  0  0  0  0  0
   -2.3495   -2.5328   -1.5658 H   0  0  0  0  0  0  0  0  0  0  0  0
    1.5082    3.3634   -0.6441 H   0  0  0  0  0  0  0  0  0  0  0  0
   -0.4263   -3.5828   -2.4107 H   0  0  0  0  0  0  0  0  0  0  0  0
   -0.7070   -2.4542    1.7627 H   0  0  0  0  0  0  0  0  0  0  0  0
    1.8419   -4.4510   -1.9909 H   0  0  0  0  0  0  0  0  0  0  0  0
    1.4516   -3.3100    2.1716 H   0  0  0  0  0  0  0  0  0  0  0  0
    4.2973    3.5168    1.0585 H   0  0  0  0  0  0  0  0  0  0  0  0
    2.4683   -0.0898   -0.4514 H   0  0  0  0  0  0  0  0  0  0  0  0
    6.3421    3.0004   -0.1886 H   0  0  0  0  0  0  0  0  0  0  0  0
    4.5140   -0.6039   -1.6977 H   0  0  0  0  0  0  0  0  0  0  0  0
    4.5782   -4.7665    1.6733 H   0  0  0  0  0  0  0  0  0  0  0  0
    3.6690   -3.2928    1.9899 H   0  0  0  0  0  0  0  0  0  0  0  0
    2.9701   -4.9287    2.3709 H   0  0  0  0  0  0  0  0  0  0  0  0
  1 35  1  0  0  0  0
  2  5  2  0  0  0  0
  2  6  2  0  0  0  0
  2 11  1  0  0  0  0
  2 25  1  0  0  0  0
  3 20  2  0  0  0  0
  4 21  2  0  0  0  0
  7 32  1  0  0  0  0
  7 36  1  0  0  0  0
  8 15  1  0  0  0  0
  8 17  1  0  0  0  0
  8 21  1  0  0  0  0
  9 16  1  0  0  0  0
  9 18  1  0  0  0  0
  9 20  1  0  0  0  0
 10 21  1  0  0  0  0
 10 24  1  0  0  0  0
 10 49  1  0  0  0  0
 11 22  1  0  0  0  0
 11 50  1  0  0  0  0
 12 14  1  0  0  0  0
 12 15  1  0  0  0  0
 12 16  1  0  0  0  0
 12 37  1  0  0  0  0
 13 14  1  0  0  0  0
 13 17  1  0  0  0  0
 13 18  1  0  0  0  0
 13 38  1  0  0  0  0
 14 39  1  0  0  0  0
 14 40  1  0  0  0  0
 15 41  1  0  0  0  0
 15 42  1  0  0  0  0
 16 43  1  0  0  0  0
 16 44  1  0  0  0  0
 17 45  1  0  0  0  0
 17 46  1  0  0  0  0
 18 19  2  0  0  0  0
 19 23  1  0  0  0  0
 19 47  1  0  0  0  0
 20 22  1  0  0  0  0
 22 23  2  0  0  0  0
 23 48  1  0  0  0  0
 24 26  2  0  0  0  0
 24 27  1  0  0  0  0
 25 30  2  0  0  0  0
 25 31  1  0  0  0  0
 26 28  1  0  0  0  0
 26 51  1  0  0  0  0
 27 29  2  0  0  0  0
 27 52  1  0  0  0  0
 28 32  2  0  0  0  0
 28 53  1  0  0  0  0
 29 32  1  0  0  0  0
 29 54  1  0  0  0  0
 30 33  1  0  0  0  0
 30 55  1  0  0  0  0
 31 34  2  0  0  0  0
 31 56  1  0  0  0  0
 33 35  2  0  0  0  0
 33 57  1  0  0  0  0
 34 35  1  0  0  0  0
 34 58  1  0  0  0  0
 36 59  1  0  0  0  0
 36 60  1  0  0  0  0
 36 61  1  0  0  0  0
M  END
> <PUBCHEM_COMPOUND_CID>
7113949

> <PUBCHEM_CONFORMER_RMSD>
1

> <PUBCHEM_CONFORMER_DIVERSEORDER>
1
43
46
29
67
91
86
78
55
23
65
77
24
9
79
37
74
75
76
11
94
58
71
51
57
32
38
73
34
89
90
95
81
31
41
53
48
27
87
83
70
50
30
22
3
54
42
60
12
62
64
59
19
84
20
66
49
52
40
17
33
56
45
80
68
4
44
47
69
13
85
16
14
39
15
26
82
72
61
35
28
18
21
93
63
36
2
6
8
10
92
25
5
7
88

> <PUBCHEM_MMFF94_PARTIAL_CHARGES>
46
1 -0.18
10 -0.55
11 -0.75
13 0.14
15 0.3
16 0.3
17 0.3
18 -0.03
19 -0.15
2 1.45
20 0.62
21 0.69
22 0.21
23 -0.15
24 0.12
25 -0.01
26 -0.15
27 -0.15
28 -0.15
29 -0.15
3 -0.57
30 -0.15
31 -0.15
32 0.08
33 -0.15
34 -0.15
35 0.18
36 0.28
4 -0.57
47 0.15
48 0.15
49 0.37
5 -0.65
50 0.42
51 0.15
52 0.15
53 0.15
54 0.15
55 0.15
56 0.15
57 0.15
58 0.15
6 -0.65
7 -0.36
8 -0.66
9 -0.47

> <PUBCHEM_EFFECTIVE_ROTOR_COUNT>
8

> <PUBCHEM_PHARMACOPHORE_FEATURES>
12
1 10 donor
1 11 donor
1 3 acceptor
1 4 acceptor
1 5 acceptor
1 6 acceptor
1 7 acceptor
6 24 26 27 28 29 32 rings
6 25 30 31 33 34 35 rings
6 8 12 13 14 15 17 rings
6 9 12 13 14 16 18 rings
6 9 18 19 20 22 23 rings

> <PUBCHEM_HEAVY_ATOM_COUNT>
36

> <PUBCHEM_ATOM_DEF_STEREO_COUNT>
2

> <PUBCHEM_ATOM_UDEF_STEREO_COUNT>
0

> <PUBCHEM_BOND_DEF_STEREO_COUNT>
0

> <PUBCHEM_BOND_UDEF_STEREO_COUNT>
0

> <PUBCHEM_ISOTOPIC_ATOM_COUNT>
0

> <PUBCHEM_COMPONENT_COUNT>
1

> <PUBCHEM_CACTVS_TAUTO_COUNT>
2

> <PUBCHEM_CONFORMER_ID>
006C8CDD00000001

> <PUBCHEM_MMFF94_ENERGY>
101.4198

> <PUBCHEM_FEATURE_SELFOVERLAP>
62.487

> <PUBCHEM_SHAPE_FINGERPRINT>
11135926 11 18409166580324771028
11200772 71 17755880945567282588
11285246 1 17551478443706824615
11578080 2 18044937862241924837
12156800 1 17391400437917680331
13402501 40 18341619277583705972
14251757 5 17903084665846709628
14279260 333 17916878911543745214
14415361 192 17029368363355801705
14659021 117 17403157692221474240
14725015 67 17834955647955784379
14840074 17 17894632573624312885
14930077 153 17534643787215595748
15264996 44 18200026240465663030
15274700 242 17315331852096716712
15351339 4 18411419493083833218
15927050 60 18341326760984938895
17627616 140 18336830788744758074
19958102 18 18409449228486884756
20764821 26 18196909198088772778
21133410 230 17752513063620013659
21344244 246 18266156436860036471
22899556 105 18128795591510742895
3298306 158 18410851075278211210
373842 8 18265043636287506874
463206 1 17690279309865301068
469060 322 17823434845113511939
50150288 127 17129890243041133368
5080951 261 17756672546536501960
508706 21 18194677300726217494
5265222 85 18190189072839969476
57676310 188 18335150748637910966

> <PUBCHEM_SHAPE_MULTIPOLES>
697.31
11.86
6.3
1.9
7.91
8.1
-0.04
-6.07
3.56
4.67
-1.46
0.27
-0.44
-0.32

> <PUBCHEM_SHAPE_SELFOVERLAP>
1499.778

> <PUBCHEM_SHAPE_VOLUME>
384.1

> <PUBCHEM_COORDINATE_TYPE>
2
5
10

$$$$
