51136632
  -OEChem-12032416143D

 74 77  0     1  0  0  0  0  0999 V2000
   -7.1733   -1.0830   -2.0020 O   0  0  0  0  0  0  0  0  0  0  0  0
   -0.8330    3.7198    0.0371 O   0  0  0  0  0  0  0  0  0  0  0  0
   -7.2029    0.7903   -0.7095 O   0  0  0  0  0  0  0  0  0  0  0  0
    2.2759   -1.4413   -2.6909 O   0  0  0  0  0  0  0  0  0  0  0  0
    4.0238   -2.5634   -0.8494 O   0  0  0  0  0  0  0  0  0  0  0  0
   -2.2853    2.1209    0.8603 N   0  0  0  0  0  0  0  0  0  0  0  0
   -1.8822   -2.3497    1.6135 N   0  0  0  0  0  0  0  0  0  0  0  0
    0.0215    1.9989    1.3371 N   0  0  0  0  0  0  0  0  0  0  0  0
   -3.2645   -0.1548    0.7682 C   0  0  2  0  0  0  0  0  0  0  0  0
   -4.4962    0.4440    0.0385 C   0  0  1  0  0  0  0  0  0  0  0  0
   -4.1442    1.7461   -0.7039 C   0  0  0  0  0  0  0  0  0  0  0  0
   -2.6147    0.9248    1.6500 C   0  0  0  0  0  0  0  0  0  0  0  0
   -3.4425    2.7440    0.2164 C   0  0  0  0  0  0  0  0  0  0  0  0
   -2.2248   -0.7782   -0.1700 C   0  0  0  0  0  0  0  0  0  0  0  0
   -5.1750   -0.5480   -0.9054 C   0  0  0  0  0  0  0  0  0  0  0  0
   -1.3589   -1.7492    0.5960 C   0  0  0  0  0  0  0  0  0  0  0  0
   -1.0067    2.6972    0.7051 C   0  0  0  0  0  0  0  0  0  0  0  0
    0.0427   -1.9610    0.1527 C   0  0  0  0  0  0  0  0  0  0  0  0
   -6.6084   -0.1748   -1.1653 C   0  0  0  0  0  0  0  0  0  0  0  0
    0.9162   -2.5443    1.0794 C   0  0  0  0  0  0  0  0  0  0  0  0
    0.3925   -2.8972    2.4399 C   0  0  0  0  0  0  0  0  0  0  0  0
   -1.0605   -3.3377    2.3208 C   0  0  0  0  0  0  0  0  0  0  0  0
    0.4977   -1.5927   -1.1147 C   0  0  0  0  0  0  0  0  0  0  0  0
    2.2582   -2.7336    0.7383 C   0  0  0  0  0  0  0  0  0  0  0  0
    1.8359   -1.8002   -1.4519 C   0  0  0  0  0  0  0  0  0  0  0  0
    1.3799    1.9238    0.9410 C   0  0  0  0  0  0  0  0  0  0  0  0
    2.7146   -2.3662   -0.5277 C   0  0  0  0  0  0  0  0  0  0  0  0
    2.2855    1.1747    1.6923 C   0  0  0  0  0  0  0  0  0  0  0  0
    1.8112    2.5991   -0.2008 C   0  0  0  0  0  0  0  0  0  0  0  0
    4.0539    1.7761    0.1599 C   0  0  0  0  0  0  0  0  0  0  0  0
    3.6225    1.1009    1.3018 C   0  0  0  0  0  0  0  0  0  0  0  0
    3.1482    2.5253   -0.5913 C   0  0  0  0  0  0  0  0  0  0  0  0
    5.4836    1.6963   -0.2576 C   0  0  0  0  0  0  0  0  0  0  0  0
    1.3167   -0.8695   -3.5779 C   0  0  0  0  0  0  0  0  0  0  0  0
    4.8558   -3.1471    0.1513 C   0  0  0  0  0  0  0  0  0  0  0  0
    5.6576    1.0388   -1.6398 C   0  0  0  0  0  0  0  0  0  0  0  0
    6.1792    3.0707   -0.2414 C   0  0  0  0  0  0  0  0  0  0  0  0
   -3.6788   -0.9173    1.4397 H   0  0  0  0  0  0  0  0  0  0  0  0
   -5.2121    0.7134    0.8295 H   0  0  0  0  0  0  0  0  0  0  0  0
   -5.0422    2.2172   -1.1178 H   0  0  0  0  0  0  0  0  0  0  0  0
   -3.4853    1.5193   -1.5519 H   0  0  0  0  0  0  0  0  0  0  0  0
   -3.3204    1.2457    2.4269 H   0  0  0  0  0  0  0  0  0  0  0  0
   -1.7571    0.5074    2.1758 H   0  0  0  0  0  0  0  0  0  0  0  0
   -3.1483    3.6280   -0.3575 H   0  0  0  0  0  0  0  0  0  0  0  0
   -4.1215    3.0803    1.0089 H   0  0  0  0  0  0  0  0  0  0  0  0
   -1.6256    0.0011   -0.6482 H   0  0  0  0  0  0  0  0  0  0  0  0
   -2.7009   -1.3654   -0.9617 H   0  0  0  0  0  0  0  0  0  0  0  0
   -4.6529   -0.5987   -1.8672 H   0  0  0  0  0  0  0  0  0  0  0  0
   -5.1832   -1.5455   -0.4501 H   0  0  0  0  0  0  0  0  0  0  0  0
    0.9804   -3.7052    2.8893 H   0  0  0  0  0  0  0  0  0  0  0  0
    0.4742   -2.0158    3.0873 H   0  0  0  0  0  0  0  0  0  0  0  0
   -1.4749   -3.4820    3.3245 H   0  0  0  0  0  0  0  0  0  0  0  0
   -1.1369   -4.3015    1.8019 H   0  0  0  0  0  0  0  0  0  0  0  0
   -0.1972    1.4645    2.1697 H   0  0  0  0  0  0  0  0  0  0  0  0
   -0.2187   -1.1733   -1.8090 H   0  0  0  0  0  0  0  0  0  0  0  0
    2.8944   -3.1695    1.5011 H   0  0  0  0  0  0  0  0  0  0  0  0
   -8.1114   -0.8695   -2.1938 H   0  0  0  0  0  0  0  0  0  0  0  0
    1.9617    0.6417    2.5826 H   0  0  0  0  0  0  0  0  0  0  0  0
    1.1542    3.1724   -0.8423 H   0  0  0  0  0  0  0  0  0  0  0  0
    4.3140    0.5106    1.8970 H   0  0  0  0  0  0  0  0  0  0  0  0
    3.4620    3.0533   -1.4876 H   0  0  0  0  0  0  0  0  0  0  0  0
    6.0269    1.0638    0.4578 H   0  0  0  0  0  0  0  0  0  0  0  0
    1.8396   -0.6417   -4.5127 H   0  0  0  0  0  0  0  0  0  0  0  0
    0.9273    0.0801   -3.1945 H   0  0  0  0  0  0  0  0  0  0  0  0
    0.5207   -1.5800   -3.8258 H   0  0  0  0  0  0  0  0  0  0  0  0
    4.9405   -2.5012    1.0320 H   0  0  0  0  0  0  0  0  0  0  0  0
    4.5313   -4.1618    0.4059 H   0  0  0  0  0  0  0  0  0  0  0  0
    5.8604   -3.2329   -0.2758 H   0  0  0  0  0  0  0  0  0  0  0  0
    6.7202    0.9089   -1.8719 H   0  0  0  0  0  0  0  0  0  0  0  0
    5.2128    1.6414   -2.4390 H   0  0  0  0  0  0  0  0  0  0  0  0
    5.1851    0.0508   -1.6630 H   0  0  0  0  0  0  0  0  0  0  0  0
    5.7538    3.7537   -0.9845 H   0  0  0  0  0  0  0  0  0  0  0  0
    7.2470    2.9628   -0.4603 H   0  0  0  0  0  0  0  0  0  0  0  0
    6.0836    3.5433    0.7424 H   0  0  0  0  0  0  0  0  0  0  0  0
  1 19  1  0  0  0  0
  1 57  1  0  0  0  0
  2 17  2  0  0  0  0
  3 19  2  0  0  0  0
  4 25  1  0  0  0  0
  4 34  1  0  0  0  0
  5 27  1  0  0  0  0
  5 35  1  0  0  0  0
  6 12  1  0  0  0  0
  6 13  1  0  0  0  0
  6 17  1  0  0  0  0
  7 16  2  0  0  0  0
  7 22  1  0  0  0  0
  8 17  1  0  0  0  0
  8 26  1  0  0  0  0
  8 54  1  0  0  0  0
  9 10  1  0  0  0  0
  9 12  1  0  0  0  0
  9 14  1  0  0  0  0
  9 38  1  0  0  0  0
 10 11  1  0  0  0  0
 10 15  1  0  0  0  0
 10 39  1  0  0  0  0
 11 13  1  0  0  0  0
 11 40  1  0  0  0  0
 11 41  1  0  0  0  0
 12 42  1  0  0  0  0
 12 43  1  0  0  0  0
 13 44  1  0  0  0  0
 13 45  1  0  0  0  0
 14 16  1  0  0  0  0
 14 46  1  0  0  0  0
 14 47  1  0  0  0  0
 15 19  1  0  0  0  0
 15 48  1  0  0  0  0
 15 49  1  0  0  0  0
 16 18  1  0  0  0  0
 18 20  1  0  0  0  0
 18 23  2  0  0  0  0
 20 21  1  0  0  0  0
 20 24  2  0  0  0  0
 21 22  1  0  0  0  0
 21 50  1  0  0  0  0
 21 51  1  0  0  0  0
 22 52  1  0  0  0  0
 22 53  1  0  0  0  0
 23 25  1  0  0  0  0
 23 55  1  0  0  0  0
 24 27  1  0  0  0  0
 24 56  1  0  0  0  0
 25 27  2  0  0  0  0
 26 28  2  0  0  0  0
 26 29  1  0  0  0  0
 28 31  1  0  0  0  0
 28 58  1  0  0  0  0
 29 32  2  0  0  0  0
 29 59  1  0  0  0  0
 30 31  2  0  0  0  0
 30 32  1  0  0  0  0
 30 33  1  0  0  0  0
 31 60  1  0  0  0  0
 32 61  1  0  0  0  0
 33 36  1  0  0  0  0
 33 37  1  0  0  0  0
 33 62  1  0  0  0  0
 34 63  1  0  0  0  0
 34 64  1  0  0  0  0
 34 65  1  0  0  0  0
 35 66  1  0  0  0  0
 35 67  1  0  0  0  0
 35 68  1  0  0  0  0
 36 69  1  0  0  0  0
 36 70  1  0  0  0  0
 36 71  1  0  0  0  0
 37 72  1  0  0  0  0
 37 73  1  0  0  0  0
 37 74  1  0  0  0  0
M  END
> <PUBCHEM_COMPOUND_CID>
51136632

> <PUBCHEM_CONFORMER_RMSD>
1.2

> <PUBCHEM_CONFORMER_DIVERSEORDER>
1
38
84
63
61
82
35
31
22
45
55
48
81
10
43
75
17
53
42
65
33
37
8
58
4
68
79
44
60
21
19
54
11
67
64
83
74
16
29
73
32
57
70
7
56
6
78
62
47
25
41
15
9
52
3
34
40
13
39
77
30
71
49
28
80
46
27
20
12
59
5
2
72
51
24
23
14
36
66
26
18
76
50
85
69

> <PUBCHEM_MMFF94_PARTIAL_CHARGES>
40
1 -0.65
12 0.3
13 0.3
14 0.06
15 0.06
16 0.3
17 0.69
18 0.09
19 0.66
2 -0.57
20 -0.14
21 0.14
22 0.25
23 -0.15
24 -0.15
25 0.08
26 0.12
27 0.08
28 -0.15
29 -0.15
3 -0.57
30 -0.14
31 -0.15
32 -0.15
33 0.14
34 0.28
35 0.28
4 -0.36
5 -0.36
54 0.37
55 0.15
56 0.15
57 0.5
58 0.15
59 0.15
6 -0.66
60 0.15
61 0.15
7 -0.7
8 -0.55

> <PUBCHEM_EFFECTIVE_ROTOR_COUNT>
11.6

> <PUBCHEM_PHARMACOPHORE_FEATURES>
13
1 1 acceptor
1 2 acceptor
1 3 acceptor
1 4 acceptor
1 5 acceptor
1 7 acceptor
1 8 donor
3 1 3 19 anion
3 33 36 37 hydrophobe
6 18 20 23 24 25 27 rings
6 26 28 29 30 31 32 rings
6 6 9 10 11 12 13 rings
6 7 16 18 20 21 22 rings

> <PUBCHEM_HEAVY_ATOM_COUNT>
37

> <PUBCHEM_ATOM_DEF_STEREO_COUNT>
2

> <PUBCHEM_ATOM_UDEF_STEREO_COUNT>
0

> <PUBCHEM_BOND_DEF_STEREO_COUNT>
0

> <PUBCHEM_BOND_UDEF_STEREO_COUNT>
0

> <PUBCHEM_ISOTOPIC_ATOM_COUNT>
0

> <PUBCHEM_COMPONENT_COUNT>
1

> <PUBCHEM_CACTVS_TAUTO_COUNT>
2

> <PUBCHEM_CONFORMER_ID>
030C487800000001

> <PUBCHEM_MMFF94_ENERGY>
119.3475

> <PUBCHEM_FEATURE_SELFOVERLAP>
66.06

> <PUBCHEM_SHAPE_FINGERPRINT>
10675989 125 17974850570880591881
1100329 8 18048891697601868634
11421498 54 13110421051848085156
11513181 2 18058738991679050847
11578080 2 18187086208250811438
12107698 1 18270957934395865447
12156800 1 17682154228231626596
12166972 35 17969224425952674671
12422481 6 18340751673648936594
12645989 146 18055920883570220326
13402501 40 18269846452615075240
14784336 7 17972592195646095835
14931854 50 18411705369784584156
15001296 14 17488158573938027469
15721738 202 17060344020035423103
16067689 302 18341900740277609287
16114785 44 17552623061329542896
17909252 39 17632577102305028899
20691752 17 18188783738329203393
20721686 56 18410015416450014898
20764821 26 18118969083439995624
20905425 154 18272090465705631504
21344244 246 18411694426814406127
27425 322 16660928897705461568
3298306 158 18340204201618374321
513532 50 17203886384038353392
5265222 85 18049443939706877476
59755656 215 18271522087108746445
6669772 16 18334011704949435907

> <PUBCHEM_SHAPE_MULTIPOLES>
717.15
13.07
4.79
2.26
11.57
0.53
-1.09
-5.61
-6.65
-3.92
1.63
-0.16
1.46
0.31

> <PUBCHEM_SHAPE_SELFOVERLAP>
1522.074

> <PUBCHEM_SHAPE_VOLUME>
398.4

> <PUBCHEM_COORDINATE_TYPE>
2
5
10

$$$$
