56774078
  -OEChem-12032416273D

 48 50  0     1  0  0  0  0  0999 V2000
    5.2347   -0.6191   -0.5141 O   0  0  0  0  0  0  0  0  0  0  0  0
   -3.6908   -1.4108   -1.4337 O   0  0  0  0  0  0  0  0  0  0  0  0
    6.8479    1.8087    0.2251 O   0  0  0  0  0  0  0  0  0  0  0  0
   -2.1105   -0.1360   -0.3188 N   0  0  0  0  0  0  0  0  0  0  0  0
    4.2623   -1.5057   -0.0673 N   0  0  0  0  0  0  0  0  0  0  0  0
   -0.4236   -1.9061    0.4236 C   0  0  0  0  0  0  0  0  0  0  0  0
    1.0001   -1.5386   -0.0442 C   0  0  1  0  0  0  0  0  0  0  0  0
   -0.9469   -0.9668   -0.6828 C   0  0  2  0  0  0  0  0  0  0  0  0
    0.4007   -0.2223   -0.5818 C   0  0  0  0  0  0  0  0  0  0  0  0
    2.0561   -1.3662    1.0224 C   0  0  0  0  0  0  0  0  0  0  0  0
   -0.8373   -3.3510    0.2123 C   0  0  0  0  0  0  0  0  0  0  0  0
   -0.7188   -1.4916    1.8483 C   0  0  0  0  0  0  0  0  0  0  0  0
    3.2959   -0.7333    0.4369 C   0  0  0  0  0  0  0  0  0  0  0  0
   -3.4201   -0.4233   -0.7277 C   0  0  0  0  0  0  0  0  0  0  0  0
    3.5998    0.6354    0.3370 C   0  0  0  0  0  0  0  0  0  0  0  0
   -4.4701    0.4748   -0.2745 C   0  0  0  0  0  0  0  0  0  0  0  0
    4.8287    0.6527   -0.2679 C   0  0  0  0  0  0  0  0  0  0  0  0
   -5.6341    0.6243   -1.0285 C   0  0  0  0  0  0  0  0  0  0  0  0
   -4.3138    1.1856    0.9154 C   0  0  0  0  0  0  0  0  0  0  0  0
    5.7436    1.7240   -0.6798 C   0  0  0  0  0  0  0  0  0  0  0  0
   -6.6418    1.4848   -0.5927 C   0  0  0  0  0  0  0  0  0  0  0  0
   -5.3213    2.0460    1.3513 C   0  0  0  0  0  0  0  0  0  0  0  0
   -6.4854    2.1956    0.5972 C   0  0  0  0  0  0  0  0  0  0  0  0
    7.7448    2.8388   -0.1554 C   0  0  0  0  0  0  0  0  0  0  0  0
    1.3522   -2.1905   -0.8587 H   0  0  0  0  0  0  0  0  0  0  0  0
   -1.0753   -1.4437   -1.6640 H   0  0  0  0  0  0  0  0  0  0  0  0
    0.4112    0.6197    0.1209 H   0  0  0  0  0  0  0  0  0  0  0  0
    0.8120    0.1223   -1.5356 H   0  0  0  0  0  0  0  0  0  0  0  0
    2.3137   -2.3386    1.4598 H   0  0  0  0  0  0  0  0  0  0  0  0
    1.7271   -0.7256    1.8479 H   0  0  0  0  0  0  0  0  0  0  0  0
   -0.6224   -3.6891   -0.8076 H   0  0  0  0  0  0  0  0  0  0  0  0
   -0.3008   -4.0183    0.8958 H   0  0  0  0  0  0  0  0  0  0  0  0
   -1.9112   -3.4851    0.3828 H   0  0  0  0  0  0  0  0  0  0  0  0
   -0.1550   -2.0956    2.5686 H   0  0  0  0  0  0  0  0  0  0  0  0
   -0.4976   -0.4377    2.0484 H   0  0  0  0  0  0  0  0  0  0  0  0
   -1.7807   -1.6341    2.0838 H   0  0  0  0  0  0  0  0  0  0  0  0
   -1.9427    0.7148    0.2113 H   0  0  0  0  0  0  0  0  0  0  0  0
    3.0142    1.4847    0.6566 H   0  0  0  0  0  0  0  0  0  0  0  0
   -5.7731    0.0824   -1.9604 H   0  0  0  0  0  0  0  0  0  0  0  0
   -3.4390    1.0744    1.5494 H   0  0  0  0  0  0  0  0  0  0  0  0
    6.1169    1.5248   -1.6914 H   0  0  0  0  0  0  0  0  0  0  0  0
    5.2140    2.6841   -0.6932 H   0  0  0  0  0  0  0  0  0  0  0  0
   -7.5479    1.6019   -1.1799 H   0  0  0  0  0  0  0  0  0  0  0  0
   -5.2035    2.5941    2.2816 H   0  0  0  0  0  0  0  0  0  0  0  0
   -7.2706    2.8644    0.9375 H   0  0  0  0  0  0  0  0  0  0  0  0
    8.5680    2.8625    0.5637 H   0  0  0  0  0  0  0  0  0  0  0  0
    7.2432    3.8113   -0.1414 H   0  0  0  0  0  0  0  0  0  0  0  0
    8.1577    2.6424   -1.1497 H   0  0  0  0  0  0  0  0  0  0  0  0
  1  5  1  0  0  0  0
  1 17  1  0  0  0  0
  2 14  2  0  0  0  0
  3 20  1  0  0  0  0
  3 24  1  0  0  0  0
  4  8  1  0  0  0  0
  4 14  1  0  0  0  0
  4 37  1  0  0  0  0
  5 13  2  0  0  0  0
  6  7  1  0  0  0  0
  6  8  1  0  0  0  0
  6 11  1  0  0  0  0
  6 12  1  0  0  0  0
  7  9  1  0  0  0  0
  7 10  1  0  0  0  0
  7 25  1  0  0  0  0
  8  9  1  0  0  0  0
  8 26  1  0  0  0  0
  9 27  1  0  0  0  0
  9 28  1  0  0  0  0
 10 13  1  0  0  0  0
 10 29  1  0  0  0  0
 10 30  1  0  0  0  0
 11 31  1  0  0  0  0
 11 32  1  0  0  0  0
 11 33  1  0  0  0  0
 12 34  1  0  0  0  0
 12 35  1  0  0  0  0
 12 36  1  0  0  0  0
 13 15  1  0  0  0  0
 14 16  1  0  0  0  0
 15 17  2  0  0  0  0
 15 38  1  0  0  0  0
 16 18  2  0  0  0  0
 16 19  1  0  0  0  0
 17 20  1  0  0  0  0
 18 21  1  0  0  0  0
 18 39  1  0  0  0  0
 19 22  2  0  0  0  0
 19 40  1  0  0  0  0
 20 41  1  0  0  0  0
 20 42  1  0  0  0  0
 21 23  2  0  0  0  0
 21 43  1  0  0  0  0
 22 23  1  0  0  0  0
 22 44  1  0  0  0  0
 23 45  1  0  0  0  0
 24 46  1  0  0  0  0
 24 47  1  0  0  0  0
 24 48  1  0  0  0  0
M  END
> <PUBCHEM_COMPOUND_CID>
56774078

> <PUBCHEM_CONFORMER_RMSD>
0.8

> <PUBCHEM_CONFORMER_DIVERSEORDER>
1
84
14
39
3
83
26
63
75
92
59
99
21
88
19
30
23
5
76
6
47
9
60
43
34
2
66
13
8
46
27
62
73
33
80
89
52
77
16
7
64
98
74
93
28
36
81
12
58
78
48
51
37
10
35
11
79
65
55
17
71
15
85
86
53
40
20
87
95
24
54
90
29
50
31
41
94
18
82
67
32
91
70
22
72
4
42
96
56
49
38
97
25
57
44
61
68
45
69

> <PUBCHEM_MMFF94_PARTIAL_CHARGES>
26
1 -0.02
10 0.18
13 0.11
14 0.54
15 -0.15
16 0.09
17 -0.04
18 -0.15
19 -0.15
2 -0.57
20 0.46
21 -0.15
22 -0.15
23 -0.15
24 0.28
3 -0.56
37 0.37
38 0.15
39 0.15
4 -0.65
40 0.15
43 0.15
44 0.15
45 0.15
5 -0.41
8 0.22

> <PUBCHEM_EFFECTIVE_ROTOR_COUNT>
7.8

> <PUBCHEM_PHARMACOPHORE_FEATURES>
8
1 2 acceptor
1 3 acceptor
1 4 donor
1 5 acceptor
3 6 11 12 hydrophobe
4 6 7 8 9 rings
5 1 5 13 15 17 rings
6 16 18 19 21 22 23 rings

> <PUBCHEM_HEAVY_ATOM_COUNT>
24

> <PUBCHEM_ATOM_DEF_STEREO_COUNT>
2

> <PUBCHEM_ATOM_UDEF_STEREO_COUNT>
0

> <PUBCHEM_BOND_DEF_STEREO_COUNT>
0

> <PUBCHEM_BOND_UDEF_STEREO_COUNT>
0

> <PUBCHEM_ISOTOPIC_ATOM_COUNT>
0

> <PUBCHEM_COMPONENT_COUNT>
1

> <PUBCHEM_CACTVS_TAUTO_COUNT>
2

> <PUBCHEM_CONFORMER_ID>
03624DBE00000001

> <PUBCHEM_MMFF94_ENERGY>
55.3759

> <PUBCHEM_FEATURE_SELFOVERLAP>
40.597

> <PUBCHEM_SHAPE_FINGERPRINT>
10 15 17240485805621768645
10670039 82 17417249823548831977
10753850 27 10592040245824462269
12035758 1 16660369181514137557
12236239 1 18340764854439389095
12390115 104 18335710467678861483
12555020 224 12175616287472084557
12596602 18 18188493467929013563
13631057 29 18338510942093138047
13668630 136 12103557589664510621
13685833 64 10951758695203790469
13690498 29 16986862674203566495
13782708 43 8286212638949242516
13885169 86 18334863839388276301
13955234 65 17750508473655167002
14251764 75 18261678155489732264
14347332 77 10879728554570379750
14790565 3 18410013208683908645
14840074 17 18261112942051974029
14849402 71 18410859893173565929
15183329 4 16988847154925290904
15238133 3 18271512157582007106
15510800 12 10159701351798065940
15575132 122 18268145367084445077
15778101 99 18335140951363561526
15840311 113 18336271137326207589
18222031 100 10231744566290183423
19438510 23 18260545662829261576
20526848 3 18410012152327818540
21298829 104 18410294744233753956
21307412 95 13038903361016632029
21424621 283 18411700976022289113
21585482 111 18261673649489960044
21637258 2 8214137439444508331
21756936 100 18410572933043011535
22061861 79 13398622849302960169
22224240 67 17531249444359320251
23559900 14 13182729399388922806
270888 7 18409448102830783016
2838139 119 18335981969577473752
3014063 24 9295287227173711760
314194 84 9511163179944886295
3472631 163 18342177773555892700
4073 2 18335703870640912314
4340502 62 15719392802478749032
445580 204 18272090509135683752
465052 167 8574423249102068104
474 4 18335984186350356275
474113 269 10737285788347980985
5104073 3 17749385997000406266
543368 44 18412542115914505709
5718773 13 10087653585161918492
6328613 192 18343021099022349888
633830 44 18340482275171364999
6712543 237 15140676973391888345
76465 3 9007054664841480827
7970288 3 9367339323680218777

> <PUBCHEM_SHAPE_MULTIPOLES>
466.34
19.31
2.98
1.18
11.06
0.26
-0.24
-22.06
1.52
1.47
-0.48
-1.22
0.11
-1.34

> <PUBCHEM_SHAPE_SELFOVERLAP>
984.576

> <PUBCHEM_SHAPE_VOLUME>
264.1

> <PUBCHEM_COORDINATE_TYPE>
2
5
10

$$$$
