75537092
  -OEChem-12032416333D

 50 53  0     1  0  0  0  0  0999 V2000
    5.9805   -3.0358    1.6225 F   0  0  0  0  0  0  0  0  0  0  0  0
    2.7837    3.0716    0.0678 O   0  0  0  0  0  0  0  0  0  0  0  0
   -5.0291   -3.0426   -0.5013 O   0  0  0  0  0  0  0  0  0  0  0  0
    0.5929    2.2381   -0.0892 N   0  0  0  0  0  0  0  0  0  0  0  0
   -1.9717    1.4258    0.7319 N   0  0  2  0  0  0  0  0  0  0  0  0
    2.2197    1.1722   -1.2122 N   0  0  0  0  0  0  0  0  0  0  0  0
   -4.0422   -1.1869    0.4816 N   0  0  0  0  0  0  0  0  0  0  0  0
   -0.0991    1.2205   -0.8522 C   0  0  2  0  0  0  0  0  0  0  0  0
   -1.0869    0.4676    0.0385 C   0  0  0  0  0  0  0  0  0  0  0  0
    1.0301    0.3657   -1.4241 C   0  0  0  0  0  0  0  0  0  0  0  0
   -0.1719    3.1403    0.7464 C   0  0  0  0  0  0  0  0  0  0  0  0
   -1.1879    2.3507    1.5756 C   0  0  0  0  0  0  0  0  0  0  0  0
    1.9675    2.2661   -0.3599 C   0  0  0  0  0  0  0  0  0  0  0  0
   -2.9603    0.7127    1.5404 C   0  0  0  0  0  0  0  0  0  0  0  0
    3.5161    0.7723   -1.7132 C   0  0  0  0  0  0  0  0  0  0  0  0
    4.1733   -0.2433   -0.8240 C   0  0  0  0  0  0  0  0  0  0  0  0
   -4.0694    0.1469    0.7014 C   0  0  0  0  0  0  0  0  0  0  0  0
    4.9970    0.1745    0.2214 C   0  0  0  0  0  0  0  0  0  0  0  0
    3.9602   -1.6044   -1.0427 C   0  0  0  0  0  0  0  0  0  0  0  0
   -5.0464    0.9948    0.2054 C   0  0  0  0  0  0  0  0  0  0  0  0
    5.6078   -0.7687    1.0477 C   0  0  0  0  0  0  0  0  0  0  0  0
    4.5710   -2.5475   -0.2164 C   0  0  0  0  0  0  0  0  0  0  0  0
   -6.0610    0.4382   -0.5656 C   0  0  0  0  0  0  0  0  0  0  0  0
   -5.0444   -1.6917   -0.2721 C   0  0  0  0  0  0  0  0  0  0  0  0
    5.3949   -2.1298    0.8288 C   0  0  0  0  0  0  0  0  0  0  0  0
   -6.0673   -0.9299   -0.8137 C   0  0  0  0  0  0  0  0  0  0  0  0
   -3.9572   -3.7776    0.0774 C   0  0  0  0  0  0  0  0  0  0  0  0
   -0.6299    1.7344   -1.6646 H   0  0  0  0  0  0  0  0  0  0  0  0
   -1.6630   -0.2134   -0.5981 H   0  0  0  0  0  0  0  0  0  0  0  0
   -0.5458   -0.1457    0.7720 H   0  0  0  0  0  0  0  0  0  0  0  0
    1.1473   -0.5814   -0.8884 H   0  0  0  0  0  0  0  0  0  0  0  0
    0.8950    0.1685   -2.4917 H   0  0  0  0  0  0  0  0  0  0  0  0
   -0.6828    3.8456    0.0808 H   0  0  0  0  0  0  0  0  0  0  0  0
    0.5070    3.7104    1.3883 H   0  0  0  0  0  0  0  0  0  0  0  0
   -0.6613    1.7902    2.3596 H   0  0  0  0  0  0  0  0  0  0  0  0
   -1.8529    3.0670    2.0727 H   0  0  0  0  0  0  0  0  0  0  0  0
   -3.4277    1.3938    2.2651 H   0  0  0  0  0  0  0  0  0  0  0  0
   -2.4938   -0.0794    2.1416 H   0  0  0  0  0  0  0  0  0  0  0  0
    4.1519    1.6634   -1.7811 H   0  0  0  0  0  0  0  0  0  0  0  0
    3.3982    0.3898   -2.7337 H   0  0  0  0  0  0  0  0  0  0  0  0
    5.1711    1.2316    0.4035 H   0  0  0  0  0  0  0  0  0  0  0  0
    3.3211   -1.9428   -1.8539 H   0  0  0  0  0  0  0  0  0  0  0  0
   -5.0336    2.0610    0.4047 H   0  0  0  0  0  0  0  0  0  0  0  0
    6.2490   -0.4439    1.8618 H   0  0  0  0  0  0  0  0  0  0  0  0
    4.4054   -3.6073   -0.3864 H   0  0  0  0  0  0  0  0  0  0  0  0
   -6.8453    1.0695   -0.9723 H   0  0  0  0  0  0  0  0  0  0  0  0
   -6.8516   -1.3793   -1.4129 H   0  0  0  0  0  0  0  0  0  0  0  0
   -4.0843   -4.8294   -0.1954 H   0  0  0  0  0  0  0  0  0  0  0  0
   -3.9779   -3.7076    1.1701 H   0  0  0  0  0  0  0  0  0  0  0  0
   -2.9923   -3.4411   -0.3168 H   0  0  0  0  0  0  0  0  0  0  0  0
  1 25  1  0  0  0  0
  2 13  2  0  0  0  0
  3 24  1  0  0  0  0
  3 27  1  0  0  0  0
  4  8  1  0  0  0  0
  4 11  1  0  0  0  0
  4 13  1  0  0  0  0
  5  9  1  0  0  0  0
  5 12  1  0  0  0  0
  5 14  1  0  0  0  0
  6 10  1  0  0  0  0
  6 13  1  0  0  0  0
  6 15  1  0  0  0  0
  7 17  2  0  0  0  0
  7 24  1  0  0  0  0
  8  9  1  0  0  0  0
  8 10  1  0  0  0  0
  8 28  1  0  0  0  0
  9 29  1  0  0  0  0
  9 30  1  0  0  0  0
 10 31  1  0  0  0  0
 10 32  1  0  0  0  0
 11 12  1  0  0  0  0
 11 33  1  0  0  0  0
 11 34  1  0  0  0  0
 12 35  1  0  0  0  0
 12 36  1  0  0  0  0
 14 17  1  0  0  0  0
 14 37  1  0  0  0  0
 14 38  1  0  0  0  0
 15 16  1  0  0  0  0
 15 39  1  0  0  0  0
 15 40  1  0  0  0  0
 16 18  2  0  0  0  0
 16 19  1  0  0  0  0
 17 20  1  0  0  0  0
 18 21  1  0  0  0  0
 18 41  1  0  0  0  0
 19 22  2  0  0  0  0
 19 42  1  0  0  0  0
 20 23  2  0  0  0  0
 20 43  1  0  0  0  0
 21 25  2  0  0  0  0
 21 44  1  0  0  0  0
 22 25  1  0  0  0  0
 22 45  1  0  0  0  0
 23 26  1  0  0  0  0
 23 46  1  0  0  0  0
 24 26  2  0  0  0  0
 26 47  1  0  0  0  0
 27 48  1  0  0  0  0
 27 49  1  0  0  0  0
 27 50  1  0  0  0  0
M  END
> <PUBCHEM_COMPOUND_CID>
75537092

> <PUBCHEM_CONFORMER_RMSD>
0.8

> <PUBCHEM_CONFORMER_DIVERSEORDER>
1
44
17
203
100
137
187
174
108
201
193
9
182
128
103
54
147
200
84
124
140
204
15
109
152
194
191
78
189
62
25
202
183
167
28
155
198
105
93
125
164
177
165
176
5
94
31
79
180
157
141
190
169
127
143
45
40
35
59
178
58
117
142
120
195
107
52
90
65
66
47
185
144
172
20
166
12
115
50
179
150
83
119
38
82
133
192
36
95
24
159
158
89
104
111
135
55
101
81
33
63
139
68
11
112
146
123
106
145
154
60
27
173
188
64
168
114
122
85
199
10
37
69
97
29
77
26
71
131
49
118
86
32
113
184
39
80
197
181
14
53
175
73
23
132
156
102
162
76
151
87
129
121
160
46
134
7
196
130
96
136
16
61
91
3
67
41
99
148
19
72
42
161
30
13
153
88
43
186
171
56
8
75
57
138
149
116
18
110
126
34
21
170
51
163
74
98
70
92
6
48
4
22
2

> <PUBCHEM_MMFF94_PARTIAL_CHARGES>
34
1 -0.19
10 0.3
11 0.3
12 0.27
13 0.69
14 0.41
15 0.44
16 -0.14
17 0.17
18 -0.15
19 -0.15
2 -0.57
20 -0.15
21 -0.15
22 -0.15
23 -0.15
24 0.39
25 0.19
26 -0.15
27 0.28
3 -0.36
4 -0.66
41 0.15
42 0.15
43 0.15
44 0.15
45 0.15
46 0.15
47 0.15
5 -0.81
6 -0.66
7 -0.62
8 0.3
9 0.27

> <PUBCHEM_EFFECTIVE_ROTOR_COUNT>
6.2

> <PUBCHEM_PHARMACOPHORE_FEATURES>
8
1 2 acceptor
1 3 acceptor
1 5 cation
1 7 acceptor
5 4 6 8 10 13 rings
6 16 18 19 21 22 25 rings
6 4 5 8 9 11 12 rings
6 7 17 20 23 24 26 rings

> <PUBCHEM_HEAVY_ATOM_COUNT>
27

> <PUBCHEM_ATOM_DEF_STEREO_COUNT>
1

> <PUBCHEM_ATOM_UDEF_STEREO_COUNT>
0

> <PUBCHEM_BOND_DEF_STEREO_COUNT>
0

> <PUBCHEM_BOND_UDEF_STEREO_COUNT>
0

> <PUBCHEM_ISOTOPIC_ATOM_COUNT>
0

> <PUBCHEM_COMPONENT_COUNT>
1

> <PUBCHEM_CACTVS_TAUTO_COUNT>
1

> <PUBCHEM_CONFORMER_ID>
04809AC400000001

> <PUBCHEM_MMFF94_ENERGY>
68.5558

> <PUBCHEM_FEATURE_SELFOVERLAP>
40.739

> <PUBCHEM_SHAPE_FINGERPRINT>
10074138 170 17558567806899511649
10571361 74 18337387154255547122
11211813 140 18115854227112568906
11796584 16 18408604773096102181
11963148 33 17550660454295955663
1200032 147 12319441226696816074
12390115 104 11963394033821079069
12596602 18 17704073958909564866
13533116 47 18408324380704734552
13782708 43 17968669323547951627
14251751 18 18408037420569100469
14347332 77 18268149937056242223
1454969 45 18336273409996909828
14848178 5 18411702075502170726
14910302 57 18262509407919035973
15163728 17 9943509835463678776
15183329 4 15574433197867782749
15188451 53 18338792304614033314
15250474 111 18411708707047882895
15475509 8 15574998308506259317
15728490 51 18341330072467851990
17857418 61 18410014333796242813
18222031 100 18271257040550956092
20028762 73 18339642240109551798
20567600 234 15841543098206085936
20567600 70 18341613762777158274
21458453 9 16055735711523718234
22061861 79 16877666763944034287
23559900 14 18341323500983487329
23572383 38 18202006495282440839
2838139 119 8502366707621271266
3004659 81 18337401503724556180
312425 54 17488192486762581962
339767 52 18272368668133644415
373842 8 18342460309401107847
376196 1 14566506688825077684
38570 142 11383826096053845464
3886686 26 17120301235090632618
439807 62 18263649627468687923
463206 1 18335710446335718739
5085150 59 18130784521966506631
5104073 3 17916597552183342561
531348 171 18186518775063053149
57035037 87 12895077268201858963
6034566 193 9294993713197604406
613672 6 17988652886909898767
7970288 3 18337671893739354486
8988823 20 18411419527359201356
960060 61 17603877718801256988
96874 4 18335130969327446066

> <PUBCHEM_SHAPE_MULTIPOLES>
516.71
16.16
3.93
1.39
2.68
1.51
0.06
13.7
1.04
-0.07
0.84
-0.98
-0.12
-2.1

> <PUBCHEM_SHAPE_SELFOVERLAP>
1108.848

> <PUBCHEM_SHAPE_VOLUME>
287.4

> <PUBCHEM_COORDINATE_TYPE>
2
5
10

$$$$
