7127943
  -OEChem-12032416123D

 70 73  0     1  0  0  0  0  0999 V2000
   -0.7275    0.6098   -1.1590 O   0  0  0  0  0  0  0  0  0  0  0  0
   -3.6551    1.6944    0.3983 O   0  0  0  0  0  0  0  0  0  0  0  0
    1.7757   -3.2906    0.9258 O   0  0  0  0  0  0  0  0  0  0  0  0
   -0.3473    5.0394   -0.0112 O   0  0  0  0  0  0  0  0  0  0  0  0
   -2.3654   -0.1623    0.8579 N   0  0  0  0  0  0  0  0  0  0  0  0
    0.0097   -2.0948    0.0072 N   0  0  0  0  0  0  0  0  0  0  0  0
    0.1127    2.3348    0.1591 N   0  0  0  0  0  0  0  0  0  0  0  0
   -5.4439   -0.4661   -0.8318 N   0  0  0  0  0  0  0  0  0  0  0  0
    1.6208   -2.9935   -1.3701 N   0  0  0  0  0  0  0  0  0  0  0  0
    4.1510    0.0988   -0.9769 N   0  0  0  0  0  0  0  0  0  0  0  0
    0.0912    4.9362   -2.2636 N   0  0  0  0  0  0  0  0  0  0  0  0
   -0.6611   -1.7777    1.2424 C   0  0  1  0  0  0  0  0  0  0  0  0
   -1.1623    0.5880    1.1885 C   0  0  1  0  0  0  0  0  0  0  0  0
   -0.2164   -0.4312    1.8205 C   0  0  0  0  0  0  0  0  0  0  0  0
   -2.1624   -1.6014    1.0405 C   0  0  0  0  0  0  0  0  0  0  0  0
   -0.5865    1.1624   -0.0712 C   0  0  0  0  0  0  0  0  0  0  0  0
   -3.5675    0.4735    0.5347 C   0  0  0  0  0  0  0  0  0  0  0  0
    0.7827    3.0740   -0.8863 C   0  0  2  0  0  0  0  0  0  0  0  0
   -4.7242   -0.3894    0.3320 C   0  0  0  0  0  0  0  0  0  0  0  0
    1.1899   -2.8349   -0.0554 C   0  0  0  0  0  0  0  0  0  0  0  0
    2.2820    3.2426   -0.6093 C   0  0  0  0  0  0  0  0  0  0  0  0
    3.0073    1.9341   -0.4762 C   0  0  0  0  0  0  0  0  0  0  0  0
   -5.2930   -1.2572    1.2378 C   0  0  0  0  0  0  0  0  0  0  0  0
    0.1029    4.4323   -0.9799 C   0  0  0  0  0  0  0  0  0  0  0  0
    2.8189   -3.7203   -1.7186 C   0  0  0  0  0  0  0  0  0  0  0  0
    3.2087    1.1944    0.7227 C   0  0  0  0  0  0  0  0  0  0  0  0
   -6.4630   -1.3703   -0.6827 C   0  0  0  0  0  0  0  0  0  0  0  0
   -6.3932   -1.8777    0.5959 C   0  0  0  0  0  0  0  0  0  0  0  0
   -5.1818    0.2835   -2.0408 C   0  0  0  0  0  0  0  0  0  0  0  0
    3.5981    1.2350   -1.5036 C   0  0  0  0  0  0  0  0  0  0  0  0
    3.9287    0.0478    0.3807 C   0  0  0  0  0  0  0  0  0  0  0  0
    3.4552   -3.1244   -2.9676 C   0  0  0  0  0  0  0  0  0  0  0  0
    2.5102   -5.2002   -1.9087 C   0  0  0  0  0  0  0  0  0  0  0  0
    2.8463    1.3911    2.0700 C   0  0  0  0  0  0  0  0  0  0  0  0
    4.3060   -0.9159    1.3227 C   0  0  0  0  0  0  0  0  0  0  0  0
    3.2169    0.4355    3.0231 C   0  0  0  0  0  0  0  0  0  0  0  0
    3.9355   -0.6996    2.6531 C   0  0  0  0  0  0  0  0  0  0  0  0
   -0.4574   -2.5896    1.9493 H   0  0  0  0  0  0  0  0  0  0  0  0
   -1.4201    1.3919    1.8874 H   0  0  0  0  0  0  0  0  0  0  0  0
    0.8329   -0.2346    1.6196 H   0  0  0  0  0  0  0  0  0  0  0  0
   -0.3704   -0.4385    2.9065 H   0  0  0  0  0  0  0  0  0  0  0  0
   -2.6897   -1.8927    1.9545 H   0  0  0  0  0  0  0  0  0  0  0  0
   -2.5688   -2.1616    0.1928 H   0  0  0  0  0  0  0  0  0  0  0  0
   -0.3575   -1.7063   -0.8564 H   0  0  0  0  0  0  0  0  0  0  0  0
    0.1424    2.7181    1.0997 H   0  0  0  0  0  0  0  0  0  0  0  0
    0.6463    2.5411   -1.8355 H   0  0  0  0  0  0  0  0  0  0  0  0
    2.7414    3.8290   -1.4160 H   0  0  0  0  0  0  0  0  0  0  0  0
    2.4308    3.8314    0.3058 H   0  0  0  0  0  0  0  0  0  0  0  0
   -4.9709   -1.4211    2.2569 H   0  0  0  0  0  0  0  0  0  0  0  0
    1.0288   -2.6441   -2.1176 H   0  0  0  0  0  0  0  0  0  0  0  0
    3.5299   -3.6206   -0.8895 H   0  0  0  0  0  0  0  0  0  0  0  0
   -7.1531   -1.5786   -1.4893 H   0  0  0  0  0  0  0  0  0  0  0  0
   -7.0645   -2.6111    1.0200 H   0  0  0  0  0  0  0  0  0  0  0  0
    3.6764    1.4433   -2.5616 H   0  0  0  0  0  0  0  0  0  0  0  0
   -5.8019   -0.1047   -2.8529 H   0  0  0  0  0  0  0  0  0  0  0  0
   -4.1261    0.1704   -2.3010 H   0  0  0  0  0  0  0  0  0  0  0  0
   -5.4257    1.3321   -1.8536 H   0  0  0  0  0  0  0  0  0  0  0  0
    4.6654   -0.5934   -1.5029 H   0  0  0  0  0  0  0  0  0  0  0  0
    4.4031   -3.6213   -3.1982 H   0  0  0  0  0  0  0  0  0  0  0  0
    3.6524   -2.0567   -2.8414 H   0  0  0  0  0  0  0  0  0  0  0  0
    2.7959   -3.2311   -3.8365 H   0  0  0  0  0  0  0  0  0  0  0  0
    1.7835   -5.3537   -2.7143 H   0  0  0  0  0  0  0  0  0  0  0  0
    2.0850   -5.6322   -0.9962 H   0  0  0  0  0  0  0  0  0  0  0  0
    3.4178   -5.7607   -2.1560 H   0  0  0  0  0  0  0  0  0  0  0  0
    2.2877    2.2703    2.3777 H   0  0  0  0  0  0  0  0  0  0  0  0
   -0.3202    5.8419   -2.4632 H   0  0  0  0  0  0  0  0  0  0  0  0
    0.4876    4.4334   -3.0510 H   0  0  0  0  0  0  0  0  0  0  0  0
    4.8634   -1.8010    1.0348 H   0  0  0  0  0  0  0  0  0  0  0  0
    2.9388    0.5813    4.0635 H   0  0  0  0  0  0  0  0  0  0  0  0
    4.2115   -1.4299    3.4094 H   0  0  0  0  0  0  0  0  0  0  0  0
  1 16  2  0  0  0  0
  2 17  2  0  0  0  0
  3 20  2  0  0  0  0
  4 24  2  0  0  0  0
  5 13  1  0  0  0  0
  5 15  1  0  0  0  0
  5 17  1  0  0  0  0
  6 12  1  0  0  0  0
  6 20  1  0  0  0  0
  6 44  1  0  0  0  0
  7 16  1  0  0  0  0
  7 18  1  0  0  0  0
  7 45  1  0  0  0  0
  8 19  1  0  0  0  0
  8 27  1  0  0  0  0
  8 29  1  0  0  0  0
  9 20  1  0  0  0  0
  9 25  1  0  0  0  0
  9 50  1  0  0  0  0
 10 30  1  0  0  0  0
 10 31  1  0  0  0  0
 10 58  1  0  0  0  0
 11 24  1  0  0  0  0
 11 66  1  0  0  0  0
 11 67  1  0  0  0  0
 12 14  1  0  0  0  0
 12 15  1  0  0  0  0
 12 38  1  0  0  0  0
 13 14  1  0  0  0  0
 13 16  1  0  0  0  0
 13 39  1  0  0  0  0
 14 40  1  0  0  0  0
 14 41  1  0  0  0  0
 15 42  1  0  0  0  0
 15 43  1  0  0  0  0
 17 19  1  0  0  0  0
 18 21  1  0  0  0  0
 18 24  1  0  0  0  0
 18 46  1  0  0  0  0
 19 23  2  0  0  0  0
 21 22  1  0  0  0  0
 21 47  1  0  0  0  0
 21 48  1  0  0  0  0
 22 26  1  0  0  0  0
 22 30  2  0  0  0  0
 23 28  1  0  0  0  0
 23 49  1  0  0  0  0
 25 32  1  0  0  0  0
 25 33  1  0  0  0  0
 25 51  1  0  0  0  0
 26 31  1  0  0  0  0
 26 34  2  0  0  0  0
 27 28  2  0  0  0  0
 27 52  1  0  0  0  0
 28 53  1  0  0  0  0
 29 55  1  0  0  0  0
 29 56  1  0  0  0  0
 29 57  1  0  0  0  0
 30 54  1  0  0  0  0
 31 35  2  0  0  0  0
 32 59  1  0  0  0  0
 32 60  1  0  0  0  0
 32 61  1  0  0  0  0
 33 62  1  0  0  0  0
 33 63  1  0  0  0  0
 33 64  1  0  0  0  0
 34 36  1  0  0  0  0
 34 65  1  0  0  0  0
 35 37  1  0  0  0  0
 35 68  1  0  0  0  0
 36 37  2  0  0  0  0
 36 69  1  0  0  0  0
 37 70  1  0  0  0  0
M  END
> <PUBCHEM_COMPOUND_CID>
7127943

> <PUBCHEM_CONFORMER_RMSD>
1.2

> <PUBCHEM_CONFORMER_DIVERSEORDER>
1
133
142
34
104
15
114
59
95
128
27
41
65
68
97
67
175
124
158
54
36
130
37
38
108
181
111
72
165
161
46
159
13
81
152
131
19
155
28
179
30
53
75
169
50
35
55
176
164
109
154
3
61
172
171
168
162
26
122
49
135
121
120
71
11
99
143
25
167
17
57
146
160
139
156
63
60
174
52
45
102
6
56
117
98
87
166
51
180
29
112
40
93
8
105
70
140
125
173
4
107
16
129
147
141
150
44
103
48
12
69
110
123
47
134
178
73
144
83
32
22
177
31
88
151
21
145
79
170
92
163
137
85
157
24
138
127
20
43
126
23
64
82
91
106
101
18
89
14
62
10
153
132
113
9
149
90
76
42
86
58
66
96
33
100
74
118
136
39
7
84
77
119
2
148
115
5
80
94
116
78

> <PUBCHEM_MMFF94_PARTIAL_CHARGES>
47
1 -0.57
10 0.03
11 -0.8
12 0.3
13 0.36
15 0.3
16 0.57
17 0.71
18 0.36
19 -0.24
2 -0.57
20 0.69
21 0.18
22 -0.18
23 -0.15
24 0.57
25 0.3
27 -0.3
28 -0.15
29 0.26
3 -0.57
30 -0.3
31 -0.15
34 -0.15
35 -0.15
36 -0.15
37 -0.15
4 -0.57
44 0.37
45 0.37
49 0.15
5 -0.66
50 0.37
52 0.15
53 0.15
54 0.15
58 0.27
6 -0.73
65 0.15
66 0.37
67 0.37
68 0.15
69 0.15
7 -0.73
70 0.15
8 0.05
9 -0.73

> <PUBCHEM_EFFECTIVE_ROTOR_COUNT>
13

> <PUBCHEM_PHARMACOPHORE_FEATURES>
16
1 1 acceptor
1 10 cation
1 10 donor
1 11 donor
1 2 acceptor
1 3 acceptor
1 4 acceptor
1 6 donor
1 7 donor
1 8 cation
1 9 donor
3 25 32 33 hydrophobe
5 10 22 26 30 31 rings
5 5 12 13 14 15 rings
5 8 19 23 27 28 rings
6 26 31 34 35 36 37 rings

> <PUBCHEM_HEAVY_ATOM_COUNT>
37

> <PUBCHEM_ATOM_DEF_STEREO_COUNT>
3

> <PUBCHEM_ATOM_UDEF_STEREO_COUNT>
0

> <PUBCHEM_BOND_DEF_STEREO_COUNT>
0

> <PUBCHEM_BOND_UDEF_STEREO_COUNT>
0

> <PUBCHEM_ISOTOPIC_ATOM_COUNT>
0

> <PUBCHEM_COMPONENT_COUNT>
1

> <PUBCHEM_CACTVS_TAUTO_COUNT>
12

> <PUBCHEM_CONFORMER_ID>
006CC38700000001

> <PUBCHEM_MMFF94_ENERGY>
70.7274

> <PUBCHEM_FEATURE_SELFOVERLAP>
81.34

> <PUBCHEM_SHAPE_FINGERPRINT>
10556698 54 17535152637934751237
11093857 51 18269850864168760102
12156800 1 17538005762965731010
1361 2 18341901851977339206
15219462 58 17344323589307413217
15484559 13 18263077863361264402
17349148 13 18412266172765917433
1979834 28 18343579667982412179
20028762 73 18198060494274445423
20764821 26 17755302266910378716
20775438 99 17473224740753328253
23559900 14 18195819693508118617
57527306 92 17822852095825118804

> <PUBCHEM_SHAPE_MULTIPOLES>
703.1
11.34
5.99
2.52
20.02
1.21
-0.1
-5.49
-0.26
-5.33
5.24
-2.65
-0.83
2.03

> <PUBCHEM_SHAPE_SELFOVERLAP>
1505.019

> <PUBCHEM_SHAPE_VOLUME>
391.5

> <PUBCHEM_COORDINATE_TYPE>
2
5
10

$$$$
