44716695
  -OEChem-12032416123D

 75 78  0     1  0  0  0  0  0999 V2000
    3.1963    0.7728    2.0310 S   0  0  0  0  0  0  0  0  0  0  0  0
   -6.5839   -3.3341    1.2720 S   0  0  0  0  0  0  0  0  0  0  0  0
   -2.0102   -0.5144   -2.1396 O   0  0  0  0  0  0  0  0  0  0  0  0
   -6.2218    1.6016    0.1386 O   0  0  0  0  0  0  0  0  0  0  0  0
    5.8548    0.1117   -1.7692 O   0  0  0  0  0  0  0  0  0  0  0  0
    3.1182    0.3916   -0.5253 N   0  0  0  0  0  0  0  0  0  0  0  0
   -6.3261   -0.6654   -0.3632 N   0  0  0  0  0  0  0  0  0  0  0  0
    5.3000    0.4654    0.4963 N   0  0  0  0  0  0  0  0  0  0  0  0
   -0.7486    1.2959    0.9909 C   0  0  1  0  0  0  0  0  0  0  0  0
   -0.7204    0.3203   -0.2509 C   0  0  1  0  0  0  0  0  0  0  0  0
   -1.9704    0.5173   -1.1547 C   0  0  2  0  0  0  0  0  0  0  0  0
   -3.2957    0.4474   -0.3650 C   0  0  1  0  0  0  0  0  0  0  0  0
   -2.0949    1.1491    1.7381 C   0  0  0  0  0  0  0  0  0  0  0  0
    0.6490    0.4072   -1.0411 C   0  0  1  0  0  0  0  0  0  0  0  0
   -3.3048    1.3829    0.8439 C   0  0  0  0  0  0  0  0  0  0  0  0
    0.3852    0.9099    1.9915 C   0  0  0  0  0  0  0  0  0  0  0  0
   -0.5646    2.7777    0.5711 C   0  0  0  0  0  0  0  0  0  0  0  0
   -4.5067    0.7492   -1.2562 C   0  0  2  0  0  0  0  0  0  0  0  0
    1.8114    0.4885   -0.0809 C   0  0  0  0  0  0  0  0  0  0  0  0
    1.6735    0.7230    1.2717 C   0  0  0  0  0  0  0  0  0  0  0  0
    0.8594   -0.7578   -2.0196 C   0  0  0  0  0  0  0  0  0  0  0  0
   -4.4218    2.1475   -1.8406 C   0  0  0  0  0  0  0  0  0  0  0  0
   -5.7604    0.6085   -0.4299 C   0  0  0  0  0  0  0  0  0  0  0  0
    3.9312    0.5142    0.5012 C   0  0  0  0  0  0  0  0  0  0  0  0
   -5.7365   -1.8843   -0.9302 C   0  0  0  0  0  0  0  0  0  0  0  0
   -7.5443   -0.8793    0.4203 C   0  0  0  0  0  0  0  0  0  0  0  0
   -5.2308   -2.8122    0.1685 C   0  0  0  0  0  0  0  0  0  0  0  0
   -7.2575   -1.6907    1.6783 C   0  0  0  0  0  0  0  0  0  0  0  0
    6.1815    0.2731   -0.5965 C   0  0  0  0  0  0  0  0  0  0  0  0
    7.6530    0.2883   -0.2019 C   0  0  0  0  0  0  0  0  0  0  0  0
    8.2502   -1.1018    0.1233 C   0  0  0  0  0  0  0  0  0  0  0  0
    7.5147   -1.7577    1.3040 C   0  0  0  0  0  0  0  0  0  0  0  0
    8.1936   -2.0397   -1.0937 C   0  0  0  0  0  0  0  0  0  0  0  0
    9.7273   -0.9056    0.5178 C   0  0  0  0  0  0  0  0  0  0  0  0
   -0.7764   -0.7052    0.1489 H   0  0  0  0  0  0  0  0  0  0  0  0
   -1.8591    1.4656   -1.6850 H   0  0  0  0  0  0  0  0  0  0  0  0
   -3.3915   -0.5758    0.0138 H   0  0  0  0  0  0  0  0  0  0  0  0
   -2.1704    0.1400    2.1655 H   0  0  0  0  0  0  0  0  0  0  0  0
   -2.1348    1.8437    2.5871 H   0  0  0  0  0  0  0  0  0  0  0  0
    0.6541    1.3364   -1.6264 H   0  0  0  0  0  0  0  0  0  0  0  0
   -3.3246    2.4384    0.5643 H   0  0  0  0  0  0  0  0  0  0  0  0
   -4.1860    1.2073    1.4703 H   0  0  0  0  0  0  0  0  0  0  0  0
    0.4793    1.6758    2.7714 H   0  0  0  0  0  0  0  0  0  0  0  0
    0.1371   -0.0341    2.4944 H   0  0  0  0  0  0  0  0  0  0  0  0
   -0.6693    3.4404    1.4382 H   0  0  0  0  0  0  0  0  0  0  0  0
   -1.3022    3.0949   -0.1714 H   0  0  0  0  0  0  0  0  0  0  0  0
    0.4223    2.9725    0.1408 H   0  0  0  0  0  0  0  0  0  0  0  0
   -4.5418    0.0913   -2.1263 H   0  0  0  0  0  0  0  0  0  0  0  0
    0.6997   -1.7237   -1.5282 H   0  0  0  0  0  0  0  0  0  0  0  0
    1.8761   -0.7627   -2.4290 H   0  0  0  0  0  0  0  0  0  0  0  0
    0.1932   -0.6879   -2.8824 H   0  0  0  0  0  0  0  0  0  0  0  0
   -2.0748   -1.3684   -1.6789 H   0  0  0  0  0  0  0  0  0  0  0  0
   -4.3745    2.9508   -1.1015 H   0  0  0  0  0  0  0  0  0  0  0  0
   -5.3247    2.3485   -2.4326 H   0  0  0  0  0  0  0  0  0  0  0  0
   -3.5833    2.2644   -2.5323 H   0  0  0  0  0  0  0  0  0  0  0  0
   -6.5087   -2.3765   -1.5347 H   0  0  0  0  0  0  0  0  0  0  0  0
   -4.9059   -1.6879   -1.6044 H   0  0  0  0  0  0  0  0  0  0  0  0
   -7.9801    0.0832    0.7084 H   0  0  0  0  0  0  0  0  0  0  0  0
   -8.2790   -1.3819   -0.2205 H   0  0  0  0  0  0  0  0  0  0  0  0
    5.7211    0.5869    1.4140 H   0  0  0  0  0  0  0  0  0  0  0  0
   -4.7891   -3.7100   -0.2749 H   0  0  0  0  0  0  0  0  0  0  0  0
   -4.4640   -2.3326    0.7829 H   0  0  0  0  0  0  0  0  0  0  0  0
   -6.5375   -1.1717    2.3201 H   0  0  0  0  0  0  0  0  0  0  0  0
   -8.1785   -1.8298    2.2527 H   0  0  0  0  0  0  0  0  0  0  0  0
    8.2040    0.7533   -1.0300 H   0  0  0  0  0  0  0  0  0  0  0  0
    7.7766    0.9611    0.6569 H   0  0  0  0  0  0  0  0  0  0  0  0
    6.4798   -2.0084    1.0489 H   0  0  0  0  0  0  0  0  0  0  0  0
    8.0064   -2.6906    1.6035 H   0  0  0  0  0  0  0  0  0  0  0  0
    7.4996   -1.0972    2.1781 H   0  0  0  0  0  0  0  0  0  0  0  0
    7.1613   -2.2708   -1.3768 H   0  0  0  0  0  0  0  0  0  0  0  0
    8.6939   -2.9918   -0.8824 H   0  0  0  0  0  0  0  0  0  0  0  0
    8.6876   -1.5897   -1.9620 H   0  0  0  0  0  0  0  0  0  0  0  0
   10.2970   -0.4468   -0.2982 H   0  0  0  0  0  0  0  0  0  0  0  0
   10.2051   -1.8618    0.7598 H   0  0  0  0  0  0  0  0  0  0  0  0
    9.8197   -0.2568    1.3962 H   0  0  0  0  0  0  0  0  0  0  0  0
  1 20  1  0  0  0  0
  1 24  1  0  0  0  0
  2 27  1  0  0  0  0
  2 28  1  0  0  0  0
  3 11  1  0  0  0  0
  3 52  1  0  0  0  0
  4 23  2  0  0  0  0
  5 29  2  0  0  0  0
  6 19  1  0  0  0  0
  6 24  2  0  0  0  0
  7 23  1  0  0  0  0
  7 25  1  0  0  0  0
  7 26  1  0  0  0  0
  8 24  1  0  0  0  0
  8 29  1  0  0  0  0
  8 60  1  0  0  0  0
  9 10  1  0  0  0  0
  9 13  1  0  0  0  0
  9 16  1  0  0  0  0
  9 17  1  0  0  0  0
 10 11  1  0  0  0  0
 10 14  1  0  0  0  0
 10 35  1  0  0  0  0
 11 12  1  0  0  0  0
 11 36  1  0  0  0  0
 12 15  1  0  0  0  0
 12 18  1  0  0  0  0
 12 37  1  0  0  0  0
 13 15  1  0  0  0  0
 13 38  1  0  0  0  0
 13 39  1  0  0  0  0
 14 19  1  0  0  0  0
 14 21  1  0  0  0  0
 14 40  1  0  0  0  0
 15 41  1  0  0  0  0
 15 42  1  0  0  0  0
 16 20  1  0  0  0  0
 16 43  1  0  0  0  0
 16 44  1  0  0  0  0
 17 45  1  0  0  0  0
 17 46  1  0  0  0  0
 17 47  1  0  0  0  0
 18 22  1  0  0  0  0
 18 23  1  0  0  0  0
 18 48  1  0  0  0  0
 19 20  2  0  0  0  0
 21 49  1  0  0  0  0
 21 50  1  0  0  0  0
 21 51  1  0  0  0  0
 22 53  1  0  0  0  0
 22 54  1  0  0  0  0
 22 55  1  0  0  0  0
 25 27  1  0  0  0  0
 25 56  1  0  0  0  0
 25 57  1  0  0  0  0
 26 28  1  0  0  0  0
 26 58  1  0  0  0  0
 26 59  1  0  0  0  0
 27 61  1  0  0  0  0
 27 62  1  0  0  0  0
 28 63  1  0  0  0  0
 28 64  1  0  0  0  0
 29 30  1  0  0  0  0
 30 31  1  0  0  0  0
 30 65  1  0  0  0  0
 30 66  1  0  0  0  0
 31 32  1  0  0  0  0
 31 33  1  0  0  0  0
 31 34  1  0  0  0  0
 32 67  1  0  0  0  0
 32 68  1  0  0  0  0
 32 69  1  0  0  0  0
 33 70  1  0  0  0  0
 33 71  1  0  0  0  0
 33 72  1  0  0  0  0
 34 73  1  0  0  0  0
 34 74  1  0  0  0  0
 34 75  1  0  0  0  0
M  END
> <PUBCHEM_COMPOUND_CID>
44716695

> <PUBCHEM_CONFORMER_RMSD>
1

> <PUBCHEM_CONFORMER_DIVERSEORDER>
2
92
29
49
77
58
88
72
95
23
78
54
82
63
20
31
43
96
85
57
39
75
22
62
25
86
94
61
87
89
69
59
76
91
55
36
93
52
37
7
53
65
33
19
68
80
67
51
73
60
40
30
84
81
90
74
44
46
24
71
66
79
14
26
97
56
42
17
18
21
27
28
34
45
11
12
70
64
38
47
9
3
48
83
35
10
41
6
5
15
32
13
4
50
16
1
8

> <PUBCHEM_MMFF94_PARTIAL_CHARGES>
24
1 -0.08
11 0.28
14 0.18
16 0.18
18 0.06
19 0.05
2 -0.46
20 -0.14
23 0.57
24 0.44
25 0.3
26 0.3
27 0.23
28 0.23
29 0.57
3 -0.68
30 0.06
4 -0.57
5 -0.57
52 0.4
6 -0.57
60 0.37
7 -0.66
8 -0.49

> <PUBCHEM_EFFECTIVE_ROTOR_COUNT>
9.4

> <PUBCHEM_PHARMACOPHORE_FEATURES>
11
1 22 hydrophobe
1 3 acceptor
1 3 donor
1 4 acceptor
1 5 acceptor
1 8 donor
4 31 32 33 34 hydrophobe
5 1 6 19 20 24 rings
6 2 7 25 26 27 28 rings
6 9 10 11 12 13 15 rings
6 9 10 14 16 19 20 rings

> <PUBCHEM_HEAVY_ATOM_COUNT>
34

> <PUBCHEM_ATOM_DEF_STEREO_COUNT>
5

> <PUBCHEM_ATOM_UDEF_STEREO_COUNT>
1

> <PUBCHEM_BOND_DEF_STEREO_COUNT>
0

> <PUBCHEM_BOND_UDEF_STEREO_COUNT>
0

> <PUBCHEM_ISOTOPIC_ATOM_COUNT>
0

> <PUBCHEM_COMPONENT_COUNT>
1

> <PUBCHEM_CACTVS_TAUTO_COUNT>
3

> <PUBCHEM_CONFORMER_ID>
02AA529700000002

> <PUBCHEM_MMFF94_ENERGY>
94.8738

> <PUBCHEM_FEATURE_SELFOVERLAP>
55.902

> <PUBCHEM_SHAPE_FINGERPRINT>
10533779 1 13038090749801384123
10554248 39 13768191788879621672
10625338 86 9367351439909418495
11135926 11 17489863804761315125
11456790 92 15482670204082784690
11497681 19 17240759579759105938
11578821 258 8286192864641237518
117089 54 17244714695864909587
12082328 90 18260545615046648181
13782708 43 18337381742601099803
13911987 19 13334724752961903465
14028597 1 14907911444165788198
14856354 85 18187359948586852111
14955137 171 18059292179662944417
15131766 46 9510300042581503810
15183329 4 15357693089497954504
15352257 5 18408884036059829410
15461852 350 17313106353802369342
1577012 14 15864341407447192085
16994733 274 10952052243181070334
17093844 174 11167938074419190949
17324776 126 17480850262395325159
17686467 74 18343295986268575200
1818759 1 17989211430701907110
18608769 82 18343301491582867206
19611394 137 18270684280717728691
20982279 24 17844831238754696814
21150785 3 16732982046130192313
21267235 1 17275107236669016800
21315759 40 18187367610718804756
21781051 124 18272092712596292390
21781055 127 14692307187447469608
21792934 111 16415474943616581664
21792961 116 18271519815245269605
21927370 108 17561372764193813680
22149856 69 15051463691605300218
23559900 14 16844425276420722200
23569943 247 16271649966565287039
23576562 1 12324823360908975195
3178227 256 17418379116521749982
335352 9 16845282848019068956
3383291 50 17489584576174384510
4149490 64 18411132581263438944
4169191 19 12901542421018794694
4339292 15 18340479058910578655
437795 150 17313674866330056835
437795 83 13118268270746917791
444769 64 16917063369642713197
4625314 4 18040714779485925333
504579 68 15863788409328290434
5104073 3 16916516834875208722
54039377 194 17095812113959894307
58083652 198 16271918333518029337
6201320 215 10447665551762600274
9953998 17 14333406752980430741
9962374 69 16773497958913948076
999808 66 18131071549760677235

> <PUBCHEM_SHAPE_MULTIPOLES>
674.85
26.77
2.51
1.91
37.93
1.44
0.01
19.59
-0.54
-4.38
-0.51
-0.29
-0.14
1.79

> <PUBCHEM_SHAPE_SELFOVERLAP>
1381.281

> <PUBCHEM_SHAPE_VOLUME>
395.6

> <PUBCHEM_COORDINATE_TYPE>
2
5
10

$$$$
