40586269
  -OEChem-12032416123D

 50 52  0     1  0  0  0  0  0999 V2000
   -1.2185   -0.7959    1.4068 O   0  0  0  0  0  0  0  0  0  0  0  0
   -0.6604   -2.6097   -1.0021 O   0  0  0  0  0  0  0  0  0  0  0  0
   -3.5083   -0.6099   -0.1517 O   0  0  0  0  0  0  0  0  0  0  0  0
   -3.6072    1.3765   -1.3002 O   0  0  0  0  0  0  0  0  0  0  0  0
    1.8673   -0.7532    0.8979 N   0  0  0  0  0  0  0  0  0  0  0  0
   -5.2723    0.7664    0.1958 N   0  0  0  0  0  0  0  0  0  0  0  0
    0.0043   -1.4206   -0.5266 C   0  0  1  0  0  0  0  0  0  0  0  0
   -1.0734   -0.4989    0.0079 C   0  0  1  0  0  0  0  0  0  0  0  0
    0.8401   -1.7445    0.6898 C   0  0  2  0  0  0  0  0  0  0  0  0
   -2.2874   -0.9231   -0.7831 C   0  0  1  0  0  0  0  0  0  0  0  0
   -0.1902   -1.7155    1.8055 C   0  0  0  0  0  0  0  0  0  0  0  0
    4.1072    0.0400    0.3478 C   0  0  0  0  0  0  0  0  0  0  0  0
   -2.0794   -2.4153   -0.9112 C   0  0  0  0  0  0  0  0  0  0  0  0
    3.0377   -1.0267    0.1206 C   0  0  0  0  0  0  0  0  0  0  0  0
    5.3599   -0.2625   -0.4854 C   0  0  0  0  0  0  0  0  0  0  0  0
    3.5584    1.4358    0.0222 C   0  0  0  0  0  0  0  0  0  0  0  0
    6.4244    0.8192   -0.3161 C   0  0  0  0  0  0  0  0  0  0  0  0
    4.6258    2.5146    0.1906 C   0  0  0  0  0  0  0  0  0  0  0  0
    5.8728    2.2060   -0.6321 C   0  0  0  0  0  0  0  0  0  0  0  0
   -4.0907    0.5896   -0.4929 C   0  0  0  0  0  0  0  0  0  0  0  0
   -6.1172    1.9297    0.0537 C   0  0  0  0  0  0  0  0  0  0  0  0
   -5.5927    3.0981    0.8626 C   0  0  0  0  0  0  0  0  0  0  0  0
    0.5479   -0.9988   -1.3771 H   0  0  0  0  0  0  0  0  0  0  0  0
   -0.8388    0.5656   -0.0833 H   0  0  0  0  0  0  0  0  0  0  0  0
    1.2736   -2.7518    0.6542 H   0  0  0  0  0  0  0  0  0  0  0  0
   -2.2303   -0.4979   -1.7947 H   0  0  0  0  0  0  0  0  0  0  0  0
   -0.6605   -2.6983    1.9266 H   0  0  0  0  0  0  0  0  0  0  0  0
    0.2069   -1.4189    2.7816 H   0  0  0  0  0  0  0  0  0  0  0  0
    4.3969    0.0254    1.4084 H   0  0  0  0  0  0  0  0  0  0  0  0
    2.1229   -0.7149    1.8843 H   0  0  0  0  0  0  0  0  0  0  0  0
   -2.4568   -2.9644   -0.0412 H   0  0  0  0  0  0  0  0  0  0  0  0
   -2.5644   -2.8284   -1.8008 H   0  0  0  0  0  0  0  0  0  0  0  0
    3.4576   -2.0044    0.3910 H   0  0  0  0  0  0  0  0  0  0  0  0
    2.7990   -1.0673   -0.9492 H   0  0  0  0  0  0  0  0  0  0  0  0
    5.7803   -1.2315   -0.1912 H   0  0  0  0  0  0  0  0  0  0  0  0
    5.0933   -0.3409   -1.5473 H   0  0  0  0  0  0  0  0  0  0  0  0
    3.1830    1.4590   -1.0091 H   0  0  0  0  0  0  0  0  0  0  0  0
    2.7142    1.6885    0.6739 H   0  0  0  0  0  0  0  0  0  0  0  0
    7.2761    0.6034   -0.9709 H   0  0  0  0  0  0  0  0  0  0  0  0
    6.8010    0.8021    0.7140 H   0  0  0  0  0  0  0  0  0  0  0  0
    4.8982    2.5962    1.2501 H   0  0  0  0  0  0  0  0  0  0  0  0
    4.2180    3.4864   -0.1099 H   0  0  0  0  0  0  0  0  0  0  0  0
    6.6411    2.9623   -0.4356 H   0  0  0  0  0  0  0  0  0  0  0  0
    5.6296    2.2672   -1.7000 H   0  0  0  0  0  0  0  0  0  0  0  0
   -5.5607    0.0395    0.8437 H   0  0  0  0  0  0  0  0  0  0  0  0
   -6.1687    2.1996   -1.0063 H   0  0  0  0  0  0  0  0  0  0  0  0
   -7.1206    1.6515    0.3904 H   0  0  0  0  0  0  0  0  0  0  0  0
   -5.5259    2.8400    1.9248 H   0  0  0  0  0  0  0  0  0  0  0  0
   -4.5931    3.3961    0.5299 H   0  0  0  0  0  0  0  0  0  0  0  0
   -6.2572    3.9615    0.7607 H   0  0  0  0  0  0  0  0  0  0  0  0
  1  8  1  0  0  0  0
  1 11  1  0  0  0  0
  2  7  1  0  0  0  0
  2 13  1  0  0  0  0
  3 10  1  0  0  0  0
  3 20  1  0  0  0  0
  4 20  2  0  0  0  0
  5  9  1  0  0  0  0
  5 14  1  0  0  0  0
  5 30  1  0  0  0  0
  6 20  1  0  0  0  0
  6 21  1  0  0  0  0
  6 45  1  0  0  0  0
  7  8  1  0  0  0  0
  7  9  1  0  0  0  0
  7 23  1  0  0  0  0
  8 10  1  0  0  0  0
  8 24  1  0  0  0  0
  9 11  1  0  0  0  0
  9 25  1  0  0  0  0
 10 13  1  0  0  0  0
 10 26  1  0  0  0  0
 11 27  1  0  0  0  0
 11 28  1  0  0  0  0
 12 14  1  0  0  0  0
 12 15  1  0  0  0  0
 12 16  1  0  0  0  0
 12 29  1  0  0  0  0
 13 31  1  0  0  0  0
 13 32  1  0  0  0  0
 14 33  1  0  0  0  0
 14 34  1  0  0  0  0
 15 17  1  0  0  0  0
 15 35  1  0  0  0  0
 15 36  1  0  0  0  0
 16 18  1  0  0  0  0
 16 37  1  0  0  0  0
 16 38  1  0  0  0  0
 17 19  1  0  0  0  0
 17 39  1  0  0  0  0
 17 40  1  0  0  0  0
 18 19  1  0  0  0  0
 18 41  1  0  0  0  0
 18 42  1  0  0  0  0
 19 43  1  0  0  0  0
 19 44  1  0  0  0  0
 21 22  1  0  0  0  0
 21 46  1  0  0  0  0
 21 47  1  0  0  0  0
 22 48  1  0  0  0  0
 22 49  1  0  0  0  0
 22 50  1  0  0  0  0
M  END
> <PUBCHEM_COMPOUND_CID>
40586269

> <PUBCHEM_CONFORMER_RMSD>
1

> <PUBCHEM_CONFORMER_DIVERSEORDER>
1
30
27
18
4
14
7
20
22
21
15
10
26
5
11
12
2
9
24
3
29
8
13
17
19
6
16
28
25
23

> <PUBCHEM_MMFF94_PARTIAL_CHARGES>
17
1 -0.56
10 0.28
11 0.28
13 0.28
14 0.27
2 -0.56
20 0.78
21 0.3
3 -0.43
30 0.36
4 -0.57
45 0.37
5 -0.9
6 -0.73
7 0.28
8 0.28
9 0.27

> <PUBCHEM_EFFECTIVE_ROTOR_COUNT>
9.4

> <PUBCHEM_PHARMACOPHORE_FEATURES>
9
1 1 acceptor
1 2 acceptor
1 4 acceptor
1 5 cation
1 5 donor
1 6 donor
5 1 7 8 9 11 rings
5 2 7 8 10 13 rings
6 12 15 16 17 18 19 rings

> <PUBCHEM_HEAVY_ATOM_COUNT>
22

> <PUBCHEM_ATOM_DEF_STEREO_COUNT>
4

> <PUBCHEM_ATOM_UDEF_STEREO_COUNT>
0

> <PUBCHEM_BOND_DEF_STEREO_COUNT>
0

> <PUBCHEM_BOND_UDEF_STEREO_COUNT>
0

> <PUBCHEM_ISOTOPIC_ATOM_COUNT>
0

> <PUBCHEM_COMPONENT_COUNT>
1

> <PUBCHEM_CACTVS_TAUTO_COUNT>
2

> <PUBCHEM_CONFORMER_ID>
026B4C1D00000001

> <PUBCHEM_MMFF94_ENERGY>
32.6891

> <PUBCHEM_FEATURE_SELFOVERLAP>
46.387

> <PUBCHEM_SHAPE_FINGERPRINT>
10753850 27 11312054348715480269
11796584 16 12463274891986663245
12390115 104 18409737274394279827
12596602 18 13045940188363474244
12633257 1 15502661537161739478
12760667 363 9727633921188512661
12788726 201 17417534609554879457
12839892 36 12685092562349728425
12892183 10 15285627738632811427
12895836 83 18272928340884431443
12895837 130 18266463298750428820
13167372 99 18410855439138882016
13544653 18 9511458957014960495
13885169 86 18335146405350217397
13955234 65 17678734536062744315
14211702 104 8790888514041384936
14251740 57 10737555091340064304
14251764 75 18410298016386922997
14790565 3 18342459193031026153
14848178 5 10303808791557065109
15163728 17 18200884989095097023
15183329 4 17989491809797305864
15188451 53 9655581786085503852
15510800 12 11167932610725561693
15778101 99 18409450305748228702
17857418 61 9511462233995931532
17959699 21 18339922718589487376
18335252 114 18340478954976483228
193927 3 10375590455447201556
19784866 240 11600005474620341011
20715895 44 18272933791451007852
21033648 29 18263641930691725376
21304253 335 18334863809228332733
21315763 87 11025803115164190180
21401589 2 17821726164961916377
21756936 100 18114459054288560354
22079108 93 17603585244392384043
22224240 67 16877944932439395195
23402655 69 18412542150342659846
23559900 14 16702015448571054002
270888 7 18408602565235381908
2838139 119 18413385436415719349
3014063 24 9151167640956555313
314194 84 9655281683408343159
3472631 163 18412826897509431148
38570 142 18334301937575160538
439807 62 9654986981019953529
5104073 3 17603859044626371866
56616090 13 18335699455276875466
5718773 13 11527683946991157156
59682541 35 17968672575175629729
59755656 520 17530679927121705562
633830 44 18334848416266373594
636775 72 18122340457470840104
76465 3 8646480830519000407
7808743 9 18412820283581515627

> <PUBCHEM_SHAPE_MULTIPOLES>
419.31
15.52
3.12
1.15
2.65
1.09
0.26
16.46
-1.55
-1.92
0.05
-0.49
-0.4
-1.17

> <PUBCHEM_SHAPE_SELFOVERLAP>
860.145

> <PUBCHEM_SHAPE_VOLUME>
241.5

> <PUBCHEM_COORDINATE_TYPE>
2
5
10

$$$$
