11866301
  -OEChem-12032416383D

 63 64  0     1  0  0  0  0  0999 V2000
    6.1672    1.7904   -1.6961 S   0  0  0  0  0  0  0  0  0  0  0  0
   -1.1215   -2.3337   -1.6969 O   0  0  0  0  0  0  0  0  0  0  0  0
   -0.6885   -4.4113    1.2830 O   0  0  0  0  0  0  0  0  0  0  0  0
   -4.4826   -1.4236    0.7626 O   0  0  0  0  0  0  0  0  0  0  0  0
    2.7951   -1.4552    2.1754 O   0  0  0  0  0  0  0  0  0  0  0  0
    1.8586    2.4146    2.3121 O   0  0  0  0  0  0  0  0  0  0  0  0
   -2.4456   -0.6037    0.0084 N   0  0  0  0  0  0  0  0  0  0  0  0
   -5.7563    0.0954   -1.0680 N   0  0  0  0  0  0  0  0  0  0  0  0
    2.2786    0.2496    0.6716 N   0  0  0  0  0  0  0  0  0  0  0  0
    4.0408    2.2297    3.0052 N   0  0  0  0  0  0  0  0  0  0  0  0
   -1.6120   -1.6352    0.5759 C   0  0  1  0  0  0  0  0  0  0  0  0
   -1.4382   -2.8217   -0.3914 C   0  0  2  0  0  0  0  0  0  0  0  0
   -0.3176   -3.7625    0.0683 C   0  0  1  0  0  0  0  0  0  0  0  0
    1.0195   -3.0241    0.2515 C   0  0  0  0  0  0  0  0  0  0  0  0
    0.8668   -1.6537    0.8480 C   0  0  0  0  0  0  0  0  0  0  0  0
   -0.3067   -1.0232    1.0071 C   0  0  0  0  0  0  0  0  0  0  0  0
   -4.4706    0.5934   -0.5722 C   0  0  1  0  0  0  0  0  0  0  0  0
   -4.6937    1.7981    0.3563 C   0  0  0  0  0  0  0  0  0  0  0  0
   -3.8252   -0.5837    0.1506 C   0  0  0  0  0  0  0  0  0  0  0  0
   -5.2985    3.0378   -0.3376 C   0  0  0  0  0  0  0  0  0  0  0  0
    2.0747   -0.9623    1.3080 C   0  0  0  0  0  0  0  0  0  0  0  0
   -4.3652    3.5087   -1.4567 C   0  0  0  0  0  0  0  0  0  0  0  0
   -5.5548    4.1881    0.6370 C   0  0  0  0  0  0  0  0  0  0  0  0
    3.4015    1.1131    0.9588 C   0  0  1  0  0  0  0  0  0  0  0  0
    3.7957    1.9757   -0.2464 C   0  0  0  0  0  0  0  0  0  0  0  0
   -5.5738   -0.6610   -2.2957 C   0  0  0  0  0  0  0  0  0  0  0  0
    2.9990    1.9940    2.1328 C   0  0  0  0  0  0  0  0  0  0  0  0
    4.6174    1.2097   -1.2562 C   0  0  0  0  0  0  0  0  0  0  0  0
    4.2941    0.0463   -1.9192 C   0  0  0  0  0  0  0  0  0  0  0  0
    5.3323   -0.3740   -2.7997 C   0  0  0  0  0  0  0  0  0  0  0  0
    6.4096    0.4841   -2.7764 C   0  0  0  0  0  0  0  0  0  0  0  0
   -2.1047   -2.0005    1.4866 H   0  0  0  0  0  0  0  0  0  0  0  0
   -2.3892   -3.3635   -0.4628 H   0  0  0  0  0  0  0  0  0  0  0  0
   -0.1732   -4.5508   -0.6805 H   0  0  0  0  0  0  0  0  0  0  0  0
    1.6885   -3.6254    0.8788 H   0  0  0  0  0  0  0  0  0  0  0  0
    1.5012   -2.9087   -0.7278 H   0  0  0  0  0  0  0  0  0  0  0  0
   -0.3489   -0.0488    1.4896 H   0  0  0  0  0  0  0  0  0  0  0  0
   -1.9981    0.1180   -0.5502 H   0  0  0  0  0  0  0  0  0  0  0  0
   -3.8233    0.8914   -1.4044 H   0  0  0  0  0  0  0  0  0  0  0  0
   -5.3453    1.5012    1.1898 H   0  0  0  0  0  0  0  0  0  0  0  0
   -3.7358    2.0718    0.8192 H   0  0  0  0  0  0  0  0  0  0  0  0
   -6.2635    2.7684   -0.7839 H   0  0  0  0  0  0  0  0  0  0  0  0
   -1.0487   -3.1032   -2.2869 H   0  0  0  0  0  0  0  0  0  0  0  0
    0.0248   -5.0294    1.5162 H   0  0  0  0  0  0  0  0  0  0  0  0
   -6.2298   -0.4649   -0.3609 H   0  0  0  0  0  0  0  0  0  0  0  0
    1.5977    0.5759   -0.0089 H   0  0  0  0  0  0  0  0  0  0  0  0
    4.2444    0.4808    1.2676 H   0  0  0  0  0  0  0  0  0  0  0  0
   -3.3445    3.6619   -1.0903 H   0  0  0  0  0  0  0  0  0  0  0  0
   -4.7152    4.4588   -1.8758 H   0  0  0  0  0  0  0  0  0  0  0  0
   -4.3335    2.7964   -2.2863 H   0  0  0  0  0  0  0  0  0  0  0  0
   -4.6233    4.5275    1.1026 H   0  0  0  0  0  0  0  0  0  0  0  0
   -6.0106    5.0419    0.1249 H   0  0  0  0  0  0  0  0  0  0  0  0
   -6.2359    3.8727    1.4342 H   0  0  0  0  0  0  0  0  0  0  0  0
    2.9016    2.3689   -0.7484 H   0  0  0  0  0  0  0  0  0  0  0  0
    4.3575    2.8529    0.1006 H   0  0  0  0  0  0  0  0  0  0  0  0
   -4.9481   -1.5476   -2.1510 H   0  0  0  0  0  0  0  0  0  0  0  0
   -6.5496   -1.0023   -2.6558 H   0  0  0  0  0  0  0  0  0  0  0  0
   -5.1388   -0.0407   -3.0865 H   0  0  0  0  0  0  0  0  0  0  0  0
    3.3587   -0.4833   -1.7942 H   0  0  0  0  0  0  0  0  0  0  0  0
    4.9777    1.8730    2.8469 H   0  0  0  0  0  0  0  0  0  0  0  0
    3.9036    2.7904    3.8395 H   0  0  0  0  0  0  0  0  0  0  0  0
    5.2903   -1.2597   -3.4201 H   0  0  0  0  0  0  0  0  0  0  0  0
    7.3271    0.4067   -3.3424 H   0  0  0  0  0  0  0  0  0  0  0  0
  1 28  1  0  0  0  0
  1 31  1  0  0  0  0
  2 12  1  0  0  0  0
  2 43  1  0  0  0  0
  3 13  1  0  0  0  0
  3 44  1  0  0  0  0
  4 19  2  0  0  0  0
  5 21  2  0  0  0  0
  6 27  2  0  0  0  0
  7 11  1  0  0  0  0
  7 19  1  0  0  0  0
  7 38  1  0  0  0  0
  8 17  1  0  0  0  0
  8 26  1  0  0  0  0
  8 45  1  0  0  0  0
  9 21  1  0  0  0  0
  9 24  1  0  0  0  0
  9 46  1  0  0  0  0
 10 27  1  0  0  0  0
 10 60  1  0  0  0  0
 10 61  1  0  0  0  0
 11 12  1  0  0  0  0
 11 16  1  0  0  0  0
 11 32  1  0  0  0  0
 12 13  1  0  0  0  0
 12 33  1  0  0  0  0
 13 14  1  0  0  0  0
 13 34  1  0  0  0  0
 14 15  1  0  0  0  0
 14 35  1  0  0  0  0
 14 36  1  0  0  0  0
 15 16  2  0  0  0  0
 15 21  1  0  0  0  0
 16 37  1  0  0  0  0
 17 18  1  0  0  0  0
 17 19  1  0  0  0  0
 17 39  1  0  0  0  0
 18 20  1  0  0  0  0
 18 40  1  0  0  0  0
 18 41  1  0  0  0  0
 20 22  1  0  0  0  0
 20 23  1  0  0  0  0
 20 42  1  0  0  0  0
 22 48  1  0  0  0  0
 22 49  1  0  0  0  0
 22 50  1  0  0  0  0
 23 51  1  0  0  0  0
 23 52  1  0  0  0  0
 23 53  1  0  0  0  0
 24 25  1  0  0  0  0
 24 27  1  0  0  0  0
 24 47  1  0  0  0  0
 25 28  1  0  0  0  0
 25 54  1  0  0  0  0
 25 55  1  0  0  0  0
 26 56  1  0  0  0  0
 26 57  1  0  0  0  0
 26 58  1  0  0  0  0
 28 29  2  0  0  0  0
 29 30  1  0  0  0  0
 29 59  1  0  0  0  0
 30 31  2  0  0  0  0
 30 62  1  0  0  0  0
 31 63  1  0  0  0  0
M  END
> <PUBCHEM_COMPOUND_CID>
11866301

> <PUBCHEM_CONFORMER_RMSD>
1.2

> <PUBCHEM_CONFORMER_DIVERSEORDER>
1
48
55
12
45
57
19
34
49
50
52
54
39
32
28
30
51
5
47
31
2
16
40
41
18
26
3
36
29
11
46
20
58
38
60
44
24
35
4
7
56
27
43
6
33
9
13
8
15
10
37
23
59
22
21
25
14
42
53
17

> <PUBCHEM_MMFF94_PARTIAL_CHARGES>
38
1 -0.08
10 -0.8
11 0.44
12 0.28
13 0.28
14 0.14
15 -0.12
16 -0.29
17 0.33
19 0.57
2 -0.68
21 0.62
24 0.36
25 0.18
26 0.27
27 0.57
28 -0.14
29 -0.15
3 -0.68
30 -0.15
31 -0.11
37 0.15
38 0.37
4 -0.57
43 0.4
44 0.4
45 0.36
46 0.37
5 -0.57
59 0.15
6 -0.57
60 0.37
61 0.37
62 0.15
63 0.15
7 -0.73
8 -0.9
9 -0.73

> <PUBCHEM_EFFECTIVE_ROTOR_COUNT>
12.8

> <PUBCHEM_PHARMACOPHORE_FEATURES>
15
1 10 donor
1 2 acceptor
1 2 donor
1 3 acceptor
1 3 donor
1 4 acceptor
1 5 acceptor
1 6 acceptor
1 7 donor
1 8 cation
1 8 donor
1 9 donor
3 20 22 23 hydrophobe
5 1 28 29 30 31 rings
6 11 12 13 14 15 16 rings

> <PUBCHEM_HEAVY_ATOM_COUNT>
31

> <PUBCHEM_ATOM_DEF_STEREO_COUNT>
5

> <PUBCHEM_ATOM_UDEF_STEREO_COUNT>
0

> <PUBCHEM_BOND_DEF_STEREO_COUNT>
0

> <PUBCHEM_BOND_UDEF_STEREO_COUNT>
0

> <PUBCHEM_ISOTOPIC_ATOM_COUNT>
0

> <PUBCHEM_COMPONENT_COUNT>
1

> <PUBCHEM_CACTVS_TAUTO_COUNT>
8

> <PUBCHEM_CONFORMER_ID>
00B510BD00000001

> <PUBCHEM_MMFF94_ENERGY>
53.7155

> <PUBCHEM_FEATURE_SELFOVERLAP>
76.13

> <PUBCHEM_SHAPE_FINGERPRINT>
10670039 82 18334018297682212653
11135609 149 16988846051678118400
11720765 8 17417813877757097872
1200032 147 17896335635367913552
13944108 23 17763471608198233589
14347329 18 18333455347897602464
14840074 17 17312827082334150261
15163728 17 18261402104861869159
15297060 5 18337406941037673076
15419009 47 15910822076042446680
16992727 255 18335155184986018468
19304671 126 17489297556300345577
19315092 285 13110957609300909624
20567600 9 18336829701622101669
20775530 9 10663244722298330761
21033650 10 17970918988641103754
21458453 9 11314884599188454612
21585480 29 12901841557102279441
21756936 100 16879074251145499282
22393880 68 18202278091924060449
23536364 44 17988374679913300528
23559900 14 17345201193555751298
2838139 119 18408610235978200046
312425 83 17345742122484066428
38570 142 17313112977412202958
3918712 181 18261102006896953277
392239 28 14129637617321428548
4015057 19 17059787731412780394
4058900 60 18114749235290775595
4756261 7 8645043691770776758
513532 50 17774993614384469216
6523845 18 18271264784360978443
6608658 132 18334566967517961805

> <PUBCHEM_SHAPE_MULTIPOLES>
592.54
15.73
4.96
2.7
2.03
0.96
0.01
-15.56
-10.64
5.39
1.24
-4.42
-1.06
0.1

> <PUBCHEM_SHAPE_SELFOVERLAP>
1198.375

> <PUBCHEM_SHAPE_VOLUME>
347

> <PUBCHEM_COORDINATE_TYPE>
2
5
10

$$$$
