26743195
  -OEChem-12032416193D

 68 71  0     1  0  0  0  0  0999 V2000
    3.5045    3.3794   -0.6966 O   0  0  0  0  0  0  0  0  0  0  0  0
    0.8644   -3.4388   -0.2232 O   0  0  0  0  0  0  0  0  0  0  0  0
   -1.5880   -2.0759    0.3869 O   0  0  0  0  0  0  0  0  0  0  0  0
   -3.6268    1.5323    1.7069 O   0  0  0  0  0  0  0  0  0  0  0  0
   -4.5532    1.4672   -0.9128 O   0  0  0  0  0  0  0  0  0  0  0  0
    6.7121   -0.3031    1.1505 N   0  0  0  0  0  0  0  0  0  0  0  0
    1.7168    1.9965   -0.1551 N   0  0  0  0  0  0  0  0  0  0  0  0
    2.2537   -3.4686   -0.2235 N   0  0  0  0  0  0  0  0  0  0  0  0
    3.8850    0.0926    0.4038 C   0  0  1  0  0  0  0  0  0  0  0  0
    4.6349   -1.2392    0.1631 C   0  0  2  0  0  0  0  0  0  0  0  0
    4.5659    0.8508    1.5556 C   0  0  0  0  0  0  0  0  0  0  0  0
    6.1487   -1.0182    0.0049 C   0  0  0  0  0  0  0  0  0  0  0  0
    6.0728    0.9961    1.3480 C   0  0  0  0  0  0  0  0  0  0  0  0
    4.0813   -2.0331   -1.0209 C   0  0  0  0  0  0  0  0  0  0  0  0
    3.7728    0.9794   -0.8420 C   0  0  0  0  0  0  0  0  0  0  0  0
    2.6234   -2.3417   -0.8388 C   0  0  0  0  0  0  0  0  0  0  0  0
    3.0148    2.2606   -0.5672 C   0  0  0  0  0  0  0  0  0  0  0  0
    1.5215   -1.5692   -1.2448 C   0  0  0  0  0  0  0  0  0  0  0  0
    0.4403   -2.3030   -0.8341 C   0  0  0  0  0  0  0  0  0  0  0  0
    0.7679    3.0343    0.1774 C   0  0  0  0  0  0  0  0  0  0  0  0
   -1.0120   -2.1093   -0.9219 C   0  0  0  0  0  0  0  0  0  0  0  0
   -0.6453    2.6161   -0.1091 C   0  0  0  0  0  0  0  0  0  0  0  0
   -1.4937    2.2615    0.9398 C   0  0  0  0  0  0  0  0  0  0  0  0
   -1.1105    2.5837   -1.4238 C   0  0  0  0  0  0  0  0  0  0  0  0
   -2.8071    1.8747    0.6741 C   0  0  0  0  0  0  0  0  0  0  0  0
   -2.4240    2.1969   -1.6896 C   0  0  0  0  0  0  0  0  0  0  0  0
   -3.2724    1.8424   -0.6405 C   0  0  0  0  0  0  0  0  0  0  0  0
   -2.9488   -1.9655    0.4507 C   0  0  0  0  0  0  0  0  0  0  0  0
   -3.6984   -1.8922   -0.7233 C   0  0  0  0  0  0  0  0  0  0  0  0
   -3.5878   -1.9263    1.6898 C   0  0  0  0  0  0  0  0  0  0  0  0
   -5.0873   -1.7796   -0.6581 C   0  0  0  0  0  0  0  0  0  0  0  0
   -4.9765   -1.8137    1.7552 C   0  0  0  0  0  0  0  0  0  0  0  0
   -3.0735    1.5921    3.0203 C   0  0  0  0  0  0  0  0  0  0  0  0
   -4.9492    1.4612   -2.2831 C   0  0  0  0  0  0  0  0  0  0  0  0
   -5.7263   -1.7403    0.5811 C   0  0  0  0  0  0  0  0  0  0  0  0
    2.8799   -0.1511    0.7663 H   0  0  0  0  0  0  0  0  0  0  0  0
    4.4939   -1.8518    1.0675 H   0  0  0  0  0  0  0  0  0  0  0  0
    4.1185    1.8367    1.7206 H   0  0  0  0  0  0  0  0  0  0  0  0
    4.3963    0.2914    2.4864 H   0  0  0  0  0  0  0  0  0  0  0  0
    6.3725   -0.4777   -0.9228 H   0  0  0  0  0  0  0  0  0  0  0  0
    6.6507   -1.9900   -0.0697 H   0  0  0  0  0  0  0  0  0  0  0  0
    6.5081    1.4665    2.2367 H   0  0  0  0  0  0  0  0  0  0  0  0
    6.2897    1.6603    0.5038 H   0  0  0  0  0  0  0  0  0  0  0  0
    4.6330   -2.9781   -1.1166 H   0  0  0  0  0  0  0  0  0  0  0  0
    4.2361   -1.5048   -1.9687 H   0  0  0  0  0  0  0  0  0  0  0  0
    3.2823    0.4881   -1.6825 H   0  0  0  0  0  0  0  0  0  0  0  0
    4.7663    1.2630   -1.2080 H   0  0  0  0  0  0  0  0  0  0  0  0
    7.7123   -0.1686    1.0053 H   0  0  0  0  0  0  0  0  0  0  0  0
    1.4860   -0.6344   -1.7801 H   0  0  0  0  0  0  0  0  0  0  0  0
    1.4054    1.0353   -0.0628 H   0  0  0  0  0  0  0  0  0  0  0  0
    1.0082    3.9490   -0.3774 H   0  0  0  0  0  0  0  0  0  0  0  0
    0.9063    3.2674    1.2393 H   0  0  0  0  0  0  0  0  0  0  0  0
   -1.2094   -1.1634   -1.4420 H   0  0  0  0  0  0  0  0  0  0  0  0
   -1.4156   -2.9519   -1.4979 H   0  0  0  0  0  0  0  0  0  0  0  0
   -1.0775    2.3030    1.9406 H   0  0  0  0  0  0  0  0  0  0  0  0
   -0.4571    2.8578   -2.2480 H   0  0  0  0  0  0  0  0  0  0  0  0
   -2.7159    2.1949   -2.7340 H   0  0  0  0  0  0  0  0  0  0  0  0
   -3.2729   -1.9085   -1.7205 H   0  0  0  0  0  0  0  0  0  0  0  0
   -3.0087   -1.9811    2.6076 H   0  0  0  0  0  0  0  0  0  0  0  0
   -2.7908    2.6144    3.2932 H   0  0  0  0  0  0  0  0  0  0  0  0
   -3.8617    1.2843    3.7153 H   0  0  0  0  0  0  0  0  0  0  0  0
   -2.2479    0.8829    3.1438 H   0  0  0  0  0  0  0  0  0  0  0  0
   -5.6720   -1.7204   -1.5714 H   0  0  0  0  0  0  0  0  0  0  0  0
   -5.4738   -1.7812    2.7201 H   0  0  0  0  0  0  0  0  0  0  0  0
   -4.9160    2.4665   -2.7166 H   0  0  0  0  0  0  0  0  0  0  0  0
   -4.3726    0.7363   -2.8678 H   0  0  0  0  0  0  0  0  0  0  0  0
   -5.9944    1.1360   -2.3151 H   0  0  0  0  0  0  0  0  0  0  0  0
   -6.8075   -1.6509    0.6319 H   0  0  0  0  0  0  0  0  0  0  0  0
  1 17  2  0  0  0  0
  2  8  1  0  0  0  0
  2 19  1  0  0  0  0
  3 21  1  0  0  0  0
  3 28  1  0  0  0  0
  4 25  1  0  0  0  0
  4 33  1  0  0  0  0
  5 27  1  0  0  0  0
  5 34  1  0  0  0  0
  6 12  1  0  0  0  0
  6 13  1  0  0  0  0
  6 48  1  0  0  0  0
  7 17  1  0  0  0  0
  7 20  1  0  0  0  0
  7 50  1  0  0  0  0
  8 16  2  0  0  0  0
  9 10  1  0  0  0  0
  9 11  1  0  0  0  0
  9 15  1  0  0  0  0
  9 36  1  0  0  0  0
 10 12  1  0  0  0  0
 10 14  1  0  0  0  0
 10 37  1  0  0  0  0
 11 13  1  0  0  0  0
 11 38  1  0  0  0  0
 11 39  1  0  0  0  0
 12 40  1  0  0  0  0
 12 41  1  0  0  0  0
 13 42  1  0  0  0  0
 13 43  1  0  0  0  0
 14 16  1  0  0  0  0
 14 44  1  0  0  0  0
 14 45  1  0  0  0  0
 15 17  1  0  0  0  0
 15 46  1  0  0  0  0
 15 47  1  0  0  0  0
 16 18  1  0  0  0  0
 18 19  2  0  0  0  0
 18 49  1  0  0  0  0
 19 21  1  0  0  0  0
 20 22  1  0  0  0  0
 20 51  1  0  0  0  0
 20 52  1  0  0  0  0
 21 53  1  0  0  0  0
 21 54  1  0  0  0  0
 22 23  2  0  0  0  0
 22 24  1  0  0  0  0
 23 25  1  0  0  0  0
 23 55  1  0  0  0  0
 24 26  2  0  0  0  0
 24 56  1  0  0  0  0
 25 27  2  0  0  0  0
 26 27  1  0  0  0  0
 26 57  1  0  0  0  0
 28 29  2  0  0  0  0
 28 30  1  0  0  0  0
 29 31  1  0  0  0  0
 29 58  1  0  0  0  0
 30 32  2  0  0  0  0
 30 59  1  0  0  0  0
 31 35  2  0  0  0  0
 31 63  1  0  0  0  0
 32 35  1  0  0  0  0
 32 64  1  0  0  0  0
 33 60  1  0  0  0  0
 33 61  1  0  0  0  0
 33 62  1  0  0  0  0
 34 65  1  0  0  0  0
 34 66  1  0  0  0  0
 34 67  1  0  0  0  0
 35 68  1  0  0  0  0
M  END
> <PUBCHEM_COMPOUND_CID>
26743195

> <PUBCHEM_CONFORMER_RMSD>
1.4

> <PUBCHEM_CONFORMER_DIVERSEORDER>
2
131
39
15
70
79
103
114
119
3
68
51
96
28
41
35
121
69
56
75
38
83
23
90
6
9
57
8
5
82
115
74
12
25
55
21
14
30
130
24
49
16
52
4
107
43
48
60
32
102
129
111
125
20
47
31
106
1
42
72
27
62
37
59
58
104
99
78
92
7
109
117
71
61
46
45
64
89
124
53
26
110
33
63
40
97
126
73
11
128
116
88
54
127
100
91
10
18
87
65
76
66
120
77
105
118
85
113
29
19
112
123
17
81
22
67
36
34
80
98
50
101
13
94
108
122
44
95
93
84
86

> <PUBCHEM_MMFF94_PARTIAL_CHARGES>
43
1 -0.57
12 0.27
13 0.27
14 0.18
15 0.06
16 0.11
17 0.57
18 -0.15
19 -0.04
2 -0.02
20 0.44
21 0.46
22 -0.14
23 -0.15
24 -0.15
25 0.08
26 -0.15
27 0.08
28 0.08
29 -0.15
3 -0.36
30 -0.15
31 -0.15
32 -0.15
33 0.28
34 0.28
35 -0.15
4 -0.36
48 0.36
49 0.15
5 -0.36
50 0.37
55 0.15
56 0.15
57 0.15
58 0.15
59 0.15
6 -0.9
63 0.15
64 0.15
68 0.15
7 -0.73
8 -0.41

> <PUBCHEM_EFFECTIVE_ROTOR_COUNT>
13.2

> <PUBCHEM_PHARMACOPHORE_FEATURES>
12
1 1 acceptor
1 3 acceptor
1 4 acceptor
1 5 acceptor
1 6 cation
1 6 donor
1 7 donor
1 8 acceptor
5 2 8 16 18 19 rings
6 22 23 24 25 26 27 rings
6 28 29 30 31 32 35 rings
6 6 9 10 11 12 13 rings

> <PUBCHEM_HEAVY_ATOM_COUNT>
35

> <PUBCHEM_ATOM_DEF_STEREO_COUNT>
2

> <PUBCHEM_ATOM_UDEF_STEREO_COUNT>
0

> <PUBCHEM_BOND_DEF_STEREO_COUNT>
0

> <PUBCHEM_BOND_UDEF_STEREO_COUNT>
0

> <PUBCHEM_ISOTOPIC_ATOM_COUNT>
0

> <PUBCHEM_COMPONENT_COUNT>
1

> <PUBCHEM_CACTVS_TAUTO_COUNT>
2

> <PUBCHEM_CONFORMER_ID>
0198119B00000002

> <PUBCHEM_MMFF94_ENERGY>
90.9704

> <PUBCHEM_FEATURE_SELFOVERLAP>
60.903

> <PUBCHEM_SHAPE_FINGERPRINT>
10670039 82 18264511558474249926
10864689 126 17907023880484546046
10939801 23 18193272125905377240
11135609 12 18335706048099277401
11828532 37 17098067306423671691
12422481 6 18266480800836651081
12978246 48 18340488971193495602
13402501 40 18411411808743249110
15264996 44 18200611283899114830
16112460 7 18057050318371829968
20721686 56 18268421357150269342
20764821 26 18338253599460997260
21623110 236 18341057337338151385
24941158 1 16199327386499595254
3052486 1 18409451371860110302
338550 245 18409728499939572820
3459 110 18341056224350823707
373842 8 18410289186244879118
392239 28 18339931428340246743
463206 1 18266742380918788900
469060 322 17967541151028233895
508706 21 18261954029270043685
5265222 85 17760659457203119189
57527585 103 17824289144247642571

> <PUBCHEM_SHAPE_MULTIPOLES>
675.99
13.98
4.62
1.9
9.01
0.02
0.72
-3.05
3.36
-0.83
-0.8
-2.02
0.74
1.54

> <PUBCHEM_SHAPE_SELFOVERLAP>
1433.784

> <PUBCHEM_SHAPE_VOLUME>
376.5

> <PUBCHEM_COORDINATE_TYPE>
2
5
10

$$$$
