40779473
  -OEChem-12032416163D

 58 62  0     1  0  0  0  0  0999 V2000
   -2.8641    3.8258   -0.3810 S   0  0  0  0  0  0  0  0  0  0  0  0
   -3.3838    4.8450   -1.2716 O   0  0  0  0  0  0  0  0  0  0  0  0
   -1.5262    3.2958   -0.5606 O   0  0  0  0  0  0  0  0  0  0  0  0
   -4.2859   -0.8957    1.2925 N   0  0  2  0  0  0  0  0  0  0  0  0
   -0.0346   -2.8874   -0.4490 N   0  0  0  0  0  0  0  0  0  0  0  0
   -3.9599    2.5182   -0.2971 N   0  0  0  0  0  0  0  0  0  0  0  0
    1.2453   -2.4931   -0.5615 N   0  0  0  0  0  0  0  0  0  0  0  0
   -3.3214   -1.8357   -0.9367 C   0  0  2  0  0  0  0  0  0  0  0  0
   -2.3594   -2.1425    0.2443 C   0  0  2  0  0  0  0  0  0  0  0  0
   -4.3120    0.1573    0.2433 C   0  0  2  0  0  0  0  0  0  0  0  0
   -3.5582   -0.3129   -1.0193 C   0  0  0  0  0  0  0  0  0  0  0  0
   -4.6768   -2.4872   -0.5876 C   0  0  0  0  0  0  0  0  0  0  0  0
   -2.8977   -1.3823    1.4900 C   0  0  0  0  0  0  0  0  0  0  0  0
   -5.1111   -2.0317    0.8166 C   0  0  0  0  0  0  0  0  0  0  0  0
   -3.7873    1.5013    0.7533 C   0  0  0  0  0  0  0  0  0  0  0  0
   -0.8685   -1.9214    0.0327 C   0  0  0  0  0  0  0  0  0  0  0  0
   -0.0792   -0.8187    0.2507 C   0  0  0  0  0  0  0  0  0  0  0  0
    1.2118   -1.2286   -0.1327 C   0  0  0  0  0  0  0  0  0  0  0  0
   -0.3938   -4.2344   -0.8279 C   0  0  0  0  0  0  0  0  0  0  0  0
    2.4133   -0.4362   -0.0956 C   0  0  0  0  0  0  0  0  0  0  0  0
   -2.9704    4.4466    1.2819 C   0  0  0  0  0  0  0  0  0  0  0  0
    3.6483   -1.0519    0.1097 C   0  0  0  0  0  0  0  0  0  0  0  0
    2.3420    0.9434   -0.2650 C   0  0  0  0  0  0  0  0  0  0  0  0
    4.8296   -0.2933    0.1480 C   0  0  0  0  0  0  0  0  0  0  0  0
    3.5055    1.7125   -0.2298 C   0  0  0  0  0  0  0  0  0  0  0  0
    4.7571    1.1096   -0.0242 C   0  0  0  0  0  0  0  0  0  0  0  0
    6.0812   -0.8962    0.3536 C   0  0  0  0  0  0  0  0  0  0  0  0
    5.9384    1.8681    0.0143 C   0  0  0  0  0  0  0  0  0  0  0  0
    7.2446   -0.1270    0.3890 C   0  0  0  0  0  0  0  0  0  0  0  0
    7.1734    1.2525    0.2197 C   0  0  0  0  0  0  0  0  0  0  0  0
   -2.9325   -2.2210   -1.8849 H   0  0  0  0  0  0  0  0  0  0  0  0
   -2.4754   -3.2124    0.4742 H   0  0  0  0  0  0  0  0  0  0  0  0
   -5.3635    0.3258   -0.0337 H   0  0  0  0  0  0  0  0  0  0  0  0
   -2.5970    0.2003   -1.1379 H   0  0  0  0  0  0  0  0  0  0  0  0
   -4.1569   -0.0818   -1.9091 H   0  0  0  0  0  0  0  0  0  0  0  0
   -4.5944   -3.5799   -0.6157 H   0  0  0  0  0  0  0  0  0  0  0  0
   -5.4311   -2.1991   -1.3298 H   0  0  0  0  0  0  0  0  0  0  0  0
   -2.8856   -2.0657    2.3504 H   0  0  0  0  0  0  0  0  0  0  0  0
   -2.2567   -0.5525    1.8009 H   0  0  0  0  0  0  0  0  0  0  0  0
   -6.1702   -1.7464    0.8045 H   0  0  0  0  0  0  0  0  0  0  0  0
   -5.0403   -2.8661    1.5261 H   0  0  0  0  0  0  0  0  0  0  0  0
   -2.7302    1.4276    1.0253 H   0  0  0  0  0  0  0  0  0  0  0  0
   -4.3503    1.8139    1.6398 H   0  0  0  0  0  0  0  0  0  0  0  0
   -0.3972    0.1422    0.6296 H   0  0  0  0  0  0  0  0  0  0  0  0
   -4.9445    2.7359   -0.5001 H   0  0  0  0  0  0  0  0  0  0  0  0
   -1.2537   -4.1955   -1.5007 H   0  0  0  0  0  0  0  0  0  0  0  0
    0.4487   -4.7039   -1.3429 H   0  0  0  0  0  0  0  0  0  0  0  0
   -0.6325   -4.7940    0.0798 H   0  0  0  0  0  0  0  0  0  0  0  0
   -2.3589    5.3504    1.3389 H   0  0  0  0  0  0  0  0  0  0  0  0
   -4.0103    4.6950    1.5024 H   0  0  0  0  0  0  0  0  0  0  0  0
   -2.5832    3.7039    1.9806 H   0  0  0  0  0  0  0  0  0  0  0  0
    3.7121   -2.1300    0.2521 H   0  0  0  0  0  0  0  0  0  0  0  0
    1.3960    1.4508   -0.4372 H   0  0  0  0  0  0  0  0  0  0  0  0
    3.4266    2.7890   -0.3668 H   0  0  0  0  0  0  0  0  0  0  0  0
    6.1612   -1.9729    0.4884 H   0  0  0  0  0  0  0  0  0  0  0  0
    5.9064    2.9479   -0.1157 H   0  0  0  0  0  0  0  0  0  0  0  0
    8.2063   -0.6056    0.5488 H   0  0  0  0  0  0  0  0  0  0  0  0
    8.0795    1.8507    0.2474 H   0  0  0  0  0  0  0  0  0  0  0  0
  1  2  2  0  0  0  0
  1  3  2  0  0  0  0
  1  6  1  0  0  0  0
  1 21  1  0  0  0  0
  4 10  1  0  0  0  0
  4 13  1  0  0  0  0
  4 14  1  0  0  0  0
  5  7  1  0  0  0  0
  5 16  1  0  0  0  0
  5 19  1  0  0  0  0
  6 15  1  0  0  0  0
  6 45  1  0  0  0  0
  7 18  2  0  0  0  0
  8  9  1  0  0  0  0
  8 11  1  0  0  0  0
  8 12  1  0  0  0  0
  8 31  1  0  0  0  0
  9 13  1  0  0  0  0
  9 16  1  0  0  0  0
  9 32  1  0  0  0  0
 10 11  1  0  0  0  0
 10 15  1  0  0  0  0
 10 33  1  0  0  0  0
 11 34  1  0  0  0  0
 11 35  1  0  0  0  0
 12 14  1  0  0  0  0
 12 36  1  0  0  0  0
 12 37  1  0  0  0  0
 13 38  1  0  0  0  0
 13 39  1  0  0  0  0
 14 40  1  0  0  0  0
 14 41  1  0  0  0  0
 15 42  1  0  0  0  0
 15 43  1  0  0  0  0
 16 17  2  0  0  0  0
 17 18  1  0  0  0  0
 17 44  1  0  0  0  0
 18 20  1  0  0  0  0
 19 46  1  0  0  0  0
 19 47  1  0  0  0  0
 19 48  1  0  0  0  0
 20 22  2  0  0  0  0
 20 23  1  0  0  0  0
 21 49  1  0  0  0  0
 21 50  1  0  0  0  0
 21 51  1  0  0  0  0
 22 24  1  0  0  0  0
 22 52  1  0  0  0  0
 23 25  2  0  0  0  0
 23 53  1  0  0  0  0
 24 26  1  0  0  0  0
 24 27  2  0  0  0  0
 25 26  1  0  0  0  0
 25 54  1  0  0  0  0
 26 28  2  0  0  0  0
 27 29  1  0  0  0  0
 27 55  1  0  0  0  0
 28 30  1  0  0  0  0
 28 56  1  0  0  0  0
 29 30  2  0  0  0  0
 29 57  1  0  0  0  0
 30 58  1  0  0  0  0
M  END
> <PUBCHEM_COMPOUND_CID>
40779473

> <PUBCHEM_CONFORMER_RMSD>
0.8

> <PUBCHEM_CONFORMER_DIVERSEORDER>
2
13
104
143
121
156
114
49
146
150
100
92
107
58
148
108
59
81
124
162
60
99
120
83
91
163
102
112
25
3
159
85
113
132
127
133
117
123
76
164
73
135
106
105
134
115
160
41
136
23
40
96
22
126
45
147
64
140
125
33
65
84
16
51
144
138
69
70
95
48
141
90
122
130
6
39
98
161
35
110
20
66
42
103
68
34
38
109
77
21
67
137
149
14
145
75
26
139
28
154
44
53
131
1
88
18
62
155
55
82
56
78
74
19
63
71
151
47
158
11
4
116
94
142
24
157
86
79
89
87
5
93
27
52
9
153
15
129
29
111
43
12
32
31
97
46
7
152
118
37
50
54
80
61
128
57
101
36
72
119
10
30
17
8

> <PUBCHEM_MMFF94_PARTIAL_CHARGES>
34
1 1.33
10 0.27
13 0.27
14 0.27
15 0.36
16 -0.33
17 -0.15
18 0.23
19 0.26
2 -0.65
20 0.05
21 0.11
22 -0.15
23 -0.15
25 -0.15
27 -0.15
28 -0.15
29 -0.15
3 -0.65
30 -0.15
4 -0.81
44 0.15
45 0.42
5 0.31
52 0.15
53 0.15
54 0.15
55 0.15
56 0.15
57 0.15
58 0.15
6 -0.91
7 -0.71
9 0.18

> <PUBCHEM_EFFECTIVE_ROTOR_COUNT>
6.2

> <PUBCHEM_PHARMACOPHORE_FEATURES>
9
1 2 acceptor
1 3 acceptor
1 4 cation
1 6 donor
1 7 acceptor
5 5 7 16 17 18 rings
6 20 22 23 24 25 26 rings
6 24 26 27 28 29 30 rings
8 4 8 9 10 11 12 13 14 rings

> <PUBCHEM_HEAVY_ATOM_COUNT>
30

> <PUBCHEM_ATOM_DEF_STEREO_COUNT>
3

> <PUBCHEM_ATOM_UDEF_STEREO_COUNT>
0

> <PUBCHEM_BOND_DEF_STEREO_COUNT>
0

> <PUBCHEM_BOND_UDEF_STEREO_COUNT>
0

> <PUBCHEM_ISOTOPIC_ATOM_COUNT>
0

> <PUBCHEM_COMPONENT_COUNT>
1

> <PUBCHEM_CACTVS_TAUTO_COUNT>
1

> <PUBCHEM_CONFORMER_ID>
026E3ED100000002

> <PUBCHEM_MMFF94_ENERGY>
73.0239

> <PUBCHEM_FEATURE_SELFOVERLAP>
45.716

> <PUBCHEM_SHAPE_FINGERPRINT>
100830 39 18410291424123164000
10087517 78 18410854390887234836
10670039 82 18412538829905704808
10951579 204 18269857354360807940
11408170 253 18268727154944242428
12107183 9 17973995155724716258
12522641 33 17973433318690811197
12596602 18 17386001823182589160
12788726 201 18262226811290839800
13560911 43 18336542823623980048
13773456 30 17975967666542087285
14251764 75 17767129705186118641
14347329 18 18341041935485266872
14466204 15 18410572860429189106
14790565 3 18410012135469462334
15021287 119 17894629305559817388
15183329 4 18340768234684366806
15274700 232 17261602769144726510
15400415 2 17833266428792325124
15419008 145 18261943091011863680
15439362 3 17762897667386610980
15604295 49 18127689543317736344
16993438 75 18336266743226913297
17844677 252 18408326609771246318
19246450 95 18120632662446063130
19309040 13 16628006010724421049
19611394 137 17899145094453074443
20771845 165 18200890525572290302
21236236 1 18411135831541247292
21279426 13 18270687450868239006
21315764 268 18271523216949220920
21859007 373 18339643348436895814
21927370 108 18191599742870832531
22956985 138 16961277180813021395
23559900 14 17773595121715135658
24771293 8 18272382954186329729
25019877 29 17488197057135754519
4073 2 17897726703299880618
4144715 1 18261120625659198522
4197921 191 18187930642271511860
4353968 344 18272359863387676934
4403749 210 18337378384443842956
469060 322 18266480835349467835
50150288 127 16126418692646663681
5171179 24 17986937734375385497
5372103 7 17315896790725693301
6036956 94 18260834851415255469
653340 110 18411697673440897392
6700243 42 17481745199912436374
9981440 41 18408327666165039747

> <PUBCHEM_SHAPE_MULTIPOLES>
589.57
15.8
5.37
1.02
25.73
5.44
0.11
3.65
2.13
-8.41
-1.05
-1.17
0.16
0.24

> <PUBCHEM_SHAPE_SELFOVERLAP>
1273.564

> <PUBCHEM_SHAPE_VOLUME>
327.3

> <PUBCHEM_COORDINATE_TYPE>
2
5
10

$$$$
