11941650
  -OEChem-12032416263D

 57 61  0     1  0  0  0  0  0999 V2000
    0.1151    0.9875    1.7300 O   0  0  0  0  0  0  0  0  0  0  0  0
    0.0248    3.7068    0.2023 O   0  0  0  0  0  0  0  0  0  0  0  0
   -4.5513    1.7368    1.0439 O   0  0  0  0  0  0  0  0  0  0  0  0
    3.8943   -1.7935    1.4594 O   0  0  0  0  0  0  0  0  0  0  0  0
   -2.5309    1.0913    0.1026 N   0  0  0  0  0  0  0  0  0  0  0  0
    2.5146    2.1445   -0.7665 N   0  0  0  0  0  0  0  0  0  0  0  0
   -4.4466   -0.0787   -0.3995 N   0  0  0  0  0  0  0  0  0  0  0  0
    3.5628    0.1075   -0.2575 N   0  0  0  0  0  0  0  0  0  0  0  0
    3.9540    1.2080   -2.3653 N   0  0  0  0  0  0  0  0  0  0  0  0
   -0.4790    2.3938   -0.0943 C   0  0  1  0  0  0  0  0  0  0  0  0
    0.5390    1.3936    0.4178 C   0  0  1  0  0  0  0  0  0  0  0  0
   -1.7180    2.1091    0.7234 C   0  0  2  0  0  0  0  0  0  0  0  0
    1.8232    2.1843    0.5034 C   0  0  2  0  0  0  0  0  0  0  0  0
   -1.1350    1.6219    2.0380 C   0  0  0  0  0  0  0  0  0  0  0  0
    1.3297    3.5908    0.7887 C   0  0  0  0  0  0  0  0  0  0  0  0
   -5.8510   -0.4213   -0.3647 C   0  0  0  0  0  0  0  0  0  0  0  0
   -6.3086   -1.0067   -1.7049 C   0  0  0  0  0  0  0  0  0  0  0  0
   -6.1563   -1.3784    0.7927 C   0  0  0  0  0  0  0  0  0  0  0  0
   -3.9040    0.9854    0.3158 C   0  0  0  0  0  0  0  0  0  0  0  0
   -5.7622   -2.4140   -1.9455 C   0  0  0  0  0  0  0  0  0  0  0  0
   -5.6100   -2.7851    0.5479 C   0  0  0  0  0  0  0  0  0  0  0  0
   -6.0880   -3.3505   -0.7860 C   0  0  0  0  0  0  0  0  0  0  0  0
    3.3693    1.1229   -1.1408 C   0  0  0  0  0  0  0  0  0  0  0  0
    4.4014   -0.8715   -0.6553 C   0  0  0  0  0  0  0  0  0  0  0  0
    4.7808    0.1951   -2.6985 C   0  0  0  0  0  0  0  0  0  0  0  0
    5.0447   -0.8810   -1.8761 C   0  0  0  0  0  0  0  0  0  0  0  0
    4.5867   -1.9310    0.3001 C   0  0  0  0  0  0  0  0  0  0  0  0
    5.3279   -3.0871    0.3095 C   0  0  0  0  0  0  0  0  0  0  0  0
    5.0754   -3.7032    1.5584 C   0  0  0  0  0  0  0  0  0  0  0  0
    4.1973   -2.8774    2.2210 C   0  0  0  0  0  0  0  0  0  0  0  0
   -0.6301    2.3371   -1.1772 H   0  0  0  0  0  0  0  0  0  0  0  0
    0.5939    0.4908   -0.1989 H   0  0  0  0  0  0  0  0  0  0  0  0
   -2.3346    2.9994    0.8874 H   0  0  0  0  0  0  0  0  0  0  0  0
    2.4855    1.8643    1.3161 H   0  0  0  0  0  0  0  0  0  0  0  0
   -0.9162    2.4632    2.7048 H   0  0  0  0  0  0  0  0  0  0  0  0
   -1.7763    0.9158    2.5741 H   0  0  0  0  0  0  0  0  0  0  0  0
    1.2152    3.7534    1.8661 H   0  0  0  0  0  0  0  0  0  0  0  0
    1.9767    4.3788    0.3908 H   0  0  0  0  0  0  0  0  0  0  0  0
   -2.0760    0.3813   -0.4635 H   0  0  0  0  0  0  0  0  0  0  0  0
    2.3372    2.8688   -1.4533 H   0  0  0  0  0  0  0  0  0  0  0  0
   -6.4066    0.5088   -0.1916 H   0  0  0  0  0  0  0  0  0  0  0  0
   -6.0030   -0.3525   -2.5303 H   0  0  0  0  0  0  0  0  0  0  0  0
   -7.4053   -1.0473   -1.7203 H   0  0  0  0  0  0  0  0  0  0  0  0
   -7.2441   -1.4420    0.9238 H   0  0  0  0  0  0  0  0  0  0  0  0
   -5.7470   -0.9893    1.7326 H   0  0  0  0  0  0  0  0  0  0  0  0
   -4.6766   -2.3764   -2.0934 H   0  0  0  0  0  0  0  0  0  0  0  0
   -6.1899   -2.8169   -2.8709 H   0  0  0  0  0  0  0  0  0  0  0  0
   -5.9266   -3.4474    1.3616 H   0  0  0  0  0  0  0  0  0  0  0  0
   -4.5136   -2.7643    0.5651 H   0  0  0  0  0  0  0  0  0  0  0  0
   -7.1718   -3.5145   -0.7442 H   0  0  0  0  0  0  0  0  0  0  0  0
   -5.6244   -4.3281   -0.9598 H   0  0  0  0  0  0  0  0  0  0  0  0
   -3.8098   -0.6799   -0.9129 H   0  0  0  0  0  0  0  0  0  0  0  0
    5.2406    0.2754   -3.6777 H   0  0  0  0  0  0  0  0  0  0  0  0
    5.7175   -1.6678   -2.1930 H   0  0  0  0  0  0  0  0  0  0  0  0
    5.9736   -3.4539   -0.4758 H   0  0  0  0  0  0  0  0  0  0  0  0
    5.4823   -4.6327    1.9294 H   0  0  0  0  0  0  0  0  0  0  0  0
    3.7189   -2.9169    3.1887 H   0  0  0  0  0  0  0  0  0  0  0  0
  1 11  1  0  0  0  0
  1 14  1  0  0  0  0
  2 10  1  0  0  0  0
  2 15  1  0  0  0  0
  3 19  2  0  0  0  0
  4 27  1  0  0  0  0
  4 30  1  0  0  0  0
  5 12  1  0  0  0  0
  5 19  1  0  0  0  0
  5 39  1  0  0  0  0
  6 13  1  0  0  0  0
  6 23  1  0  0  0  0
  6 40  1  0  0  0  0
  7 16  1  0  0  0  0
  7 19  1  0  0  0  0
  7 52  1  0  0  0  0
  8 23  1  0  0  0  0
  8 24  2  0  0  0  0
  9 23  2  0  0  0  0
  9 25  1  0  0  0  0
 10 11  1  0  0  0  0
 10 12  1  0  0  0  0
 10 31  1  0  0  0  0
 11 13  1  0  0  0  0
 11 32  1  0  0  0  0
 12 14  1  0  0  0  0
 12 33  1  0  0  0  0
 13 15  1  0  0  0  0
 13 34  1  0  0  0  0
 14 35  1  0  0  0  0
 14 36  1  0  0  0  0
 15 37  1  0  0  0  0
 15 38  1  0  0  0  0
 16 17  1  0  0  0  0
 16 18  1  0  0  0  0
 16 41  1  0  0  0  0
 17 20  1  0  0  0  0
 17 42  1  0  0  0  0
 17 43  1  0  0  0  0
 18 21  1  0  0  0  0
 18 44  1  0  0  0  0
 18 45  1  0  0  0  0
 20 22  1  0  0  0  0
 20 46  1  0  0  0  0
 20 47  1  0  0  0  0
 21 22  1  0  0  0  0
 21 48  1  0  0  0  0
 21 49  1  0  0  0  0
 22 50  1  0  0  0  0
 22 51  1  0  0  0  0
 24 26  1  0  0  0  0
 24 27  1  0  0  0  0
 25 26  2  0  0  0  0
 25 53  1  0  0  0  0
 26 54  1  0  0  0  0
 27 28  2  0  0  0  0
 28 29  1  0  0  0  0
 28 55  1  0  0  0  0
 29 30  2  0  0  0  0
 29 56  1  0  0  0  0
 30 57  1  0  0  0  0
M  END
> <PUBCHEM_COMPOUND_CID>
11941650

> <PUBCHEM_CONFORMER_RMSD>
1

> <PUBCHEM_CONFORMER_DIVERSEORDER>
1
78
312
202
273
285
87
244
358
243
301
36
351
272
299
152
212
41
183
125
339
294
47
302
267
283
122
115
315
77
107
85
146
214
288
278
344
326
192
157
84
204
355
76
293
191
37
27
181
260
96
65
89
324
268
270
121
338
60
64
251
54
225
110
126
123
261
4
250
334
98
319
149
215
178
137
57
103
50
264
350
154
220
329
151
296
304
14
159
363
24
266
360
93
34
290
289
297
271
311
177
111
275
233
69
322
337
252
45
198
124
70
340
195
248
143
328
91
353
94
231
219
48
17
81
7
135
226
142
179
44
258
59
356
196
320
171
330
108
28
61
206
75
113
185
147
265
38
327
331
274
173
307
336
282
19
309
341
130
263
169
166
112
186
240
52
247
308
346
316
90
43
246
82
162
286
259
203
88
140
364
218
180
287
95
349
156
279
100
105
343
153
175
165
205
348
190
56
235
317
228
305
262
237
42
242
5
318
280
46
303
21
68
276
144
313
352
227
106
92
200
207
131
357
354
109
163
62
277
118
39
80
201
229
255
347
73
32
49
257
306
238
55
321
269
291
216
222
71
145
342
29
335
102
188
332
16
134
241
217
362
310
119
345
132
53
8
74
323
253
72
86
249
40
104
236
208
128
256
314
30
284
117
33
9
197
97
182
176
139
184
333
6
160
35
232
79
23
189
168
141
158
161
120
101
224
210
67
12
51
114
193
83
234
164
281
155
245
148
292
295
223
66
230
239
221
325
150
172
213
199
254
25
138
3
58
298
300
26
22
194
359
63
127
15
187
31
361
211
18
133
20
209
129
170
116
167
174
10
11
99
13
2
136

> <PUBCHEM_MMFF94_PARTIAL_CHARGES>
33
1 -0.56
10 0.28
11 0.28
12 0.3
13 0.37
14 0.28
15 0.28
16 0.3
19 0.69
2 -0.56
23 0.72
24 0.36
25 0.16
26 -0.15
27 0.09
28 -0.15
29 -0.15
3 -0.57
30 -0.01
39 0.37
4 -0.28
40 0.4
5 -0.73
52 0.37
53 0.15
54 0.15
55 0.15
56 0.15
57 0.15
6 -0.87
7 -0.73
8 -0.62
9 -0.62

> <PUBCHEM_EFFECTIVE_ROTOR_COUNT>
9.4

> <PUBCHEM_PHARMACOPHORE_FEATURES>
14
1 1 acceptor
1 2 acceptor
1 3 acceptor
1 4 acceptor
1 5 donor
1 6 donor
1 7 donor
1 8 acceptor
4 6 8 9 23 cation
5 1 10 11 12 14 rings
5 2 10 11 13 15 rings
5 4 27 28 29 30 rings
6 16 17 18 20 21 22 rings
6 8 9 23 24 25 26 rings

> <PUBCHEM_HEAVY_ATOM_COUNT>
30

> <PUBCHEM_ATOM_DEF_STEREO_COUNT>
4

> <PUBCHEM_ATOM_UDEF_STEREO_COUNT>
0

> <PUBCHEM_BOND_DEF_STEREO_COUNT>
0

> <PUBCHEM_BOND_UDEF_STEREO_COUNT>
0

> <PUBCHEM_ISOTOPIC_ATOM_COUNT>
0

> <PUBCHEM_COMPONENT_COUNT>
1

> <PUBCHEM_CACTVS_TAUTO_COUNT>
9

> <PUBCHEM_CONFORMER_ID>
00B6371200000001

> <PUBCHEM_MMFF94_ENERGY>
55.1697

> <PUBCHEM_FEATURE_SELFOVERLAP>
71.818

> <PUBCHEM_SHAPE_FINGERPRINT>
10074138 170 16843902849842468041
10622 236 17898285009771019714
11069576 57 18041851597648208822
11227688 84 18114476647091433041
11607047 403 18268131219704356960
11796584 16 18201728297149752021
11973864 118 17904451324077625578
1200032 147 11095590256788252882
12422481 6 16558758927309796749
12661589 4 18199746006671001775
12975358 362 8068930522866436911
14150023 79 18052254291701857712
14347332 77 18412824703498735953
14951699 99 11023822924670947363
15163728 17 7997681043091542304
15684393 108 18041286568935962591
16989378 47 18411980303879374719
17134984 74 18115034116313272830
19303781 99 17679024803291177546
19315092 285 18272366439494043984
20567600 234 10231756687167764953
20567600 247 18408322202559846201
20691028 202 11242787294505789703
20775438 99 18188482613829920658
208703 8 18340487760224286838
21585481 104 17313095329597176575
21585483 132 18128522951007784519
21599406 157 17313104198314888535
21703447 108 18129941298841714976
21792965 302 18191879027387446228
24983565 74 17699282489369608967
25222932 49 18342173406122876132
2748736 6 8358263614210692487
2838139 119 12757422912601744285
3882209 13 15433669163005531954
439807 62 18334017203298878027
46194498 28 15215595539882628020
463206 1 18335426712095219970
50009960 94 18195500697850058802
5104073 3 17632303401905368857
59025328 239 17314235467252254260
59682541 52 17821443560577559943
6058803 2 18192735362025233340
6677587 24 16445046442559160158
7970288 3 18339357448842607962

> <PUBCHEM_SHAPE_MULTIPOLES>
569
18.04
4.92
2.17
18.65
0.9
-0.67
20.93
-5.45
-1.72
1.89
-2.24
0.69
-4.39

> <PUBCHEM_SHAPE_SELFOVERLAP>
1228.621

> <PUBCHEM_SHAPE_VOLUME>
309.8

> <PUBCHEM_COORDINATE_TYPE>
2
5
10

$$$$
