75367721
  -OEChem-12032416403D

 52 54  0     1  0  0  0  0  0999 V2000
    7.0939   -0.6765    0.5434 S   0  0  0  0  0  0  0  0  0  0  0  0
   -0.3436    2.7430    0.6033 O   0  0  0  0  0  0  0  0  0  0  0  0
    1.6258    0.4636   -1.3671 O   0  0  0  0  0  0  0  0  0  0  0  0
   -8.0954   -0.2978    0.0522 O   0  0  0  0  0  0  0  0  0  0  0  0
    7.3768    0.1713    1.6935 O   0  0  0  0  0  0  0  0  0  0  0  0
    7.2356   -2.1210    0.6580 O   0  0  0  0  0  0  0  0  0  0  0  0
   -1.7553    0.0012    0.1391 N   0  0  2  0  0  0  0  0  0  0  0  0
   -0.4417   -0.3199   -0.4295 C   0  0  0  0  0  0  0  0  0  0  0  0
    0.6500    0.7602   -0.3671 C   0  0  2  0  0  0  0  0  0  0  0  0
   -1.7047    0.8206    1.3508 C   0  0  0  0  0  0  0  0  0  0  0  0
    0.1463    2.1769   -0.6077 C   0  0  0  0  0  0  0  0  0  0  0  0
   -2.5239   -1.2256    0.3536 C   0  0  0  0  0  0  0  0  0  0  0  0
   -1.6416    2.3019    0.9764 C   0  0  0  0  0  0  0  0  0  0  0  0
   -4.0070   -0.9791    0.2735 C   0  0  0  0  0  0  0  0  0  0  0  0
    2.8929    0.1997   -0.9254 C   0  0  0  0  0  0  0  0  0  0  0  0
   -4.5635   -0.4472   -0.8897 C   0  0  0  0  0  0  0  0  0  0  0  0
   -4.8246   -1.2821    1.3623 C   0  0  0  0  0  0  0  0  0  0  0  0
    3.4842   -1.0336   -1.1991 C   0  0  0  0  0  0  0  0  0  0  0  0
    3.5938    1.1638   -0.2009 C   0  0  0  0  0  0  0  0  0  0  0  0
    5.4775   -0.3387   -0.0242 C   0  0  0  0  0  0  0  0  0  0  0  0
   -5.9374   -0.2186   -0.9643 C   0  0  0  0  0  0  0  0  0  0  0  0
   -6.1985   -1.0535    1.2879 C   0  0  0  0  0  0  0  0  0  0  0  0
    4.7765   -1.3028   -0.7486 C   0  0  0  0  0  0  0  0  0  0  0  0
    4.8861    0.8947    0.2497 C   0  0  0  0  0  0  0  0  0  0  0  0
   -6.7549   -0.5217    0.1245 C   0  0  0  0  0  0  0  0  0  0  0  0
    8.1504   -0.1265   -0.7775 C   0  0  0  0  0  0  0  0  0  0  0  0
   -8.5976    0.2477   -1.1670 C   0  0  0  0  0  0  0  0  0  0  0  0
   -0.5922   -0.6049   -1.4798 H   0  0  0  0  0  0  0  0  0  0  0  0
   -0.0244   -1.2152    0.0544 H   0  0  0  0  0  0  0  0  0  0  0  0
    1.0908    0.7145    0.6396 H   0  0  0  0  0  0  0  0  0  0  0  0
   -0.8738    0.5286    2.0041 H   0  0  0  0  0  0  0  0  0  0  0  0
   -2.6237    0.6958    1.9362 H   0  0  0  0  0  0  0  0  0  0  0  0
    0.9716    2.8170   -0.9386 H   0  0  0  0  0  0  0  0  0  0  0  0
   -0.6099    2.2241   -1.4010 H   0  0  0  0  0  0  0  0  0  0  0  0
   -2.2425   -1.7091    1.2988 H   0  0  0  0  0  0  0  0  0  0  0  0
   -2.3039   -1.9629   -0.4320 H   0  0  0  0  0  0  0  0  0  0  0  0
   -1.9208    2.8908    1.8575 H   0  0  0  0  0  0  0  0  0  0  0  0
   -2.3645    2.5582    0.1917 H   0  0  0  0  0  0  0  0  0  0  0  0
   -3.9391   -0.2112   -1.7476 H   0  0  0  0  0  0  0  0  0  0  0  0
   -4.4047   -1.6958    2.2752 H   0  0  0  0  0  0  0  0  0  0  0  0
    2.9427   -1.7878   -1.7637 H   0  0  0  0  0  0  0  0  0  0  0  0
    3.1526    2.1331    0.0128 H   0  0  0  0  0  0  0  0  0  0  0  0
   -6.3033    0.1954   -1.8977 H   0  0  0  0  0  0  0  0  0  0  0  0
   -6.8303   -1.2912    2.1393 H   0  0  0  0  0  0  0  0  0  0  0  0
    5.2195   -2.2675   -0.9791 H   0  0  0  0  0  0  0  0  0  0  0  0
    5.4169    1.6626    0.8054 H   0  0  0  0  0  0  0  0  0  0  0  0
    9.1854   -0.3157   -0.4847 H   0  0  0  0  0  0  0  0  0  0  0  0
    7.9107   -0.6893   -1.6816 H   0  0  0  0  0  0  0  0  0  0  0  0
    7.9971    0.9430   -0.9334 H   0  0  0  0  0  0  0  0  0  0  0  0
   -9.6803    0.3602   -1.0489 H   0  0  0  0  0  0  0  0  0  0  0  0
   -8.4370   -0.4339   -2.0091 H   0  0  0  0  0  0  0  0  0  0  0  0
   -8.1915    1.2469   -1.3582 H   0  0  0  0  0  0  0  0  0  0  0  0
  1  5  2  0  0  0  0
  1  6  2  0  0  0  0
  1 20  1  0  0  0  0
  1 26  1  0  0  0  0
  2 11  1  0  0  0  0
  2 13  1  0  0  0  0
  3  9  1  0  0  0  0
  3 15  1  0  0  0  0
  4 25  1  0  0  0  0
  4 27  1  0  0  0  0
  7  8  1  0  0  0  0
  7 10  1  0  0  0  0
  7 12  1  0  0  0  0
  8  9  1  0  0  0  0
  8 28  1  0  0  0  0
  8 29  1  0  0  0  0
  9 11  1  0  0  0  0
  9 30  1  0  0  0  0
 10 13  1  0  0  0  0
 10 31  1  0  0  0  0
 10 32  1  0  0  0  0
 11 33  1  0  0  0  0
 11 34  1  0  0  0  0
 12 14  1  0  0  0  0
 12 35  1  0  0  0  0
 12 36  1  0  0  0  0
 13 37  1  0  0  0  0
 13 38  1  0  0  0  0
 14 16  2  0  0  0  0
 14 17  1  0  0  0  0
 15 18  2  0  0  0  0
 15 19  1  0  0  0  0
 16 21  1  0  0  0  0
 16 39  1  0  0  0  0
 17 22  2  0  0  0  0
 17 40  1  0  0  0  0
 18 23  1  0  0  0  0
 18 41  1  0  0  0  0
 19 24  2  0  0  0  0
 19 42  1  0  0  0  0
 20 23  2  0  0  0  0
 20 24  1  0  0  0  0
 21 25  2  0  0  0  0
 21 43  1  0  0  0  0
 22 25  1  0  0  0  0
 22 44  1  0  0  0  0
 23 45  1  0  0  0  0
 24 46  1  0  0  0  0
 26 47  1  0  0  0  0
 26 48  1  0  0  0  0
 26 49  1  0  0  0  0
 27 50  1  0  0  0  0
 27 51  1  0  0  0  0
 27 52  1  0  0  0  0
M  END
> <PUBCHEM_COMPOUND_CID>
75367721

> <PUBCHEM_CONFORMER_RMSD>
1

> <PUBCHEM_CONFORMER_DIVERSEORDER>
2
30
119
57
5
79
128
117
72
68
70
40
34
16
8
38
95
58
36
54
113
97
17
99
43
41
127
123
89
75
91
74
116
122
126
96
23
121
78
53
108
48
32
31
35
90
49
71
109
20
120
84
56
25
69
1
103
105
83
63
55
85
114
21
3
62
76
92
104
15
115
66
13
98
29
106
93
87
14
118
129
52
102
73
46
12
112
60
28
65
110
124
9
10
59
125
42
45
18
39
61
11
51
81
24
111
64
33
107
7
86
6
77
47
50
37
44
88
67
19
100
26
101
4
80
94
27
22
82

> <PUBCHEM_MMFF94_PARTIAL_CHARGES>
35
1 1.2
10 0.27
11 0.28
12 0.41
13 0.28
14 -0.14
15 0.08
16 -0.15
17 -0.15
18 -0.15
19 -0.15
2 -0.56
20 -0.01
21 -0.15
22 -0.15
23 -0.15
24 -0.15
25 0.08
26 0.11
27 0.28
3 -0.36
39 0.15
4 -0.36
40 0.15
41 0.15
42 0.15
43 0.15
44 0.15
45 0.15
46 0.15
5 -0.65
6 -0.65
7 -0.81
8 0.27
9 0.28

> <PUBCHEM_EFFECTIVE_ROTOR_COUNT>
7.4

> <PUBCHEM_PHARMACOPHORE_FEATURES>
9
1 2 acceptor
1 3 acceptor
1 4 acceptor
1 5 acceptor
1 6 acceptor
1 7 cation
6 14 16 17 21 22 25 rings
6 15 18 19 20 23 24 rings
7 2 7 8 9 10 11 13 rings

> <PUBCHEM_HEAVY_ATOM_COUNT>
27

> <PUBCHEM_ATOM_DEF_STEREO_COUNT>
1

> <PUBCHEM_ATOM_UDEF_STEREO_COUNT>
0

> <PUBCHEM_BOND_DEF_STEREO_COUNT>
0

> <PUBCHEM_BOND_UDEF_STEREO_COUNT>
0

> <PUBCHEM_ISOTOPIC_ATOM_COUNT>
0

> <PUBCHEM_COMPONENT_COUNT>
1

> <PUBCHEM_CACTVS_TAUTO_COUNT>
1

> <PUBCHEM_CONFORMER_ID>
047E052900000002

> <PUBCHEM_MMFF94_ENERGY>
88.8716

> <PUBCHEM_FEATURE_SELFOVERLAP>
45.692

> <PUBCHEM_SHAPE_FINGERPRINT>
10 15 17346876763419184298
10299344 5 14923942353636451995
10613725 11 15213018262729966398
106641 1 13902185997896203215
10670039 82 17385432208389828461
10674148 151 15647050473610579189
10753850 27 18113337513894562960
10904742 90 11095883757330643940
11719270 70 18334013887436893666
11724838 91 15267341829507603760
11796584 16 17822295738097942579
12166972 35 17749113318016354292
12516196 113 18060142059116457393
12760667 363 18412546509291308169
12838862 33 18340193150683514783
13177829 20 15267341833707729495
13533116 47 18272093777447494886
13685833 64 18040436598944146550
13782708 43 17897742087703917051
13914758 101 18040433256985044465
14117953 113 18342744022381898694
14150022 121 16702029634040885856
14251752 14 17167578284842566719
14251764 18 17703794729673215888
14257110 125 10015587194455377026
14840074 17 17704076196387183063
15183329 4 15936406745395043969
15188451 53 18335138670635642200
15728490 51 13326846752254871125
18006028 8 18342176673938951301
18608769 82 9871458824951134965
19841028 212 17023456453244128650
20238998 120 18342739619830391041
21095086 128 14345797163089655339
21150785 3 8430316835597041851
21304304 249 18409732846726505830
21365058 27 12179843901471055881
21792934 111 18343577447553086745
22079108 93 13470689234864584885
22224240 67 16128657452907358814
23198884 109 14779267518384057231
23559900 14 18189898788906199425
28498 318 17967811639267695591
29717793 49 15719397231312983678
3004659 81 17385724720704150948
3009799 131 18411136948586003317
3633792 109 17022907865386686756
4098825 35 15719665489794349918
4258327 124 11311478256320609826
4325135 7 16200433571894657726
5104073 3 17844816884846652058
5381727 24 13039188087810677772
58083652 198 18343024423749154249
59682541 35 16988839514236636514
5969126 39 18131067109139539777
59755656 520 12829490376938657857
9689198 14 11384119652187997546

> <PUBCHEM_SHAPE_MULTIPOLES>
525.17
25.28
1.84
1.31
0.42
0.96
-0.15
-9.65
-0.2
-0.57
-0.41
0.3
-0.04
0.44

> <PUBCHEM_SHAPE_SELFOVERLAP>
1091.976

> <PUBCHEM_SHAPE_VOLUME>
299.7

> <PUBCHEM_COORDINATE_TYPE>
2
5
10

$$$$
