7155417
  -OEChem-12032416113D

 51 55  0     1  0  0  0  0  0999 V2000
   -3.1592    0.9839   -2.9757 O   0  0  0  0  0  0  0  0  0  0  0  0
   -0.5340    3.7825    0.3448 O   0  0  0  0  0  0  0  0  0  0  0  0
   -1.0592    1.7844    1.4397 N   0  0  0  0  0  0  0  0  0  0  0  0
   -2.4887    0.1860   -0.8782 N   0  0  0  0  0  0  0  0  0  0  0  0
    6.0027    0.4529   -1.0500 N   0  0  0  0  0  0  0  0  0  0  0  0
   -3.4541    1.1500    1.2949 C   0  0  1  0  0  0  0  0  0  0  0  0
   -1.7346   -0.6074    1.3843 C   0  0  2  0  0  0  0  0  0  0  0  0
   -3.1289   -0.2186    1.8745 C   0  0  0  0  0  0  0  0  0  0  0  0
   -2.4249    2.1939    1.7605 C   0  0  0  0  0  0  0  0  0  0  0  0
   -3.5015    1.0323   -0.2298 C   0  0  0  0  0  0  0  0  0  0  0  0
   -0.7043    0.4285    1.8841 C   0  0  0  0  0  0  0  0  0  0  0  0
   -1.6806   -0.7038   -0.1424 C   0  0  0  0  0  0  0  0  0  0  0  0
   -0.8699   -1.5785   -0.7931 C   0  0  0  0  0  0  0  0  0  0  0  0
   -2.4668    0.2373   -2.2832 C   0  0  0  0  0  0  0  0  0  0  0  0
   -0.2342    2.6484    0.7154 C   0  0  0  0  0  0  0  0  0  0  0  0
   -0.8177   -1.5514   -2.2423 C   0  0  0  0  0  0  0  0  0  0  0  0
   -1.5447   -0.6993   -2.9648 C   0  0  0  0  0  0  0  0  0  0  0  0
   -0.0233   -2.5472   -0.0624 C   0  0  0  0  0  0  0  0  0  0  0  0
    1.1033    2.1771    0.3369 C   0  0  0  0  0  0  0  0  0  0  0  0
    1.2629   -2.1850    0.3262 C   0  0  0  0  0  0  0  0  0  0  0  0
   -0.5190   -3.8137    0.2321 C   0  0  0  0  0  0  0  0  0  0  0  0
    1.2879    1.5157   -0.8746 C   0  0  0  0  0  0  0  0  0  0  0  0
    2.1816    2.3951    1.1905 C   0  0  0  0  0  0  0  0  0  0  0  0
    2.0610   -3.0980    1.0157 C   0  0  0  0  0  0  0  0  0  0  0  0
    0.2790   -4.7266    0.9216 C   0  0  0  0  0  0  0  0  0  0  0  0
    1.5691   -4.3687    1.3134 C   0  0  0  0  0  0  0  0  0  0  0  0
    2.5593    1.0692   -1.2349 C   0  0  0  0  0  0  0  0  0  0  0  0
    3.4531    1.9488    0.8302 C   0  0  0  0  0  0  0  0  0  0  0  0
    3.6419    1.2858   -0.3824 C   0  0  0  0  0  0  0  0  0  0  0  0
    4.9439    0.8264   -0.7507 C   0  0  0  0  0  0  0  0  0  0  0  0
   -4.4400    1.4754    1.6492 H   0  0  0  0  0  0  0  0  0  0  0  0
   -1.4973   -1.5738    1.8425 H   0  0  0  0  0  0  0  0  0  0  0  0
   -3.8729   -0.9611    1.5595 H   0  0  0  0  0  0  0  0  0  0  0  0
   -3.1534   -0.1847    2.9706 H   0  0  0  0  0  0  0  0  0  0  0  0
   -2.6513    3.1710    1.3210 H   0  0  0  0  0  0  0  0  0  0  0  0
   -2.4762    2.3104    2.8500 H   0  0  0  0  0  0  0  0  0  0  0  0
   -4.4705    0.5997   -0.5155 H   0  0  0  0  0  0  0  0  0  0  0  0
   -3.4721    2.0285   -0.6893 H   0  0  0  0  0  0  0  0  0  0  0  0
   -0.7014    0.4487    2.9812 H   0  0  0  0  0  0  0  0  0  0  0  0
    0.3064    0.1603    1.5771 H   0  0  0  0  0  0  0  0  0  0  0  0
   -0.1492   -2.2436   -2.7458 H   0  0  0  0  0  0  0  0  0  0  0  0
   -1.4943   -0.6813   -4.0469 H   0  0  0  0  0  0  0  0  0  0  0  0
    1.6659   -1.2059    0.1024 H   0  0  0  0  0  0  0  0  0  0  0  0
   -1.5227   -4.1061   -0.0663 H   0  0  0  0  0  0  0  0  0  0  0  0
    0.4544    1.3549   -1.5513 H   0  0  0  0  0  0  0  0  0  0  0  0
    2.0445    2.9101    2.1376 H   0  0  0  0  0  0  0  0  0  0  0  0
    3.0658   -2.8192    1.3199 H   0  0  0  0  0  0  0  0  0  0  0  0
   -0.1041   -5.7160    1.1537 H   0  0  0  0  0  0  0  0  0  0  0  0
    2.1905   -5.0795    1.8501 H   0  0  0  0  0  0  0  0  0  0  0  0
    2.6902    0.5552   -2.1842 H   0  0  0  0  0  0  0  0  0  0  0  0
    4.2870    2.1242    1.5057 H   0  0  0  0  0  0  0  0  0  0  0  0
  1 14  2  0  0  0  0
  2 15  2  0  0  0  0
  3  9  1  0  0  0  0
  3 11  1  0  0  0  0
  3 15  1  0  0  0  0
  4 10  1  0  0  0  0
  4 12  1  0  0  0  0
  4 14  1  0  0  0  0
  5 30  3  0  0  0  0
  6  8  1  0  0  0  0
  6  9  1  0  0  0  0
  6 10  1  0  0  0  0
  6 31  1  0  0  0  0
  7  8  1  0  0  0  0
  7 11  1  0  0  0  0
  7 12  1  0  0  0  0
  7 32  1  0  0  0  0
  8 33  1  0  0  0  0
  8 34  1  0  0  0  0
  9 35  1  0  0  0  0
  9 36  1  0  0  0  0
 10 37  1  0  0  0  0
 10 38  1  0  0  0  0
 11 39  1  0  0  0  0
 11 40  1  0  0  0  0
 12 13  2  0  0  0  0
 13 16  1  0  0  0  0
 13 18  1  0  0  0  0
 14 17  1  0  0  0  0
 15 19  1  0  0  0  0
 16 17  2  0  0  0  0
 16 41  1  0  0  0  0
 17 42  1  0  0  0  0
 18 20  2  0  0  0  0
 18 21  1  0  0  0  0
 19 22  2  0  0  0  0
 19 23  1  0  0  0  0
 20 24  1  0  0  0  0
 20 43  1  0  0  0  0
 21 25  2  0  0  0  0
 21 44  1  0  0  0  0
 22 27  1  0  0  0  0
 22 45  1  0  0  0  0
 23 28  2  0  0  0  0
 23 46  1  0  0  0  0
 24 26  2  0  0  0  0
 24 47  1  0  0  0  0
 25 26  1  0  0  0  0
 25 48  1  0  0  0  0
 26 49  1  0  0  0  0
 27 29  2  0  0  0  0
 27 50  1  0  0  0  0
 28 29  1  0  0  0  0
 28 51  1  0  0  0  0
 29 30  1  0  0  0  0
M  END
> <PUBCHEM_COMPOUND_CID>
7155417

> <PUBCHEM_CONFORMER_RMSD>
0.8

> <PUBCHEM_CONFORMER_DIVERSEORDER>
1
2

> <PUBCHEM_MMFF94_PARTIAL_CHARGES>
39
1 -0.57
10 0.3
11 0.3
12 -0.03
13 -0.03
14 0.62
15 0.54
16 -0.15
17 -0.14
18 0.03
19 0.09
2 -0.57
20 -0.15
21 -0.15
22 -0.15
23 -0.15
24 -0.15
25 -0.15
26 -0.15
27 -0.15
28 -0.15
29 0.07
3 -0.66
30 0.48
4 -0.47
41 0.15
42 0.15
43 0.15
44 0.15
45 0.15
46 0.15
47 0.15
48 0.15
49 0.15
5 -0.56
50 0.15
51 0.15
7 0.14
9 0.3

> <PUBCHEM_EFFECTIVE_ROTOR_COUNT>
4

> <PUBCHEM_PHARMACOPHORE_FEATURES>
8
1 1 acceptor
1 2 acceptor
1 5 acceptor
6 18 20 21 24 25 26 rings
6 19 22 23 27 28 29 rings
6 3 6 7 8 9 11 rings
6 4 12 13 14 16 17 rings
6 4 6 7 8 10 12 rings

> <PUBCHEM_HEAVY_ATOM_COUNT>
30

> <PUBCHEM_ATOM_DEF_STEREO_COUNT>
2

> <PUBCHEM_ATOM_UDEF_STEREO_COUNT>
0

> <PUBCHEM_BOND_DEF_STEREO_COUNT>
0

> <PUBCHEM_BOND_UDEF_STEREO_COUNT>
0

> <PUBCHEM_ISOTOPIC_ATOM_COUNT>
0

> <PUBCHEM_COMPONENT_COUNT>
1

> <PUBCHEM_CACTVS_TAUTO_COUNT>
1

> <PUBCHEM_CONFORMER_ID>
006D2ED900000001

> <PUBCHEM_MMFF94_ENERGY>
88.3663

> <PUBCHEM_FEATURE_SELFOVERLAP>
42.182

> <PUBCHEM_SHAPE_FINGERPRINT>
10165383 225 18187937204316772158
10764073 3 17839493268362011043
11285246 1 17838028748516299630
11578080 2 17170412701386397325
12035759 4 17846486029143851757
12156800 1 16054310602793903605
12422481 6 17050768124340718257
12539773 59 17631459968421156850
133893 2 18193543489790185295
15274700 242 18334298656932725608
17980427 23 17337304178505967209
20775530 9 16893987107583753338
20905425 154 17836959731077118689
21330990 113 17829034752539788183
23419403 2 17606405341546475471
3493558 16 14669255482956708391
35225 105 17759278405603741050
392239 28 18124063322954643755
404807 14 14468577199469095236
513532 50 15978853478175852453
57527306 92 17631748135352546857
57527585 103 17834103522306987450

> <PUBCHEM_SHAPE_MULTIPOLES>
590.7
6.49
5.16
2.43
8.07
6.14
1.61
-4.04
1.45
1.56
-2.71
-2.15
-0.12
-0.86

> <PUBCHEM_SHAPE_SELFOVERLAP>
1311.687

> <PUBCHEM_SHAPE_VOLUME>
307.3

> <PUBCHEM_COORDINATE_TYPE>
2
5
10

$$$$
