11866271
  -OEChem-12032416133D

 65 69  0     1  0  0  0  0  0999 V2000
   -0.3234    2.4170   -0.8547 S   0  0  0  0  0  0  0  0  0  0  0  0
    4.9620   -1.9256    0.1007 O   0  0  0  0  0  0  0  0  0  0  0  0
    6.7883   -3.3237    0.1048 O   0  0  0  0  0  0  0  0  0  0  0  0
   -3.0385   -1.3217   -0.0367 O   0  0  0  0  0  0  0  0  0  0  0  0
   -9.2650   -1.7436    0.1633 O   0  0  0  0  0  0  0  0  0  0  0  0
   -0.2821   -0.0731   -0.1564 N   0  0  0  0  0  0  0  0  0  0  0  0
   -2.4429    0.8929   -0.6098 N   0  0  0  0  0  0  0  0  0  0  0  0
   -7.5657   -0.1654    0.0248 N   0  0  0  0  0  0  0  0  0  0  0  0
    3.5435    0.1418   -0.1572 C   0  0  1  0  0  0  0  0  0  0  0  0
    3.5766    1.6843    0.2284 C   0  0  1  0  0  0  0  0  0  0  0  0
    4.7646   -0.5588    0.4635 C   0  0  2  0  0  0  0  0  0  0  0  0
    6.0464    0.0820   -0.0327 C   0  0  1  0  0  0  0  0  0  0  0  0
    4.9611    2.3100   -0.1239 C   0  0  0  0  0  0  0  0  0  0  0  0
    6.1604    1.5226    0.4228 C   0  0  0  0  0  0  0  0  0  0  0  0
    2.1709   -0.5399    0.1890 C   0  0  1  0  0  0  0  0  0  0  0  0
    2.4803    2.4372   -0.5869 C   0  0  0  0  0  0  0  0  0  0  0  0
    7.0703   -0.9203    0.4650 C   0  0  1  0  0  0  0  0  0  0  0  0
    3.3177    1.9161    1.7415 C   0  0  0  0  0  0  0  0  0  0  0  0
    1.0274    0.3716   -0.1841 C   0  0  0  0  0  0  0  0  0  0  0  0
    1.1852    1.7023   -0.5186 C   0  0  0  0  0  0  0  0  0  0  0  0
    6.3073   -2.2058    0.2040 C   0  0  0  0  0  0  0  0  0  0  0  0
    2.0067   -1.9057   -0.4915 C   0  0  0  0  0  0  0  0  0  0  0  0
    8.3858   -0.8585   -0.2883 C   0  0  0  0  0  0  0  0  0  0  0  0
   -1.0778    0.9156   -0.5015 C   0  0  0  0  0  0  0  0  0  0  0  0
   -4.7670    0.2005   -0.6056 C   0  0  0  0  0  0  0  0  0  0  0  0
   -3.3367   -0.1830   -0.3822 C   0  0  0  0  0  0  0  0  0  0  0  0
   -5.5486   -1.0180   -1.1040 C   0  0  0  0  0  0  0  0  0  0  0  0
   -5.3737    0.7440    0.6909 C   0  0  0  0  0  0  0  0  0  0  0  0
   -7.0367   -0.7025   -1.2305 C   0  0  0  0  0  0  0  0  0  0  0  0
   -6.8664    1.0236    0.5275 C   0  0  0  0  0  0  0  0  0  0  0  0
   -8.6740   -0.7633    0.6236 C   0  0  0  0  0  0  0  0  0  0  0  0
   -9.1559   -0.1525    1.9151 C   0  0  0  0  0  0  0  0  0  0  0  0
    3.6508    0.0782   -1.2518 H   0  0  0  0  0  0  0  0  0  0  0  0
    4.6859   -0.5332    1.5580 H   0  0  0  0  0  0  0  0  0  0  0  0
    6.0564    0.0641   -1.1344 H   0  0  0  0  0  0  0  0  0  0  0  0
    5.0141    3.3442    0.2387 H   0  0  0  0  0  0  0  0  0  0  0  0
    5.0629    2.3649   -1.2164 H   0  0  0  0  0  0  0  0  0  0  0  0
    7.0892    1.9674    0.0482 H   0  0  0  0  0  0  0  0  0  0  0  0
    6.1974    1.5863    1.5158 H   0  0  0  0  0  0  0  0  0  0  0  0
    2.1184   -0.6986    1.2741 H   0  0  0  0  0  0  0  0  0  0  0  0
    2.7778    2.5035   -1.6416 H   0  0  0  0  0  0  0  0  0  0  0  0
    2.3691    3.4640   -0.2176 H   0  0  0  0  0  0  0  0  0  0  0  0
    7.2352   -0.8288    1.5448 H   0  0  0  0  0  0  0  0  0  0  0  0
    3.3497    2.9864    1.9779 H   0  0  0  0  0  0  0  0  0  0  0  0
    2.3379    1.5502    2.0618 H   0  0  0  0  0  0  0  0  0  0  0  0
    4.0651    1.4277    2.3723 H   0  0  0  0  0  0  0  0  0  0  0  0
    2.7108   -2.6428   -0.1003 H   0  0  0  0  0  0  0  0  0  0  0  0
    1.0058   -2.3184   -0.3207 H   0  0  0  0  0  0  0  0  0  0  0  0
    2.1493   -1.8297   -1.5751 H   0  0  0  0  0  0  0  0  0  0  0  0
    8.8686    0.1147   -0.1562 H   0  0  0  0  0  0  0  0  0  0  0  0
    9.0731   -1.6302    0.0747 H   0  0  0  0  0  0  0  0  0  0  0  0
    8.2444   -1.0299   -1.3612 H   0  0  0  0  0  0  0  0  0  0  0  0
   -2.8488    1.7832   -0.8877 H   0  0  0  0  0  0  0  0  0  0  0  0
   -4.8172    0.9786   -1.3789 H   0  0  0  0  0  0  0  0  0  0  0  0
   -5.4327   -1.8598   -0.4083 H   0  0  0  0  0  0  0  0  0  0  0  0
   -5.1566   -1.3520   -2.0721 H   0  0  0  0  0  0  0  0  0  0  0  0
   -4.8584    1.6626    0.9960 H   0  0  0  0  0  0  0  0  0  0  0  0
   -5.2272    0.0187    1.5023 H   0  0  0  0  0  0  0  0  0  0  0  0
   -7.2041    0.0538   -2.0065 H   0  0  0  0  0  0  0  0  0  0  0  0
   -7.5810   -1.6037   -1.5299 H   0  0  0  0  0  0  0  0  0  0  0  0
   -7.2760    1.3689    1.4783 H   0  0  0  0  0  0  0  0  0  0  0  0
   -7.0261    1.8254   -0.2032 H   0  0  0  0  0  0  0  0  0  0  0  0
   -8.3695   -0.2013    2.6730 H   0  0  0  0  0  0  0  0  0  0  0  0
  -10.0194   -0.7148    2.2836 H   0  0  0  0  0  0  0  0  0  0  0  0
   -9.4682    0.8821    1.7509 H   0  0  0  0  0  0  0  0  0  0  0  0
  1 20  1  0  0  0  0
  1 24  1  0  0  0  0
  2 11  1  0  0  0  0
  2 21  1  0  0  0  0
  3 21  2  0  0  0  0
  4 26  2  0  0  0  0
  5 31  2  0  0  0  0
  6 19  1  0  0  0  0
  6 24  2  0  0  0  0
  7 24  1  0  0  0  0
  7 26  1  0  0  0  0
  7 53  1  0  0  0  0
  8 29  1  0  0  0  0
  8 30  1  0  0  0  0
  8 31  1  0  0  0  0
  9 10  1  0  0  0  0
  9 11  1  0  0  0  0
  9 15  1  0  0  0  0
  9 33  1  0  0  0  0
 10 13  1  0  0  0  0
 10 16  1  0  0  0  0
 10 18  1  0  0  0  0
 11 12  1  0  0  0  0
 11 34  1  0  0  0  0
 12 14  1  0  0  0  0
 12 17  1  0  0  0  0
 12 35  1  0  0  0  0
 13 14  1  0  0  0  0
 13 36  1  0  0  0  0
 13 37  1  0  0  0  0
 14 38  1  0  0  0  0
 14 39  1  0  0  0  0
 15 19  1  0  0  0  0
 15 22  1  0  0  0  0
 15 40  1  0  0  0  0
 16 20  1  0  0  0  0
 16 41  1  0  0  0  0
 16 42  1  0  0  0  0
 17 21  1  0  0  0  0
 17 23  1  0  0  0  0
 17 43  1  0  0  0  0
 18 44  1  0  0  0  0
 18 45  1  0  0  0  0
 18 46  1  0  0  0  0
 19 20  2  0  0  0  0
 22 47  1  0  0  0  0
 22 48  1  0  0  0  0
 22 49  1  0  0  0  0
 23 50  1  0  0  0  0
 23 51  1  0  0  0  0
 23 52  1  0  0  0  0
 25 26  1  0  0  0  0
 25 27  1  0  0  0  0
 25 28  1  0  0  0  0
 25 54  1  0  0  0  0
 27 29  1  0  0  0  0
 27 55  1  0  0  0  0
 27 56  1  0  0  0  0
 28 30  1  0  0  0  0
 28 57  1  0  0  0  0
 28 58  1  0  0  0  0
 29 59  1  0  0  0  0
 29 60  1  0  0  0  0
 30 61  1  0  0  0  0
 30 62  1  0  0  0  0
 31 32  1  0  0  0  0
 32 63  1  0  0  0  0
 32 64  1  0  0  0  0
 32 65  1  0  0  0  0
M  END
> <PUBCHEM_COMPOUND_CID>
11866271

> <PUBCHEM_CONFORMER_RMSD>
0.8

> <PUBCHEM_CONFORMER_DIVERSEORDER>
2
6
15
9
14
22
13
7
5
11
8
10
1
16
18
20
21
19
4
17
12
3

> <PUBCHEM_MMFF94_PARTIAL_CHARGES>
23
1 -0.08
11 0.28
15 0.18
16 0.18
17 0.06
19 0.05
2 -0.43
20 -0.14
21 0.66
24 0.44
25 0.06
26 0.57
29 0.3
3 -0.57
30 0.3
31 0.57
32 0.06
4 -0.57
5 -0.57
53 0.37
6 -0.57
7 -0.49
8 -0.66

> <PUBCHEM_EFFECTIVE_ROTOR_COUNT>
6.4

> <PUBCHEM_PHARMACOPHORE_FEATURES>
9
1 3 acceptor
1 4 acceptor
1 5 acceptor
1 7 donor
5 1 6 19 20 24 rings
5 2 11 12 17 21 rings
6 8 25 27 28 29 30 rings
6 9 10 11 12 13 14 rings
6 9 10 15 16 19 20 rings

> <PUBCHEM_HEAVY_ATOM_COUNT>
32

> <PUBCHEM_ATOM_DEF_STEREO_COUNT>
6

> <PUBCHEM_ATOM_UDEF_STEREO_COUNT>
0

> <PUBCHEM_BOND_DEF_STEREO_COUNT>
0

> <PUBCHEM_BOND_UDEF_STEREO_COUNT>
0

> <PUBCHEM_ISOTOPIC_ATOM_COUNT>
0

> <PUBCHEM_COMPONENT_COUNT>
1

> <PUBCHEM_CACTVS_TAUTO_COUNT>
6

> <PUBCHEM_CONFORMER_ID>
00B5109F00000002

> <PUBCHEM_MMFF94_ENERGY>
78.0312

> <PUBCHEM_FEATURE_SELFOVERLAP>
45.834

> <PUBCHEM_SHAPE_FINGERPRINT>
10165383 225 18340203124763887376
10299344 5 18272651255490826495
10411042 1 18265893559107326668
10533779 47 18339654360722993811
11135609 127 10953753218266955566
11456790 92 17846786217567047033
11607047 141 13973694867582464126
117089 54 17982171116021540502
11719270 70 17489587857434154398
12089408 11 17988925600622985933
12166972 35 18412543223378446817
12236239 1 18131348630811874861
12522641 24 17846774135660584208
12592606 108 18408885144377195339
13533116 47 18342171181229797712
13617811 41 16081087065658078566
13668630 136 17676205780215583665
13673619 4 18187079538198158780
13685833 64 18260266352389414885
14118638 360 14996554063222899761
14251764 18 18272652372615002605
14849402 71 18201435947295100193
15064986 96 18060430117999192879
15131766 46 15982259808116837752
15183329 4 18335414668837960395
15419008 47 17240755186187171117
15461852 350 16845280650124565245
1577012 14 17988640839495153749
19301679 30 17559682737817945318
19315958 150 18337670931629640160
20028762 73 18272645732517052742
20105231 36 18040719160004719314
20554085 129 14908183049259531015
20771845 140 16845569795306081886
20982279 24 18041860423405290443
21130935 74 18269834371457594963
21150785 3 12901547936089261261
21267235 1 18335139778051668812
21315763 28 18411418406477920201
21344244 181 18040999531517674786
21781051 124 17168722906833931339
21792938 703 18115589391867746187
22149856 69 18341895182046492600
23522609 53 18198649733290883216
23559900 14 18261106405058741704
23569917 315 18335988662118742195
23569943 247 18117836607917377995
23576562 1 12252770139537813451
3178227 256 18342174458247626846
335352 9 18408041827543370894
3383291 50 17894633678105914427
34797466 226 16588026831708994180
350125 39 18412540986470086052
404807 78 16009043803435472729
4073 2 18188772884772831578
4340502 62 14836404744387293484
45377200 153 16515980254277836547
6201320 215 17845659137125408145
6691757 9 16845570938474244863
9962374 69 18336258041548662303

> <PUBCHEM_SHAPE_MULTIPOLES>
623.97
28.71
2.57
1.07
44.89
0.2
0.27
14.18
6.64
-4.8
-0.12
1.51
-0.21
-0.13

> <PUBCHEM_SHAPE_SELFOVERLAP>
1323.988

> <PUBCHEM_SHAPE_VOLUME>
353.1

> <PUBCHEM_COORDINATE_TYPE>
2
5
10

$$$$
