28959636
  -OEChem-12032416413D

 61 63  0     1  0  0  0  0  0999 V2000
    0.6916   -3.0437    1.5485 O   0  0  0  0  0  0  0  0  0  0  0  0
   -7.0255   -0.4220    0.0614 O   0  0  0  0  0  0  0  0  0  0  0  0
    1.6787    2.3843    1.1504 O   0  0  0  0  0  0  0  0  0  0  0  0
   -6.0768   -2.4160   -0.4906 O   0  0  0  0  0  0  0  0  0  0  0  0
    2.6888   -1.6595    0.8528 O   0  0  0  0  0  0  0  0  0  0  0  0
   -0.7422    2.8244    0.1292 N   0  0  1  0  0  0  0  0  0  0  0  0
   -0.7713   -2.2419   -0.0684 N   0  0  0  0  0  0  0  0  0  0  0  0
    2.7183    3.3166   -0.6783 N   0  0  0  0  0  0  0  0  0  0  0  0
   -2.2596   -0.4755   -0.9838 C   0  0  1  0  0  0  0  0  0  0  0  0
   -3.4774   -1.2985   -0.4914 C   0  0  1  0  0  0  0  0  0  0  0  0
   -1.8497    0.6585   -0.0360 C   0  0  0  0  0  0  0  0  0  0  0  0
   -1.0661   -1.4126   -1.2439 C   0  0  0  0  0  0  0  0  0  0  0  0
   -3.1105   -2.1894    0.7075 C   0  0  0  0  0  0  0  0  0  0  0  0
   -1.1362    1.7687   -0.7941 C   0  0  0  0  0  0  0  0  0  0  0  0
   -1.8916   -3.0561    0.4018 C   0  0  0  0  0  0  0  0  0  0  0  0
    0.3564    3.6532   -0.3781 C   0  0  1  0  0  0  0  0  0  0  0  0
   -4.6955   -0.4339   -0.1676 C   0  0  0  0  0  0  0  0  0  0  0  0
   -1.8466    3.7357    0.4300 C   0  0  0  0  0  0  0  0  0  0  0  0
    0.1328    5.0432    0.2176 C   0  0  0  0  0  0  0  0  0  0  0  0
   -1.1227    4.9061    1.0662 C   0  0  0  0  0  0  0  0  0  0  0  0
    0.4623   -2.3182    0.5774 C   0  0  0  0  0  0  0  0  0  0  0  0
    1.6295    3.0462    0.1166 C   0  0  0  0  0  0  0  0  0  0  0  0
   -5.9712   -1.2277   -0.2270 C   0  0  0  0  0  0  0  0  0  0  0  0
    1.5651   -1.4455    0.0335 C   0  0  0  0  0  0  0  0  0  0  0  0
    3.9297   -1.4723    0.2855 C   0  0  0  0  0  0  0  0  0  0  0  0
    4.0937   -0.5446   -0.7431 C   0  0  0  0  0  0  0  0  0  0  0  0
    5.0225   -2.2105    0.7398 C   0  0  0  0  0  0  0  0  0  0  0  0
    5.3506   -0.3551   -1.3177 C   0  0  0  0  0  0  0  0  0  0  0  0
    6.2794   -2.0210    0.1654 C   0  0  0  0  0  0  0  0  0  0  0  0
    6.4435   -1.0933   -0.8634 C   0  0  0  0  0  0  0  0  0  0  0  0
   -2.5482   -0.0313   -1.9467 H   0  0  0  0  0  0  0  0  0  0  0  0
   -3.7418   -1.9703   -1.3216 H   0  0  0  0  0  0  0  0  0  0  0  0
   -1.2198    0.2848    0.7804 H   0  0  0  0  0  0  0  0  0  0  0  0
   -2.7350    1.0894    0.4397 H   0  0  0  0  0  0  0  0  0  0  0  0
   -1.3141   -2.1052   -2.0584 H   0  0  0  0  0  0  0  0  0  0  0  0
   -0.1934   -0.8518   -1.5799 H   0  0  0  0  0  0  0  0  0  0  0  0
   -3.9470   -2.8394    0.9856 H   0  0  0  0  0  0  0  0  0  0  0  0
   -2.8924   -1.5613    1.5808 H   0  0  0  0  0  0  0  0  0  0  0  0
   -1.7542    2.1568   -1.6139 H   0  0  0  0  0  0  0  0  0  0  0  0
   -0.2388    1.3436   -1.2586 H   0  0  0  0  0  0  0  0  0  0  0  0
   -1.6127   -3.6261    1.2936 H   0  0  0  0  0  0  0  0  0  0  0  0
   -2.1248   -3.7799   -0.3881 H   0  0  0  0  0  0  0  0  0  0  0  0
    0.3545    3.7195   -1.4738 H   0  0  0  0  0  0  0  0  0  0  0  0
   -4.6164    0.0044    0.8333 H   0  0  0  0  0  0  0  0  0  0  0  0
   -4.7852    0.3717   -0.9060 H   0  0  0  0  0  0  0  0  0  0  0  0
   -2.5747    3.3017    1.1216 H   0  0  0  0  0  0  0  0  0  0  0  0
   -2.3690    4.0671   -0.4765 H   0  0  0  0  0  0  0  0  0  0  0  0
   -0.0532    5.7628   -0.5891 H   0  0  0  0  0  0  0  0  0  0  0  0
    0.9722    5.4161    0.8140 H   0  0  0  0  0  0  0  0  0  0  0  0
   -0.8504    4.6717    2.1028 H   0  0  0  0  0  0  0  0  0  0  0  0
   -1.7229    5.8206    1.0688 H   0  0  0  0  0  0  0  0  0  0  0  0
    1.2633   -0.3954    0.0921 H   0  0  0  0  0  0  0  0  0  0  0  0
    1.7506   -1.7569   -1.0015 H   0  0  0  0  0  0  0  0  0  0  0  0
    2.6511    3.8768   -1.5220 H   0  0  0  0  0  0  0  0  0  0  0  0
    3.6380    2.9594   -0.4416 H   0  0  0  0  0  0  0  0  0  0  0  0
   -7.8766   -0.9089    0.0319 H   0  0  0  0  0  0  0  0  0  0  0  0
    3.2722    0.0650   -1.1078 H   0  0  0  0  0  0  0  0  0  0  0  0
    4.9003   -2.9345    1.5407 H   0  0  0  0  0  0  0  0  0  0  0  0
    5.4798    0.3713   -2.1147 H   0  0  0  0  0  0  0  0  0  0  0  0
    7.1305   -2.5955    0.5192 H   0  0  0  0  0  0  0  0  0  0  0  0
    7.4224   -0.9449   -1.3097 H   0  0  0  0  0  0  0  0  0  0  0  0
  1 21  2  0  0  0  0
  2 23  1  0  0  0  0
  2 56  1  0  0  0  0
  3 22  2  0  0  0  0
  4 23  2  0  0  0  0
  5 24  1  0  0  0  0
  5 25  1  0  0  0  0
  6 14  1  0  0  0  0
  6 16  1  0  0  0  0
  6 18  1  0  0  0  0
  7 12  1  0  0  0  0
  7 15  1  0  0  0  0
  7 21  1  0  0  0  0
  8 22  1  0  0  0  0
  8 54  1  0  0  0  0
  8 55  1  0  0  0  0
  9 10  1  0  0  0  0
  9 11  1  0  0  0  0
  9 12  1  0  0  0  0
  9 31  1  0  0  0  0
 10 13  1  0  0  0  0
 10 17  1  0  0  0  0
 10 32  1  0  0  0  0
 11 14  1  0  0  0  0
 11 33  1  0  0  0  0
 11 34  1  0  0  0  0
 12 35  1  0  0  0  0
 12 36  1  0  0  0  0
 13 15  1  0  0  0  0
 13 37  1  0  0  0  0
 13 38  1  0  0  0  0
 14 39  1  0  0  0  0
 14 40  1  0  0  0  0
 15 41  1  0  0  0  0
 15 42  1  0  0  0  0
 16 19  1  0  0  0  0
 16 22  1  0  0  0  0
 16 43  1  0  0  0  0
 17 23  1  0  0  0  0
 17 44  1  0  0  0  0
 17 45  1  0  0  0  0
 18 20  1  0  0  0  0
 18 46  1  0  0  0  0
 18 47  1  0  0  0  0
 19 20  1  0  0  0  0
 19 48  1  0  0  0  0
 19 49  1  0  0  0  0
 20 50  1  0  0  0  0
 20 51  1  0  0  0  0
 21 24  1  0  0  0  0
 24 52  1  0  0  0  0
 24 53  1  0  0  0  0
 25 26  2  0  0  0  0
 25 27  1  0  0  0  0
 26 28  1  0  0  0  0
 26 57  1  0  0  0  0
 27 29  2  0  0  0  0
 27 58  1  0  0  0  0
 28 30  2  0  0  0  0
 28 59  1  0  0  0  0
 29 30  1  0  0  0  0
 29 60  1  0  0  0  0
 30 61  1  0  0  0  0
M  END
> <PUBCHEM_COMPOUND_CID>
28959636

> <PUBCHEM_CONFORMER_RMSD>
1.2

> <PUBCHEM_CONFORMER_DIVERSEORDER>
1
49
13
62
25
67
41
60
21
51
59
54
57
39
64
6
2
16
38
35
66
43
37
72
18
4
24
31
53
48
3
26
63
32
44
17
19
33
55
70
61
7
15
52
8
40
34
22
11
36
10
30
9
45
47
5
29
27
20
74
56
12
65
58
46
14
42
50
28
23
68
71
73
69

> <PUBCHEM_MMFF94_PARTIAL_CHARGES>
32
1 -0.57
12 0.3
14 0.27
15 0.3
16 0.33
17 0.06
18 0.27
2 -0.65
21 0.57
22 0.57
23 0.66
24 0.34
25 0.08
26 -0.15
27 -0.15
28 -0.15
29 -0.15
3 -0.57
30 -0.15
4 -0.57
5 -0.36
54 0.37
55 0.37
56 0.5
57 0.15
58 0.15
59 0.15
6 -0.81
60 0.15
61 0.15
7 -0.66
8 -0.8

> <PUBCHEM_EFFECTIVE_ROTOR_COUNT>
12.2

> <PUBCHEM_PHARMACOPHORE_FEATURES>
11
1 1 acceptor
1 2 acceptor
1 3 acceptor
1 4 acceptor
1 5 acceptor
1 6 cation
1 8 donor
3 2 4 23 anion
5 6 16 18 19 20 rings
6 25 26 27 28 29 30 rings
6 7 9 10 12 13 15 rings

> <PUBCHEM_HEAVY_ATOM_COUNT>
30

> <PUBCHEM_ATOM_DEF_STEREO_COUNT>
3

> <PUBCHEM_ATOM_UDEF_STEREO_COUNT>
0

> <PUBCHEM_BOND_DEF_STEREO_COUNT>
0

> <PUBCHEM_BOND_UDEF_STEREO_COUNT>
0

> <PUBCHEM_ISOTOPIC_ATOM_COUNT>
0

> <PUBCHEM_COMPONENT_COUNT>
1

> <PUBCHEM_CACTVS_TAUTO_COUNT>
2

> <PUBCHEM_CONFORMER_ID>
01B9E39400000001

> <PUBCHEM_MMFF94_ENERGY>
68.4645

> <PUBCHEM_FEATURE_SELFOVERLAP>
55.896

> <PUBCHEM_SHAPE_FINGERPRINT>
10050765 1 18050848016794006311
10411042 1 18411979165533731983
10670039 82 18264496088202567814
10871710 139 18195246620189913604
1100329 8 18408609170778629333
12058002 1 17558584441397752435
12166972 35 17894632543743970150
12788726 201 18335978653868392690
138480 1 15240603485037278360
13899415 154 18335989726747729519
14068700 675 18410855451675708748
14394314 77 18411144614723682528
14866123 147 18268718216462502857
14931854 50 18261682527919421374
14955137 171 18339923813833041295
15351339 4 18334570274157703288
15927050 60 17763466518403109598
15968369 153 18131055035675143408
19319366 153 17894343385082017906
20642791 35 18337952397720666274
20721686 56 18337109076829082250
21033650 10 18193581990605488502
21049683 271 18186805820438221647
21304253 13 18413107256448681115
23559900 14 18267016344604041891
469060 322 18339652117995210666

> <PUBCHEM_SHAPE_MULTIPOLES>
573.1
13.05
6.5
1.07
3.59
10.66
0
-13.11
-2.29
-1.91
1.8
0.5
-0.14
-0.97

> <PUBCHEM_SHAPE_SELFOVERLAP>
1192.229

> <PUBCHEM_SHAPE_VOLUME>
324.1

> <PUBCHEM_COORDINATE_TYPE>
2
5
10

$$$$
