75536860
  -OEChem-12032416323D

 41 43  0     1  0  0  0  0  0999 V2000
    1.6530    2.9187   -0.2287 O   0  0  0  0  0  0  0  0  0  0  0  0
   -1.0979    1.5621    0.1859 O   0  0  0  0  0  0  0  0  0  0  0  0
    2.2668    0.0099    0.0746 N   0  0  1  0  0  0  0  0  0  0  0  0
   -2.0661   -0.4454   -0.4460 N   0  0  0  0  0  0  0  0  0  0  0  0
    2.7415   -1.2337    0.7169 C   0  0  0  0  0  0  0  0  0  0  0  0
    3.9514   -1.7831   -0.0697 C   0  0  0  0  0  0  0  0  0  0  0  0
    1.9347   -2.4304    0.1680 C   0  0  0  0  0  0  0  0  0  0  0  0
    3.2850   -3.1729    0.0469 C   0  0  0  0  0  0  0  0  0  0  0  0
    0.8823    0.2573    0.5024 C   0  0  0  0  0  0  0  0  0  0  0  0
    3.1491    1.1093    0.5063 C   0  0  0  0  0  0  0  0  0  0  0  0
    0.0619    1.0757   -0.4998 C   0  0  2  0  0  0  0  0  0  0  0  0
    2.9740    2.3903   -0.3047 C   0  0  0  0  0  0  0  0  0  0  0  0
    0.7562    2.2777   -1.1321 C   0  0  0  0  0  0  0  0  0  0  0  0
   -2.1883    0.7397    0.1929 C   0  0  0  0  0  0  0  0  0  0  0  0
   -3.3401    1.1566    0.8408 C   0  0  0  0  0  0  0  0  0  0  0  0
   -3.1527   -1.2496   -0.4329 C   0  0  0  0  0  0  0  0  0  0  0  0
   -4.4368    0.3019    0.8325 C   0  0  0  0  0  0  0  0  0  0  0  0
   -4.3496   -0.9260    0.1858 C   0  0  0  0  0  0  0  0  0  0  0  0
   -3.0245   -2.5580   -1.1390 C   0  0  0  0  0  0  0  0  0  0  0  0
    2.8554   -1.2202    1.8077 H   0  0  0  0  0  0  0  0  0  0  0  0
    4.9223   -1.6902    0.4247 H   0  0  0  0  0  0  0  0  0  0  0  0
    4.0479   -1.4412   -1.1078 H   0  0  0  0  0  0  0  0  0  0  0  0
    1.4467   -2.2875   -0.8047 H   0  0  0  0  0  0  0  0  0  0  0  0
    1.2211   -2.8870    0.8598 H   0  0  0  0  0  0  0  0  0  0  0  0
    3.3930   -3.8276   -0.8212 H   0  0  0  0  0  0  0  0  0  0  0  0
    3.5687   -3.7247    0.9506 H   0  0  0  0  0  0  0  0  0  0  0  0
    0.8567    0.7353    1.4928 H   0  0  0  0  0  0  0  0  0  0  0  0
    0.3295   -0.6752    0.6636 H   0  0  0  0  0  0  0  0  0  0  0  0
    2.9989    1.3262    1.5725 H   0  0  0  0  0  0  0  0  0  0  0  0
    4.2006    0.8159    0.3961 H   0  0  0  0  0  0  0  0  0  0  0  0
   -0.2160    0.4475   -1.3569 H   0  0  0  0  0  0  0  0  0  0  0  0
    3.6394    3.1536    0.1144 H   0  0  0  0  0  0  0  0  0  0  0  0
    3.2833    2.2513   -1.3479 H   0  0  0  0  0  0  0  0  0  0  0  0
    1.2821    1.9848   -2.0493 H   0  0  0  0  0  0  0  0  0  0  0  0
    0.0116    3.0273   -1.4236 H   0  0  0  0  0  0  0  0  0  0  0  0
   -3.3920    2.1176    1.3405 H   0  0  0  0  0  0  0  0  0  0  0  0
   -5.3578    0.5922    1.3290 H   0  0  0  0  0  0  0  0  0  0  0  0
   -5.1986   -1.6009    0.1722 H   0  0  0  0  0  0  0  0  0  0  0  0
   -3.1925   -3.3851   -0.4421 H   0  0  0  0  0  0  0  0  0  0  0  0
   -2.0237   -2.6764   -1.5677 H   0  0  0  0  0  0  0  0  0  0  0  0
   -3.7514   -2.6232   -1.9548 H   0  0  0  0  0  0  0  0  0  0  0  0
  1 12  1  0  0  0  0
  1 13  1  0  0  0  0
  2 11  1  0  0  0  0
  2 14  1  0  0  0  0
  3  5  1  0  0  0  0
  3  9  1  0  0  0  0
  3 10  1  0  0  0  0
  4 14  1  0  0  0  0
  4 16  2  0  0  0  0
  5  6  1  0  0  0  0
  5  7  1  0  0  0  0
  5 20  1  0  0  0  0
  6  8  1  0  0  0  0
  6 21  1  0  0  0  0
  6 22  1  0  0  0  0
  7  8  1  0  0  0  0
  7 23  1  0  0  0  0
  7 24  1  0  0  0  0
  8 25  1  0  0  0  0
  8 26  1  0  0  0  0
  9 11  1  0  0  0  0
  9 27  1  0  0  0  0
  9 28  1  0  0  0  0
 10 12  1  0  0  0  0
 10 29  1  0  0  0  0
 10 30  1  0  0  0  0
 11 13  1  0  0  0  0
 11 31  1  0  0  0  0
 12 32  1  0  0  0  0
 12 33  1  0  0  0  0
 13 34  1  0  0  0  0
 13 35  1  0  0  0  0
 14 15  2  0  0  0  0
 15 17  1  0  0  0  0
 15 36  1  0  0  0  0
 16 18  1  0  0  0  0
 16 19  1  0  0  0  0
 17 18  2  0  0  0  0
 17 37  1  0  0  0  0
 18 38  1  0  0  0  0
 19 39  1  0  0  0  0
 19 40  1  0  0  0  0
 19 41  1  0  0  0  0
M  END
> <PUBCHEM_COMPOUND_CID>
75536860

> <PUBCHEM_CONFORMER_RMSD>
0.8

> <PUBCHEM_CONFORMER_DIVERSEORDER>
1
18
25
21
34
24
30
61
22
39
60
45
11
29
8
43
54
51
63
49
7
41
26
16
20
47
44
58
27
42
37
32
9
12
4
46
6
55
14
28
50
40
35
56
13
52
17
15
31
23
48
3
53
19
59
2
38
57
10
36
62
33
5

> <PUBCHEM_MMFF94_PARTIAL_CHARGES>
19
1 -0.56
10 0.27
11 0.28
12 0.28
13 0.28
14 0.39
15 -0.15
16 0.17
17 -0.15
18 -0.15
19 0.14
2 -0.36
3 -0.75
36 0.15
37 0.15
38 0.15
4 -0.62
5 0.21
9 0.27

> <PUBCHEM_EFFECTIVE_ROTOR_COUNT>
5.2

> <PUBCHEM_PHARMACOPHORE_FEATURES>
7
1 1 acceptor
1 2 acceptor
1 3 cation
1 4 acceptor
4 5 6 7 8 rings
6 4 14 15 16 17 18 rings
7 1 3 9 10 11 12 13 rings

> <PUBCHEM_HEAVY_ATOM_COUNT>
19

> <PUBCHEM_ATOM_DEF_STEREO_COUNT>
1

> <PUBCHEM_ATOM_UDEF_STEREO_COUNT>
0

> <PUBCHEM_BOND_DEF_STEREO_COUNT>
0

> <PUBCHEM_BOND_UDEF_STEREO_COUNT>
0

> <PUBCHEM_ISOTOPIC_ATOM_COUNT>
0

> <PUBCHEM_COMPONENT_COUNT>
1

> <PUBCHEM_CACTVS_TAUTO_COUNT>
1

> <PUBCHEM_CONFORMER_ID>
048099DC00000001

> <PUBCHEM_MMFF94_ENERGY>
66.3642

> <PUBCHEM_FEATURE_SELFOVERLAP>
35.57

> <PUBCHEM_SHAPE_FINGERPRINT>
10616163 171 18270120265565516543
12107183 9 18053392002773298993
12403259 327 16773785979341677379
12553582 1 18264481780980851538
12633257 1 17916309346602514419
12841375 25 18263646173675989872
13533116 47 18342454885542240347
13583140 156 17773858935053394321
14178342 30 18269259321990178128
14787075 74 17340961566317819848
14790565 3 18120098535786296396
14844126 61 17252001858847274026
14863182 85 18261961851075499876
15099037 8 18341326773363321283
15375462 189 18200036277924909569
15442244 35 18339927017477483625
15536298 74 18413389843109817002
17492 89 18410857698302846291
17818456 19 18057614170310594465
1813 80 17749677289802427916
19141452 34 18269552732934218187
20281475 54 18342452681807130107
20291156 8 18337673001355139578
20442098 301 18343015588542067475
20645477 70 18188197801821284623
20681651 13 17917435392902073443
21634736 98 18411136939695771538
21673915 165 18341325695036483658
221490 88 18334866029858338762
22445834 79 18412546547998969173
2255824 54 18189904303802580084
23559900 14 18412255125561594112
23566358 27 18410018753591897126
23598291 2 18412826880408637383
3421961 26 18409449146449677528
4409770 3 17396695385585434612
6992083 37 18053113834499425809
7097593 13 18413671313960514677
7364860 26 18410295834827840616
9709674 26 18261678163842569779

> <PUBCHEM_SHAPE_MULTIPOLES>
369.31
8.48
3.54
0.92
4.52
0.63
-0.08
3.67
1.19
-3.25
-0.77
0.37
-0.03
-1.17

> <PUBCHEM_SHAPE_SELFOVERLAP>
769.571

> <PUBCHEM_SHAPE_VOLUME>
209.1

> <PUBCHEM_COORDINATE_TYPE>
2
5
10

$$$$
