75368650
  -OEChem-12032416383D

 52 54  0     1  0  0  0  0  0999 V2000
    1.5497    2.5708    0.4204 O   0  0  0  0  0  0  0  0  0  0  0  0
    1.9676    0.3129   -0.1191 N   0  0  0  0  0  0  0  0  0  0  0  0
   -0.1488    1.0621   -0.1779 N   0  0  0  0  0  0  0  0  0  0  0  0
   -2.6222   -0.2744   -0.0930 N   0  0  2  0  0  0  0  0  0  0  0  0
   -0.2304   -0.2961   -0.6733 C   0  0  1  0  0  0  0  0  0  0  0  0
    3.3940    0.2324    0.0836 C   0  0  0  0  0  0  0  0  0  0  0  0
    1.1641   -0.8617   -0.4118 C   0  0  0  0  0  0  0  0  0  0  0  0
   -1.3682   -1.0469    0.0178 C   0  0  0  0  0  0  0  0  0  0  0  0
   -1.3530    1.8628   -0.1032 C   0  0  0  0  0  0  0  0  0  0  0  0
    1.1705    1.4580    0.0800 C   0  0  0  0  0  0  0  0  0  0  0  0
    4.1046   -0.1023   -1.2301 C   0  0  0  0  0  0  0  0  0  0  0  0
    3.7298   -0.7881    1.1743 C   0  0  0  0  0  0  0  0  0  0  0  0
   -2.4811    1.0524    0.5402 C   0  0  0  0  0  0  0  0  0  0  0  0
   -3.7301   -1.0127    0.5127 C   0  0  0  0  0  0  0  0  0  0  0  0
    5.6116   -0.2456   -1.0341 C   0  0  0  0  0  0  0  0  0  0  0  0
    5.2374   -0.9288    1.3674 C   0  0  0  0  0  0  0  0  0  0  0  0
    5.9438   -1.2604    0.0561 C   0  0  0  0  0  0  0  0  0  0  0  0
   -5.1316   -0.5535    0.0349 C   0  0  0  0  0  0  0  0  0  0  0  0
   -5.0171   -0.0994   -1.4327 C   0  0  0  0  0  0  0  0  0  0  0  0
   -6.1434   -1.7104    0.1140 C   0  0  0  0  0  0  0  0  0  0  0  0
   -5.6475    0.6290    0.8738 C   0  0  0  0  0  0  0  0  0  0  0  0
   -0.4136   -0.2318   -1.7540 H   0  0  0  0  0  0  0  0  0  0  0  0
    3.7402    1.2195    0.4164 H   0  0  0  0  0  0  0  0  0  0  0  0
    1.1698   -1.5246    0.4587 H   0  0  0  0  0  0  0  0  0  0  0  0
    1.5478   -1.3975   -1.2837 H   0  0  0  0  0  0  0  0  0  0  0  0
   -1.4773   -2.0265   -0.4633 H   0  0  0  0  0  0  0  0  0  0  0  0
   -1.1278   -1.2222    1.0753 H   0  0  0  0  0  0  0  0  0  0  0  0
   -1.6181    2.1474   -1.1281 H   0  0  0  0  0  0  0  0  0  0  0  0
   -1.1494    2.7783    0.4613 H   0  0  0  0  0  0  0  0  0  0  0  0
    3.9040    0.6781   -1.9744 H   0  0  0  0  0  0  0  0  0  0  0  0
    3.7207   -1.0386   -1.6526 H   0  0  0  0  0  0  0  0  0  0  0  0
    3.3302   -1.7775    0.9205 H   0  0  0  0  0  0  0  0  0  0  0  0
    3.2625   -0.4947    2.1222 H   0  0  0  0  0  0  0  0  0  0  0  0
   -2.2808    0.9416    1.6142 H   0  0  0  0  0  0  0  0  0  0  0  0
   -3.3700    1.6655    0.4309 H   0  0  0  0  0  0  0  0  0  0  0  0
   -3.6309   -2.0652    0.2110 H   0  0  0  0  0  0  0  0  0  0  0  0
   -3.6674   -1.0222    1.6093 H   0  0  0  0  0  0  0  0  0  0  0  0
    6.0385    0.7291   -0.7673 H   0  0  0  0  0  0  0  0  0  0  0  0
    6.0790   -0.5510   -1.9771 H   0  0  0  0  0  0  0  0  0  0  0  0
    5.4436   -1.7122    2.1055 H   0  0  0  0  0  0  0  0  0  0  0  0
    5.6416    0.0067    1.7734 H   0  0  0  0  0  0  0  0  0  0  0  0
    7.0274   -1.2869    0.2174 H   0  0  0  0  0  0  0  0  0  0  0  0
    5.6453   -2.2625   -0.2756 H   0  0  0  0  0  0  0  0  0  0  0  0
   -4.4237    0.8114   -1.5634 H   0  0  0  0  0  0  0  0  0  0  0  0
   -6.0111    0.1244   -1.8397 H   0  0  0  0  0  0  0  0  0  0  0  0
   -4.5846   -0.8865   -2.0617 H   0  0  0  0  0  0  0  0  0  0  0  0
   -7.1351   -1.4021   -0.2356 H   0  0  0  0  0  0  0  0  0  0  0  0
   -6.2464   -2.0659    1.1453 H   0  0  0  0  0  0  0  0  0  0  0  0
   -5.8262   -2.5588   -0.5028 H   0  0  0  0  0  0  0  0  0  0  0  0
   -5.3095    1.6047    0.5198 H   0  0  0  0  0  0  0  0  0  0  0  0
   -5.3800    0.5227    1.9304 H   0  0  0  0  0  0  0  0  0  0  0  0
   -6.7429    0.6797    0.8293 H   0  0  0  0  0  0  0  0  0  0  0  0
  1 10  2  0  0  0  0
  2  6  1  0  0  0  0
  2  7  1  0  0  0  0
  2 10  1  0  0  0  0
  3  5  1  0  0  0  0
  3  9  1  0  0  0  0
  3 10  1  0  0  0  0
  4  8  1  0  0  0  0
  4 13  1  0  0  0  0
  4 14  1  0  0  0  0
  5  7  1  0  0  0  0
  5  8  1  0  0  0  0
  5 22  1  0  0  0  0
  6 11  1  0  0  0  0
  6 12  1  0  0  0  0
  6 23  1  0  0  0  0
  7 24  1  0  0  0  0
  7 25  1  0  0  0  0
  8 26  1  0  0  0  0
  8 27  1  0  0  0  0
  9 13  1  0  0  0  0
  9 28  1  0  0  0  0
  9 29  1  0  0  0  0
 11 15  1  0  0  0  0
 11 30  1  0  0  0  0
 11 31  1  0  0  0  0
 12 16  1  0  0  0  0
 12 32  1  0  0  0  0
 12 33  1  0  0  0  0
 13 34  1  0  0  0  0
 13 35  1  0  0  0  0
 14 18  1  0  0  0  0
 14 36  1  0  0  0  0
 14 37  1  0  0  0  0
 15 17  1  0  0  0  0
 15 38  1  0  0  0  0
 15 39  1  0  0  0  0
 16 17  1  0  0  0  0
 16 40  1  0  0  0  0
 16 41  1  0  0  0  0
 17 42  1  0  0  0  0
 17 43  1  0  0  0  0
 18 19  1  0  0  0  0
 18 20  1  0  0  0  0
 18 21  1  0  0  0  0
 19 44  1  0  0  0  0
 19 45  1  0  0  0  0
 19 46  1  0  0  0  0
 20 47  1  0  0  0  0
 20 48  1  0  0  0  0
 20 49  1  0  0  0  0
 21 50  1  0  0  0  0
 21 51  1  0  0  0  0
 21 52  1  0  0  0  0
M  END
> <PUBCHEM_COMPOUND_CID>
75368650

> <PUBCHEM_CONFORMER_RMSD>
0.8

> <PUBCHEM_CONFORMER_DIVERSEORDER>
1
16
14
12
18
24
5
23
25
3
17
8
2
19
9
10
7
21
13
4
11
15
26
6
20
22

> <PUBCHEM_MMFF94_PARTIAL_CHARGES>
12
1 -0.57
10 0.69
13 0.27
14 0.27
2 -0.66
3 -0.66
4 -0.81
5 0.3
6 0.3
7 0.3
8 0.27
9 0.3

> <PUBCHEM_EFFECTIVE_ROTOR_COUNT>
5.4

> <PUBCHEM_PHARMACOPHORE_FEATURES>
6
1 1 acceptor
1 4 cation
4 18 19 20 21 hydrophobe
5 2 3 5 7 10 rings
6 3 4 5 8 9 13 rings
6 6 11 12 15 16 17 rings

> <PUBCHEM_HEAVY_ATOM_COUNT>
21

> <PUBCHEM_ATOM_DEF_STEREO_COUNT>
1

> <PUBCHEM_ATOM_UDEF_STEREO_COUNT>
0

> <PUBCHEM_BOND_DEF_STEREO_COUNT>
0

> <PUBCHEM_BOND_UDEF_STEREO_COUNT>
0

> <PUBCHEM_ISOTOPIC_ATOM_COUNT>
0

> <PUBCHEM_COMPONENT_COUNT>
1

> <PUBCHEM_CACTVS_TAUTO_COUNT>
1

> <PUBCHEM_CONFORMER_ID>
047E08CA00000001

> <PUBCHEM_MMFF94_ENERGY>
48.1301

> <PUBCHEM_FEATURE_SELFOVERLAP>
30.542

> <PUBCHEM_SHAPE_FINGERPRINT>
106641 1 18059849606493547474
11796584 16 17458344134671228699
12011746 2 18409450284283928847
12166972 35 17894917355788937413
12236239 1 17967817132852373734
12516196 113 18413106169436969864
12596602 18 14979952575425038334
12616971 3 17703511103645903189
13140716 1 18198899403907321858
13288520 33 18410858746136969381
13685833 64 18409452522521046307
13862211 1 18411980264955825407
14123256 34 18411708702837629851
14251731 8 18186235122052470639
14251752 14 17676199135637400525
14251764 18 18412546543376694411
14528608 73 10881402045137138571
15183329 4 16588016892721991607
15188451 53 16988267773001982511
15348495 7 16486966345217238819
17349148 13 18271811246003300545
17492 89 18046059359970753802
17834072 33 17530684307692538558
17844677 252 16732706038736553247
1813 80 18186528683046099332
18222031 100 18343863325102877380
19141452 34 17489583493599591030
19489759 90 17275106115946017531
200 152 16950564363469705460
20028762 73 18060134392453031799
20374829 77 18408603669347535797
21033648 29 16629950032600763946
21150785 3 15213301963022281307
21236236 1 18339924810181083853
21267235 1 18411989060953752598
21637258 2 17385995157620263962
220451 1 17894636954374721667
22079108 93 15195559117724581798
22182313 1 17845379838367092788
22956985 138 18051699837130678606
2297311 6 18272661108499302956
23035841 295 18260551117200479939
23198884 109 14923942336788612887
23402539 116 18201718449263826965
23402655 69 10953729024356785697
23522609 53 18119280365532373933
23536379 177 16298383543848843935
23559900 14 18115025328330410241
2767999 5 9727632791200728387
2916195 48 11025800933099023679
29717793 49 17967817115957562142
3004659 81 17821446846771035434
312425 54 16271933713891205567
314173 85 18201719543905805689
335352 9 18411420609970138717
3411729 13 18128811040381661480
3472631 163 9367045789078640338
351380 3 18408039615160569914
4325135 7 18335143120601777108
4463277 17 18411422817045349364
465052 167 18410860992204665022
5104073 3 18271251637756028017
542803 24 15140676986344802455
59682541 52 14201662144458951074
59755656 215 17775292625111698374
59755656 520 14045737119179825156
7495541 125 18260831535256409629
8863177 126 17970640807783659227

> <PUBCHEM_SHAPE_MULTIPOLES>
411.36
15.31
1.71
1.1
2.22
0.73
0.06
-6.84
-0.38
0.42
-0.27
-0.54
-0.12
-0.46

> <PUBCHEM_SHAPE_SELFOVERLAP>
840.064

> <PUBCHEM_SHAPE_VOLUME>
239

> <PUBCHEM_COORDINATE_TYPE>
2
5
10

$$$$
