75536562
  -OEChem-12032416323D

 56 58  0     1  0  0  0  0  0999 V2000
    2.0322   -0.7993   -0.9143 O   0  0  0  0  0  0  0  0  0  0  0  0
    1.1616    1.7481    1.4644 O   0  0  0  0  0  0  0  0  0  0  0  0
    5.7499    1.1019    0.7517 O   0  0  0  0  0  0  0  0  0  0  0  0
   -8.0333   -2.0713    0.2763 O   0  0  0  0  0  0  0  0  0  0  0  0
    4.5942   -0.8880    0.3896 N   0  0  0  0  0  0  0  0  0  0  0  0
   -1.2765    0.3861    0.0232 N   0  0  0  0  0  0  0  0  0  0  0  0
   -7.6478    0.2543    0.3098 N   0  0  0  0  0  0  0  0  0  0  0  0
    6.8288   -0.6461   -0.4630 C   0  0  0  0  0  0  0  0  0  0  0  0
    2.3841    0.1123    0.1398 C   0  0  1  0  0  0  0  0  0  0  0  0
    1.0767    0.4905    0.8227 C   0  0  2  0  0  0  0  0  0  0  0  0
    0.1223    0.4982   -0.3571 C   0  0  1  0  0  0  0  0  0  0  0  0
    7.7690   -1.3698    0.5076 C   0  0  0  0  0  0  0  0  0  0  0  0
    7.6687    0.4337   -1.1472 C   0  0  0  0  0  0  0  0  0  0  0  0
    9.1480   -0.7578    0.2856 C   0  0  0  0  0  0  0  0  0  0  0  0
    8.8555    0.6441   -0.2179 C   0  0  0  0  0  0  0  0  0  0  0  0
    0.6171   -0.6990   -1.1520 C   0  0  0  0  0  0  0  0  0  0  0  0
    3.3818   -0.5461    1.0759 C   0  0  0  0  0  0  0  0  0  0  0  0
    5.6842   -0.0316    0.2833 C   0  0  0  0  0  0  0  0  0  0  0  0
   -2.1527    0.7333   -1.0893 C   0  0  0  0  0  0  0  0  0  0  0  0
   -3.6063    0.6069   -0.7185 C   0  0  0  0  0  0  0  0  0  0  0  0
   -4.1983   -0.6537   -0.6389 C   0  0  0  0  0  0  0  0  0  0  0  0
   -4.3614    1.7497   -0.4550 C   0  0  0  0  0  0  0  0  0  0  0  0
   -5.5451   -0.7715   -0.2962 C   0  0  0  0  0  0  0  0  0  0  0  0
   -5.7083    1.6321   -0.1123 C   0  0  0  0  0  0  0  0  0  0  0  0
   -6.3002    0.3715   -0.0329 C   0  0  0  0  0  0  0  0  0  0  0  0
   -8.4091   -0.9149    0.4383 C   0  0  0  0  0  0  0  0  0  0  0  0
   -9.8351   -0.6135    0.8261 C   0  0  0  0  0  0  0  0  0  0  0  0
    6.4401   -1.3368   -1.2209 H   0  0  0  0  0  0  0  0  0  0  0  0
    2.8459    0.9912   -0.3290 H   0  0  0  0  0  0  0  0  0  0  0  0
    0.7837   -0.2649    1.5625 H   0  0  0  0  0  0  0  0  0  0  0  0
    0.2888    1.4262   -0.9223 H   0  0  0  0  0  0  0  0  0  0  0  0
    7.7891   -2.4481    0.3160 H   0  0  0  0  0  0  0  0  0  0  0  0
    7.4625   -1.2332    1.5517 H   0  0  0  0  0  0  0  0  0  0  0  0
    7.1347    1.3674   -1.3493 H   0  0  0  0  0  0  0  0  0  0  0  0
    8.0318    0.0521   -2.1101 H   0  0  0  0  0  0  0  0  0  0  0  0
    9.6898   -1.3268   -0.4795 H   0  0  0  0  0  0  0  0  0  0  0  0
    9.7529   -0.7568    1.1970 H   0  0  0  0  0  0  0  0  0  0  0  0
    8.5796    1.2997    0.6161 H   0  0  0  0  0  0  0  0  0  0  0  0
    9.7122    1.0871   -0.7335 H   0  0  0  0  0  0  0  0  0  0  0  0
    0.1658   -1.6390   -0.8140 H   0  0  0  0  0  0  0  0  0  0  0  0
    0.4368   -0.5968   -2.2264 H   0  0  0  0  0  0  0  0  0  0  0  0
    2.9779   -1.4839    1.4729 H   0  0  0  0  0  0  0  0  0  0  0  0
    3.6174    0.1155    1.9163 H   0  0  0  0  0  0  0  0  0  0  0  0
    4.6474   -1.8093   -0.0350 H   0  0  0  0  0  0  0  0  0  0  0  0
   -1.4622    1.0211    0.8001 H   0  0  0  0  0  0  0  0  0  0  0  0
    1.4202    2.4121    0.8031 H   0  0  0  0  0  0  0  0  0  0  0  0
   -1.9660    0.0806   -1.9516 H   0  0  0  0  0  0  0  0  0  0  0  0
   -1.9520    1.7578   -1.4290 H   0  0  0  0  0  0  0  0  0  0  0  0
   -3.6191   -1.5507   -0.8428 H   0  0  0  0  0  0  0  0  0  0  0  0
   -3.9128    2.7380   -0.5111 H   0  0  0  0  0  0  0  0  0  0  0  0
   -5.9330   -1.7797   -0.2553 H   0  0  0  0  0  0  0  0  0  0  0  0
   -6.2846    2.5312    0.0908 H   0  0  0  0  0  0  0  0  0  0  0  0
   -8.1290    1.1338    0.4862 H   0  0  0  0  0  0  0  0  0  0  0  0
  -10.2953    0.0343    0.0747 H   0  0  0  0  0  0  0  0  0  0  0  0
   -9.8557   -0.1161    1.7999 H   0  0  0  0  0  0  0  0  0  0  0  0
  -10.4065   -1.5436    0.8896 H   0  0  0  0  0  0  0  0  0  0  0  0
  1  9  1  0  0  0  0
  1 16  1  0  0  0  0
  2 10  1  0  0  0  0
  2 46  1  0  0  0  0
  3 18  2  0  0  0  0
  4 26  2  0  0  0  0
  5 17  1  0  0  0  0
  5 18  1  0  0  0  0
  5 44  1  0  0  0  0
  6 11  1  0  0  0  0
  6 19  1  0  0  0  0
  6 45  1  0  0  0  0
  7 25  1  0  0  0  0
  7 26  1  0  0  0  0
  7 53  1  0  0  0  0
  8 12  1  0  0  0  0
  8 13  1  0  0  0  0
  8 18  1  0  0  0  0
  8 28  1  0  0  0  0
  9 10  1  0  0  0  0
  9 17  1  0  0  0  0
  9 29  1  0  0  0  0
 10 11  1  0  0  0  0
 10 30  1  0  0  0  0
 11 16  1  0  0  0  0
 11 31  1  0  0  0  0
 12 14  1  0  0  0  0
 12 32  1  0  0  0  0
 12 33  1  0  0  0  0
 13 15  1  0  0  0  0
 13 34  1  0  0  0  0
 13 35  1  0  0  0  0
 14 15  1  0  0  0  0
 14 36  1  0  0  0  0
 14 37  1  0  0  0  0
 15 38  1  0  0  0  0
 15 39  1  0  0  0  0
 16 40  1  0  0  0  0
 16 41  1  0  0  0  0
 17 42  1  0  0  0  0
 17 43  1  0  0  0  0
 19 20  1  0  0  0  0
 19 47  1  0  0  0  0
 19 48  1  0  0  0  0
 20 21  2  0  0  0  0
 20 22  1  0  0  0  0
 21 23  1  0  0  0  0
 21 49  1  0  0  0  0
 22 24  2  0  0  0  0
 22 50  1  0  0  0  0
 23 25  2  0  0  0  0
 23 51  1  0  0  0  0
 24 25  1  0  0  0  0
 24 52  1  0  0  0  0
 26 27  1  0  0  0  0
 27 54  1  0  0  0  0
 27 55  1  0  0  0  0
 27 56  1  0  0  0  0
M  END
> <PUBCHEM_COMPOUND_CID>
75536562

> <PUBCHEM_CONFORMER_RMSD>
1

> <PUBCHEM_CONFORMER_DIVERSEORDER>
1
52
85
61
33
136
145
130
82
120
192
66
193
70
190
168
3
98
34
26
137
110
111
208
15
117
73
105
144
20
38
160
13
133
180
171
183
40
51
88
179
170
134
50
57
18
83
74
159
158
213
123
116
35
28
215
161
187
174
100
89
214
113
112
93
191
207
84
201
146
55
8
165
78
39
132
25
29
127
103
152
204
108
153
172
49
53
197
194
119
156
182
189
184
202
92
143
162
12
54
216
104
173
164
114
177
185
102
211
157
47
169
56
124
44
60
41
166
64
75
87
141
62
203
77
109
48
63
30
198
188
59
176
19
80
118
68
90
58
126
209
24
46
27
79
135
16
142
95
121
14
23
212
149
200
122
72
155
17
178
129
43
65
94
210
101
31
99
97
71
205
32
131
151
199
115
42
195
11
106
150
175
81
148
163
206
10
217
21
140
69
37
186
4
181
91
5
147
196
139
125
138
86
7
36
96
167
6
45
76
154
9
128
67
22
2
107

> <PUBCHEM_MMFF94_PARTIAL_CHARGES>
31
1 -0.56
10 0.28
11 0.27
16 0.28
17 0.3
18 0.57
19 0.41
2 -0.68
20 -0.14
21 -0.15
22 -0.15
23 -0.15
24 -0.15
25 0.12
26 0.57
27 0.06
3 -0.57
4 -0.57
44 0.37
45 0.36
46 0.4
49 0.15
5 -0.73
50 0.15
51 0.15
52 0.15
53 0.37
6 -0.9
7 -0.55
8 0.06
9 0.28

> <PUBCHEM_EFFECTIVE_ROTOR_COUNT>
11

> <PUBCHEM_PHARMACOPHORE_FEATURES>
12
1 1 acceptor
1 2 acceptor
1 2 donor
1 3 acceptor
1 4 acceptor
1 5 donor
1 6 cation
1 6 donor
1 7 donor
5 1 9 10 11 16 rings
5 8 12 13 14 15 rings
6 20 21 22 23 24 25 rings

> <PUBCHEM_HEAVY_ATOM_COUNT>
27

> <PUBCHEM_ATOM_DEF_STEREO_COUNT>
3

> <PUBCHEM_ATOM_UDEF_STEREO_COUNT>
0

> <PUBCHEM_BOND_DEF_STEREO_COUNT>
0

> <PUBCHEM_BOND_UDEF_STEREO_COUNT>
0

> <PUBCHEM_ISOTOPIC_ATOM_COUNT>
0

> <PUBCHEM_COMPONENT_COUNT>
1

> <PUBCHEM_CACTVS_TAUTO_COUNT>
6

> <PUBCHEM_CONFORMER_ID>
048098B200000001

> <PUBCHEM_MMFF94_ENERGY>
59.261

> <PUBCHEM_FEATURE_SELFOVERLAP>
60.898

> <PUBCHEM_SHAPE_FINGERPRINT>
10 15 18272369772145961399
10162869 55 15791735226179583830
10299344 5 18333448733505190970
106641 1 18260830405669325005
10883706 142 13039187018674894549
11135926 11 16630239230113490669
11315181 36 18114180814271555997
11409948 35 12175358963687615556
12082328 90 18335136449525705157
12089408 11 18040716948154161636
14123256 10 16660362572039308868
14150022 121 18130793305053807929
14251764 18 17967811648200411163
14251764 46 16845574214399848942
14671636 106 18260831553148779707
14933364 13 18413386523569855428
15183329 4 13830128387026468670
15461852 350 17095241415346978303
15510794 2 18340487777456507183
15728490 51 18186519921350166771
15840311 113 17604153709590105764
15849732 13 11746941975732364594
18335252 98 18409450263341991694
18608769 82 18341613741904247823
20105231 36 17632580440006613974
21049683 271 18408041823212214164
21095086 128 17822290163488757378
21150785 3 16732701653421962611
21267235 1 18272369776103519841
21362267 20 18334012817774455203
21403212 168 9223232940851568776
21792961 116 17988639649314627573
21895431 317 16878772783687514026
22224240 67 16370727020153887232
232437 2 18259704489094666802
246663 6 18412826889014467499
249057 3 15068629309159682907
28498 318 12535631566251628196
3092352 35 18113337510217176954
3178227 256 17561362890021372418
335507 130 18411419518204316598
4325135 7 17385443215710207118
5381727 24 17894906314419646666
54039377 194 18410576197724467689
59682541 35 18410855477434735498
636775 8 17167868595669779907
67123 10 18187365432790460478

> <PUBCHEM_SHAPE_MULTIPOLES>
517.23
33.97
1.43
1.04
0.03
0.06
0.01
-9.4
3.22
-1.47
0.11
0.45
0.1
0.23

> <PUBCHEM_SHAPE_SELFOVERLAP>
1076.715

> <PUBCHEM_SHAPE_VOLUME>
295.1

> <PUBCHEM_COORDINATE_TYPE>
2
5
10

$$$$
