71693707
  -OEChem-12032416233D

 57 60  0     1  0  0  0  0  0999 V2000
   -3.0478    2.0489   -1.5672 O   0  0  0  0  0  0  0  0  0  0  0  0
   -5.9244   -3.6980    0.2360 O   0  0  0  0  0  0  0  0  0  0  0  0
   -4.8234    1.0593    2.6800 O   0  0  0  0  0  0  0  0  0  0  0  0
   -5.6667   -0.1130   -1.9864 O   0  0  0  0  0  0  0  0  0  0  0  0
    3.9577    2.1878    0.7013 O   0  0  0  0  0  0  0  0  0  0  0  0
   -4.2977    0.1379   -0.1129 N   0  0  0  0  0  0  0  0  0  0  0  0
    2.8227    0.3259   -0.1782 N   0  0  0  0  0  0  0  0  0  0  0  0
    9.9275   -2.2933   -0.1766 N   0  0  0  0  0  0  0  0  0  0  0  0
   -4.5733   -1.1647    0.4400 C   0  0  0  0  0  0  0  0  0  0  0  0
   -3.5033    1.0743    0.6896 C   0  0  1  0  0  0  0  0  0  0  0  0
   -2.6289    1.9976   -0.1992 C   0  0  1  0  0  0  0  0  0  0  0  0
   -6.0617   -1.3286    0.7517 C   0  0  0  0  0  0  0  0  0  0  0  0
   -4.1046   -2.2702   -0.5067 C   0  0  0  0  0  0  0  0  0  0  0  0
   -4.8746    0.5437   -1.3138 C   0  0  0  0  0  0  0  0  0  0  0  0
   -6.3609   -2.7502    1.2101 C   0  0  0  0  0  0  0  0  0  0  0  0
   -4.5146   -3.6393    0.0207 C   0  0  0  0  0  0  0  0  0  0  0  0
   -4.4083    1.8944    1.6186 C   0  0  0  0  0  0  0  0  0  0  0  0
   -4.4447    1.9271   -1.7397 C   0  0  0  0  0  0  0  0  0  0  0  0
   -1.1786    1.5523   -0.1932 C   0  0  0  0  0  0  0  0  0  0  0  0
   -0.8369    0.2808   -0.6539 C   0  0  0  0  0  0  0  0  0  0  0  0
   -0.1865    2.4151    0.2730 C   0  0  0  0  0  0  0  0  0  0  0  0
    0.4967   -0.1278   -0.6489 C   0  0  0  0  0  0  0  0  0  0  0  0
    1.1471    2.0065    0.2781 C   0  0  0  0  0  0  0  0  0  0  0  0
    1.4887    0.7350   -0.1829 C   0  0  0  0  0  0  0  0  0  0  0  0
    3.9449    1.0483    0.2483 C   0  0  0  0  0  0  0  0  0  0  0  0
    5.2407    0.3257    0.1557 C   0  0  0  0  0  0  0  0  0  0  0  0
    6.2872    0.6565    1.0166 C   0  0  0  0  0  0  0  0  0  0  0  0
    5.4094   -0.6843   -0.7914 C   0  0  0  0  0  0  0  0  0  0  0  0
    7.5023   -0.0228    0.9305 C   0  0  0  0  0  0  0  0  0  0  0  0
    6.6246   -1.3636   -0.8776 C   0  0  0  0  0  0  0  0  0  0  0  0
    7.6710   -1.0330   -0.0166 C   0  0  0  0  0  0  0  0  0  0  0  0
    8.9163   -1.7285   -0.1050 C   0  0  0  0  0  0  0  0  0  0  0  0
   -4.0173   -1.2801    1.3793 H   0  0  0  0  0  0  0  0  0  0  0  0
   -2.8438    0.4811    1.3379 H   0  0  0  0  0  0  0  0  0  0  0  0
   -2.6734    3.0272    0.1770 H   0  0  0  0  0  0  0  0  0  0  0  0
   -6.6790   -1.1344   -0.1308 H   0  0  0  0  0  0  0  0  0  0  0  0
   -6.3852   -0.6175    1.5182 H   0  0  0  0  0  0  0  0  0  0  0  0
   -3.0169   -2.2343   -0.6307 H   0  0  0  0  0  0  0  0  0  0  0  0
   -4.5397   -2.1551   -1.5044 H   0  0  0  0  0  0  0  0  0  0  0  0
   -7.4397   -2.8805    1.3426 H   0  0  0  0  0  0  0  0  0  0  0  0
   -5.8817   -2.9681    2.1718 H   0  0  0  0  0  0  0  0  0  0  0  0
   -3.9930   -3.8790    0.9549 H   0  0  0  0  0  0  0  0  0  0  0  0
   -4.2554   -4.4132   -0.7089 H   0  0  0  0  0  0  0  0  0  0  0  0
   -5.2943    2.2800    1.1056 H   0  0  0  0  0  0  0  0  0  0  0  0
   -3.8603    2.7327    2.0606 H   0  0  0  0  0  0  0  0  0  0  0  0
   -4.6644    2.0519   -2.8043 H   0  0  0  0  0  0  0  0  0  0  0  0
   -4.9852    2.6980   -1.1825 H   0  0  0  0  0  0  0  0  0  0  0  0
   -1.5927   -0.3979   -1.0351 H   0  0  0  0  0  0  0  0  0  0  0  0
   -0.4379    3.4083    0.6354 H   0  0  0  0  0  0  0  0  0  0  0  0
   -5.3942    1.5918    3.2597 H   0  0  0  0  0  0  0  0  0  0  0  0
    0.7485   -1.1202   -1.0145 H   0  0  0  0  0  0  0  0  0  0  0  0
    1.8557    2.7308    0.6540 H   0  0  0  0  0  0  0  0  0  0  0  0
    2.9580   -0.6316   -0.4898 H   0  0  0  0  0  0  0  0  0  0  0  0
    6.1747    1.4364    1.7651 H   0  0  0  0  0  0  0  0  0  0  0  0
    4.6377   -0.9502   -1.5073 H   0  0  0  0  0  0  0  0  0  0  0  0
    8.3084    0.2455    1.6092 H   0  0  0  0  0  0  0  0  0  0  0  0
    6.7443   -2.1430   -1.6265 H   0  0  0  0  0  0  0  0  0  0  0  0
  1 11  1  0  0  0  0
  1 18  1  0  0  0  0
  2 15  1  0  0  0  0
  2 16  1  0  0  0  0
  3 17  1  0  0  0  0
  3 50  1  0  0  0  0
  4 14  2  0  0  0  0
  5 25  2  0  0  0  0
  6  9  1  0  0  0  0
  6 10  1  0  0  0  0
  6 14  1  0  0  0  0
  7 24  1  0  0  0  0
  7 25  1  0  0  0  0
  7 53  1  0  0  0  0
  8 32  3  0  0  0  0
  9 12  1  0  0  0  0
  9 13  1  0  0  0  0
  9 33  1  0  0  0  0
 10 11  1  0  0  0  0
 10 17  1  0  0  0  0
 10 34  1  0  0  0  0
 11 19  1  0  0  0  0
 11 35  1  0  0  0  0
 12 15  1  0  0  0  0
 12 36  1  0  0  0  0
 12 37  1  0  0  0  0
 13 16  1  0  0  0  0
 13 38  1  0  0  0  0
 13 39  1  0  0  0  0
 14 18  1  0  0  0  0
 15 40  1  0  0  0  0
 15 41  1  0  0  0  0
 16 42  1  0  0  0  0
 16 43  1  0  0  0  0
 17 44  1  0  0  0  0
 17 45  1  0  0  0  0
 18 46  1  0  0  0  0
 18 47  1  0  0  0  0
 19 20  2  0  0  0  0
 19 21  1  0  0  0  0
 20 22  1  0  0  0  0
 20 48  1  0  0  0  0
 21 23  2  0  0  0  0
 21 49  1  0  0  0  0
 22 24  2  0  0  0  0
 22 51  1  0  0  0  0
 23 24  1  0  0  0  0
 23 52  1  0  0  0  0
 25 26  1  0  0  0  0
 26 27  2  0  0  0  0
 26 28  1  0  0  0  0
 27 29  1  0  0  0  0
 27 54  1  0  0  0  0
 28 30  2  0  0  0  0
 28 55  1  0  0  0  0
 29 31  2  0  0  0  0
 29 56  1  0  0  0  0
 30 31  1  0  0  0  0
 30 57  1  0  0  0  0
 31 32  1  0  0  0  0
M  END
> <PUBCHEM_COMPOUND_CID>
71693707

> <PUBCHEM_CONFORMER_RMSD>
1

> <PUBCHEM_CONFORMER_DIVERSEORDER>
1
10
4
8
6
2
7
11
9
5
3

> <PUBCHEM_MMFF94_PARTIAL_CHARGES>
40
1 -0.56
10 0.3
11 0.42
14 0.57
15 0.28
16 0.28
17 0.28
18 0.34
19 -0.14
2 -0.56
20 -0.15
21 -0.15
22 -0.15
23 -0.15
24 0.12
25 0.54
26 0.09
27 -0.15
28 -0.15
29 -0.15
3 -0.68
30 -0.15
31 0.07
32 0.48
4 -0.57
48 0.15
49 0.15
5 -0.57
50 0.4
51 0.15
52 0.15
53 0.37
54 0.15
55 0.15
56 0.15
57 0.15
6 -0.66
7 -0.55
8 -0.56
9 0.3

> <PUBCHEM_EFFECTIVE_ROTOR_COUNT>
8.2

> <PUBCHEM_PHARMACOPHORE_FEATURES>
12
1 1 acceptor
1 2 acceptor
1 3 acceptor
1 3 donor
1 4 acceptor
1 5 acceptor
1 7 donor
1 8 acceptor
6 1 6 10 11 14 18 rings
6 19 20 21 22 23 24 rings
6 2 9 12 13 15 16 rings
6 26 27 28 29 30 31 rings

> <PUBCHEM_HEAVY_ATOM_COUNT>
32

> <PUBCHEM_ATOM_DEF_STEREO_COUNT>
2

> <PUBCHEM_ATOM_UDEF_STEREO_COUNT>
0

> <PUBCHEM_BOND_DEF_STEREO_COUNT>
0

> <PUBCHEM_BOND_UDEF_STEREO_COUNT>
0

> <PUBCHEM_ISOTOPIC_ATOM_COUNT>
0

> <PUBCHEM_COMPONENT_COUNT>
1

> <PUBCHEM_CACTVS_TAUTO_COUNT>
4

> <PUBCHEM_CONFORMER_ID>
0445F58B00000001

> <PUBCHEM_MMFF94_ENERGY>
95.7105

> <PUBCHEM_FEATURE_SELFOVERLAP>
60.901

> <PUBCHEM_SHAPE_FINGERPRINT>
10391435 84 18339066181688225856
10554248 39 14707198886981688592
10677351 14 18187086170091478244
11135926 11 18334854983608680471
11315181 36 17560794420993284453
11607047 191 17842858633632843361
11963148 33 18261385608399511242
125118 31 10663810894094746874
12522641 68 17318149642210377493
12643181 29 18408601444749616607
12988421 55 13470695819450889333
13383665 225 11095605663374320010
13627175 4 17822010904720609618
13690498 29 17894625968275542677
13782708 43 18407758153611969696
13911987 19 13190330279973697921
14178184 131 18201996677051103502
14344974 204 18271246144050920318
14556957 393 15285640967085001286
15152005 1 18048320239029603499
15183329 4 14129055911583578440
15352257 5 18411419488894315126
15419008 91 18191000427181610308
16114785 44 18125444103981415857
16994733 274 11167940265058402750
17093844 174 16271640092419882009
17627616 140 18040987393898281499
17780758 139 18202569492949740833
18608769 82 18411981352379032262
18643901 69 18113617902824738135
18927931 339 17894632543844300237
2026 5 18411134749236603135
21424621 283 10952059956620372508
21781051 124 18271818934549058358
22899556 105 17531517815391558931
23522609 53 18047789045900435788
23559900 14 18338223959823674121
3383291 50 18411136969818974594
397830 11 18340476885488308560
4073 2 18342176644079902020
4169191 19 10663809776996879738
445580 160 18408881841146515959
44802255 64 17023452042475557023
484985 159 18411984685463350355
5104073 3 17988927798971444152
54039377 194 17894921758468064443
54583773 228 18335427915925824492
5718773 13 18265895950924738251
58083652 198 16271630252792199896
58260988 114 18336837472161965075
58902169 19 17022626356187375454
5937810 71 11602815779065187278
636775 72 9727630601226850018
636775 8 18410864240186352222
6441014 3 17906452482606201827
9953998 17 18131637759852694137
999808 66 18272932730409547510

> <PUBCHEM_SHAPE_MULTIPOLES>
614.26
25.75
3.4
1.43
53.19
2.47
-0.16
20.46
-2.12
-5.36
-0.29
-2.46
-0.53
1.8

> <PUBCHEM_SHAPE_SELFOVERLAP>
1320.903

> <PUBCHEM_SHAPE_VOLUME>
331

> <PUBCHEM_COORDINATE_TYPE>
2
5
10

$$$$
