11911715
  -OEChem-12032416383D

 64 68  0     1  0  0  0  0  0999 V2000
   -1.2010    4.1022    0.9973 O   0  0  0  0  0  0  0  0  0  0  0  0
   -0.3686    1.2364    1.9088 O   0  0  0  0  0  0  0  0  0  0  0  0
   -5.1386    1.1035    1.9901 O   0  0  0  0  0  0  0  0  0  0  0  0
   -6.6843   -3.4959   -2.0226 O   0  0  0  0  0  0  0  0  0  0  0  0
    1.3362    3.2932   -0.5796 N   0  0  0  0  0  0  0  0  0  0  0  0
   -3.2212    1.0683    0.6860 N   0  0  0  0  0  0  0  0  0  0  0  0
    2.8059    1.4648   -0.6369 N   0  0  0  0  0  0  0  0  0  0  0  0
    2.6382    2.9765   -2.5060 N   0  0  0  0  0  0  0  0  0  0  0  0
    5.8238   -3.7517    1.3292 N   0  0  0  0  0  0  0  0  0  0  0  0
   -0.2477    1.9475    0.6653 C   0  0  1  0  0  0  0  0  0  0  0  0
   -1.5004    2.7862    0.5030 C   0  0  1  0  0  0  0  0  0  0  0  0
    0.8681    2.9622    0.7485 C   0  0  2  0  0  0  0  0  0  0  0  0
   -2.5152    2.1080    1.3948 C   0  0  2  0  0  0  0  0  0  0  0  0
    0.1818    4.1609    1.3772 C   0  0  0  0  0  0  0  0  0  0  0  0
   -1.6448    1.5298    2.4964 C   0  0  0  0  0  0  0  0  0  0  0  0
    2.2883    2.5561   -1.2612 C   0  0  0  0  0  0  0  0  0  0  0  0
   -4.4925    0.6483    1.0500 C   0  0  0  0  0  0  0  0  0  0  0  0
   -5.0723   -0.4506    0.2355 C   0  0  0  0  0  0  0  0  0  0  0  0
    3.7315    0.7697   -1.3299 C   0  0  0  0  0  0  0  0  0  0  0  0
   -6.0056   -1.2861    0.8133 C   0  0  0  0  0  0  0  0  0  0  0  0
   -4.6601   -0.6004   -1.0725 C   0  0  0  0  0  0  0  0  0  0  0  0
    3.5690    2.2349   -3.1417 C   0  0  0  0  0  0  0  0  0  0  0  0
    4.1559    1.1108   -2.5979 C   0  0  0  0  0  0  0  0  0  0  0  0
    4.2669   -0.3852   -0.6495 C   0  0  0  0  0  0  0  0  0  0  0  0
   -6.5510   -2.3178    0.0489 C   0  0  0  0  0  0  0  0  0  0  0  0
   -5.2055   -1.6319   -1.8368 C   0  0  0  0  0  0  0  0  0  0  0  0
   -6.1509   -2.4905   -1.2762 C   0  0  0  0  0  0  0  0  0  0  0  0
    3.4794   -1.0864    0.2664 C   0  0  0  0  0  0  0  0  0  0  0  0
    5.5735   -0.8069   -0.9057 C   0  0  0  0  0  0  0  0  0  0  0  0
    3.9959   -2.2036    0.9228 C   0  0  0  0  0  0  0  0  0  0  0  0
    6.0898   -1.9241   -0.2494 C   0  0  0  0  0  0  0  0  0  0  0  0
    5.3012   -2.6224    0.6649 C   0  0  0  0  0  0  0  0  0  0  0  0
   -7.6471   -4.3358   -1.3876 C   0  0  0  0  0  0  0  0  0  0  0  0
    5.3761   -4.0891    2.6657 C   0  0  0  0  0  0  0  0  0  0  0  0
    6.8255   -4.5810    0.6895 C   0  0  0  0  0  0  0  0  0  0  0  0
   -0.1324    1.1996   -0.1258 H   0  0  0  0  0  0  0  0  0  0  0  0
   -1.8154    2.8909   -0.5402 H   0  0  0  0  0  0  0  0  0  0  0  0
    1.7023    2.6499    1.3873 H   0  0  0  0  0  0  0  0  0  0  0  0
   -3.2466    2.8066    1.8155 H   0  0  0  0  0  0  0  0  0  0  0  0
    0.2190    4.1030    2.4707 H   0  0  0  0  0  0  0  0  0  0  0  0
    0.6005    5.1247    1.0713 H   0  0  0  0  0  0  0  0  0  0  0  0
   -2.0500    0.6215    2.9527 H   0  0  0  0  0  0  0  0  0  0  0  0
   -1.4751    2.2671    3.2888 H   0  0  0  0  0  0  0  0  0  0  0  0
    0.9195    4.0735   -1.0747 H   0  0  0  0  0  0  0  0  0  0  0  0
   -2.7034    0.5680   -0.0290 H   0  0  0  0  0  0  0  0  0  0  0  0
   -6.3233   -1.1675    1.8450 H   0  0  0  0  0  0  0  0  0  0  0  0
   -3.9535    0.0665   -1.5556 H   0  0  0  0  0  0  0  0  0  0  0  0
    3.8343    2.5779   -4.1360 H   0  0  0  0  0  0  0  0  0  0  0  0
    4.8798    0.5485   -3.1736 H   0  0  0  0  0  0  0  0  0  0  0  0
   -7.2794   -2.9486    0.5470 H   0  0  0  0  0  0  0  0  0  0  0  0
   -4.8961   -1.7571   -2.8710 H   0  0  0  0  0  0  0  0  0  0  0  0
    2.4537   -0.7945    0.4804 H   0  0  0  0  0  0  0  0  0  0  0  0
    6.2314   -0.2764   -1.5890 H   0  0  0  0  0  0  0  0  0  0  0  0
    3.3513   -2.7336    1.6182 H   0  0  0  0  0  0  0  0  0  0  0  0
    7.1156   -2.2138   -0.4595 H   0  0  0  0  0  0  0  0  0  0  0  0
   -7.9652   -5.0787   -2.1262 H   0  0  0  0  0  0  0  0  0  0  0  0
   -7.2092   -4.8867   -0.5483 H   0  0  0  0  0  0  0  0  0  0  0  0
   -8.5403   -3.7738   -1.0944 H   0  0  0  0  0  0  0  0  0  0  0  0
    6.0874   -4.7572    3.1641 H   0  0  0  0  0  0  0  0  0  0  0  0
    5.2872   -3.1972    3.2961 H   0  0  0  0  0  0  0  0  0  0  0  0
    4.4097   -4.6031    2.6330 H   0  0  0  0  0  0  0  0  0  0  0  0
    7.8175   -4.1244    0.7714 H   0  0  0  0  0  0  0  0  0  0  0  0
    6.8780   -5.5697    1.1591 H   0  0  0  0  0  0  0  0  0  0  0  0
    6.5930   -4.7476   -0.3684 H   0  0  0  0  0  0  0  0  0  0  0  0
  1 11  1  0  0  0  0
  1 14  1  0  0  0  0
  2 10  1  0  0  0  0
  2 15  1  0  0  0  0
  3 17  2  0  0  0  0
  4 27  1  0  0  0  0
  4 33  1  0  0  0  0
  5 12  1  0  0  0  0
  5 16  1  0  0  0  0
  5 44  1  0  0  0  0
  6 13  1  0  0  0  0
  6 17  1  0  0  0  0
  6 45  1  0  0  0  0
  7 16  1  0  0  0  0
  7 19  2  0  0  0  0
  8 16  2  0  0  0  0
  8 22  1  0  0  0  0
  9 32  1  0  0  0  0
  9 34  1  0  0  0  0
  9 35  1  0  0  0  0
 10 11  1  0  0  0  0
 10 12  1  0  0  0  0
 10 36  1  0  0  0  0
 11 13  1  0  0  0  0
 11 37  1  0  0  0  0
 12 14  1  0  0  0  0
 12 38  1  0  0  0  0
 13 15  1  0  0  0  0
 13 39  1  0  0  0  0
 14 40  1  0  0  0  0
 14 41  1  0  0  0  0
 15 42  1  0  0  0  0
 15 43  1  0  0  0  0
 17 18  1  0  0  0  0
 18 20  2  0  0  0  0
 18 21  1  0  0  0  0
 19 23  1  0  0  0  0
 19 24  1  0  0  0  0
 20 25  1  0  0  0  0
 20 46  1  0  0  0  0
 21 26  2  0  0  0  0
 21 47  1  0  0  0  0
 22 23  2  0  0  0  0
 22 48  1  0  0  0  0
 23 49  1  0  0  0  0
 24 28  2  0  0  0  0
 24 29  1  0  0  0  0
 25 27  2  0  0  0  0
 25 50  1  0  0  0  0
 26 27  1  0  0  0  0
 26 51  1  0  0  0  0
 28 30  1  0  0  0  0
 28 52  1  0  0  0  0
 29 31  2  0  0  0  0
 29 53  1  0  0  0  0
 30 32  2  0  0  0  0
 30 54  1  0  0  0  0
 31 32  1  0  0  0  0
 31 55  1  0  0  0  0
 33 56  1  0  0  0  0
 33 57  1  0  0  0  0
 33 58  1  0  0  0  0
 34 59  1  0  0  0  0
 34 60  1  0  0  0  0
 34 61  1  0  0  0  0
 35 62  1  0  0  0  0
 35 63  1  0  0  0  0
 35 64  1  0  0  0  0
M  END
> <PUBCHEM_COMPOUND_CID>
11911715

> <PUBCHEM_CONFORMER_RMSD>
1

> <PUBCHEM_CONFORMER_DIVERSEORDER>
1
77
55
18
42
66
5
78
31
84
70
41
43
51
49
16
87
28
63
73
35
96
21
8
90
26
36
19
79
47
22
62
71
40
67
59
37
94
91
95
74
57
7
6
46
48
34
99
101
9
30
92
80
81
85
76
52
72
65
24
32
100
60
17
82
75
4
11
12
89
98
27
83
93
88
54
68
33
45
53
13
3
38
25
29
58
56
61
20
64
39
44
14
10
69
97
23
86
50
2
15

> <PUBCHEM_MMFF94_PARTIAL_CHARGES>
46
1 -0.56
10 0.28
11 0.28
12 0.37
13 0.3
14 0.28
15 0.28
16 0.72
17 0.54
18 0.09
19 0.31
2 -0.56
20 -0.15
21 -0.15
22 0.16
23 -0.15
25 -0.15
26 -0.15
27 0.08
28 -0.15
29 -0.15
3 -0.57
30 -0.15
31 -0.15
32 0.1
33 0.28
34 0.37
35 0.37
4 -0.36
44 0.4
45 0.37
46 0.15
47 0.15
48 0.15
49 0.15
5 -0.87
50 0.15
51 0.15
52 0.15
53 0.15
54 0.15
55 0.15
6 -0.73
7 -0.62
8 -0.62
9 -0.84

> <PUBCHEM_EFFECTIVE_ROTOR_COUNT>
9.2

> <PUBCHEM_PHARMACOPHORE_FEATURES>
14
1 1 acceptor
1 2 acceptor
1 3 acceptor
1 4 acceptor
1 5 donor
1 6 donor
1 7 acceptor
1 9 cation
4 5 7 8 16 cation
5 1 10 11 12 14 rings
5 2 10 11 13 15 rings
6 18 20 21 25 26 27 rings
6 24 28 29 30 31 32 rings
6 7 8 16 19 22 23 rings

> <PUBCHEM_HEAVY_ATOM_COUNT>
35

> <PUBCHEM_ATOM_DEF_STEREO_COUNT>
4

> <PUBCHEM_ATOM_UDEF_STEREO_COUNT>
0

> <PUBCHEM_BOND_DEF_STEREO_COUNT>
0

> <PUBCHEM_BOND_UDEF_STEREO_COUNT>
0

> <PUBCHEM_ISOTOPIC_ATOM_COUNT>
0

> <PUBCHEM_COMPONENT_COUNT>
1

> <PUBCHEM_CACTVS_TAUTO_COUNT>
6

> <PUBCHEM_CONFORMER_ID>
00B5C22300000001

> <PUBCHEM_MMFF94_ENERGY>
132.029

> <PUBCHEM_FEATURE_SELFOVERLAP>
71.755

> <PUBCHEM_SHAPE_FINGERPRINT>
10622 236 18261958431964780672
11069576 57 18187942672411611212
11135609 149 18261662740241022236
11135926 11 17389140903854599052
11227150 75 18261939783217457282
11478447 58 18052244386980181135
11497681 19 18265055731326641470
11607047 403 18198327645946752592
11828042 279 16661797418383845966
11828042 38 17895198865347914163
12166972 35 18260266334940760958
12559416 138 18042980778842001130
12977781 61 18124282026531109913
131258 38 18195234736353094206
14040221 275 15625929925410773686
14068700 675 18338796702512864768
14340393 91 17822836595024164167
15320294 125 18123765157909093465
15419009 47 17752195094364055349
15968369 26 17828479498681932816
17324776 126 18263355906812905194
19303781 99 18115031796783442674
19304671 126 15792012328747816901
19315092 285 18335704957188062940
19319366 153 18120381105884163844
19841028 212 17557703853512901903
20156587 161 18189881037859860274
20775438 99 18117271665130415946
208703 8 18201442497071980999
21458453 9 15338818890133364980
21585483 132 18411414055328545815
21792938 131 18128813222531177699
25025965 108 17390500802275632458
25222932 49 18130228276014247388
4015057 19 17749968720429447976
4017518 198 16968579586776861108
4112364 45 9511198369176646043
439807 62 18409173242620582095
50009960 94 18058712672103681490
57527295 17 18268165295258263529
59025328 239 17749395832544397636
6058803 2 18193302739952929620
6201460 15 18338516318126544435
6636735 143 14549025364760893183
6677587 24 16736931650801055028
6691757 9 17696194703344783168
96874 4 18411979148201343135

> <PUBCHEM_SHAPE_MULTIPOLES>
671.9
20.42
6.7
2.66
15.76
2.49
-0.76
34.16
-4.35
-3.13
1.23
-1.02
-0.63
-9.77

> <PUBCHEM_SHAPE_SELFOVERLAP>
1465.418

> <PUBCHEM_SHAPE_VOLUME>
365.5

> <PUBCHEM_COORDINATE_TYPE>
2
5
10

$$$$
