40780082
  -OEChem-12032416163D

 69 73  0     1  0  0  0  0  0999 V2000
   -1.2608   -2.1019   -0.2435 O   0  0  0  0  0  0  0  0  0  0  0  0
   -2.4251   -1.3001    1.5540 O   0  0  0  0  0  0  0  0  0  0  0  0
   -8.2233    1.2834    0.0490 O   0  0  0  0  0  0  0  0  0  0  0  0
    2.0003   -3.6822    0.5948 N   0  0  2  0  0  0  0  0  0  0  0  0
    4.8317    0.1305    0.9115 N   0  0  0  0  0  0  0  0  0  0  0  0
    4.8100    1.4708    1.0085 N   0  0  0  0  0  0  0  0  0  0  0  0
   -3.2804   -1.1821   -0.6219 N   0  0  0  0  0  0  0  0  0  0  0  0
    2.9711   -2.3274   -1.4064 C   0  0  2  0  0  0  0  0  0  0  0  0
    3.6306   -1.8767   -0.0736 C   0  0  2  0  0  0  0  0  0  0  0  0
    1.4405   -2.1620   -1.2996 C   0  0  0  0  0  0  0  0  0  0  0  0
    0.8934   -3.1353   -0.2334 C   0  0  2  0  0  0  0  0  0  0  0  0
    2.8632   -2.5779    1.0835 C   0  0  0  0  0  0  0  0  0  0  0  0
    3.2549   -3.8375   -1.5551 C   0  0  0  0  0  0  0  0  0  0  0  0
    2.8216   -4.5635   -0.2694 C   0  0  0  0  0  0  0  0  0  0  0  0
    3.8082   -0.3852    0.1719 C   0  0  0  0  0  0  0  0  0  0  0  0
   -0.2063   -2.4926    0.6146 C   0  0  0  0  0  0  0  0  0  0  0  0
    3.0651    0.6926   -0.2436 C   0  0  0  0  0  0  0  0  0  0  0  0
    3.7286    1.8085    0.3008 C   0  0  0  0  0  0  0  0  0  0  0  0
    3.3459    3.2706    0.1609 C   0  0  0  0  0  0  0  0  0  0  0  0
    1.9715    3.5645    0.7873 C   0  0  0  0  0  0  0  0  0  0  0  0
    3.3945    3.7385   -1.3042 C   0  0  0  0  0  0  0  0  0  0  0  0
    1.5994    5.0400    0.6504 C   0  0  0  0  0  0  0  0  0  0  0  0
    3.0168    5.2133   -1.4323 C   0  0  0  0  0  0  0  0  0  0  0  0
    5.8852   -0.6071    1.5692 C   0  0  0  0  0  0  0  0  0  0  0  0
    1.6577    5.5032   -0.8023 C   0  0  0  0  0  0  0  0  0  0  0  0
   -2.3491   -1.4992    0.3477 C   0  0  0  0  0  0  0  0  0  0  0  0
   -4.5359   -0.5558   -0.4511 C   0  0  0  0  0  0  0  0  0  0  0  0
   -5.3502   -0.3134   -1.5574 C   0  0  0  0  0  0  0  0  0  0  0  0
   -4.9609   -0.1803    0.8233 C   0  0  0  0  0  0  0  0  0  0  0  0
   -6.5892    0.3048   -1.3893 C   0  0  0  0  0  0  0  0  0  0  0  0
   -6.1999    0.4379    0.9914 C   0  0  0  0  0  0  0  0  0  0  0  0
   -7.0140    0.6804   -0.1149 C   0  0  0  0  0  0  0  0  0  0  0  0
   -8.5951    1.6411    1.3793 C   0  0  0  0  0  0  0  0  0  0  0  0
    3.3659   -1.7684   -2.2614 H   0  0  0  0  0  0  0  0  0  0  0  0
    4.6466   -2.2989   -0.0956 H   0  0  0  0  0  0  0  0  0  0  0  0
    1.1655   -1.1310   -1.0726 H   0  0  0  0  0  0  0  0  0  0  0  0
    0.9836   -2.3984   -2.2691 H   0  0  0  0  0  0  0  0  0  0  0  0
    0.4131   -3.9713   -0.7633 H   0  0  0  0  0  0  0  0  0  0  0  0
    3.5890   -2.9890    1.7975 H   0  0  0  0  0  0  0  0  0  0  0  0
    2.2739   -1.8626    1.6687 H   0  0  0  0  0  0  0  0  0  0  0  0
    4.3216   -4.0108   -1.7391 H   0  0  0  0  0  0  0  0  0  0  0  0
    2.7080   -4.2365   -2.4181 H   0  0  0  0  0  0  0  0  0  0  0  0
    2.2573   -5.4688   -0.5251 H   0  0  0  0  0  0  0  0  0  0  0  0
    3.7017   -4.9129    0.2853 H   0  0  0  0  0  0  0  0  0  0  0  0
    0.1635   -1.6108    1.1494 H   0  0  0  0  0  0  0  0  0  0  0  0
   -0.5827   -3.2176    1.3467 H   0  0  0  0  0  0  0  0  0  0  0  0
    2.1794    0.6987   -0.8586 H   0  0  0  0  0  0  0  0  0  0  0  0
    4.0901    3.8609    0.7163 H   0  0  0  0  0  0  0  0  0  0  0  0
    1.1966    2.9528    0.3070 H   0  0  0  0  0  0  0  0  0  0  0  0
    1.9746    3.2872    1.8488 H   0  0  0  0  0  0  0  0  0  0  0  0
    4.3997    3.5834   -1.7155 H   0  0  0  0  0  0  0  0  0  0  0  0
    2.7101    3.1381   -1.9175 H   0  0  0  0  0  0  0  0  0  0  0  0
    2.2845    5.6467    1.2552 H   0  0  0  0  0  0  0  0  0  0  0  0
    0.5918    5.2037    1.0490 H   0  0  0  0  0  0  0  0  0  0  0  0
    3.0006    5.4982   -2.4903 H   0  0  0  0  0  0  0  0  0  0  0  0
    3.7836    5.8298   -0.9471 H   0  0  0  0  0  0  0  0  0  0  0  0
    6.5101   -1.0736    0.8039 H   0  0  0  0  0  0  0  0  0  0  0  0
    6.4891    0.0786    2.1699 H   0  0  0  0  0  0  0  0  0  0  0  0
    5.4355   -1.3595    2.2205 H   0  0  0  0  0  0  0  0  0  0  0  0
    0.8735    4.9964   -1.3781 H   0  0  0  0  0  0  0  0  0  0  0  0
    1.4488    6.5776   -0.8551 H   0  0  0  0  0  0  0  0  0  0  0  0
   -3.0357   -1.4282   -1.5779 H   0  0  0  0  0  0  0  0  0  0  0  0
   -5.0311   -0.6010   -2.5559 H   0  0  0  0  0  0  0  0  0  0  0  0
   -4.3844   -0.3362    1.7247 H   0  0  0  0  0  0  0  0  0  0  0  0
   -7.2193    0.4912   -2.2548 H   0  0  0  0  0  0  0  0  0  0  0  0
   -6.4690    0.7039    2.0081 H   0  0  0  0  0  0  0  0  0  0  0  0
   -9.5837    2.1087    1.3237 H   0  0  0  0  0  0  0  0  0  0  0  0
   -7.9124    2.3864    1.8013 H   0  0  0  0  0  0  0  0  0  0  0  0
   -8.6946    0.7587    2.0204 H   0  0  0  0  0  0  0  0  0  0  0  0
  1 16  1  0  0  0  0
  1 26  1  0  0  0  0
  2 26  2  0  0  0  0
  3 32  1  0  0  0  0
  3 33  1  0  0  0  0
  4 11  1  0  0  0  0
  4 12  1  0  0  0  0
  4 14  1  0  0  0  0
  5  6  1  0  0  0  0
  5 15  1  0  0  0  0
  5 24  1  0  0  0  0
  6 18  2  0  0  0  0
  7 26  1  0  0  0  0
  7 27  1  0  0  0  0
  7 62  1  0  0  0  0
  8  9  1  0  0  0  0
  8 10  1  0  0  0  0
  8 13  1  0  0  0  0
  8 34  1  0  0  0  0
  9 12  1  0  0  0  0
  9 15  1  0  0  0  0
  9 35  1  0  0  0  0
 10 11  1  0  0  0  0
 10 36  1  0  0  0  0
 10 37  1  0  0  0  0
 11 16  1  0  0  0  0
 11 38  1  0  0  0  0
 12 39  1  0  0  0  0
 12 40  1  0  0  0  0
 13 14  1  0  0  0  0
 13 41  1  0  0  0  0
 13 42  1  0  0  0  0
 14 43  1  0  0  0  0
 14 44  1  0  0  0  0
 15 17  2  0  0  0  0
 16 45  1  0  0  0  0
 16 46  1  0  0  0  0
 17 18  1  0  0  0  0
 17 47  1  0  0  0  0
 18 19  1  0  0  0  0
 19 20  1  0  0  0  0
 19 21  1  0  0  0  0
 19 48  1  0  0  0  0
 20 22  1  0  0  0  0
 20 49  1  0  0  0  0
 20 50  1  0  0  0  0
 21 23  1  0  0  0  0
 21 51  1  0  0  0  0
 21 52  1  0  0  0  0
 22 25  1  0  0  0  0
 22 53  1  0  0  0  0
 22 54  1  0  0  0  0
 23 25  1  0  0  0  0
 23 55  1  0  0  0  0
 23 56  1  0  0  0  0
 24 57  1  0  0  0  0
 24 58  1  0  0  0  0
 24 59  1  0  0  0  0
 25 60  1  0  0  0  0
 25 61  1  0  0  0  0
 27 28  2  0  0  0  0
 27 29  1  0  0  0  0
 28 30  1  0  0  0  0
 28 63  1  0  0  0  0
 29 31  2  0  0  0  0
 29 64  1  0  0  0  0
 30 32  2  0  0  0  0
 30 65  1  0  0  0  0
 31 32  1  0  0  0  0
 31 66  1  0  0  0  0
 33 67  1  0  0  0  0
 33 68  1  0  0  0  0
 33 69  1  0  0  0  0
M  END
> <PUBCHEM_COMPOUND_CID>
40780082

> <PUBCHEM_CONFORMER_RMSD>
1

> <PUBCHEM_CONFORMER_DIVERSEORDER>
1
4
29
43
134
93
32
11
136
130
52
126
38
58
39
90
116
117
27
19
41
115
132
12
122
121
91
79
63
18
34
30
125
87
81
124
101
45
71
2
10
64
60
35
133
139
86
140
24
57
137
47
80
118
97
28
72
44
85
88
114
49
65
83
77
84
76
107
13
75
67
104
62
7
89
131
109
23
42
33
20
129
14
119
74
5
48
94
16
54
82
6
128
70
50
46
111
68
59
92
26
55
99
69
37
8
36
127
103
138
110
113
22
105
135
120
98
31
66
56
51
96
78
95
25
3
9
53
21
123
40
17
61
100
102
108
112
106
73
15

> <PUBCHEM_MMFF94_PARTIAL_CHARGES>
31
1 -0.43
11 0.27
12 0.27
14 0.27
15 -0.33
16 0.28
17 -0.15
18 0.11
19 0.18
2 -0.57
24 0.26
26 0.78
27 0.12
28 -0.15
29 -0.15
3 -0.36
30 -0.15
31 -0.15
32 0.08
33 0.28
4 -0.81
47 0.15
5 0.31
6 -0.71
62 0.37
63 0.15
64 0.15
65 0.15
66 0.15
7 -0.55
9 0.18

> <PUBCHEM_EFFECTIVE_ROTOR_COUNT>
10.4

> <PUBCHEM_PHARMACOPHORE_FEATURES>
9
1 2 acceptor
1 3 acceptor
1 4 cation
1 6 acceptor
1 7 donor
5 5 6 15 17 18 rings
6 19 20 21 22 23 25 rings
6 27 28 29 30 31 32 rings
8 4 8 9 10 11 12 13 14 rings

> <PUBCHEM_HEAVY_ATOM_COUNT>
33

> <PUBCHEM_ATOM_DEF_STEREO_COUNT>
3

> <PUBCHEM_ATOM_UDEF_STEREO_COUNT>
0

> <PUBCHEM_BOND_DEF_STEREO_COUNT>
0

> <PUBCHEM_BOND_UDEF_STEREO_COUNT>
0

> <PUBCHEM_ISOTOPIC_ATOM_COUNT>
0

> <PUBCHEM_COMPONENT_COUNT>
1

> <PUBCHEM_CACTVS_TAUTO_COUNT>
2

> <PUBCHEM_CONFORMER_ID>
026E413200000001

> <PUBCHEM_MMFF94_ENERGY>
81.6602

> <PUBCHEM_FEATURE_SELFOVERLAP>
45.672

> <PUBCHEM_SHAPE_FINGERPRINT>
10675989 125 18341333382907163760
10811444 77 18337383933198262789
10842077 115 16335257057766754425
10937287 8 17978790434970216246
10951579 204 16245483106360611236
11059048 146 17762059139546719012
11059845 2 17548108470997504896
11273773 38 18337394962895980964
11456790 92 17968652701370174427
13944108 23 18408612461024992972
14117953 113 18412827993311816076
14251764 75 18192717971200894181
15183329 4 16128369347361252555
15320295 198 18187925037513524245
15320295 44 18059565953921588647
15400415 2 17977665634702712917
15419008 47 17823419297184240727
15483637 11 17906168447654149232
155225 5 16535953174538321612
16087824 20 18409728461675549296
16988056 13 18411709764153085662
17899979 129 18336834215860219528
19302320 297 18408604768627230801
20715895 44 18413103987456758538
21298829 104 18273210910993536953
21857420 4 18339378392004795444
21860390 5 18343306972456879462
21987440 362 17976270354742016884
3103668 31 17548146528354294982
376196 1 18118683455393388378
394071 54 18410856542924196043
397830 11 18262250988717440019
4173938 77 18270134421999140303
4408954 64 17389639931524502514
4435113 14 17822865289843775089
4487111 67 16680909471766142873
4760202 170 18265037052424402277
5109719 28 18336276742553785147
53794403 172 18336833103288674989
550186 72 17113257200799613503
58902169 19 18060129908923451367
60111433 81 17488162971842874688
6609424 69 18053656984985811830

> <PUBCHEM_SHAPE_MULTIPOLES>
641.59
18.22
7.69
1.49
51.31
8.3
0.17
6.9
-3.18
-13.79
2.12
0.03
0.05
-0.82

> <PUBCHEM_SHAPE_SELFOVERLAP>
1366.417

> <PUBCHEM_SHAPE_VOLUME>
353.2

> <PUBCHEM_COORDINATE_TYPE>
2
5
10

$$$$
