11882933
  -OEChem-12032416123D

 78 81  0     1  0  0  0  0  0999 V2000
   -0.1634    2.4503   -0.4990 S   0  0  0  0  0  0  0  0  0  0  0  0
   -7.7366    0.4226   -0.9002 O   0  0  0  0  0  0  0  0  0  0  0  0
   -7.3120    2.6876   -0.2415 O   0  0  0  0  0  0  0  0  0  0  0  0
    0.4889   -2.1926    2.1549 O   0  0  0  0  0  0  0  0  0  0  0  0
    2.9183   -0.7970    0.7781 O   0  0  0  0  0  0  0  0  0  0  0  0
    8.4168    2.0554   -0.1671 O   0  0  0  0  0  0  0  0  0  0  0  0
    0.1072    0.0320    0.3793 N   0  0  0  0  0  0  0  0  0  0  0  0
   -0.6269   -3.1852    0.3741 N   0  0  0  0  0  0  0  0  0  0  0  0
    2.1314    1.2856    0.0044 N   0  0  0  0  0  0  0  0  0  0  0  0
    2.4071   -4.0214   -1.6176 N   0  0  0  0  0  0  0  0  0  0  0  0
   -3.7296   -0.1333    0.7255 C   0  0  2  0  0  0  0  0  0  0  0  0
   -3.9614    0.8594   -0.4977 C   0  0  1  0  0  0  0  0  0  0  0  0
   -5.4476    1.2987   -0.7914 C   0  0  1  0  0  0  0  0  0  0  0  0
   -2.2749   -0.7761    0.5699 C   0  0  1  0  0  0  0  0  0  0  0  0
   -4.7771   -1.2754    0.6686 C   0  0  0  0  0  0  0  0  0  0  0  0
   -6.3668    0.0447   -0.7663 C   0  0  1  0  0  0  0  0  0  0  0  0
   -2.9518    2.0438   -0.4683 C   0  0  0  0  0  0  0  0  0  0  0  0
   -6.2099   -0.7902    0.4998 C   0  0  0  0  0  0  0  0  0  0  0  0
   -3.8367    0.5713    2.1004 C   0  0  0  0  0  0  0  0  0  0  0  0
   -1.2471    0.2795    0.2520 C   0  0  0  0  0  0  0  0  0  0  0  0
   -5.9889    2.3972    0.1500 C   0  0  0  0  0  0  0  0  0  0  0  0
   -5.5250    1.9001   -2.2233 C   0  0  0  0  0  0  0  0  0  0  0  0
   -1.5717    1.5314   -0.2298 C   0  0  0  0  0  0  0  0  0  0  0  0
   -1.8345   -1.6512    1.7511 C   0  0  0  0  0  0  0  0  0  0  0  0
   -0.5237   -2.3525    1.4788 C   0  0  0  0  0  0  0  0  0  0  0  0
    0.7735    1.1073    0.0188 C   0  0  0  0  0  0  0  0  0  0  0  0
    0.4735   -3.9802   -0.1209 C   0  0  0  0  0  0  0  0  0  0  0  0
    3.1065    0.3459    0.3760 C   0  0  0  0  0  0  0  0  0  0  0  0
    1.2870   -3.2132   -1.1530 C   0  0  0  0  0  0  0  0  0  0  0  0
    4.5153    0.7993    0.2314 C   0  0  0  0  0  0  0  0  0  0  0  0
    4.7913    2.1477    0.3152 C   0  0  0  0  0  0  0  0  0  0  0  0
    5.4986   -0.1433    0.0186 C   0  0  0  0  0  0  0  0  0  0  0  0
    3.1826   -3.2977   -2.6270 C   0  0  0  0  0  0  0  0  0  0  0  0
    3.2672   -4.4048   -0.4963 C   0  0  0  0  0  0  0  0  0  0  0  0
    6.1128    2.5733    0.1798 C   0  0  0  0  0  0  0  0  0  0  0  0
    6.8201    0.2822   -0.1167 C   0  0  0  0  0  0  0  0  0  0  0  0
    7.1272    1.6405   -0.0362 C   0  0  0  0  0  0  0  0  0  0  0  0
    8.6602    3.4582   -0.0744 C   0  0  0  0  0  0  0  0  0  0  0  0
   -3.6810    0.2602   -1.3814 H   0  0  0  0  0  0  0  0  0  0  0  0
   -2.3184   -1.3972   -0.3356 H   0  0  0  0  0  0  0  0  0  0  0  0
   -4.5433   -1.9463   -0.1687 H   0  0  0  0  0  0  0  0  0  0  0  0
   -4.7266   -1.8901    1.5749 H   0  0  0  0  0  0  0  0  0  0  0  0
   -6.1299   -0.6001   -1.6234 H   0  0  0  0  0  0  0  0  0  0  0  0
   -3.2085    2.7561    0.3228 H   0  0  0  0  0  0  0  0  0  0  0  0
   -2.9755    2.5841   -1.4204 H   0  0  0  0  0  0  0  0  0  0  0  0
   -6.8819   -1.6563    0.4439 H   0  0  0  0  0  0  0  0  0  0  0  0
   -6.5452   -0.2291    1.3791 H   0  0  0  0  0  0  0  0  0  0  0  0
   -3.7010   -0.1414    2.9214 H   0  0  0  0  0  0  0  0  0  0  0  0
   -4.8128    1.0167    2.2762 H   0  0  0  0  0  0  0  0  0  0  0  0
   -3.0862    1.3561    2.2298 H   0  0  0  0  0  0  0  0  0  0  0  0
   -6.0412    2.0788    1.1873 H   0  0  0  0  0  0  0  0  0  0  0  0
   -5.3992    3.3183    0.1096 H   0  0  0  0  0  0  0  0  0  0  0  0
   -5.0684    1.2229   -2.9548 H   0  0  0  0  0  0  0  0  0  0  0  0
   -6.5488    2.0815   -2.5646 H   0  0  0  0  0  0  0  0  0  0  0  0
   -4.9973    2.8575   -2.2882 H   0  0  0  0  0  0  0  0  0  0  0  0
   -1.6873   -1.0494    2.6555 H   0  0  0  0  0  0  0  0  0  0  0  0
   -2.5793   -2.4198    1.9819 H   0  0  0  0  0  0  0  0  0  0  0  0
   -7.8950    0.6548   -1.8300 H   0  0  0  0  0  0  0  0  0  0  0  0
   -7.2790    3.3714   -0.9316 H   0  0  0  0  0  0  0  0  0  0  0  0
   -1.5218   -3.2968   -0.0920 H   0  0  0  0  0  0  0  0  0  0  0  0
    2.4142    2.1898   -0.3600 H   0  0  0  0  0  0  0  0  0  0  0  0
    1.0601   -4.2672    0.7559 H   0  0  0  0  0  0  0  0  0  0  0  0
    0.0449   -4.8888   -0.5585 H   0  0  0  0  0  0  0  0  0  0  0  0
    1.6251   -2.2587   -0.7387 H   0  0  0  0  0  0  0  0  0  0  0  0
    0.6315   -2.9671   -1.9987 H   0  0  0  0  0  0  0  0  0  0  0  0
    4.0404    2.9025    0.5230 H   0  0  0  0  0  0  0  0  0  0  0  0
    5.2769   -1.2038   -0.0536 H   0  0  0  0  0  0  0  0  0  0  0  0
    3.6266   -2.3790   -2.2262 H   0  0  0  0  0  0  0  0  0  0  0  0
    2.5492   -3.0310   -3.4804 H   0  0  0  0  0  0  0  0  0  0  0  0
    3.9877   -3.9281   -3.0207 H   0  0  0  0  0  0  0  0  0  0  0  0
    3.5464   -3.5511    0.1317 H   0  0  0  0  0  0  0  0  0  0  0  0
    4.1952   -4.8583   -0.8664 H   0  0  0  0  0  0  0  0  0  0  0  0
    2.8090   -5.1806    0.1244 H   0  0  0  0  0  0  0  0  0  0  0  0
    6.2828    3.6414    0.2622 H   0  0  0  0  0  0  0  0  0  0  0  0
    7.6059   -0.4488   -0.2862 H   0  0  0  0  0  0  0  0  0  0  0  0
    9.7370    3.6087   -0.2039 H   0  0  0  0  0  0  0  0  0  0  0  0
    8.4001    3.8470    0.9160 H   0  0  0  0  0  0  0  0  0  0  0  0
    8.1615    4.0075   -0.8802 H   0  0  0  0  0  0  0  0  0  0  0  0
  1 23  1  0  0  0  0
  1 26  1  0  0  0  0
  2 16  1  0  0  0  0
  2 58  1  0  0  0  0
  3 21  1  0  0  0  0
  3 59  1  0  0  0  0
  4 25  2  0  0  0  0
  5 28  2  0  0  0  0
  6 37  1  0  0  0  0
  6 38  1  0  0  0  0
  7 20  1  0  0  0  0
  7 26  2  0  0  0  0
  8 25  1  0  0  0  0
  8 27  1  0  0  0  0
  8 60  1  0  0  0  0
  9 26  1  0  0  0  0
  9 28  1  0  0  0  0
  9 61  1  0  0  0  0
 10 29  1  0  0  0  0
 10 33  1  0  0  0  0
 10 34  1  0  0  0  0
 11 12  1  0  0  0  0
 11 14  1  0  0  0  0
 11 15  1  0  0  0  0
 11 19  1  0  0  0  0
 12 13  1  0  0  0  0
 12 17  1  0  0  0  0
 12 39  1  0  0  0  0
 13 16  1  0  0  0  0
 13 21  1  0  0  0  0
 13 22  1  0  0  0  0
 14 20  1  0  0  0  0
 14 24  1  0  0  0  0
 14 40  1  0  0  0  0
 15 18  1  0  0  0  0
 15 41  1  0  0  0  0
 15 42  1  0  0  0  0
 16 18  1  0  0  0  0
 16 43  1  0  0  0  0
 17 23  1  0  0  0  0
 17 44  1  0  0  0  0
 17 45  1  0  0  0  0
 18 46  1  0  0  0  0
 18 47  1  0  0  0  0
 19 48  1  0  0  0  0
 19 49  1  0  0  0  0
 19 50  1  0  0  0  0
 20 23  2  0  0  0  0
 21 51  1  0  0  0  0
 21 52  1  0  0  0  0
 22 53  1  0  0  0  0
 22 54  1  0  0  0  0
 22 55  1  0  0  0  0
 24 25  1  0  0  0  0
 24 56  1  0  0  0  0
 24 57  1  0  0  0  0
 27 29  1  0  0  0  0
 27 62  1  0  0  0  0
 27 63  1  0  0  0  0
 28 30  1  0  0  0  0
 29 64  1  0  0  0  0
 29 65  1  0  0  0  0
 30 31  2  0  0  0  0
 30 32  1  0  0  0  0
 31 35  1  0  0  0  0
 31 66  1  0  0  0  0
 32 36  2  0  0  0  0
 32 67  1  0  0  0  0
 33 68  1  0  0  0  0
 33 69  1  0  0  0  0
 33 70  1  0  0  0  0
 34 71  1  0  0  0  0
 34 72  1  0  0  0  0
 34 73  1  0  0  0  0
 35 37  2  0  0  0  0
 35 74  1  0  0  0  0
 36 37  1  0  0  0  0
 36 75  1  0  0  0  0
 38 76  1  0  0  0  0
 38 77  1  0  0  0  0
 38 78  1  0  0  0  0
M  END
> <PUBCHEM_COMPOUND_CID>
11882933

> <PUBCHEM_CONFORMER_RMSD>
1.2

> <PUBCHEM_CONFORMER_DIVERSEORDER>
1
9
12
10
8
7
15
13
2
4
11
14
6
5
3

> <PUBCHEM_MMFF94_PARTIAL_CHARGES>
39
1 -0.08
10 -0.81
14 0.18
16 0.28
17 0.18
2 -0.68
20 0.05
21 0.28
23 -0.14
24 0.06
25 0.57
26 0.44
27 0.3
28 0.54
29 0.27
3 -0.68
30 0.09
31 -0.15
32 -0.15
33 0.27
34 0.27
35 -0.15
36 -0.15
37 0.08
38 0.28
4 -0.57
5 -0.57
58 0.4
59 0.4
6 -0.36
60 0.37
61 0.37
66 0.15
67 0.15
7 -0.57
74 0.15
75 0.15
8 -0.73
9 -0.49

> <PUBCHEM_EFFECTIVE_ROTOR_COUNT>
12.2

> <PUBCHEM_PHARMACOPHORE_FEATURES>
14
1 10 cation
1 2 acceptor
1 2 donor
1 3 acceptor
1 3 donor
1 4 acceptor
1 5 acceptor
1 6 acceptor
1 8 donor
1 9 donor
5 1 7 20 23 26 rings
6 11 12 13 15 16 18 rings
6 11 12 14 17 20 23 rings
6 30 31 32 35 36 37 rings

> <PUBCHEM_HEAVY_ATOM_COUNT>
38

> <PUBCHEM_ATOM_DEF_STEREO_COUNT>
5

> <PUBCHEM_ATOM_UDEF_STEREO_COUNT>
0

> <PUBCHEM_BOND_DEF_STEREO_COUNT>
0

> <PUBCHEM_BOND_UDEF_STEREO_COUNT>
0

> <PUBCHEM_ISOTOPIC_ATOM_COUNT>
0

> <PUBCHEM_COMPONENT_COUNT>
1

> <PUBCHEM_CACTVS_TAUTO_COUNT>
6

> <PUBCHEM_CONFORMER_ID>
00B551B500000001

> <PUBCHEM_MMFF94_ENERGY>
128.8006

> <PUBCHEM_FEATURE_SELFOVERLAP>
71.193

> <PUBCHEM_SHAPE_FINGERPRINT>
10050765 1 18053383197795384205
10369192 42 18334289890097125629
10864689 126 18341897454960047872
10906281 52 18261405437439999073
11135609 187 18412824681169409473
11315181 36 18408040736954538937
11524674 6 18131071593195588734
11719270 70 18342171155644382706
12522641 33 18412542106712511871
12539765 74 18343306946581769132
12838862 33 18042106791134537688
13402501 40 18335139799547344360
13811026 1 18408886230597953743
14068700 686 18337952277546511092
14394314 77 18186519899680651649
15324884 4 18046381649309833674
15439362 3 18339080380971477523
15849732 13 17894628188209333716
18681886 176 18188202216911314033
19315958 150 18339365137815476981
20554085 129 18059559309691038442
20642791 35 18047194051674943099
20771845 165 18334575694242738389
21344244 246 18413667998467795727
23559900 14 18266736871166545627
249057 3 18114180891185763764
3388396 114 17917715673313821905
3411729 13 18335135349940516571
4017518 198 18201164347233706166
4073 2 18411141303751452121
4403749 210 18125999619451072432
5265222 85 18195250138264111576
59755656 215 18410012113250892414
6669772 16 18411983546189929854

> <PUBCHEM_SHAPE_MULTIPOLES>
736.6
20.89
4.92
1.54
14.68
5.3
0.24
-21.4
3.32
5.86
1.67
-1.09
1.11
2.84

> <PUBCHEM_SHAPE_SELFOVERLAP>
1545.211

> <PUBCHEM_SHAPE_VOLUME>
420.8

> <PUBCHEM_COORDINATE_TYPE>
2
5
10

$$$$
