75536945
  -OEChem-12032416403D

 41 43  0     1  0  0  0  0  0999 V2000
   -5.0756   -0.4106   -1.5349 F   0  0  0  0  0  0  0  0  0  0  0  0
   -4.7554   -1.4995    0.3131 F   0  0  0  0  0  0  0  0  0  0  0  0
   -5.8351    0.3876    0.3396 F   0  0  0  0  0  0  0  0  0  0  0  0
    3.2027    2.3742   -1.3220 O   0  0  0  0  0  0  0  0  0  0  0  0
    0.0809    2.4486    0.5296 O   0  0  0  0  0  0  0  0  0  0  0  0
    4.3535   -1.4731   -0.3308 O   0  0  0  0  0  0  0  0  0  0  0  0
    3.0953    0.2744    0.5798 N   0  0  0  0  0  0  0  0  0  0  0  0
   -1.0939    0.6443   -0.3302 N   0  0  0  0  0  0  0  0  0  0  0  0
    0.2293   -2.8123   -1.1298 N   0  0  0  0  0  0  0  0  0  0  0  0
    0.7501   -3.5856    1.0923 N   0  0  0  0  0  0  0  0  0  0  0  0
    1.2273    1.8205   -0.0392 C   0  0  2  0  0  0  0  0  0  0  0  0
    1.8078    0.8454    0.9887 C   0  0  0  0  0  0  0  0  0  0  0  0
    4.2288    1.1920    0.6244 C   0  0  0  0  0  0  0  0  0  0  0  0
    2.2018    2.9170   -0.4717 C   0  0  0  0  0  0  0  0  0  0  0  0
    4.4049    1.9556   -0.6848 C   0  0  0  0  0  0  0  0  0  0  0  0
    3.2892   -1.0176    0.0845 C   0  0  0  0  0  0  0  0  0  0  0  0
   -1.1149    1.8073    0.3588 C   0  0  0  0  0  0  0  0  0  0  0  0
    2.1326   -1.9188    0.0416 C   0  0  0  0  0  0  0  0  0  0  0  0
   -2.2623    2.3730    0.8909 C   0  0  0  0  0  0  0  0  0  0  0  0
    1.3007   -1.9954   -1.0566 C   0  0  0  0  0  0  0  0  0  0  0  0
    1.8055   -2.7451    1.0973 C   0  0  0  0  0  0  0  0  0  0  0  0
   -3.4658    1.7020    0.7039 C   0  0  0  0  0  0  0  0  0  0  0  0
   -3.4847    0.5028    0.0003 C   0  0  0  0  0  0  0  0  0  0  0  0
   -2.2826    0.0207   -0.4920 C   0  0  0  0  0  0  0  0  0  0  0  0
   -4.7555   -0.2388   -0.2166 C   0  0  0  0  0  0  0  0  0  0  0  0
    0.0156   -3.5685   -0.0362 C   0  0  0  0  0  0  0  0  0  0  0  0
    0.9910    1.2689   -0.9596 H   0  0  0  0  0  0  0  0  0  0  0  0
    1.9540    1.3527    1.9513 H   0  0  0  0  0  0  0  0  0  0  0  0
    1.0846    0.0533    1.1996 H   0  0  0  0  0  0  0  0  0  0  0  0
    5.1471    0.6335    0.8398 H   0  0  0  0  0  0  0  0  0  0  0  0
    4.0830    1.8858    1.4603 H   0  0  0  0  0  0  0  0  0  0  0  0
    1.6540    3.6622   -1.0606 H   0  0  0  0  0  0  0  0  0  0  0  0
    2.6312    3.4625    0.3774 H   0  0  0  0  0  0  0  0  0  0  0  0
    5.0409    2.8330   -0.5217 H   0  0  0  0  0  0  0  0  0  0  0  0
    4.9272    1.3194   -1.4080 H   0  0  0  0  0  0  0  0  0  0  0  0
   -2.2304    3.3093    1.4373 H   0  0  0  0  0  0  0  0  0  0  0  0
    1.4703   -1.3854   -1.9383 H   0  0  0  0  0  0  0  0  0  0  0  0
    2.3960   -2.7598    2.0081 H   0  0  0  0  0  0  0  0  0  0  0  0
   -4.3774    2.1281    1.1130 H   0  0  0  0  0  0  0  0  0  0  0  0
   -2.2358   -0.9095   -1.0494 H   0  0  0  0  0  0  0  0  0  0  0  0
   -0.8389   -4.2333   -0.0675 H   0  0  0  0  0  0  0  0  0  0  0  0
  1 25  1  0  0  0  0
  2 25  1  0  0  0  0
  3 25  1  0  0  0  0
  4 14  1  0  0  0  0
  4 15  1  0  0  0  0
  5 11  1  0  0  0  0
  5 17  1  0  0  0  0
  6 16  2  0  0  0  0
  7 12  1  0  0  0  0
  7 13  1  0  0  0  0
  7 16  1  0  0  0  0
  8 17  2  0  0  0  0
  8 24  1  0  0  0  0
  9 20  2  0  0  0  0
  9 26  1  0  0  0  0
 10 21  1  0  0  0  0
 10 26  2  0  0  0  0
 11 12  1  0  0  0  0
 11 14  1  0  0  0  0
 11 27  1  0  0  0  0
 12 28  1  0  0  0  0
 12 29  1  0  0  0  0
 13 15  1  0  0  0  0
 13 30  1  0  0  0  0
 13 31  1  0  0  0  0
 14 32  1  0  0  0  0
 14 33  1  0  0  0  0
 15 34  1  0  0  0  0
 15 35  1  0  0  0  0
 16 18  1  0  0  0  0
 17 19  1  0  0  0  0
 18 20  1  0  0  0  0
 18 21  2  0  0  0  0
 19 22  2  0  0  0  0
 19 36  1  0  0  0  0
 20 37  1  0  0  0  0
 21 38  1  0  0  0  0
 22 23  1  0  0  0  0
 22 39  1  0  0  0  0
 23 24  2  0  0  0  0
 23 25  1  0  0  0  0
 24 40  1  0  0  0  0
 26 41  1  0  0  0  0
M  END
> <PUBCHEM_COMPOUND_CID>
75536945

> <PUBCHEM_CONFORMER_RMSD>
0.8

> <PUBCHEM_CONFORMER_DIVERSEORDER>
2
195
65
151
76
80
192
130
1
82
133
117
213
92
106
178
87
119
179
28
175
197
54
214
176
162
91
89
208
52
198
139
94
203
168
84
211
136
26
7
35
202
124
199
120
21
50
69
40
147
138
107
67
62
113
152
75
44
118
150
29
103
61
142
22
193
141
123
167
181
172
49
78
165
177
173
25
31
56
166
137
156
154
184
196
64
45
187
60
57
145
157
9
201
188
10
23
112
171
48
72
100
169
135
125
98
19
160
191
71
143
131
59
95
5
66
38
180
132
51
110
144
174
200
153
42
182
24
46
12
183
18
127
134
79
37
163
158
104
55
210
63
99
14
207
102
170
47
33
81
164
32
149
11
58
39
13
206
3
27
8
146
105
43
83
126
161
74
115
111
90
53
6
114
34
128
101
148
194
212
209
190
205
16
73
116
86
36
68
97
140
129
88
4
17
70
77
186
204
155
15
41
121
96
20
159
185
85
189
109
93
122
30
108

> <PUBCHEM_MMFF94_PARTIAL_CHARGES>
32
1 -0.34
10 -0.62
11 0.28
12 0.3
13 0.3
14 0.28
15 0.28
16 0.54
17 0.39
18 0.09
19 -0.15
2 -0.34
20 0.16
21 0.16
22 -0.15
23 -0.14
24 0.16
25 1.16
26 0.47
3 -0.34
36 0.15
37 0.15
38 0.15
39 0.15
4 -0.56
40 0.15
41 0.15
5 -0.36
6 -0.57
7 -0.66
8 -0.62
9 -0.62

> <PUBCHEM_EFFECTIVE_ROTOR_COUNT>
6.4

> <PUBCHEM_PHARMACOPHORE_FEATURES>
7
1 4 acceptor
1 6 acceptor
1 9 acceptor
3 9 10 26 cation
6 8 17 19 22 23 24 rings
6 9 10 18 20 21 26 rings
7 4 7 11 12 13 14 15 rings

> <PUBCHEM_HEAVY_ATOM_COUNT>
26

> <PUBCHEM_ATOM_DEF_STEREO_COUNT>
1

> <PUBCHEM_ATOM_UDEF_STEREO_COUNT>
0

> <PUBCHEM_BOND_DEF_STEREO_COUNT>
0

> <PUBCHEM_BOND_UDEF_STEREO_COUNT>
0

> <PUBCHEM_ISOTOPIC_ATOM_COUNT>
0

> <PUBCHEM_COMPONENT_COUNT>
1

> <PUBCHEM_CACTVS_TAUTO_COUNT>
1

> <PUBCHEM_CONFORMER_ID>
04809A3100000002

> <PUBCHEM_MMFF94_ENERGY>
77.8437

> <PUBCHEM_FEATURE_SELFOVERLAP>
35.522

> <PUBCHEM_SHAPE_FINGERPRINT>
10090160 65 18408597080646118821
104564 63 17688877853599539172
10616163 171 18270400460530728985
1100329 8 18337947999990731170
12156800 1 17395333494279264238
12553582 1 17761776161214883802
13140716 1 17908130333259844920
13836976 161 18334295417952416612
14117953 113 17548126732654270543
14178342 30 18124866859769405912
14787075 74 18339920523713908991
15338160 23 17264085913007713880
15537594 2 18202005477728255413
17138139 8 17914317229132940495
17492 54 18116455712176240214
17818456 19 17627519224817908521
18681886 176 18337106869459355720
20028762 73 18271802376928282206
20645477 70 18187363246541889305
21197605 99 18122913289753327299
21421861 104 18268441131205794721
21673915 165 18343298171604366977
21860390 5 15864642785418151164
23559900 14 18267575824086751057
238 59 18336557065809158914
2871803 45 18411695448362358248
338550 245 18337109085102453756
392239 28 18409736162024598611
44154327 71 18412261757180821158
463206 1 18271519892644104563
5312544 6 18409449206336730373
6287921 2 18129388089841809110
6823239 73 17486219911315265150
7097593 13 17908993097151854025

> <PUBCHEM_SHAPE_MULTIPOLES>
475.71
9.58
4.32
1.07
10.09
2.55
-0.09
-2.03
-0.9
-2.76
0.22
-0.1
0.14
-1.12

> <PUBCHEM_SHAPE_SELFOVERLAP>
1020.429

> <PUBCHEM_SHAPE_VOLUME>
260.6

> <PUBCHEM_COORDINATE_TYPE>
2
5
10

$$$$
