75537065
  -OEChem-12032416323D

 43 46  0     1  0  0  0  0  0999 V2000
   -1.1634    2.6746   -0.6936 O   0  0  0  0  0  0  0  0  0  0  0  0
    3.0813   -0.0116    0.0107 N   0  0  2  0  0  0  0  0  0  0  0  0
    0.6891    1.4584    0.0865 N   0  0  0  0  0  0  0  0  0  0  0  0
   -1.3279    1.0039    0.9637 N   0  0  0  0  0  0  0  0  0  0  0  0
   -4.5564   -2.1748    0.2107 N   0  0  0  0  0  0  0  0  0  0  0  0
    3.9560   -1.0762   -0.4586 C   0  0  0  0  0  0  0  0  0  0  0  0
    0.9577    0.4989    1.1379 C   0  0  2  0  0  0  0  0  0  0  0  0
    1.8781   -0.6081    0.6246 C   0  0  0  0  0  0  0  0  0  0  0  0
    4.7300   -1.6651    0.7408 C   0  0  0  0  0  0  0  0  0  0  0  0
    5.2943   -0.4659   -0.9283 C   0  0  0  0  0  0  0  0  0  0  0  0
    5.9874   -1.6119   -0.1566 C   0  0  0  0  0  0  0  0  0  0  0  0
    2.7181    0.8552   -1.1281 C   0  0  0  0  0  0  0  0  0  0  0  0
    1.7919    1.9915   -0.6869 C   0  0  0  0  0  0  0  0  0  0  0  0
   -0.4319    0.0317    1.5661 C   0  0  0  0  0  0  0  0  0  0  0  0
   -0.6626    1.8234    0.0298 C   0  0  0  0  0  0  0  0  0  0  0  0
   -2.7519    0.9929    1.2155 C   0  0  0  0  0  0  0  0  0  0  0  0
   -3.4641   -0.0241    0.3713 C   0  0  0  0  0  0  0  0  0  0  0  0
   -3.6953    0.2026   -0.9810 C   0  0  0  0  0  0  0  0  0  0  0  0
   -3.9105   -1.2181    0.9143 C   0  0  0  0  0  0  0  0  0  0  0  0
   -4.3567   -0.7580   -1.7381 C   0  0  0  0  0  0  0  0  0  0  0  0
   -4.7632   -1.9192   -1.1007 C   0  0  0  0  0  0  0  0  0  0  0  0
    3.5264   -1.8159   -1.1453 H   0  0  0  0  0  0  0  0  0  0  0  0
    1.4387    1.0482    1.9580 H   0  0  0  0  0  0  0  0  0  0  0  0
    2.1487   -1.2532    1.4688 H   0  0  0  0  0  0  0  0  0  0  0  0
    1.3497   -1.2337   -0.1082 H   0  0  0  0  0  0  0  0  0  0  0  0
    4.4256   -2.6666    1.0571 H   0  0  0  0  0  0  0  0  0  0  0  0
    4.8116   -1.0233    1.6272 H   0  0  0  0  0  0  0  0  0  0  0  0
    5.5547    0.5210   -0.5246 H   0  0  0  0  0  0  0  0  0  0  0  0
    5.4651   -0.4639   -2.0085 H   0  0  0  0  0  0  0  0  0  0  0  0
    6.9216   -1.3513    0.3468 H   0  0  0  0  0  0  0  0  0  0  0  0
    6.1422   -2.5173   -0.7548 H   0  0  0  0  0  0  0  0  0  0  0  0
    2.2181    0.2644   -1.9079 H   0  0  0  0  0  0  0  0  0  0  0  0
    3.6006    1.3146   -1.5864 H   0  0  0  0  0  0  0  0  0  0  0  0
    1.4021    2.5431   -1.5482 H   0  0  0  0  0  0  0  0  0  0  0  0
    2.3282    2.6991   -0.0442 H   0  0  0  0  0  0  0  0  0  0  0  0
   -0.6814   -0.9603    1.1760 H   0  0  0  0  0  0  0  0  0  0  0  0
   -0.5489    0.0371    2.6539 H   0  0  0  0  0  0  0  0  0  0  0  0
   -3.1559    1.9867    0.9872 H   0  0  0  0  0  0  0  0  0  0  0  0
   -2.9167    0.8175    2.2847 H   0  0  0  0  0  0  0  0  0  0  0  0
   -3.3712    1.1237   -1.4564 H   0  0  0  0  0  0  0  0  0  0  0  0
   -3.7581   -1.4542    1.9629 H   0  0  0  0  0  0  0  0  0  0  0  0
   -4.5489   -0.6023   -2.7934 H   0  0  0  0  0  0  0  0  0  0  0  0
   -5.2831   -2.6995   -1.6467 H   0  0  0  0  0  0  0  0  0  0  0  0
  1 15  2  0  0  0  0
  2  6  1  0  0  0  0
  2  8  1  0  0  0  0
  2 12  1  0  0  0  0
  3  7  1  0  0  0  0
  3 13  1  0  0  0  0
  3 15  1  0  0  0  0
  4 14  1  0  0  0  0
  4 15  1  0  0  0  0
  4 16  1  0  0  0  0
  5 19  1  0  0  0  0
  5 21  2  0  0  0  0
  6  9  1  0  0  0  0
  6 10  1  0  0  0  0
  6 22  1  0  0  0  0
  7  8  1  0  0  0  0
  7 14  1  0  0  0  0
  7 23  1  0  0  0  0
  8 24  1  0  0  0  0
  8 25  1  0  0  0  0
  9 11  1  0  0  0  0
  9 26  1  0  0  0  0
  9 27  1  0  0  0  0
 10 11  1  0  0  0  0
 10 28  1  0  0  0  0
 10 29  1  0  0  0  0
 11 30  1  0  0  0  0
 11 31  1  0  0  0  0
 12 13  1  0  0  0  0
 12 32  1  0  0  0  0
 12 33  1  0  0  0  0
 13 34  1  0  0  0  0
 13 35  1  0  0  0  0
 14 36  1  0  0  0  0
 14 37  1  0  0  0  0
 16 17  1  0  0  0  0
 16 38  1  0  0  0  0
 16 39  1  0  0  0  0
 17 18  1  0  0  0  0
 17 19  2  0  0  0  0
 18 20  2  0  0  0  0
 18 40  1  0  0  0  0
 19 41  1  0  0  0  0
 20 21  1  0  0  0  0
 20 42  1  0  0  0  0
 21 43  1  0  0  0  0
M  END
> <PUBCHEM_COMPOUND_CID>
75537065

> <PUBCHEM_CONFORMER_RMSD>
0.8

> <PUBCHEM_CONFORMER_DIVERSEORDER>
1
6
11
18
14
5
9
16
17
7
12
15
3
8
10
13
4
2

> <PUBCHEM_MMFF94_PARTIAL_CHARGES>
22
1 -0.57
12 0.27
13 0.3
14 0.3
15 0.69
16 0.44
17 -0.14
18 -0.15
19 0.16
2 -0.75
20 -0.15
21 0.16
3 -0.66
4 -0.66
40 0.15
41 0.15
42 0.15
43 0.15
5 -0.62
6 0.21
7 0.3
8 0.27

> <PUBCHEM_EFFECTIVE_ROTOR_COUNT>
5

> <PUBCHEM_PHARMACOPHORE_FEATURES>
7
1 1 acceptor
1 2 cation
1 5 acceptor
4 6 9 10 11 rings
5 3 4 7 14 15 rings
6 2 3 7 8 12 13 rings
6 5 17 18 19 20 21 rings

> <PUBCHEM_HEAVY_ATOM_COUNT>
21

> <PUBCHEM_ATOM_DEF_STEREO_COUNT>
1

> <PUBCHEM_ATOM_UDEF_STEREO_COUNT>
0

> <PUBCHEM_BOND_DEF_STEREO_COUNT>
0

> <PUBCHEM_BOND_UDEF_STEREO_COUNT>
0

> <PUBCHEM_ISOTOPIC_ATOM_COUNT>
0

> <PUBCHEM_COMPONENT_COUNT>
1

> <PUBCHEM_CACTVS_TAUTO_COUNT>
1

> <PUBCHEM_CONFORMER_ID>
04809AA900000001

> <PUBCHEM_MMFF94_ENERGY>
56.1153

> <PUBCHEM_FEATURE_SELFOVERLAP>
35.618

> <PUBCHEM_SHAPE_FINGERPRINT>
10042902 136 17916860343488118295
10447042 23 18040436564985555634
10498660 4 14056993940841984087
105312 117 14129065806834729762
10670039 82 13840255975091475134
11046707 91 18273214175094627169
11089746 13 12901550182689583590
11370993 144 12894810111496008463
11578080 2 18130771387740861593
11796584 16 18059858315996263342
12553582 1 18187362108470053689
12596602 18 13686292487114483663
12633257 1 15123224494095988079
12670546 177 17676489457814217630
12788726 201 18119516644916057073
12892183 10 12895085028284472509
13103583 49 16200158728769815323
13544653 18 17988640821882696385
13583140 156 15912761666224780480
13782708 43 17916308235024136774
13994607 96 11097859562577199039
14123255 352 7781518113801312947
1420 369 18131353028842568223
14251751 18 18131349704690757842
14251764 30 18042979855560941995
14251764 38 11892490982415759726
14576447 43 18335140886696543514
14739800 52 12036009178753305276
14848178 5 18273490178283347118
15163728 17 12757144641369819737
15183329 4 14129053682701189514
15209294 21 9439401311289615154
15238133 3 11314303997188238150
1601671 61 11241972586042752550
17349148 13 18342466936751169506
18186145 218 17023184954890629729
18222031 100 18409726240950110322
18769570 83 12179848320881263326
19141452 34 18197789807949679097
193927 3 18130796676006366807
19784866 170 11600010946429677818
19784866 240 18342176669912775623
200 152 18260833670087277312
21065199 12 12175356820113123735
21713013 43 17822286955243223559
21756936 100 8358247142799693480
221357 26 17967528013076579767
22393880 68 17676476285534642459
23379529 103 18337677523966764935
23402539 116 18188215299454822968
23559900 14 18336540603226367752
270888 7 11747199248505676111
2838139 119 13334729150381154574
3009799 131 17603579725702039876
314194 84 18409739447848198466
3286 77 17989486337887775224
351380 3 18343867718601629271
4015057 19 17894927251757811048
4259306 186 18408603664630783358
46194498 28 16951974083780027183
474 4 8574444105637577413
559249 180 18272370833329664513
59682541 52 15792553210879988171
602551 16 17060338530893197918
7495541 125 17775560932425028368
76465 3 18412545405521740252
7970288 3 18200311151606257167

> <PUBCHEM_SHAPE_MULTIPOLES>
406.38
12.41
2.28
1.42
6.23
0.39
-0.04
-10.15
-3.2
-0.68
-0.34
-0.91
-0.04
-0.88

> <PUBCHEM_SHAPE_SELFOVERLAP>
867.416

> <PUBCHEM_SHAPE_VOLUME>
227

> <PUBCHEM_COORDINATE_TYPE>
2
5
10

$$$$
