7143176
  -OEChem-12032416393D

 62 66  0     1  0  0  0  0  0999 V2000
    2.6058   -1.4346   -0.8198 S   0  0  0  0  0  0  0  0  0  0  0  0
    2.5151   -1.7306   -2.2339 O   0  0  0  0  0  0  0  0  0  0  0  0
    1.9355   -2.2642    0.1592 O   0  0  0  0  0  0  0  0  0  0  0  0
   -2.2701    2.0791   -1.8278 O   0  0  0  0  0  0  0  0  0  0  0  0
    8.3225   -1.2057    0.6101 O   0  0  0  0  0  0  0  0  0  0  0  0
   -4.3354   -0.0847    1.9791 O   0  0  0  0  0  0  0  0  0  0  0  0
    2.1661    0.1989   -0.5602 N   0  0  2  0  0  0  0  0  0  0  0  0
   -0.3634    2.0930   -0.4770 N   0  0  0  0  0  0  0  0  0  0  0  0
   -3.9322    1.4393    0.2653 N   0  0  0  0  0  0  0  0  0  0  0  0
    1.9840    2.5447   -1.3953 C   0  0  1  0  0  0  0  0  0  0  0  0
    1.6802    2.0762    0.9966 C   0  0  2  0  0  0  0  0  0  0  0  0
    2.2763    3.0705    0.0039 C   0  0  0  0  0  0  0  0  0  0  0  0
    2.6280    1.1635   -1.5988 C   0  0  0  0  0  0  0  0  0  0  0  0
    2.3658    0.7079    0.8297 C   0  0  0  0  0  0  0  0  0  0  0  0
    0.4658    2.5205   -1.6117 C   0  0  0  0  0  0  0  0  0  0  0  0
    0.1811    1.9436    0.8024 C   0  0  0  0  0  0  0  0  0  0  0  0
   -0.6156    1.6629    1.8473 C   0  0  0  0  0  0  0  0  0  0  0  0
   -1.7433    1.9419   -0.7227 C   0  0  0  0  0  0  0  0  0  0  0  0
   -2.5931    1.6061    0.4636 C   0  0  0  0  0  0  0  0  0  0  0  0
   -2.0301    1.4899    1.6708 C   0  0  0  0  0  0  0  0  0  0  0  0
    4.3175   -1.3660   -0.3922 C   0  0  0  0  0  0  0  0  0  0  0  0
    4.6981   -1.5965    0.9198 C   0  0  0  0  0  0  0  0  0  0  0  0
    5.2517   -1.0828   -1.3753 C   0  0  0  0  0  0  0  0  0  0  0  0
    6.0503   -1.5421    1.2581 C   0  0  0  0  0  0  0  0  0  0  0  0
    6.6038   -1.0286   -1.0369 C   0  0  0  0  0  0  0  0  0  0  0  0
   -4.7271    0.6002    1.0372 C   0  0  0  0  0  0  0  0  0  0  0  0
    7.0031   -1.2583    0.2798 C   0  0  0  0  0  0  0  0  0  0  0  0
   -6.1715    0.6288    0.5725 C   0  0  0  0  0  0  0  0  0  0  0  0
   -6.6844   -0.7174    0.1336 C   0  0  0  0  0  0  0  0  0  0  0  0
    8.6606   -1.4510    1.9742 C   0  0  0  0  0  0  0  0  0  0  0  0
   -6.5491   -1.1002   -1.1935 C   0  0  0  0  0  0  0  0  0  0  0  0
   -7.2844   -1.5559    1.0624 C   0  0  0  0  0  0  0  0  0  0  0  0
   -7.0239   -2.3471   -1.6002 C   0  0  0  0  0  0  0  0  0  0  0  0
   -7.7591   -2.8029    0.6556 C   0  0  0  0  0  0  0  0  0  0  0  0
   -7.6288   -3.1984   -0.6757 C   0  0  0  0  0  0  0  0  0  0  0  0
    2.4229    3.2230   -2.1378 H   0  0  0  0  0  0  0  0  0  0  0  0
    1.8879    2.4436    2.0103 H   0  0  0  0  0  0  0  0  0  0  0  0
    3.3576    3.1686    0.1593 H   0  0  0  0  0  0  0  0  0  0  0  0
    1.8403    4.0679    0.1413 H   0  0  0  0  0  0  0  0  0  0  0  0
    2.3665    0.7942   -2.5961 H   0  0  0  0  0  0  0  0  0  0  0  0
    3.7165    1.2718   -1.5475 H   0  0  0  0  0  0  0  0  0  0  0  0
    3.4334    0.8302    1.0397 H   0  0  0  0  0  0  0  0  0  0  0  0
    1.9479   -0.0028    1.5514 H   0  0  0  0  0  0  0  0  0  0  0  0
    0.2100    1.9050   -2.4833 H   0  0  0  0  0  0  0  0  0  0  0  0
    0.1310    3.5385   -1.8539 H   0  0  0  0  0  0  0  0  0  0  0  0
   -0.2163    1.5375    2.8484 H   0  0  0  0  0  0  0  0  0  0  0  0
   -2.5851    1.3045    2.5827 H   0  0  0  0  0  0  0  0  0  0  0  0
   -4.3011    1.7713   -0.6224 H   0  0  0  0  0  0  0  0  0  0  0  0
    3.9721   -1.8175    1.6963 H   0  0  0  0  0  0  0  0  0  0  0  0
    4.9620   -0.8981   -2.4051 H   0  0  0  0  0  0  0  0  0  0  0  0
    6.2907   -1.7297    2.2989 H   0  0  0  0  0  0  0  0  0  0  0  0
    7.3416   -0.8062   -1.8030 H   0  0  0  0  0  0  0  0  0  0  0  0
   -6.3199    1.3572   -0.2343 H   0  0  0  0  0  0  0  0  0  0  0  0
   -6.7735    1.0054    1.4099 H   0  0  0  0  0  0  0  0  0  0  0  0
    8.3922   -2.4684    2.2788 H   0  0  0  0  0  0  0  0  0  0  0  0
    9.7494   -1.3695    2.0571 H   0  0  0  0  0  0  0  0  0  0  0  0
    8.2320   -0.6923    2.6378 H   0  0  0  0  0  0  0  0  0  0  0  0
   -6.0774   -0.4449   -1.9203 H   0  0  0  0  0  0  0  0  0  0  0  0
   -7.3892   -1.2584    2.1019 H   0  0  0  0  0  0  0  0  0  0  0  0
   -6.9219   -2.6554   -2.6366 H   0  0  0  0  0  0  0  0  0  0  0  0
   -8.2297   -3.4661    1.3754 H   0  0  0  0  0  0  0  0  0  0  0  0
   -7.9982   -4.1694   -0.9923 H   0  0  0  0  0  0  0  0  0  0  0  0
  1  2  2  0  0  0  0
  1  3  2  0  0  0  0
  1  7  1  0  0  0  0
  1 21  1  0  0  0  0
  4 18  2  0  0  0  0
  5 27  1  0  0  0  0
  5 30  1  0  0  0  0
  6 26  2  0  0  0  0
  7 13  1  0  0  0  0
  7 14  1  0  0  0  0
  8 15  1  0  0  0  0
  8 16  1  0  0  0  0
  8 18  1  0  0  0  0
  9 19  1  0  0  0  0
  9 26  1  0  0  0  0
  9 48  1  0  0  0  0
 10 12  1  0  0  0  0
 10 13  1  0  0  0  0
 10 15  1  0  0  0  0
 10 36  1  0  0  0  0
 11 12  1  0  0  0  0
 11 14  1  0  0  0  0
 11 16  1  0  0  0  0
 11 37  1  0  0  0  0
 12 38  1  0  0  0  0
 12 39  1  0  0  0  0
 13 40  1  0  0  0  0
 13 41  1  0  0  0  0
 14 42  1  0  0  0  0
 14 43  1  0  0  0  0
 15 44  1  0  0  0  0
 15 45  1  0  0  0  0
 16 17  2  0  0  0  0
 17 20  1  0  0  0  0
 17 46  1  0  0  0  0
 18 19  1  0  0  0  0
 19 20  2  0  0  0  0
 20 47  1  0  0  0  0
 21 22  2  0  0  0  0
 21 23  1  0  0  0  0
 22 24  1  0  0  0  0
 22 49  1  0  0  0  0
 23 25  2  0  0  0  0
 23 50  1  0  0  0  0
 24 27  2  0  0  0  0
 24 51  1  0  0  0  0
 25 27  1  0  0  0  0
 25 52  1  0  0  0  0
 26 28  1  0  0  0  0
 28 29  1  0  0  0  0
 28 53  1  0  0  0  0
 28 54  1  0  0  0  0
 29 31  2  0  0  0  0
 29 32  1  0  0  0  0
 30 55  1  0  0  0  0
 30 56  1  0  0  0  0
 30 57  1  0  0  0  0
 31 33  1  0  0  0  0
 31 58  1  0  0  0  0
 32 34  2  0  0  0  0
 32 59  1  0  0  0  0
 33 35  2  0  0  0  0
 33 60  1  0  0  0  0
 34 35  1  0  0  0  0
 34 61  1  0  0  0  0
 35 62  1  0  0  0  0
M  END
> <PUBCHEM_COMPOUND_CID>
7143176

> <PUBCHEM_CONFORMER_RMSD>
1

> <PUBCHEM_CONFORMER_DIVERSEORDER>
1
14
30
16
42
28
41
15
38
36
39
21
34
33
3
8
9
37
2
29
43
20
19
23
35
4
6
27
17
40
18
12
22
13
32
26
7
24
11
31
5
10
25

> <PUBCHEM_MMFF94_PARTIAL_CHARGES>
45
1 1.45
11 0.14
13 0.36
14 0.36
15 0.3
16 -0.03
17 -0.15
18 0.62
19 0.12
2 -0.65
20 -0.15
21 -0.01
22 -0.15
23 -0.15
24 -0.15
25 -0.15
26 0.57
27 0.08
28 0.2
29 -0.14
3 -0.65
30 0.28
31 -0.15
32 -0.15
33 -0.15
34 -0.15
35 -0.15
4 -0.57
46 0.15
47 0.15
48 0.37
49 0.15
5 -0.36
50 0.15
51 0.15
52 0.15
58 0.15
59 0.15
6 -0.57
60 0.15
61 0.15
62 0.15
7 -0.85
8 -0.47
9 -0.54

> <PUBCHEM_EFFECTIVE_ROTOR_COUNT>
8

> <PUBCHEM_PHARMACOPHORE_FEATURES>
11
1 2 acceptor
1 3 acceptor
1 4 acceptor
1 5 acceptor
1 6 acceptor
1 9 donor
6 21 22 23 24 25 27 rings
6 29 31 32 33 34 35 rings
6 7 10 11 12 13 14 rings
6 8 10 11 12 15 16 rings
6 8 16 17 18 19 20 rings

> <PUBCHEM_HEAVY_ATOM_COUNT>
35

> <PUBCHEM_ATOM_DEF_STEREO_COUNT>
2

> <PUBCHEM_ATOM_UDEF_STEREO_COUNT>
0

> <PUBCHEM_BOND_DEF_STEREO_COUNT>
0

> <PUBCHEM_BOND_UDEF_STEREO_COUNT>
0

> <PUBCHEM_ISOTOPIC_ATOM_COUNT>
0

> <PUBCHEM_COMPONENT_COUNT>
1

> <PUBCHEM_CACTVS_TAUTO_COUNT>
2

> <PUBCHEM_CONFORMER_ID>
006CFF0800000001

> <PUBCHEM_MMFF94_ENERGY>
96.0563

> <PUBCHEM_FEATURE_SELFOVERLAP>
57.426

> <PUBCHEM_SHAPE_FINGERPRINT>
10190206 1 13118279231181366135
10670039 82 14707207687237926165
11135609 99 18201437016609321215
11211813 128 18342459215064921238
11578821 258 9654132660490933722
11621639 148 18200582697309267152
12120059 20 18269857426462329494
12120059 9 18268415842290916214
12522641 33 17970074542469198900
1361 4 18123753317063864939
13782708 43 18410291419775618097
14068700 675 18411420604852537441
14951699 99 9727642700454905043
15064981 113 14418427520812978402
15183329 4 13045952283202512240
15350500 16 17895188896727779834
15510800 12 18336271236305803355
15728490 51 17988922271585579118
16989378 47 18259979388624179811
16994733 274 8430316822907332077
19303781 99 18337387253709311511
19315092 285 18202289121400174673
19841028 212 18337391664556159603
20028762 73 18272656731311067254
2026 5 18187363178038859834
20775438 99 17752486726974635803
21585482 111 9871483006282286611
23559900 14 16950861291755266445
25222932 49 18334856074530503642
2747138 104 17704072855002768728
2838139 119 11026093394849685137
3383291 50 18272652372478748951
3986486 107 8430310273752119218
406291 66 18340767135162468775
4066623 53 16225767428201185436
4093350 32 10953451934584610264
439807 62 18411423943054644635
4461854 278 17274824683360558623
474113 269 14056989483678755296
508180 173 12396591740464993135
5718773 13 18407760335085876555
57303763 176 11603079654014536886
59682541 35 17775277258377823346

> <PUBCHEM_SHAPE_MULTIPOLES>
679.84
24.14
3.69
1.92
10.32
0.34
0.12
-28.48
-4.56
2.09
0.63
-0.6
0.11
-1.85

> <PUBCHEM_SHAPE_SELFOVERLAP>
1470.102

> <PUBCHEM_SHAPE_VOLUME>
371.6

> <PUBCHEM_COORDINATE_TYPE>
2
5
10

$$$$
