75536927
  -OEChem-12032416333D

 40 42  0     1  0  0  0  0  0999 V2000
   -2.8698   -2.2599   -2.5716 Cl  0  0  0  0  0  0  0  0  0  0  0  0
    3.8115   -0.1261   -1.2030 O   0  0  0  0  0  0  0  0  0  0  0  0
    1.3767    2.2253    0.2385 O   0  0  0  0  0  0  0  0  0  0  0  0
    1.7494   -1.4392    0.3165 N   0  0  1  0  0  0  0  0  0  0  0  0
   -0.7432    1.5987   -0.4820 N   0  0  0  0  0  0  0  0  0  0  0  0
   -1.7517    4.0418    0.4564 N   0  0  0  0  0  0  0  0  0  0  0  0
    1.6087   -0.0819    0.8427 C   0  0  0  0  0  0  0  0  0  0  0  0
    1.8046    0.9599   -0.2666 C   0  0  2  0  0  0  0  0  0  0  0  0
    3.1283   -1.9392    0.2838 C   0  0  0  0  0  0  0  0  0  0  0  0
    3.2321    1.1048   -0.7878 C   0  0  0  0  0  0  0  0  0  0  0  0
    0.8915   -2.3834    1.0335 C   0  0  0  0  0  0  0  0  0  0  0  0
    4.2104   -0.9331   -0.1015 C   0  0  0  0  0  0  0  0  0  0  0  0
   -0.5624   -2.1881    0.6952 C   0  0  0  0  0  0  0  0  0  0  0  0
   -0.9925   -2.3015   -0.6269 C   0  0  0  0  0  0  0  0  0  0  0  0
   -1.4799   -1.8947    1.7043 C   0  0  0  0  0  0  0  0  0  0  0  0
    0.0472    2.5179    0.1071 C   0  0  0  0  0  0  0  0  0  0  0  0
   -2.3398   -2.1216   -0.9402 C   0  0  0  0  0  0  0  0  0  0  0  0
   -2.8272   -1.7147    1.3911 C   0  0  0  0  0  0  0  0  0  0  0  0
   -3.2572   -1.8283    0.0690 C   0  0  0  0  0  0  0  0  0  0  0  0
   -0.4482    3.7180    0.5680 C   0  0  0  0  0  0  0  0  0  0  0  0
   -2.0467    1.9227   -0.5936 C   0  0  0  0  0  0  0  0  0  0  0  0
   -2.5420    3.1226   -0.1327 C   0  0  0  0  0  0  0  0  0  0  0  0
    0.6151    0.0744    1.2776 H   0  0  0  0  0  0  0  0  0  0  0  0
    2.2928    0.1038    1.6819 H   0  0  0  0  0  0  0  0  0  0  0  0
    1.2151    0.6559   -1.1435 H   0  0  0  0  0  0  0  0  0  0  0  0
    3.1552   -2.7556   -0.4492 H   0  0  0  0  0  0  0  0  0  0  0  0
    3.4134   -2.3731    1.2515 H   0  0  0  0  0  0  0  0  0  0  0  0
    3.2195    1.7692   -1.6604 H   0  0  0  0  0  0  0  0  0  0  0  0
    3.8761    1.6086   -0.0553 H   0  0  0  0  0  0  0  0  0  0  0  0
    1.0612   -2.3204    2.1169 H   0  0  0  0  0  0  0  0  0  0  0  0
    1.1359   -3.4164    0.7485 H   0  0  0  0  0  0  0  0  0  0  0  0
    4.5101   -0.3197    0.7571 H   0  0  0  0  0  0  0  0  0  0  0  0
    5.1038   -1.4857   -0.4135 H   0  0  0  0  0  0  0  0  0  0  0  0
   -0.2785   -2.5350   -1.4136 H   0  0  0  0  0  0  0  0  0  0  0  0
   -1.1594   -1.8020    2.7384 H   0  0  0  0  0  0  0  0  0  0  0  0
   -3.5413   -1.4850    2.1765 H   0  0  0  0  0  0  0  0  0  0  0  0
   -4.3099   -1.6842   -0.1604 H   0  0  0  0  0  0  0  0  0  0  0  0
    0.1835    4.4595    1.0421 H   0  0  0  0  0  0  0  0  0  0  0  0
   -2.6823    1.1872   -1.0701 H   0  0  0  0  0  0  0  0  0  0  0  0
   -3.5894    3.3823   -0.2237 H   0  0  0  0  0  0  0  0  0  0  0  0
  1 17  1  0  0  0  0
  2 10  1  0  0  0  0
  2 12  1  0  0  0  0
  3  8  1  0  0  0  0
  3 16  1  0  0  0  0
  4  7  1  0  0  0  0
  4  9  1  0  0  0  0
  4 11  1  0  0  0  0
  5 16  2  0  0  0  0
  5 21  1  0  0  0  0
  6 20  2  0  0  0  0
  6 22  1  0  0  0  0
  7  8  1  0  0  0  0
  7 23  1  0  0  0  0
  7 24  1  0  0  0  0
  8 10  1  0  0  0  0
  8 25  1  0  0  0  0
  9 12  1  0  0  0  0
  9 26  1  0  0  0  0
  9 27  1  0  0  0  0
 10 28  1  0  0  0  0
 10 29  1  0  0  0  0
 11 13  1  0  0  0  0
 11 30  1  0  0  0  0
 11 31  1  0  0  0  0
 12 32  1  0  0  0  0
 12 33  1  0  0  0  0
 13 14  2  0  0  0  0
 13 15  1  0  0  0  0
 14 17  1  0  0  0  0
 14 34  1  0  0  0  0
 15 18  2  0  0  0  0
 15 35  1  0  0  0  0
 16 20  1  0  0  0  0
 17 19  2  0  0  0  0
 18 19  1  0  0  0  0
 18 36  1  0  0  0  0
 19 37  1  0  0  0  0
 20 38  1  0  0  0  0
 21 22  2  0  0  0  0
 21 39  1  0  0  0  0
 22 40  1  0  0  0  0
M  END
> <PUBCHEM_COMPOUND_CID>
75536927

> <PUBCHEM_CONFORMER_RMSD>
1

> <PUBCHEM_CONFORMER_DIVERSEORDER>
5
86
81
143
135
110
18
129
152
85
105
77
41
39
98
14
153
4
108
73
84
151
60
138
12
76
126
115
22
64
160
46
17
62
123
40
140
149
97
50
94
1
147
131
13
128
9
78
69
67
113
33
139
54
80
37
130
55
23
56
142
49
161
117
82
109
157
120
107
145
101
118
3
134
72
47
51
35
100
88
148
11
2
155
111
26
150
48
141
63
8
125
122
74
66
36
112
45
87
25
93
162
57
99
119
70
7
158
124
75
154
91
32
83
89
59
95
116
53
52
106
92
34
103
43
61
127
30
6
104
65
156
79
136
68
146
90
144
96
102
31
44
24
27
137
159
21
114
10
16
42
15
121
29
58
19
71
20
38
132
133
28

> <PUBCHEM_MMFF94_PARTIAL_CHARGES>
29
1 -0.18
10 0.28
11 0.41
12 0.28
13 -0.14
14 -0.15
15 -0.15
16 0.39
17 0.18
18 -0.15
19 -0.15
2 -0.56
20 0.16
21 0.16
22 0.16
3 -0.36
34 0.15
35 0.15
36 0.15
37 0.15
38 0.15
39 0.15
4 -0.81
40 0.15
5 -0.62
6 -0.62
7 0.27
8 0.28
9 0.27

> <PUBCHEM_EFFECTIVE_ROTOR_COUNT>
5.4

> <PUBCHEM_PHARMACOPHORE_FEATURES>
6
1 2 acceptor
1 4 cation
1 6 acceptor
6 13 14 15 17 18 19 rings
6 5 6 16 20 21 22 rings
7 2 4 7 8 9 10 12 rings

> <PUBCHEM_HEAVY_ATOM_COUNT>
22

> <PUBCHEM_ATOM_DEF_STEREO_COUNT>
1

> <PUBCHEM_ATOM_UDEF_STEREO_COUNT>
0

> <PUBCHEM_BOND_DEF_STEREO_COUNT>
0

> <PUBCHEM_BOND_UDEF_STEREO_COUNT>
0

> <PUBCHEM_ISOTOPIC_ATOM_COUNT>
0

> <PUBCHEM_COMPONENT_COUNT>
1

> <PUBCHEM_CACTVS_TAUTO_COUNT>
1

> <PUBCHEM_CONFORMER_ID>
04809A1F00000005

> <PUBCHEM_MMFF94_ENERGY>
69.7162

> <PUBCHEM_FEATURE_SELFOVERLAP>
30.447

> <PUBCHEM_SHAPE_FINGERPRINT>
104564 63 18336555962150405854
1100329 8 17974287625870100922
11578080 2 17631714041775603202
12156800 1 11047372994959133061
12539773 59 17053615193541307715
12553582 1 18194687192278200724
12788726 201 18336278928607586332
13140716 1 18336260154931093464
138480 1 15958927668267462169
14178342 30 16032658728078031992
14251751 93 18264214616745058634
15338160 23 17904720516248353010
17138139 8 17908384067101014981
17357779 13 18264485259782509518
17492 54 17973995159913791765
18219364 16 17395849225494101331
19930381 70 17257089797438844307
21041028 32 18335427884463321658
21197605 99 18193574268227676553
21236236 1 18335988597761830150
22620623 9 18201167546741553310
23419403 2 15880024927215236274
238 59 16741961508454721837
3014063 31 18409167740303310641
35225 105 18338515218883072253
3524813 1 17533484883994144391
5171179 24 18058714927747690848
6438718 38 18272100348494016355
7226269 152 17899692655638354544
81228 2 18334291006778326032

> <PUBCHEM_SHAPE_MULTIPOLES>
427.94
5.85
5.17
1.49
2.54
6.47
-0.49
-3.9
-1.86
-1.76
0.69
-1.34
-1.07
-0.42

> <PUBCHEM_SHAPE_SELFOVERLAP>
896.396

> <PUBCHEM_SHAPE_VOLUME>
240

> <PUBCHEM_COORDINATE_TYPE>
2
5
10

$$$$
