45784211
  -OEChem-12032416343D

 44 47  0     1  0  0  0  0  0999 V2000
   -1.2945   -0.2244   -0.2309 N   0  0  1  0  0  0  0  0  0  0  0  0
    3.3407   -1.3289    0.2739 N   0  0  0  0  0  0  0  0  0  0  0  0
    2.7913    0.8167    0.0887 N   0  0  0  0  0  0  0  0  0  0  0  0
   -8.7816   -0.3046    0.7260 N   0  0  0  0  0  0  0  0  0  0  0  0
    0.8867   -0.8155    0.3955 C   0  0  1  0  0  0  0  0  0  0  0  0
    0.1564   -0.1936    1.5985 C   0  0  0  0  0  0  0  0  0  0  0  0
    0.0303   -0.4328   -0.8191 C   0  0  0  0  0  0  0  0  0  0  0  0
   -1.0465    0.5247    1.0009 C   0  0  0  0  0  0  0  0  0  0  0  0
    2.3336   -0.4046    0.2493 C   0  0  0  0  0  0  0  0  0  0  0  0
   -2.1984    0.4747   -1.1322 C   0  0  0  0  0  0  0  0  0  0  0  0
   -3.6382    0.3043   -0.7259 C   0  0  0  0  0  0  0  0  0  0  0  0
    4.5273   -0.6594    0.1184 C   0  0  0  0  0  0  0  0  0  0  0  0
    4.1578    0.6780    0.0051 C   0  0  0  0  0  0  0  0  0  0  0  0
    5.8517   -1.0954    0.0689 C   0  0  0  0  0  0  0  0  0  0  0  0
   -4.2989   -0.8962   -0.9863 C   0  0  0  0  0  0  0  0  0  0  0  0
   -4.3111    1.3470   -0.0890 C   0  0  0  0  0  0  0  0  0  0  0  0
    5.1557    1.6520   -0.1684 C   0  0  0  0  0  0  0  0  0  0  0  0
    6.8319   -0.1127   -0.1043 C   0  0  0  0  0  0  0  0  0  0  0  0
    6.4922    1.2372   -0.2209 C   0  0  0  0  0  0  0  0  0  0  0  0
   -5.6325   -1.0541   -0.6098 C   0  0  0  0  0  0  0  0  0  0  0  0
   -5.6449    1.1891    0.2873 C   0  0  0  0  0  0  0  0  0  0  0  0
   -6.3056   -0.0115    0.0271 C   0  0  0  0  0  0  0  0  0  0  0  0
    8.2687   -0.5165   -0.1656 C   0  0  0  0  0  0  0  0  0  0  0  0
   -7.6719   -0.1733    0.4129 C   0  0  0  0  0  0  0  0  0  0  0  0
    0.8456   -1.9079    0.5167 H   0  0  0  0  0  0  0  0  0  0  0  0
   -0.1782   -0.9915    2.2733 H   0  0  0  0  0  0  0  0  0  0  0  0
    0.7816    0.4923    2.1799 H   0  0  0  0  0  0  0  0  0  0  0  0
    0.0213   -1.2335   -1.5667 H   0  0  0  0  0  0  0  0  0  0  0  0
    0.4032    0.4816   -1.2996 H   0  0  0  0  0  0  0  0  0  0  0  0
   -0.7867    1.5720    0.7992 H   0  0  0  0  0  0  0  0  0  0  0  0
   -1.8982    0.5010    1.6879 H   0  0  0  0  0  0  0  0  0  0  0  0
   -1.9417    1.5380   -1.2330 H   0  0  0  0  0  0  0  0  0  0  0  0
   -2.1058    0.0611   -2.1465 H   0  0  0  0  0  0  0  0  0  0  0  0
    3.2339   -2.3284    0.3860 H   0  0  0  0  0  0  0  0  0  0  0  0
    6.1016   -2.1467    0.1626 H   0  0  0  0  0  0  0  0  0  0  0  0
   -3.7853   -1.7159   -1.4819 H   0  0  0  0  0  0  0  0  0  0  0  0
   -3.8074    2.2868    0.1211 H   0  0  0  0  0  0  0  0  0  0  0  0
    4.9018    2.7032   -0.2596 H   0  0  0  0  0  0  0  0  0  0  0  0
    7.2679    1.9882   -0.3533 H   0  0  0  0  0  0  0  0  0  0  0  0
   -6.1340   -1.9960   -0.8195 H   0  0  0  0  0  0  0  0  0  0  0  0
   -6.1560    2.0108    0.7833 H   0  0  0  0  0  0  0  0  0  0  0  0
    8.8264    0.1211   -0.8599 H   0  0  0  0  0  0  0  0  0  0  0  0
    8.3777   -1.5473   -0.5199 H   0  0  0  0  0  0  0  0  0  0  0  0
    8.7227   -0.4389    0.8273 H   0  0  0  0  0  0  0  0  0  0  0  0
  1  7  1  0  0  0  0
  1  8  1  0  0  0  0
  1 10  1  0  0  0  0
  2  9  1  0  0  0  0
  2 12  1  0  0  0  0
  2 34  1  0  0  0  0
  3  9  2  0  0  0  0
  3 13  1  0  0  0  0
  4 24  3  0  0  0  0
  5  6  1  0  0  0  0
  5  7  1  0  0  0  0
  5  9  1  0  0  0  0
  5 25  1  0  0  0  0
  6  8  1  0  0  0  0
  6 26  1  0  0  0  0
  6 27  1  0  0  0  0
  7 28  1  0  0  0  0
  7 29  1  0  0  0  0
  8 30  1  0  0  0  0
  8 31  1  0  0  0  0
 10 11  1  0  0  0  0
 10 32  1  0  0  0  0
 10 33  1  0  0  0  0
 11 15  2  0  0  0  0
 11 16  1  0  0  0  0
 12 13  2  0  0  0  0
 12 14  1  0  0  0  0
 13 17  1  0  0  0  0
 14 18  2  0  0  0  0
 14 35  1  0  0  0  0
 15 20  1  0  0  0  0
 15 36  1  0  0  0  0
 16 21  2  0  0  0  0
 16 37  1  0  0  0  0
 17 19  2  0  0  0  0
 17 38  1  0  0  0  0
 18 19  1  0  0  0  0
 18 23  1  0  0  0  0
 19 39  1  0  0  0  0
 20 22  2  0  0  0  0
 20 40  1  0  0  0  0
 21 22  1  0  0  0  0
 21 41  1  0  0  0  0
 22 24  1  0  0  0  0
 23 42  1  0  0  0  0
 23 43  1  0  0  0  0
 23 44  1  0  0  0  0
M  END
> <PUBCHEM_COMPOUND_CID>
45784211

> <PUBCHEM_CONFORMER_RMSD>
0.8

> <PUBCHEM_CONFORMER_DIVERSEORDER>
1
47
49
35
14
40
15
33
31
30
4
42
44
10
25
34
20
48
32
5
38
22
37
2
26
39
43
9
28
17
45
16
36
19
13
23
6
12
11
24
3
46
21
29
41
7
8
27
18

> <PUBCHEM_MMFF94_PARTIAL_CHARGES>
31
1 -0.81
10 0.41
11 -0.14
12 -0.15
13 0.23
14 -0.15
15 -0.15
16 -0.15
17 -0.15
18 -0.14
19 -0.15
2 0.03
20 -0.15
21 -0.15
22 0.07
23 0.14
24 0.48
3 -0.57
34 0.27
35 0.15
36 0.15
37 0.15
38 0.15
39 0.15
4 -0.56
40 0.15
41 0.15
5 0.18
7 0.27
8 0.27
9 0.01

> <PUBCHEM_EFFECTIVE_ROTOR_COUNT>
4

> <PUBCHEM_PHARMACOPHORE_FEATURES>
8
1 1 cation
1 2 donor
1 4 acceptor
3 2 3 9 cation
5 1 5 6 7 8 rings
5 2 3 9 12 13 rings
6 11 15 16 20 21 22 rings
6 12 13 14 17 18 19 rings

> <PUBCHEM_HEAVY_ATOM_COUNT>
24

> <PUBCHEM_ATOM_DEF_STEREO_COUNT>
1

> <PUBCHEM_ATOM_UDEF_STEREO_COUNT>
0

> <PUBCHEM_BOND_DEF_STEREO_COUNT>
0

> <PUBCHEM_BOND_UDEF_STEREO_COUNT>
0

> <PUBCHEM_ISOTOPIC_ATOM_COUNT>
0

> <PUBCHEM_COMPONENT_COUNT>
1

> <PUBCHEM_CACTVS_TAUTO_COUNT>
2

> <PUBCHEM_CONFORMER_ID>
02BA9C9300000001

> <PUBCHEM_MMFF94_ENERGY>
47.9991

> <PUBCHEM_FEATURE_SELFOVERLAP>
40.704

> <PUBCHEM_SHAPE_FINGERPRINT>
10 15 14418136236140817684
10299344 5 18272651255654538695
10595046 47 18411134710369893953
106641 1 14706929566424932028
11315181 36 18335421258473248945
11524674 6 15697996366854010199
11646440 116 17095245812966702324
12166972 35 18334858325141112524
12236239 1 18202280303942565460
12516196 113 16732982024824213261
12730499 353 17967531251476919226
13533116 47 17168132392138801906
14123256 10 17240482507455858163
14251752 14 17632858616136911848
14251764 18 17918273165080798823
14251764 46 18409449184772151490
14849402 71 18263368138657958165
14856354 85 17847063311724542501
14933364 13 18412544310020262757
15183329 4 18342733005384484876
15419008 47 16153419562903438733
15461852 350 14129063629819008499
15537594 2 16056875823360786094
15716309 27 18410292510813193439
15849732 13 12757152376806587698
17093844 174 13326851141621393295
18006028 8 11743839166207875978
18335252 98 18408608045808804563
19489759 90 11025796483966267303
20157964 124 18408041815048631370
21095086 128 18408322190065620163
21150785 3 14056722348495369783
21267235 1 18411983538306227108
21315763 28 18410292501695783552
21521721 280 18335139821206888427
21792961 116 17560802083050819009
22224240 67 16443065006219621305
23035841 295 18060418019423796775
23198884 109 18410011039783173657
232437 2 18409730673799789611
23516275 137 18058188162525518407
23536379 177 18342174453583043628
23569943 247 17098326502840359890
23622692 88 14418137322651596230
249057 3 18413106186210657303
2747138 104 17240771696252406861
28498 318 11527954443176318712
29717793 49 17775289357569617292
3004659 81 18202280299906112954
314173 85 14189575251657581074
335352 9 15913322507824162017
34797466 226 18343025492847285924
3545911 37 18040151816842533526
4073 2 18041563649950100498
4325135 7 18409167714512349477
5283156 175 17275389785756517734
5758199 1 18040435490315063795
59682541 35 16805327725268629217
59755656 520 18040428915026712210
9663363 56 15267339608941044299

> <PUBCHEM_SHAPE_MULTIPOLES>
473.98
24.68
1.27
0.97
6.3
0.22
-0.09
-0.35
-0.35
-0.69
0.06
0.67
-0.04
-0.45

> <PUBCHEM_SHAPE_SELFOVERLAP>
1038.033

> <PUBCHEM_SHAPE_VOLUME>
256.1

> <PUBCHEM_COORDINATE_TYPE>
2
5
10

$$$$
