38028829
  -OEChem-12032416143D

 68 70  0     1  0  0  0  0  0999 V2000
   -3.3068   -1.9895    0.3105 O   0  0  0  0  0  0  0  0  0  0  0  0
    3.4931    0.8835    1.3045 O   0  0  0  0  0  0  0  0  0  0  0  0
    2.8020   -0.0582   -0.7118 N   0  0  0  0  0  0  0  0  0  0  0  0
   -3.5254    0.3073    0.1897 N   0  0  0  0  0  0  0  0  0  0  0  0
    1.0073   -2.0599    0.6357 C   0  0  1  0  0  0  0  0  0  0  0  0
    2.0043   -2.3544   -0.5129 C   0  0  1  0  0  0  0  0  0  0  0  0
   -0.3579   -2.6982    0.3375 C   0  0  0  0  0  0  0  0  0  0  0  0
   -0.9662   -2.1836   -0.9807 C   0  0  2  0  0  0  0  0  0  0  0  0
    1.5306   -2.5610    1.9855 C   0  0  0  0  0  0  0  0  0  0  0  0
    0.0455   -2.1919   -2.1087 C   0  0  0  0  0  0  0  0  0  0  0  0
    1.3679   -2.2824   -1.8811 C   0  0  0  0  0  0  0  0  0  0  0  0
    3.2069   -1.4053   -0.4585 C   0  0  0  0  0  0  0  0  0  0  0  0
   -1.5756   -0.7888   -0.8004 C   0  0  0  0  0  0  0  0  0  0  0  0
    0.8918   -1.7777    3.1278 C   0  0  0  0  0  0  0  0  0  0  0  0
    1.2634   -4.0550    2.1381 C   0  0  0  0  0  0  0  0  0  0  0  0
    2.4872    2.2991   -0.3318 C   0  0  0  0  0  0  0  0  0  0  0  0
   -0.5007   -2.1397   -3.5085 C   0  0  0  0  0  0  0  0  0  0  0  0
   -2.8779   -0.8914   -0.0477 C   0  0  0  0  0  0  0  0  0  0  0  0
    0.9930    2.2089   -0.6451 C   0  0  0  0  0  0  0  0  0  0  0  0
    2.7799    3.3946    0.6950 C   0  0  0  0  0  0  0  0  0  0  0  0
    2.9780    0.9854    0.1942 C   0  0  0  0  0  0  0  0  0  0  0  0
    0.4312    3.5580   -1.0864 C   0  0  0  0  0  0  0  0  0  0  0  0
    2.2134    4.7419    0.2546 C   0  0  0  0  0  0  0  0  0  0  0  0
    0.7231    4.6504   -0.0614 C   0  0  0  0  0  0  0  0  0  0  0  0
   -4.7955    0.3776    0.8972 C   0  0  0  0  0  0  0  0  0  0  0  0
   -3.0706    1.6374   -0.2032 C   0  0  0  0  0  0  0  0  0  0  0  0
   -4.9717    1.8540    1.2171 C   0  0  0  0  0  0  0  0  0  0  0  0
   -4.2705    2.5389    0.0507 C   0  0  0  0  0  0  0  0  0  0  0  0
    0.8648   -0.9756    0.7080 H   0  0  0  0  0  0  0  0  0  0  0  0
    2.3912   -3.3759   -0.4095 H   0  0  0  0  0  0  0  0  0  0  0  0
   -1.0507   -2.5425    1.1697 H   0  0  0  0  0  0  0  0  0  0  0  0
   -0.2578   -3.7842    0.2122 H   0  0  0  0  0  0  0  0  0  0  0  0
   -1.7533   -2.8963   -1.2653 H   0  0  0  0  0  0  0  0  0  0  0  0
    2.6112   -2.4010    2.0594 H   0  0  0  0  0  0  0  0  0  0  0  0
    2.0453   -2.3314   -2.7316 H   0  0  0  0  0  0  0  0  0  0  0  0
    3.9315   -1.6676   -1.2391 H   0  0  0  0  0  0  0  0  0  0  0  0
    3.7382   -1.4714    0.4948 H   0  0  0  0  0  0  0  0  0  0  0  0
   -1.7996   -0.3375   -1.7727 H   0  0  0  0  0  0  0  0  0  0  0  0
   -0.9010   -0.1158   -0.2656 H   0  0  0  0  0  0  0  0  0  0  0  0
    1.1060   -0.7073    3.0361 H   0  0  0  0  0  0  0  0  0  0  0  0
    1.2932   -2.1112    4.0912 H   0  0  0  0  0  0  0  0  0  0  0  0
   -0.1946   -1.9040    3.1635 H   0  0  0  0  0  0  0  0  0  0  0  0
    0.2086   -4.2875    2.3190 H   0  0  0  0  0  0  0  0  0  0  0  0
    1.8050   -4.4290    3.0159 H   0  0  0  0  0  0  0  0  0  0  0  0
    1.6206   -4.6380    1.2841 H   0  0  0  0  0  0  0  0  0  0  0  0
    3.0393    2.5214   -1.2547 H   0  0  0  0  0  0  0  0  0  0  0  0
    2.4576    0.1581   -1.6423 H   0  0  0  0  0  0  0  0  0  0  0  0
   -1.2226   -2.9478   -3.6654 H   0  0  0  0  0  0  0  0  0  0  0  0
    0.2869   -2.2546   -4.2611 H   0  0  0  0  0  0  0  0  0  0  0  0
   -0.9988   -1.1852   -3.7005 H   0  0  0  0  0  0  0  0  0  0  0  0
    0.4478    1.8628    0.2427 H   0  0  0  0  0  0  0  0  0  0  0  0
    0.7920    1.4784   -1.4365 H   0  0  0  0  0  0  0  0  0  0  0  0
    3.8615    3.4916    0.8507 H   0  0  0  0  0  0  0  0  0  0  0  0
    2.3449    3.1335    1.6692 H   0  0  0  0  0  0  0  0  0  0  0  0
   -0.6507    3.4760   -1.2387 H   0  0  0  0  0  0  0  0  0  0  0  0
    0.8695    3.8371   -2.0525 H   0  0  0  0  0  0  0  0  0  0  0  0
    2.7535    5.0910   -0.6340 H   0  0  0  0  0  0  0  0  0  0  0  0
    2.3783    5.4865    1.0414 H   0  0  0  0  0  0  0  0  0  0  0  0
    0.3662    5.6152   -0.4390 H   0  0  0  0  0  0  0  0  0  0  0  0
    0.1667    4.4422    0.8609 H   0  0  0  0  0  0  0  0  0  0  0  0
   -4.7818   -0.2573    1.7880 H   0  0  0  0  0  0  0  0  0  0  0  0
   -5.5753    0.0170    0.2175 H   0  0  0  0  0  0  0  0  0  0  0  0
   -2.7467    1.6571   -1.2468 H   0  0  0  0  0  0  0  0  0  0  0  0
   -2.2262    1.9051    0.4410 H   0  0  0  0  0  0  0  0  0  0  0  0
   -6.0218    2.1422    1.3150 H   0  0  0  0  0  0  0  0  0  0  0  0
   -4.4574    2.1000    2.1540 H   0  0  0  0  0  0  0  0  0  0  0  0
   -3.9830    3.5709    0.2693 H   0  0  0  0  0  0  0  0  0  0  0  0
   -4.9293    2.5430   -0.8260 H   0  0  0  0  0  0  0  0  0  0  0  0
  1 18  2  0  0  0  0
  2 21  2  0  0  0  0
  3 12  1  0  0  0  0
  3 21  1  0  0  0  0
  3 47  1  0  0  0  0
  4 18  1  0  0  0  0
  4 25  1  0  0  0  0
  4 26  1  0  0  0  0
  5  6  1  0  0  0  0
  5  7  1  0  0  0  0
  5  9  1  0  0  0  0
  5 29  1  0  0  0  0
  6 11  1  0  0  0  0
  6 12  1  0  0  0  0
  6 30  1  0  0  0  0
  7  8  1  0  0  0  0
  7 31  1  0  0  0  0
  7 32  1  0  0  0  0
  8 10  1  0  0  0  0
  8 13  1  0  0  0  0
  8 33  1  0  0  0  0
  9 14  1  0  0  0  0
  9 15  1  0  0  0  0
  9 34  1  0  0  0  0
 10 11  2  0  0  0  0
 10 17  1  0  0  0  0
 11 35  1  0  0  0  0
 12 36  1  0  0  0  0
 12 37  1  0  0  0  0
 13 18  1  0  0  0  0
 13 38  1  0  0  0  0
 13 39  1  0  0  0  0
 14 40  1  0  0  0  0
 14 41  1  0  0  0  0
 14 42  1  0  0  0  0
 15 43  1  0  0  0  0
 15 44  1  0  0  0  0
 15 45  1  0  0  0  0
 16 19  1  0  0  0  0
 16 20  1  0  0  0  0
 16 21  1  0  0  0  0
 16 46  1  0  0  0  0
 17 48  1  0  0  0  0
 17 49  1  0  0  0  0
 17 50  1  0  0  0  0
 19 22  1  0  0  0  0
 19 51  1  0  0  0  0
 19 52  1  0  0  0  0
 20 23  1  0  0  0  0
 20 53  1  0  0  0  0
 20 54  1  0  0  0  0
 22 24  1  0  0  0  0
 22 55  1  0  0  0  0
 22 56  1  0  0  0  0
 23 24  1  0  0  0  0
 23 57  1  0  0  0  0
 23 58  1  0  0  0  0
 24 59  1  0  0  0  0
 24 60  1  0  0  0  0
 25 27  1  0  0  0  0
 25 61  1  0  0  0  0
 25 62  1  0  0  0  0
 26 28  1  0  0  0  0
 26 63  1  0  0  0  0
 26 64  1  0  0  0  0
 27 28  1  0  0  0  0
 27 65  1  0  0  0  0
 27 66  1  0  0  0  0
 28 67  1  0  0  0  0
 28 68  1  0  0  0  0
M  END
> <PUBCHEM_COMPOUND_CID>
38028829

> <PUBCHEM_CONFORMER_RMSD>
1.2

> <PUBCHEM_CONFORMER_DIVERSEORDER>
1
100
26
25
60
82
57
75
97
109
79
2
24
9
107
16
110
3
70
63
73
95
64
45
92
35
8
66
49
59
98
80
21
43
101
36
12
52
33
41
84
6
17
30
112
44
86
93
51
87
40
96
62
10
42
23
27
65
83
104
76
4
28
78
72
14
71
106
105
46
56
90
54
81
31
61
58
55
38
67
74
94
32
53
11
111
88
19
99
50
68
7
37
91
47
69
13
102
34
5
18
29
15
77
103
22
89
48
85
108
20
39

> <PUBCHEM_MMFF94_PARTIAL_CHARGES>
18
1 -0.57
10 -0.28
11 -0.29
12 0.3
13 0.06
16 0.06
17 0.14
18 0.57
2 -0.57
21 0.57
25 0.3
26 0.3
3 -0.73
35 0.15
4 -0.66
47 0.37
6 0.14
8 0.14

> <PUBCHEM_EFFECTIVE_ROTOR_COUNT>
11

> <PUBCHEM_PHARMACOPHORE_FEATURES>
7
1 1 acceptor
1 2 acceptor
1 3 donor
3 9 14 15 hydrophobe
5 4 25 26 27 28 rings
6 16 19 20 22 23 24 rings
6 5 6 7 8 10 11 rings

> <PUBCHEM_HEAVY_ATOM_COUNT>
28

> <PUBCHEM_ATOM_DEF_STEREO_COUNT>
3

> <PUBCHEM_ATOM_UDEF_STEREO_COUNT>
0

> <PUBCHEM_BOND_DEF_STEREO_COUNT>
0

> <PUBCHEM_BOND_UDEF_STEREO_COUNT>
0

> <PUBCHEM_ISOTOPIC_ATOM_COUNT>
0

> <PUBCHEM_COMPONENT_COUNT>
1

> <PUBCHEM_CACTVS_TAUTO_COUNT>
2

> <PUBCHEM_CONFORMER_ID>
0244461D00000001

> <PUBCHEM_MMFF94_ENERGY>
48.284

> <PUBCHEM_FEATURE_SELFOVERLAP>
35.522

> <PUBCHEM_SHAPE_FINGERPRINT>
10006869 2 17977649927874169228
108634 29 16612226742785307837
11221954 11 18050014586214384046
11421498 54 17466256048630538475
12107698 1 18197220458479162526
12156800 1 16089869061959441100
12293681 4 17974308537734127458
12422481 6 18124571142828588314
12539773 59 13952060240105292367
12788726 201 17405141215329503205
12978246 48 18196652011020447225
13122387 1 16682322812348298629
13583140 156 18041558032349011783
13761468 95 16760895558389696248
13965767 371 17986085471229560842
14028597 1 17606121672396079554
15420108 30 18058430067650883372
15475509 84 17467350019766028235
20600515 1 16463039495097062446
20764821 26 15960059065922984401
20905425 154 17976260136470863172
21475661 188 18409732884689660071
21716022 299 15049794550770041095
21860390 5 18200602384410093229
23558518 356 17976539734288207599
3052486 1 16679228786543107094
35225 105 16374092813634499858
392239 28 17899986224853016467
394071 54 18056213375770606257
469060 322 14350263567424757387
5081480 168 17055037686514252639
57091435 65 18117550739156643114
5939293 188 18268711619117896999
7288768 16 17755292719039642392

> <PUBCHEM_SHAPE_MULTIPOLES>
554.53
6.96
6.58
2.37
11.41
8.84
0.32
0.14
-2.72
-3.58
-0.45
-1.33
-2.88
-0.39

> <PUBCHEM_SHAPE_SELFOVERLAP>
1132.88

> <PUBCHEM_SHAPE_VOLUME>
319

> <PUBCHEM_COORDINATE_TYPE>
2
5
10

$$$$
