75367061
  -OEChem-12032416393D

 54 55  0     1  0  0  0  0  0999 V2000
    0.6518    0.0329   -0.3461 O   0  0  0  0  0  0  0  0  0  0  0  0
   -1.0812   -2.6734    1.2596 O   0  0  0  0  0  0  0  0  0  0  0  0
    3.2399   -0.3642   -1.8862 O   0  0  0  0  0  0  0  0  0  0  0  0
   -2.8812   -0.8140   -0.5233 N   0  0  0  0  0  0  0  0  0  0  0  0
    3.0752   -1.4461    0.1640 N   0  0  0  0  0  0  0  0  0  0  0  0
   -1.5963   -0.5793    0.1151 C   0  0  1  0  0  0  0  0  0  0  0  0
   -3.8024    0.2931   -0.2742 C   0  0  0  0  0  0  0  0  0  0  0  0
   -0.7206   -1.8161    0.1940 C   0  0  1  0  0  0  0  0  0  0  0  0
    0.6513   -1.1909    0.4078 C   0  0  1  0  0  0  0  0  0  0  0  0
   -4.9140    0.2931   -1.3294 C   0  0  0  0  0  0  0  0  0  0  0  0
   -4.3826    0.1800    1.1399 C   0  0  0  0  0  0  0  0  0  0  0  0
   -0.7079    0.3684   -0.6739 C   0  0  0  0  0  0  0  0  0  0  0  0
   -5.9404    1.3914   -1.0565 C   0  0  0  0  0  0  0  0  0  0  0  0
   -5.4090    1.2789    1.4095 C   0  0  0  0  0  0  0  0  0  0  0  0
   -6.5118    1.2898    0.3548 C   0  0  0  0  0  0  0  0  0  0  0  0
    1.7939   -2.0782   -0.0530 C   0  0  0  0  0  0  0  0  0  0  0  0
    4.9738    1.2795    0.3844 C   0  0  0  0  0  0  0  0  0  0  0  0
    5.0355   -0.1018   -0.3099 C   0  0  0  0  0  0  0  0  0  0  0  0
    3.6921   -0.6387   -0.7764 C   0  0  0  0  0  0  0  0  0  0  0  0
    4.0537    1.2505    1.6158 C   0  0  0  0  0  0  0  0  0  0  0  0
    6.3754    1.7491    0.8090 C   0  0  0  0  0  0  0  0  0  0  0  0
    4.4047    2.2960   -0.6248 C   0  0  0  0  0  0  0  0  0  0  0  0
   -1.7160   -0.2032    1.1380 H   0  0  0  0  0  0  0  0  0  0  0  0
   -3.2784    1.2535   -0.3678 H   0  0  0  0  0  0  0  0  0  0  0  0
   -0.7547   -2.3842   -0.7440 H   0  0  0  0  0  0  0  0  0  0  0  0
    0.8010   -0.9247    1.4625 H   0  0  0  0  0  0  0  0  0  0  0  0
   -3.2876   -1.6856   -0.1847 H   0  0  0  0  0  0  0  0  0  0  0  0
   -5.4252   -0.6787   -1.3405 H   0  0  0  0  0  0  0  0  0  0  0  0
   -4.4862    0.4381   -2.3291 H   0  0  0  0  0  0  0  0  0  0  0  0
   -3.6055    0.2516    1.9076 H   0  0  0  0  0  0  0  0  0  0  0  0
   -4.8681   -0.7961    1.2732 H   0  0  0  0  0  0  0  0  0  0  0  0
   -0.8194    0.2397   -1.7568 H   0  0  0  0  0  0  0  0  0  0  0  0
   -0.8872    1.4202   -0.4316 H   0  0  0  0  0  0  0  0  0  0  0  0
   -6.7532    1.3259   -1.7887 H   0  0  0  0  0  0  0  0  0  0  0  0
   -5.4688    2.3729   -1.1898 H   0  0  0  0  0  0  0  0  0  0  0  0
   -4.9057    2.2535    1.4223 H   0  0  0  0  0  0  0  0  0  0  0  0
   -5.8512    1.1348    2.4019 H   0  0  0  0  0  0  0  0  0  0  0  0
   -7.1903    2.1302    0.5393 H   0  0  0  0  0  0  0  0  0  0  0  0
   -7.1078    0.3729    0.4413 H   0  0  0  0  0  0  0  0  0  0  0  0
    1.7014   -2.2993   -1.1225 H   0  0  0  0  0  0  0  0  0  0  0  0
    1.7987   -3.0237    0.4985 H   0  0  0  0  0  0  0  0  0  0  0  0
   -1.0510   -2.1630    2.0865 H   0  0  0  0  0  0  0  0  0  0  0  0
    3.5292   -1.6035    1.0588 H   0  0  0  0  0  0  0  0  0  0  0  0
    5.4954   -0.8341    0.3666 H   0  0  0  0  0  0  0  0  0  0  0  0
    5.6907   -0.0568   -1.1897 H   0  0  0  0  0  0  0  0  0  0  0  0
    3.0112    1.0512    1.3480 H   0  0  0  0  0  0  0  0  0  0  0  0
    4.0694    2.2135    2.1394 H   0  0  0  0  0  0  0  0  0  0  0  0
    4.3756    0.4825    2.3278 H   0  0  0  0  0  0  0  0  0  0  0  0
    6.8172    1.0540    1.5316 H   0  0  0  0  0  0  0  0  0  0  0  0
    7.0495    1.8068   -0.0529 H   0  0  0  0  0  0  0  0  0  0  0  0
    6.3425    2.7402    1.2749 H   0  0  0  0  0  0  0  0  0  0  0  0
    3.3624    2.0825   -0.8840 H   0  0  0  0  0  0  0  0  0  0  0  0
    4.9901    2.3077   -1.5512 H   0  0  0  0  0  0  0  0  0  0  0  0
    4.4266    3.3107   -0.2100 H   0  0  0  0  0  0  0  0  0  0  0  0
  1  9  1  0  0  0  0
  1 12  1  0  0  0  0
  2  8  1  0  0  0  0
  2 42  1  0  0  0  0
  3 19  2  0  0  0  0
  4  6  1  0  0  0  0
  4  7  1  0  0  0  0
  4 27  1  0  0  0  0
  5 16  1  0  0  0  0
  5 19  1  0  0  0  0
  5 43  1  0  0  0  0
  6  8  1  0  0  0  0
  6 12  1  0  0  0  0
  6 23  1  0  0  0  0
  7 10  1  0  0  0  0
  7 11  1  0  0  0  0
  7 24  1  0  0  0  0
  8  9  1  0  0  0  0
  8 25  1  0  0  0  0
  9 16  1  0  0  0  0
  9 26  1  0  0  0  0
 10 13  1  0  0  0  0
 10 28  1  0  0  0  0
 10 29  1  0  0  0  0
 11 14  1  0  0  0  0
 11 30  1  0  0  0  0
 11 31  1  0  0  0  0
 12 32  1  0  0  0  0
 12 33  1  0  0  0  0
 13 15  1  0  0  0  0
 13 34  1  0  0  0  0
 13 35  1  0  0  0  0
 14 15  1  0  0  0  0
 14 36  1  0  0  0  0
 14 37  1  0  0  0  0
 15 38  1  0  0  0  0
 15 39  1  0  0  0  0
 16 40  1  0  0  0  0
 16 41  1  0  0  0  0
 17 18  1  0  0  0  0
 17 20  1  0  0  0  0
 17 21  1  0  0  0  0
 17 22  1  0  0  0  0
 18 19  1  0  0  0  0
 18 44  1  0  0  0  0
 18 45  1  0  0  0  0
 20 46  1  0  0  0  0
 20 47  1  0  0  0  0
 20 48  1  0  0  0  0
 21 49  1  0  0  0  0
 21 50  1  0  0  0  0
 21 51  1  0  0  0  0
 22 52  1  0  0  0  0
 22 53  1  0  0  0  0
 22 54  1  0  0  0  0
M  END
> <PUBCHEM_COMPOUND_CID>
75367061

> <PUBCHEM_CONFORMER_RMSD>
1

> <PUBCHEM_CONFORMER_DIVERSEORDER>
1
13
130
91
6
84
43
18
132
109
136
89
77
119
140
104
110
55
39
128
36
129
137
116
105
90
120
94
123
35
92
135
70
57
10
14
59
78
63
4
99
34
124
64
114
134
126
96
33
29
56
127
41
7
93
112
60
121
86
117
85
31
108
79
73
9
81
52
27
12
133
76
25
88
80
72
102
115
65
28
53
139
131
24
82
125
15
17
62
98
8
5
50
100
97
67
75
58
95
40
45
69
20
37
118
21
61
68
11
113
32
19
106
71
47
42
30
48
103
22
83
66
101
54
111
74
23
2
16
49
138
51
26
38
44
87
107
3
122
46

> <PUBCHEM_MMFF94_PARTIAL_CHARGES>
16
1 -0.56
12 0.28
16 0.3
18 0.06
19 0.57
2 -0.68
27 0.36
3 -0.57
4 -0.9
42 0.4
43 0.37
5 -0.73
6 0.27
7 0.27
8 0.28
9 0.28

> <PUBCHEM_EFFECTIVE_ROTOR_COUNT>
9.2

> <PUBCHEM_PHARMACOPHORE_FEATURES>
10
1 1 acceptor
1 2 acceptor
1 2 donor
1 3 acceptor
1 4 cation
1 4 donor
1 5 donor
4 17 20 21 22 hydrophobe
5 1 6 8 9 12 rings
6 7 10 11 13 14 15 rings

> <PUBCHEM_HEAVY_ATOM_COUNT>
22

> <PUBCHEM_ATOM_DEF_STEREO_COUNT>
3

> <PUBCHEM_ATOM_UDEF_STEREO_COUNT>
0

> <PUBCHEM_BOND_DEF_STEREO_COUNT>
0

> <PUBCHEM_BOND_UDEF_STEREO_COUNT>
0

> <PUBCHEM_ISOTOPIC_ATOM_COUNT>
0

> <PUBCHEM_COMPONENT_COUNT>
1

> <PUBCHEM_CACTVS_TAUTO_COUNT>
2

> <PUBCHEM_CONFORMER_ID>
047E029500000001

> <PUBCHEM_MMFF94_ENERGY>
33.4756

> <PUBCHEM_FEATURE_SELFOVERLAP>
50.746

> <PUBCHEM_SHAPE_FINGERPRINT>
10 15 17458351857465297557
10319926 262 15213574538552285551
10692045 39 17822561708432775026
11089746 13 18131632261983253426
12236239 1 18130787811911058743
12403259 118 16877664565332138423
12403259 415 18114740434860068438
12633257 1 18042392690454947460
13533116 47 18263362499929874490
13551218 46 11097854090583538305
13631057 29 18269546312739566751
13668630 136 10591753290934075829
13685833 64 8502657017446021140
13690498 29 15768349794983065965
13955234 65 18189896405220917314
14123256 34 8358264773756813192
1420 369 8430597215272579123
14211702 104 7925326551509116641
14251740 57 12973878179141455072
14251764 30 10015865388061580661
14251764 75 17899708044211479012
14366163 111 17775849008144142754
14528608 73 17703784825473408405
15183329 4 16415763020227012217
15348495 7 17313391166000649048
16079462 125 17749665195781287885
17349148 13 7925626735040640647
17834072 33 17132110251765310045
17870717 6 13901903406771327661
17959699 21 18059860558090407456
1813 80 11312054361426705290
18222031 100 10375867455078766623
20645477 56 18040433299903017286
20715895 44 18410008858182834984
21033648 29 17749387010807535237
21150785 3 16415473874565311237
21315763 76 18342453763854656344
21774942 28 17275109397433245280
22061861 79 11815890150617994481
22224240 67 18113623374729293307
23559900 14 18410018736945297590
25122255 55 9799397954375652997
2748736 6 18411131459090720120
2767999 5 18410289216093385397
2838139 119 17846497032454568217
2916195 48 18408886239535684163
293599 30 18334859402897802647
300161 21 18409726245013170447
3004659 81 15984829164726643614
3014063 24 10881690134880651529
3089732 80 10663817494520646341
3472631 163 18272370892736559550
34797466 226 17561086891133141893
3680242 22 18187077356702477088
4340502 62 16298387933326487435
465052 167 7997970189380659296
5104073 3 18187083961782358882
543368 44 18202561783414943793
59682541 52 16558747875968722245
960060 61 15267346206163681158

> <PUBCHEM_SHAPE_MULTIPOLES>
425.18
16.77
2.25
1.35
5.8
0.46
0.01
-12.65
0.64
-1.58
0.48
0.37
-0.21
0.62

> <PUBCHEM_SHAPE_SELFOVERLAP>
848.82

> <PUBCHEM_SHAPE_VOLUME>
251.9

> <PUBCHEM_COORDINATE_TYPE>
2
5
10

$$$$
