7051829
  -OEChem-12032416253D

 51 55  0     1  0  0  0  0  0999 V2000
   -2.7390    2.3302   -2.7605 O   0  0  0  0  0  0  0  0  0  0  0  0
    0.4016    2.0746    1.1034 N   0  0  2  0  0  0  0  0  0  0  0  0
   -2.1295    1.3971   -0.7008 N   0  0  0  0  0  0  0  0  0  0  0  0
   -2.0376   -4.1227    1.3798 N   0  0  0  0  0  0  0  0  0  0  0  0
    2.8779   -0.9879   -3.4852 N   0  0  0  0  0  0  0  0  0  0  0  0
   -1.9642    2.8192    1.4284 C   0  0  1  0  0  0  0  0  0  0  0  0
   -1.4390    0.4304    1.5131 C   0  0  2  0  0  0  0  0  0  0  0  0
   -2.3052    1.5204    2.1394 C   0  0  0  0  0  0  0  0  0  0  0  0
   -0.4673    3.1474    1.6003 C   0  0  0  0  0  0  0  0  0  0  0  0
    0.0544    0.7832    1.7130 C   0  0  0  0  0  0  0  0  0  0  0  0
   -2.3695    2.6888   -0.0418 C   0  0  0  0  0  0  0  0  0  0  0  0
   -1.7614    0.2483    0.0272 C   0  0  0  0  0  0  0  0  0  0  0  0
    1.8094    2.3960    1.3251 C   0  0  0  0  0  0  0  0  0  0  0  0
   -1.6875   -0.9549   -0.5991 C   0  0  0  0  0  0  0  0  0  0  0  0
   -2.4002    1.3615   -2.0801 C   0  0  0  0  0  0  0  0  0  0  0  0
   -1.9552   -1.0298   -2.0228 C   0  0  0  0  0  0  0  0  0  0  0  0
   -2.2787    0.0436   -2.7437 C   0  0  0  0  0  0  0  0  0  0  0  0
    2.7222    1.3564    0.7311 C   0  0  0  0  0  0  0  0  0  0  0  0
   -1.3253   -2.1906    0.1287 C   0  0  0  0  0  0  0  0  0  0  0  0
    2.4747    0.8794   -0.5484 C   0  0  0  0  0  0  0  0  0  0  0  0
    3.7989    0.8898    1.4723 C   0  0  0  0  0  0  0  0  0  0  0  0
   -0.0004   -2.5780    0.2496 C   0  0  0  0  0  0  0  0  0  0  0  0
   -2.3000   -2.9828    0.7021 C   0  0  0  0  0  0  0  0  0  0  0  0
    3.3208   -0.0838   -1.0979 C   0  0  0  0  0  0  0  0  0  0  0  0
    4.6451   -0.0733    0.9227 C   0  0  0  0  0  0  0  0  0  0  0  0
    0.3093   -3.7447    0.9397 C   0  0  0  0  0  0  0  0  0  0  0  0
    4.4059   -0.5601   -0.3623 C   0  0  0  0  0  0  0  0  0  0  0  0
   -0.7363   -4.4749    1.4813 C   0  0  0  0  0  0  0  0  0  0  0  0
    3.0764   -0.5825   -2.4147 C   0  0  0  0  0  0  0  0  0  0  0  0
   -2.5361    3.6428    1.8737 H   0  0  0  0  0  0  0  0  0  0  0  0
   -1.6477   -0.4909    2.0688 H   0  0  0  0  0  0  0  0  0  0  0  0
   -3.3714    1.2837    2.0353 H   0  0  0  0  0  0  0  0  0  0  0  0
   -2.0981    1.6055    3.2132 H   0  0  0  0  0  0  0  0  0  0  0  0
   -0.2471    4.0771    1.0609 H   0  0  0  0  0  0  0  0  0  0  0  0
   -0.2681    3.3397    2.6635 H   0  0  0  0  0  0  0  0  0  0  0  0
    0.2667    0.8060    2.7913 H   0  0  0  0  0  0  0  0  0  0  0  0
    0.6520   -0.0332    1.3002 H   0  0  0  0  0  0  0  0  0  0  0  0
   -3.4522    2.8608   -0.1194 H   0  0  0  0  0  0  0  0  0  0  0  0
   -1.8984    3.4793   -0.6400 H   0  0  0  0  0  0  0  0  0  0  0  0
    2.0107    2.5138    2.3984 H   0  0  0  0  0  0  0  0  0  0  0  0
    2.0557    3.3536    0.8481 H   0  0  0  0  0  0  0  0  0  0  0  0
   -1.8752   -1.9969   -2.5107 H   0  0  0  0  0  0  0  0  0  0  0  0
   -2.4721   -0.0209   -3.8078 H   0  0  0  0  0  0  0  0  0  0  0  0
    1.6377    1.2565   -1.1320 H   0  0  0  0  0  0  0  0  0  0  0  0
    3.9963    1.2615    2.4736 H   0  0  0  0  0  0  0  0  0  0  0  0
    0.8010   -1.9926   -0.1915 H   0  0  0  0  0  0  0  0  0  0  0  0
   -3.3537   -2.7278    0.6397 H   0  0  0  0  0  0  0  0  0  0  0  0
    5.4901   -0.4442    1.4954 H   0  0  0  0  0  0  0  0  0  0  0  0
    1.3366   -4.0728    1.0485 H   0  0  0  0  0  0  0  0  0  0  0  0
    5.0742   -1.3110   -0.7769 H   0  0  0  0  0  0  0  0  0  0  0  0
   -0.5478   -5.3926    2.0284 H   0  0  0  0  0  0  0  0  0  0  0  0
  1 15  2  0  0  0  0
  2  9  1  0  0  0  0
  2 10  1  0  0  0  0
  2 13  1  0  0  0  0
  3 11  1  0  0  0  0
  3 12  1  0  0  0  0
  3 15  1  0  0  0  0
  4 23  1  0  0  0  0
  4 28  2  0  0  0  0
  5 29  3  0  0  0  0
  6  8  1  0  0  0  0
  6  9  1  0  0  0  0
  6 11  1  0  0  0  0
  6 30  1  0  0  0  0
  7  8  1  0  0  0  0
  7 10  1  0  0  0  0
  7 12  1  0  0  0  0
  7 31  1  0  0  0  0
  8 32  1  0  0  0  0
  8 33  1  0  0  0  0
  9 34  1  0  0  0  0
  9 35  1  0  0  0  0
 10 36  1  0  0  0  0
 10 37  1  0  0  0  0
 11 38  1  0  0  0  0
 11 39  1  0  0  0  0
 12 14  2  0  0  0  0
 13 18  1  0  0  0  0
 13 40  1  0  0  0  0
 13 41  1  0  0  0  0
 14 16  1  0  0  0  0
 14 19  1  0  0  0  0
 15 17  1  0  0  0  0
 16 17  2  0  0  0  0
 16 42  1  0  0  0  0
 17 43  1  0  0  0  0
 18 20  2  0  0  0  0
 18 21  1  0  0  0  0
 19 22  1  0  0  0  0
 19 23  2  0  0  0  0
 20 24  1  0  0  0  0
 20 44  1  0  0  0  0
 21 25  2  0  0  0  0
 21 45  1  0  0  0  0
 22 26  2  0  0  0  0
 22 46  1  0  0  0  0
 23 47  1  0  0  0  0
 24 27  2  0  0  0  0
 24 29  1  0  0  0  0
 25 27  1  0  0  0  0
 25 48  1  0  0  0  0
 26 28  1  0  0  0  0
 26 49  1  0  0  0  0
 27 50  1  0  0  0  0
 28 51  1  0  0  0  0
M  END
> <PUBCHEM_COMPOUND_CID>
7051829

> <PUBCHEM_CONFORMER_RMSD>
0.8

> <PUBCHEM_CONFORMER_DIVERSEORDER>
1
10
6
4
5
9
3
7
12
13
11
8
14
2

> <PUBCHEM_MMFF94_PARTIAL_CHARGES>
37
1 -0.57
10 0.27
11 0.3
12 -0.03
13 0.41
14 -0.03
15 0.62
16 -0.15
17 -0.14
18 -0.14
19 0.03
2 -0.81
20 -0.15
21 -0.15
22 -0.15
23 0.16
24 0.07
25 -0.15
26 -0.15
27 -0.15
28 0.16
29 0.48
3 -0.47
4 -0.62
42 0.15
43 0.15
44 0.15
45 0.15
46 0.15
47 0.15
48 0.15
49 0.15
5 -0.56
50 0.15
51 0.15
7 0.14
9 0.27

> <PUBCHEM_EFFECTIVE_ROTOR_COUNT>
4

> <PUBCHEM_PHARMACOPHORE_FEATURES>
9
1 1 acceptor
1 2 cation
1 4 acceptor
1 5 acceptor
6 18 20 21 24 25 27 rings
6 2 6 7 8 9 10 rings
6 3 12 14 15 16 17 rings
6 3 6 7 8 11 12 rings
6 4 19 22 23 26 28 rings

> <PUBCHEM_HEAVY_ATOM_COUNT>
29

> <PUBCHEM_ATOM_DEF_STEREO_COUNT>
2

> <PUBCHEM_ATOM_UDEF_STEREO_COUNT>
0

> <PUBCHEM_BOND_DEF_STEREO_COUNT>
0

> <PUBCHEM_BOND_UDEF_STEREO_COUNT>
0

> <PUBCHEM_ISOTOPIC_ATOM_COUNT>
0

> <PUBCHEM_COMPONENT_COUNT>
1

> <PUBCHEM_CACTVS_TAUTO_COUNT>
1

> <PUBCHEM_CONFORMER_ID>
006B9A3500000001

> <PUBCHEM_MMFF94_ENERGY>
81.7086

> <PUBCHEM_FEATURE_SELFOVERLAP>
47.222

> <PUBCHEM_SHAPE_FINGERPRINT>
10165383 225 17685257955750715822
10190108 129 18335412483955108645
10764073 3 17053639142147192211
107951 10 17838373728778987540
10871710 139 16828107076191755762
12156800 1 15249428586242203994
12160290 23 18336841877891757631
12422481 6 17129338396353878779
12553582 1 17699013112797480352
133893 2 17614552640977290473
14114207 22 17322911627212432842
15664445 248 16887238266140657261
17974551 9 17555753340684181419
1813 80 17174052428619847859
20600515 1 17901677282125743543
21330990 113 18334016129440827955
23419403 2 17691678305209969183
35225 105 17972353730492212722
469060 322 18187374229052398261
57527585 103 18341905116242193614

> <PUBCHEM_SHAPE_MULTIPOLES>
571.01
6.24
4.88
2.92
8.23
4.15
2.52
-0.69
1.65
-3.85
-3.34
-0.52
-0.19
1.74

> <PUBCHEM_SHAPE_SELFOVERLAP>
1262.736

> <PUBCHEM_SHAPE_VOLUME>
295.6

> <PUBCHEM_COORDINATE_TYPE>
2
5
10

$$$$
