75536261
  -OEChem-12032416303D

 53 56  0     1  0  0  0  0  0999 V2000
   -6.4333   -0.8251    0.9051 F   0  0  0  0  0  0  0  0  0  0  0  0
    3.0986   -0.4721    0.8626 O   0  0  0  0  0  0  0  0  0  0  0  0
    5.8574    0.0341    1.7686 O   0  0  0  0  0  0  0  0  0  0  0  0
   -0.8122   -2.3266   -1.4388 O   0  0  0  0  0  0  0  0  0  0  0  0
    1.6987    1.8872    0.0930 N   0  0  0  0  0  0  0  0  0  0  0  0
    0.5478   -2.5882   -1.5529 N   0  0  0  0  0  0  0  0  0  0  0  0
   -3.1215    3.3114   -0.0791 N   0  0  0  0  0  0  0  0  0  0  0  0
    3.7712    0.7934    0.8288 C   0  0  1  0  0  0  0  0  0  0  0  0
    5.2780    0.6190    0.5993 C   0  0  2  0  0  0  0  0  0  0  0  0
    3.2984   -1.2980   -0.2872 C   0  0  1  0  0  0  0  0  0  0  0  0
    5.5838   -0.2993   -0.5809 C   0  0  0  0  0  0  0  0  0  0  0  0
    4.7839   -1.5953   -0.4855 C   0  0  0  0  0  0  0  0  0  0  0  0
    3.1194    1.7362   -0.1806 C   0  0  0  0  0  0  0  0  0  0  0  0
    2.5119   -2.5849   -0.0694 C   0  0  0  0  0  0  0  0  0  0  0  0
    1.0418   -2.3902   -0.3273 C   0  0  0  0  0  0  0  0  0  0  0  0
    1.0758    2.7945   -0.8622 C   0  0  0  0  0  0  0  0  0  0  0  0
    0.0505   -2.0061    0.5921 C   0  0  0  0  0  0  0  0  0  0  0  0
   -1.0961   -1.9810   -0.1570 C   0  0  0  0  0  0  0  0  0  0  0  0
   -0.3935    2.9752   -0.5880 C   0  0  0  0  0  0  0  0  0  0  0  0
   -2.4717   -1.6819    0.1167 C   0  0  0  0  0  0  0  0  0  0  0  0
   -1.2972    1.9787   -0.9398 C   0  0  0  0  0  0  0  0  0  0  0  0
   -0.8522    4.1396    0.0181 C   0  0  0  0  0  0  0  0  0  0  0  0
   -2.8637   -1.3192    1.4054 C   0  0  0  0  0  0  0  0  0  0  0  0
   -3.4179   -1.7549   -0.9055 C   0  0  0  0  0  0  0  0  0  0  0  0
   -2.6384    2.1936   -0.6664 C   0  0  0  0  0  0  0  0  0  0  0  0
   -2.2134    4.2578    0.2489 C   0  0  0  0  0  0  0  0  0  0  0  0
   -4.2019   -1.0297    1.6717 C   0  0  0  0  0  0  0  0  0  0  0  0
   -4.7561   -1.4654   -0.6391 C   0  0  0  0  0  0  0  0  0  0  0  0
   -5.1481   -1.1028    0.6494 C   0  0  0  0  0  0  0  0  0  0  0  0
    3.6308    1.2175    1.8318 H   0  0  0  0  0  0  0  0  0  0  0  0
    5.7581    1.5939    0.4593 H   0  0  0  0  0  0  0  0  0  0  0  0
    2.9124   -0.7855   -1.1765 H   0  0  0  0  0  0  0  0  0  0  0  0
    6.6523   -0.5426   -0.6129 H   0  0  0  0  0  0  0  0  0  0  0  0
    5.3382    0.2095   -1.5203 H   0  0  0  0  0  0  0  0  0  0  0  0
    4.9401   -2.1947   -1.3896 H   0  0  0  0  0  0  0  0  0  0  0  0
    5.1607   -2.1806    0.3630 H   0  0  0  0  0  0  0  0  0  0  0  0
    3.2583    1.3698   -1.2034 H   0  0  0  0  0  0  0  0  0  0  0  0
    3.6148    2.7130   -0.1174 H   0  0  0  0  0  0  0  0  0  0  0  0
    2.6452   -2.9498    0.9570 H   0  0  0  0  0  0  0  0  0  0  0  0
    2.8748   -3.3727   -0.7420 H   0  0  0  0  0  0  0  0  0  0  0  0
    1.2485    0.9732    0.0467 H   0  0  0  0  0  0  0  0  0  0  0  0
    6.8171   -0.0247    1.6231 H   0  0  0  0  0  0  0  0  0  0  0  0
    1.1941    2.4192   -1.8874 H   0  0  0  0  0  0  0  0  0  0  0  0
    1.5723    3.7729   -0.8317 H   0  0  0  0  0  0  0  0  0  0  0  0
    0.1648   -1.7819    1.6426 H   0  0  0  0  0  0  0  0  0  0  0  0
   -0.9738    1.0609   -1.4186 H   0  0  0  0  0  0  0  0  0  0  0  0
   -0.1766    4.9371    0.3080 H   0  0  0  0  0  0  0  0  0  0  0  0
   -2.1497   -1.2528    2.2221 H   0  0  0  0  0  0  0  0  0  0  0  0
   -3.1517   -2.0327   -1.9222 H   0  0  0  0  0  0  0  0  0  0  0  0
   -3.3855    1.4527   -0.9279 H   0  0  0  0  0  0  0  0  0  0  0  0
   -2.6219    5.1460    0.7195 H   0  0  0  0  0  0  0  0  0  0  0  0
   -4.5078   -0.7468    2.6746 H   0  0  0  0  0  0  0  0  0  0  0  0
   -5.4934   -1.5215   -1.4346 H   0  0  0  0  0  0  0  0  0  0  0  0
  1 29  1  0  0  0  0
  2  8  1  0  0  0  0
  2 10  1  0  0  0  0
  3  9  1  0  0  0  0
  3 42  1  0  0  0  0
  4  6  1  0  0  0  0
  4 18  1  0  0  0  0
  5 13  1  0  0  0  0
  5 16  1  0  0  0  0
  5 41  1  0  0  0  0
  6 15  2  0  0  0  0
  7 25  2  0  0  0  0
  7 26  1  0  0  0  0
  8  9  1  0  0  0  0
  8 13  1  0  0  0  0
  8 30  1  0  0  0  0
  9 11  1  0  0  0  0
  9 31  1  0  0  0  0
 10 12  1  0  0  0  0
 10 14  1  0  0  0  0
 10 32  1  0  0  0  0
 11 12  1  0  0  0  0
 11 33  1  0  0  0  0
 11 34  1  0  0  0  0
 12 35  1  0  0  0  0
 12 36  1  0  0  0  0
 13 37  1  0  0  0  0
 13 38  1  0  0  0  0
 14 15  1  0  0  0  0
 14 39  1  0  0  0  0
 14 40  1  0  0  0  0
 15 17  1  0  0  0  0
 16 19  1  0  0  0  0
 16 43  1  0  0  0  0
 16 44  1  0  0  0  0
 17 18  2  0  0  0  0
 17 45  1  0  0  0  0
 18 20  1  0  0  0  0
 19 21  2  0  0  0  0
 19 22  1  0  0  0  0
 20 23  2  0  0  0  0
 20 24  1  0  0  0  0
 21 25  1  0  0  0  0
 21 46  1  0  0  0  0
 22 26  2  0  0  0  0
 22 47  1  0  0  0  0
 23 27  1  0  0  0  0
 23 48  1  0  0  0  0
 24 28  2  0  0  0  0
 24 49  1  0  0  0  0
 25 50  1  0  0  0  0
 26 51  1  0  0  0  0
 27 29  2  0  0  0  0
 27 52  1  0  0  0  0
 28 29  1  0  0  0  0
 28 53  1  0  0  0  0
M  END
> <PUBCHEM_COMPOUND_CID>
75536261

> <PUBCHEM_CONFORMER_RMSD>
1

> <PUBCHEM_CONFORMER_DIVERSEORDER>
1
51
144
24
74
67
119
19
124
126
59
142
47
115
29
113
66
89
105
6
108
56
30
21
84
62
39
88
52
22
134
65
71
41
129
49
139
138
11
26
121
140
110
60
107
10
143
87
25
96
122
20
109
95
69
31
133
35
100
130
13
141
106
40
125
50
23
97
77
93
36
55
137
43
90
9
92
101
38
94
12
17
135
64
82
117
103
80
58
54
14
136
16
85
28
111
118
116
83
8
42
131
81
99
112
76
5
86
27
46
98
32
18
61
63
123
53
68
132
75
114
45
104
72
70
120
127
44
2
37
48
4
79
34
73
91
78
7
33
102
15
57
128
3

> <PUBCHEM_MMFF94_PARTIAL_CHARGES>
38
1 -0.19
10 0.28
13 0.27
14 0.18
15 0.11
16 0.41
17 -0.15
18 0.09
19 -0.14
2 -0.56
20 0.05
21 -0.15
22 -0.15
23 -0.15
24 -0.15
25 0.16
26 0.16
27 -0.15
28 -0.15
29 0.19
3 -0.68
4 -0.02
41 0.36
42 0.4
45 0.15
46 0.15
47 0.15
48 0.15
49 0.15
5 -0.9
50 0.15
51 0.15
52 0.15
53 0.15
6 -0.41
7 -0.62
8 0.28
9 0.28

> <PUBCHEM_EFFECTIVE_ROTOR_COUNT>
8.2

> <PUBCHEM_PHARMACOPHORE_FEATURES>
11
1 2 acceptor
1 3 acceptor
1 3 donor
1 5 cation
1 5 donor
1 6 acceptor
1 7 acceptor
5 4 6 15 17 18 rings
6 2 8 9 10 11 12 rings
6 20 23 24 27 28 29 rings
6 7 19 21 22 25 26 rings

> <PUBCHEM_HEAVY_ATOM_COUNT>
29

> <PUBCHEM_ATOM_DEF_STEREO_COUNT>
3

> <PUBCHEM_ATOM_UDEF_STEREO_COUNT>
0

> <PUBCHEM_BOND_DEF_STEREO_COUNT>
0

> <PUBCHEM_BOND_UDEF_STEREO_COUNT>
0

> <PUBCHEM_ISOTOPIC_ATOM_COUNT>
0

> <PUBCHEM_COMPONENT_COUNT>
1

> <PUBCHEM_CACTVS_TAUTO_COUNT>
1

> <PUBCHEM_CONFORMER_ID>
0480978500000001

> <PUBCHEM_MMFF94_ENERGY>
55.3828

> <PUBCHEM_FEATURE_SELFOVERLAP>
55.824

> <PUBCHEM_SHAPE_FINGERPRINT>
10006869 2 18192138309999137999
10670039 82 18262253144526758926
10688039 33 18113335318923642812
10864689 126 17184763390098629157
10939801 23 18263923418690923040
12107698 1 18260828211452765818
12156800 1 18050602597133368340
12293681 4 18114468967363314770
12422481 6 18267326277938994033
12553582 1 18193277622619399756
12655364 131 16835127994780111904
12788726 201 18260824899753431936
13075007 39 17752504297738844771
13140716 1 18119811571408312394
13402501 40 18410009927339190517
14028597 1 17604692435890820666
14363568 33 17902813072994024641
14394314 77 18195251246007510569
14790565 3 17110446844752552020
14840074 17 18342464780635284887
14955137 171 18192722352420847195
150020 26 17756440613975304409
15276724 80 18339926021978942740
15840311 113 17415589553197463091
15968369 153 18272359854544443308
17852330 162 18195275294868494382
20764821 26 18337116644123828637
21033648 144 18202558505980955110
21133410 90 17489295361650743593
21360443 126 18115584829842104077
21796203 349 17974040467128840992
22113638 7 18052817232520921063
3052486 1 18261396611941238300
338550 245 18334583438100629388
463206 1 18192993944366404295
469060 322 17676496012018752713
474 4 18340488983789033275
508706 21 18336549330499224826
5283268 108 18408328799888114650
6004065 56 18336827615265514979
653340 110 18340765940676017184

> <PUBCHEM_SHAPE_MULTIPOLES>
556.98
11.76
5.1
1.25
3.85
5.73
0.18
-4.29
3.53
-3.16
-0.92
-0.2
-0.45
0.75

> <PUBCHEM_SHAPE_SELFOVERLAP>
1195.827

> <PUBCHEM_SHAPE_VOLUME>
307.5

> <PUBCHEM_COORDINATE_TYPE>
2
5
10

$$$$
