40777363
  -OEChem-12032416173D

 59 62  0     1  0  0  0  0  0999 V2000
   -3.8740   -2.5299   -0.0551 O   0  0  0  0  0  0  0  0  0  0  0  0
    4.2605   -1.5370    0.4886 O   0  0  0  0  0  0  0  0  0  0  0  0
   -0.6160    1.8425    1.5164 N   0  0  0  0  0  0  0  0  0  0  0  0
   -4.5452   -0.4189   -0.7581 N   0  0  0  0  0  0  0  0  0  0  0  0
    2.9276   -1.9287    0.4609 N   0  0  0  0  0  0  0  0  0  0  0  0
   -1.4222   -0.8870    0.7378 C   0  0  1  0  0  0  0  0  0  0  0  0
    0.0348   -0.3796    0.6194 C   0  0  2  0  0  0  0  0  0  0  0  0
   -2.1529   -0.0682    1.8152 C   0  0  0  0  0  0  0  0  0  0  0  0
    0.0921    1.1469    0.4411 C   0  0  0  0  0  0  0  0  0  0  0  0
   -2.1993   -0.8660   -0.5838 C   0  0  0  0  0  0  0  0  0  0  0  0
   -2.0180    1.4379    1.5946 C   0  0  0  0  0  0  0  0  0  0  0  0
    0.8252   -1.0798   -0.4868 C   0  0  0  0  0  0  0  0  0  0  0  0
   -5.9725   -0.6446   -0.7015 C   0  0  0  0  0  0  0  0  0  0  0  0
   -6.5242   -0.3353    0.6942 C   0  0  0  0  0  0  0  0  0  0  0  0
   -6.7014    0.1653   -1.7791 C   0  0  0  0  0  0  0  0  0  0  0  0
   -3.6110   -1.3895   -0.4271 C   0  0  0  0  0  0  0  0  0  0  0  0
   -6.5434    1.1631    0.9967 C   0  0  0  0  0  0  0  0  0  0  0  0
   -6.7203    1.6628   -1.4725 C   0  0  0  0  0  0  0  0  0  0  0  0
   -7.2837    1.9461   -0.0834 C   0  0  0  0  0  0  0  0  0  0  0  0
    2.3041   -0.9830   -0.2476 C   0  0  0  0  0  0  0  0  0  0  0  0
    3.1838    0.0208   -0.6883 C   0  0  0  0  0  0  0  0  0  0  0  0
    4.4005   -0.3748   -0.1989 C   0  0  0  0  0  0  0  0  0  0  0  0
    5.7315    0.1561   -0.2572 C   0  0  0  0  0  0  0  0  0  0  0  0
    5.9780    1.3467   -0.9409 C   0  0  0  0  0  0  0  0  0  0  0  0
    6.7794   -0.5178    0.3699 C   0  0  0  0  0  0  0  0  0  0  0  0
    7.2724    1.8634   -0.9975 C   0  0  0  0  0  0  0  0  0  0  0  0
    8.0738   -0.0011    0.3134 C   0  0  0  0  0  0  0  0  0  0  0  0
    8.3202    1.1896   -0.3703 C   0  0  0  0  0  0  0  0  0  0  0  0
   -1.3911   -1.9293    1.0850 H   0  0  0  0  0  0  0  0  0  0  0  0
    0.5161   -0.6108    1.5828 H   0  0  0  0  0  0  0  0  0  0  0  0
   -1.7162   -0.3166    2.7927 H   0  0  0  0  0  0  0  0  0  0  0  0
   -3.2111   -0.3390    1.8909 H   0  0  0  0  0  0  0  0  0  0  0  0
    1.1291    1.4940    0.4681 H   0  0  0  0  0  0  0  0  0  0  0  0
   -0.3149    1.4481   -0.5317 H   0  0  0  0  0  0  0  0  0  0  0  0
   -1.7176   -1.5216   -1.3193 H   0  0  0  0  0  0  0  0  0  0  0  0
   -2.1973    0.1351   -1.0270 H   0  0  0  0  0  0  0  0  0  0  0  0
   -2.5552    1.7495    0.6915 H   0  0  0  0  0  0  0  0  0  0  0  0
   -2.4863    1.9620    2.4352 H   0  0  0  0  0  0  0  0  0  0  0  0
    0.5857   -0.6596   -1.4714 H   0  0  0  0  0  0  0  0  0  0  0  0
    0.5540   -2.1431   -0.5256 H   0  0  0  0  0  0  0  0  0  0  0  0
   -6.1395   -1.7099   -0.9041 H   0  0  0  0  0  0  0  0  0  0  0  0
   -0.5636    2.8485    1.3591 H   0  0  0  0  0  0  0  0  0  0  0  0
   -5.9386   -0.8527    1.4635 H   0  0  0  0  0  0  0  0  0  0  0  0
   -7.5493   -0.7209    0.7646 H   0  0  0  0  0  0  0  0  0  0  0  0
   -7.7364   -0.1919   -1.8543 H   0  0  0  0  0  0  0  0  0  0  0  0
   -6.2364    0.0010   -2.7586 H   0  0  0  0  0  0  0  0  0  0  0  0
   -5.5155    1.5366    1.0805 H   0  0  0  0  0  0  0  0  0  0  0  0
   -7.0222    1.3346    1.9675 H   0  0  0  0  0  0  0  0  0  0  0  0
   -7.3271    2.1803   -2.2245 H   0  0  0  0  0  0  0  0  0  0  0  0
   -5.7080    2.0765   -1.5495 H   0  0  0  0  0  0  0  0  0  0  0  0
   -8.3477    1.6800   -0.0610 H   0  0  0  0  0  0  0  0  0  0  0  0
   -7.2192    3.0192    0.1291 H   0  0  0  0  0  0  0  0  0  0  0  0
   -4.2249    0.5164   -0.9889 H   0  0  0  0  0  0  0  0  0  0  0  0
    2.9571    0.8975   -1.2774 H   0  0  0  0  0  0  0  0  0  0  0  0
    5.1823    1.8944   -1.4391 H   0  0  0  0  0  0  0  0  0  0  0  0
    6.6278   -1.4477    0.9121 H   0  0  0  0  0  0  0  0  0  0  0  0
    7.4647    2.7904   -1.5297 H   0  0  0  0  0  0  0  0  0  0  0  0
    8.8902   -0.5254    0.8016 H   0  0  0  0  0  0  0  0  0  0  0  0
    9.3281    1.5918   -0.4142 H   0  0  0  0  0  0  0  0  0  0  0  0
  1 16  2  0  0  0  0
  2  5  1  0  0  0  0
  2 22  1  0  0  0  0
  3  9  1  0  0  0  0
  3 11  1  0  0  0  0
  3 42  1  0  0  0  0
  4 13  1  0  0  0  0
  4 16  1  0  0  0  0
  4 53  1  0  0  0  0
  5 20  2  0  0  0  0
  6  7  1  0  0  0  0
  6  8  1  0  0  0  0
  6 10  1  0  0  0  0
  6 29  1  0  0  0  0
  7  9  1  0  0  0  0
  7 12  1  0  0  0  0
  7 30  1  0  0  0  0
  8 11  1  0  0  0  0
  8 31  1  0  0  0  0
  8 32  1  0  0  0  0
  9 33  1  0  0  0  0
  9 34  1  0  0  0  0
 10 16  1  0  0  0  0
 10 35  1  0  0  0  0
 10 36  1  0  0  0  0
 11 37  1  0  0  0  0
 11 38  1  0  0  0  0
 12 20  1  0  0  0  0
 12 39  1  0  0  0  0
 12 40  1  0  0  0  0
 13 14  1  0  0  0  0
 13 15  1  0  0  0  0
 13 41  1  0  0  0  0
 14 17  1  0  0  0  0
 14 43  1  0  0  0  0
 14 44  1  0  0  0  0
 15 18  1  0  0  0  0
 15 45  1  0  0  0  0
 15 46  1  0  0  0  0
 17 19  1  0  0  0  0
 17 47  1  0  0  0  0
 17 48  1  0  0  0  0
 18 19  1  0  0  0  0
 18 49  1  0  0  0  0
 18 50  1  0  0  0  0
 19 51  1  0  0  0  0
 19 52  1  0  0  0  0
 20 21  1  0  0  0  0
 21 22  2  0  0  0  0
 21 54  1  0  0  0  0
 22 23  1  0  0  0  0
 23 24  2  0  0  0  0
 23 25  1  0  0  0  0
 24 26  1  0  0  0  0
 24 55  1  0  0  0  0
 25 27  2  0  0  0  0
 25 56  1  0  0  0  0
 26 28  2  0  0  0  0
 26 57  1  0  0  0  0
 27 28  1  0  0  0  0
 27 58  1  0  0  0  0
 28 59  1  0  0  0  0
M  END
> <PUBCHEM_COMPOUND_CID>
40777363

> <PUBCHEM_CONFORMER_RMSD>
1

> <PUBCHEM_CONFORMER_DIVERSEORDER>
1
10
61
87
148
6
70
22
152
62
144
153
71
139
102
107
57
100
44
122
108
80
95
159
5
163
119
79
18
133
132
172
113
156
98
129
25
134
30
143
120
32
140
136
26
141
158
55
85
92
114
72
118
166
126
49
51
117
147
53
45
27
16
15
3
63
73
23
101
94
76
7
19
43
138
151
65
160
142
46
111
93
91
81
34
84
59
86
68
48
105
168
37
109
127
106
2
21
169
121
154
155
64
170
96
39
162
116
173
42
97
103
35
157
54
167
131
82
29
31
123
130
88
67
33
149
89
52
128
164
146
125
28
110
171
165
13
77
150
74
41
20
75
161
78
145
124
4
66
115
17
40
8
11
50
83
104
38
12
112
90
69
24
58
60
47
135
99
137
9
36
56
14

> <PUBCHEM_MMFF94_PARTIAL_CHARGES>
28
1 -0.57
10 0.06
11 0.27
12 0.18
13 0.3
16 0.57
2 -0.02
20 0.11
21 -0.15
22 0.09
23 0.05
24 -0.15
25 -0.15
26 -0.15
27 -0.15
28 -0.15
3 -0.9
4 -0.73
42 0.36
5 -0.41
53 0.37
54 0.15
55 0.15
56 0.15
57 0.15
58 0.15
59 0.15
9 0.27

> <PUBCHEM_EFFECTIVE_ROTOR_COUNT>
9.4

> <PUBCHEM_PHARMACOPHORE_FEATURES>
9
1 1 acceptor
1 3 cation
1 3 donor
1 4 donor
1 5 acceptor
5 2 5 20 21 22 rings
6 13 14 15 17 18 19 rings
6 23 24 25 26 27 28 rings
6 3 6 7 8 9 11 rings

> <PUBCHEM_HEAVY_ATOM_COUNT>
28

> <PUBCHEM_ATOM_DEF_STEREO_COUNT>
2

> <PUBCHEM_ATOM_UDEF_STEREO_COUNT>
0

> <PUBCHEM_BOND_DEF_STEREO_COUNT>
0

> <PUBCHEM_BOND_UDEF_STEREO_COUNT>
0

> <PUBCHEM_ISOTOPIC_ATOM_COUNT>
0

> <PUBCHEM_COMPONENT_COUNT>
1

> <PUBCHEM_CACTVS_TAUTO_COUNT>
2

> <PUBCHEM_CONFORMER_ID>
026E369300000001

> <PUBCHEM_MMFF94_ENERGY>
38.5957

> <PUBCHEM_FEATURE_SELFOVERLAP>
45.672

> <PUBCHEM_SHAPE_FINGERPRINT>
10066227 112 18408881837284045669
10076449 9 17489869363013432739
10165383 225 18408601436856027175
10835480 77 18259701207243832503
10883706 142 16950565472040694865
10906281 52 18059305279450093635
11135609 187 18334574633385861683
11135926 11 18343864398797755183
11315181 36 18131074869548929163
11456790 92 17530676616081851480
11646440 116 14345793842484044774
12236239 1 18410012169861128694
12788726 201 17988360352524555699
13782708 43 13758085064669194628
13914758 101 17894629245288031932
14028597 1 14418120795211851044
14251764 18 8070025567225758410
1454969 45 17561365084665186804
15183329 4 18341888581092721269
15276724 80 18261948557603385341
15352257 5 12031789167079296836
15439362 3 17976258260188353068
16087824 20 17987805103970385369
16994733 274 17748822995254298909
1754908 1 13912323503805437988
195137 175 18413109459044464285
20157964 124 18187364321074848034
21033648 29 15647338623757907628
21298829 104 18333733511290816116
21304303 64 18040716974298603101
21315759 40 10087641524350159354
21424621 283 17168139001687417577
21756936 100 15791725309516770115
21781055 127 14491037039601919646
23559900 14 18059849614592858849
23576562 1 17701803592000134661
3009799 131 18413668019472522912
335352 9 17989201539634856249
3383291 50 13479136795744315697
3633792 109 18334293124635007086
4017518 198 15052014580273022213
4073 2 17749393701924055474
4093350 32 16370996378948871744
4098825 35 18113898286141452573
4169191 19 18410291389805448597
4325135 7 18131355215724408492
437815 12 14764344950951530955
444769 64 11025800916256875169
504579 68 18340780273530179158
5104073 3 12685389503629869518
5385378 56 14346063192852604856
54039377 194 16701732857271780463
59755656 215 15051737477846811510
6328613 192 18410573977210616429
7226269 152 18272652316933213755
9953998 17 15285360605475126725

> <PUBCHEM_SHAPE_MULTIPOLES>
549.55
25.93
1.97
1.37
15.76
0.11
0.14
10.6
-6.59
-0.85
-0.03
-1.84
0.44
-0.99

> <PUBCHEM_SHAPE_SELFOVERLAP>
1159.237

> <PUBCHEM_SHAPE_VOLUME>
305.3

> <PUBCHEM_COORDINATE_TYPE>
2
5
10

$$$$
