11911767
  -OEChem-12032416283D

 57 61  0     1  0  0  0  0  0999 V2000
    0.8061    1.5771    1.6262 O   0  0  0  0  0  0  0  0  0  0  0  0
    0.8233    3.8350   -0.5275 O   0  0  0  0  0  0  0  0  0  0  0  0
   -3.8041    2.7161    1.1509 O   0  0  0  0  0  0  0  0  0  0  0  0
    4.2351   -1.6341    1.7649 O   0  0  0  0  0  0  0  0  0  0  0  0
   -1.9775    1.6118    0.2439 N   0  0  0  0  0  0  0  0  0  0  0  0
    3.0234    1.7875   -1.2666 N   0  0  0  0  0  0  0  0  0  0  0  0
    3.9110   -0.1795   -0.3447 N   0  0  0  0  0  0  0  0  0  0  0  0
    4.1789    0.3203   -2.6869 N   0  0  0  0  0  0  0  0  0  0  0  0
   -6.6281   -2.6684   -0.6651 N   0  0  0  0  0  0  0  0  0  0  0  0
    0.1610    2.5624   -0.4407 C   0  0  1  0  0  0  0  0  0  0  0  0
    1.1232    1.5974    0.2242 C   0  0  1  0  0  0  0  0  0  0  0  0
   -1.0039    2.6404    0.5194 C   0  0  2  0  0  0  0  0  0  0  0  0
    2.4819    2.2193    0.0033 C   0  0  2  0  0  0  0  0  0  0  0  0
   -0.3330    2.4176    1.8631 C   0  0  0  0  0  0  0  0  0  0  0  0
    2.1660    3.7032   -0.0379 C   0  0  0  0  0  0  0  0  0  0  0  0
   -3.3155    1.7396    0.5887 C   0  0  0  0  0  0  0  0  0  0  0  0
    3.7254    0.6076   -1.4377 C   0  0  0  0  0  0  0  0  0  0  0  0
   -4.1851    0.5807    0.2602 C   0  0  0  0  0  0  0  0  0  0  0  0
   -5.3175    0.3619    1.0170 C   0  0  0  0  0  0  0  0  0  0  0  0
   -3.8333   -0.2392   -0.7921 C   0  0  0  0  0  0  0  0  0  0  0  0
    4.5988   -1.3222   -0.5480 C   0  0  0  0  0  0  0  0  0  0  0  0
    4.8586   -0.8378   -2.8183 C   0  0  0  0  0  0  0  0  0  0  0  0
    5.1012   -1.7069   -1.7744 C   0  0  0  0  0  0  0  0  0  0  0  0
   -6.1346   -0.7255    0.7079 C   0  0  0  0  0  0  0  0  0  0  0  0
   -4.6505   -1.3264   -1.1013 C   0  0  0  0  0  0  0  0  0  0  0  0
   -5.8011   -1.5696   -0.3512 C   0  0  0  0  0  0  0  0  0  0  0  0
    4.7798   -2.1333    0.6263 C   0  0  0  0  0  0  0  0  0  0  0  0
    5.3979   -3.3356    0.8683 C   0  0  0  0  0  0  0  0  0  0  0  0
   -6.0653   -3.8638   -1.2608 C   0  0  0  0  0  0  0  0  0  0  0  0
   -8.0534   -2.6109   -0.4087 C   0  0  0  0  0  0  0  0  0  0  0  0
    5.2223   -3.5945    2.2486 C   0  0  0  0  0  0  0  0  0  0  0  0
    4.5089   -2.5303    2.7490 C   0  0  0  0  0  0  0  0  0  0  0  0
   -0.1123    2.2642   -1.4581 H   0  0  0  0  0  0  0  0  0  0  0  0
    1.0197    0.5726   -0.1463 H   0  0  0  0  0  0  0  0  0  0  0  0
   -1.5056    3.6140    0.5018 H   0  0  0  0  0  0  0  0  0  0  0  0
    3.1933    2.0259    0.8145 H   0  0  0  0  0  0  0  0  0  0  0  0
   -0.9797    1.9477    2.6105 H   0  0  0  0  0  0  0  0  0  0  0  0
    0.0405    3.3614    2.2754 H   0  0  0  0  0  0  0  0  0  0  0  0
    2.8416    4.2846   -0.6730 H   0  0  0  0  0  0  0  0  0  0  0  0
    2.1865    4.1348    0.9689 H   0  0  0  0  0  0  0  0  0  0  0  0
   -1.6244    0.7304   -0.1139 H   0  0  0  0  0  0  0  0  0  0  0  0
    2.8457    2.3401   -2.0977 H   0  0  0  0  0  0  0  0  0  0  0  0
   -5.5868    1.0053    1.8493 H   0  0  0  0  0  0  0  0  0  0  0  0
   -2.9677   -0.0625   -1.4221 H   0  0  0  0  0  0  0  0  0  0  0  0
    5.2147   -1.0548   -3.8197 H   0  0  0  0  0  0  0  0  0  0  0  0
    5.6531   -2.6243   -1.9349 H   0  0  0  0  0  0  0  0  0  0  0  0
   -7.0163   -0.8942    1.3196 H   0  0  0  0  0  0  0  0  0  0  0  0
   -4.3732   -1.9526   -1.9446 H   0  0  0  0  0  0  0  0  0  0  0  0
    5.9142   -3.9589    0.1520 H   0  0  0  0  0  0  0  0  0  0  0  0
   -5.9071   -3.7245   -2.3354 H   0  0  0  0  0  0  0  0  0  0  0  0
   -5.1143   -4.1378   -0.7901 H   0  0  0  0  0  0  0  0  0  0  0  0
   -6.7362   -4.7210   -1.1351 H   0  0  0  0  0  0  0  0  0  0  0  0
   -8.4733   -1.6393   -0.6929 H   0  0  0  0  0  0  0  0  0  0  0  0
   -8.5908   -3.3681   -0.9908 H   0  0  0  0  0  0  0  0  0  0  0  0
   -8.2654   -2.7980    0.6491 H   0  0  0  0  0  0  0  0  0  0  0  0
    5.5719   -4.4497    2.8087 H   0  0  0  0  0  0  0  0  0  0  0  0
    4.1372   -2.2746    3.7304 H   0  0  0  0  0  0  0  0  0  0  0  0
  1 11  1  0  0  0  0
  1 14  1  0  0  0  0
  2 10  1  0  0  0  0
  2 15  1  0  0  0  0
  3 16  2  0  0  0  0
  4 27  1  0  0  0  0
  4 32  1  0  0  0  0
  5 12  1  0  0  0  0
  5 16  1  0  0  0  0
  5 41  1  0  0  0  0
  6 13  1  0  0  0  0
  6 17  1  0  0  0  0
  6 42  1  0  0  0  0
  7 17  1  0  0  0  0
  7 21  2  0  0  0  0
  8 17  2  0  0  0  0
  8 22  1  0  0  0  0
  9 26  1  0  0  0  0
  9 29  1  0  0  0  0
  9 30  1  0  0  0  0
 10 11  1  0  0  0  0
 10 12  1  0  0  0  0
 10 33  1  0  0  0  0
 11 13  1  0  0  0  0
 11 34  1  0  0  0  0
 12 14  1  0  0  0  0
 12 35  1  0  0  0  0
 13 15  1  0  0  0  0
 13 36  1  0  0  0  0
 14 37  1  0  0  0  0
 14 38  1  0  0  0  0
 15 39  1  0  0  0  0
 15 40  1  0  0  0  0
 16 18  1  0  0  0  0
 18 19  2  0  0  0  0
 18 20  1  0  0  0  0
 19 24  1  0  0  0  0
 19 43  1  0  0  0  0
 20 25  2  0  0  0  0
 20 44  1  0  0  0  0
 21 23  1  0  0  0  0
 21 27  1  0  0  0  0
 22 23  2  0  0  0  0
 22 45  1  0  0  0  0
 23 46  1  0  0  0  0
 24 26  2  0  0  0  0
 24 47  1  0  0  0  0
 25 26  1  0  0  0  0
 25 48  1  0  0  0  0
 27 28  2  0  0  0  0
 28 31  1  0  0  0  0
 28 49  1  0  0  0  0
 29 50  1  0  0  0  0
 29 51  1  0  0  0  0
 29 52  1  0  0  0  0
 30 53  1  0  0  0  0
 30 54  1  0  0  0  0
 30 55  1  0  0  0  0
 31 32  2  0  0  0  0
 31 56  1  0  0  0  0
 32 57  1  0  0  0  0
M  END
> <PUBCHEM_COMPOUND_CID>
11911767

> <PUBCHEM_CONFORMER_RMSD>
1

> <PUBCHEM_CONFORMER_DIVERSEORDER>
1
12
55
33
50
65
46
23
35
60
21
63
81
75
57
49
11
62
8
45
15
70
54
25
74
14
38
51
78
66
24
77
80
56
52
6
59
69
26
16
31
64
48
61
76
43
47
37
79
5
73
41
42
68
7
58
29
13
53
20
36
27
28
32
19
17
67
44
40
2
22
18
34
10
39
71
72
82
4
30
3
9

> <PUBCHEM_MMFF94_PARTIAL_CHARGES>
43
1 -0.56
10 0.28
11 0.28
12 0.3
13 0.37
14 0.28
15 0.28
16 0.54
17 0.72
18 0.09
19 -0.15
2 -0.56
20 -0.15
21 0.36
22 0.16
23 -0.15
24 -0.15
25 -0.15
26 0.1
27 0.09
28 -0.15
29 0.37
3 -0.57
30 0.37
31 -0.15
32 -0.01
4 -0.28
41 0.37
42 0.4
43 0.15
44 0.15
45 0.15
46 0.15
47 0.15
48 0.15
49 0.15
5 -0.73
56 0.15
57 0.15
6 -0.87
7 -0.62
8 -0.62
9 -0.84

> <PUBCHEM_EFFECTIVE_ROTOR_COUNT>
8.2

> <PUBCHEM_PHARMACOPHORE_FEATURES>
14
1 1 acceptor
1 2 acceptor
1 3 acceptor
1 4 acceptor
1 5 donor
1 6 donor
1 7 acceptor
1 9 cation
4 6 7 8 17 cation
5 1 10 11 12 14 rings
5 2 10 11 13 15 rings
5 4 27 28 31 32 rings
6 18 19 20 24 25 26 rings
6 7 8 17 21 22 23 rings

> <PUBCHEM_HEAVY_ATOM_COUNT>
32

> <PUBCHEM_ATOM_DEF_STEREO_COUNT>
4

> <PUBCHEM_ATOM_UDEF_STEREO_COUNT>
0

> <PUBCHEM_BOND_DEF_STEREO_COUNT>
0

> <PUBCHEM_BOND_UDEF_STEREO_COUNT>
0

> <PUBCHEM_ISOTOPIC_ATOM_COUNT>
0

> <PUBCHEM_COMPONENT_COUNT>
1

> <PUBCHEM_CACTVS_TAUTO_COUNT>
6

> <PUBCHEM_CONFORMER_ID>
00B5C25700000001

> <PUBCHEM_MMFF94_ENERGY>
98.3687

> <PUBCHEM_FEATURE_SELFOVERLAP>
71.767

> <PUBCHEM_SHAPE_FINGERPRINT>
10074138 170 17057254241727035713
10258705 36 17697318414047861246
10462674 125 13035198118442200805
10556698 54 14273720838019589079
10622 236 18261955141650599336
11227150 75 17387671848645041106
11607047 403 18267849766044448136
11796584 16 18199756851252577124
11963148 33 17909822477471165079
11973864 118 18119788447437117714
1200032 147 12031497839995942730
12047536 79 15554452903196780595
12342043 65 16629136355958578702
12422481 6 17417525809324885540
12661589 4 18270962461396994411
13553644 42 18409444796550900583
13627167 48 13190614976249649887
13782708 43 18261105314495926855
14026016 60 18126547150604401055
14347332 77 18410573990201123725
15001296 14 18267302213179354551
15163728 17 8934703544454824744
16096371 109 12894810103186117037
17324776 126 17753035121306218450
19315092 285 17967812696409906078
19841028 212 18270679913575544247
20691028 202 8430331129918336887
20775438 99 18114741663315992338
20843269 155 18338794524874982474
208703 8 18341897380784807879
21585481 104 17022895719477500839
21585483 132 18198332043798565335
21599406 157 16732990864015146859
21792938 131 18410284840492798459
24983565 74 17842555438669452199
25222932 49 18410293619125759212
2748736 6 9151172026455651235
2838139 119 11963676676353700141
397830 11 11815618644845811029
439807 62 18334295379661486839
45266715 3 18115304621822372640
463206 1 18115878408094014616
50009960 94 18266998670323248978
5104073 3 17560809870317547073
59025328 239 16951414218024516348
6058803 2 18339379503795890705
6201460 15 18045490916042511707
636783 263 18122601002966676207
6636735 143 15482388673671912135
7970288 3 18267022752384128054
96874 4 18261668165143244282

> <PUBCHEM_SHAPE_MULTIPOLES>
610.16
19.33
5.33
2.25
23.01
0.12
-0.13
25.4
-2.37
-0.86
1.33
-4.5
1.35
-5.23

> <PUBCHEM_SHAPE_SELFOVERLAP>
1337.515

> <PUBCHEM_SHAPE_VOLUME>
330.2

> <PUBCHEM_COORDINATE_TYPE>
2
5
10

$$$$
