45361317
  -OEChem-12032416123D

 65 69  0     1  0  0  0  0  0999 V2000
   -3.4691   -1.3410    1.2515 S   0  0  0  0  0  0  0  0  0  0  0  0
   -9.5886    0.7648    0.1224 F   0  0  0  0  0  0  0  0  0  0  0  0
    2.0685    1.8033   -1.1163 O   0  0  0  0  0  0  0  0  0  0  0  0
    5.9930   -1.6483   -0.6529 O   0  0  0  0  0  0  0  0  0  0  0  0
   -3.2019    0.5601   -0.4808 N   0  0  0  0  0  0  0  0  0  0  0  0
    6.2344    0.4075    0.3732 N   0  0  0  0  0  0  0  0  0  0  0  0
    0.4905   -1.4510    0.1440 C   0  0  1  0  0  0  0  0  0  0  0  0
    0.6073    0.0870   -0.1963 C   0  0  1  0  0  0  0  0  0  0  0  0
    1.8967    0.3907   -1.0108 C   0  0  2  0  0  0  0  0  0  0  0  0
    3.1703   -0.1766   -0.3469 C   0  0  1  0  0  0  0  0  0  0  0  0
    1.7929   -1.9344    0.8240 C   0  0  0  0  0  0  0  0  0  0  0  0
   -0.7114    0.6457   -0.8716 C   0  0  1  0  0  0  0  0  0  0  0  0
    3.0393   -1.6612   -0.0067 C   0  0  0  0  0  0  0  0  0  0  0  0
   -0.6767   -1.6812    1.1541 C   0  0  0  0  0  0  0  0  0  0  0  0
    0.2352   -2.3094   -1.1224 C   0  0  0  0  0  0  0  0  0  0  0  0
    4.4132    0.0421   -1.2184 C   0  0  1  0  0  0  0  0  0  0  0  0
   -1.9357    0.0839   -0.1895 C   0  0  0  0  0  0  0  0  0  0  0  0
   -1.9009   -0.9636    0.7074 C   0  0  0  0  0  0  0  0  0  0  0  0
   -0.7803    2.1799   -0.8896 C   0  0  0  0  0  0  0  0  0  0  0  0
    5.6174   -0.4874   -0.4819 C   0  0  0  0  0  0  0  0  0  0  0  0
    4.2726   -0.6571   -2.5582 C   0  0  0  0  0  0  0  0  0  0  0  0
   -4.0856   -0.1078    0.2286 C   0  0  0  0  0  0  0  0  0  0  0  0
    7.4042    0.0487    1.1614 C   0  0  0  0  0  0  0  0  0  0  0  0
    5.8433    1.7924    0.6172 C   0  0  0  0  0  0  0  0  0  0  0  0
    7.9336    1.3758    1.6824 C   0  0  0  0  0  0  0  0  0  0  0  0
    6.6684    2.2123    1.8255 C   0  0  0  0  0  0  0  0  0  0  0  0
   -5.5110    0.1192    0.2017 C   0  0  0  0  0  0  0  0  0  0  0  0
   -6.3081   -0.3248    1.2569 C   0  0  0  0  0  0  0  0  0  0  0  0
   -6.0914    0.7815   -0.8801 C   0  0  0  0  0  0  0  0  0  0  0  0
   -7.6855   -0.1065    1.2303 C   0  0  0  0  0  0  0  0  0  0  0  0
   -7.4688    0.9996   -0.9067 C   0  0  0  0  0  0  0  0  0  0  0  0
   -8.2658    0.5557    0.1485 C   0  0  0  0  0  0  0  0  0  0  0  0
    0.7060    0.6186    0.7641 H   0  0  0  0  0  0  0  0  0  0  0  0
    1.7562    0.0061   -2.0232 H   0  0  0  0  0  0  0  0  0  0  0  0
    3.3100    0.3550    0.6031 H   0  0  0  0  0  0  0  0  0  0  0  0
    1.9080   -1.4350    1.7956 H   0  0  0  0  0  0  0  0  0  0  0  0
    1.7317   -3.0090    1.0389 H   0  0  0  0  0  0  0  0  0  0  0  0
   -0.7412    0.3006   -1.9137 H   0  0  0  0  0  0  0  0  0  0  0  0
    3.0059   -2.2982   -0.8931 H   0  0  0  0  0  0  0  0  0  0  0  0
    3.8888   -2.0041    0.5937 H   0  0  0  0  0  0  0  0  0  0  0  0
   -0.3989   -1.2951    2.1437 H   0  0  0  0  0  0  0  0  0  0  0  0
   -0.8716   -2.7546    1.2697 H   0  0  0  0  0  0  0  0  0  0  0  0
    0.9959   -2.1526   -1.8922 H   0  0  0  0  0  0  0  0  0  0  0  0
   -0.7330   -2.0965   -1.5854 H   0  0  0  0  0  0  0  0  0  0  0  0
    0.2397   -3.3769   -0.8725 H   0  0  0  0  0  0  0  0  0  0  0  0
    4.5476    1.1071   -1.4328 H   0  0  0  0  0  0  0  0  0  0  0  0
   -0.0662    2.6095   -1.5957 H   0  0  0  0  0  0  0  0  0  0  0  0
   -1.7660    2.5362   -1.2101 H   0  0  0  0  0  0  0  0  0  0  0  0
   -0.5883    2.5982    0.1045 H   0  0  0  0  0  0  0  0  0  0  0  0
    2.1598    2.1636   -0.2177 H   0  0  0  0  0  0  0  0  0  0  0  0
    4.1310   -1.7388   -2.4967 H   0  0  0  0  0  0  0  0  0  0  0  0
    5.1945   -0.5158   -3.1377 H   0  0  0  0  0  0  0  0  0  0  0  0
    3.4713   -0.2361   -3.1710 H   0  0  0  0  0  0  0  0  0  0  0  0
    8.1322   -0.4968    0.5537 H   0  0  0  0  0  0  0  0  0  0  0  0
    7.0684   -0.5996    1.9783 H   0  0  0  0  0  0  0  0  0  0  0  0
    4.7729    1.9006    0.7963 H   0  0  0  0  0  0  0  0  0  0  0  0
    6.1191    2.3773   -0.2673 H   0  0  0  0  0  0  0  0  0  0  0  0
    8.5979    1.8336    0.9395 H   0  0  0  0  0  0  0  0  0  0  0  0
    8.4864    1.2709    2.6198 H   0  0  0  0  0  0  0  0  0  0  0  0
    6.8659    3.2874    1.8483 H   0  0  0  0  0  0  0  0  0  0  0  0
    6.1464    1.9378    2.7502 H   0  0  0  0  0  0  0  0  0  0  0  0
   -5.9173   -0.8218    2.1395 H   0  0  0  0  0  0  0  0  0  0  0  0
   -5.4916    1.1340   -1.7157 H   0  0  0  0  0  0  0  0  0  0  0  0
   -8.3065   -0.4465    2.0539 H   0  0  0  0  0  0  0  0  0  0  0  0
   -7.9215    1.5143   -1.7491 H   0  0  0  0  0  0  0  0  0  0  0  0
  1 18  1  0  0  0  0
  1 22  1  0  0  0  0
  2 32  1  0  0  0  0
  3  9  1  0  0  0  0
  3 50  1  0  0  0  0
  4 20  2  0  0  0  0
  5 17  1  0  0  0  0
  5 22  2  0  0  0  0
  6 20  1  0  0  0  0
  6 23  1  0  0  0  0
  6 24  1  0  0  0  0
  7  8  1  0  0  0  0
  7 11  1  0  0  0  0
  7 14  1  0  0  0  0
  7 15  1  0  0  0  0
  8  9  1  0  0  0  0
  8 12  1  0  0  0  0
  8 33  1  0  0  0  0
  9 10  1  0  0  0  0
  9 34  1  0  0  0  0
 10 13  1  0  0  0  0
 10 16  1  0  0  0  0
 10 35  1  0  0  0  0
 11 13  1  0  0  0  0
 11 36  1  0  0  0  0
 11 37  1  0  0  0  0
 12 17  1  0  0  0  0
 12 19  1  0  0  0  0
 12 38  1  0  0  0  0
 13 39  1  0  0  0  0
 13 40  1  0  0  0  0
 14 18  1  0  0  0  0
 14 41  1  0  0  0  0
 14 42  1  0  0  0  0
 15 43  1  0  0  0  0
 15 44  1  0  0  0  0
 15 45  1  0  0  0  0
 16 20  1  0  0  0  0
 16 21  1  0  0  0  0
 16 46  1  0  0  0  0
 17 18  2  0  0  0  0
 19 47  1  0  0  0  0
 19 48  1  0  0  0  0
 19 49  1  0  0  0  0
 21 51  1  0  0  0  0
 21 52  1  0  0  0  0
 21 53  1  0  0  0  0
 22 27  1  0  0  0  0
 23 25  1  0  0  0  0
 23 54  1  0  0  0  0
 23 55  1  0  0  0  0
 24 26  1  0  0  0  0
 24 56  1  0  0  0  0
 24 57  1  0  0  0  0
 25 26  1  0  0  0  0
 25 58  1  0  0  0  0
 25 59  1  0  0  0  0
 26 60  1  0  0  0  0
 26 61  1  0  0  0  0
 27 28  2  0  0  0  0
 27 29  1  0  0  0  0
 28 30  1  0  0  0  0
 28 62  1  0  0  0  0
 29 31  2  0  0  0  0
 29 63  1  0  0  0  0
 30 32  2  0  0  0  0
 30 64  1  0  0  0  0
 31 32  1  0  0  0  0
 31 65  1  0  0  0  0
M  END
> <PUBCHEM_COMPOUND_CID>
45361317

> <PUBCHEM_CONFORMER_RMSD>
0.8

> <PUBCHEM_CONFORMER_DIVERSEORDER>
1
29
16
38
11
23
39
21
32
14
5
30
3
28
6
37
27
19
22
8
35
34
15
4
31
13
12
24
17
18
25
26
7
33
9
2
36
20
10

> <PUBCHEM_MMFF94_PARTIAL_CHARGES>
27
1 -0.08
12 0.18
14 0.18
16 0.06
17 0.05
18 -0.14
2 -0.19
20 0.57
22 0.33
23 0.3
24 0.3
27 0.05
28 -0.15
29 -0.15
3 -0.68
30 -0.15
31 -0.15
32 0.19
4 -0.57
5 -0.57
50 0.4
6 -0.66
62 0.15
63 0.15
64 0.15
65 0.15
9 0.28

> <PUBCHEM_EFFECTIVE_ROTOR_COUNT>
6.2

> <PUBCHEM_PHARMACOPHORE_FEATURES>
10
1 21 hydrophobe
1 3 acceptor
1 3 donor
1 4 acceptor
1 5 acceptor
5 1 5 17 18 22 rings
5 6 23 24 25 26 rings
6 27 28 29 30 31 32 rings
6 7 8 12 14 17 18 rings
6 7 8 9 10 11 13 rings

> <PUBCHEM_HEAVY_ATOM_COUNT>
32

> <PUBCHEM_ATOM_DEF_STEREO_COUNT>
5

> <PUBCHEM_ATOM_UDEF_STEREO_COUNT>
1

> <PUBCHEM_BOND_DEF_STEREO_COUNT>
0

> <PUBCHEM_BOND_UDEF_STEREO_COUNT>
0

> <PUBCHEM_ISOTOPIC_ATOM_COUNT>
0

> <PUBCHEM_COMPONENT_COUNT>
1

> <PUBCHEM_CACTVS_TAUTO_COUNT>
1

> <PUBCHEM_CONFORMER_ID>
02B428A500000001

> <PUBCHEM_MMFF94_ENERGY>
93.3463

> <PUBCHEM_FEATURE_SELFOVERLAP>
50.829

> <PUBCHEM_SHAPE_FINGERPRINT>
10 15 17822010943275022348
10050765 1 17533797154191737559
10299344 5 14562530682631745249
10533779 1 16772091766012046888
11135926 11 17749380473820513275
11181472 205 16987171422717893785
11315181 36 16845855698995096771
11409948 35 18336547102899672170
11646440 116 18335990817221088464
11719270 70 17821450144757617746
12089408 11 14490197116303389621
12236239 1 15769499746385200159
12522641 24 18341887460507704194
12838862 33 18114451319663973999
13008946 113 17753056278578888244
13165053 68 16627972196324976453
13383668 254 17274836791722367371
13811026 1 18260546693030483730
14028597 1 16443616922233936416
14170010 4 18335143085244779100
14294032 229 17096651980764239541
14344974 52 18271802446469931321
14849402 71 17775283910786838721
15131766 46 17059197324235063728
15183329 4 17968105196620367181
15419008 145 16515954887457628980
1577012 14 17095814320697449278
15840311 113 17989209244136233668
16120349 18 17561078124641076280
16994733 274 16917354714264509427
19301679 30 15647876134651293960
19315958 150 18341613746377946000
19841028 212 16154258417909626440
20157964 124 17704076188155937622
2026 5 11314843793343349472
20554085 129 18333444352833917146
21150785 3 15913327996349040531
21521721 280 17988926677742067786
21792934 111 18260264131517029780
21859007 373 18114168722999952716
22224240 67 18342457045436309375
22956985 138 16373516352521529458
23559900 14 18262522601831923493
23576562 1 13254213043724419113
24771293 8 18338229496479403284
24893992 56 17240490239061564729
3004659 81 17095252423464332542
3178227 256 18260269659129396677
335352 9 18041006145656300023
3383291 50 17968100845512574443
34797466 226 17561087981864911390
4073 2 16516265019284047219
4093350 32 17775570827607724004
4258327 124 17203325679910008708
4340502 62 17530964678989566746
4760202 170 18131340909120865481
5104073 3 18116148874784890768
57828716 16 14996271488386694741
6081469 158 12829203377969424431
6201320 215 14129602326667493335

> <PUBCHEM_SHAPE_MULTIPOLES>
633.42
24.91
2
1.61
20.16
0.07
-0.17
-10.82
7.8
-2.13
0.16
-1.88
-0.09
2.71

> <PUBCHEM_SHAPE_SELFOVERLAP>
1358.087

> <PUBCHEM_SHAPE_VOLUME>
355.7

> <PUBCHEM_COORDINATE_TYPE>
2
5
10

$$$$
