45783668
  -OEChem-12032416403D

 50 53  0     1  0  0  0  0  0999 V2000
   -1.6936    2.4946   -1.1065 O   0  0  0  0  0  0  0  0  0  0  0  0
   -3.9620   -0.0088    0.3404 N   0  0  1  0  0  0  0  0  0  0  0  0
   -1.0801    0.7458    0.1512 N   0  0  0  0  0  0  0  0  0  0  0  0
   -0.3016    2.3976   -1.2270 N   0  0  0  0  0  0  0  0  0  0  0  0
    3.6803    1.0764   -0.7722 N   0  0  0  0  0  0  0  0  0  0  0  0
    5.2035   -0.4338    0.1760 N   0  0  0  0  0  0  0  0  0  0  0  0
    6.9189   -1.6575    0.8769 N   0  0  0  0  0  0  0  0  0  0  0  0
   -3.5521    1.3721    0.0159 C   0  0  1  0  0  0  0  0  0  0  0  0
   -3.9812    2.2049    1.2379 C   0  0  0  0  0  0  0  0  0  0  0  0
   -5.1103    0.1016    1.2402 C   0  0  0  0  0  0  0  0  0  0  0  0
   -4.2644   -0.8103   -0.8385 C   0  0  0  0  0  0  0  0  0  0  0  0
   -4.6763    1.2194    2.1667 C   0  0  0  0  0  0  0  0  0  0  0  0
   -4.1405   -2.3389   -0.6124 C   0  0  0  0  0  0  0  0  0  0  0  0
   -2.0709    1.4858   -0.2780 C   0  0  0  0  0  0  0  0  0  0  0  0
   -5.1799   -2.7567    0.4453 C   0  0  0  0  0  0  0  0  0  0  0  0
   -2.7402   -2.7152   -0.0970 C   0  0  0  0  0  0  0  0  0  0  0  0
   -4.4257   -3.1099   -1.9134 C   0  0  0  0  0  0  0  0  0  0  0  0
   -0.0149    1.3434   -0.4575 C   0  0  0  0  0  0  0  0  0  0  0  0
    1.3241    0.8629   -0.2746 C   0  0  0  0  0  0  0  0  0  0  0  0
    1.5872   -0.2366    0.5351 C   0  0  0  0  0  0  0  0  0  0  0  0
    2.3960    1.4787   -0.9003 C   0  0  0  0  0  0  0  0  0  0  0  0
    2.8958   -0.6802    0.6919 C   0  0  0  0  0  0  0  0  0  0  0  0
    3.8973    0.0045    0.0228 C   0  0  0  0  0  0  0  0  0  0  0  0
    6.3142    0.1131   -0.4023 C   0  0  0  0  0  0  0  0  0  0  0  0
    5.6159   -1.4938    0.9345 C   0  0  0  0  0  0  0  0  0  0  0  0
    7.3603   -0.6591    0.0450 C   0  0  0  0  0  0  0  0  0  0  0  0
   -4.1109    1.7413   -0.8559 H   0  0  0  0  0  0  0  0  0  0  0  0
   -3.1494    2.7012    1.7496 H   0  0  0  0  0  0  0  0  0  0  0  0
   -4.6929    2.9785    0.9248 H   0  0  0  0  0  0  0  0  0  0  0  0
   -6.0262    0.3913    0.7095 H   0  0  0  0  0  0  0  0  0  0  0  0
   -5.3180   -0.7641    1.8631 H   0  0  0  0  0  0  0  0  0  0  0  0
   -5.2511   -0.5584   -1.2514 H   0  0  0  0  0  0  0  0  0  0  0  0
   -3.5472   -0.5590   -1.6329 H   0  0  0  0  0  0  0  0  0  0  0  0
   -5.5172    1.6763    2.6968 H   0  0  0  0  0  0  0  0  0  0  0  0
   -3.9639    0.8461    2.9131 H   0  0  0  0  0  0  0  0  0  0  0  0
   -6.1486   -2.2677    0.2985 H   0  0  0  0  0  0  0  0  0  0  0  0
   -5.3713   -3.8357    0.3732 H   0  0  0  0  0  0  0  0  0  0  0  0
   -4.8208   -2.6141    1.4679 H   0  0  0  0  0  0  0  0  0  0  0  0
   -1.9668   -2.4113   -0.8115 H   0  0  0  0  0  0  0  0  0  0  0  0
   -2.6527   -3.7982    0.0471 H   0  0  0  0  0  0  0  0  0  0  0  0
   -2.5118   -2.2394    0.8628 H   0  0  0  0  0  0  0  0  0  0  0  0
   -4.3462   -4.1925   -1.7647 H   0  0  0  0  0  0  0  0  0  0  0  0
   -3.7145   -2.8289   -2.6981 H   0  0  0  0  0  0  0  0  0  0  0  0
   -5.4341   -2.8952   -2.2842 H   0  0  0  0  0  0  0  0  0  0  0  0
    0.7923   -0.7661    1.0543 H   0  0  0  0  0  0  0  0  0  0  0  0
    2.2762    2.3417   -1.5485 H   0  0  0  0  0  0  0  0  0  0  0  0
    3.0494   -1.5394    1.3318 H   0  0  0  0  0  0  0  0  0  0  0  0
    6.2859    0.9715   -1.0598 H   0  0  0  0  0  0  0  0  0  0  0  0
    4.9717   -2.1348    1.5194 H   0  0  0  0  0  0  0  0  0  0  0  0
    8.4088   -0.5469   -0.1896 H   0  0  0  0  0  0  0  0  0  0  0  0
  1  4  1  0  0  0  0
  1 14  1  0  0  0  0
  2  8  1  0  0  0  0
  2 10  1  0  0  0  0
  2 11  1  0  0  0  0
  3 14  2  0  0  0  0
  3 18  1  0  0  0  0
  4 18  2  0  0  0  0
  5 21  1  0  0  0  0
  5 23  2  0  0  0  0
  6 23  1  0  0  0  0
  6 24  1  0  0  0  0
  6 25  1  0  0  0  0
  7 25  2  0  0  0  0
  7 26  1  0  0  0  0
  8  9  1  0  0  0  0
  8 14  1  0  0  0  0
  8 27  1  0  0  0  0
  9 12  1  0  0  0  0
  9 28  1  0  0  0  0
  9 29  1  0  0  0  0
 10 12  1  0  0  0  0
 10 30  1  0  0  0  0
 10 31  1  0  0  0  0
 11 13  1  0  0  0  0
 11 32  1  0  0  0  0
 11 33  1  0  0  0  0
 12 34  1  0  0  0  0
 12 35  1  0  0  0  0
 13 15  1  0  0  0  0
 13 16  1  0  0  0  0
 13 17  1  0  0  0  0
 15 36  1  0  0  0  0
 15 37  1  0  0  0  0
 15 38  1  0  0  0  0
 16 39  1  0  0  0  0
 16 40  1  0  0  0  0
 16 41  1  0  0  0  0
 17 42  1  0  0  0  0
 17 43  1  0  0  0  0
 17 44  1  0  0  0  0
 18 19  1  0  0  0  0
 19 20  1  0  0  0  0
 19 21  2  0  0  0  0
 20 22  2  0  0  0  0
 20 45  1  0  0  0  0
 21 46  1  0  0  0  0
 22 23  1  0  0  0  0
 22 47  1  0  0  0  0
 24 26  2  0  0  0  0
 24 48  1  0  0  0  0
 25 49  1  0  0  0  0
 26 50  1  0  0  0  0
M  END
> <PUBCHEM_COMPOUND_CID>
45783668

> <PUBCHEM_CONFORMER_RMSD>
0.8

> <PUBCHEM_CONFORMER_DIVERSEORDER>
7
6
16
3
30
11
4
31
13
9
27
14
1
15
28
22
26
10
18
12
17
19
5
24
2
23
29
20
21
25
8

> <PUBCHEM_MMFF94_PARTIAL_CHARGES>
26
1 -0.02
10 0.27
11 0.27
14 0.3
18 0.46
19 0.05
2 -0.81
20 -0.15
21 0.16
22 -0.15
23 0.29
24 -0.3
25 0.04
26 0.08
3 -0.57
4 -0.41
45 0.15
46 0.15
47 0.15
48 0.15
49 0.15
5 -0.62
50 0.15
6 0.33
7 -0.57
8 0.45

> <PUBCHEM_EFFECTIVE_ROTOR_COUNT>
6

> <PUBCHEM_PHARMACOPHORE_FEATURES>
9
1 2 cation
3 3 4 18 cation
3 5 6 23 cation
3 6 7 25 cation
4 13 15 16 17 hydrophobe
5 1 3 4 14 18 rings
5 2 8 9 10 12 rings
5 6 7 24 25 26 rings
6 5 19 20 21 22 23 rings

> <PUBCHEM_HEAVY_ATOM_COUNT>
26

> <PUBCHEM_ATOM_DEF_STEREO_COUNT>
1

> <PUBCHEM_ATOM_UDEF_STEREO_COUNT>
0

> <PUBCHEM_BOND_DEF_STEREO_COUNT>
0

> <PUBCHEM_BOND_UDEF_STEREO_COUNT>
0

> <PUBCHEM_ISOTOPIC_ATOM_COUNT>
0

> <PUBCHEM_COMPONENT_COUNT>
1

> <PUBCHEM_CACTVS_TAUTO_COUNT>
1

> <PUBCHEM_CONFORMER_ID>
02BA9A7400000007

> <PUBCHEM_MMFF94_ENERGY>
57.2695

> <PUBCHEM_FEATURE_SELFOVERLAP>
45.717

> <PUBCHEM_SHAPE_FINGERPRINT>
10319926 262 17917987282887394208
10622 236 18124586742145175527
11036077 4 18272376360899781707
11089746 13 8934990461433972462
11227150 75 13896797472050426095
11315181 36 17775279469927452993
11524674 6 17560796606788429231
11545043 162 17704067412883676330
11552529 35 18060697321226111935
11963148 33 18334851668263953226
12422481 6 17989209222614340630
12616971 3 18187093853197237108
12988421 55 17698739008486784745
13540713 5 18266755756106448597
13583140 156 16343703218617857979
13782708 43 18343014485410764154
14068700 675 17987226910887301511
14344974 204 17988922318862810942
14844126 61 18202284732381311195
14849402 71 18341899645209110032
14856354 85 18060140924855149508
14950920 106 18060700606407225801
15021287 119 17894636954453752172
15183329 4 18187079564389987874
15250474 111 18411699906654930566
15326921 28 17909548363736623465
15348495 7 17774999098788791576
15352257 5 18131076979190644926
15537594 2 18186523176507862875
15716309 27 18260553290469808048
15728490 51 18409728496129707076
15799311 1 18340781364162013870
15880784 105 18342176695651320968
16110190 28 18339364050165098426
17780758 139 18273497866765196585
17857418 61 18335417972058246718
17913733 40 15626229004888354286
18927931 339 18041003899372436629
20028762 73 18409163321083364426
20281389 69 13614230461213137792
21033648 29 15697734635668326697
21236236 1 18412261744185409266
21267235 1 17822584836277723384
21709351 56 17385442094476174252
21796203 349 17827114854454920249
220451 1 18410017602962589802
23402539 116 17603307016363534580
23466295 7 17460888534176209091
23522609 53 18118717407411076284
23559900 14 18198892790322616897
24771293 8 18261955245943891004
25147074 1 18335714887447953876
312425 54 17917717842451374434
314194 84 18040719147762862816
397830 11 17703495701850910754
4015057 19 17458637769006529684
484985 159 18271231807976886159
5104073 3 18131071575441122648
5283173 99 11241971477698376630
5364581 5 17488732505869942208
5486654 36 18339929307174957657
559249 180 18410292515440320743
58260988 114 17749972062979355451
5924683 9 18202562912859298519
6431902 208 18113900467879584458
6691757 9 17988650662692008289
7495541 125 18202559605866667888
7970288 3 18193552500769514975
9953998 17 18201717336387457656

> <PUBCHEM_SHAPE_MULTIPOLES>
499.31
17.53
3.13
1.37
25.61
1.44
-0.13
9.58
-4.05
-5.37
0.76
-1.48
-0.12
-2.88

> <PUBCHEM_SHAPE_SELFOVERLAP>
1078.446

> <PUBCHEM_SHAPE_VOLUME>
279.2

> <PUBCHEM_COORDINATE_TYPE>
2
5
10

$$$$
