9424937
  -OEChem-12032416343D

 67 71  0     1  0  0  0  0  0999 V2000
    2.3012    3.7657   -2.6536 O   0  0  0  0  0  0  0  0  0  0  0  0
    5.2911   -4.4624   -1.5803 O   0  0  0  0  0  0  0  0  0  0  0  0
   -2.7034    0.5870   -1.4917 O   0  0  0  0  0  0  0  0  0  0  0  0
    2.6302    0.3989    1.0528 N   0  0  2  0  0  0  0  0  0  0  0  0
    1.6025    2.9476   -0.5733 N   0  0  0  0  0  0  0  0  0  0  0  0
    3.8696   -3.4976   -0.0162 N   0  0  0  0  0  0  0  0  0  0  0  0
   -1.7122    1.6496    0.3145 N   0  0  0  0  0  0  0  0  0  0  0  0
   -3.6399    0.4608    0.6567 N   0  0  0  0  0  0  0  0  0  0  0  0
    3.1816    2.8138    1.4417 C   0  0  1  0  0  0  0  0  0  0  0  0
    0.8645    2.0567    1.6593 C   0  0  2  0  0  0  0  0  0  0  0  0
    1.9114    2.9949    2.2555 C   0  0  0  0  0  0  0  0  0  0  0  0
    3.6543    1.3464    1.5094 C   0  0  0  0  0  0  0  0  0  0  0  0
    1.3605    0.5966    1.7679 C   0  0  0  0  0  0  0  0  0  0  0  0
    3.0956   -0.9795    1.1846 C   0  0  0  0  0  0  0  0  0  0  0  0
    2.9092    3.2825    0.0096 C   0  0  0  0  0  0  0  0  0  0  0  0
    0.5615    2.4084    0.2041 C   0  0  0  0  0  0  0  0  0  0  0  0
    2.0554   -1.9444    0.6005 C   0  0  0  0  0  0  0  0  0  0  0  0
    4.4440   -1.1504    0.4731 C   0  0  0  0  0  0  0  0  0  0  0  0
    2.5618   -3.3861    0.6418 C   0  0  0  0  0  0  0  0  0  0  0  0
    4.9027   -2.6070    0.5168 C   0  0  0  0  0  0  0  0  0  0  0  0
   -0.6507    2.1946   -0.3560 C   0  0  0  0  0  0  0  0  0  0  0  0
    1.4323    3.2784   -1.9300 C   0  0  0  0  0  0  0  0  0  0  0  0
   -0.8779    2.5197   -1.7435 C   0  0  0  0  0  0  0  0  0  0  0  0
    0.0906    3.0240   -2.5102 C   0  0  0  0  0  0  0  0  0  0  0  0
    4.1830   -4.3877   -1.0429 C   0  0  0  0  0  0  0  0  0  0  0  0
    3.0771   -5.3023   -1.5054 C   0  0  0  0  0  0  0  0  0  0  0  0
   -2.6964    0.8644   -0.2945 C   0  0  0  0  0  0  0  0  0  0  0  0
   -4.7885   -0.3397    0.4556 C   0  0  0  0  0  0  0  0  0  0  0  0
   -5.6078   -0.6329    1.5335 C   0  0  0  0  0  0  0  0  0  0  0  0
   -5.0708   -0.8143   -0.8149 C   0  0  0  0  0  0  0  0  0  0  0  0
   -6.7407   -1.4225    1.3355 C   0  0  0  0  0  0  0  0  0  0  0  0
   -6.2036   -1.6037   -1.0130 C   0  0  0  0  0  0  0  0  0  0  0  0
   -7.0385   -1.9078    0.0623 C   0  0  0  0  0  0  0  0  0  0  0  0
   -8.2498   -2.7520   -0.1497 C   0  0  0  0  0  0  0  0  0  0  0  0
    3.9792    3.4383    1.8633 H   0  0  0  0  0  0  0  0  0  0  0  0
   -0.0322    2.1662    2.2790 H   0  0  0  0  0  0  0  0  0  0  0  0
    1.5696    4.0369    2.2231 H   0  0  0  0  0  0  0  0  0  0  0  0
    2.0924    2.7482    3.3089 H   0  0  0  0  0  0  0  0  0  0  0  0
    4.5479    1.3064    0.8791 H   0  0  0  0  0  0  0  0  0  0  0  0
    3.9606    1.1189    2.5394 H   0  0  0  0  0  0  0  0  0  0  0  0
    1.4681    0.3310    2.8283 H   0  0  0  0  0  0  0  0  0  0  0  0
    0.5625   -0.0278    1.3558 H   0  0  0  0  0  0  0  0  0  0  0  0
    3.2381   -1.2263    2.2469 H   0  0  0  0  0  0  0  0  0  0  0  0
    2.9691    4.3796   -0.0148 H   0  0  0  0  0  0  0  0  0  0  0  0
    3.6953    2.9255   -0.6679 H   0  0  0  0  0  0  0  0  0  0  0  0
    1.1170   -1.9359    1.1629 H   0  0  0  0  0  0  0  0  0  0  0  0
    1.8259   -1.6712   -0.4379 H   0  0  0  0  0  0  0  0  0  0  0  0
    4.3672   -0.8266   -0.5732 H   0  0  0  0  0  0  0  0  0  0  0  0
    5.2428   -0.5730    0.9491 H   0  0  0  0  0  0  0  0  0  0  0  0
    2.6929   -3.7162    1.6792 H   0  0  0  0  0  0  0  0  0  0  0  0
    1.8182   -4.0424    0.1863 H   0  0  0  0  0  0  0  0  0  0  0  0
    5.8379   -2.7168   -0.0413 H   0  0  0  0  0  0  0  0  0  0  0  0
    5.1001   -2.9175    1.5499 H   0  0  0  0  0  0  0  0  0  0  0  0
   -1.8652    2.4926   -2.1880 H   0  0  0  0  0  0  0  0  0  0  0  0
   -0.0882    3.3150   -3.5387 H   0  0  0  0  0  0  0  0  0  0  0  0
   -1.6733    1.6094    1.3270 H   0  0  0  0  0  0  0  0  0  0  0  0
    2.2523   -4.7169   -1.9204 H   0  0  0  0  0  0  0  0  0  0  0  0
    3.4560   -5.9630   -2.2913 H   0  0  0  0  0  0  0  0  0  0  0  0
    2.7284   -5.9249   -0.6772 H   0  0  0  0  0  0  0  0  0  0  0  0
   -3.4908    0.7803    1.6107 H   0  0  0  0  0  0  0  0  0  0  0  0
   -5.3846   -0.2602    2.5294 H   0  0  0  0  0  0  0  0  0  0  0  0
   -4.4755   -0.6242   -1.6955 H   0  0  0  0  0  0  0  0  0  0  0  0
   -7.3824   -1.6540    2.1816 H   0  0  0  0  0  0  0  0  0  0  0  0
   -6.4253   -1.9782   -2.0090 H   0  0  0  0  0  0  0  0  0  0  0  0
   -8.6574   -2.6121   -1.1566 H   0  0  0  0  0  0  0  0  0  0  0  0
   -7.9989   -3.8090   -0.0164 H   0  0  0  0  0  0  0  0  0  0  0  0
   -9.0441   -2.4880    0.5567 H   0  0  0  0  0  0  0  0  0  0  0  0
  1 22  2  0  0  0  0
  2 25  2  0  0  0  0
  3 27  2  0  0  0  0
  4 12  1  0  0  0  0
  4 13  1  0  0  0  0
  4 14  1  0  0  0  0
  5 15  1  0  0  0  0
  5 16  1  0  0  0  0
  5 22  1  0  0  0  0
  6 19  1  0  0  0  0
  6 20  1  0  0  0  0
  6 25  1  0  0  0  0
  7 21  1  0  0  0  0
  7 27  1  0  0  0  0
  7 56  1  0  0  0  0
  8 27  1  0  0  0  0
  8 28  1  0  0  0  0
  8 60  1  0  0  0  0
  9 11  1  0  0  0  0
  9 12  1  0  0  0  0
  9 15  1  0  0  0  0
  9 35  1  0  0  0  0
 10 11  1  0  0  0  0
 10 13  1  0  0  0  0
 10 16  1  0  0  0  0
 10 36  1  0  0  0  0
 11 37  1  0  0  0  0
 11 38  1  0  0  0  0
 12 39  1  0  0  0  0
 12 40  1  0  0  0  0
 13 41  1  0  0  0  0
 13 42  1  0  0  0  0
 14 17  1  0  0  0  0
 14 18  1  0  0  0  0
 14 43  1  0  0  0  0
 15 44  1  0  0  0  0
 15 45  1  0  0  0  0
 16 21  2  0  0  0  0
 17 19  1  0  0  0  0
 17 46  1  0  0  0  0
 17 47  1  0  0  0  0
 18 20  1  0  0  0  0
 18 48  1  0  0  0  0
 18 49  1  0  0  0  0
 19 50  1  0  0  0  0
 19 51  1  0  0  0  0
 20 52  1  0  0  0  0
 20 53  1  0  0  0  0
 21 23  1  0  0  0  0
 22 24  1  0  0  0  0
 23 24  2  0  0  0  0
 23 54  1  0  0  0  0
 24 55  1  0  0  0  0
 25 26  1  0  0  0  0
 26 57  1  0  0  0  0
 26 58  1  0  0  0  0
 26 59  1  0  0  0  0
 28 29  2  0  0  0  0
 28 30  1  0  0  0  0
 29 31  1  0  0  0  0
 29 61  1  0  0  0  0
 30 32  2  0  0  0  0
 30 62  1  0  0  0  0
 31 33  2  0  0  0  0
 31 63  1  0  0  0  0
 32 33  1  0  0  0  0
 32 64  1  0  0  0  0
 33 34  1  0  0  0  0
 34 65  1  0  0  0  0
 34 66  1  0  0  0  0
 34 67  1  0  0  0  0
M  END
> <PUBCHEM_COMPOUND_CID>
9424937

> <PUBCHEM_CONFORMER_RMSD>
1

> <PUBCHEM_CONFORMER_DIVERSEORDER>
2
20
16
9
17
21
10
13
7
18
22
15
11
3
5
19
4
14
6
12
8
1

> <PUBCHEM_MMFF94_PARTIAL_CHARGES>
38
1 -0.57
10 0.14
12 0.27
13 0.27
14 0.27
15 0.3
16 -0.03
19 0.3
2 -0.57
20 0.3
21 0.11
22 0.62
23 -0.15
24 -0.14
25 0.57
26 0.06
27 0.69
28 0.12
29 -0.15
3 -0.57
30 -0.15
31 -0.15
32 -0.15
33 -0.14
34 0.14
4 -0.81
5 -0.47
54 0.15
55 0.15
56 0.37
6 -0.66
60 0.37
61 0.15
62 0.15
63 0.15
64 0.15
7 -0.54
8 -0.55

> <PUBCHEM_EFFECTIVE_ROTOR_COUNT>
8.2

> <PUBCHEM_PHARMACOPHORE_FEATURES>
11
1 1 acceptor
1 2 acceptor
1 3 acceptor
1 4 cation
1 7 donor
1 8 donor
6 28 29 30 31 32 33 rings
6 4 9 10 11 12 13 rings
6 5 16 21 22 23 24 rings
6 5 9 10 11 15 16 rings
6 6 14 17 18 19 20 rings

> <PUBCHEM_HEAVY_ATOM_COUNT>
34

> <PUBCHEM_ATOM_DEF_STEREO_COUNT>
2

> <PUBCHEM_ATOM_UDEF_STEREO_COUNT>
0

> <PUBCHEM_BOND_DEF_STEREO_COUNT>
0

> <PUBCHEM_BOND_UDEF_STEREO_COUNT>
0

> <PUBCHEM_ISOTOPIC_ATOM_COUNT>
0

> <PUBCHEM_COMPONENT_COUNT>
1

> <PUBCHEM_CACTVS_TAUTO_COUNT>
3

> <PUBCHEM_CONFORMER_ID>
008FD02900000002

> <PUBCHEM_MMFF94_ENERGY>
98.6349

> <PUBCHEM_FEATURE_SELFOVERLAP>
57.421

> <PUBCHEM_SHAPE_FINGERPRINT>
10319688 140 18412265064421703090
11093857 51 18189909793128831182
11181472 205 18188213204582161645
11399939 17 18269560601478660223
11456790 92 12318644080054191237
117089 54 18128542561095325534
11954058 11 18410013247517728583
12107183 9 17914907444113887169
12623949 98 18411980260687043406
13383661 66 18269276764122211066
13533116 47 18270115842339402667
1361 2 18263358247896258787
13989917 61 18339078319556916147
14251740 57 18408318913021118441
14863182 85 18264765648133176432
14918310 93 17604141653516925796
15475509 35 18272368715140959953
15484559 13 17315074600276736068
15803439 3 17321303376676544588
18365409 1 17474104779610748604
19301679 30 18335984255676592073
19315092 285 18060138765008527961
19319366 153 17772459342392151465
1979834 28 18190450752512710345
20771845 140 18192425501245374152
20775530 9 18192712250130220362
21133410 38 17843382232056564151
21307412 95 18048026381745204285
21344244 181 18266754656964144764
21360442 43 16900751810046116862
21365058 27 18124033696449596120
21796203 349 16486113000442081338
23523787 8 17758990359854849428
23569914 2 12317779675549245963
239999 70 17386838581755048417
3737641 26 18341045220781599074
3886686 26 17912934877072056753
4017518 198 18048051945902753436
4394409 98 15234685922015517326
46194498 28 17677040360701209781
49967989 163 16899899688497868374
57527585 103 17049932495292066094
5951187 136 12862979774079754614
6201320 221 17773004624068897271
6695519 79 17626061542771414120
86090 222 18040994064230119883
9555976 147 17131562648595493899
9831232 110 18187076287651616239

> <PUBCHEM_SHAPE_MULTIPOLES>
657.19
15.68
6.95
2.18
39.2
6.16
-0.71
19.92
1.94
-12.55
-3.97
-1.19
-1.78
2.09

> <PUBCHEM_SHAPE_SELFOVERLAP>
1416.857

> <PUBCHEM_SHAPE_VOLUME>
352.5

> <PUBCHEM_COORDINATE_TYPE>
2
5
10

$$$$
