25390419
  -OEChem-12032416173D

 45 46  0     1  0  0  0  0  0999 V2000
    1.4250    0.5177   -1.0219 O   0  0  0  0  0  0  0  0  0  0  0  0
    4.2893   -0.5003    0.8911 O   0  0  0  0  0  0  0  0  0  0  0  0
    3.8087    2.0745    0.0500 O   0  0  0  0  0  0  0  0  0  0  0  0
   -0.7936   -1.4816   -1.5504 O   0  0  0  0  0  0  0  0  0  0  0  0
   -0.9730    2.9135   -0.7544 O   0  0  0  0  0  0  0  0  0  0  0  0
    0.9205   -2.1215   -0.1074 N   0  0  0  0  0  0  0  0  0  0  0  0
   -2.1707    1.4105    0.5477 N   0  0  0  0  0  0  0  0  0  0  0  0
   -1.3992   -2.3090    0.5668 C   0  0  0  0  0  0  0  0  0  0  0  0
    2.5072   -0.3929   -0.7596 C   0  0  1  0  0  0  0  0  0  0  0  0
   -2.4805   -3.2897    0.2192 C   0  0  0  0  0  0  0  0  0  0  0  0
   -1.3637   -3.6976    1.1347 C   0  0  0  0  0  0  0  0  0  0  0  0
    2.9552   -0.0998    0.6625 C   0  0  2  0  0  0  0  0  0  0  0  0
    2.7574    1.3999    0.7400 C   0  0  2  0  0  0  0  0  0  0  0  0
    1.4704    1.5918   -0.0549 C   0  0  2  0  0  0  0  0  0  0  0  0
    2.0332   -1.8214   -0.9591 C   0  0  0  0  0  0  0  0  0  0  0  0
   -0.4034   -1.9254   -0.4769 C   0  0  0  0  0  0  0  0  0  0  0  0
    0.2182    1.4969    0.8060 C   0  0  0  0  0  0  0  0  0  0  0  0
   -1.0137    2.0342    0.1022 C   0  0  0  0  0  0  0  0  0  0  0  0
   -3.4704    1.7406    0.0372 C   0  0  0  0  0  0  0  0  0  0  0  0
   -4.5262    1.5592    1.1200 C   0  0  0  0  0  0  0  0  0  0  0  0
   -3.7909    0.9004   -1.1928 C   0  0  0  0  0  0  0  0  0  0  0  0
   -1.6728   -1.5108    1.2475 H   0  0  0  0  0  0  0  0  0  0  0  0
    3.3108   -0.1831   -1.4766 H   0  0  0  0  0  0  0  0  0  0  0  0
    2.3138   -0.5862    1.4054 H   0  0  0  0  0  0  0  0  0  0  0  0
   -2.4965   -3.7186   -0.7753 H   0  0  0  0  0  0  0  0  0  0  0  0
   -3.4599   -3.1348    0.6551 H   0  0  0  0  0  0  0  0  0  0  0  0
   -1.5923   -3.8173    2.1868 H   0  0  0  0  0  0  0  0  0  0  0  0
   -0.6416   -4.4085    0.7521 H   0  0  0  0  0  0  0  0  0  0  0  0
    2.7301    1.7830    1.7641 H   0  0  0  0  0  0  0  0  0  0  0  0
    1.4923    2.5320   -0.6170 H   0  0  0  0  0  0  0  0  0  0  0  0
    2.8318   -2.5352   -0.7338 H   0  0  0  0  0  0  0  0  0  0  0  0
    1.7197   -1.9668   -1.9988 H   0  0  0  0  0  0  0  0  0  0  0  0
    0.0434    0.4636    1.1216 H   0  0  0  0  0  0  0  0  0  0  0  0
    0.3365    2.1068    1.7100 H   0  0  0  0  0  0  0  0  0  0  0  0
    1.1196   -2.4971    0.8153 H   0  0  0  0  0  0  0  0  0  0  0  0
    4.5471   -0.1696    1.7684 H   0  0  0  0  0  0  0  0  0  0  0  0
    3.6239    3.0280    0.0994 H   0  0  0  0  0  0  0  0  0  0  0  0
   -2.1033    0.6732    1.2425 H   0  0  0  0  0  0  0  0  0  0  0  0
   -3.4649    2.7957   -0.2621 H   0  0  0  0  0  0  0  0  0  0  0  0
   -4.5730    0.5186    1.4604 H   0  0  0  0  0  0  0  0  0  0  0  0
   -4.2987    2.1813    1.9926 H   0  0  0  0  0  0  0  0  0  0  0  0
   -5.5177    1.8422    0.7517 H   0  0  0  0  0  0  0  0  0  0  0  0
   -3.7926   -0.1689   -0.9529 H   0  0  0  0  0  0  0  0  0  0  0  0
   -3.0465    1.0581   -1.9809 H   0  0  0  0  0  0  0  0  0  0  0  0
   -4.7735    1.1605   -1.5998 H   0  0  0  0  0  0  0  0  0  0  0  0
  1  9  1  0  0  0  0
  1 14  1  0  0  0  0
  2 12  1  0  0  0  0
  2 36  1  0  0  0  0
  3 13  1  0  0  0  0
  3 37  1  0  0  0  0
  4 16  2  0  0  0  0
  5 18  2  0  0  0  0
  6 15  1  0  0  0  0
  6 16  1  0  0  0  0
  6 35  1  0  0  0  0
  7 18  1  0  0  0  0
  7 19  1  0  0  0  0
  7 38  1  0  0  0  0
  8 10  1  0  0  0  0
  8 11  1  0  0  0  0
  8 16  1  0  0  0  0
  8 22  1  0  0  0  0
  9 12  1  0  0  0  0
  9 15  1  0  0  0  0
  9 23  1  0  0  0  0
 10 11  1  0  0  0  0
 10 25  1  0  0  0  0
 10 26  1  0  0  0  0
 11 27  1  0  0  0  0
 11 28  1  0  0  0  0
 12 13  1  0  0  0  0
 12 24  1  0  0  0  0
 13 14  1  0  0  0  0
 13 29  1  0  0  0  0
 14 17  1  0  0  0  0
 14 30  1  0  0  0  0
 15 31  1  0  0  0  0
 15 32  1  0  0  0  0
 17 18  1  0  0  0  0
 17 33  1  0  0  0  0
 17 34  1  0  0  0  0
 19 20  1  0  0  0  0
 19 21  1  0  0  0  0
 19 39  1  0  0  0  0
 20 40  1  0  0  0  0
 20 41  1  0  0  0  0
 20 42  1  0  0  0  0
 21 43  1  0  0  0  0
 21 44  1  0  0  0  0
 21 45  1  0  0  0  0
M  END
> <PUBCHEM_COMPOUND_CID>
25390419

> <PUBCHEM_CONFORMER_RMSD>
1

> <PUBCHEM_CONFORMER_DIVERSEORDER>
5
93
65
74
45
60
67
3
46
96
78
39
106
21
63
44
98
31
90
10
13
99
100
58
75
9
55
72
105
68
27
23
86
77
6
49
89
97
37
62
17
83
48
34
35
47
57
12
56
2
92
81
24
43
28
95
22
42
80
64
52
33
25
50
91
94
103
61
82
54
87
30
7
104
102
76
70
84
29
69
85
4
71
1
11
88
101
36
15
19
40
79
16
38
41
59
73
20
53
51
26
32
66
18
14
8

> <PUBCHEM_MMFF94_PARTIAL_CHARGES>
28
1 -0.56
10 -0.2
11 -0.2
12 0.28
13 0.28
14 0.28
15 0.3
16 0.63
17 0.06
18 0.57
19 0.3
2 -0.68
22 0.1
25 0.1
26 0.1
27 0.1
28 0.1
3 -0.68
35 0.37
36 0.4
37 0.4
38 0.37
4 -0.57
5 -0.57
6 -0.73
7 -0.73
8 -0.1
9 0.28

> <PUBCHEM_EFFECTIVE_ROTOR_COUNT>
9.6

> <PUBCHEM_PHARMACOPHORE_FEATURES>
11
1 1 acceptor
1 2 acceptor
1 2 donor
1 3 acceptor
1 3 donor
1 4 acceptor
1 5 acceptor
1 6 donor
1 7 donor
3 19 20 21 hydrophobe
5 1 9 12 13 14 rings

> <PUBCHEM_HEAVY_ATOM_COUNT>
21

> <PUBCHEM_ATOM_DEF_STEREO_COUNT>
4

> <PUBCHEM_ATOM_UDEF_STEREO_COUNT>
0

> <PUBCHEM_BOND_DEF_STEREO_COUNT>
0

> <PUBCHEM_BOND_UDEF_STEREO_COUNT>
0

> <PUBCHEM_ISOTOPIC_ATOM_COUNT>
0

> <PUBCHEM_COMPONENT_COUNT>
1

> <PUBCHEM_CACTVS_TAUTO_COUNT>
4

> <PUBCHEM_CONFORMER_ID>
01836D5300000005

> <PUBCHEM_MMFF94_ENERGY>
39.0398

> <PUBCHEM_FEATURE_SELFOVERLAP>
55.835

> <PUBCHEM_SHAPE_FINGERPRINT>
10064457 181 18339655455501608857
104564 63 18124599940193890988
10688039 33 17826229889829458635
10759866 29 18043252538380387964
108634 29 18412265060106026855
1100329 8 18266177219120598099
11370993 70 18337100156008207789
11578080 2 16844426397270023562
11680986 33 18272377430077996238
12596599 1 17344915114046973517
13140716 1 18340763836342326904
13583140 156 17022895753104327073
14251745 187 18200300130476581873
14787075 74 18059559270503835424
14866123 147 18191010228196701362
17357779 13 17983007044867128503
19591789 44 17761209913017236074
20645477 70 17913197673120264397
20691752 17 18337390435847106677
21041028 32 17688593087981599414
21197605 99 18271533108622828579
21304304 249 18120362173499608530
21421861 104 17619636782797413969
22182313 1 17987253290423244908
23419403 2 16983267184885292661
23559900 14 18343024381157592148
2748010 2 18199479916256186966
3052486 1 18262531397428651359
35225 105 17241631509812789435
5283268 108 17976558413613200979
6438718 38 18059854016971455135
81228 2 18122884680706526097

> <PUBCHEM_SHAPE_MULTIPOLES>
392.86
6.72
4.26
1.18
0.79
3.1
-0.13
-3.41
1.11
2.82
0.66
0.26
0.19
0.52

> <PUBCHEM_SHAPE_SELFOVERLAP>
792.63

> <PUBCHEM_SHAPE_VOLUME>
231.4

> <PUBCHEM_COORDINATE_TYPE>
2
5
10

$$$$
