11884078
  -OEChem-12032416153D

 55 58  0     1  0  0  0  0  0999 V2000
    4.3027   -0.8831   -0.4599 S   0  0  0  0  0  0  0  0  0  0  0  0
    0.0274    0.4764   -1.0617 O   0  0  0  0  0  0  0  0  0  0  0  0
    0.9588    2.6126    0.9459 O   0  0  0  0  0  0  0  0  0  0  0  0
   -2.3172    1.5712   -0.0630 O   0  0  0  0  0  0  0  0  0  0  0  0
    4.5616   -0.1517   -1.6846 O   0  0  0  0  0  0  0  0  0  0  0  0
    4.4716   -2.3226   -0.4057 O   0  0  0  0  0  0  0  0  0  0  0  0
   -3.3201    0.1735    1.4438 O   0  0  0  0  0  0  0  0  0  0  0  0
   -9.3743   -1.6318   -0.1818 O   0  0  0  0  0  0  0  0  0  0  0  0
    2.7489   -0.5072    0.1257 N   0  0  0  0  0  0  0  0  0  0  0  0
   -4.4147    0.8693   -0.5051 N   0  0  0  0  0  0  0  0  0  0  0  0
    1.1556    1.1839    0.9023 C   0  0  1  0  0  0  0  0  0  0  0  0
   -0.1259    0.5795    0.3635 C   0  0  1  0  0  0  0  0  0  0  0  0
    2.1884    0.8388   -0.1417 C   0  0  2  0  0  0  0  0  0  0  0  0
   -1.1604    1.6124    0.7415 C   0  0  1  0  0  0  0  0  0  0  0  0
    1.3764    0.8107   -1.4220 C   0  0  0  0  0  0  0  0  0  0  0  0
   -0.3954    2.9055    0.5725 C   0  0  0  0  0  0  0  0  0  0  0  0
    5.3164   -0.1811    0.8214 C   0  0  0  0  0  0  0  0  0  0  0  0
   -3.3671    0.8009    0.3927 C   0  0  0  0  0  0  0  0  0  0  0  0
    6.7479   -0.4278    0.4569 C   0  0  0  0  0  0  0  0  0  0  0  0
    7.4432    0.5068   -0.3104 C   0  0  0  0  0  0  0  0  0  0  0  0
    7.3862   -1.5918    0.8853 C   0  0  0  0  0  0  0  0  0  0  0  0
   -5.6741    0.2330   -0.4231 C   0  0  0  0  0  0  0  0  0  0  0  0
    8.7766    0.2773   -0.6498 C   0  0  0  0  0  0  0  0  0  0  0  0
    8.7196   -1.8212    0.5460 C   0  0  0  0  0  0  0  0  0  0  0  0
    9.4148   -0.8865   -0.2215 C   0  0  0  0  0  0  0  0  0  0  0  0
   -6.6169    0.4200   -1.4341 C   0  0  0  0  0  0  0  0  0  0  0  0
   -5.9748   -0.5811    0.6690 C   0  0  0  0  0  0  0  0  0  0  0  0
   -7.8602   -0.2068   -1.3530 C   0  0  0  0  0  0  0  0  0  0  0  0
   -7.2183   -1.2081    0.7500 C   0  0  0  0  0  0  0  0  0  0  0  0
   -8.1609   -1.0208   -0.2610 C   0  0  0  0  0  0  0  0  0  0  0  0
   -9.6160   -2.4503    0.9618 C   0  0  0  0  0  0  0  0  0  0  0  0
    1.3987    0.8531    1.9170 H   0  0  0  0  0  0  0  0  0  0  0  0
   -0.3439   -0.4214    0.7470 H   0  0  0  0  0  0  0  0  0  0  0  0
    2.9932    1.5786   -0.1953 H   0  0  0  0  0  0  0  0  0  0  0  0
   -1.4014    1.5138    1.8090 H   0  0  0  0  0  0  0  0  0  0  0  0
    1.7355    0.0934   -2.1658 H   0  0  0  0  0  0  0  0  0  0  0  0
    1.3491    1.8022   -1.8871 H   0  0  0  0  0  0  0  0  0  0  0  0
   -0.7865    3.7068    1.2067 H   0  0  0  0  0  0  0  0  0  0  0  0
   -0.4077    3.2643   -0.4629 H   0  0  0  0  0  0  0  0  0  0  0  0
    2.3898   -1.0095    0.9468 H   0  0  0  0  0  0  0  0  0  0  0  0
    5.0565   -0.6570    1.7720 H   0  0  0  0  0  0  0  0  0  0  0  0
    5.1054    0.8900    0.8928 H   0  0  0  0  0  0  0  0  0  0  0  0
   -4.2645    1.4479   -1.3281 H   0  0  0  0  0  0  0  0  0  0  0  0
    6.9580    1.4181   -0.6499 H   0  0  0  0  0  0  0  0  0  0  0  0
    6.8564   -2.3276    1.4846 H   0  0  0  0  0  0  0  0  0  0  0  0
    9.3179    1.0049   -1.2473 H   0  0  0  0  0  0  0  0  0  0  0  0
    9.2168   -2.7274    0.8795 H   0  0  0  0  0  0  0  0  0  0  0  0
   10.4529   -1.0652   -0.4855 H   0  0  0  0  0  0  0  0  0  0  0  0
   -6.3953    1.0520   -2.2903 H   0  0  0  0  0  0  0  0  0  0  0  0
   -5.2952   -0.7716    1.4881 H   0  0  0  0  0  0  0  0  0  0  0  0
   -8.5906   -0.0572   -2.1435 H   0  0  0  0  0  0  0  0  0  0  0  0
   -7.3873   -1.8268    1.6249 H   0  0  0  0  0  0  0  0  0  0  0  0
   -8.9308   -3.3041    0.9977 H   0  0  0  0  0  0  0  0  0  0  0  0
   -9.5982   -1.8643    1.8870 H   0  0  0  0  0  0  0  0  0  0  0  0
  -10.6277   -2.8565    0.8604 H   0  0  0  0  0  0  0  0  0  0  0  0
  1  5  2  0  0  0  0
  1  6  2  0  0  0  0
  1  9  1  0  0  0  0
  1 17  1  0  0  0  0
  2 12  1  0  0  0  0
  2 15  1  0  0  0  0
  3 11  1  0  0  0  0
  3 16  1  0  0  0  0
  4 14  1  0  0  0  0
  4 18  1  0  0  0  0
  7 18  2  0  0  0  0
  8 30  1  0  0  0  0
  8 31  1  0  0  0  0
  9 13  1  0  0  0  0
  9 40  1  0  0  0  0
 10 18  1  0  0  0  0
 10 22  1  0  0  0  0
 10 43  1  0  0  0  0
 11 12  1  0  0  0  0
 11 13  1  0  0  0  0
 11 32  1  0  0  0  0
 12 14  1  0  0  0  0
 12 33  1  0  0  0  0
 13 15  1  0  0  0  0
 13 34  1  0  0  0  0
 14 16  1  0  0  0  0
 14 35  1  0  0  0  0
 15 36  1  0  0  0  0
 15 37  1  0  0  0  0
 16 38  1  0  0  0  0
 16 39  1  0  0  0  0
 17 19  1  0  0  0  0
 17 41  1  0  0  0  0
 17 42  1  0  0  0  0
 19 20  2  0  0  0  0
 19 21  1  0  0  0  0
 20 23  1  0  0  0  0
 20 44  1  0  0  0  0
 21 24  2  0  0  0  0
 21 45  1  0  0  0  0
 22 26  2  0  0  0  0
 22 27  1  0  0  0  0
 23 25  2  0  0  0  0
 23 46  1  0  0  0  0
 24 25  1  0  0  0  0
 24 47  1  0  0  0  0
 25 48  1  0  0  0  0
 26 28  1  0  0  0  0
 26 49  1  0  0  0  0
 27 29  2  0  0  0  0
 27 50  1  0  0  0  0
 28 30  2  0  0  0  0
 28 51  1  0  0  0  0
 29 30  1  0  0  0  0
 29 52  1  0  0  0  0
 31 53  1  0  0  0  0
 31 54  1  0  0  0  0
 31 55  1  0  0  0  0
M  END
> <PUBCHEM_COMPOUND_CID>
11884078

> <PUBCHEM_CONFORMER_RMSD>
1

> <PUBCHEM_CONFORMER_DIVERSEORDER>
1
142
113
219
61
177
116
127
89
222
203
140
208
104
167
14
146
59
190
107
83
118
28
43
64
155
124
21
201
209
31
196
22
199
29
221
121
24
223
52
13
157
4
79
211
114
128
96
108
90
169
6
133
188
159
215
171
66
34
56
160
200
11
110
74
117
205
217
131
197
42
165
195
87
148
207
187
225
40
130
213
37
163
189
151
2
111
55
166
115
77
224
26
47
202
63
78
214
102
71
139
30
109
44
95
158
58
88
220
76
57
103
84
16
9
106
135
212
46
226
173
152
206
69
179
216
141
33
143
183
161
85
81
19
120
8
204
93
150
119
97
149
145
12
137
181
98
18
3
186
218
192
91
176
15
193
138
198
72
125
48
170
54
178
86
51
53
153
45
70
105
147
36
41
134
10
112
27
126
65
17
101
162
50
20
73
194
164
25
82
172
7
80
68
185
180
210
5
100
156
60
122
144
182
94
99
191
174
136
132
38
23
49
92
154
62
168
67
129
123
35
32
39
184
175
75

> <PUBCHEM_MMFF94_PARTIAL_CHARGES>
42
1 1.33
10 -0.55
11 0.28
12 0.28
13 0.36
14 0.28
15 0.28
16 0.28
17 0.25
18 0.78
19 -0.14
2 -0.56
20 -0.15
21 -0.15
22 0.12
23 -0.15
24 -0.15
25 -0.15
26 -0.15
27 -0.15
28 -0.15
29 -0.15
3 -0.56
30 0.08
31 0.28
4 -0.43
40 0.42
43 0.37
44 0.15
45 0.15
46 0.15
47 0.15
48 0.15
49 0.15
5 -0.65
50 0.15
51 0.15
52 0.15
6 -0.65
7 -0.57
8 -0.36
9 -0.91

> <PUBCHEM_EFFECTIVE_ROTOR_COUNT>
10.2

> <PUBCHEM_PHARMACOPHORE_FEATURES>
12
1 10 donor
1 2 acceptor
1 3 acceptor
1 5 acceptor
1 6 acceptor
1 7 acceptor
1 8 acceptor
1 9 donor
5 2 11 12 13 15 rings
5 3 11 12 14 16 rings
6 19 20 21 23 24 25 rings
6 22 26 27 28 29 30 rings

> <PUBCHEM_HEAVY_ATOM_COUNT>
31

> <PUBCHEM_ATOM_DEF_STEREO_COUNT>
4

> <PUBCHEM_ATOM_UDEF_STEREO_COUNT>
0

> <PUBCHEM_BOND_DEF_STEREO_COUNT>
0

> <PUBCHEM_BOND_UDEF_STEREO_COUNT>
0

> <PUBCHEM_ISOTOPIC_ATOM_COUNT>
0

> <PUBCHEM_COMPONENT_COUNT>
1

> <PUBCHEM_CACTVS_TAUTO_COUNT>
2

> <PUBCHEM_CONFORMER_ID>
00B5562E00000001

> <PUBCHEM_MMFF94_ENERGY>
91.1375

> <PUBCHEM_FEATURE_SELFOVERLAP>
61.629

> <PUBCHEM_SHAPE_FINGERPRINT>
10 15 11455891360808327541
10076449 9 18341894095166208041
10162869 55 18040718066006039060
10165383 225 7853857183148131161
10625338 86 13182745814706404283
106641 1 17060617806920226304
10670039 82 16587735427110747541
10883706 17 17968384554115391603
11135609 99 18342457101476515375
11146346 60 17203062798532551497
11146851 88 18334579052923214974
11211813 128 17775007860791152598
11297750 10 18342164575170203217
11386260 185 15430325758472073342
11828042 206 17967809453789329949
12082328 90 18187640267784928229
12539745 222 17988927748091310721
14150022 121 16128383631731331369
14150023 24 9583519810722972380
14251764 18 17632576041717184334
14344974 52 13840273619544568011
15183329 4 16226045574535828057
15350500 55 9799421014481995323
15461852 350 18113336392644471733
155225 1 8430322338294446151
15690457 1 18334856108937383522
15706992 2 12175619620292657954
15728490 51 17489864951222326663
15979999 66 17968096434355100860
16728433 110 18272927250796643280
17852330 162 17242185741092992324
1818759 1 18272090500039086887
18335252 114 12251901499202271478
18335252 98 18060702767371445630
2026 5 18260828164230134051
20505436 4 9799689277127350092
20721686 124 12829482632939109464
20771845 171 18116154553138831556
21049683 271 18342175583730194408
21150785 3 17458062664026128676
21267235 1 18272368676386170240
21585482 111 8862401824993172447
22149856 69 16558481802770783744
22224240 67 15985099713121605132
232437 2 18408041809899433570
23389318 12 18335425673367280980
23569917 315 18198064682622640982
23576562 1 14924524055533158239
23729398 52 18198060476678852096
249057 3 15864359055519974194
3383291 50 18272373088003755639
3633792 109 16660647328524371696
3711267 37 9367063410654800263
395649 100 18334572392188802397
437795 83 11675142780213702263
4461854 278 17275106149905375895
4760202 170 14418429814816034646
5219985 9 18202562873577501808
54039377 194 18411136952975831831
5758199 1 14117796916345785981
59682541 35 17917704708989736874
636775 72 10591778580329769051
636775 8 18334016107923877699
9663363 56 17989203738526178109
9689198 14 11383827177742103958
9953998 17 14692567728616240901
9962374 69 17917702561458648661

> <PUBCHEM_SHAPE_MULTIPOLES>
590.77
34.65
2.17
1.22
9.44
0.24
0.2
-26.01
1.92
0.98
-0.67
0.65
0.11
0.49

> <PUBCHEM_SHAPE_SELFOVERLAP>
1255.192

> <PUBCHEM_SHAPE_VOLUME>
330.7

> <PUBCHEM_COORDINATE_TYPE>
2
5
10

$$$$
