45361384
  -OEChem-12032416313D

 73 75  0     1  0  0  0  0  0999 V2000
    2.0624    1.3372   -0.4976 O   0  0  0  0  0  0  0  0  0  0  0  0
    6.2259   -1.8459   -0.8986 O   0  0  0  0  0  0  0  0  0  0  0  0
   -4.0188   -0.1691    2.3107 O   0  0  0  0  0  0  0  0  0  0  0  0
   -9.0508    1.2761   -1.2444 O   0  0  0  0  0  0  0  0  0  0  0  0
   -3.0575   -0.2865    0.2041 N   0  0  0  0  0  0  0  0  0  0  0  0
    6.5197    0.0523    0.3916 N   0  0  0  0  0  0  0  0  0  0  0  0
    5.9851    4.8796    0.8068 N   0  0  0  0  0  0  0  0  0  0  0  0
    0.7989   -2.2010    0.1806 C   0  0  1  0  0  0  0  0  0  0  0  0
    0.7826   -0.6366    0.1437 C   0  0  2  0  0  0  0  0  0  0  0  0
   -0.6286   -0.1024   -0.2931 C   0  0  1  0  0  0  0  0  0  0  0  0
    1.9884   -0.0792   -0.6663 C   0  0  2  0  0  0  0  0  0  0  0  0
    2.1630   -2.6902    0.7218 C   0  0  0  0  0  0  0  0  0  0  0  0
    3.3424   -0.6527   -0.1875 C   0  0  1  0  0  0  0  0  0  0  0  0
   -0.2974   -2.6939    1.1532 C   0  0  0  0  0  0  0  0  0  0  0  0
   -1.7319   -0.6648    0.6468 C   0  0  2  0  0  0  0  0  0  0  0  0
    3.3437   -2.1783   -0.0927 C   0  0  0  0  0  0  0  0  0  0  0  0
   -1.6865   -2.1853    0.7952 C   0  0  0  0  0  0  0  0  0  0  0  0
    0.5627   -2.8306   -1.2157 C   0  0  0  0  0  0  0  0  0  0  0  0
    4.5022   -0.1939   -1.0800 C   0  0  2  0  0  0  0  0  0  0  0  0
   -0.7239    1.4325   -0.3230 C   0  0  0  0  0  0  0  0  0  0  0  0
    4.2638   -0.6742   -2.5126 C   0  0  0  0  0  0  0  0  0  0  0  0
    5.8243   -0.7361   -0.5312 C   0  0  0  0  0  0  0  0  0  0  0  0
   -4.0995   -0.0690    1.0891 C   0  0  0  0  0  0  0  0  0  0  0  0
   -5.4045    0.2870    0.4748 C   0  0  0  0  0  0  0  0  0  0  0  0
    6.1339    1.3853    0.8503 C   0  0  0  0  0  0  0  0  0  0  0  0
    7.7722   -0.4451    0.9506 C   0  0  0  0  0  0  0  0  0  0  0  0
    6.7209    2.4921   -0.0173 C   0  0  0  0  0  0  0  0  0  0  0  0
   -6.5934   -0.0156    1.1386 C   0  0  0  0  0  0  0  0  0  0  0  0
   -5.4410    0.9221   -0.7666 C   0  0  0  0  0  0  0  0  0  0  0  0
   -7.8188    0.3164    0.5610 C   0  0  0  0  0  0  0  0  0  0  0  0
   -6.6662    1.2541   -1.3443 C   0  0  0  0  0  0  0  0  0  0  0  0
   -7.8551    0.9513   -0.6805 C   0  0  0  0  0  0  0  0  0  0  0  0
    6.3091    3.8261    0.4440 C   0  0  0  0  0  0  0  0  0  0  0  0
  -10.2272    0.9381   -0.5112 C   0  0  0  0  0  0  0  0  0  0  0  0
    0.9220   -0.2814    1.1775 H   0  0  0  0  0  0  0  0  0  0  0  0
   -0.8346   -0.4408   -1.3165 H   0  0  0  0  0  0  0  0  0  0  0  0
    1.7981   -0.2707   -1.7237 H   0  0  0  0  0  0  0  0  0  0  0  0
    2.2870   -2.3594    1.7619 H   0  0  0  0  0  0  0  0  0  0  0  0
    2.1914   -3.7873    0.7453 H   0  0  0  0  0  0  0  0  0  0  0  0
    3.5272   -0.2680    0.8256 H   0  0  0  0  0  0  0  0  0  0  0  0
   -0.0605   -2.3639    2.1737 H   0  0  0  0  0  0  0  0  0  0  0  0
   -0.3145   -3.7908    1.1823 H   0  0  0  0  0  0  0  0  0  0  0  0
   -1.5778   -0.2293    1.6438 H   0  0  0  0  0  0  0  0  0  0  0  0
    4.2463   -2.5336    0.4168 H   0  0  0  0  0  0  0  0  0  0  0  0
    3.3246   -2.6723   -1.0655 H   0  0  0  0  0  0  0  0  0  0  0  0
   -2.3906   -2.5038    1.5748 H   0  0  0  0  0  0  0  0  0  0  0  0
   -2.0377   -2.6659   -0.1261 H   0  0  0  0  0  0  0  0  0  0  0  0
   -0.4200   -2.5898   -1.6293 H   0  0  0  0  0  0  0  0  0  0  0  0
    0.6260   -3.9238   -1.1608 H   0  0  0  0  0  0  0  0  0  0  0  0
    1.2985   -2.4998   -1.9539 H   0  0  0  0  0  0  0  0  0  0  0  0
    4.5442    0.8974   -1.1258 H   0  0  0  0  0  0  0  0  0  0  0  0
   -0.3719    1.8710    0.6164 H   0  0  0  0  0  0  0  0  0  0  0  0
   -1.7511    1.7754   -0.4842 H   0  0  0  0  0  0  0  0  0  0  0  0
   -0.1450    1.8479   -1.1525 H   0  0  0  0  0  0  0  0  0  0  0  0
   -3.2268   -0.2978   -0.7963 H   0  0  0  0  0  0  0  0  0  0  0  0
    2.1844    1.5229    0.4491 H   0  0  0  0  0  0  0  0  0  0  0  0
    4.1805   -1.7567   -2.6269 H   0  0  0  0  0  0  0  0  0  0  0  0
    5.1273   -0.3864   -3.1270 H   0  0  0  0  0  0  0  0  0  0  0  0
    3.4001   -0.1994   -2.9838 H   0  0  0  0  0  0  0  0  0  0  0  0
    5.0431    1.4673    0.8706 H   0  0  0  0  0  0  0  0  0  0  0  0
    6.4575    1.5013    1.8927 H   0  0  0  0  0  0  0  0  0  0  0  0
    7.6746   -0.5042    2.0387 H   0  0  0  0  0  0  0  0  0  0  0  0
    8.0257   -1.4376    0.5698 H   0  0  0  0  0  0  0  0  0  0  0  0
    8.5800    0.2451    0.6916 H   0  0  0  0  0  0  0  0  0  0  0  0
    6.4146    2.3574   -1.0610 H   0  0  0  0  0  0  0  0  0  0  0  0
    7.8155    2.4318   -0.0100 H   0  0  0  0  0  0  0  0  0  0  0  0
   -6.5848   -0.5144    2.1043 H   0  0  0  0  0  0  0  0  0  0  0  0
   -4.5389    1.2030   -1.3021 H   0  0  0  0  0  0  0  0  0  0  0  0
   -8.7034    0.0516    1.1300 H   0  0  0  0  0  0  0  0  0  0  0  0
   -6.6888    1.7548   -2.3085 H   0  0  0  0  0  0  0  0  0  0  0  0
  -11.0850    1.2687   -1.1061 H   0  0  0  0  0  0  0  0  0  0  0  0
  -10.2746    1.4739    0.4430 H   0  0  0  0  0  0  0  0  0  0  0  0
  -10.3249   -0.1454   -0.3843 H   0  0  0  0  0  0  0  0  0  0  0  0
  1 11  1  0  0  0  0
  1 56  1  0  0  0  0
  2 22  2  0  0  0  0
  3 23  2  0  0  0  0
  4 32  1  0  0  0  0
  4 34  1  0  0  0  0
  5 15  1  0  0  0  0
  5 23  1  0  0  0  0
  5 55  1  0  0  0  0
  6 22  1  0  0  0  0
  6 25  1  0  0  0  0
  6 26  1  0  0  0  0
  7 33  3  0  0  0  0
  8  9  1  0  0  0  0
  8 12  1  0  0  0  0
  8 14  1  0  0  0  0
  8 18  1  0  0  0  0
  9 10  1  0  0  0  0
  9 11  1  0  0  0  0
  9 35  1  0  0  0  0
 10 15  1  0  0  0  0
 10 20  1  0  0  0  0
 10 36  1  0  0  0  0
 11 13  1  0  0  0  0
 11 37  1  0  0  0  0
 12 16  1  0  0  0  0
 12 38  1  0  0  0  0
 12 39  1  0  0  0  0
 13 16  1  0  0  0  0
 13 19  1  0  0  0  0
 13 40  1  0  0  0  0
 14 17  1  0  0  0  0
 14 41  1  0  0  0  0
 14 42  1  0  0  0  0
 15 17  1  0  0  0  0
 15 43  1  0  0  0  0
 16 44  1  0  0  0  0
 16 45  1  0  0  0  0
 17 46  1  0  0  0  0
 17 47  1  0  0  0  0
 18 48  1  0  0  0  0
 18 49  1  0  0  0  0
 18 50  1  0  0  0  0
 19 21  1  0  0  0  0
 19 22  1  0  0  0  0
 19 51  1  0  0  0  0
 20 52  1  0  0  0  0
 20 53  1  0  0  0  0
 20 54  1  0  0  0  0
 21 57  1  0  0  0  0
 21 58  1  0  0  0  0
 21 59  1  0  0  0  0
 23 24  1  0  0  0  0
 24 28  2  0  0  0  0
 24 29  1  0  0  0  0
 25 27  1  0  0  0  0
 25 60  1  0  0  0  0
 25 61  1  0  0  0  0
 26 62  1  0  0  0  0
 26 63  1  0  0  0  0
 26 64  1  0  0  0  0
 27 33  1  0  0  0  0
 27 65  1  0  0  0  0
 27 66  1  0  0  0  0
 28 30  1  0  0  0  0
 28 67  1  0  0  0  0
 29 31  2  0  0  0  0
 29 68  1  0  0  0  0
 30 32  2  0  0  0  0
 30 69  1  0  0  0  0
 31 32  1  0  0  0  0
 31 70  1  0  0  0  0
 34 71  1  0  0  0  0
 34 72  1  0  0  0  0
 34 73  1  0  0  0  0
M  END
> <PUBCHEM_COMPOUND_CID>
45361384

> <PUBCHEM_CONFORMER_RMSD>
1

> <PUBCHEM_CONFORMER_DIVERSEORDER>
1
23
96
66
40
157
112
128
162
120
85
137
39
116
121
124
76
110
159
7
105
111
134
160
99
90
144
95
122
143
98
93
168
119
16
60
163
79
65
26
109
41
82
155
30
149
84
113
135
92
106
10
108
142
140
104
100
161
32
18
25
94
170
88
107
43
72
63
83
145
103
102
80
89
53
166
22
154
42
21
133
68
75
35
29
152
64
150
126
44
132
56
151
148
81
164
5
118
55
61
67
48
115
158
4
91
123
17
69
130
127
52
71
62
13
172
46
136
147
27
59
86
73
9
129
33
138
45
50
131
6
36
87
70
169
54
156
37
139
171
14
58
57
31
97
165
49
19
15
125
78
2
117
47
77
141
34
8
101
38
153
12
11
74
3
28
167
51
114
20
146
24

> <PUBCHEM_MMFF94_PARTIAL_CHARGES>
29
1 -0.68
11 0.28
15 0.3
19 0.06
2 -0.57
22 0.57
23 0.54
24 0.09
25 0.3
26 0.3
27 0.2
28 -0.15
29 -0.15
3 -0.57
30 -0.15
31 -0.15
32 0.08
33 0.36
34 0.28
4 -0.36
5 -0.73
55 0.37
56 0.4
6 -0.66
67 0.15
68 0.15
69 0.15
7 -0.56
70 0.15

> <PUBCHEM_EFFECTIVE_ROTOR_COUNT>
10.6

> <PUBCHEM_PHARMACOPHORE_FEATURES>
11
1 1 acceptor
1 1 donor
1 2 acceptor
1 21 hydrophobe
1 3 acceptor
1 4 acceptor
1 5 donor
1 7 acceptor
6 24 28 29 30 31 32 rings
6 8 9 10 14 15 17 rings
6 8 9 11 12 13 16 rings

> <PUBCHEM_HEAVY_ATOM_COUNT>
34

> <PUBCHEM_ATOM_DEF_STEREO_COUNT>
6

> <PUBCHEM_ATOM_UDEF_STEREO_COUNT>
1

> <PUBCHEM_BOND_DEF_STEREO_COUNT>
0

> <PUBCHEM_BOND_UDEF_STEREO_COUNT>
0

> <PUBCHEM_ISOTOPIC_ATOM_COUNT>
0

> <PUBCHEM_COMPONENT_COUNT>
1

> <PUBCHEM_CACTVS_TAUTO_COUNT>
2

> <PUBCHEM_CONFORMER_ID>
02B428E800000001

> <PUBCHEM_MMFF94_ENERGY>
109.7873

> <PUBCHEM_FEATURE_SELFOVERLAP>
55.837

> <PUBCHEM_SHAPE_FINGERPRINT>
10 15 18040156240722126024
10006869 2 18334850585667638674
10533779 1 18128249181487499232
11386260 185 18130798837334999900
11719270 70 17967536735781241914
12522641 24 17967523538047998290
12838862 33 18335129886720757042
12925494 130 18126001809557787976
13383668 254 18130522881591660601
13673619 4 12607396681744199331
13782708 43 13254792383446796447
13811026 1 18335985350465906491
14117953 113 18040726826948520022
15183329 4 17822298938238902829
15840311 113 18411419514210068612
16120349 18 18413668019715544800
19301679 30 10881666997548851670
21033648 29 17821447988741706191
21150785 3 16845569799289669031
21403212 168 18333447629973208106
21585482 111 18265052630128788060
21792934 111 18186516597156178148
21859007 373 17967523558810937612
22224240 67 18334013891378037003
22899556 105 10806843062959527876
23522609 53 16772414858699128411
27425 322 18271807964886339638
312425 54 13912616003714920096
335352 9 18261965063674497542
3633792 109 18413109429496794681
4403749 210 18263367048363700859
44880568 143 17845384262711557801
5104073 3 18262808505283731986
57634706 306 18338512049244608336
6201320 215 12757414031628027807

> <PUBCHEM_SHAPE_MULTIPOLES>
661.28
27.14
3.45
1.44
39.75
2.63
0.25
20.16
2
-8.33
-0.72
0.22
-0.22
2.81

> <PUBCHEM_SHAPE_SELFOVERLAP>
1370.968

> <PUBCHEM_SHAPE_VOLUME>
371.7

> <PUBCHEM_COORDINATE_TYPE>
2
5
10

$$$$
