40779129
  -OEChem-12032416253D

 55 58  0     1  0  0  0  0  0999 V2000
    3.1534    0.4429   -0.0104 O   0  0  0  0  0  0  0  0  0  0  0  0
   -2.4563   -3.1550   -0.7679 O   0  0  0  0  0  0  0  0  0  0  0  0
    3.7069   -0.7910    1.8459 O   0  0  0  0  0  0  0  0  0  0  0  0
    0.8635    3.3025    0.6331 N   0  0  2  0  0  0  0  0  0  0  0  0
   -3.3698    1.1287    0.6250 N   0  0  0  0  0  0  0  0  0  0  0  0
   -3.9468   -0.0837    0.6834 N   0  0  0  0  0  0  0  0  0  0  0  0
    4.5904   -1.2858   -0.2416 N   0  0  0  0  0  0  0  0  0  0  0  0
   -0.4411    2.5039   -1.4748 C   0  0  2  0  0  0  0  0  0  0  0  0
   -1.3354    2.3965   -0.2087 C   0  0  2  0  0  0  0  0  0  0  0  0
    1.6795    2.3197   -0.1275 C   0  0  2  0  0  0  0  0  0  0  0  0
    0.8472    1.6816   -1.2605 C   0  0  0  0  0  0  0  0  0  0  0  0
   -0.0194    3.9839   -1.5977 C   0  0  0  0  0  0  0  0  0  0  0  0
   -0.4328    2.6937    1.0228 C   0  0  0  0  0  0  0  0  0  0  0  0
    0.5849    4.4511   -0.2620 C   0  0  0  0  0  0  0  0  0  0  0  0
   -2.1694    1.1370   -0.0227 C   0  0  0  0  0  0  0  0  0  0  0  0
    2.3133    1.2626    0.7792 C   0  0  0  0  0  0  0  0  0  0  0  0
   -1.9454   -0.1601   -0.4149 C   0  0  0  0  0  0  0  0  0  0  0  0
   -3.0722   -0.8668    0.0465 C   0  0  0  0  0  0  0  0  0  0  0  0
   -4.0415    2.2588    1.2236 C   0  0  0  0  0  0  0  0  0  0  0  0
    3.8115   -0.5708    0.6437 C   0  0  0  0  0  0  0  0  0  0  0  0
   -3.3086   -2.3110   -0.1290 C   0  0  0  0  0  0  0  0  0  0  0  0
   -4.4134   -2.9928    0.3257 C   0  0  0  0  0  0  0  0  0  0  0  0
    5.4056   -2.4161    0.1393 C   0  0  0  0  0  0  0  0  0  0  0  0
   -4.2279   -4.3423   -0.0582 C   0  0  0  0  0  0  0  0  0  0  0  0
   -3.0230   -4.3890   -0.7204 C   0  0  0  0  0  0  0  0  0  0  0  0
    6.6483   -2.4920   -0.7381 C   0  0  0  0  0  0  0  0  0  0  0  0
    4.5985   -3.7063    0.0661 C   0  0  0  0  0  0  0  0  0  0  0  0
   -0.9718    2.1717   -2.3732 H   0  0  0  0  0  0  0  0  0  0  0  0
   -2.0570    3.2229   -0.2927 H   0  0  0  0  0  0  0  0  0  0  0  0
    2.5189    2.8559   -0.5947 H   0  0  0  0  0  0  0  0  0  0  0  0
    0.6222    0.6360   -1.0455 H   0  0  0  0  0  0  0  0  0  0  0  0
    1.4372    1.6878   -2.1859 H   0  0  0  0  0  0  0  0  0  0  0  0
   -0.8829    4.6084   -1.8545 H   0  0  0  0  0  0  0  0  0  0  0  0
    0.7140    4.0967   -2.4054 H   0  0  0  0  0  0  0  0  0  0  0  0
   -0.9585    3.3862    1.6935 H   0  0  0  0  0  0  0  0  0  0  0  0
   -0.2666    1.7950    1.6277 H   0  0  0  0  0  0  0  0  0  0  0  0
    1.5081    5.0139   -0.4474 H   0  0  0  0  0  0  0  0  0  0  0  0
   -0.0932    5.1553    0.2368 H   0  0  0  0  0  0  0  0  0  0  0  0
    1.5523    0.6366    1.2582 H   0  0  0  0  0  0  0  0  0  0  0  0
    2.9103    1.7512    1.5590 H   0  0  0  0  0  0  0  0  0  0  0  0
   -1.1056   -0.5559   -0.9642 H   0  0  0  0  0  0  0  0  0  0  0  0
   -4.3349    2.9476    0.4278 H   0  0  0  0  0  0  0  0  0  0  0  0
   -4.9309    1.9124    1.7573 H   0  0  0  0  0  0  0  0  0  0  0  0
   -3.3606    2.7408    1.9284 H   0  0  0  0  0  0  0  0  0  0  0  0
    4.5497   -1.0262   -1.2227 H   0  0  0  0  0  0  0  0  0  0  0  0
   -5.2560   -2.5855    0.8674 H   0  0  0  0  0  0  0  0  0  0  0  0
    5.7232   -2.2690    1.1788 H   0  0  0  0  0  0  0  0  0  0  0  0
   -4.8894   -5.1767    0.1247 H   0  0  0  0  0  0  0  0  0  0  0  0
   -2.4593   -5.1807   -1.1920 H   0  0  0  0  0  0  0  0  0  0  0  0
    7.2321   -1.5679   -0.6649 H   0  0  0  0  0  0  0  0  0  0  0  0
    6.3840   -2.6320   -1.7923 H   0  0  0  0  0  0  0  0  0  0  0  0
    7.2920   -3.3241   -0.4346 H   0  0  0  0  0  0  0  0  0  0  0  0
    3.7231   -3.6586    0.7229 H   0  0  0  0  0  0  0  0  0  0  0  0
    4.2359   -3.8901   -0.9514 H   0  0  0  0  0  0  0  0  0  0  0  0
    5.2042   -4.5651    0.3733 H   0  0  0  0  0  0  0  0  0  0  0  0
  1 16  1  0  0  0  0
  1 20  1  0  0  0  0
  2 21  1  0  0  0  0
  2 25  1  0  0  0  0
  3 20  2  0  0  0  0
  4 10  1  0  0  0  0
  4 13  1  0  0  0  0
  4 14  1  0  0  0  0
  5  6  1  0  0  0  0
  5 15  1  0  0  0  0
  5 19  1  0  0  0  0
  6 18  2  0  0  0  0
  7 20  1  0  0  0  0
  7 23  1  0  0  0  0
  7 45  1  0  0  0  0
  8  9  1  0  0  0  0
  8 11  1  0  0  0  0
  8 12  1  0  0  0  0
  8 28  1  0  0  0  0
  9 13  1  0  0  0  0
  9 15  1  0  0  0  0
  9 29  1  0  0  0  0
 10 11  1  0  0  0  0
 10 16  1  0  0  0  0
 10 30  1  0  0  0  0
 11 31  1  0  0  0  0
 11 32  1  0  0  0  0
 12 14  1  0  0  0  0
 12 33  1  0  0  0  0
 12 34  1  0  0  0  0
 13 35  1  0  0  0  0
 13 36  1  0  0  0  0
 14 37  1  0  0  0  0
 14 38  1  0  0  0  0
 15 17  2  0  0  0  0
 16 39  1  0  0  0  0
 16 40  1  0  0  0  0
 17 18  1  0  0  0  0
 17 41  1  0  0  0  0
 18 21  1  0  0  0  0
 19 42  1  0  0  0  0
 19 43  1  0  0  0  0
 19 44  1  0  0  0  0
 21 22  2  0  0  0  0
 22 24  1  0  0  0  0
 22 46  1  0  0  0  0
 23 26  1  0  0  0  0
 23 27  1  0  0  0  0
 23 47  1  0  0  0  0
 24 25  2  0  0  0  0
 24 48  1  0  0  0  0
 25 49  1  0  0  0  0
 26 50  1  0  0  0  0
 26 51  1  0  0  0  0
 26 52  1  0  0  0  0
 27 53  1  0  0  0  0
 27 54  1  0  0  0  0
 27 55  1  0  0  0  0
M  END
> <PUBCHEM_COMPOUND_CID>
40779129

> <PUBCHEM_CONFORMER_RMSD>
1

> <PUBCHEM_CONFORMER_DIVERSEORDER>
1
33
10
8
46
21
5
9
30
16
43
28
47
6
45
7
49
39
50
34
2
4
13
25
14
40
32
20
19
26
24
23
41
31
3
22
38
15
17
11
35
44
48
18
36
37
29
42
12
27

> <PUBCHEM_MMFF94_PARTIAL_CHARGES>
27
1 -0.43
10 0.27
13 0.27
14 0.27
15 -0.33
16 0.28
17 -0.15
18 0.29
19 0.26
2 -0.28
20 0.78
21 0.14
22 -0.15
23 0.3
24 -0.15
25 -0.01
3 -0.57
4 -0.81
41 0.15
45 0.37
46 0.15
48 0.15
49 0.15
5 0.31
6 -0.71
7 -0.73
9 0.18

> <PUBCHEM_EFFECTIVE_ROTOR_COUNT>
8.2

> <PUBCHEM_PHARMACOPHORE_FEATURES>
9
1 2 acceptor
1 3 acceptor
1 4 cation
1 6 acceptor
1 7 donor
3 23 26 27 hydrophobe
5 2 21 22 24 25 rings
5 5 6 15 17 18 rings
8 4 8 9 10 11 12 13 14 rings

> <PUBCHEM_HEAVY_ATOM_COUNT>
27

> <PUBCHEM_ATOM_DEF_STEREO_COUNT>
3

> <PUBCHEM_ATOM_UDEF_STEREO_COUNT>
0

> <PUBCHEM_BOND_DEF_STEREO_COUNT>
0

> <PUBCHEM_BOND_UDEF_STEREO_COUNT>
0

> <PUBCHEM_ISOTOPIC_ATOM_COUNT>
0

> <PUBCHEM_COMPONENT_COUNT>
1

> <PUBCHEM_CACTVS_TAUTO_COUNT>
2

> <PUBCHEM_CONFORMER_ID>
026E3D7900000001

> <PUBCHEM_MMFF94_ENERGY>
44.0467

> <PUBCHEM_FEATURE_SELFOVERLAP>
45.671

> <PUBCHEM_SHAPE_FINGERPRINT>
10042902 136 18410015438109324590
10290309 65 17689437087932138998
10319688 45 18337670807133331356
10462674 296 18057308695315850550
10928967 22 18260827051616911194
11014199 57 18410291453724023378
11069576 57 17762608890996717575
11285246 1 18188207705726499347
11315621 246 18267035960073091734
11756154 67 18410297982100797479
12107183 9 18341345465519787131
12677640 9 18272654507429942489
12969540 37 18266735981718152564
12990986 174 18410853227336466358
14114206 34 17168137914807322082
14251757 5 18193838146243346330
14444916 359 17405161629430224364
14863182 85 17545315745009989636
14866123 147 18341335501069247867
15320294 125 17537708898931879730
15803439 3 17030754860282342332
16110190 28 18341616988682648018
17492 89 18194965364557520683
20775530 9 18336258028790796090
21304304 249 18341615872107351749
21344244 181 17974537283777115085
21421861 104 18051429649405810905
229767 44 18197507212007148675
23379529 103 18340491054590478118
23466295 7 18339924797290380930
23559900 14 18267858566220874851
25222932 49 16902154275580967415
325973 47 17977386362827921250
3886686 26 18343588408604811009
4409770 3 18044931268960320157
4435113 14 17486786173475033870
463206 1 18335706013829313922
56633871 153 18411989048506882859
613672 6 18194654121067328118
6371380 46 17984978193969202161
70251023 43 18192151727339756227
7097593 13 18339364187952276345
7970288 3 18410293605771813270
88748 71 18264492960922966043

> <PUBCHEM_SHAPE_MULTIPOLES>
518.12
11.33
7.29
1.2
14.11
2.17
0.03
17.64
-1.25
-2.88
1.64
0.17
-0.74
-0.79

> <PUBCHEM_SHAPE_SELFOVERLAP>
1101.365

> <PUBCHEM_SHAPE_VOLUME>
287.3

> <PUBCHEM_COORDINATE_TYPE>
2
5
10

$$$$
