28960456
  -OEChem-12032416353D

 67 71  0     1  0  0  0  0  0999 V2000
    0.0809   -3.3770   -1.8110 O   0  0  0  0  0  0  0  0  0  0  0  0
   -0.4600   -5.2449   -0.5463 O   0  0  0  0  0  0  0  0  0  0  0  0
    0.6007   -4.1407    1.8943 O   0  0  0  0  0  0  0  0  0  0  0  0
    3.5982   -1.4334    1.3084 O   0  0  0  0  0  0  0  0  0  0  0  0
   -4.9282    1.3406    1.8432 O   0  0  0  0  0  0  0  0  0  0  0  0
    5.0289    4.6662   -0.8895 O   0  0  0  0  0  0  0  0  0  0  0  0
   -1.3408   -1.6925    0.0295 N   0  0  0  0  0  0  0  0  0  0  0  0
    2.0529   -1.7329   -0.3841 N   0  0  0  0  0  0  0  0  0  0  0  0
   -3.1901    0.4740   -0.1842 N   0  0  0  0  0  0  0  0  0  0  0  0
    3.1943    0.2516   -0.2753 N   0  0  0  0  0  0  0  0  0  0  0  0
   -0.9047   -3.0494    0.3655 C   0  0  2  0  0  0  0  0  0  0  0  0
    0.4966   -3.0121    1.0162 C   0  0  2  0  0  0  0  0  0  0  0  0
    1.6517   -3.0713   -0.0073 C   0  0  1  0  0  0  0  0  0  0  0  0
   -0.8880   -3.9205   -0.9041 C   0  0  1  0  0  0  0  0  0  0  0  0
    1.3035   -3.8869   -1.2695 C   0  0  1  0  0  0  0  0  0  0  0  0
    0.9035   -5.3233   -0.9894 C   0  0  0  0  0  0  0  0  0  0  0  0
   -2.4154   -1.7298   -0.9701 C   0  0  0  0  0  0  0  0  0  0  0  0
   -1.8013   -0.9871    1.2316 C   0  0  0  0  0  0  0  0  0  0  0  0
   -2.8408   -0.3158   -1.3718 C   0  0  0  0  0  0  0  0  0  0  0  0
   -2.2074    0.4518    0.9037 C   0  0  0  0  0  0  0  0  0  0  0  0
    3.0149   -1.0016    0.3169 C   0  0  0  0  0  0  0  0  0  0  0  0
   -4.0081    1.5959   -0.3578 C   0  0  0  0  0  0  0  0  0  0  0  0
   -4.8662    2.0133    0.6594 C   0  0  0  0  0  0  0  0  0  0  0  0
   -3.9600    2.2985   -1.5618 C   0  0  0  0  0  0  0  0  0  0  0  0
   -5.6762    3.1334    0.4728 C   0  0  0  0  0  0  0  0  0  0  0  0
   -4.7701    3.4186   -1.7486 C   0  0  0  0  0  0  0  0  0  0  0  0
    4.0723    1.2845    0.1279 C   0  0  0  0  0  0  0  0  0  0  0  0
   -5.6281    3.8362   -0.7313 C   0  0  0  0  0  0  0  0  0  0  0  0
    4.1181    2.4806   -0.5885 C   0  0  0  0  0  0  0  0  0  0  0  0
    4.8926    1.1070    1.2420 C   0  0  0  0  0  0  0  0  0  0  0  0
   -5.8342    1.8401    2.8246 C   0  0  0  0  0  0  0  0  0  0  0  0
    4.9840    3.4990   -0.1907 C   0  0  0  0  0  0  0  0  0  0  0  0
    5.7587    2.1255    1.6398 C   0  0  0  0  0  0  0  0  0  0  0  0
    5.8043    3.3216    0.9234 C   0  0  0  0  0  0  0  0  0  0  0  0
    4.1634    4.7806   -2.0181 C   0  0  0  0  0  0  0  0  0  0  0  0
   -1.6108   -3.5205    1.0649 H   0  0  0  0  0  0  0  0  0  0  0  0
    0.6230   -2.1456    1.6719 H   0  0  0  0  0  0  0  0  0  0  0  0
    2.5224   -3.5480    0.4614 H   0  0  0  0  0  0  0  0  0  0  0  0
   -1.8561   -4.0545   -1.3926 H   0  0  0  0  0  0  0  0  0  0  0  0
    2.1027   -3.8205   -2.0149 H   0  0  0  0  0  0  0  0  0  0  0  0
    0.9077   -5.9173   -1.9096 H   0  0  0  0  0  0  0  0  0  0  0  0
    1.5246   -5.8228   -0.2411 H   0  0  0  0  0  0  0  0  0  0  0  0
   -3.2866   -2.2852   -0.5974 H   0  0  0  0  0  0  0  0  0  0  0  0
   -2.1028   -2.1634   -1.9239 H   0  0  0  0  0  0  0  0  0  0  0  0
   -1.0220   -0.9355    1.9978 H   0  0  0  0  0  0  0  0  0  0  0  0
   -2.6582   -1.5080    1.6808 H   0  0  0  0  0  0  0  0  0  0  0  0
    1.5570   -1.2783   -1.1448 H   0  0  0  0  0  0  0  0  0  0  0  0
   -2.0208    0.1710   -1.9161 H   0  0  0  0  0  0  0  0  0  0  0  0
   -3.6993   -0.4035   -2.0501 H   0  0  0  0  0  0  0  0  0  0  0  0
   -2.5779    0.9221    1.8194 H   0  0  0  0  0  0  0  0  0  0  0  0
   -1.3234    1.0253    0.5944 H   0  0  0  0  0  0  0  0  0  0  0  0
    1.4591   -4.0824    2.3475 H   0  0  0  0  0  0  0  0  0  0  0  0
   -3.2931    2.0191   -2.3722 H   0  0  0  0  0  0  0  0  0  0  0  0
    2.6289    0.4526   -1.0962 H   0  0  0  0  0  0  0  0  0  0  0  0
   -6.3664    3.5174    1.2159 H   0  0  0  0  0  0  0  0  0  0  0  0
   -4.7299    3.9686   -2.6843 H   0  0  0  0  0  0  0  0  0  0  0  0
   -6.2576    4.7092   -0.8775 H   0  0  0  0  0  0  0  0  0  0  0  0
    3.4589    2.5654   -1.4464 H   0  0  0  0  0  0  0  0  0  0  0  0
    4.9145    0.2114    1.8465 H   0  0  0  0  0  0  0  0  0  0  0  0
   -5.7530    1.1860    3.6991 H   0  0  0  0  0  0  0  0  0  0  0  0
   -6.8731    1.7830    2.4822 H   0  0  0  0  0  0  0  0  0  0  0  0
   -5.5571    2.8467    3.1557 H   0  0  0  0  0  0  0  0  0  0  0  0
    6.3980    1.9887    2.5071 H   0  0  0  0  0  0  0  0  0  0  0  0
    6.4809    4.1114    1.2381 H   0  0  0  0  0  0  0  0  0  0  0  0
    4.3305    5.7711   -2.4538 H   0  0  0  0  0  0  0  0  0  0  0  0
    3.1093    4.7356   -1.7235 H   0  0  0  0  0  0  0  0  0  0  0  0
    4.4110    4.0460   -2.7918 H   0  0  0  0  0  0  0  0  0  0  0  0
  1 14  1  0  0  0  0
  1 15  1  0  0  0  0
  2 14  1  0  0  0  0
  2 16  1  0  0  0  0
  3 12  1  0  0  0  0
  3 52  1  0  0  0  0
  4 21  2  0  0  0  0
  5 23  1  0  0  0  0
  5 31  1  0  0  0  0
  6 32  1  0  0  0  0
  6 35  1  0  0  0  0
  7 11  1  0  0  0  0
  7 17  1  0  0  0  0
  7 18  1  0  0  0  0
  8 13  1  0  0  0  0
  8 21  1  0  0  0  0
  8 47  1  0  0  0  0
  9 19  1  0  0  0  0
  9 20  1  0  0  0  0
  9 22  1  0  0  0  0
 10 21  1  0  0  0  0
 10 27  1  0  0  0  0
 10 54  1  0  0  0  0
 11 12  1  0  0  0  0
 11 14  1  0  0  0  0
 11 36  1  0  0  0  0
 12 13  1  0  0  0  0
 12 37  1  0  0  0  0
 13 15  1  0  0  0  0
 13 38  1  0  0  0  0
 14 39  1  0  0  0  0
 15 16  1  0  0  0  0
 15 40  1  0  0  0  0
 16 41  1  0  0  0  0
 16 42  1  0  0  0  0
 17 19  1  0  0  0  0
 17 43  1  0  0  0  0
 17 44  1  0  0  0  0
 18 20  1  0  0  0  0
 18 45  1  0  0  0  0
 18 46  1  0  0  0  0
 19 48  1  0  0  0  0
 19 49  1  0  0  0  0
 20 50  1  0  0  0  0
 20 51  1  0  0  0  0
 22 23  1  0  0  0  0
 22 24  2  0  0  0  0
 23 25  2  0  0  0  0
 24 26  1  0  0  0  0
 24 53  1  0  0  0  0
 25 28  1  0  0  0  0
 25 55  1  0  0  0  0
 26 28  2  0  0  0  0
 26 56  1  0  0  0  0
 27 29  2  0  0  0  0
 27 30  1  0  0  0  0
 28 57  1  0  0  0  0
 29 32  1  0  0  0  0
 29 58  1  0  0  0  0
 30 33  2  0  0  0  0
 30 59  1  0  0  0  0
 31 60  1  0  0  0  0
 31 61  1  0  0  0  0
 31 62  1  0  0  0  0
 32 34  2  0  0  0  0
 33 34  1  0  0  0  0
 33 63  1  0  0  0  0
 34 64  1  0  0  0  0
 35 65  1  0  0  0  0
 35 66  1  0  0  0  0
 35 67  1  0  0  0  0
M  END
> <PUBCHEM_COMPOUND_CID>
28960456

> <PUBCHEM_CONFORMER_RMSD>
1.4

> <PUBCHEM_CONFORMER_DIVERSEORDER>
2
61
87
44
83
24
41
78
75
50
20
15
84
93
22
63
65
69
77
57
90
9
34
88
35
81
38
60
92
30
76
47
48
70
85
68
31
10
42
16
29
54
79
32
21
67
82
52
66
14
25
71
58
17
45
62
59
27
43
53
72
49
89
7
26
37
80
56
51
55
18
86
19
13
91
40
74
33
8
11
36
3
23
64
46
73
1
28
12
6
5
4
39

> <PUBCHEM_MMFF94_PARTIAL_CHARGES>
46
1 -0.56
10 -0.55
11 0.27
12 0.28
13 0.3
14 0.56
15 0.28
16 0.28
17 0.27
18 0.27
19 0.37
2 -0.56
20 0.37
21 0.69
22 0.1
23 0.08
24 -0.15
25 -0.15
26 -0.15
27 0.12
28 -0.15
29 -0.15
3 -0.68
30 -0.15
31 0.28
32 0.08
33 -0.15
34 -0.15
35 0.28
4 -0.57
47 0.37
5 -0.36
52 0.4
53 0.15
54 0.37
55 0.15
56 0.15
57 0.15
58 0.15
59 0.15
6 -0.36
63 0.15
64 0.15
7 -0.81
8 -0.73
9 -0.84

> <PUBCHEM_EFFECTIVE_ROTOR_COUNT>
10.4

> <PUBCHEM_PHARMACOPHORE_FEATURES>
15
1 1 acceptor
1 10 donor
1 2 acceptor
1 3 acceptor
1 3 donor
1 4 acceptor
1 5 acceptor
1 6 acceptor
1 7 cation
1 8 donor
1 9 cation
6 22 23 24 25 26 28 rings
6 27 29 30 32 33 34 rings
6 7 9 17 18 19 20 rings
8 1 2 11 12 13 14 15 16 rings

> <PUBCHEM_HEAVY_ATOM_COUNT>
35

> <PUBCHEM_ATOM_DEF_STEREO_COUNT>
5

> <PUBCHEM_ATOM_UDEF_STEREO_COUNT>
0

> <PUBCHEM_BOND_DEF_STEREO_COUNT>
0

> <PUBCHEM_BOND_UDEF_STEREO_COUNT>
0

> <PUBCHEM_ISOTOPIC_ATOM_COUNT>
0

> <PUBCHEM_COMPONENT_COUNT>
1

> <PUBCHEM_CACTVS_TAUTO_COUNT>
3

> <PUBCHEM_CONFORMER_ID>
01B9E6C800000002

> <PUBCHEM_MMFF94_ENERGY>
140.9159

> <PUBCHEM_FEATURE_SELFOVERLAP>
76.229

> <PUBCHEM_SHAPE_FINGERPRINT>
100830 2 18044659939224500308
10439779 11 18196350723829222400
10673678 19 18340764832869685081
10675989 125 18197777700268417592
10937287 8 18413383246072075606
11059845 2 18125127629341636464
11386260 185 17621025470578617997
11477941 20 17118882285507470628
11479125 193 18340201895812293649
12107183 9 18263904649868040514
12655364 74 17033631616746306956
12788726 201 17905026394454603426
13944108 23 17831586379551243796
14068700 686 18409456899372490439
14251764 75 18342744013496830937
14394314 77 17183912908889563205
15064981 113 17987512784015720134
15131766 46 18130503029973990097
15320291 9 17760640369973219044
15448158 71 18262800795691023224
15513586 35 17175747888429648084
16728433 281 17977400652991509788
16988056 13 17907579129957432894
16992779 147 18055934099310645409
1768 85 18267031548840958721
18393751 57 18187652465771714595
19309040 13 17775291551375168405
21365058 113 17409103395901692471
21388113 180 18336263449039679461
23516275 100 16180162228339288169
241686 156 18410005564206896984
3388396 114 16823617276705933204
376196 1 18408885114017493266
4173938 77 18056208968242421853
4756261 7 17684959151314020603
5219985 13 18411139164245835016
6034566 193 18340772627982113193
6036956 94 17900820766704684677
6201320 215 17693371557976967552
6608658 132 17544762691319984788
6700243 42 14116933736095787081
9849439 229 18410854373501747940

> <PUBCHEM_SHAPE_MULTIPOLES>
665.14
14.39
8.81
1.94
1.09
5.2
0.5
-28.18
3.67
-5.34
-3.63
1.34
-0.78
-0.62

> <PUBCHEM_SHAPE_SELFOVERLAP>
1432.923

> <PUBCHEM_SHAPE_VOLUME>
361.7

> <PUBCHEM_COORDINATE_TYPE>
2
5
10

$$$$
