51137930
  -OEChem-12032416143D

 44 47  0     1  0  0  0  0  0999 V2000
    1.0442   -1.2226   -0.2413 O   0  0  0  0  0  0  0  0  0  0  0  0
   -4.1883    2.4229   -1.5743 O   0  0  0  0  0  0  0  0  0  0  0  0
   -2.1046   -1.1979    0.4379 N   0  0  0  0  0  0  0  0  0  0  0  0
    1.8034   -3.2884   -0.6418 N   0  0  0  0  0  0  0  0  0  0  0  0
   -3.1409    0.6034   -0.5892 N   0  0  0  0  0  0  0  0  0  0  0  0
   -3.0811    0.3940    1.8109 N   0  0  0  0  0  0  0  0  0  0  0  0
    2.8938   -2.4447   -0.5413 N   0  0  0  0  0  0  0  0  0  0  0  0
   -0.7258   -2.9108   -0.4609 C   0  0  1  0  0  0  0  0  0  0  0  0
   -1.2046   -3.3158    0.9366 C   0  0  0  0  0  0  0  0  0  0  0  0
   -1.7239   -1.8003   -0.8403 C   0  0  0  0  0  0  0  0  0  0  0  0
   -1.6597   -2.0022    1.5722 C   0  0  0  0  0  0  0  0  0  0  0  0
    0.7459   -2.5325   -0.4599 C   0  0  0  0  0  0  0  0  0  0  0  0
   -2.8054   -0.0167    0.5583 C   0  0  0  0  0  0  0  0  0  0  0  0
    2.4034   -1.2498   -0.3075 C   0  0  0  0  0  0  0  0  0  0  0  0
    3.0663    0.0072   -0.1143 C   0  0  0  0  0  0  0  0  0  0  0  0
   -3.8255    1.7557   -0.4345 C   0  0  0  0  0  0  0  0  0  0  0  0
   -3.7677    1.5525    1.8921 C   0  0  0  0  0  0  0  0  0  0  0  0
   -4.1703    2.2837    0.7931 C   0  0  0  0  0  0  0  0  0  0  0  0
    4.4586    0.0762   -0.1643 C   0  0  0  0  0  0  0  0  0  0  0  0
    2.3190    1.1608    0.1231 C   0  0  0  0  0  0  0  0  0  0  0  0
    5.1036    1.2986    0.0233 C   0  0  0  0  0  0  0  0  0  0  0  0
    2.9638    2.3833    0.3108 C   0  0  0  0  0  0  0  0  0  0  0  0
    4.3561    2.4521    0.2609 C   0  0  0  0  0  0  0  0  0  0  0  0
    5.0460    3.7591    0.4618 C   0  0  0  0  0  0  0  0  0  0  0  0
   -3.8063    1.8322   -2.8113 C   0  0  0  0  0  0  0  0  0  0  0  0
   -0.8284   -3.7514   -1.1581 H   0  0  0  0  0  0  0  0  0  0  0  0
   -2.0669   -3.9884    0.8436 H   0  0  0  0  0  0  0  0  0  0  0  0
   -0.4460   -3.8235    1.5407 H   0  0  0  0  0  0  0  0  0  0  0  0
   -1.2796   -1.0724   -1.5284 H   0  0  0  0  0  0  0  0  0  0  0  0
   -2.6139   -2.2347   -1.3107 H   0  0  0  0  0  0  0  0  0  0  0  0
   -2.4617   -2.1856    2.2953 H   0  0  0  0  0  0  0  0  0  0  0  0
   -0.8262   -1.5049    2.0809 H   0  0  0  0  0  0  0  0  0  0  0  0
   -3.9928    1.8883    2.8987 H   0  0  0  0  0  0  0  0  0  0  0  0
   -4.7201    3.2103    0.8944 H   0  0  0  0  0  0  0  0  0  0  0  0
    5.0612   -0.8100   -0.3485 H   0  0  0  0  0  0  0  0  0  0  0  0
    1.2328    1.1469    0.1687 H   0  0  0  0  0  0  0  0  0  0  0  0
    6.1887    1.3400   -0.0197 H   0  0  0  0  0  0  0  0  0  0  0  0
    2.3708    3.2756    0.4933 H   0  0  0  0  0  0  0  0  0  0  0  0
    5.1771    4.2662   -0.4992 H   0  0  0  0  0  0  0  0  0  0  0  0
    4.4705    4.4116    1.1274 H   0  0  0  0  0  0  0  0  0  0  0  0
    6.0299    3.6198    0.9225 H   0  0  0  0  0  0  0  0  0  0  0  0
   -2.7164    1.7634   -2.8934 H   0  0  0  0  0  0  0  0  0  0  0  0
   -4.2694    0.8475   -2.9356 H   0  0  0  0  0  0  0  0  0  0  0  0
   -4.1654    2.4782   -3.6179 H   0  0  0  0  0  0  0  0  0  0  0  0
  1 12  1  0  0  0  0
  1 14  1  0  0  0  0
  2 16  1  0  0  0  0
  2 25  1  0  0  0  0
  3 10  1  0  0  0  0
  3 11  1  0  0  0  0
  3 13  1  0  0  0  0
  4  7  1  0  0  0  0
  4 12  2  0  0  0  0
  5 13  1  0  0  0  0
  5 16  2  0  0  0  0
  6 13  2  0  0  0  0
  6 17  1  0  0  0  0
  7 14  2  0  0  0  0
  8  9  1  0  0  0  0
  8 10  1  0  0  0  0
  8 12  1  0  0  0  0
  8 26  1  0  0  0  0
  9 11  1  0  0  0  0
  9 27  1  0  0  0  0
  9 28  1  0  0  0  0
 10 29  1  0  0  0  0
 10 30  1  0  0  0  0
 11 31  1  0  0  0  0
 11 32  1  0  0  0  0
 14 15  1  0  0  0  0
 15 19  2  0  0  0  0
 15 20  1  0  0  0  0
 16 18  1  0  0  0  0
 17 18  2  0  0  0  0
 17 33  1  0  0  0  0
 18 34  1  0  0  0  0
 19 21  1  0  0  0  0
 19 35  1  0  0  0  0
 20 22  2  0  0  0  0
 20 36  1  0  0  0  0
 21 23  2  0  0  0  0
 21 37  1  0  0  0  0
 22 23  1  0  0  0  0
 22 38  1  0  0  0  0
 23 24  1  0  0  0  0
 24 39  1  0  0  0  0
 24 40  1  0  0  0  0
 24 41  1  0  0  0  0
 25 42  1  0  0  0  0
 25 43  1  0  0  0  0
 25 44  1  0  0  0  0
M  END
> <PUBCHEM_COMPOUND_CID>
51137930

> <PUBCHEM_CONFORMER_RMSD>
0.8

> <PUBCHEM_CONFORMER_DIVERSEORDER>
1
38
33
18
43
40
26
21
37
32
11
25
20
15
3
16
39
45
13
27
35
6
31
4
17
22
28
8
42
34
5
10
2
9
14
7
30
46
44
23
47
19
12
36
24
41
29

> <PUBCHEM_MMFF94_PARTIAL_CHARGES>
30
1 -0.28
10 0.37
11 0.37
12 0.3
13 0.72
14 0.43
15 0.05
16 0.39
17 0.16
18 -0.15
19 -0.15
2 -0.36
20 -0.15
21 -0.15
22 -0.15
23 -0.14
24 0.14
25 0.28
3 -0.84
33 0.15
34 0.15
35 0.15
36 0.15
37 0.15
38 0.15
4 -0.34
5 -0.62
6 -0.62
7 -0.34
8 0.18

> <PUBCHEM_EFFECTIVE_ROTOR_COUNT>
5

> <PUBCHEM_PHARMACOPHORE_FEATURES>
5
4 3 5 6 13 cation
5 1 4 7 12 14 rings
5 3 8 9 10 11 rings
6 15 19 20 21 22 23 rings
6 5 6 13 16 17 18 rings

> <PUBCHEM_HEAVY_ATOM_COUNT>
25

> <PUBCHEM_ATOM_DEF_STEREO_COUNT>
1

> <PUBCHEM_ATOM_UDEF_STEREO_COUNT>
0

> <PUBCHEM_BOND_DEF_STEREO_COUNT>
0

> <PUBCHEM_BOND_UDEF_STEREO_COUNT>
0

> <PUBCHEM_ISOTOPIC_ATOM_COUNT>
0

> <PUBCHEM_COMPONENT_COUNT>
1

> <PUBCHEM_CACTVS_TAUTO_COUNT>
1

> <PUBCHEM_CONFORMER_ID>
030C4D8A00000001

> <PUBCHEM_MMFF94_ENERGY>
69.1014

> <PUBCHEM_FEATURE_SELFOVERLAP>
25.374

> <PUBCHEM_SHAPE_FINGERPRINT>
10670039 82 17976275843683619740
10883706 163 17044561909383530888
10928967 22 7925625644087968632
11045515 52 17549527957118931903
11135609 187 18341602751162337921
11273773 118 17895477037942282924
11370993 70 18411981364435739768
11725454 13 17532926105044466759
12100795 323 18334573572634707428
12107183 9 18410283715184577410
12422481 6 17894343389756156644
12633257 1 18335412435929811362
12769317 202 18340478959366363216
13103583 49 13479137847931811493
13134695 92 17689719658115194567
13583140 156 17969510303582243387
13590594 115 17332247498523086066
14251764 75 18129680620407680129
14790565 3 18049167954462865980
14848178 96 18342737412379880136
14950920 106 15285645451241977396
14957384 54 18261099773471020466
15081414 286 17983025444544350318
1768 210 18059278976421838464
20621476 13 18194399987588569220
21033648 29 17749957635403355885
21095088 737 18129370673944505381
21279426 13 18271822237431240572
21315764 268 18266741470870726496
21860390 5 17914621553335945374
22122407 14 17622183273735345657
22182937 141 18340496658926655219
23559900 14 18270966731027178650
238 59 18122044426316057325
283562 15 18124309673382994663
3117164 225 18335968836559344650
3187 122 17824838973070446147
4371632 12 18263348232154012429
469060 322 17760105294325147371
474 4 18198343961952327595
5048184 11 18342744039250725784
5252454 2 18265075611495378180
633830 44 17914625964383129343
9980921 177 10590343872384731877
9981440 41 18340481283086570010

> <PUBCHEM_SHAPE_MULTIPOLES>
477.84
10.79
4.76
1.58
6.43
1.22
0.45
-12.38
0.01
0.88
0.21
-2.91
-0.81
1.82

> <PUBCHEM_SHAPE_SELFOVERLAP>
1041.469

> <PUBCHEM_SHAPE_VOLUME>
261.5

> <PUBCHEM_COORDINATE_TYPE>
2
5
10

$$$$
