75536814
  -OEChem-12032416313D

 48 50  0     1  0  0  0  0  0999 V2000
    0.5848   -1.1815   -0.4001 O   0  0  0  0  0  0  0  0  0  0  0  0
   -0.3587    2.0845    0.7610 O   0  0  0  0  0  0  0  0  0  0  0  0
    4.2330    1.3949    0.1140 O   0  0  0  0  0  0  0  0  0  0  0  0
    3.1917   -0.6125    0.6733 N   0  0  0  0  0  0  0  0  0  0  0  0
   -2.7563    0.1455    0.1546 N   0  0  0  0  0  0  0  0  0  0  0  0
   -7.7736   -0.1014    0.4023 N   0  0  0  0  0  0  0  0  0  0  0  0
    0.9160    0.0994    0.1615 C   0  0  1  0  0  0  0  0  0  0  0  0
   -0.3875    0.6717    0.7018 C   0  0  2  0  0  0  0  0  0  0  0  0
    5.3755   -0.6525   -0.3310 C   0  0  0  0  0  0  0  0  0  0  0  0
   -1.3815    0.1484   -0.3185 C   0  0  1  0  0  0  0  0  0  0  0  0
    6.3926   -0.8674    0.7955 C   0  0  0  0  0  0  0  0  0  0  0  0
    6.1217    0.0798   -1.4473 C   0  0  0  0  0  0  0  0  0  0  0  0
    7.7221   -0.3453    0.2612 C   0  0  0  0  0  0  0  0  0  0  0  0
    7.3250    0.7070   -0.7582 C   0  0  0  0  0  0  0  0  0  0  0  0
   -0.8413   -1.2488   -0.5755 C   0  0  0  0  0  0  0  0  0  0  0  0
    1.9853   -0.0679    1.2263 C   0  0  0  0  0  0  0  0  0  0  0  0
    4.2217    0.1675    0.1600 C   0  0  0  0  0  0  0  0  0  0  0  0
   -3.6911   -0.0380   -0.9492 C   0  0  0  0  0  0  0  0  0  0  0  0
   -5.1201   -0.0603   -0.4758 C   0  0  0  0  0  0  0  0  0  0  0  0
   -5.6309   -1.1923    0.1497 C   0  0  0  0  0  0  0  0  0  0  0  0
   -5.9345    1.0512   -0.6627 C   0  0  0  0  0  0  0  0  0  0  0  0
   -6.9520   -1.1625    0.5664 C   0  0  0  0  0  0  0  0  0  0  0  0
   -7.2420    0.9806   -0.2095 C   0  0  0  0  0  0  0  0  0  0  0  0
    1.3053    0.7228   -0.6543 H   0  0  0  0  0  0  0  0  0  0  0  0
   -0.6065    0.2802    1.7031 H   0  0  0  0  0  0  0  0  0  0  0  0
   -1.2933    0.7638   -1.2250 H   0  0  0  0  0  0  0  0  0  0  0  0
    5.0041   -1.6113   -0.7123 H   0  0  0  0  0  0  0  0  0  0  0  0
    6.4732   -1.9259    1.0653 H   0  0  0  0  0  0  0  0  0  0  0  0
    6.1151   -0.3225    1.7060 H   0  0  0  0  0  0  0  0  0  0  0  0
    6.4736   -0.6516   -2.1861 H   0  0  0  0  0  0  0  0  0  0  0  0
    5.5236    0.8218   -1.9855 H   0  0  0  0  0  0  0  0  0  0  0  0
    8.2710   -1.1573   -0.2308 H   0  0  0  0  0  0  0  0  0  0  0  0
    8.3574    0.0596    1.0542 H   0  0  0  0  0  0  0  0  0  0  0  0
    7.0383    1.6375   -0.2548 H   0  0  0  0  0  0  0  0  0  0  0  0
    8.1337    0.9316   -1.4595 H   0  0  0  0  0  0  0  0  0  0  0  0
   -1.2208   -1.9817    0.1460 H   0  0  0  0  0  0  0  0  0  0  0  0
   -1.0654   -1.6098   -1.5838 H   0  0  0  0  0  0  0  0  0  0  0  0
    1.6549   -0.7722    1.9977 H   0  0  0  0  0  0  0  0  0  0  0  0
    2.2086    0.8924    1.7034 H   0  0  0  0  0  0  0  0  0  0  0  0
    3.2873   -1.6238    0.6647 H   0  0  0  0  0  0  0  0  0  0  0  0
   -2.9537    1.0373    0.6094 H   0  0  0  0  0  0  0  0  0  0  0  0
   -0.1655    2.4241   -0.1292 H   0  0  0  0  0  0  0  0  0  0  0  0
   -3.4946   -0.9815   -1.4744 H   0  0  0  0  0  0  0  0  0  0  0  0
   -3.5673    0.7605   -1.6924 H   0  0  0  0  0  0  0  0  0  0  0  0
   -5.0235   -2.0764    0.3108 H   0  0  0  0  0  0  0  0  0  0  0  0
   -5.5698    1.9518   -1.1445 H   0  0  0  0  0  0  0  0  0  0  0  0
   -7.3983   -2.0199    1.0592 H   0  0  0  0  0  0  0  0  0  0  0  0
   -7.9178    1.8208   -0.3305 H   0  0  0  0  0  0  0  0  0  0  0  0
  1  7  1  0  0  0  0
  1 15  1  0  0  0  0
  2  8  1  0  0  0  0
  2 42  1  0  0  0  0
  3 17  2  0  0  0  0
  4 16  1  0  0  0  0
  4 17  1  0  0  0  0
  4 40  1  0  0  0  0
  5 10  1  0  0  0  0
  5 18  1  0  0  0  0
  5 41  1  0  0  0  0
  6 22  2  0  0  0  0
  6 23  1  0  0  0  0
  7  8  1  0  0  0  0
  7 16  1  0  0  0  0
  7 24  1  0  0  0  0
  8 10  1  0  0  0  0
  8 25  1  0  0  0  0
  9 11  1  0  0  0  0
  9 12  1  0  0  0  0
  9 17  1  0  0  0  0
  9 27  1  0  0  0  0
 10 15  1  0  0  0  0
 10 26  1  0  0  0  0
 11 13  1  0  0  0  0
 11 28  1  0  0  0  0
 11 29  1  0  0  0  0
 12 14  1  0  0  0  0
 12 30  1  0  0  0  0
 12 31  1  0  0  0  0
 13 14  1  0  0  0  0
 13 32  1  0  0  0  0
 13 33  1  0  0  0  0
 14 34  1  0  0  0  0
 14 35  1  0  0  0  0
 15 36  1  0  0  0  0
 15 37  1  0  0  0  0
 16 38  1  0  0  0  0
 16 39  1  0  0  0  0
 18 19  1  0  0  0  0
 18 43  1  0  0  0  0
 18 44  1  0  0  0  0
 19 20  2  0  0  0  0
 19 21  1  0  0  0  0
 20 22  1  0  0  0  0
 20 45  1  0  0  0  0
 21 23  2  0  0  0  0
 21 46  1  0  0  0  0
 22 47  1  0  0  0  0
 23 48  1  0  0  0  0
M  END
> <PUBCHEM_COMPOUND_CID>
75536814

> <PUBCHEM_CONFORMER_RMSD>
1

> <PUBCHEM_CONFORMER_DIVERSEORDER>
1
107
54
10
142
23
117
30
86
139
84
92
27
26
94
63
83
38
93
59
115
125
143
16
36
97
90
37
120
102
18
32
68
140
60
47
29
50
119
137
20
87
61
48
67
136
34
28
56
124
65
7
88
9
51
70
131
123
100
8
76
43
71
11
89
42
24
129
55
113
45
79
146
103
81
145
98
44
73
138
22
141
104
17
122
64
72
2
57
21
58
62
101
75
40
69
99
85
134
111
112
49
39
116
133
19
148
3
80
114
135
78
105
41
35
127
147
33
95
118
31
74
144
4
109
25
106
96
66
6
108
121
126
46
13
14
12
110
91
53
52
130
82
132
15
77
5
128

> <PUBCHEM_MMFF94_PARTIAL_CHARGES>
26
1 -0.56
10 0.27
15 0.28
16 0.3
17 0.57
18 0.41
19 -0.14
2 -0.68
20 -0.15
21 -0.15
22 0.16
23 0.16
3 -0.57
4 -0.73
40 0.37
41 0.36
42 0.4
45 0.15
46 0.15
47 0.15
48 0.15
5 -0.9
6 -0.62
7 0.28
8 0.28
9 0.06

> <PUBCHEM_EFFECTIVE_ROTOR_COUNT>
9

> <PUBCHEM_PHARMACOPHORE_FEATURES>
11
1 1 acceptor
1 2 acceptor
1 2 donor
1 3 acceptor
1 4 donor
1 5 cation
1 5 donor
1 6 acceptor
5 1 7 8 10 15 rings
5 9 11 12 13 14 rings
6 6 19 20 21 22 23 rings

> <PUBCHEM_HEAVY_ATOM_COUNT>
23

> <PUBCHEM_ATOM_DEF_STEREO_COUNT>
3

> <PUBCHEM_ATOM_UDEF_STEREO_COUNT>
0

> <PUBCHEM_BOND_DEF_STEREO_COUNT>
0

> <PUBCHEM_BOND_UDEF_STEREO_COUNT>
0

> <PUBCHEM_ISOTOPIC_ATOM_COUNT>
0

> <PUBCHEM_COMPONENT_COUNT>
1

> <PUBCHEM_CACTVS_TAUTO_COUNT>
2

> <PUBCHEM_CONFORMER_ID>
048099AE00000001

> <PUBCHEM_MMFF94_ENERGY>
45.4544

> <PUBCHEM_FEATURE_SELFOVERLAP>
55.822

> <PUBCHEM_SHAPE_FINGERPRINT>
10050765 1 18051131393416959114
10066227 49 18114740418103075898
10299344 5 17967813847112870907
10319688 140 16629413441374010910
106641 1 12468644932161461308
11315181 36 17676206871654105181
11524674 6 17775565364636950287
11638347 137 12324235058306755640
12091667 2 18260266348511191851
12166972 35 17967254212716453796
12236239 1 18040996232982296902
13533116 47 15502924247801179776
13685833 64 16272209682977714002
14123256 10 18410575080373392864
14251752 14 18343862208211030733
14251764 18 17167864170692713823
14251764 46 18343019987205601183
14849402 71 16950575422852783949
14856354 85 18412547635211231943
14933364 13 18260547822849657701
15183329 4 16128657439953923839
15461852 350 8142076572926604329
15716309 27 17458343035755413491
15849732 13 18413388752146069093
18006028 8 15769774654193274792
18335252 98 18186523197956552706
20157964 124 16805041809954916298
21095086 128 17240198833018406123
21150785 3 17967817158543043164
21267235 1 18343304768716500536
21315763 28 17240480291163036798
21792961 116 18339354163482302693
22224240 67 14779266423230739440
23035841 295 18411698794532492875
23559900 14 16128078053329602362
246663 6 18060704995773695607
28498 318 15339123420246529380
335352 9 18131346432268401077
34797466 226 17022907839347890102
4073 2 17168151169082134050
4325135 7 16515402975881140727
5283156 175 18411698756405301498
5758199 1 16443064989213916337
59682541 35 14851612089584455565
59755656 215 17632579318555769839
59755656 520 17749103417779587947
8209 1 18410573980861765102

> <PUBCHEM_SHAPE_MULTIPOLES>
440.78
25.14
1.27
1.01
1.74
0.16
0.06
-0.63
1.97
0.68
-0.11
-0.7
0.04
-0.09

> <PUBCHEM_SHAPE_SELFOVERLAP>
919.197

> <PUBCHEM_SHAPE_VOLUME>
250.3

> <PUBCHEM_COORDINATE_TYPE>
2
5
10

$$$$
